data_functionalizedCrystal
_audit_creation_method	'MofGen! by Chris Wilmer'
_symmetry_space_group_name_H-M	'P1'
_symmetry_Int_Tables_number	1
_symmetry_cell_setting	triclinic
loop_
_symmetry_equiv_pos_as_xyz
  x,y,z
_cell_length_a	21.395362
_cell_length_b	21.295416
_cell_length_c	21.395355
_cell_angle_alpha	90.018978
_cell_angle_beta	89.956060
_cell_angle_gamma	89.953791
loop_
_atom_site_label
_atom_site_type_symbol
_atom_site_fract_x
_atom_site_fract_y
_atom_site_fract_z
Zn1	Zn	0.957861	0.250415	-0.354584
Zn2	Zn	1.457861	0.750415	0.145416
Zn3	Zn	0.957764	0.355667	-0.249805
Zn4	Zn	1.457764	0.855667	0.250195
Zn5	Zn	0.853076	0.250445	-0.249785
Zn6	Zn	1.353076	0.750445	0.250215
Zn7	Zn	0.853046	0.355680	-0.354510
Zn8	Zn	1.353046	0.855680	0.145490
O9	O	0.905437	0.303052	-0.302171
O10	O	1.405437	0.803052	0.197829
O11	O	1.045526	0.264359	-0.340724
O12	O	1.545526	0.764359	0.159276
O13	O	0.943849	0.341716	-0.162125
O14	O	1.443849	0.841716	0.337875
O15	O	0.867029	0.162351	-0.263709
O16	O	1.367029	0.662351	0.236291
O17	O	1.045455	0.341687	-0.263744
O18	O	1.545455	0.841687	0.236256
O19	O	0.944014	0.162330	-0.340704
O20	O	1.444014	0.662330	0.159296
O21	O	0.866935	0.264409	-0.162110
O22	O	1.366935	0.764409	0.337890
O23	O	0.765394	0.264422	-0.263638
O24	O	1.265394	0.764422	0.236362
O25	O	0.866978	0.341709	-0.442198
O26	O	1.366978	0.841709	0.057802
O27	O	0.765372	0.341738	-0.340579
O28	O	1.265372	0.841738	0.159421
O29	O	0.943985	0.264372	-0.442252
O30	O	1.443985	0.764372	0.057748
O31	O	0.943820	0.443758	-0.263672
O32	O	1.443820	0.943758	0.236328
O33	O	0.866884	0.443767	-0.340598
O34	O	1.366884	0.943767	0.159402
C35	C	0.742649	0.303085	-0.302098
C36	C	1.242649	0.803085	0.197902
C37	C	0.673008	0.303114	-0.302082
C38	C	1.173008	0.803114	0.197918
C39	C	0.640300	0.343426	-0.342085
C40	C	1.140300	0.843426	0.157915
C41	C	0.574864	0.343411	-0.342113
C42	C	1.074864	0.843411	0.157887
C43	C	0.542140	0.303090	-0.302127
C44	C	1.042140	0.803090	0.197873
C45	C	0.574856	0.262771	-0.262121
C46	C	1.074856	0.762771	0.237879
C47	C	0.640290	0.262783	-0.262098
C48	C	1.140290	0.762783	0.237902
C49	C	0.438415	0.298019	-0.245721
C50	C	0.938415	0.798019	0.254279
C51	C	0.372982	0.298011	-0.245743
C52	C	0.872982	0.798011	0.254257
C53	C	0.340319	0.303049	-0.302196
C54	C	0.840319	0.803049	0.197804
C55	C	0.373097	0.308108	-0.358629
C56	C	0.873097	0.808108	0.141371
C57	C	0.438531	0.308120	-0.358607
C58	C	0.938531	0.808120	0.141393
C59	C	0.471187	0.303072	-0.302147
C60	C	0.971187	0.803072	0.197853
C61	C	0.236658	0.343346	-0.342233
C62	C	0.736658	0.843346	0.157767
C63	C	0.171222	0.343326	-0.342262
C64	C	0.671222	0.843326	0.157738
C65	C	0.171214	0.262690	-0.262264
C66	C	0.671214	0.762690	0.237736
C67	C	0.236650	0.262706	-0.262240
C68	C	0.736650	0.762706	0.237760
C69	C	0.269368	0.303038	-0.302224
C70	C	0.769368	0.803038	0.197776
C71	C	0.905355	0.466603	-0.302143
C72	C	1.405355	0.966603	0.197857
C73	C	0.905378	0.536571	-0.302152
C74	C	1.405378	1.036571	0.197848
C75	C	0.945474	0.569412	-0.262139
C76	C	1.445474	1.069412	0.237861
C77	C	0.945504	0.635155	-0.262156
C78	C	1.445504	1.135155	0.237844
C79	C	0.905426	0.668054	-0.302180
C80	C	1.405426	1.168054	0.197820
C81	C	0.865326	0.635205	-0.342200
C82	C	1.365326	1.135205	0.157800
C83	C	0.865302	0.569464	-0.342187
C84	C	1.365302	1.069464	0.157813
N85	N	0.850616	0.771336	-0.306936
N86	N	1.350616	1.271336	0.193064
N87	N	0.850641	0.833787	-0.306945
N88	N	1.350641	1.333787	0.193055
C89	C	0.905496	0.866129	-0.302224
C90	C	1.405496	1.366129	0.197776
N91	N	0.960328	0.833659	-0.297481
N92	N	1.460328	1.333659	0.202519
N93	N	0.960303	0.771202	-0.297468
N94	N	1.460303	1.271202	0.202532
C95	C	0.905447	0.739339	-0.302199
C96	C	1.405447	1.239339	0.197801
C97	C	0.945628	0.970255	-0.262227
C98	C	1.445628	1.470255	0.237773
C99	C	0.945659	1.035999	-0.262249
C100	C	1.445659	1.535999	0.237751
C101	C	0.865476	1.036048	-0.342289
C102	C	1.365476	1.536048	0.157711
C103	C	0.865451	0.970305	-0.342271
C104	C	1.365451	1.470305	0.157729
C105	C	0.905526	0.937413	-0.302237
C106	C	1.405526	1.437413	0.197763
C107	C	1.068860	0.303019	-0.302244
C108	C	1.568860	0.803019	0.197756
C109	C	1.138501	0.303005	-0.302275
C110	C	1.638501	0.803005	0.197725
C111	C	0.905489	0.303039	-0.465594
C112	C	1.405489	0.803039	0.034406
C113	C	0.905511	0.303033	-0.535236
C114	C	1.405511	0.803033	-0.035236
C115	C	0.905537	1.138861	-0.302223
C116	C	1.405537	1.638861	0.197777
C117	C	0.905581	1.068893	-0.302273
C118	C	1.405581	1.568893	0.197727
C119	C	0.945607	0.262762	-0.567978
C120	C	1.445607	0.762762	-0.067978
C121	C	0.945606	0.262735	-0.633413
C122	C	1.445606	0.762735	-0.133413
C123	C	0.905516	0.302991	-0.666104
C124	C	1.405516	0.802991	-0.166104
C125	C	0.865412	0.343265	-0.633354
C126	C	1.365412	0.843265	-0.133354
C127	C	0.865410	0.343286	-0.567920
C128	C	1.365410	0.843286	-0.067920
C129	C	0.900540	0.359672	-0.769767
C130	C	1.400540	0.859672	-0.269767
C131	C	0.900547	0.359652	-0.835200
C132	C	1.400547	0.859652	-0.335200
C133	C	0.905520	0.302924	-0.867925
C134	C	1.405520	0.802924	-0.367925
C135	C	0.910499	0.246215	-0.835208
C136	C	1.410499	0.746215	-0.335208
C137	C	0.910496	0.246237	-0.769774
C138	C	1.410496	0.746237	-0.269774
C139	C	0.905514	0.302972	-0.737056
C140	C	1.405514	0.802972	-0.237056
C141	C	0.945617	0.262620	-0.971620
C142	C	1.445617	0.762620	-0.471620
C143	C	0.945612	0.262592	-1.037056
C144	C	1.445612	0.762592	-0.537056
C145	C	0.865421	0.343127	-1.036996
C146	C	1.365421	0.843127	-0.536996
C147	C	0.865423	0.343150	-0.971560
C148	C	1.365423	0.843150	-0.471560
C149	C	0.905524	0.302897	-0.938876
C150	C	1.405524	0.802897	-0.438876
C151	C	0.905421	0.303019	-0.139383
C152	C	1.405421	0.803019	0.360617
C153	C	0.905520	0.302847	-0.069742
C154	C	1.405520	0.802847	0.430258
H155	H	0.346504	0.312209	-0.404599
H156	H	0.846504	0.812209	0.095401
H157	H	0.548228	0.376237	-0.374691
H158	H	1.048228	0.876237	0.125309
Cl159	Cl	0.479736	0.314475	-0.429549
Cl160	Cl	0.979736	0.814475	0.070451
H161	H	0.832696	0.661996	-0.374789
H162	H	1.332696	1.161996	0.125211
H163	H	0.263281	0.229883	-0.229662
H164	H	0.763281	0.729883	0.270338
H165	H	0.978260	0.229985	-0.541371
H166	H	1.478260	0.729985	-0.041371
H167	H	0.896323	0.405855	-0.743129
H168	H	1.396323	0.905855	-0.243129
H169	H	0.548207	0.229940	-0.229564
H170	H	1.048207	0.729940	0.270436
H171	H	0.832847	1.062834	-0.374880
H172	H	1.332847	1.562834	0.125120
H173	H	0.832768	0.376039	-0.659975
H174	H	1.332768	0.876039	-0.159975
H175	H	0.263299	0.376183	-0.374793
H176	H	0.763299	0.876183	0.125207
H177	H	0.978157	0.661899	-0.229573
H178	H	1.478157	1.161899	0.270427
H179	H	0.978314	1.062736	-0.229667
H180	H	1.478314	1.562736	0.270333
H181	H	0.346299	0.293896	-0.199791
H182	H	0.846299	0.793896	0.300209
Cl183	Cl	0.479470	0.291688	-0.174744
Cl184	Cl	0.979470	0.791688	0.325256
H185	H	0.978256	0.229938	-0.660077
H186	H	1.478256	0.729938	-0.160077
H187	H	0.144592	0.376152	-0.374841
H188	H	0.644592	0.876152	0.125159
H189	H	0.914549	0.200062	-0.743139
H190	H	1.414549	0.700062	-0.243139
H191	H	0.914549	0.200022	-0.861851
H192	H	1.414549	0.700022	-0.361851
Cl193	Cl	0.815038	0.929017	-0.392573
Cl194	Cl	1.315038	1.429017	0.107427
Cl195	Cl	0.130081	0.211996	-0.211998
Cl196	Cl	0.630081	0.711996	0.288002
Cl197	Cl	0.681411	0.212101	-0.211804
Cl198	Cl	1.181411	0.712101	0.288196
H199	H	0.978107	0.542633	-0.229543
H200	H	1.478107	1.042633	0.270457
H201	H	0.832772	0.375897	-1.063612
H202	H	1.332772	0.875897	-0.563612
Cl203	Cl	0.815000	0.393918	-0.526756
Cl204	Cl	1.315000	0.893918	-0.026756
Cl205	Cl	0.814891	0.528176	-0.392492
Cl206	Cl	1.314891	1.028176	0.107508
H207	H	0.978262	0.943473	-0.229631
H208	H	1.478262	1.443473	0.270369
H209	H	0.978266	0.229840	-0.945007
H210	H	1.478266	0.729840	-0.445007
H211	H	0.978262	0.229795	-1.063714
H212	H	1.478262	0.729795	-0.563714
H213	H	0.832776	0.375947	-0.944901
H214	H	1.332776	0.875947	-0.444901
H215	H	0.666935	0.376266	-0.374644
H216	H	1.166935	0.876266	0.125356
Cl217	Cl	0.894294	0.430942	-0.876323
Cl218	Cl	1.394294	0.930942	-0.376323
