data_functionalizedCrystal
_audit_creation_method	'MofGen! by Chris Wilmer'
_symmetry_space_group_name_H-M	'P1'
_symmetry_Int_Tables_number	1
_symmetry_cell_setting	triclinic
loop_
_symmetry_equiv_pos_as_xyz
  x,y,z
_cell_length_a	17.699083
_cell_length_b	15.995350
_cell_length_c	16.176319
_cell_angle_alpha	89.995430
_cell_angle_beta	89.998611
_cell_angle_gamma	83.387695
loop_
_atom_site_label
_atom_site_type_symbol
_atom_site_fract_x
_atom_site_fract_y
_atom_site_fract_z
O1	O	1.004255	0.105885	-0.068627
O2	O	1.504255	0.605885	0.431373
O3	O	0.783899	0.119661	-0.068653
O4	O	1.283899	0.619661	0.431347
O5	O	0.900101	-0.009127	-0.068638
O6	O	1.400101	0.490873	0.431362
O7	O	0.888054	0.234673	-0.068641
O8	O	1.388054	0.734673	0.431359
O9	O	0.900085	-0.009135	0.068855
O10	O	1.400085	0.490865	0.568855
O11	O	0.783883	0.119653	0.068840
O12	O	1.283883	0.619653	0.568840
O13	O	1.004239	0.105877	0.068867
O14	O	1.504239	0.605877	0.568867
Cu15	Cu	0.894060	0.112764	0.081408
Cu16	Cu	1.394060	0.612764	0.581408
Cu17	Cu	0.894079	0.112774	-0.081194
Cu18	Cu	1.394079	0.612774	0.418806
O19	O	0.888038	0.234665	0.068852
O20	O	1.388038	0.734665	0.568852
C21	C	0.755694	0.119163	0.000090
C22	C	1.255694	0.619163	0.500090
C23	C	0.671673	0.117683	0.000080
C24	C	1.171673	0.617683	0.500080
C25	C	0.623178	0.193278	0.000079
C26	C	1.123178	0.693278	0.500079
C27	C	0.544232	0.191882	0.000090
C28	C	1.044232	0.691882	0.500090
C29	C	0.513783	0.114889	0.000095
C30	C	1.013783	0.614889	0.500095
C31	C	0.562285	0.039287	0.000098
C32	C	1.062285	0.539287	0.500098
C33	C	0.641229	0.040685	0.000094
C34	C	1.141229	0.540685	0.500094
C35	C	0.243912	0.033651	0.000119
C36	C	0.743912	0.533651	0.500119
C37	C	0.164962	0.032259	0.000121
C38	C	0.664962	0.532259	0.500121
C39	C	0.146916	0.184848	0.000115
C40	C	0.646916	0.684848	0.500115
C41	C	0.225860	0.186245	0.000110
C42	C	0.725860	0.686245	0.500110
C43	C	0.274354	0.110644	0.000118
C44	C	0.774354	0.610644	0.500118
C45	C	0.359956	0.112159	0.000108
C46	C	0.859956	0.612159	0.500108
C47	C	0.428183	0.113373	0.000099
C48	C	0.928183	0.613373	0.500099
C49	C	0.899595	-0.040324	0.000107
C50	C	1.399595	0.459676	0.500107
C51	C	0.898101	-0.133272	0.000102
C52	C	1.398101	0.366728	0.500102
C53	C	0.892739	-0.471008	0.000104
C54	C	1.392739	0.028992	0.500104
C55	C	0.809983	-0.423406	-0.000214
C56	C	1.309983	0.076594	0.499786
C57	C	0.811476	-0.326719	0.000096
C58	C	1.311476	0.173281	0.500096
C59	C	0.895399	-0.303453	0.000102
C60	C	1.395399	0.196547	0.500102
C61	C	0.936208	-0.344618	0.078621
C62	C	1.436208	0.155382	0.578621
C63	C	0.934129	-0.441250	0.078687
C64	C	1.434129	0.058750	0.578687
C65	C	0.935857	-0.441602	-0.077669
C66	C	1.435857	0.058398	0.422331
C67	C	0.935838	-0.344657	-0.078706
C68	C	1.435838	0.155343	0.421294
C69	C	0.896907	-0.208759	0.000104
C70	C	1.396907	0.291241	0.500104
C71	C	0.891234	-0.565703	0.000108
C72	C	1.391234	-0.065703	0.500108
C73	C	1.032445	0.106375	0.000122
C74	C	1.532445	0.606375	0.500122
C75	C	1.116465	0.107856	0.000126
C76	C	1.616465	0.607856	0.500126
C77	C	0.888544	0.265863	0.000105
C78	C	1.388544	0.765863	0.500105
C79	C	0.890037	0.358810	0.000104
C80	C	1.390037	0.858810	0.500104
N81	N	0.894052	0.112757	0.195773
N82	N	1.394052	0.612757	0.695773
N83	N	0.894092	0.112775	-0.195559
N84	N	1.394092	0.612775	0.304441
C85	C	0.945521	0.055753	0.239043
C86	C	1.445521	0.555753	0.739043
C87	C	0.945525	0.055752	0.325591
C88	C	1.445525	0.555752	0.825591
C89	C	0.894063	0.112760	0.368865
C90	C	1.394063	0.612760	0.868865
C91	C	0.842588	0.169767	0.325589
C92	C	1.342588	0.669767	0.825589
C93	C	0.842581	0.169763	0.239043
C94	C	1.342581	0.669763	0.739043
C95	C	0.842614	0.169782	0.674617
C96	C	1.342614	0.669782	1.174617
C97	C	0.842626	0.169783	0.761168
C98	C	1.342626	0.669783	1.261168
C99	C	0.945558	0.055772	0.761164
C100	C	1.445558	0.555772	1.261164
C101	C	0.945551	0.055768	0.674619
C102	C	1.445551	0.555768	1.174619
C103	C	0.894074	0.112771	0.631350
C104	C	1.394074	0.612771	1.131350
C105	C	0.894069	0.112770	0.537505
C106	C	1.394069	0.612770	1.037505
C107	C	0.894070	0.112765	0.462708
C108	C	1.394070	0.612765	0.962708
H109	H	0.680714	-0.020873	0.000094
H110	H	1.180714	0.479127	0.500094
H111	H	0.779168	-0.298792	0.056470
H112	H	1.279168	0.201208	0.556470
H113	H	0.987435	0.009335	0.360821
H114	H	1.487435	0.509335	0.860821
C115	C	1.002175	-0.006941	0.808763
C116	C	1.502175	0.493059	1.308763
H117	H	0.994806	0.001216	0.866504
H118	H	1.494806	0.501216	1.366504
H119	H	1.052683	0.002083	0.794573
H120	H	1.552683	0.502083	1.294573
H121	H	0.993953	-0.062814	0.794583
H122	H	1.493953	0.437186	1.294583
H123	H	0.987431	0.009334	0.203815
H124	H	1.487431	0.509334	0.703815
C125	C	0.297246	-0.049507	0.000121
C126	C	0.797246	0.450493	0.500121
H127	H	0.267803	-0.095559	0.000117
H128	H	0.767803	0.404441	0.500117
H129	H	0.328418	-0.052139	0.048067
H130	H	0.828418	0.447861	0.548067
H131	H	0.328416	-0.052133	-0.047832
H132	H	0.828416	0.447867	0.452168
C133	C	0.785968	0.232470	0.191445
C134	C	1.285968	0.732470	0.691445
H135	H	0.755324	0.266429	0.229612
H136	H	1.255324	0.766429	0.729612
H137	H	0.754462	0.202393	0.157691
H138	H	1.254462	0.702393	0.657691
H139	H	0.813193	0.267289	0.157677
H140	H	1.313193	0.767289	0.657677
C141	C	0.528793	-0.045403	0.000103
C142	C	1.028793	0.454597	0.500103
H143	H	0.474831	-0.035410	0.000097
H144	H	0.974831	0.464590	0.500097
H145	H	0.545439	-0.076528	0.048049
H146	H	1.045439	0.423472	0.548049
H147	H	0.545440	-0.076517	-0.047851
H148	H	1.045440	0.423483	0.452149
H149	H	0.987459	0.009350	0.639387
H150	H	1.487459	0.509350	1.139387
H151	H	0.800716	0.216208	0.796401
H152	H	1.300716	0.716208	1.296401
H153	H	0.906001	-0.317344	-0.136792
H154	H	1.406001	0.182656	0.363208
H155	H	0.800700	0.216198	0.639394
H156	H	1.300700	0.716198	1.139394
C157	C	0.259349	0.270937	0.000108
C158	C	0.759349	0.770937	0.500108
H159	H	0.219160	0.315760	0.000117
H160	H	0.719160	0.815760	0.500117
H161	H	0.289771	0.274659	-0.047839
H162	H	0.789771	0.774659	0.452161
H163	H	0.289770	0.274646	0.048061
H164	H	0.789770	0.774646	0.548061
C165	C	0.785981	0.232475	0.373188
C166	C	1.285981	0.732475	0.873188
H167	H	0.793361	0.224321	0.430930
H168	H	1.293361	0.724321	0.930930
H169	H	0.735470	0.223454	0.359015
H170	H	1.235470	0.723454	0.859015
H171	H	0.794203	0.288348	0.358994
H172	H	1.294203	0.788348	0.858994
H173	H	0.779397	-0.298228	-0.056190
H174	H	1.279397	0.201772	0.443810
H175	H	0.647962	0.255975	0.000074
H176	H	1.147962	0.755975	0.500074
H177	H	0.776912	-0.441867	-0.056522
H178	H	1.276912	0.058133	0.443478
H179	H	0.777046	-0.442936	0.055772
H180	H	1.277046	0.057064	0.555772
H181	H	0.504750	0.253440	0.000088
H182	H	1.004750	0.753440	0.500088
C183	C	0.093570	0.268009	0.000118
C184	C	0.593570	0.768009	0.500118
H185	H	0.042192	0.256154	0.000131
H186	H	0.542192	0.756154	0.500131
H187	H	0.102797	0.299588	-0.047831
H188	H	0.602797	0.799588	0.452169
H189	H	0.102804	0.299583	0.048068
H190	H	0.602804	0.799583	0.548068
H191	H	0.904358	-0.459494	0.137376
H192	H	1.404358	0.040506	0.637376
C193	C	0.131470	-0.052437	0.000135
C194	C	0.631470	0.447563	0.500135
H195	H	0.171657	-0.097263	0.000148
H196	H	0.671657	0.402737	0.500148
H197	H	0.101048	-0.056155	-0.047809
H198	H	0.601048	0.443845	0.452191
H199	H	0.101050	-0.056146	0.048091
H200	H	0.601050	0.443854	0.548091
C201	C	1.018523	-0.324101	-0.085098
C202	C	1.518523	0.175899	0.414902
H203	H	1.041537	-0.349782	-0.133237
H204	H	1.541537	0.150218	0.366763
H205	H	1.046106	-0.344982	-0.037612
H206	H	1.546106	0.155018	0.462388
H207	H	1.018938	-0.264856	-0.088395
H208	H	1.518938	0.235144	0.411605
C209	C	1.016203	-0.484986	0.083522
C210	C	1.516203	0.015014	0.583522
H211	H	1.050667	-0.443672	0.085444
H212	H	1.550667	0.056328	0.585444
H213	H	1.026650	-0.519522	0.036180
H214	H	1.526650	-0.019522	0.536180
H215	H	1.021928	-0.518733	0.131942
H216	H	1.521928	-0.018733	0.631942
C217	C	1.019497	-0.325703	0.082582
C218	C	1.519497	0.174297	0.582582
H219	H	1.030146	-0.292449	0.036276
H220	H	1.530146	0.207551	0.536276
H221	H	1.052315	-0.377057	0.081858
H222	H	1.552315	0.122943	0.581858
H223	H	1.027408	-0.295915	0.132054
H224	H	1.527408	0.204085	0.632054
H225	H	0.908807	-0.462083	-0.137181
H226	H	1.408807	0.037917	0.362819
C227	C	0.897896	-0.306220	0.157552
C228	C	1.397896	0.193780	0.657552
H229	H	0.857037	-0.265112	0.142823
H230	H	1.357037	0.234888	0.642823
H231	H	0.934037	-0.280556	0.189324
H232	H	1.434037	0.219444	0.689324
H233	H	0.878959	-0.349308	0.189196
H234	H	1.378959	0.150692	0.689196
C235	C	1.018280	-0.484681	-0.078384
C236	C	1.518280	0.015319	0.421616
H237	H	1.026407	-0.520419	-0.031544
H238	H	1.526407	-0.020419	0.468456
H239	H	1.052474	-0.443089	-0.076659
H240	H	1.552474	0.056911	0.423341
H241	H	1.026801	-0.517132	-0.127385
H242	H	1.526801	-0.017132	0.372615
