data_functionalizedCrystal
_audit_creation_method	'MofGen! by Chris Wilmer'
_symmetry_space_group_name_H-M	'P1'
_symmetry_Int_Tables_number	1
_symmetry_cell_setting	triclinic
loop_
_symmetry_equiv_pos_as_xyz
  x,y,z
_cell_length_a	13.897449
_cell_length_b	18.215405
_cell_length_c	18.215399
_cell_angle_alpha	90.032960
_cell_angle_beta	90.015523
_cell_angle_gamma	90.026165
loop_
_atom_site_label
_atom_site_type_symbol
_atom_site_fract_x
_atom_site_fract_y
_atom_site_fract_z
Zn1	Zn	-1.474605	0.292949	-0.416077
Zn2	Zn	-1.474493	0.416026	-0.293005
Zn3	Zn	-1.313309	0.292980	-0.293027
Zn4	Zn	-1.313255	0.415981	-0.416033
O5	O	-1.393916	0.354484	-0.354536
O6	O	-1.609572	0.309281	-0.399761
O7	O	-1.453087	0.399735	-0.190024
O8	O	-1.334774	0.189992	-0.309378
O9	O	-1.609490	0.399705	-0.309340
O10	O	-1.453277	0.189969	-0.399782
O11	O	-1.334666	0.309334	-0.190040
O12	O	-1.178320	0.309291	-0.309335
O13	O	-1.334683	0.399629	-0.519023
O14	O	-1.178281	0.399659	-0.399707
O15	O	-1.453226	0.309238	-0.519055
O16	O	-1.453036	0.519004	-0.309297
O17	O	-1.334575	0.518971	-0.399685
C18	C	-1.143301	0.354474	-0.354519
C19	C	-1.036087	0.354488	-0.354529
C20	C	-1.393814	0.545690	-0.354500
C21	C	-1.393858	0.627489	-0.354510
C22	C	-1.393961	0.354425	-0.546489
C23	C	-1.393980	0.354400	-0.628288
C24	C	-1.645508	0.354495	-0.354553
C25	C	-1.752722	0.354499	-0.354560
C26	C	-0.839792	0.354490	-0.354548
C27	C	-0.949025	0.354487	-0.354536
C28	C	-1.394044	0.162531	-0.354587
C29	C	-1.394099	0.080732	-0.354609
C30	C	-1.455686	0.815676	-0.307531
C31	C	-1.455729	0.892534	-0.307549
C32	C	-1.332269	0.892540	-0.401593
C33	C	-1.332231	0.815683	-0.401578
C34	C	-1.393938	0.777253	-0.354543
C35	C	-1.394019	0.930969	-0.354576
C36	C	-1.394065	1.014302	-0.354595
C37	C	-1.393893	0.693914	-0.354524
C38	C	-1.332370	0.307297	-0.816491
C39	C	-1.332387	0.307282	-0.893350
C40	C	-1.455706	0.401416	-0.893322
C41	C	-1.455684	0.401434	-0.816465
C42	C	-1.394017	0.354370	-0.778051
C43	C	-1.394056	0.354337	-0.931767
C44	C	-1.394075	0.354322	-1.015101
C45	C	-1.393997	0.354387	-0.694712
C46	C	-1.393926	0.354490	-0.163329
C47	C	-1.394093	0.354307	-0.081531
H48	H	-1.506011	0.923815	-0.269268
C49	C	-1.585398	0.729166	-0.297382
C50	C	-1.523518	0.773431	-0.255837
H51	H	-1.627272	0.703085	-0.265466
H52	H	-1.622277	0.759101	-0.329472
H53	H	-1.548606	0.695283	-0.325374
H54	H	-1.560309	0.807317	-0.227849
H55	H	-1.486635	0.743493	-0.223733
H56	H	-1.505886	0.439770	-0.785166
H57	H	-1.282028	0.923840	-0.439886
H58	H	-1.505913	0.439733	-0.924608
C59	C	-1.319065	0.208279	-0.979826
C60	C	-1.264623	0.255542	-0.935608
H61	H	-1.277224	0.176341	-1.005918
H62	H	-1.361090	0.180133	-0.949858
H63	H	-1.355792	0.236311	-1.013699
H64	H	-1.227901	0.227509	-0.901731
H65	H	-1.222581	0.283691	-0.965579
C66	C	-1.210188	0.823403	-0.494537
C67	C	-1.264351	0.773443	-0.453256
H68	H	-1.168283	0.797324	-0.526437
H69	H	-1.252202	0.853331	-0.522723
H70	H	-1.173334	0.853429	-0.462445
H71	H	-1.301211	0.743420	-0.485348
H72	H	-1.222331	0.743502	-0.425068
C73	C	-1.277581	0.265522	-0.698686
C74	C	-1.264582	0.255570	-0.774265
H75	H	-1.235732	0.233585	-0.672621
H76	H	-1.263430	0.314966	-0.686076
H77	H	-1.342396	0.254752	-0.686104
H78	H	-1.199768	0.266346	-0.786848
H79	H	-1.278727	0.206115	-0.786880
