data_functionalizedCrystal
_audit_creation_method	'MofGen! by Chris Wilmer'
_symmetry_space_group_name_H-M	'P1'
_symmetry_Int_Tables_number	1
_symmetry_cell_setting	triclinic
loop_
_symmetry_equiv_pos_as_xyz
  x,y,z
_cell_length_a	17.038278
_cell_length_b	17.038272
_cell_length_c	12.503572
_cell_angle_alpha	93.777379
_cell_angle_beta	86.226501
_cell_angle_gamma	91.111028
loop_
_atom_site_label
_atom_site_type_symbol
_atom_site_fract_x
_atom_site_fract_y
_atom_site_fract_z
O1	O	1.052981	0.166285	-0.089331
O2	O	1.386314	0.499618	0.244002
O3	O	1.719648	0.832951	0.577336
O4	O	0.825170	0.163579	-0.089331
O5	O	1.158503	0.496912	0.244002
O6	O	1.491836	0.830245	0.577335
O7	O	0.937721	0.051026	-0.089323
O8	O	1.271054	0.384360	0.244011
O9	O	1.604388	0.717693	0.577344
O10	O	0.940430	0.278837	-0.089340
O11	O	1.273763	0.612170	0.243994
O12	O	1.607096	0.945504	0.577327
O13	O	0.929257	0.059506	0.089319
O14	O	1.262591	0.392839	0.422652
O15	O	1.595924	0.726173	0.755985
O16	O	0.816706	0.172058	0.089310
O17	O	1.150039	0.505392	0.422643
O18	O	1.483373	0.838725	0.755977
O19	O	1.044517	0.174764	0.089310
O20	O	1.377851	0.508098	0.422644
O21	O	1.711184	0.841431	0.755977
Cu22	Cu	0.929839	0.174186	0.105621
Cu23	Cu	1.263172	0.507519	0.438955
Cu24	Cu	1.596506	0.840852	0.772288
Cu25	Cu	0.939848	0.164157	-0.105643
Cu26	Cu	1.273181	0.497491	0.227691
Cu27	Cu	1.606515	0.830824	0.561024
O28	O	0.931966	0.287317	0.089302
O29	O	1.265299	0.620650	0.422635
O30	O	1.598633	0.953983	0.755968
C31	C	0.791645	0.165356	-0.000011
C32	C	1.124978	0.498689	0.333323
C33	C	1.458312	0.832023	0.666656
C34	C	0.704362	0.158009	-0.000011
C35	C	1.037695	0.491342	0.333323
C36	C	1.371028	0.824675	0.666656
C37	C	0.931026	0.025973	-0.000002
C38	C	1.264360	0.359307	0.333331
C39	C	1.597693	0.692640	0.666664
C40	C	0.923678	-0.061310	-0.000002
C41	C	1.257011	0.272023	0.333331
C42	C	1.590345	0.605357	0.666664
C43	C	0.210936	0.112871	-0.000011
C44	C	0.544269	0.446204	0.333322
C45	C	0.877602	0.779538	0.666655
C46	C	0.292947	0.119781	-0.000005
C47	C	0.626281	0.453114	0.333328
C48	C	0.959614	0.786448	0.666661
C49	C	0.329348	0.194154	-0.000016
C50	C	0.662681	0.527487	0.333318
C51	C	0.996014	0.860821	0.666651
C52	C	0.283731	0.261622	-0.000021
C53	C	0.617065	0.594955	0.333312
C54	C	0.950398	0.928289	0.666645
C55	C	0.201721	0.254712	-0.000019
C56	C	0.535054	0.588045	0.333314
C57	C	0.868388	0.921378	0.666647
C58	C	0.576735	0.218567	-0.000014
C59	C	0.910068	0.551900	0.333319
C60	C	1.243402	0.885233	0.666652
C61	C	0.658752	0.225472	-0.000019
C62	C	0.992085	0.558805	0.333314
C63	C	1.325418	0.892138	0.666647
C64	C	0.667962	0.083630	-0.000001
C65	C	1.001295	0.416963	0.333332
C66	C	1.334628	0.750296	0.666665
C67	C	0.585950	0.076726	-0.000006
C68	C	0.919283	0.410059	0.333327
C69	C	1.252616	0.743392	0.666661
C70	C	0.540340	0.144194	-0.000006
C71	C	0.873674	0.477527	0.333327
C72	C	1.207007	0.810861	0.666661
C73	C	0.413177	0.201219	-0.000013
C74	C	0.746510	0.534552	0.333320
C75	C	1.079843	0.867885	0.666654
C76	C	0.456513	0.137129	-0.000001
C77	C	0.789846	0.470463	0.333332
C78	C	1.123179	0.803796	0.666666
C79	C	0.991142	-0.106920	-0.000001
C80	C	1.324475	0.226413	0.333332
C81	C	1.657808	0.559747	0.666665
C82	C	0.984233	-0.188932	-0.000011
C83	C	1.317567	0.144401	0.333322
C84	C	1.650900	0.477734	0.666655
C85	C	0.909860	-0.225333	-0.000015
C86	C	1.243194	0.108001	0.333318
C87	C	1.576527	0.441334	0.666651
C88	C	0.842392	-0.179717	-0.000020
C89	C	1.175725	0.153616	0.333314
C90	C	1.509058	0.486950	0.666647
C91	C	0.849301	-0.097707	-0.000017
C92	C	1.182635	0.235627	0.333316
C93	C	1.515968	0.568960	0.666650
C94	C	0.885450	-0.472721	-0.000030
C95	C	1.218784	-0.139388	0.333303
C96	C	1.552117	0.193945	0.666637
C97	C	0.878546	-0.554738	-0.000029
C98	C	1.211879	-0.221404	0.333304
C99	C	1.545212	0.111929	0.666637
C100	C	1.020388	-0.563947	-0.000023
C101	C	1.353721	-0.230614	0.333310
C102	C	1.687055	0.102720	0.666644
C103	C	1.027291	-0.481934	-0.000014
C104	C	1.360624	-0.148601	0.333319
C105	C	1.693957	0.184732	0.666653
C106	C	0.959822	-0.436326	-0.000024
C107	C	1.293156	-0.102993	0.333309
C108	C	1.626489	0.230341	0.666642
C109	C	0.902797	-0.309162	-0.000022
C110	C	1.236130	0.024171	0.333311
C111	C	1.569463	0.357504	0.666644
C112	C	0.966887	-0.352499	-0.000025
C113	C	1.300220	-0.019165	0.333308
C114	C	1.633554	0.314168	0.666642
C115	C	1.078042	0.172987	-0.000013
C116	C	1.411375	0.506320	0.333321
C117	C	1.744709	0.839654	0.666654
C118	C	1.165326	0.180334	-0.000020
C119	C	1.498659	0.513667	0.333313
C120	C	1.831992	0.847001	0.666647
C121	C	0.938661	0.312369	-0.000021
C122	C	1.271994	0.645703	0.333312
C123	C	1.605327	0.979036	0.666645
C124	C	0.946009	0.399653	-0.000028
C125	C	1.279342	0.732986	0.333305
C126	C	1.612676	1.066319	0.666639
N127	N	0.922805	0.181239	0.254213
N128	N	1.256138	0.514572	0.587547
N129	N	1.589471	0.847905	0.920880
N130	N	0.946888	0.157098	-0.254234
N131	N	1.280221	0.490432	0.079099
N132	N	1.613555	0.823765	0.412432
C133	C	0.912458	0.191621	0.473328
C134	C	1.245791	0.524954	0.806661
C135	C	1.579124	0.858287	1.139994
C136	C	0.957233	0.146719	0.526658
C137	C	1.290566	0.480052	0.859991
C138	C	1.623899	0.813385	1.193325
C139	C	0.951475	0.152496	0.648581
C140	C	1.284809	0.485829	0.981914
C141	C	1.618142	0.819162	1.315248
C142	C	0.918214	0.185845	0.351394
C143	C	1.251547	0.519178	0.684727
C144	C	1.584881	0.852512	1.018060
H145	H	0.181305	0.052308	-0.000010
H146	H	0.514639	0.385642	0.333324
H147	H	0.847972	0.718975	0.666657
O148	O	1.013738	0.090050	0.465852
O149	O	1.347071	0.423383	0.799185
O150	O	1.680404	0.756717	1.132519
H151	H	1.074644	0.105060	0.487357
H152	H	1.407977	0.438393	0.820690
H153	H	1.741310	0.771727	1.154023
O154	O	0.452443	0.281432	-0.000028
O155	O	0.785776	0.614766	0.333305
O156	O	1.119110	0.948099	0.666638
H157	H	0.406953	0.327189	-0.000031
H158	H	0.740286	0.660522	0.333303
H159	H	1.073619	0.993855	0.666636
O160	O	0.322988	0.341841	-0.000022
O161	O	0.656321	0.675174	0.333311
O162	O	0.989655	1.008507	0.666645
H163	H	0.308481	0.371068	-0.072831
H164	H	0.641814	0.704401	0.260503
H165	H	0.975147	1.037734	0.593836
O166	O	0.822582	-0.348428	-0.000020
O167	O	1.155916	-0.015095	0.333313
O168	O	1.489249	0.318238	0.666646
H169	H	0.776826	-0.302939	-0.000024
H170	H	1.110159	0.030395	0.333310
H171	H	1.443492	0.363728	0.666643
O172	O	0.417255	0.056915	0.000020
O173	O	0.750588	0.390248	0.333353
O174	O	1.083922	0.723581	0.666686
H175	H	0.438653	0.020771	-0.072784
H176	H	0.771986	0.354104	0.260549
H177	H	1.105320	0.687438	0.593883
O178	O	0.798321	-0.593992	-0.000035
O179	O	1.131654	-0.260659	0.333299
O180	O	1.464987	0.072674	0.666632
H181	H	0.788326	-0.627672	0.072785
H182	H	1.121660	-0.294339	0.406119
H183	H	1.454993	0.038994	0.739452
O184	O	0.855963	0.248296	0.534126
O185	O	1.189297	0.581629	0.867459
O186	O	1.522630	0.914963	1.200792
H187	H	0.860260	0.244003	0.621734
H188	H	1.193593	0.577336	0.955068
H189	H	1.526927	0.910670	1.288401
H190	H	0.330080	0.064845	0.000006
H191	H	0.663413	0.398179	0.333340
H192	H	0.996746	0.731512	0.666673
H193	H	0.705105	0.028701	-0.000000
H194	H	1.038439	0.362035	0.333333
H195	H	1.371772	0.695368	0.666667
O196	O	0.546687	-0.003490	0.000026
O197	O	0.880021	0.329844	0.333359
O198	O	1.213354	0.663177	0.666693
H199	H	0.592181	-0.049241	0.000047
H200	H	0.925514	0.284092	0.333381
H201	H	1.258848	0.617426	0.666714
H202	H	0.688385	0.286039	-0.000012
H203	H	1.021718	0.619372	0.333321
H204	H	1.355052	0.952705	0.666654
O205	O	0.527549	0.291334	-0.000016
O206	O	0.860882	0.624667	0.333318
O207	O	1.194215	0.958000	0.666651
H208	H	0.544524	0.323204	-0.072837
H209	H	0.877858	0.656538	0.260496
H210	H	1.211191	0.989871	0.593830
O211	O	0.152521	0.327474	-0.000034
O212	O	0.485855	0.660807	0.333300
O213	O	0.819188	0.994140	0.666633
H214	H	0.191609	0.380351	-0.000051
H215	H	0.524943	0.713684	0.333282
H216	H	0.858276	1.047018	0.666615
O217	O	0.812684	-0.423532	-0.000013
O218	O	1.146017	-0.090199	0.333320
O219	O	1.479350	0.243135	0.666653
H220	H	0.759808	-0.462623	0.000003
H221	H	1.093142	-0.129290	0.333336
H222	H	1.426475	0.204043	0.666670
H223	H	1.051704	-0.077289	0.000008
H224	H	1.385037	0.256045	0.333342
H225	H	1.718371	0.589378	0.666675
H226	H	1.039169	-0.226064	-0.000008
H227	H	1.372503	0.107269	0.333325
H228	H	1.705836	0.440602	0.666658
H229	H	1.087853	-0.452303	-0.000011
H230	H	1.421186	-0.118970	0.333322
H231	H	1.754520	0.214364	0.666656
O232	O	1.093156	-0.613137	-0.000019
O233	O	1.426489	-0.279803	0.333314
O234	O	1.759822	0.053530	0.666647
H235	H	1.075861	-0.676280	-0.000029
H236	H	1.409194	-0.342946	0.333305
H237	H	1.742527	-0.009613	0.666638
O238	O	0.762174	-0.218977	-0.000011
O239	O	1.095507	0.114357	0.333322
O240	O	1.428841	0.447690	0.666655
H241	H	0.759082	-0.259581	-0.072815
H242	H	1.092415	0.073752	0.260519
H243	H	1.425749	0.407085	0.593852
O244	O	0.776538	-0.048506	-0.000007
O245	O	1.109871	0.284827	0.333326
O246	O	1.443205	0.618160	0.666660
H247	H	0.723660	-0.087594	0.000003
H248	H	1.056993	0.245740	0.333336
H249	H	1.390326	0.579073	0.666669
H250	H	1.027442	-0.322859	-0.000046
H251	H	1.360776	0.010475	0.333288
H252	H	1.694109	0.343808	0.666621
