data_functionalizedCrystal
_audit_creation_method	'MofGen! by Chris Wilmer'
_symmetry_space_group_name_H-M	'P1'
_symmetry_Int_Tables_number	1
_symmetry_cell_setting	triclinic
loop_
_symmetry_equiv_pos_as_xyz
  x,y,z
_cell_length_a	27.731994
_cell_length_b	27.732048
_cell_length_c	26.809956
_cell_angle_alpha	90.024325
_cell_angle_beta	90.014414
_cell_angle_gamma	82.631595
loop_
_atom_site_label
_atom_site_type_symbol
_atom_site_fract_x
_atom_site_fract_y
_atom_site_fract_z
O1	O	0.640954	0.057401	0.041414
O2	O	0.500157	0.066174	0.041431
O3	O	0.574929	-0.008610	0.041412
O4	O	0.566183	0.132185	0.041432
O5	O	0.574902	-0.008630	-0.041547
O6	O	0.500131	0.066154	-0.041528
O7	O	0.640928	0.057381	-0.041545
Zn8	Zn	0.570525	0.061764	-0.054708
Zn9	Zn	0.570560	0.061791	0.054594
O10	O	0.566156	0.132165	-0.041527
C11	C	0.482137	0.065984	-0.000046
C12	C	0.428480	0.065442	-0.000040
C13	C	0.574732	-0.026627	-0.000069
C14	C	0.574179	-0.080282	-0.000073
C15	C	0.095747	0.062015	-0.045281
C16	C	-0.105911	0.059953	-0.045287
O17	O	-0.131996	0.059657	-0.083746
N18	N	-0.131111	0.059708	-0.000066
C19	C	-0.105894	0.059975	0.045160
O20	O	-0.131954	0.059715	0.083623
C21	C	0.095764	0.062034	0.045165
C22	C	0.120961	0.062283	-0.000059
C23	C	0.120945	0.062264	-0.090501
C24	C	0.171356	0.062782	-0.090499
C25	C	0.196570	0.063051	-0.045277
C26	C	0.171372	0.062801	-0.000057
C27	C	0.120981	0.062297	0.090390
C28	C	0.171399	0.062811	0.090388
C29	C	0.196596	0.063060	0.045164
C30	C	0.246997	0.063588	0.045167
N31	N	0.272198	0.063833	-0.000054
C32	C	0.246984	0.063565	-0.045276
C33	C	-0.211767	0.058896	0.045154
C34	C	-0.262181	0.058382	0.045152
C35	C	-0.262195	0.058359	-0.045294
C36	C	-0.211780	0.058876	-0.045293
C37	C	-0.186566	0.059141	-0.000067
C38	C	0.352851	0.064653	-0.045268
C39	C	0.403266	0.065173	-0.045262
C40	C	0.403276	0.065193	0.045184
C41	C	0.352865	0.064676	0.045179
C42	C	0.327654	0.064404	-0.000052
O43	O	0.273114	0.063880	0.083606
O44	O	0.273055	0.063815	-0.083733
C45	C	0.045336	0.061497	-0.045283
C46	C	0.020139	0.061247	-0.000063
C47	C	0.045353	0.061516	0.045160
C48	C	-0.030275	0.060734	-0.000064
C49	C	-0.055489	0.060465	-0.045286
C50	C	-0.030289	0.060710	-0.090507
C51	C	0.020122	0.061228	-0.090505
C52	C	0.020153	0.061271	0.090381
C53	C	-0.030259	0.060753	0.090375
C54	C	-0.055473	0.060485	0.045153
C55	C	0.614884	-0.419105	-0.000052
C56	C	0.612833	-0.620764	-0.000045
O57	O	0.650055	-0.652027	-0.000028
N58	N	0.568496	-0.639879	-0.000040
C59	C	0.524670	-0.608576	-0.000033
O60	O	0.486912	-0.629462	-0.000024
C61	C	0.526721	-0.406918	-0.000037
C62	C	0.571060	-0.387806	-0.000047
C63	C	0.659220	-0.399992	-0.000061
C64	C	0.659732	-0.349580	-0.000066
C65	C	0.615908	-0.318281	-0.000061
C66	C	0.571573	-0.337394	-0.000052
C67	C	0.482895	-0.375615	-0.000027
C68	C	0.483412	-0.325198	-0.000027
C69	C	0.527751	-0.306086	-0.000037
C70	C	0.528262	-0.255683	-0.000051
N71	N	0.572598	-0.236568	-0.000056
C72	C	0.616421	-0.267867	-0.000061
C73	C	0.523596	-0.714450	-0.000032
C74	C	0.523083	-0.764864	-0.000032
C75	C	0.611246	-0.777049	-0.000043
C76	C	0.611759	-0.726633	-0.000047
C77	C	0.567932	-0.695335	-0.000037
C78	C	0.617494	-0.161998	-0.000071
C79	C	0.618002	-0.111581	-0.000078
C80	C	0.529839	-0.099401	-0.000064
C81	C	0.529331	-0.149813	-0.000060
C82	C	0.573162	-0.181111	-0.000062
O83	O	0.491060	-0.224391	-0.000063
O84	O	0.654174	-0.246971	-0.000060
C85	C	0.614372	-0.469517	-0.000047
C86	C	0.570036	-0.488629	-0.000038
C87	C	0.526213	-0.457330	-0.000033
C88	C	0.569523	-0.539044	-0.000038
C89	C	0.613346	-0.570343	-0.000043
C90	C	0.657683	-0.551228	-0.000048
C91	C	0.658195	-0.500816	-0.000052
C92	C	0.481876	-0.476445	-0.000028
C93	C	0.481367	-0.526858	-0.000024
C94	C	0.525191	-0.558157	-0.000029
C95	C	0.658949	0.057571	-0.000067
C96	C	0.712605	0.058113	-0.000070
C97	C	0.566353	0.150182	-0.000045
C98	C	0.566906	0.203837	-0.000037
N99	N	0.570505	0.061746	-0.129304
C100	C	0.541454	0.032657	-0.526198
C101	C	0.541431	0.032644	-0.317320
O102	O	0.516699	0.007871	-0.290329
N103	N	0.570524	0.061753	-0.291183
C104	C	0.599628	0.090866	-0.317268
O105	O	0.624376	0.115621	-0.290244
C106	C	0.599653	0.090876	-0.526145
C107	C	0.570554	0.061768	-0.552280
C108	C	0.512358	0.003552	-0.552333
C109	C	0.512362	0.003557	-0.604549
C110	C	0.541462	0.032668	-0.630631
C111	C	0.570558	0.061774	-0.604496
C112	C	0.628758	0.119985	-0.552229
C113	C	0.628763	0.119984	-0.604451
C114	C	0.599664	0.090877	-0.630586
C115	C	0.599662	0.090891	-0.682794
N116	N	0.570569	0.061781	-0.708931
C117	C	0.541469	0.032670	-0.682850
C118	C	0.599612	0.090859	-0.207605
C119	C	0.599605	0.090857	-0.155386
C120	C	0.541409	0.032635	-0.155442
C121	C	0.541413	0.032639	-0.207662
C122	C	0.570518	0.061749	-0.233742
C123	C	0.541479	0.032685	-0.792508
C124	C	0.541484	0.032694	-0.844729
C125	C	0.599682	0.090915	-0.844668
C126	C	0.599675	0.090907	-0.792452
C127	C	0.570572	0.061788	-0.766373
O128	O	0.624386	0.115647	-0.709818
O129	O	0.516732	0.007911	-0.709883
C130	C	0.541450	0.032652	-0.473982
C131	C	0.570546	0.061757	-0.447847
C132	C	0.599646	0.090868	-0.473928
C133	C	0.570539	0.061755	-0.395628
C134	C	0.541439	0.032644	-0.369547
C135	C	0.512346	0.003535	-0.395684
C136	C	0.512350	0.003540	-0.447900
C137	C	0.628739	0.119978	-0.447791
C138	C	0.628732	0.119970	-0.395575
C139	C	0.599632	0.090859	-0.369493
N140	N	0.570584	0.061805	0.129190
H141	H	0.423779	0.065378	-0.082091
H142	H	-0.050827	0.060494	-0.127329
H143	H	0.447722	-0.299716	-0.000018
Cl144	Cl	0.425621	-0.550877	-0.000014
H145	H	0.100421	0.062044	-0.127329
Cl146	Cl	0.712774	-0.590585	-0.000056
Cl147	Cl	0.475767	-0.033054	-0.480748
Cl148	Cl	0.714320	-0.439332	-0.000069
H149	H	0.517781	0.008973	-0.771280
H150	H	0.100475	0.062093	0.127217
H151	H	0.695837	-0.334024	-0.000072
H152	H	0.486977	-0.780420	-0.000033
Cl153	Cl	0.636202	0.127461	-0.240384
H154	H	0.646929	-0.802541	-0.000047
H155	H	0.652437	0.143683	-0.469021
Cl156	Cl	0.321165	0.064311	-0.102130
H157	H	0.040633	0.061432	-0.127331
Cl158	Cl	0.203025	0.063093	-0.147356
H159	H	0.487905	-0.688970	-0.000025
H160	H	-0.282694	0.058186	0.081978
H161	H	0.488669	-0.020147	-0.625824
Cl162	Cl	0.673747	-0.087558	-0.000089
Cl163	Cl	0.665331	0.156591	-0.519387
Cl164	Cl	-0.180109	0.059189	-0.102148
H165	H	0.623373	0.114617	-0.865913
H166	H	-0.282733	0.058141	-0.082116
Cl167	Cl	0.672597	-0.201336	-0.000074
H168	H	-0.191243	0.059111	0.081984
H169	H	0.652465	0.143689	-0.625684
Cl170	Cl	0.203093	0.063142	0.147246
Cl171	Cl	0.665311	0.156573	-0.362726
H172	H	0.446789	-0.391167	-0.000016
H173	H	0.623362	0.114616	-0.771172
H174	H	0.332347	0.064480	0.082004
Cl175	Cl	0.426778	-0.437104	-0.000021
Cl176	Cl	0.475762	-0.033060	-0.362886
H177	H	0.423814	0.065414	0.082003
H178	H	0.040677	0.061488	0.127207
Cl179	Cl	-0.061929	0.060442	0.147234
H180	H	0.493226	-0.165375	-0.000066
Cl181	Cl	0.667501	-0.702612	-0.000059
Cl182	Cl	0.504899	-0.003900	-0.877580
Cl183	Cl	0.474750	-0.060044	-0.000057
H184	H	0.694301	-0.485260	-0.000060
H185	H	0.488661	-0.020157	-0.531103
Cl186	Cl	0.504832	-0.003956	-0.240511
H187	H	0.623294	0.114565	-0.134111
Cl188	Cl	0.504827	-0.003963	-0.122644
