data_functionalizedCrystal
_audit_creation_method	'MofGen! by Chris Wilmer'
_symmetry_space_group_name_H-M	'P1'
_symmetry_Int_Tables_number	1
_symmetry_cell_setting	triclinic
loop_
_symmetry_equiv_pos_as_xyz
  x,y,z
_cell_length_a	17.019282
_cell_length_b	15.500227
_cell_length_c	14.044220
_cell_angle_alpha	93.086249
_cell_angle_beta	91.722286
_cell_angle_gamma	88.965536
loop_
_atom_site_label
_atom_site_type_symbol
_atom_site_fract_x
_atom_site_fract_y
_atom_site_fract_z
O1	O	1.054861	-0.006670	-0.121090
O2	O	1.554861	0.493330	0.378910
O3	O	0.827073	0.010308	-0.135463
O4	O	1.327073	0.510308	0.364537
O5	O	0.937548	0.002065	0.009718
O6	O	1.437548	0.502065	0.509718
O7	O	0.944387	0.001573	-0.266271
O8	O	1.444387	0.501573	0.233729
O9	O	0.930841	-0.141323	0.000943
O10	O	1.430841	0.358677	0.500943
O11	O	0.820367	-0.133080	-0.144238
O12	O	1.320367	0.366920	0.355762
O13	O	1.048155	-0.150059	-0.129866
O14	O	1.548155	0.349941	0.370134
Cu15	Cu	0.933649	-0.154662	-0.137853
Cu16	Cu	1.433649	0.345338	0.362147
Cu17	Cu	0.941580	0.014911	-0.127475
Cu18	Cu	1.441580	0.514911	0.372525
O19	O	0.937680	-0.141816	-0.275047
O20	O	1.437680	0.358184	0.224953
C21	C	0.794392	-0.059200	-0.139135
C22	C	1.294392	0.440800	0.360865
C23	C	0.707003	-0.052687	-0.136990
C24	C	1.207003	0.447313	0.363010
N25	N	0.928076	-0.273931	-0.145152
N26	N	1.428076	0.226069	0.354848
C27	C	0.662296	-0.127789	-0.140764
C28	C	1.162296	0.372211	0.359236
C29	C	0.580185	-0.121672	-0.138734
C30	C	1.080185	0.378328	0.361266
C31	C	0.542783	-0.040450	-0.132937
C32	C	1.042783	0.459550	0.367063
C33	C	0.587495	0.034658	-0.129161
C34	C	1.087495	0.534658	0.370839
C35	C	0.669605	0.028540	-0.131184
C36	C	1.169605	0.528540	0.368816
C37	C	0.295048	-0.018066	-0.126584
C38	C	0.795048	0.481934	0.373416
C39	C	0.212932	-0.011953	-0.124564
C40	C	0.712932	0.488047	0.375436
C41	C	0.205628	-0.168284	-0.134136
C42	C	0.705628	0.331716	0.365864
C43	C	0.287739	-0.174395	-0.136164
C44	C	0.787739	0.325605	0.363836
C45	C	0.332445	-0.099287	-0.132382
C46	C	0.832445	0.400713	0.367618
C47	C	0.458852	-0.034195	-0.130866
C48	C	0.958852	0.465805	0.369134
C49	C	0.416374	-0.105543	-0.134447
C50	C	0.916374	0.394457	0.365553
C51	C	0.974907	-0.322702	-0.083656
C52	C	1.474907	0.177298	0.416344
C53	C	0.970701	-0.412961	-0.089185
C54	C	1.470701	0.087039	0.410815
C55	C	0.919666	-0.454448	-0.156214
C56	C	1.419666	0.045552	0.343786
C57	C	0.872830	-0.405670	-0.217712
C58	C	1.372830	0.094330	0.282288
C59	C	0.877033	-0.315412	-0.212178
C60	C	1.377033	0.184588	0.287822
C61	C	0.904524	-0.726785	-0.176134
C62	C	1.404524	-0.226785	0.323866
C63	C	0.900326	-0.817049	-0.181665
C64	C	1.400326	-0.317049	0.318335
C65	C	0.998197	-0.824334	-0.053135
C66	C	1.498197	-0.324334	0.446865
C67	C	1.002399	-0.734074	-0.047611
C68	C	1.502399	-0.234074	0.452389
C69	C	0.955559	-0.685304	-0.109106
C70	C	1.455559	-0.185304	0.390894
C71	C	0.915367	-0.546707	-0.161869
C72	C	1.415367	-0.046707	0.338131
C73	C	0.959855	-0.593046	-0.103446
C74	C	1.459855	-0.093046	0.396554
C75	C	1.080836	-0.080549	-0.126194
C76	C	1.580836	0.419451	0.373806
C77	C	1.168225	-0.087056	-0.128338
C78	C	1.668225	0.412944	0.371662
C79	C	0.931201	-0.069406	0.040654
C80	C	1.431201	0.430594	0.540654
C81	C	0.922273	-0.068742	0.145908
C82	C	1.422273	0.431258	0.645908
N83	N	0.947158	0.134180	-0.120169
N84	N	1.447158	0.634180	0.379831
C85	C	0.944027	-0.070342	-0.305983
C86	C	1.444027	0.429658	0.194017
C87	C	0.952956	-0.071001	-0.411236
C88	C	1.452956	0.428999	0.088764
C89	C	0.905950	-0.067513	0.338622
C90	C	1.405950	0.432487	0.838622
C91	C	0.969275	-0.072230	0.396056
C92	C	1.469275	0.427770	0.896056
C93	C	0.960193	-0.071546	0.503289
C94	C	1.460193	0.428454	1.003289
C95	C	0.915031	-0.068196	0.231379
C96	C	1.415031	0.431804	0.731379
H97	H	0.543789	-0.182829	-0.141792
H98	H	1.043789	0.317171	0.358208
Br99	Br	0.713049	-0.238024	-0.148641
Br100	Br	1.213049	0.261976	0.351359
Br101	Br	0.338494	-0.284629	-0.144042
Br102	Br	0.838494	0.215371	0.355958
H103	H	0.858766	-0.850823	-0.236252
H104	H	1.358766	-0.350823	0.263748
H105	H	0.844920	-0.062961	0.369983
H106	H	1.344920	0.437039	0.869983
H107	H	0.169220	-0.229433	-0.137213
H108	H	0.669220	0.270567	0.362787
Br109	Br	0.162171	0.098283	-0.116703
Br110	Br	0.662171	0.598283	0.383297
H111	H	1.030313	-0.076722	0.364697
H112	H	1.530313	0.423278	0.864697
H113	H	1.043955	-0.700298	0.006969
H114	H	1.543955	-0.200298	0.506969
Br115	Br	0.730280	0.130469	-0.126053
Br116	Br	1.230280	0.630469	0.373947
Br117	Br	0.355710	0.083868	-0.121450
Br118	Br	0.855710	0.583868	0.378550
Br119	Br	1.034255	-0.479153	-0.005722
Br120	Br	1.534255	0.020847	0.494278
Br121	Br	0.803561	-0.461969	-0.308676
Br122	Br	1.303561	0.038031	0.191324
H123	H	0.838897	-0.275703	-0.262254
H124	H	1.338897	0.224297	0.237746
H125	H	0.873815	-0.580493	-0.216447
H126	H	1.373815	-0.080493	0.283553
H127	H	0.446831	-0.171673	-0.139162
H128	H	0.946831	0.328327	0.360838
Br129	Br	1.044178	-0.266409	0.007310
Br130	Br	1.544178	0.233591	0.507310
H131	H	0.557036	0.100790	-0.124434
H132	H	1.057036	0.600790	0.375566
Br133	Br	1.061760	-0.890524	0.030320
Br134	Br	1.561760	-0.390524	0.530320
H135	H	0.866387	-0.687083	-0.226207
H136	H	1.366387	-0.187083	0.273793
H137	H	0.428390	0.031936	-0.126145
H138	H	0.928390	0.531936	0.373855
H139	H	1.001404	-0.559265	-0.048867
H140	H	1.501404	-0.059265	0.451133
