data_functionalizedCrystal
_audit_creation_method	'MofGen! by Chris Wilmer'
_symmetry_space_group_name_H-M	'P1'
_symmetry_Int_Tables_number	1
_symmetry_cell_setting	triclinic
loop_
_symmetry_equiv_pos_as_xyz
  x,y,z
_cell_length_a	10.654550
_cell_length_b	15.712078
_cell_length_c	9.130313
_cell_angle_alpha	89.999543
_cell_angle_beta	89.996220
_cell_angle_gamma	102.033026
loop_
_atom_site_label
_atom_site_type_symbol
_atom_site_fract_x
_atom_site_fract_y
_atom_site_fract_z
O1	O	1.722213	0.121735	-0.121921
O2	O	1.361915	0.133334	-0.121898
O3	O	1.494132	0.001420	-0.121899
O4	O	1.589996	0.253650	-0.121920
O5	O	1.494131	0.001423	0.121700
O6	O	1.361914	0.133337	0.121701
O7	O	1.722212	0.121739	0.121678
Cu8	Cu	1.542063	0.127538	0.143932
Cu9	Cu	1.542064	0.127534	-0.144152
O10	O	1.589995	0.253653	0.121679
C11	C	1.314736	0.132484	-0.000095
C12	C	1.174155	0.129936	-0.000086
C13	C	1.129364	0.207605	-0.000114
C14	C	0.997271	0.205206	-0.000139
C15	C	0.954771	0.047462	-0.000115
C16	C	1.086861	0.049862	-0.000079
C17	C	1.153900	0.298678	-0.000135
C18	C	1.021807	0.296278	-0.000160
C19	C	1.478471	-0.030876	-0.000100
C20	C	1.431791	-0.127111	-0.000100
C21	C	1.828112	-0.491831	-0.000141
C22	C	1.784220	-0.582256	-0.000137
C23	C	1.564291	-0.562958	-0.000124
C24	C	1.608164	-0.472530	-0.000120
C25	C	1.740076	-0.436974	-0.000130
C26	C	1.520128	-0.417673	-0.000109
C27	C	1.563998	-0.327253	-0.000113
C28	C	1.695905	-0.291689	-0.000128
C29	C	1.783946	-0.346554	-0.000134
C30	C	1.388217	-0.453231	-0.000110
C31	C	1.300181	-0.398374	-0.000099
C32	C	1.344051	-0.307951	-0.000093
C33	C	1.475957	-0.272388	-0.000107
C34	C	1.256009	-0.253087	-0.000086
C35	C	1.299880	-0.162667	-0.000090
C36	C	1.519827	-0.181968	-0.000111
C37	C	1.769391	0.122589	-0.000128
C38	C	1.909972	0.125137	-0.000147
C39	C	1.605656	0.285949	-0.000124
C40	C	1.652336	0.382183	-0.000133
N41	N	1.542071	0.127541	0.346554
N42	N	1.542062	0.127525	-0.346775
C43	C	1.600648	0.069149	0.423206
C44	C	1.600640	0.069139	0.576543
C45	C	1.483478	0.185919	0.576563
C46	C	1.483479	0.185925	0.423229
C47	C	1.668295	0.001729	0.423195
C48	C	1.668287	0.001719	0.576532
H49	H	0.995403	0.330592	-0.102116
H50	H	1.456887	-0.591921	-0.000121
O51	O	1.600464	-0.086509	0.368052
H52	H	1.567241	-0.129711	0.462659
H53	H	1.123323	-0.013384	-0.000035
O54	O	1.590635	-0.081665	0.639566
H55	H	1.653643	-0.113547	0.707974
H56	H	1.627243	-0.153017	-0.000104
O57	O	1.879178	-0.641429	-0.000135
H58	H	1.978271	-0.601510	-0.000131
H59	H	1.891361	-0.317602	-0.000127
H60	H	1.771432	0.016570	0.618141
O61	O	1.420285	0.248901	0.340562
H62	H	1.342313	0.212017	0.270720
O63	O	1.420310	0.248897	0.659278
H64	H	1.467394	0.316568	0.629841
H65	H	0.883681	-0.017732	-0.000131
H66	H	1.199141	0.334297	0.101814
O67	O	1.113740	-0.291450	-0.000077
H68	H	1.069427	-0.269472	-0.099365
H69	H	1.768909	0.022840	0.375629
H70	H	1.202509	0.327675	-0.105309
H71	H	1.352502	-0.526857	-0.000115
H72	H	0.988430	0.323803	0.105006
O73	O	1.743229	-0.194164	-0.000115
H74	H	1.707320	-0.166149	-0.099390
H75	H	1.935527	-0.462880	-0.000134
O76	O	1.157908	-0.436724	-0.000068
H77	H	1.142190	-0.508815	-0.000053
H78	H	1.228191	-0.118000	-0.000080
