data_functionalizedCrystal
_audit_creation_method	'MofGen! by Chris Wilmer'
_symmetry_space_group_name_H-M	'P1'
_symmetry_Int_Tables_number	1
_symmetry_cell_setting	triclinic
loop_
_symmetry_equiv_pos_as_xyz
  x,y,z
_cell_length_a	12.837943
_cell_length_b	15.995292
_cell_length_c	11.295483
_cell_angle_alpha	85.902653
_cell_angle_beta	94.538773
_cell_angle_gamma	89.148778
loop_
_atom_site_label
_atom_site_type_symbol
_atom_site_fract_x
_atom_site_fract_y
_atom_site_fract_z
O1	O	1.382379	0.212591	0.098987
O2	O	1.080576	0.201838	0.098995
O3	O	1.239759	0.085984	0.098993
O4	O	1.223196	0.328445	0.098989
O5	O	1.225778	0.096142	-0.099058
O6	O	1.066595	0.211996	-0.099056
O7	O	1.368397	0.222749	-0.099063
Cu8	Cu	1.216220	0.218300	-0.117143
Cu9	Cu	1.232754	0.206287	0.117075
O10	O	1.209215	0.338603	-0.099061
C11	C	1.034966	0.203285	-0.000029
C12	C	0.919892	0.192451	-0.000026
C13	C	0.678899	0.322690	-0.000045
C14	C	0.570776	0.312515	-0.000042
C15	C	0.595520	0.161926	-0.000028
C16	C	0.703643	0.172102	-0.000030
C17	C	0.745329	0.252486	-0.000037
C18	C	0.853454	0.262660	-0.000030
C19	C	0.878196	0.112073	-0.000024
C20	C	0.770073	0.101897	-0.000022
C21	C	1.232095	0.059814	-0.000030
C22	C	1.230074	-0.033301	-0.000021
C23	C	1.222644	-0.371632	-0.000031
C24	C	1.337506	-0.339129	-0.000477
C25	C	1.339722	-0.242302	-0.000026
C26	C	1.226331	-0.203782	-0.000027
C27	C	1.176873	-0.243267	0.113068
C28	C	1.175496	-0.340172	0.113158
C29	C	1.157251	-0.328665	-0.112062
C30	C	1.161403	-0.231756	-0.113553
C31	C	1.228409	-0.108920	-0.000020
C32	C	1.220563	-0.466493	-0.000030
C33	C	1.414008	0.221302	-0.000037
C34	C	1.529082	0.232136	-0.000032
C35	C	1.216880	0.364773	-0.000036
C36	C	1.218900	0.457888	-0.000037
N37	N	1.204598	0.226750	-0.281879
C38	C	1.328046	0.136959	-0.531171
C39	C	1.319270	0.143351	-0.655834
C40	C	1.178267	0.245921	-0.655872
C41	C	1.187043	0.239529	-0.531209
C42	C	1.261935	0.185047	-0.468862
C43	C	1.270715	0.178660	-0.344196
C44	C	1.129708	0.281225	-0.344237
C45	C	1.120932	0.287617	-0.468900
N46	N	1.244384	0.197831	0.281811
H47	H	0.736117	0.036451	-0.000030
N48	N	0.550561	0.075229	-0.000022
H49	H	0.569610	0.047848	-0.073437
H50	H	0.471996	0.079500	0.000019
N51	N	1.066740	-0.210161	0.118639
H52	H	1.067604	-0.147262	0.122246
H53	H	1.036544	-0.236440	0.192026
N54	N	1.045162	-0.356093	-0.113078
H55	H	1.025970	-0.385057	-0.188109
H56	H	0.997759	-0.305419	-0.110390
N57	N	0.499146	0.388247	-0.000053
H58	H	0.458911	0.383632	0.073362
H59	H	0.448619	0.391110	-0.073521
N60	N	0.723862	0.409386	-0.000035
H61	H	0.694457	0.444301	-0.073451
H62	H	0.802434	0.405108	0.000011
H63	H	1.075879	0.320384	-0.293491
N64	N	0.949846	0.036344	-0.000003
H65	H	1.024668	0.054985	-0.000001
H66	H	0.931173	0.005446	-0.073418
N67	N	1.390582	0.091493	-0.723041
H68	H	1.439358	0.056014	-0.664624
H69	H	1.432755	0.129885	-0.774748
H70	H	1.378985	-0.215530	-0.081095
H71	H	1.376066	-0.359433	-0.081582
H72	H	1.091617	-0.361707	0.118282
N73	N	1.403394	-0.378388	0.106342
H74	H	1.359161	-0.417136	0.155021
H75	H	1.431687	-0.332899	0.156761
N76	N	1.407252	-0.218664	0.107554
H77	H	1.377440	-0.242941	0.182367
H78	H	1.408962	-0.155592	0.108198
N79	N	0.898415	0.349358	-0.000050
H80	H	0.976991	0.345154	-0.000048
H81	H	0.879293	0.376699	0.073364
H82	H	1.221246	-0.368151	0.197699
H83	H	1.222704	-0.224340	0.197232
H84	H	1.187382	-0.349469	-0.197787
H85	H	1.117284	0.290273	-0.706651
N86	N	1.208969	-0.197057	-0.224386
H87	H	1.272310	-0.163356	-0.201169
H88	H	1.155836	-0.159805	-0.274560
H89	H	1.078157	-0.205040	-0.120383
H90	H	1.331699	0.134301	-0.293435
H91	H	1.389033	0.092604	-0.480407
H92	H	1.059953	0.331973	-0.519677
