data_functionalizedCrystal
_audit_creation_method	'MofGen! by Chris Wilmer'
_symmetry_space_group_name_H-M	'P1'
_symmetry_Int_Tables_number	1
_symmetry_cell_setting	triclinic
loop_
_symmetry_equiv_pos_as_xyz
  x,y,z
_cell_length_a	14.560432
_cell_length_b	14.560438
_cell_length_c	14.560438
_cell_angle_alpha	60.000905
_cell_angle_beta	90.001606
_cell_angle_gamma	60.001007
loop_
_atom_site_label
_atom_site_type_symbol
_atom_site_fract_x
_atom_site_fract_y
_atom_site_fract_z
Zr1	Zr	0.884748	1.005300	-0.120509
O2	O	0.738099	1.196899	-0.267154
O3	O	0.929703	0.813699	-0.075557
O4	O	0.929699	1.005303	-0.267158
O5	O	0.738107	1.005293	0.075588
O6	O	1.080837	1.005307	-0.267158
O7	O	0.738104	1.005295	-0.075553
O8	O	1.080845	0.662563	0.075581
O9	O	0.738099	1.348037	-0.267151
O10	O	1.061669	0.892511	-0.056383
O11	O	0.948880	0.892506	0.056412
O12	O	0.948874	1.118095	-0.169173
O13	O	0.836085	1.118090	-0.056378
Zr14	Zr	1.125801	1.005302	0.120543
Zr15	Zr	1.125795	1.005306	-0.120509
Zr16	Zr	0.884754	1.005296	0.120543
Zr17	Zr	0.884748	1.246347	-0.120504
Zr18	Zr	1.125801	0.764254	0.120538
O19	O	1.080846	1.196902	0.075591
O20	O	1.080837	1.196908	-0.267154
O21	O	0.738108	1.196893	0.075591
O22	O	1.272450	0.813703	0.267188
O23	O	1.272441	0.813708	-0.075558
O24	O	0.929712	0.813694	0.267188
O25	O	1.272442	1.005309	-0.075554
O26	O	1.080850	1.005298	0.267191
O27	O	0.929713	1.005294	0.267192
O28	O	1.272446	1.005306	0.075587
O29	O	0.929700	1.348042	-0.267151
O30	O	1.080849	0.662560	0.267185
O31	O	1.272450	0.662565	0.267185
O32	O	1.272445	0.662568	0.075580
O33	O	0.738104	1.348034	-0.075547
O34	O	0.929704	1.348039	-0.075547
O35	O	1.061675	0.892507	0.169207
O36	O	1.174464	0.892512	0.056412
O37	O	1.061670	1.118096	-0.056378
O38	O	0.948880	1.118091	0.056417
C39	C	1.005274	0.703787	0.000011
C40	C	1.005274	0.601456	0.000009
C41	C	1.064146	0.553382	-0.058869
C42	C	1.064151	0.457223	-0.058858
C43	C	0.946401	0.457223	0.058910
C44	C	0.946404	0.553374	0.058905
C45	C	0.703761	1.005293	0.000018
C46	C	0.601431	1.005290	0.000018
C47	C	0.719172	0.769778	0.117761
C48	C	0.729966	0.652026	0.176627
C49	C	0.633814	0.652032	0.176624
C50	C	0.526859	0.769802	0.117751
C51	C	0.516065	0.887554	0.058885
C52	C	0.612226	0.887536	0.058892
C53	C	0.398325	1.123063	-0.058850
C54	C	0.494476	1.123061	-0.058855
C55	C	0.291370	1.240833	-0.117723
C56	C	0.280574	1.358588	-0.176597
C57	C	0.376735	1.358578	-0.176592
C58	C	0.483682	1.240813	-0.117721
C59	C	1.306788	1.005309	0.000016
C60	C	1.409119	1.005311	0.000016
C61	C	1.005267	1.005306	-0.301503
C62	C	1.005264	1.005308	-0.403835
C63	C	1.005275	1.306815	0.000023
C64	C	1.005275	1.409146	0.000025
C65	C	0.946388	1.123058	-0.510787
C66	C	0.946401	1.123052	-0.606936
C67	C	1.064169	0.887535	-0.489168
C68	C	1.064161	0.887542	-0.393021
C69	C	1.005282	1.005296	0.301536
C70	C	1.005285	1.005294	0.403869
C71	C	1.306787	0.703795	0.000011
C72	C	1.409118	0.601466	0.000009
C73	C	1.005282	0.703782	0.301531
C74	C	1.005284	0.601449	0.403862
C75	C	1.306795	0.703790	0.301530
C76	C	1.409128	0.601460	0.403861
C77	C	0.703754	1.306812	-0.301496
C78	C	0.601421	1.409142	-0.403827
C79	C	0.703762	1.306807	0.000023
C80	C	0.601431	1.409135	0.000025
C81	C	1.005267	1.306820	-0.301497
C82	C	1.005265	1.409152	-0.403828
C83	C	1.398318	0.553389	-0.058867
C84	C	1.494472	0.457249	-0.058873
C85	C	1.612223	0.457267	0.058882
C86	C	1.516070	0.553413	0.058880
C87	C	1.064162	0.553372	0.510815
C88	C	1.064151	0.457228	0.606962
C89	C	0.946383	0.457244	0.489189
C90	C	0.946388	0.553393	0.393045
C91	C	1.516079	0.553385	0.393061
C92	C	1.612228	0.457243	0.489216
C93	C	1.494461	0.457256	0.606966
C94	C	1.398314	0.553402	0.510813
H95	H	0.898470	0.418065	0.106859
C96	C	1.128926	0.606249	0.522713
H97	H	1.163979	0.563854	0.600184
H98	H	1.184645	0.590496	0.487657
H99	H	1.078094	0.697029	0.487655
C100	C	0.645677	0.522513	0.241375
H101	H	0.573091	0.539391	0.232944
H102	H	0.685619	0.474128	0.212298
H103	H	0.685625	0.474123	0.318843
C104	C	0.881619	0.606287	0.123649
H105	H	0.890056	0.670433	0.115212
H106	H	0.804160	0.643796	0.094563
H107	H	0.910689	0.537272	0.201119
C108	C	0.881617	0.404366	0.477299
H109	H	0.890057	0.340206	0.549876
H110	H	0.804157	0.473388	0.437348
H111	H	0.910704	0.366853	0.437347
C112	C	1.128916	0.606254	-0.123635
H113	H	1.163989	0.563837	-0.158688
H114	H	1.078103	0.697028	-0.179354
H115	H	1.184639	0.590483	-0.072805
C116	C	1.128905	0.404352	-0.123630
H117	H	1.163956	0.446768	-0.158710
H118	H	1.184625	0.313578	-0.072813
H119	H	1.078072	0.420116	-0.179346
C120	C	0.881613	0.606287	0.275390
H121	H	0.846547	0.563887	0.282716
H122	H	0.825904	0.697062	0.235443
H123	H	0.932437	0.590525	0.235432
C124	C	0.421095	0.769806	0.117755
H125	H	0.442841	0.682812	0.161243
H126	H	0.377605	0.813295	0.149281
H127	H	0.377595	0.813302	0.042735
H128	H	1.112094	0.418089	0.694044
C129	C	0.185600	1.240848	-0.117724
H130	H	0.120361	1.327849	-0.161207
H131	H	0.185578	1.197371	-0.149255
H132	H	0.185600	1.197353	-0.042703
H133	H	0.797471	0.769762	0.117760
H134	H	0.898459	1.218936	-0.694017
C135	C	1.527974	0.606255	0.275420
H136	H	1.605444	0.563858	0.282764
H137	H	1.492917	0.590494	0.235461
H138	H	1.492915	0.697035	0.235465
C139	C	1.729871	0.404359	0.477333
H140	H	1.722535	0.446747	0.399865
H141	H	1.769829	0.420121	0.512389
H142	H	1.769822	0.313578	0.512398
H143	H	0.193489	1.454467	-0.224521
H144	H	1.524872	0.592561	0.106824
H145	H	1.699313	0.418128	0.106815
C146	C	1.128937	0.758003	-0.477281
H147	H	1.120500	0.774861	-0.549859
H148	H	1.206397	0.709618	-0.437328
H149	H	1.099851	0.709624	-0.437332
C150	C	0.364853	1.488108	-0.241348
H151	H	0.287385	1.558240	-0.276413
H152	H	0.399924	1.492994	-0.190526
H153	H	0.399904	1.493010	-0.297076
H154	H	0.817058	0.556140	0.224562
H155	H	0.561982	1.240793	-0.117715
H156	H	0.898430	1.218950	-0.519598
H157	H	1.112111	0.791650	-0.305930
C158	C	1.280674	0.606256	-0.123627
H159	H	1.224953	0.670394	-0.115188
H160	H	1.272237	0.643765	-0.201088
H161	H	1.272250	0.537217	-0.094541
H162	H	1.485669	0.418110	-0.106818
H163	H	1.485671	0.418114	0.694056
H164	H	1.311224	0.592548	0.519615
