data_functionalizedCrystal
_audit_creation_method	'MofGen! by Chris Wilmer'
_symmetry_space_group_name_H-M	'P1'
_symmetry_Int_Tables_number	1
_symmetry_cell_setting	triclinic
loop_
_symmetry_equiv_pos_as_xyz
  x,y,z
_cell_length_a	13.339070
_cell_length_b	10.654550
_cell_length_c	11.804366
_cell_angle_alpha	78.052133
_cell_angle_beta	74.877437
_cell_angle_gamma	79.942901
loop_
_atom_site_label
_atom_site_type_symbol
_atom_site_fract_x
_atom_site_fract_y
_atom_site_fract_z
O1	O	1.367012	-0.612850	-0.098987
O2	O	1.071906	-0.530009	-0.098997
O3	O	1.226243	-0.390982	-0.098988
O4	O	1.212675	-0.751877	-0.098997
O5	O	1.185611	-0.427530	0.099066
O6	O	1.031273	-0.566557	0.099056
O7	O	1.326380	-0.649398	0.099066
Cu8	Cu	1.175116	-0.611315	0.117145
Cu9	Cu	1.223169	-0.568092	-0.117076
O10	O	1.172042	-0.788425	0.099056
C11	C	1.013802	-0.534290	0.000028
C12	C	0.901209	-0.492579	0.000024
C13	C	1.384483	-0.645117	0.000038
C14	C	1.497079	-0.686826	0.000034
C15	C	1.204931	-0.362122	0.000038
C16	C	1.201951	-0.221671	0.000033
C17	C	1.859598	-0.362510	0.000026
C18	C	1.753811	-0.323317	0.000022
C19	C	1.689623	-0.414191	0.000025
C20	C	1.731232	-0.544264	0.000032
C21	C	1.837031	-0.583460	0.000027
C22	C	1.667056	-0.635141	0.000026
C23	C	1.708665	-0.765215	0.000033
C24	C	1.814453	-0.804404	0.000029
C25	C	1.878642	-0.713530	0.000026
C26	C	1.561257	-0.595945	0.000031
C27	C	1.538689	-0.816895	0.000033
C28	C	1.644476	-0.856089	0.000037
C29	C	1.193355	-0.817285	0.000029
C30	C	1.196337	-0.957734	0.000025
N31	N	1.141326	-0.641717	0.281883
C32	C	1.292822	-0.172870	0.000040
C33	C	1.290016	-0.040900	0.000032
C34	C	1.105460	-0.006542	0.000015
C35	C	1.108268	-0.138509	0.000015
C36	C	1.399373	-0.192706	0.000055
C37	C	1.396568	-0.060735	0.000046
N38	N	1.256967	-0.537683	-0.281815
C39	C	1.060186	-0.714749	0.344224
C40	C	1.034634	-0.737768	0.468884
C41	C	1.090215	-0.687749	0.531216
C42	C	1.171352	-0.614707	0.468875
C43	C	1.196912	-0.591694	0.344203
C44	C	1.226941	-0.564693	0.531194
C45	C	1.308079	-0.491651	0.468853
C46	C	1.333634	-0.468642	0.344193
C47	C	1.278053	-0.518661	0.281862
C48	C	1.201381	-0.587706	0.655866
C49	C	1.338108	-0.464651	0.655845
C50	C	1.363659	-0.441632	0.531184
H51	H	1.603487	-0.382271	0.000022
H52	H	1.964782	-0.745436	0.000035
N53	N	1.062643	-0.712570	0.665670
H54	H	1.041135	-0.627429	0.695703
H55	H	1.125544	-0.760520	0.695598
H56	H	1.429724	-0.382160	0.480411
N57	N	0.947113	-0.816518	0.536121
H58	H	0.915774	-0.844703	0.477722
H59	H	0.891353	-0.762197	0.587846
N60	N	1.708933	-0.183035	0.000016
H61	H	1.765645	-0.131414	0.000017
H62	H	1.650471	-0.175511	0.073438
N63	N	1.859342	-0.944688	0.000005
H64	H	1.802630	-0.996311	0.000005
H65	H	1.887691	-0.979320	0.073419
N66	N	1.469491	-0.914950	0.000050
H67	H	1.440143	-0.890088	-0.073361
H68	H	1.410097	-0.917132	0.073525
N69	N	1.477105	-0.229995	-0.109714
H70	H	1.440013	-0.264881	-0.158714
H71	H	1.533594	-0.298604	-0.085158
N72	N	1.000241	-0.768691	0.277002
H73	H	1.008094	-0.866121	0.298689
H74	H	1.028778	-0.742937	0.188590
N75	N	1.689367	-0.996373	0.000022
H76	H	1.632659	-1.048001	0.000023
H77	H	1.717713	-1.030995	0.073440
H78	H	1.298854	-0.499915	0.180353
H79	H	1.034275	-0.178233	-0.000007
N80	N	1.004415	0.083144	0.000001
H81	H	1.014199	0.152207	-0.073419
H82	H	0.984121	0.125027	0.073467
H83	H	1.415759	-0.255570	0.085572
N84	N	1.398072	-0.410708	0.723058
H85	H	1.390233	-0.313278	0.701370
H86	H	1.474563	-0.446441	0.701314
H87	H	1.446313	-0.010185	-0.085466
H88	H	1.911870	-0.288533	0.000015
N89	N	1.421155	-0.389880	0.276950
H90	H	1.452488	-0.361682	0.335349
H91	H	1.392550	-0.311123	0.225233
H92	H	1.135319	-0.647177	0.706613
N93	N	1.516375	-0.455666	0.000032
H94	H	1.554778	-0.400641	-0.073386
H95	H	1.524665	-0.427854	0.073499
N96	N	1.427220	-0.043619	0.109830
H97	H	1.442915	-0.131167	0.158832
H98	H	1.367732	0.009287	0.158721
