data_functionalizedCrystal
_audit_creation_method	'MofGen! by Chris Wilmer'
_symmetry_space_group_name_H-M	'P1'
_symmetry_Int_Tables_number	1
_symmetry_cell_setting	triclinic
loop_
_symmetry_equiv_pos_as_xyz
  x,y,z
_cell_length_a	27.732064
_cell_length_b	27.732048
_cell_length_c	22.610064
_cell_angle_alpha	89.999096
_cell_angle_beta	89.999473
_cell_angle_gamma	82.646040
loop_
_atom_site_label
_atom_site_type_symbol
_atom_site_fract_x
_atom_site_fract_y
_atom_site_fract_z
O1	O	0.640925	0.057549	-0.049085
O2	O	0.500133	0.066286	-0.049111
O3	O	0.574902	-0.008479	-0.049086
O4	O	0.566156	0.132314	-0.049110
O5	O	0.574889	-0.008468	0.049283
O6	O	0.500120	0.066297	0.049259
O7	O	0.640912	0.057560	0.049284
Zn8	Zn	0.570514	0.061930	0.064889
Zn9	Zn	0.570531	0.061915	-0.064716
O10	O	0.566143	0.132325	0.049259
C11	C	0.482120	0.066106	0.000071
C12	C	0.428465	0.065551	0.000062
C13	C	0.051392	0.017583	0.000104
C14	C	0.253053	0.019630	0.000088
O15	O	0.284305	-0.017591	0.000116
N16	N	0.272180	0.063964	0.000078
C17	C	0.240889	0.107790	0.000075
O18	O	0.261785	0.145546	0.000072
C19	C	0.039230	0.105743	0.000095
C20	C	0.020105	0.061406	0.000100
C21	C	0.032267	-0.026750	0.000109
C22	C	-0.018145	-0.027261	0.000109
C23	C	-0.049432	0.016561	0.000105
C24	C	-0.030307	0.060895	0.000100
C25	C	0.007940	0.149568	0.000097
C26	C	-0.042478	0.149053	0.000104
C27	C	-0.061602	0.104716	0.000108
C28	C	-0.112006	0.104206	0.000097
N29	N	-0.131134	0.059872	0.000107
C30	C	-0.099846	0.016049	0.000111
C31	C	0.346763	0.108861	0.000064
C32	C	0.397178	0.109373	0.000058
C33	C	0.409338	0.021213	0.000071
C34	C	0.358923	0.020701	0.000073
C35	C	0.327636	0.064527	0.000074
C36	C	-0.205716	0.014979	0.000112
C37	C	-0.256133	0.014472	0.000110
C38	C	-0.268289	0.102632	0.000100
C39	C	-0.217876	0.103140	0.000098
C40	C	-0.186590	0.059309	0.000107
O41	O	-0.143287	0.141407	0.000075
O42	O	-0.120752	-0.021701	0.000127
C43	C	0.101804	0.018094	0.000103
C44	C	0.120930	0.062428	0.000098
C45	C	0.089642	0.106250	0.000094
C46	C	0.171344	0.062940	0.000092
C47	C	0.202631	0.019117	0.000096
C48	C	0.183504	-0.025217	0.000106
C49	C	0.133092	-0.025728	0.000107
C50	C	0.108770	0.150585	0.000084
C51	C	0.159183	0.151092	0.000082
C52	C	0.190470	0.107270	0.000087
C53	C	0.574712	-0.026481	0.000100
C54	C	0.574159	-0.080136	0.000105
C55	C	0.614862	-0.418948	0.000082
C56	C	0.612811	-0.620608	0.000073
O57	O	0.650032	-0.651862	0.000054
N58	N	0.568476	-0.639735	0.000066
C59	C	0.524651	-0.608442	0.000057
O60	O	0.486895	-0.629338	0.000044
C61	C	0.526703	-0.406784	0.000061
C62	C	0.571040	-0.387660	0.000075
C63	C	0.659196	-0.399824	0.000095
C64	C	0.659709	-0.349412	0.000100
C65	C	0.615887	-0.318124	0.000093
C66	C	0.571553	-0.337248	0.000080
C67	C	0.482878	-0.375493	0.000048
C68	C	0.483395	-0.325075	0.000047
C69	C	0.527733	-0.305952	0.000061
C70	C	0.528243	-0.255548	0.000078
N71	N	0.572578	-0.236422	0.000085
C72	C	0.616400	-0.267710	0.000093
C73	C	0.523577	-0.714317	0.000056
C74	C	0.523064	-0.764731	0.000056
C75	C	0.611225	-0.776893	0.000071
C76	C	0.611737	-0.726478	0.000075
C77	C	0.567912	-0.695190	0.000063
C78	C	0.617472	-0.161841	0.000105
C79	C	0.617981	-0.111424	0.000112
C80	C	0.529821	-0.099266	0.000094
C81	C	0.529312	-0.149679	0.000089
C82	C	0.573142	-0.180965	0.000093
O83	O	0.491043	-0.224267	0.000091
O84	O	0.654151	-0.246805	0.000092
C85	C	0.614350	-0.469360	0.000077
C86	C	0.570016	-0.488484	0.000064
C87	C	0.526194	-0.457196	0.000057
C88	C	0.569503	-0.538899	0.000064
C89	C	0.613325	-0.570187	0.000071
C90	C	0.657660	-0.551060	0.000079
C91	C	0.658172	-0.500648	0.000084
C92	C	0.481859	-0.476323	0.000049
C93	C	0.481351	-0.526735	0.000044
C94	C	0.525172	-0.558023	0.000052
C95	C	0.658925	0.057739	0.000101
C96	C	0.712580	0.058295	0.000106
C97	C	0.566333	0.150326	0.000072
C98	C	0.566886	0.203981	0.000063
N99	N	0.570505	0.061939	0.153342
N100	N	0.570543	0.061902	-0.153169
C101	C	0.603640	0.028814	0.561994
C102	C	0.603643	0.028811	0.623914
O103	O	0.631795	0.000654	0.655942
N104	N	0.570531	0.061905	0.654879
C105	C	0.537411	0.095002	0.623921
O106	O	0.509247	0.123151	0.655945
C107	C	0.537407	0.095003	0.562002
C108	C	0.570524	0.061910	0.531040
C109	C	0.636755	-0.004277	0.531032
C110	C	0.636753	-0.004272	0.469117
C111	C	0.603636	0.028823	0.438163
C112	C	0.570522	0.061914	0.469125
C113	C	0.504285	0.128097	0.531045
C114	C	0.504283	0.128095	0.469122
C115	C	0.537400	0.095002	0.438160
C116	C	0.537404	0.095013	0.376255
N117	N	0.570516	0.061919	0.345290
C118	C	0.603632	0.028824	0.376244
C119	C	0.537422	0.094997	0.753954
C120	C	0.537429	0.094999	0.815872
C121	C	0.603660	0.028807	0.815861
C122	C	0.603655	0.028808	0.753942
C123	C	0.570534	0.061903	0.722990
C124	C	0.603625	0.028836	0.246217
C125	C	0.603622	0.028844	0.184296
C126	C	0.537389	0.095034	0.184312
C127	C	0.537394	0.095027	0.246228
C128	C	0.570514	0.061924	0.277179
O129	O	0.509265	0.123154	0.344188
O130	O	0.631787	0.000676	0.344213
H131	H	0.083300	0.186271	0.000081
Br132	Br	0.648574	-0.016091	0.288211
Br133	Br	0.681703	-0.049198	0.573031
Br134	Br	-0.084936	0.208534	0.000109
Br135	Br	0.719884	-0.323468	0.000102
H136	H	0.694883	-0.425295	0.000099
Br137	Br	-0.191920	0.163312	0.000083
H138	H	0.117526	-0.061832	0.000111
Br139	Br	0.678157	-0.085474	0.000131
H140	H	0.208987	-0.060899	0.000106
Br141	Br	0.459328	0.173010	0.427119
Br142	Br	0.470351	-0.056794	0.000084
H143	H	0.694276	-0.485083	0.000095
H144	H	-0.033711	-0.063365	0.000115
Br145	Br	0.074720	-0.086232	0.000116
Br146	Br	0.304309	0.168345	0.000061
H147	H	0.630624	0.001859	0.841075
H148	H	0.446173	-0.450852	0.000042
Br149	Br	0.676956	-0.204293	0.000108
Br150	Br	-0.282084	-0.045704	0.000110
Br151	Br	-0.310759	0.162103	0.000090
H152	H	0.647841	-0.710911	0.000086
Br153	Br	0.033881	0.209744	0.000090
Br154	Br	0.462889	-0.790678	0.000052
Br155	Br	0.464094	-0.671861	0.000038
Br156	Br	0.492490	0.139921	0.857885
H157	H	0.646906	-0.802377	0.000077
Br158	Br	0.492454	0.139947	0.288246
Br159	Br	0.332974	-0.039472	0.000080
Br160	Br	0.422702	-0.401432	0.000027
H161	H	0.174748	0.187200	0.000075
H162	H	-0.180248	-0.020712	0.000119
Br163	Br	0.459338	0.173011	0.573052
H164	H	0.630592	0.001895	0.159089
Br165	Br	0.421172	-0.552681	0.000031
H166	H	0.412744	0.145477	0.000046
Br167	Br	0.423915	-0.282616	0.000028
H168	H	0.493209	-0.165249	0.000095
H169	H	0.663718	-0.031221	0.443911
H170	H	0.434821	-0.014469	0.000073
Br171	Br	0.717131	-0.593533	0.000093
Br172	Br	0.648602	-0.016106	0.711930
Br173	Br	0.492471	0.139919	0.711953
Br174	Br	0.492448	0.139949	0.142294
