data_functionalizedCrystal
_audit_creation_method	'MofGen! by Chris Wilmer'
_symmetry_space_group_name_H-M	'P1'
_symmetry_Int_Tables_number	1
_symmetry_cell_setting	triclinic
loop_
_symmetry_equiv_pos_as_xyz
  x,y,z
_cell_length_a	17.038278
_cell_length_b	17.038272
_cell_length_c	9.016244
_cell_angle_alpha	89.997742
_cell_angle_beta	89.992428
_cell_angle_gamma	91.111028
loop_
_atom_site_label
_atom_site_type_symbol
_atom_site_fract_x
_atom_site_fract_y
_atom_site_fract_z
O1	O	1.048757	0.170524	-0.123355
O2	O	0.820946	0.167818	-0.123355
O3	O	0.933498	0.055265	-0.123343
O4	O	0.936206	0.283077	-0.123367
O5	O	0.933480	0.055267	0.123338
O6	O	0.820929	0.167820	0.123326
O7	O	1.048740	0.170526	0.123326
Cu8	Cu	0.934833	0.169173	0.145850
Cu9	Cu	0.934853	0.169171	-0.145879
O10	O	0.936188	0.283079	0.123314
C11	C	0.791645	0.165356	-0.000015
C12	C	0.704361	0.158009	-0.000015
C13	C	0.210935	0.112872	-0.000016
C14	C	0.292947	0.119781	-0.000007
C15	C	0.329347	0.194155	-0.000022
C16	C	0.283730	0.261623	-0.000029
C17	C	0.201720	0.254713	-0.000027
C18	C	0.576734	0.218567	-0.000020
C19	C	0.658751	0.225473	-0.000027
C20	C	0.667962	0.083630	-0.000002
C21	C	0.585949	0.076726	-0.000008
C22	C	0.540340	0.144194	-0.000008
C23	C	0.413176	0.201219	-0.000018
C24	C	0.456513	0.137129	-0.000001
C25	C	0.931026	0.025974	-0.000003
C26	C	0.923678	-0.061310	-0.000003
C27	C	0.991142	-0.106920	-0.000002
C28	C	0.984233	-0.188932	-0.000016
C29	C	0.909859	-0.225332	-0.000021
C30	C	0.842391	-0.179716	-0.000027
C31	C	0.849300	-0.097706	-0.000024
C32	C	0.885449	-0.472720	-0.000041
C33	C	0.878544	-0.554736	-0.000040
C34	C	1.020387	-0.563946	-0.000032
C35	C	1.027290	-0.481934	-0.000019
C36	C	0.959821	-0.436325	-0.000033
C37	C	0.902796	-0.309161	-0.000031
C38	C	0.966886	-0.352497	-0.000034
C39	C	1.078041	0.172988	-0.000018
C40	C	1.165325	0.180335	-0.000028
C41	C	0.938660	0.312370	-0.000029
C42	C	0.946008	0.399654	-0.000039
N43	N	0.934824	0.169174	0.351036
N44	N	0.934868	0.169164	-0.351065
C45	C	0.874408	0.229157	0.586062
C46	C	0.874563	0.229404	0.414171
C47	C	1.017958	0.192523	0.413372
C48	C	1.017635	0.192953	0.585317
C49	C	0.912908	0.085681	0.585588
C50	C	0.911056	0.086108	0.413634
H51	H	0.539609	0.273505	-0.000027
Br52	Br	0.771393	0.204887	0.655011
H53	H	0.853312	0.064582	0.629038
H54	H	1.051704	-0.077289	0.000012
Br55	Br	0.986288	0.011163	0.653348
Br56	Br	0.354844	0.028219	0.000024
H57	H	1.036774	0.252912	0.370288
Br58	Br	0.898837	0.332481	0.345566
Br59	Br	0.708150	0.326415	-0.000050
H60	H	0.849874	0.068516	0.372893
H61	H	0.781834	-0.209360	-0.000041
H62	H	0.794364	-0.060571	-0.000025
H63	H	0.313374	0.322180	-0.000032
H64	H	1.036153	0.254003	0.625400
Br65	Br	0.139819	0.346274	-0.000026
Br66	Br	1.095255	0.123275	0.654642
H67	H	0.812944	0.214688	0.372028
H68	H	0.426872	0.076575	-0.000007
H69	H	0.442822	0.261775	-0.000034
H70	H	0.181305	0.052309	-0.000013
H71	H	1.064245	0.150218	0.372472
Br72	Br	0.536555	-0.024213	-0.000054
Br73	Br	0.978987	0.007508	0.342036
H74	H	0.888829	0.290641	0.629249
Br75	Br	0.729863	-0.007929	0.000006
H76	H	0.830511	-0.435595	-0.000052
H77	H	1.039169	-0.226064	-0.000011
H78	H	1.075316	-0.601089	-0.000023
Br79	Br	1.128229	-0.432539	-0.000060
H80	H	1.027440	-0.322857	-0.000063
Br81	Br	0.777602	-0.604136	-0.000032
H82	H	0.842240	-0.338808	-0.000032
