data_functionalizedCrystal
_audit_creation_method	'MofGen! by Chris Wilmer'
_symmetry_space_group_name_H-M	'P1'
_symmetry_Int_Tables_number	1
_symmetry_cell_setting	triclinic
loop_
_symmetry_equiv_pos_as_xyz
  x,y,z
_cell_length_a	12.827893
_cell_length_b	12.827892
_cell_length_c	21.395355
_cell_angle_alpha	89.986671
_cell_angle_beta	89.977438
_cell_angle_gamma	90.015362
loop_
_atom_site_label
_atom_site_type_symbol
_atom_site_fract_x
_atom_site_fract_y
_atom_site_fract_z
Zn1	Zn	1.597703	-0.416155	-0.354251
Zn2	Zn	2.097703	0.083845	0.145749
Zn3	Zn	1.597588	-0.590882	-0.249483
Zn4	Zn	2.097588	-0.090882	0.250517
Zn5	Zn	1.422935	-0.416155	-0.249491
Zn6	Zn	1.922935	0.083845	0.250509
Zn7	Zn	1.422930	-0.590855	-0.354227
Zn8	Zn	1.922930	-0.090855	0.145773
O9	O	1.510289	-0.503511	-0.301863
O10	O	2.010289	-0.003511	0.198137
O11	O	1.743924	-0.439344	-0.340360
O12	O	2.243924	0.060656	0.159640
O13	O	1.574373	-0.567715	-0.161806
O14	O	2.074373	-0.067715	0.338194
O15	O	1.446169	-0.269919	-0.263401
O16	O	1.946169	0.230081	0.236599
O17	O	1.743839	-0.567715	-0.263387
O18	O	2.243839	-0.067715	0.236613
O19	O	1.574571	-0.269919	-0.340368
O20	O	2.074571	0.230081	0.159632
O21	O	1.446056	-0.439344	-0.161812
O22	O	1.946056	0.060656	0.338188
O23	O	1.276698	-0.439318	-0.263378
O24	O	1.776698	0.060682	0.236622
O25	O	1.446161	-0.567669	-0.441908
O26	O	1.946161	-0.067669	0.058092
O27	O	1.276695	-0.567669	-0.340327
O28	O	1.776695	-0.067669	0.159673
O29	O	1.574566	-0.439318	-0.441925
O30	O	2.074566	0.060682	0.058075
O31	O	1.574368	-0.737114	-0.263364
O32	O	2.074368	-0.237114	0.236636
O33	O	1.446048	-0.737094	-0.340318
O34	O	1.946048	-0.237094	0.159682
C35	C	1.238779	-0.503491	-0.301851
C36	C	1.738779	-0.003491	0.198149
C37	C	1.122626	-0.503508	-0.301861
C38	C	1.622626	-0.003508	0.198139
C39	C	0.950771	-0.439930	-0.263862
C40	C	1.450771	0.060070	0.236138
C41	C	1.070821	-0.439912	-0.263851
C42	C	1.570821	0.060088	0.236149
C43	C	1.510224	-0.775021	-0.301851
C44	C	2.010224	-0.275021	0.198149
C45	C	1.510291	-0.891175	-0.301867
C46	C	2.010291	-0.391175	0.198133
C47	C	1.573800	-0.942876	-0.339987
C48	C	2.073800	-0.442876	0.160013
C49	C	1.573872	-1.062926	-0.340004
C50	C	2.073872	-0.562926	0.159996
C51	C	1.782859	-0.503532	-0.301875
C52	C	2.282859	-0.003532	0.198125
C53	C	1.899012	-0.503541	-0.301880
C54	C	2.399012	-0.003541	0.198120
C55	C	1.510376	-0.503490	-0.465286
C56	C	2.010376	-0.003490	0.034714
C57	C	1.510413	-0.503481	-0.534927
C58	C	2.010413	-0.003481	-0.034927
C59	C	1.510383	-0.230941	-0.301888
C60	C	2.010383	0.269059	0.198112
C61	C	1.510423	-0.114788	-0.301899
C62	C	2.010423	0.385212	0.198101
C63	C	1.577270	-0.436646	-0.567651
C64	C	2.077270	0.063354	-0.067651
C65	C	1.577269	-0.436601	-0.633086
C66	C	2.077269	0.063399	-0.133086
C67	C	1.510421	-0.503410	-0.665796
C68	C	2.010421	-0.003410	-0.165796
C69	C	1.443550	-0.570250	-0.633065
C70	C	1.943550	-0.070250	-0.133065
C71	C	1.443546	-0.570286	-0.567630
C72	C	1.943546	-0.070286	-0.067630
C73	C	1.502147	-0.597504	-0.769467
C74	C	2.002147	-0.097504	-0.269467
C75	C	1.502158	-0.597470	-0.834900
C76	C	2.002158	-0.097470	-0.334900
C77	C	1.510427	-0.503300	-0.867617
C78	C	2.010427	-0.003300	-0.367617
C79	C	1.518707	-0.409160	-0.834893
C80	C	2.018707	0.090840	-0.334893
C81	C	1.518703	-0.409196	-0.769458
C82	C	2.018703	0.090804	-0.269458
C83	C	1.510417	-0.503378	-0.736748
C84	C	2.010417	-0.003378	-0.236748
C85	C	1.577287	-0.436410	-0.971293
C86	C	2.077287	0.063590	-0.471293
C87	C	1.577278	-0.436363	-1.036729
C88	C	2.077278	0.063637	-0.536729
C89	C	1.443565	-0.570022	-1.036706
C90	C	1.943565	-0.070022	-0.536706
C91	C	1.443568	-0.570059	-0.971271
C92	C	1.943568	-0.070059	-0.471271
C93	C	1.510435	-0.503255	-0.938568
C94	C	2.010435	-0.003255	-0.438568
C95	C	1.510263	-0.503457	-0.139075
C96	C	2.010263	-0.003457	0.360925
C97	C	1.510428	-0.503172	-0.069434
C98	C	2.010428	-0.003172	0.430566
H99	H	1.628117	-0.898265	-0.372613
H100	H	2.128117	-0.398265	0.127387
N101	N	1.645876	-1.121813	-0.383249
N102	N	2.145876	-0.621813	0.116751
H103	H	1.688202	-1.070704	-0.408679
H104	H	2.188202	-0.570704	0.091321
H105	H	1.694251	-1.167087	-0.357763
H106	H	2.194251	-0.667087	0.142237
H107	H	1.078121	-0.557974	-0.334409
H108	H	1.578121	-0.057974	0.165591
H109	H	1.631720	-0.381932	-1.063372
H110	H	2.131720	0.118068	-0.563372
H111	H	1.631710	-0.382170	-0.659735
H112	H	2.131710	0.117830	-0.159735
N113	N	0.891747	-0.367826	-0.220747
N114	N	1.391747	0.132174	0.279253
H115	H	0.846478	-0.319508	-0.246279
H116	H	1.346478	0.180492	0.253721
H117	H	0.846500	-0.410370	-0.191713
H118	H	1.346500	0.089630	0.308287
H119	H	1.456052	-1.070334	-0.269259
H120	H	1.956052	-0.570334	0.230741
N121	N	1.371440	-0.642129	-0.935971
N122	N	1.871440	-0.142129	-0.435971
H123	H	1.329084	-0.684441	-0.966620
H124	H	1.829084	-0.184441	-0.466620
H125	H	1.413939	-0.690516	-0.908827
H126	H	1.913939	-0.190516	-0.408827
H127	H	0.943576	-0.557983	-0.334424
H128	H	1.443576	-0.057983	0.165576
N129	N	1.438334	-0.950252	-0.258650
N130	N	1.938334	-0.450252	0.241350
H131	H	1.389952	-0.995561	-0.284116
H132	H	1.889952	-0.495561	0.215884
H133	H	1.480970	-0.995463	-0.229677
H134	H	1.980970	-0.495463	0.270323
H135	H	1.115333	-0.385455	-0.231301
H136	H	1.615333	0.114545	0.268699
N137	N	1.493238	-0.699083	-0.734184
N138	N	1.993238	-0.199083	-0.234184
H139	H	1.494490	-0.684823	-0.687767
H140	H	1.994490	-0.184823	-0.187767
H141	H	1.425600	-0.734589	-0.745608
H142	H	1.925600	-0.234589	-0.245608
H143	H	1.525442	-0.332478	-0.861529
H144	H	2.025442	0.167522	-0.361529
H145	H	1.631717	-0.382248	-0.541028
H146	H	2.131717	0.117752	-0.041028
N147	N	1.527635	-0.307670	-0.734162
N148	N	2.027635	0.192330	-0.234162
H149	H	1.532878	-0.248004	-0.764812
H150	H	2.032878	0.251996	-0.264812
H151	H	1.463967	-0.297977	-0.706998
H152	H	1.963967	0.202023	-0.206998
H153	H	1.631728	-0.382008	-0.944664
H154	H	2.131728	0.117992	-0.444664
N155	N	1.371454	-0.642073	-1.071976
N156	N	1.871454	-0.142073	-0.571976
H157	H	1.381597	-0.631908	-1.118395
H158	H	1.881597	-0.131908	-0.618395
H159	H	1.387689	-0.716716	-1.060548
H160	H	1.887689	-0.216716	-0.560548
H161	H	1.495423	-0.674124	-0.861538
H162	H	1.995423	-0.174124	-0.361538
N163	N	1.371432	-0.642292	-0.668339
N164	N	1.871432	-0.142292	-0.168339
H165	H	1.381577	-0.632127	-0.714758
H166	H	1.881577	-0.132127	-0.214758
H167	H	1.387654	-0.716938	-0.656913
H168	H	1.887654	-0.216938	-0.156913
H169	H	1.389098	-0.624710	-0.540987
H170	H	1.889098	-0.124710	-0.040987
