data_functionalizedCrystal
_audit_creation_method	'MofGen! by Chris Wilmer'
_symmetry_space_group_name_H-M	'P1'
_symmetry_Int_Tables_number	1
_symmetry_cell_setting	triclinic
loop_
_symmetry_equiv_pos_as_xyz
  x,y,z
_cell_length_a	12.503572
_cell_length_b	14.519709
_cell_length_c	14.519709
_cell_angle_alpha	83.680145
_cell_angle_beta	93.534022
_cell_angle_gamma	86.467165
loop_
_atom_site_label
_atom_site_type_symbol
_atom_site_fract_x
_atom_site_fract_y
_atom_site_fract_z
O1	O	-0.089184	-1.218552	-0.126203
O2	O	0.244149	-0.885218	0.207131
O3	O	0.577482	-0.551885	0.540464
O4	O	-0.089218	-0.950073	-0.140441
O5	O	0.244116	-0.616740	0.192892
O6	O	0.577449	-0.283406	0.526225
O7	O	-0.089190	-1.091431	0.000917
O8	O	0.244143	-0.758098	0.334250
O9	O	0.577476	-0.424765	0.667584
O10	O	-0.089212	-1.077193	-0.267561
O11	O	0.244122	-0.743860	0.065772
O12	O	0.577455	-0.410527	0.399105
O13	O	0.089454	-1.102067	0.011561
O14	O	0.422787	-0.768734	0.344894
O15	O	0.756120	-0.435400	0.678228
O16	O	0.089426	-0.960708	-0.129797
O17	O	0.422760	-0.627375	0.203536
O18	O	0.756093	-0.294042	0.536869
O19	O	0.089460	-1.229187	-0.115559
O20	O	0.422793	-0.895854	0.217775
O21	O	0.756126	-0.562521	0.551108
Cu22	Cu	0.105755	-1.095919	-0.121706
Cu23	Cu	0.439088	-0.762586	0.211627
Cu24	Cu	0.772421	-0.429252	0.544961
Cu25	Cu	-0.105513	-1.083341	-0.134294
Cu26	Cu	0.227821	-0.750008	0.199039
Cu27	Cu	0.561154	-0.416675	0.532373
O28	O	0.089432	-1.087829	-0.256917
O29	O	0.422766	-0.754496	0.076416
O30	O	0.756099	-0.421162	0.409750
C31	C	0.000100	-0.921031	-0.134456
C32	C	0.333434	-0.587697	0.198877
C33	C	0.666767	-0.254364	0.532211
C34	C	0.000088	-0.818649	-0.132469
C35	C	0.333421	-0.485315	0.200865
C36	C	0.666755	-0.151982	0.534198
N37	N	-0.254107	-1.074495	-0.143141
N38	N	0.079227	-0.741162	0.190192
N39	N	0.412560	-0.407829	0.523526
C40	C	0.000132	-1.096086	0.040599
C41	C	0.333465	-0.762752	0.373932
C42	C	0.666798	-0.429419	0.707265
C43	C	0.000132	-1.094097	0.142980
C44	C	0.333465	-0.760764	0.476313
C45	C	0.666799	-0.427431	0.809647
C46	C	-0.473224	-1.061475	-0.156155
C47	C	-0.139891	-0.728141	0.177178
C48	C	0.193442	-0.394808	0.510512
C49	C	-0.526541	-1.117790	-0.099841
C50	C	-0.193207	-0.784456	0.233492
C51	C	0.140126	-0.451123	0.566826
C52	C	-0.648465	-1.110545	-0.107082
C53	C	-0.315132	-0.777212	0.226251
C54	C	0.018201	-0.443878	0.559585
C55	C	-0.351289	-1.068718	-0.148915
C56	C	-0.017955	-0.735385	0.184418
C57	C	0.315378	-0.402052	0.517752
N58	N	0.254349	-1.104772	-0.112852
N59	N	0.587682	-0.771439	0.220481
N60	N	0.921015	-0.438106	0.553815
C61	C	0.000139	-1.258229	-0.121544
C62	C	0.333473	-0.924896	0.211789
C63	C	0.666806	-0.591563	0.545122
C64	C	0.000145	-1.360611	-0.123532
C65	C	0.333478	-1.027278	0.209801
C66	C	0.666811	-0.693944	0.543135
C67	C	0.000137	-0.443756	-0.125146
C68	C	0.333471	-0.110422	0.208187
C69	C	0.666804	0.222911	0.541520
C70	C	0.000123	-0.548063	-0.127180
C71	C	0.333457	-0.214730	0.206154
C72	C	0.666790	0.118604	0.539487
C73	C	0.000112	-0.631199	-0.128807
C74	C	0.333445	-0.297866	0.204526
C75	C	0.666778	0.035468	0.537859
C76	C	0.000100	-0.735513	-0.130841
C77	C	0.333433	-0.402179	0.202492
C78	C	0.666766	-0.068846	0.535826
C79	C	0.000108	-1.083175	-0.296599
C80	C	0.333441	-0.749841	0.036734
C81	C	0.666775	-0.416508	0.370068
C82	C	0.000101	-1.085162	-0.398981
C83	C	0.333434	-0.751829	-0.065647
C84	C	0.666767	-0.418496	0.267686
C85	C	0.000103	-1.086776	0.517874
C86	C	0.333437	-0.753443	0.851208
C87	C	0.666770	-0.420110	1.184541
C88	C	0.000112	-1.088809	0.413567
C89	C	0.333445	-0.755476	0.746900
C90	C	0.666778	-0.422143	1.080233
C91	C	0.000119	-1.090437	0.330430
C92	C	0.333452	-0.757103	0.663764
C93	C	0.666785	-0.423770	0.997097
C94	C	0.000125	-1.092470	0.226116
C95	C	0.333458	-0.759137	0.559450
C96	C	0.666792	-0.425803	0.892783
H97	H	-0.480617	-1.171443	-0.046190
H98	H	-0.147284	-0.838110	0.287143
H99	H	0.186049	-0.504776	0.620477
H100	H	-0.519142	-1.007824	-0.209801
H101	H	-0.185809	-0.674490	0.123532
H102	H	0.147525	-0.341157	0.456866
