data_functionalizedCrystal
_audit_creation_method	'MofGen! by Chris Wilmer'
_symmetry_space_group_name_H-M	'P1'
_symmetry_Int_Tables_number	1
_symmetry_cell_setting	triclinic
loop_
_symmetry_equiv_pos_as_xyz
  x,y,z
_cell_length_a	27.435584
_cell_length_b	27.434948
_cell_length_c	27.431174
_cell_angle_alpha	60.005483
_cell_angle_beta	60.011353
_cell_angle_gamma	59.993028
loop_
_atom_site_label
_atom_site_type_symbol
_atom_site_fract_x
_atom_site_fract_y
_atom_site_fract_z
O1	O	0.067437	-0.712144	0.595551
O2	O	0.567437	-0.212144	1.095551
O3	O	0.025356	-0.554453	0.479848
O4	O	0.525356	-0.054453	0.979848
O5	O	0.125206	-0.654236	0.479781
O6	O	0.625206	-0.154236	0.979781
O7	O	-0.032412	-0.612361	0.595618
O8	O	0.467588	-0.112361	1.095618
O9	O	0.158328	-0.621117	0.512835
O10	O	0.658328	-0.121117	1.012835
O11	O	0.058479	-0.521333	0.512902
O12	O	0.558479	-0.021333	1.012902
O13	O	0.100560	-0.679025	0.628605
O14	O	0.600560	-0.179025	1.128605
Zn15	Zn	0.084778	-0.594921	0.576001
Zn16	Zn	0.584778	-0.094921	1.076001
Zn17	Zn	0.041138	-0.638557	0.532452
Zn18	Zn	0.541138	-0.138557	1.032452
O19	O	0.000710	-0.579241	0.628672
O20	O	0.500710	-0.079241	1.128672
N21	N	0.114563	-0.565144	0.605726
N22	N	0.614563	-0.065144	1.105726
N23	N	0.011358	-0.668338	0.502727
N24	N	0.511358	-0.168338	1.002727
C25	C	0.156385	-0.523520	0.904506
C26	C	0.656385	-0.023520	1.404506
C27	C	0.413419	-0.523497	0.647322
C28	C	0.913419	-0.023497	1.147322
C29	C	0.156253	-0.523488	0.647384
C30	C	0.656253	-0.023488	1.147384
C31	C	0.156238	-0.266354	0.647407
C32	C	0.656238	0.233646	1.147407
C33	C	0.197637	-0.390463	0.688753
C34	C	0.697637	0.109537	1.188753
C35	C	0.197646	-0.482126	0.688741
C36	C	0.697646	0.017874	1.188741
C37	C	0.220575	-0.459215	0.711654
C38	C	0.720575	0.040785	1.211654
C39	C	0.320555	-0.441991	0.659023
C40	C	0.820555	0.058009	1.159023
C41	C	0.383051	-0.462825	0.638179
C42	C	0.883051	0.037175	1.138179
C43	C	0.383069	-0.563942	0.676737
C44	C	0.883069	-0.063942	1.176737
C45	C	0.320575	-0.543107	0.697583
C46	C	0.820575	-0.043107	1.197583
C47	C	0.212704	-0.359206	0.627313
C48	C	0.712704	0.140794	1.127313
C49	C	0.191849	-0.296705	0.606496
C50	C	0.691849	0.203295	1.106496
C51	C	0.140866	-0.296722	0.708562
C52	C	0.640866	0.203278	1.208562
C53	C	0.161721	-0.359223	0.729379
C54	C	0.661721	0.140777	1.229379
C55	C	0.136200	-0.467030	0.703858
C56	C	0.636200	0.032970	1.203858
C57	C	0.115361	-0.487857	0.683021
C58	C	0.615361	0.012143	1.183021
C59	C	0.217408	-0.538877	0.631968
C60	C	0.717408	-0.038877	1.131968
C61	C	0.238249	-0.518050	0.652796
C62	C	0.738249	-0.018050	1.152796
C63	C	0.136259	-0.467047	0.811668
C64	C	0.636259	0.032953	1.311668
C65	C	0.115461	-0.487892	0.874167
C66	C	0.615461	0.012108	1.374167
C67	C	0.217537	-0.538923	0.874131
C68	C	0.717537	-0.038923	1.374131
C69	C	0.238333	-0.518080	0.811631
C70	C	0.738333	-0.018080	1.311631
C71	C	0.197693	-0.482140	0.780401
C72	C	0.697693	0.017860	1.280401
C73	C	0.289320	-0.482131	0.688723
C74	C	0.789320	0.017869	1.188723
C75	C	0.132699	-0.546027	0.973247
C76	C	0.632699	-0.046027	1.473247
C77	C	0.482158	-0.545613	0.624075
C78	C	0.982158	-0.045613	1.124075
C79	C	0.132521	-0.546006	0.624886
C80	C	0.632521	-0.046006	1.124886
C81	C	0.132917	-0.197607	0.625310
C82	C	0.632917	0.302393	1.125310
C83	C	-0.098217	-0.686189	0.484419
C84	C	0.401783	-0.186189	0.984419
C85	C	-0.006438	-0.686322	0.392891
C86	C	0.493562	-0.186322	0.892891
C87	C	-0.006621	-0.777944	0.484592
C88	C	0.493379	-0.277944	0.984592
C89	C	-0.006606	-0.686315	0.484649
C90	C	0.493394	-0.186315	0.984649
C91	C	-0.029470	-0.709193	0.461638
C92	C	0.470530	-0.209193	0.961638
N93	N	0.538410	-0.565162	0.605628
N94	N	1.038410	-0.065162	1.105628
O95	O	0.742647	-0.575135	0.458625
O96	O	1.242647	-0.075135	0.958625
O97	O	0.742821	-0.691181	0.616169
O98	O	1.242821	-0.191181	1.116169
O99	O	0.742757	-0.690917	0.516248
O100	O	1.242757	-0.190917	1.016248
O101	O	0.742711	-0.575399	0.558546
O102	O	1.242711	-0.075399	1.058546
O103	O	0.643472	-0.657878	0.549405
O104	O	1.143472	-0.157878	1.049405
O105	O	0.643536	-0.658142	0.649326
O106	O	1.143536	-0.158142	1.149326
O107	O	0.643362	-0.542096	0.491782
O108	O	1.143362	-0.042096	0.991782
Zn109	Zn	0.627685	-0.594873	0.575818
Zn110	Zn	1.127685	-0.094873	1.075818
Zn111	Zn	0.758498	-0.638404	0.532133
Zn112	Zn	1.258498	-0.138404	1.032133
O113	O	0.643426	-0.542360	0.591702
O114	O	1.143426	-0.042360	1.091702
N115	N	0.847774	-0.668115	0.502317
N116	N	1.347774	-0.168115	1.002317
N117	N	0.114542	-0.141354	0.605766
N118	N	0.614542	0.358646	1.105766
O119	O	-0.032397	0.062987	0.595660
O120	O	0.467603	0.562987	1.095660
O121	O	0.125155	0.062987	0.479633
O122	O	0.625155	0.562987	0.979633
O123	O	0.025219	0.062974	0.479910
O124	O	0.525219	0.562974	0.979910
O125	O	0.067539	0.063001	0.595383
O126	O	0.567539	0.563001	1.095383
O127	O	0.058343	-0.036320	0.513009
O128	O	0.558343	0.463680	1.013009
O129	O	0.158279	-0.036306	0.512732
O130	O	0.658279	0.463694	1.012732
O131	O	0.000728	-0.036306	0.628759
O132	O	0.500728	0.463694	1.128759
Zn133	Zn	0.084763	-0.052071	0.576000
Zn134	Zn	0.584763	0.447929	1.076000
Zn135	Zn	0.041120	0.078752	0.532392
Zn136	Zn	0.541120	0.578752	1.032392
O137	O	0.100664	-0.036292	0.628482
O138	O	0.600664	0.463708	1.128482
N139	N	0.011333	0.168036	0.502628
N140	N	0.511333	0.668036	1.002628
N141	N	0.114782	-0.565197	1.029501
N142	N	0.614782	-0.065197	1.529501
O143	O	0.104681	-0.712124	1.233827
O144	O	0.604681	-0.212124	1.733827
O145	O	-0.011334	-0.554523	1.233839
O146	O	0.488666	-0.054523	1.733839
O147	O	-0.011066	-0.654443	1.233797
O148	O	0.488934	-0.154443	1.733797
O149	O	0.104414	-0.612204	1.233869
O150	O	0.604414	-0.112204	1.733869
O151	O	0.022028	-0.621336	1.134509
O152	O	0.522028	-0.121336	1.634509
O153	O	0.021760	-0.521417	1.134551
O154	O	0.521760	-0.021417	1.634551
O155	O	0.137775	-0.679018	1.134539
O156	O	0.637775	-0.179018	1.634539
Zn157	Zn	0.085022	-0.594961	1.118780
Zn158	Zn	0.585022	-0.094961	1.618780
Zn159	Zn	0.041420	-0.638580	1.249597
Zn160	Zn	0.541420	-0.138580	1.749597
O161	O	0.137508	-0.579098	1.134580
O162	O	0.637508	-0.079098	1.634580
N163	N	0.011658	-0.668350	1.338876
N164	N	0.511658	-0.168350	1.838876
C165	C	0.037974	-0.518023	0.480435
C166	C	0.537974	-0.018023	0.980435
C167	C	0.161625	-0.641592	0.480351
C168	C	0.661625	-0.141592	0.980351
C169	C	0.087941	-0.715455	0.628017
C170	C	0.587941	-0.215455	1.128017
C171	C	-0.035710	-0.591885	0.628101
C172	C	0.464290	-0.091885	1.128101
C173	C	0.693199	-0.690642	0.652596
C174	C	1.193199	-0.190642	1.152596
C175	C	0.693122	-0.690315	0.528855
C176	C	1.193122	-0.190315	1.028855
C177	C	0.692981	-0.542634	0.455356
C178	C	1.192981	-0.042634	0.955356
C179	C	0.693062	-0.542961	0.579095
C180	C	1.193062	-0.042961	1.079095
C181	C	0.161524	0.013463	0.480164
C182	C	0.661524	0.513463	0.980164
C183	C	0.037807	0.013324	0.480547
C184	C	0.537807	0.513324	0.980547
C185	C	-0.035683	0.013341	0.628188
C186	C	0.464317	0.513341	1.128188
C187	C	0.088076	0.013357	0.627845
C188	C	0.588076	0.513357	1.127845
C189	C	-0.010764	-0.518114	1.184196
C190	C	0.489236	-0.018114	1.684196
C191	C	-0.010426	-0.641846	1.184125
C192	C	0.489574	-0.141846	1.684125
C193	C	0.137205	-0.715426	1.184182
C194	C	0.637205	-0.215426	1.684182
C195	C	0.136875	-0.591687	1.184231
C196	C	0.636875	-0.091687	1.684231
H197	H	0.103160	-0.437777	0.786243
H198	H	0.603160	0.062223	1.286243
C199	C	0.025840	-0.456833	0.431341
C200	C	0.525840	0.043167	0.931341
H201	H	0.060373	-0.456674	0.396625
H202	H	0.560373	0.043326	0.896625
H203	H	-0.006718	-0.449585	0.422026
H204	H	0.493282	0.050415	0.922026
H205	H	0.016388	-0.426488	0.445081
H206	H	0.516388	0.073512	0.945081
C207	C	-0.096806	0.013342	0.677399
C208	C	0.403194	0.513342	1.177399
H209	H	-0.121899	0.013339	0.662983
H210	H	0.378101	0.513339	1.162983
H211	H	-0.091564	-0.021280	0.711326
H212	H	0.408436	0.478720	1.211326
H213	H	-0.114668	0.047976	0.688238
H214	H	0.385332	0.547976	1.188238
H215	H	0.206679	0.013739	0.443646
H216	H	0.706679	0.513739	0.943646
C217	C	-0.059418	-0.654024	1.184039
C218	C	0.440582	-0.154024	1.684039
H219	H	-0.094160	-0.619504	1.184030
H220	H	0.405840	-0.119504	1.684030
H221	H	-0.045602	-0.663490	1.149397
H222	H	0.454398	-0.163490	1.649397
H223	H	-0.068725	-0.686589	1.218649
H224	H	0.431275	-0.186589	1.718649
H225	H	0.173631	-0.760687	1.184171
H226	H	0.673631	-0.260687	1.684171
C227	C	0.692907	-0.493410	0.394238
C228	C	1.192907	0.006590	0.894238
H229	H	0.692880	-0.458745	0.394192
H230	H	1.192880	0.041255	0.894192
H231	H	0.727517	-0.507076	0.363844
H232	H	1.227517	-0.007076	0.863844
H233	H	0.658267	-0.484035	0.386978
H234	H	1.158267	0.015965	0.886978
C235	C	0.025574	0.013309	0.431541
C236	C	0.525574	0.513309	0.931541
H237	H	-0.013955	0.013301	0.446136
H238	H	0.486045	0.513301	0.946136
H239	H	0.030013	0.047931	0.397584
H240	H	0.530013	0.547931	0.897584
H241	H	0.053116	-0.021325	0.420678
H242	H	0.553116	0.478675	0.920678
C243	C	0.693261	-0.739861	0.713718
C244	C	1.193261	-0.239861	1.213718
H245	H	0.693278	-0.774523	0.713767
H246	H	1.193278	-0.274523	1.213767
H247	H	0.727892	-0.749238	0.720989
H248	H	1.227892	-0.249238	1.220989
H249	H	0.658642	-0.726188	0.744106
H250	H	1.158642	-0.226188	1.244106
H251	H	0.097136	0.013366	0.664120
H252	H	0.597136	0.513366	1.164120
C253	C	-0.059971	-0.456970	1.184200
C254	C	0.440029	0.043030	1.684200
H255	H	-0.045555	-0.431893	1.184222
H256	H	0.454445	0.068107	1.684222
H257	H	-0.070818	-0.439101	1.149570
H258	H	0.429182	0.060899	1.649570
H259	H	-0.093895	-0.462196	1.218823
H260	H	0.406105	0.037804	1.718823
C261	C	0.185888	-0.579483	1.184247
C262	C	0.685888	-0.079483	1.684247
H263	H	0.171301	-0.539947	1.184251
H264	H	0.671301	-0.039947	1.684251
H265	H	0.196766	-0.607027	1.218872
H266	H	0.696766	-0.107027	1.718872
H267	H	0.219836	-0.583936	1.149619
H268	H	0.719836	-0.083936	1.649619
C269	C	0.286176	-0.374920	0.649278
C270	C	0.786176	0.125080	1.149278
H271	H	0.244482	-0.368257	0.665942
H272	H	0.744482	0.131743	1.165942
H273	H	0.296430	-0.361991	0.668160
H274	H	0.796430	0.138009	1.168160
H275	H	0.296401	-0.353132	0.607715
H276	H	0.796401	0.146868	1.107715
H277	H	0.096930	-0.760753	0.664356
H278	H	0.596930	-0.260753	1.164356
C279	C	0.222780	-0.653647	0.431208
C280	C	0.722780	-0.153647	0.931208
H281	H	0.247827	-0.693165	0.445694
H282	H	0.747827	-0.193165	0.945694
H283	H	0.217572	-0.649158	0.397282
H284	H	0.717572	-0.149158	0.897282
H285	H	0.240676	-0.626060	0.420338
H286	H	0.740676	-0.126060	0.920338
C287	C	0.693041	-0.493936	0.591320
C288	C	1.193041	0.006064	1.091320
H289	H	0.693071	-0.508528	0.630849
H290	H	1.193071	-0.008528	1.130849
H291	H	0.727639	-0.483039	0.563767
H292	H	1.227639	0.016961	1.063767
H293	H	0.658388	-0.459997	0.586896
H294	H	1.158388	0.040003	1.086896
H295	H	0.065433	-0.475593	0.899616
H296	H	0.565433	0.024407	1.399616
H297	H	0.250633	-0.568176	0.899553
H298	H	0.750633	-0.068176	1.399553
H299	H	0.288361	-0.530376	0.786177
H300	H	0.788361	-0.030376	1.286177
C301	C	-0.096865	-0.579835	0.677245
C302	C	0.403135	-0.079835	1.177245
H303	H	-0.096971	-0.614399	0.711937
H304	H	0.403029	-0.114399	1.211937
H305	H	-0.104130	-0.547290	0.686587
H306	H	0.395870	-0.047290	1.186587
H307	H	-0.127226	-0.570393	0.663529
H308	H	0.372774	-0.070393	1.163529
H309	H	0.065328	-0.475552	0.695316
H310	H	0.565328	0.024448	1.195316
C311	C	0.262072	-0.578470	0.592509
C312	C	0.762072	-0.078470	1.092509
H313	H	0.240862	-0.588740	0.582291
H314	H	0.740862	-0.088740	1.082291
H315	H	0.286482	-0.557327	0.557154
H316	H	0.786482	-0.057327	1.057154
H317	H	0.286422	-0.613799	0.613769
H318	H	0.786422	-0.113799	1.113769
C319	C	0.305838	-0.534647	0.636168
C320	C	0.805838	-0.034647	1.136168
H321	H	0.327037	-0.559026	0.611778
H322	H	0.827037	-0.059026	1.111778
H323	H	0.316066	-0.499304	0.614969
H324	H	0.816066	0.000696	1.114969
H325	H	0.316109	-0.555861	0.671500
H326	H	0.816109	-0.055861	1.171500
H327	H	0.103135	-0.437780	0.733124
H328	H	0.603135	0.062220	1.233124
H329	H	0.408519	-0.613593	0.683941
H330	H	0.908519	-0.113593	1.183941
C331	C	0.286217	-0.587263	0.730252
C332	C	0.786217	-0.087263	1.230252
H333	H	0.313784	-0.626561	0.732535
H334	H	0.813784	-0.126561	1.232535
H335	H	0.261853	-0.585670	0.769408
H336	H	0.761853	-0.085670	1.269408
H337	H	0.261823	-0.576803	0.708960
H338	H	0.761823	-0.076803	1.208960
H339	H	0.408481	-0.430137	0.613993
H340	H	0.908481	0.069863	1.113993
H341	H	0.241946	-0.384640	0.594232
H342	H	0.741946	0.115360	1.094232
H343	H	0.111630	-0.271286	0.741644
H344	H	0.611630	0.228714	1.241644
C345	C	0.208418	-0.262318	0.538911
C346	C	0.708418	0.237682	1.038911
H347	H	0.190852	-0.220621	0.532331
H348	H	0.690852	0.279379	1.032331
H349	H	0.250582	-0.272557	0.521346
H350	H	0.750582	0.227443	1.021346
H351	H	0.194031	-0.272556	0.521361
H352	H	0.694031	0.227444	1.021361
C353	C	0.145149	-0.393611	0.796964
C354	C	0.645149	0.106389	1.296964
H355	H	0.162709	-0.435308	0.803544
H356	H	0.662709	0.064692	1.303544
H357	H	0.159528	-0.383373	0.814519
H358	H	0.659528	0.116627	1.314519
H359	H	0.102982	-0.383372	0.814524
H360	H	0.602982	0.116628	1.314524
C361	C	0.693141	-0.739340	0.516631
C362	C	1.193141	-0.239340	1.016631
H363	H	0.693102	-0.724745	0.477106
H364	H	1.193102	-0.224745	0.977106
H365	H	0.727786	-0.773281	0.521060
H366	H	1.227786	-0.273281	1.021060
H367	H	0.658536	-0.750230	0.544184
H368	H	1.158536	-0.250230	1.044184
