data_functionalizedCrystal
_audit_creation_method	'MofGen! by Chris Wilmer'
_symmetry_space_group_name_H-M	'P1'
_symmetry_Int_Tables_number	1
_symmetry_cell_setting	triclinic
loop_
_symmetry_equiv_pos_as_xyz
  x,y,z
_cell_length_a	19.188930
_cell_length_b	16.992695
_cell_length_c	15.455313
_cell_angle_alpha	92.847427
_cell_angle_beta	92.686066
_cell_angle_gamma	93.093499
loop_
_atom_site_label
_atom_site_type_symbol
_atom_site_fract_x
_atom_site_fract_y
_atom_site_fract_z
O1	O	0.934752	-0.094420	0.072413
O2	O	1.434752	0.405580	0.572413
O3	O	0.732209	-0.107598	0.072354
O4	O	1.232209	0.392402	0.572354
O5	O	0.832668	0.013131	0.072377
O6	O	1.332668	0.513131	0.572377
O7	O	0.834293	-0.215148	0.072391
O8	O	1.334293	0.284852	0.572391
O9	O	0.826922	0.006255	-0.071887
O10	O	1.326922	0.506255	0.428113
O11	O	0.726463	-0.114473	-0.071909
O12	O	1.226463	0.385527	0.428091
O13	O	0.929005	-0.101295	-0.071850
O14	O	1.429005	0.398705	0.428150
Cu15	Cu	0.827209	-0.108512	-0.085052
Cu16	Cu	1.327209	0.391488	0.414948
Cu17	Cu	0.834005	-0.100381	0.085556
Cu18	Cu	1.334005	0.399619	0.585556
O19	O	0.828546	-0.222024	-0.071873
O20	O	1.328546	0.277976	0.428127
C21	C	0.703300	-0.110609	0.000215
C22	C	1.203300	0.389391	0.500215
C23	C	0.625719	-0.109329	0.000192
C24	C	1.125719	0.390671	0.500192
C25	C	0.827706	0.038899	0.000244
C26	C	1.327706	0.538899	0.500244
C27	C	0.821473	0.125921	0.000243
C28	C	1.321473	0.625921	0.500243
N29	N	0.822435	-0.114230	-0.205049
N30	N	1.322435	0.385770	0.294951
C31	C	0.584941	-0.180168	0.000210
C32	C	1.084941	0.319832	0.500210
C33	C	0.512047	-0.178964	0.000219
C34	C	1.012047	0.321036	0.500219
C35	C	0.479935	-0.106917	0.000228
C36	C	0.979935	0.393083	0.500228
C37	C	0.520722	-0.036070	0.000205
C38	C	1.020722	0.463930	0.500205
C39	C	0.593614	-0.037276	0.000187
C40	C	1.093614	0.462724	0.500187
N41	N	0.370689	-0.049505	0.049359
N42	N	0.870689	0.450495	0.549359
N43	N	0.301445	-0.048364	0.049378
N44	N	0.801445	0.451636	0.549378
C45	C	0.260316	-0.103279	0.000281
C46	C	0.760316	0.396721	0.500281
N47	N	0.291047	-0.159389	-0.048825
N48	N	0.791047	0.340611	0.451175
N49	N	0.360298	-0.160532	-0.048840
N50	N	0.860298	0.339468	0.451160
C51	C	0.400897	-0.105601	0.000247
C52	C	0.900897	0.394399	0.500247
C53	C	0.140498	-0.172817	0.000308
C54	C	0.640498	0.327183	0.500308
C55	C	0.067603	-0.171610	0.000312
C56	C	0.567603	0.328390	0.500312
C57	C	0.076279	-0.028714	0.000307
C58	C	0.576279	0.471286	0.500307
C59	C	0.149173	-0.029923	0.000294
C60	C	0.649173	0.470077	0.500294
C61	C	0.181278	-0.101976	0.000299
C62	C	0.681278	0.398024	0.500299
C63	C	0.957915	-0.098284	0.000291
C64	C	1.457915	0.401716	0.500291
C65	C	1.035495	-0.099563	0.000320
C66	C	1.535495	0.400437	0.500320
C67	C	0.833508	-0.247791	0.000261
C68	C	1.333508	0.252209	0.500261
C69	C	0.839742	-0.334814	0.000269
C70	C	1.339742	0.165186	0.500269
C71	C	0.881613	0.176369	0.000259
C72	C	1.381613	0.676369	0.500259
C73	C	0.875753	0.258136	0.000266
C74	C	1.375753	0.758136	0.500266
C75	C	0.809751	0.289453	0.000250
C76	C	1.309751	0.789453	0.500250
C77	C	0.749607	0.238999	0.000235
C78	C	1.249607	0.738999	0.500235
C79	C	0.755468	0.157234	0.000235
C80	C	1.255468	0.657234	0.500235
C81	C	0.785458	0.532968	0.000254
C82	C	1.285458	1.032968	0.500254
C83	C	0.779602	0.614739	0.000252
C84	C	1.279602	1.114739	0.500252
C85	C	0.905748	0.633870	0.000284
C86	C	1.405748	1.133870	0.500284
C87	C	0.911604	0.552102	0.000279
C88	C	1.411604	1.052102	0.500279
C89	C	0.851459	0.501656	0.000269
C90	C	1.351459	1.001656	0.500269
N91	N	0.803759	0.373031	0.000253
N92	N	1.303759	0.873031	0.500253
N93	N	0.857452	0.418079	0.000271
N94	N	1.357452	0.918079	0.500271
C95	C	0.865130	-0.062959	-0.250433
C96	C	1.365130	0.437041	0.249567
C97	C	0.861526	-0.067291	-0.341242
C98	C	1.361526	0.432709	0.158758
C99	C	0.815230	-0.122898	-0.386664
C100	C	1.315230	0.377102	0.113336
C101	C	0.772530	-0.174172	-0.341274
C102	C	1.272530	0.325828	0.158726
C103	C	0.776131	-0.169835	-0.250467
C104	C	1.276131	0.330165	0.249533
C105	C	0.799686	-0.141593	-0.658249
C106	C	1.299686	0.358407	-0.158249
C107	C	0.796089	-0.145927	-0.749063
C108	C	1.296089	0.354073	-0.249063
C109	C	0.885085	-0.039045	-0.749025
C110	C	1.385085	0.460955	-0.249025
C111	C	0.888685	-0.034717	-0.658216
C112	C	1.388685	0.465283	-0.158216
C113	C	0.845982	-0.085988	-0.612833
C114	C	1.345982	0.414012	-0.112833
N115	N	0.811546	-0.127329	-0.479486
N116	N	1.311546	0.372671	0.020514
N117	N	0.849663	-0.081553	-0.520014
N118	N	1.349663	0.418447	-0.020014
N119	N	0.838785	-0.094656	0.205553
N120	N	1.338785	0.405344	0.705553
H121	H	0.611076	-0.238839	0.000215
H122	H	1.111076	0.261161	0.500215
H123	H	0.902833	-0.017681	-0.213456
H124	H	1.402833	0.482319	0.286544
Br125	Br	0.943035	0.030534	-0.810619
Br126	Br	1.443035	0.530534	-0.310619
H127	H	0.182375	0.027762	0.000284
H128	H	0.682375	0.527762	0.500284
Br129	Br	0.971190	0.133875	0.000269
Br130	Br	1.471190	0.633875	0.500269
Br131	Br	0.673846	0.088768	0.000220
Br132	Br	1.173846	0.588768	0.500220
Br133	Br	0.012258	-0.267757	0.000329
Br134	Br	0.512258	0.232243	0.500329
H135	H	0.734830	-0.219446	-0.378262
H136	H	1.234830	0.280554	0.121738
H137	H	0.896292	-0.025542	-0.378194
H138	H	1.396292	0.474458	0.121806
H139	H	0.478839	-0.236651	0.000232
H140	H	0.978839	0.263349	0.500232
Br141	Br	0.703833	0.464515	0.000247
Br142	Br	1.203833	0.964515	0.500247
Br143	Br	0.660032	0.281501	0.000228
Br144	Br	1.160032	0.781501	0.500228
Br145	Br	0.032706	0.069065	0.000304
Br146	Br	0.532706	0.569065	0.500304
Br147	Br	0.733256	-0.221404	-0.810702
Br148	Br	1.233256	0.278596	-0.310702
Br149	Br	0.741735	-0.211174	-0.596663
Br150	Br	1.241735	0.288826	-0.096663
Br151	Br	0.951519	0.040747	-0.596570
Br152	Br	1.451519	0.540747	-0.096570
Br153	Br	0.957376	0.326598	0.000289
Br154	Br	1.457376	0.826598	0.500289
H155	H	0.741362	-0.211585	-0.213515
H156	H	1.241362	0.288415	0.286485
Br157	Br	1.001181	0.509607	0.000329
Br158	Br	1.501181	1.009607	0.500329
Br159	Br	0.184073	-0.270601	0.000308
Br160	Br	0.684073	0.229399	0.500308
Br161	Br	0.477143	0.061708	0.000208
Br162	Br	0.977143	0.561708	0.500208
H163	H	0.954714	0.674952	0.000293
H164	H	1.454714	1.174952	0.500293
Br165	Br	0.690022	0.657240	0.000221
Br166	Br	1.190022	1.157240	0.500221
H167	H	0.626816	0.020411	0.000173
H168	H	1.126816	0.520411	0.500173
