data_functionalizedCrystal
_audit_creation_method	'MofGen! by Chris Wilmer'
_symmetry_space_group_name_H-M	'P1'
_symmetry_Int_Tables_number	1
_symmetry_cell_setting	triclinic
loop_
_symmetry_equiv_pos_as_xyz
  x,y,z
_cell_length_a	11.169417
_cell_length_b	19.120786
_cell_length_c	11.169409
_cell_angle_alpha	92.479283
_cell_angle_beta	90.019824
_cell_angle_gamma	92.466141
loop_
_atom_site_label
_atom_site_type_symbol
_atom_site_fract_x
_atom_site_fract_y
_atom_site_fract_z
Zn1	Zn	1.814456	-0.279559	0.658103
Zn2	Zn	2.314456	0.220441	1.158103
Zn3	Zn	1.805728	-0.397041	0.448830
Zn4	Zn	2.305728	0.102959	0.948830
Zn5	Zn	1.613739	-0.279602	0.457434
Zn6	Zn	2.113739	0.220398	0.957434
Zn7	Zn	1.605136	-0.396983	0.649479
Zn8	Zn	2.105136	0.103017	1.149479
O9	O	1.709765	-0.338296	0.553462
O10	O	2.209765	0.161704	1.053462
O11	O	1.981248	-0.295149	0.630351
O12	O	2.481248	0.204851	1.130351
O13	O	1.780208	-0.381504	0.282019
O14	O	2.280208	0.118496	0.782019
O15	O	1.647618	-0.181305	0.491263
O16	O	2.147618	0.318695	0.991263
O17	O	1.974835	-0.381462	0.476599
O18	O	2.474835	0.118538	0.976599
O19	O	1.795084	-0.181274	0.638694
O20	O	2.295084	0.318726	1.138694
O21	O	1.639154	-0.295222	0.288340
O22	O	2.139154	0.204778	0.788340
O23	O	1.444649	-0.295167	0.482901
O24	O	1.944649	0.204833	0.982901
O25	O	1.632956	-0.381365	0.818576
O26	O	2.132956	0.118635	1.318576
O27	O	1.438328	-0.381407	0.623996
O28	O	1.938328	0.118593	1.123996
O29	O	1.786742	-0.295094	0.824912
O30	O	2.286742	0.204906	1.324912
O31	O	1.771866	-0.495324	0.468237
O32	O	2.271866	0.004676	0.968237
O33	O	1.624492	-0.495282	0.615653
O34	O	2.124492	0.004718	1.115653
C35	C	1.397941	-0.338286	0.553447
C36	C	1.897941	0.161714	1.053447
C37	C	1.264540	-0.338298	0.553468
C38	C	1.764540	0.161702	1.053468
C39	C	1.696331	-0.520789	0.540102
C40	C	2.196331	-0.020789	1.040102
C41	C	1.690694	-0.598860	0.534427
C42	C	2.190694	-0.098860	1.034427
C43	C	1.764766	-0.635461	0.608582
C44	C	2.264766	-0.135461	1.108582
C45	C	1.759465	-0.708817	0.603251
C46	C	2.259465	-0.208817	1.103251
C47	C	1.680096	-0.745571	0.523759
C48	C	2.180096	-0.245571	1.023759
C49	C	1.606016	-0.708965	0.449601
C50	C	2.106016	-0.208965	0.949601
C51	C	1.611312	-0.635610	0.454938
C52	C	2.111312	-0.135610	0.954938
C53	C	1.660261	-0.967059	0.503806
C54	C	2.160261	-0.467059	1.003806
C55	C	1.654973	-1.040419	0.498471
C56	C	2.154973	-0.540419	0.998471
C57	C	1.808420	-1.040266	0.652125
C58	C	2.308420	-0.540266	1.152125
C59	C	1.813715	-0.966910	0.657450
C60	C	2.313715	-0.466910	1.157450
C61	C	1.739630	-0.930310	0.583296
C62	C	2.239630	-0.430310	1.083296
C63	C	1.674678	-0.820553	0.518306
C64	C	2.174678	-0.320553	1.018306
C65	C	1.745043	-0.855330	0.588756
C66	C	2.245043	-0.355330	1.088756
C67	C	2.022806	-0.338307	0.553477
C68	C	2.522806	0.161693	1.053477
C69	C	2.156206	-0.338312	0.553484
C70	C	2.656206	0.161688	1.053484
C71	C	1.709863	-0.338218	0.866510
C72	C	2.209863	0.161782	1.366510
C73	C	1.709904	-0.338185	0.999913
C74	C	2.209904	0.161815	1.499913
C75	C	1.723284	-0.155091	0.566900
C76	C	2.223284	0.344909	1.066900
C77	C	1.729045	-0.077020	0.572627
C78	C	2.229045	0.422980	1.072627
C79	C	1.709740	-0.338323	0.241635
C80	C	2.209740	0.161677	0.741635
C81	C	1.709945	-0.338159	0.108248
C82	C	2.209945	0.161841	0.608248
H83	H	1.819791	-0.738615	0.663627
H84	H	2.319791	-0.238615	1.163627
C85	C	1.518707	-0.749388	0.362162
C86	C	2.018707	-0.249388	0.862162
H87	H	1.475342	-0.717082	0.318771
H88	H	1.975342	-0.217082	0.818771
H89	H	1.562574	-0.778005	0.307825
H90	H	2.062574	-0.278005	0.807825
H91	H	1.464320	-0.778009	0.405955
H92	H	1.964320	-0.278009	0.905955
C93	C	1.578787	-0.926808	0.422224
C94	C	2.078787	-0.426808	0.922224
H95	H	1.530774	-0.959205	0.374107
H96	H	2.030774	-0.459205	0.874107
H97	H	1.528529	-0.898196	0.470159
H98	H	2.028529	-0.398196	0.970159
H99	H	1.626803	-0.898195	0.372049
H100	H	2.126803	-0.398195	0.872049
C101	C	1.889895	-1.080527	0.733696
C102	C	2.389895	-0.580527	1.233696
H103	H	1.875369	-1.129479	0.719144
H104	H	2.375369	-0.629479	1.219144
H105	H	1.971414	-1.068473	0.717085
H106	H	2.471414	-0.568473	1.217085
H107	H	1.873145	-1.068476	0.815200
H108	H	2.373145	-0.568476	1.315200
C109	C	1.852072	-0.595035	0.696021
C110	C	2.352072	-0.095035	1.196021
H111	H	1.844628	-0.546105	0.688574
H112	H	2.344628	-0.046105	1.188574
H113	H	1.833601	-0.607030	0.775772
H114	H	2.333601	-0.107030	1.275772
H115	H	1.931858	-0.607025	0.677645
H116	H	2.431858	-0.107025	1.177645
C117	C	1.529835	-0.595348	0.373366
C118	C	2.029835	-0.095348	0.873366
H119	H	1.481814	-0.627742	0.325251
H120	H	1.981814	-0.127742	0.825251
H121	H	1.479585	-0.566739	0.421315
H122	H	1.979585	-0.066739	0.921315
H123	H	1.577843	-0.566733	0.323189
H124	H	2.077843	-0.066733	0.823189
C125	C	1.567669	-1.080850	0.411025
C126	C	2.067669	-0.580850	0.911025
H127	H	1.575141	-1.129779	0.418457
H128	H	2.075141	-0.629779	0.918457
H129	H	1.487882	-1.068868	0.429387
H130	H	1.987882	-0.568868	0.929387
H131	H	1.586150	-1.068853	0.331270
H132	H	2.086150	-0.568853	0.831270
C133	C	1.832332	-0.814907	0.676208
C134	C	2.332332	-0.314907	1.176208
H135	H	1.875685	-0.847208	0.719621
H136	H	2.375685	-0.347208	1.219621
H137	H	1.886711	-0.786279	0.632433
H138	H	2.386711	-0.286279	1.132433
H139	H	1.788438	-0.786297	0.730543
H140	H	2.288438	-0.286297	1.230543
C141	C	1.901039	-0.926486	0.744872
C142	C	2.401039	-0.426486	1.244872
H143	H	1.944397	-0.958791	0.788274
H144	H	2.444397	-0.458791	1.288274
H145	H	1.955413	-0.897871	0.701066
H146	H	2.455413	-0.397871	1.201066
H147	H	1.857182	-0.897864	0.799220
H148	H	2.357182	-0.397864	1.299220
H149	H	1.610059	-0.850486	0.453579
H150	H	2.110059	-0.350486	0.953579
