data_functionalizedCrystal
_audit_creation_method	'MofGen! by Chris Wilmer'
_symmetry_space_group_name_H-M	'P1'
_symmetry_Int_Tables_number	1
_symmetry_cell_setting	triclinic
loop_
_symmetry_equiv_pos_as_xyz
  x,y,z
_cell_length_a	17.019282
_cell_length_b	16.974959
_cell_length_c	16.053802
_cell_angle_alpha	96.208439
_cell_angle_beta	91.298425
_cell_angle_gamma	83.147838
loop_
_atom_site_label
_atom_site_type_symbol
_atom_site_fract_x
_atom_site_fract_y
_atom_site_fract_z
O1	O	1.045972	0.101283	0.012635
O2	O	0.817045	0.113389	-0.003015
O3	O	0.938254	-0.008121	-0.002490
O4	O	0.924763	0.222794	0.012110
O5	O	0.931582	-0.001461	0.136338
O6	O	0.810373	0.120050	0.135813
O7	O	1.039301	0.107944	0.151463
Zn8	Zn	0.923778	0.115055	0.165680
Zn9	Zn	0.932568	0.106279	-0.017232
O10	O	0.918092	0.229455	0.150938
C11	C	0.934526	-0.034345	0.064901
C12	C	0.933348	-0.122407	0.058873
C13	C	0.784423	0.116131	0.064252
C14	C	0.697161	0.114368	0.057857
C15	C	0.927184	-0.618503	0.016732
C16	C	0.928282	-0.535758	0.022413
C17	C	0.925189	-0.490770	0.100928
C18	C	0.921004	-0.528533	0.173768
C19	C	0.919912	-0.611277	0.168087
C20	C	0.928071	-0.242914	0.126032
C21	C	0.929162	-0.160164	0.131707
C22	C	0.936441	-0.167395	-0.019648
C23	C	0.935344	-0.250140	-0.025322
C24	C	0.931164	-0.287896	0.047518
N25	N	0.926309	-0.406191	0.106736
N26	N	0.930049	-0.372474	0.041710
C27	C	0.652533	0.117169	0.130529
C28	C	0.570543	0.115499	0.124521
C29	C	0.533181	0.111035	0.045841
C30	C	0.577816	0.108232	-0.026837
C31	C	0.659805	0.109896	-0.020829
C32	C	0.285808	0.105826	0.023913
C33	C	0.203812	0.104165	0.017911
C34	C	0.196546	0.111430	0.169270
C35	C	0.278537	0.113098	0.175272
C36	C	0.323164	0.110291	0.102593
C37	C	0.449374	0.109332	0.039698
C38	C	0.406971	0.111989	0.108736
C39	C	1.071922	0.105202	0.084193
C40	C	1.159185	0.106965	0.090583
C41	C	0.921820	0.255679	0.083545
C42	C	0.922998	0.343740	0.089567
N43	N	0.917785	0.121043	0.290513
N44	N	0.938567	0.100284	-0.142065
C45	C	0.969378	0.069359	0.334433
C46	C	0.965193	0.073556	0.421821
C47	C	0.909418	0.129441	0.465289
C48	C	0.857819	0.181128	0.421363
C49	C	0.862001	0.176927	0.333975
C50	C	0.891150	0.147770	0.726621
C51	C	0.886974	0.151969	0.814015
C52	C	0.994347	0.044394	0.814467
C53	C	0.998528	0.040201	0.727078
C54	C	0.946926	0.091885	0.683159
N55	N	0.905140	0.133734	0.554615
N56	N	0.951200	0.087588	0.593835
H57	H	0.929696	-0.655126	-0.047204
H58	H	0.812402	0.226629	0.456759
H59	H	0.924669	-0.273645	0.185344
N60	N	0.932561	-0.497204	-0.051994
N61	N	0.935319	-0.537379	-0.122092
H62	H	0.938341	-0.510152	-0.174647
H63	H	1.014799	0.023854	0.299047
N64	N	0.926018	-0.114198	0.211908
N65	N	0.926994	-0.040321	0.216964
H66	H	0.924774	-0.007856	0.273602
H67	H	1.007203	0.031469	0.457580
N68	N	0.917849	-0.482597	0.253978
N69	N	0.970697	-0.496597	0.307520
H70	H	0.968467	-0.464157	0.364172
H71	H	0.916502	-0.642018	0.227397
N72	N	0.690679	0.121747	0.210908
N73	N	0.650818	0.124253	0.275788
H74	H	0.677755	0.127489	0.332559
N75	N	0.524970	0.118354	0.198763
N76	N	0.558338	0.122342	0.269008
H77	H	0.526152	0.124357	0.321445
N78	N	0.445147	0.116560	0.189096
N79	N	0.482603	0.174163	0.212543
H80	H	0.509573	0.177396	0.269296
N81	N	0.838464	0.200571	0.681755
N82	N	0.842203	0.196821	0.603732
H83	H	0.804994	0.234117	0.572041
H84	H	0.937868	-0.286764	-0.089258
H85	H	0.939845	-0.136645	-0.078951
N86	N	0.316688	0.117638	0.255648
N87	N	0.276834	0.120122	0.320528
H88	H	0.303779	0.123321	0.377296
N89	N	0.705383	0.107027	-0.095071
N90	N	0.672018	0.103039	-0.165317
H91	H	0.704207	0.101009	-0.217754
N92	N	0.150948	0.114299	0.243496
N93	N	0.077744	0.112815	0.238125
H94	H	0.045539	0.114839	0.290550
H95	H	1.043944	-0.005305	0.691688
H96	H	1.036358	0.002315	0.850234
N97	N	0.165660	0.099603	-0.062471
N98	N	0.205514	0.097094	-0.127355
H99	H	0.178569	0.093873	-0.184123
H100	H	0.322135	0.103537	-0.035267
N101	N	0.539643	0.103664	-0.107202
N102	N	0.466438	0.102179	-0.112558
H103	H	0.439479	0.098954	-0.169317
N104	N	0.411208	0.104762	-0.040670
N105	N	0.373756	0.047158	-0.064132
H106	H	0.346799	0.043928	-0.120892
H107	H	0.841553	0.197481	0.849402
N108	N	0.809290	0.229724	0.289122
N109	N	0.759494	0.279619	0.327939
H110	H	0.722262	0.316907	0.296263
