data_functionalizedCrystal
_audit_creation_method	'MofGen! by Chris Wilmer'
_symmetry_space_group_name_H-M	'P1'
_symmetry_Int_Tables_number	1
_symmetry_cell_setting	triclinic
loop_
_symmetry_equiv_pos_as_xyz
  x,y,z
_cell_length_a	16.959455
_cell_length_b	13.897441
_cell_length_c	16.959454
_cell_angle_alpha	89.973005
_cell_angle_beta	90.017095
_cell_angle_gamma	89.975321
loop_
_atom_site_label
_atom_site_type_symbol
_atom_site_fract_x
_atom_site_fract_y
_atom_site_fract_z
Zn1	Zn	1.208417	-0.545555	-0.314727
Zn2	Zn	1.208330	-0.384264	-0.446920
Zn3	Zn	1.076236	-0.384257	-0.314752
Zn4	Zn	1.076211	-0.545500	-0.446860
O5	O	1.142298	-0.464894	-0.380815
O6	O	1.319017	-0.524186	-0.332277
O7	O	1.190781	-0.249281	-0.429423
O8	O	1.093817	-0.405673	-0.204138
O9	O	1.318952	-0.405686	-0.429398
O10	O	1.190930	-0.524179	-0.204119
O11	O	1.093733	-0.249276	-0.332320
O12	O	0.965622	-0.405619	-0.332262
O13	O	1.093774	-0.680489	-0.429297
O14	O	0.965603	-0.524084	-0.429322
O15	O	1.190906	-0.680530	-0.332219
O16	O	1.190757	-0.405632	-0.557523
O17	O	1.093689	-0.524091	-0.557479
C18	C	0.936932	-0.464845	-0.380789
C19	C	0.849076	-0.464847	-0.380797
C20	C	0.477556	-0.403160	-0.431336
C21	C	0.477644	-0.526746	-0.330359
C22	C	0.560190	-0.526722	-0.330346
C23	C	0.601423	-0.464918	-0.380830
C24	C	0.560109	-0.403136	-0.431326
C25	C	0.601509	-0.588509	-0.279856
C26	C	0.684060	-0.588489	-0.279842
C27	C	0.725294	-0.526679	-0.330322
C28	C	0.683976	-0.464894	-0.380820
C29	C	0.725209	-0.403089	-0.431303
C30	C	0.683892	-0.341299	-0.481798
C31	C	0.601344	-0.341326	-0.481806
C32	C	0.807843	-0.526652	-0.330314
C33	C	0.807762	-0.403066	-0.431293
C34	C	1.142347	-0.716487	-0.380748
C35	C	1.142367	-0.823701	-0.380720
C36	C	1.142384	-0.910771	-0.380698
C37	C	1.142406	-1.020003	-0.380662
C38	C	1.348467	-0.464943	-0.380841
C39	C	1.436323	-0.464964	-0.380852
C40	C	1.142232	-0.464877	-0.586181
C41	C	1.142276	-0.464903	-0.674038
C42	C	1.142296	-0.214280	-0.380824
C43	C	1.142428	-0.107066	-0.380629
C44	C	1.091829	-0.526569	-1.045520
C45	C	1.192988	-0.403317	-1.045506
C46	C	1.192961	-0.403308	-0.962960
C47	C	1.142366	-0.464930	-0.921691
C48	C	1.091798	-0.526560	-0.962967
C49	C	1.243522	-0.341672	-0.921678
C50	C	1.243496	-0.341660	-0.839127
C51	C	1.192904	-0.403287	-0.797856
C52	C	1.142335	-0.464921	-0.839137
C53	C	1.091739	-0.526542	-0.797867
C54	C	1.041174	-0.588181	-0.839147
C55	C	1.041206	-0.588187	-0.921696
C56	C	1.192871	-0.403281	-0.715307
C57	C	1.091709	-0.526533	-0.715314
C58	C	1.142386	-0.464932	-0.174647
C59	C	1.142424	-0.464948	-0.086790
H60	H	0.841479	-0.576963	-0.289203
H61	H	1.050510	-0.576717	-0.681717
Br62	Br	0.863715	-0.319175	-0.499804
H63	H	0.567932	-0.638833	-0.238760
Br64	Br	0.740126	-0.672345	-0.211316
Br65	Br	1.261649	-0.319691	-1.101515
H66	H	1.050662	-0.576757	-1.079134
H67	H	1.284708	-0.291496	-0.955285
Br68	Br	0.972505	-0.671800	-0.783129
H69	H	1.284669	-0.291472	-0.805522
H70	H	0.717474	-0.290983	-0.522905
Br71	Br	0.545267	-0.257476	-0.550329
Br72	Br	0.421487	-0.319299	-0.499855
H73	H	0.444068	-0.577070	-0.289262
Br74	Br	0.972587	-0.671832	-0.977722
H75	H	1.234038	-0.353091	-0.681701
