data_functionalizedCrystal
_audit_creation_method	'MofGen! by Chris Wilmer'
_symmetry_space_group_name_H-M	'P1'
_symmetry_Int_Tables_number	1
_symmetry_cell_setting	triclinic
loop_
_symmetry_equiv_pos_as_xyz
  x,y,z
_cell_length_a	12.759401
_cell_length_b	12.645330
_cell_length_c	12.759393
_cell_angle_alpha	89.969952
_cell_angle_beta	89.981504
_cell_angle_gamma	90.017853
loop_
_atom_site_label
_atom_site_type_symbol
_atom_site_fract_x
_atom_site_fract_y
_atom_site_fract_z
Zn1	Zn	1.606234	-0.421972	-0.593992
Zn2	Zn	1.606119	-0.599276	-0.418317
Zn3	Zn	1.430536	-0.422028	-0.418332
Zn4	Zn	1.430515	-0.599195	-0.593959
O5	O	1.518351	-0.510618	-0.506150
O6	O	1.753239	-0.445503	-0.570697
O7	O	1.582788	-0.575821	-0.271298
O8	O	1.453899	-0.273673	-0.441654
O9	O	1.753155	-0.575767	-0.441629
O10	O	1.582983	-0.273632	-0.570711
O11	O	1.453788	-0.445598	-0.271309
O12	O	1.283512	-0.445518	-0.441621
O13	O	1.453864	-0.575628	-0.740984
O14	O	1.283497	-0.575682	-0.570653
O15	O	1.582964	-0.445424	-0.741009
O16	O	1.582768	-0.747613	-0.441596
O17	O	1.453753	-0.747553	-0.570639
C18	C	1.245383	-0.510598	-0.506136
C19	C	1.128607	-0.510615	-0.506155
C20	C	1.073764	-0.578500	-0.573231
C21	C	0.964040	-0.578514	-0.573242
C22	C	0.964011	-0.442755	-0.439092
C23	C	1.073733	-0.442737	-0.439087
C24	C	1.073781	-0.656883	-0.650678
C25	C	0.964056	-0.656896	-0.650689
C26	C	1.518274	-0.786048	-0.506135
C27	C	1.518337	-0.903878	-0.506164
C28	C	1.437509	-1.071448	-0.587595
C29	C	1.437095	-0.948888	-0.587334
C30	C	1.488364	-0.948482	-0.395443
C31	C	1.487871	-1.071080	-0.395937
C32	C	1.629634	-1.070964	-0.534556
C33	C	1.628952	-0.948357	-0.536977
C34	C	1.792384	-0.510638	-0.506165
C35	C	1.909161	-0.510647	-0.506171
C36	C	1.518424	-0.510511	-0.780183
C37	C	1.518456	-0.510465	-0.896960
C38	C	1.518456	-0.234112	-0.506188
C39	C	1.518501	-0.116282	-0.506204
C40	C	1.585687	-0.442661	-0.951837
C41	C	1.585712	-0.442623	-1.061561
C42	C	1.451271	-0.578202	-1.061522
C43	C	1.451242	-0.578234	-0.951800
C44	C	1.663309	-0.364389	-0.951860
C45	C	1.663334	-0.364351	-1.061584
C46	C	1.518338	-0.510648	-0.233183
C47	C	1.518510	-0.510395	-0.116407
H48	H	0.934257	-0.738980	-0.628759
H49	H	1.118381	-0.387451	-0.384474
O50	O	1.701753	-1.105420	-0.463908
C51	C	1.882721	-1.103553	-0.409990
C52	C	1.801163	-1.064428	-0.490061
H53	H	1.963116	-1.070446	-0.431119
H54	H	1.859766	-1.075609	-0.328211
H55	H	1.885666	-1.193645	-0.411402
H56	H	1.798177	-0.974340	-0.488743
H57	H	1.824150	-1.092453	-0.571802
H58	H	1.641544	-0.282291	-0.922102
O59	O	1.386039	-0.644181	-1.114679
C60	C	1.335016	-0.824493	-1.148256
C61	C	1.408940	-0.749888	-1.087977
H62	H	1.353520	-0.909973	-1.126706
H63	H	1.250285	-0.805963	-1.126658
H64	H	1.346564	-0.812768	-1.236100
H65	H	1.397486	-0.761571	-1.000120
H66	H	1.493644	-0.768436	-1.109662
O67	O	1.656048	-0.913746	-0.634213
C68	C	1.786040	-0.914793	-0.771248
C69	C	1.755494	-0.954061	-0.661115
H70	H	1.866453	-0.947353	-0.793023
H71	H	1.725552	-0.943200	-0.830652
H72	H	1.788753	-0.824680	-0.771571
H73	H	1.752793	-1.044170	-0.660690
H74	H	1.815991	-0.925574	-0.601758
H75	H	1.744703	-0.386340	-1.091363
H76	H	1.740579	-0.393821	-0.917825
O77	O	0.910541	-0.376929	-0.373971
C78	C	0.741496	-0.316750	-0.314564
C79	C	0.801915	-0.391365	-0.388355
H80	H	0.653662	-0.328379	-0.326183
H81	H	0.762957	-0.335269	-0.229793
H82	H	0.763153	-0.231298	-0.333139
H83	H	0.780292	-0.476841	-0.369874
H84	H	0.780449	-0.372754	-0.473103
O85	O	1.386068	-0.644144	-0.898382
C86	C	1.371812	-0.787351	-0.774525
C87	C	1.445745	-0.712757	-0.834933
H88	H	1.420032	-0.842858	-0.723229
H89	H	1.316902	-0.738742	-0.723096
H90	H	1.323761	-0.835726	-0.832596
H91	H	1.493865	-0.664365	-0.776937
H92	H	1.500586	-0.761426	-0.886378
H93	H	1.634224	-0.286344	-1.095630
O94	O	1.109176	-0.630697	-0.747837
C95	C	1.063431	-0.583143	-0.924909
C96	C	1.023203	-0.612760	-0.814925
H97	H	0.993943	-0.568654	-0.979186
H98	H	1.113038	-0.508325	-0.919793
H99	H	1.113107	-0.650603	-0.957190
H100	H	0.973485	-0.545369	-0.782579
H101	H	0.973654	-0.687610	-0.820107
O102	O	1.338762	-0.914183	-0.564856
C103	C	1.160496	-0.962177	-0.524397
C104	C	1.271818	-1.001623	-0.549828
H105	H	1.106336	-1.032852	-0.512262
H106	H	1.162479	-0.912405	-0.449951
H107	H	1.130246	-0.912058	-0.592235
H108	H	1.302136	-1.051785	-0.482056
H109	H	1.269770	-1.051338	-0.624309
H110	H	1.407972	-0.917873	-0.370989
H111	H	1.107791	-0.734832	-0.621395
H112	H	0.930060	-0.627590	-0.728040
O113	O	1.459419	-0.913076	-0.685349
C114	C	1.500556	-0.959066	-0.863931
C115	C	1.475275	-0.999760	-0.752976
H116	H	1.513405	-1.029129	-0.918633
H117	H	1.432438	-0.909238	-0.893974
H118	H	1.574622	-0.908692	-0.861307
H119	H	1.401240	-1.050178	-0.755512
H120	H	1.543453	-1.049531	-0.722977
H121	H	1.692473	-0.917711	-0.482013
O122	O	1.459476	-1.106567	-0.685892
C123	C	1.398430	-1.204157	-0.836119
C124	C	1.373408	-1.164423	-0.724811
H125	H	1.328870	-1.250960	-0.867609
H126	H	1.414417	-1.133735	-0.889616
H127	H	1.470574	-1.257254	-0.833502
H128	H	1.301253	-1.111344	-0.727328
H129	H	1.357487	-1.234893	-0.671359
H130	H	1.355635	-1.102351	-0.569052
O131	O	1.391024	-1.105375	-0.367120
C132	C	1.289383	-1.206382	-0.243257
C133	C	1.399122	-1.167602	-0.275755
H134	H	1.295897	-1.256718	-0.169398
H135	H	1.236712	-1.135416	-0.227148
H136	H	1.254304	-1.255783	-0.309224
H137	H	1.434294	-1.118220	-0.209829
H138	H	1.451720	-1.238614	-0.291899
O139	O	1.555187	-1.106298	-0.321041
C140	C	1.677618	-1.059225	-0.185076
C141	C	1.601408	-1.019204	-0.269846
H142	H	1.715026	-0.988830	-0.143676
H143	H	1.632953	-1.109219	-0.125582
H144	H	1.741353	-1.109266	-0.223271
H145	H	1.537657	-0.969119	-0.231743
H146	H	1.646147	-0.969266	-0.329330
H147	H	1.545485	-0.919329	-0.333143
H148	H	1.656976	-1.101800	-0.613922
