data_functionalizedCrystal
_audit_creation_method	'MofGen! by Chris Wilmer'
_symmetry_space_group_name_H-M	'P1'
_symmetry_Int_Tables_number	1
_symmetry_cell_setting	triclinic
loop_
_symmetry_equiv_pos_as_xyz
  x,y,z
_cell_length_a	14.519731
_cell_length_b	11.792241
_cell_length_c	10.868271
_cell_angle_alpha	90.003536
_cell_angle_beta	90.006559
_cell_angle_gamma	96.058865
loop_
_atom_site_label
_atom_site_type_symbol
_atom_site_fract_x
_atom_site_fract_y
_atom_site_fract_z
O1	O	0.126404	-1.506213	0.102206
O2	O	0.626404	-1.006213	0.602206
O3	O	0.139431	-1.175801	0.102235
O4	O	0.639431	-0.675801	0.602235
O5	O	-0.001287	-1.349755	0.102208
O6	O	0.498713	-0.849755	0.602208
O7	O	0.267123	-1.332260	0.102232
O8	O	0.767123	-0.832260	0.602232
O9	O	-0.001295	-1.349753	-0.102436
O10	O	0.498705	-0.849753	0.397564
O11	O	0.139424	-1.175799	-0.102410
O12	O	0.639424	-0.675799	0.397590
O13	O	0.126397	-1.506211	-0.102439
O14	O	0.626397	-1.006211	0.397561
Zn15	Zn	0.132909	-1.341005	-0.134916
Zn16	Zn	0.632909	-0.841005	0.365084
Zn17	Zn	0.132919	-1.341008	0.134712
Zn18	Zn	0.632919	-0.841008	0.634712
O19	O	0.267115	-1.332258	-0.102412
O20	O	0.767115	-0.832258	0.397588
C21	C	0.138609	-1.133514	-0.000084
C22	C	0.638609	-0.633514	0.499916
C23	C	0.136160	-1.007513	-0.000073
C24	C	0.636160	-0.507513	0.499927
N25	N	0.132919	-1.341010	0.318726
N26	N	0.632919	-0.841010	0.818726
C27	C	-0.035654	-1.348934	-0.000114
C28	C	0.464346	-0.848934	0.499886
C29	C	-0.138043	-1.346478	-0.000115
C30	C	0.361957	-0.846478	0.499885
C31	C	-0.221194	-1.344482	-0.000112
C32	C	0.278806	-0.844482	0.499888
C33	C	-0.325512	-1.341988	-0.000102
C34	C	0.174488	-0.841988	0.499898
C35	C	-0.408658	-1.340008	-0.000094
C36	C	0.091342	-0.840008	0.499906
C37	C	-0.512983	-1.337514	-0.000087
C38	C	-0.012983	-0.837514	0.499913
C39	C	0.301482	-1.333078	-0.000087
C40	C	0.801482	-0.833078	0.499913
C41	C	0.403871	-1.335535	-0.000079
C42	C	0.903871	-0.835535	0.499921
C43	C	0.127219	-1.548499	-0.000117
C44	C	0.627219	-1.048499	0.499883
C45	C	0.129668	-1.674499	-0.000120
C46	C	0.629668	-1.174499	0.499880
C47	C	0.131656	-0.776826	-0.000109
C48	C	0.631656	-0.276826	0.499891
C49	C	0.134159	-0.905197	-0.000089
C50	C	0.634159	-0.405197	0.499911
N51	N	0.132901	-1.341011	-0.318930
N52	N	0.632901	-0.841011	0.181070
C53	C	0.132913	-1.341007	0.569732
C54	C	0.632913	-0.841007	1.069732
C55	C	0.132920	-1.341005	0.430055
C56	C	0.632920	-0.841005	0.930055
