data_functionalizedCrystal
_audit_creation_method	'MofGen! by Chris Wilmer'
_symmetry_space_group_name_H-M	'P1'
_symmetry_Int_Tables_number	1
_symmetry_cell_setting	triclinic
loop_
_symmetry_equiv_pos_as_xyz
  x,y,z
_cell_length_a	23.532407
_cell_length_b	27.732048
_cell_length_c	22.010155
_cell_angle_alpha	89.999275
_cell_angle_beta	89.996931
_cell_angle_gamma	82.745667
loop_
_atom_site_label
_atom_site_type_symbol
_atom_site_fract_x
_atom_site_fract_y
_atom_site_fract_z
O1	O	0.755138	0.058672	-0.050456
O2	O	0.589257	0.067162	-0.050475
O3	O	0.677350	-0.007472	-0.050453
O4	O	0.667046	0.133306	-0.050477
O5	O	0.677334	-0.007461	0.050597
O6	O	0.589241	0.067173	0.050576
O7	O	0.755122	0.058683	0.050595
Cu8	Cu	0.672180	0.062929	0.059812
Cu9	Cu	0.672199	0.062916	-0.059692
O10	O	0.667030	0.133317	0.050573
C11	C	0.568033	0.066952	0.000048
C12	C	0.504818	0.066302	0.000042
C13	C	0.105629	0.106391	0.000062
C14	C	0.046230	0.105787	0.000066
O15	O	0.009406	0.142951	0.000082
N16	N	0.023699	0.061418	0.000073
C17	C	0.060570	0.017649	0.000082
O18	O	0.035951	-0.020147	0.000088
C19	C	0.119967	0.018253	0.000082
C20	C	0.142495	0.062626	0.000070
C21	C	0.128158	0.150760	0.000050
C22	C	0.187552	0.151364	0.000045
C23	C	0.224419	0.107599	0.000052
C24	C	0.201890	0.063229	0.000065
C25	C	0.156837	-0.025515	0.000096
C26	C	0.216239	-0.024907	0.000097
C27	C	0.238766	0.019466	0.000084
C28	C	0.298151	0.020068	0.000067
N29	N	0.320683	0.064437	0.000060
C30	C	0.283817	0.108203	0.000053
C31	C	-0.064170	0.016383	0.000082
C32	C	-0.123567	0.015778	0.000077
C33	C	-0.137902	0.103917	0.000062
C34	C	-0.078505	0.104521	0.000063
C35	C	-0.041639	0.060753	0.000075
C36	C	0.408551	0.109467	0.000042
C37	C	0.467951	0.110067	0.000035
C38	C	0.482282	0.021928	0.000052
C39	C	0.422886	0.021328	0.000057
C40	C	0.386021	0.065102	0.000053
O41	O	0.335010	-0.017077	0.000054
O42	O	0.308444	0.145992	0.000054
C43	C	0.677125	-0.025473	0.000074
C44	C	0.676474	-0.079129	0.000079
C45	C	0.724431	-0.417871	0.000053
C46	C	0.722014	-0.619534	0.000044
O47	O	0.765867	-0.650722	0.000023
N48	N	0.669779	-0.638738	0.000039
C49	C	0.618144	-0.607523	0.000032
O50	O	0.573659	-0.628484	0.000021
C51	C	0.620561	-0.405860	0.000036
C52	C	0.672800	-0.386659	0.000048
C53	C	0.776665	-0.398669	0.000064
C54	C	0.777269	-0.348256	0.000069
C55	C	0.725638	-0.317045	0.000064
C56	C	0.673403	-0.336247	0.000053
C57	C	0.568927	-0.374646	0.000025
C58	C	0.569536	-0.324228	0.000024
C59	C	0.621775	-0.305027	0.000036
C60	C	0.622376	-0.254622	0.000053
N61	N	0.674611	-0.235418	0.000059
C62	C	0.726242	-0.266630	0.000064
C63	C	0.616879	-0.713399	0.000031
C64	C	0.616274	-0.763814	0.000031
C65	C	0.720145	-0.775822	0.000042
C66	C	0.720749	-0.725406	0.000046
C67	C	0.669114	-0.694195	0.000036
C68	C	0.727506	-0.160758	0.000076
C69	C	0.728105	-0.110341	0.000084
C70	C	0.624235	-0.098337	0.000069
C71	C	0.623635	-0.148751	0.000065
C72	C	0.675276	-0.179961	0.000066
O73	O	0.578547	-0.223406	0.000068
O74	O	0.770721	-0.245659	0.000061
C75	C	0.723827	-0.468283	0.000047
C76	C	0.671593	-0.487485	0.000037
C77	C	0.619962	-0.456274	0.000031
C78	C	0.670988	-0.537900	0.000037
C79	C	0.722619	-0.569112	0.000042
C80	C	0.774855	-0.549908	0.000047
C81	C	0.775458	-0.499495	0.000053
C82	C	0.567727	-0.475478	0.000026
C83	C	0.567127	-0.525891	0.000021
C84	C	0.618758	-0.557103	0.000026
C85	C	0.776346	0.058894	0.000070
C86	C	0.839562	0.059544	0.000073
C87	C	0.667254	0.151319	0.000045
C88	C	0.667905	0.204975	0.000036
N89	N	0.672171	0.062938	0.143864
N90	N	0.672213	0.062903	-0.143744
C91	C	0.711209	0.029873	0.563653
C92	C	0.711211	0.029869	0.627261
O93	O	0.744380	0.001762	0.660160
N94	N	0.672199	0.062906	0.659071
C95	C	0.633177	0.095945	0.627271
O96	O	0.599994	0.124044	0.660169
C97	C	0.633172	0.095945	0.563665
C98	C	0.672191	0.062910	0.531857
C99	C	0.750224	-0.003160	0.531846
C100	C	0.750222	-0.003156	0.468243
C101	C	0.711205	0.029881	0.436447
C102	C	0.672189	0.062914	0.468254
C103	C	0.594148	0.128981	0.531866
C104	C	0.594147	0.128979	0.468255
C105	C	0.633166	0.095943	0.436447
C106	C	0.633170	0.095955	0.372855
N107	N	0.672182	0.062919	0.341045
C108	C	0.711200	0.029881	0.372840
C109	C	0.633190	0.095940	0.760849
C110	C	0.633197	0.095942	0.824454
C111	C	0.711231	0.029866	0.824440
C112	C	0.711226	0.029867	0.760833
C113	C	0.672202	0.062904	0.729038
C114	C	0.711193	0.029893	0.239269
C115	C	0.711189	0.029901	0.175660
C116	C	0.633153	0.095975	0.175680
C117	C	0.633159	0.095969	0.239284
C118	C	0.672181	0.062924	0.271076
O119	O	0.600017	0.124047	0.339915
O120	O	0.744372	0.001783	0.339935
H121	H	0.098146	0.186402	0.000047
H122	H	0.816894	-0.575329	0.000054
C123	C	0.464514	-0.508945	-0.000001
C124	C	0.509701	-0.546993	0.000007
H125	H	0.429064	-0.521973	-0.000018
H126	H	0.466903	-0.489537	0.035240
H127	H	0.466928	-0.489528	-0.035237
H128	H	0.507290	-0.566409	0.035245
H129	H	0.507311	-0.566410	-0.035238
C130	C	-0.103416	-0.071281	0.000092
C131	C	-0.148325	-0.032998	0.000085
H132	H	-0.118700	-0.101394	0.000103
H133	H	-0.080549	-0.069214	-0.035147
H134	H	-0.080547	-0.069202	0.035330
H135	H	-0.171192	-0.035075	-0.035156
H136	H	-0.171201	-0.035066	0.035328
H137	H	0.742965	0.003000	0.149765
C138	C	0.562709	-0.198479	-0.051894
C139	C	0.566217	-0.169863	0.000058
H140	H	0.527262	-0.211513	-0.051899
H141	H	0.565106	-0.179056	-0.087121
H142	H	0.593376	-0.224281	-0.051888
H143	H	0.535552	-0.144059	0.000049
H144	H	0.563814	-0.189287	0.035294
H145	H	0.246253	-0.060550	0.000107
C146	C	0.508141	-0.411818	-0.051922
C147	C	0.510968	-0.441176	0.000022
H148	H	0.473096	-0.390646	-0.051923
H149	H	0.539327	-0.393162	-0.051912
H150	H	0.510073	-0.431738	-0.087158
H151	H	0.509040	-0.421256	0.035258
H152	H	0.479773	-0.459834	0.000018
H153	H	0.762185	-0.801243	0.000047
H154	H	0.138506	-0.061648	0.000107
C155	C	0.557289	-0.649743	-0.051925
C156	C	0.560115	-0.679097	0.000022
H157	H	0.522243	-0.628571	-0.051929
H158	H	0.588475	-0.631087	-0.051917
H159	H	0.559222	-0.669666	-0.087159
H160	H	0.558187	-0.659174	0.035257
H161	H	0.528921	-0.697755	0.000021
H162	H	0.817996	-0.483866	0.000062
H163	H	0.205889	0.187497	0.000035
H164	H	0.781993	-0.030058	0.442349
C165	C	0.010945	-0.034081	-0.051862
C166	C	-0.023648	-0.031731	0.000084
H167	H	0.035962	-0.063783	-0.051857
H168	H	-0.012524	-0.032486	-0.087093
H169	H	0.032866	-0.007570	-0.051858
H170	H	-0.045572	-0.058240	0.000078
H171	H	-0.000176	-0.033331	0.035324
H172	H	0.743000	0.002965	0.850339
H173	H	0.404543	-0.014804	0.000058
H174	H	0.781997	-0.030065	0.557728
C175	C	0.836271	-0.462326	-0.051875
C176	C	0.833426	-0.432970	0.000070
H177	H	0.871318	-0.483497	-0.051869
H178	H	0.805086	-0.480983	-0.051876
H179	H	0.834349	-0.442404	-0.087111
H180	H	0.835344	-0.452892	0.035305
H181	H	0.864619	-0.414311	0.000076
H182	H	0.742998	0.002967	0.734939
H183	H	0.526389	-0.390270	0.000012
C184	C	0.788327	-0.035419	0.232848
C185	C	0.754086	-0.006430	0.274209
H186	H	0.814811	-0.057839	0.254420
H187	H	0.764773	-0.052700	0.208042
H188	H	0.808628	-0.015376	0.208038
H189	H	0.733782	-0.026473	0.299016
H190	H	0.777644	0.010853	0.299026
C191	C	0.513666	-0.746869	0.000014
C192	C	0.558852	-0.784916	0.000023
H193	H	0.478215	-0.759896	0.000003
H194	H	0.516057	-0.727457	0.035252
H195	H	0.516076	-0.727454	-0.035225
H196	H	0.556444	-0.804329	0.035265
H197	H	0.556460	-0.804336	-0.035218
H198	H	0.601430	0.122848	0.850347
H199	H	0.527488	-0.298818	0.000015
H200	H	-0.060167	0.140653	0.000056
C201	C	0.823357	-0.742350	0.000053
C202	C	0.778170	-0.704302	0.000049
H203	H	0.858807	-0.729323	0.000050
H204	H	0.820955	-0.761760	0.035292
H205	H	0.820957	-0.761766	-0.035186
H206	H	0.780568	-0.684888	0.035291
H207	H	0.780574	-0.684884	-0.035192
C208	C	0.579052	-0.015719	0.000061
C209	C	0.567484	-0.064023	0.000060
H210	H	0.544015	0.005465	0.000048
H211	H	0.600477	-0.009929	0.035303
H212	H	0.600501	-0.009933	-0.035174
H213	H	0.546038	-0.069811	0.035298
H214	H	0.546050	-0.069816	-0.035186
H215	H	0.770646	-0.094710	0.000095
H216	H	0.601414	0.122847	0.734965
C217	C	0.517008	0.194283	0.525464
C218	C	0.551254	0.165293	0.566817
H219	H	0.490523	0.216699	0.547042
H220	H	0.540559	0.211569	0.500656
H221	H	0.496709	0.174240	0.500655
H222	H	0.571556	0.185336	0.591623
H223	H	0.527700	0.148006	0.591635
H224	H	0.562367	0.155881	0.442371
C225	C	0.556019	0.161276	0.232906
C226	C	0.590267	0.132279	0.274250
H227	H	0.529534	0.183687	0.254491
H228	H	0.579569	0.178569	0.208104
H229	H	0.535721	0.141238	0.208090
H230	H	0.610569	0.152318	0.299063
H231	H	0.566714	0.114986	0.299062
C232	C	0.490500	-0.065255	0.000067
C233	C	0.522812	-0.026178	0.000058
H234	H	0.515524	-0.094953	0.000069
H235	H	0.467036	-0.063655	0.035304
H236	H	0.467034	-0.063661	-0.035173
H237	H	0.546276	-0.027769	0.035300
H238	H	0.546287	-0.027778	-0.035183
C239	C	0.787113	-0.224411	-0.051868
C240	C	0.784269	-0.195059	0.000080
H241	H	0.822158	-0.245584	-0.051864
H242	H	0.755926	-0.243067	-0.051871
H243	H	0.785193	-0.204487	-0.087102
H244	H	0.786185	-0.214983	0.035313
H245	H	0.815465	-0.176402	0.000088
C246	C	0.474003	0.185377	-0.051927
C247	C	0.492708	0.158847	0.000021
H248	H	0.489283	0.215492	-0.051932
H249	H	0.486689	0.167367	-0.087156
H250	H	0.433351	0.191272	-0.051918
H251	H	0.533361	0.152949	0.000010
H252	H	0.480026	0.176861	0.035260
C253	C	0.333444	0.159920	-0.051911
C254	C	0.368033	0.157582	0.000034
H255	H	0.308428	0.189623	-0.051916
H256	H	0.356916	0.158317	-0.087143
H257	H	0.311522	0.133410	-0.051896
H258	H	0.389958	0.184091	0.000016
H259	H	0.344558	0.159191	0.035275
C260	C	-0.213025	0.154361	-0.051884
C261	C	-0.178434	0.152026	0.000059
H262	H	-0.238050	0.184059	-0.051884
H263	H	-0.189554	0.152767	-0.087117
H264	H	-0.234936	0.127845	-0.051873
H265	H	-0.156519	0.178541	0.000045
H266	H	-0.201907	0.153625	0.035301
H267	H	0.819807	-0.332628	0.000076
H268	H	0.601387	0.122875	0.149782
