data_functionalizedCrystal
_audit_creation_method	'MofGen! by Chris Wilmer'
_symmetry_space_group_name_H-M	'P1'
_symmetry_Int_Tables_number	1
_symmetry_cell_setting	triclinic
loop_
_symmetry_equiv_pos_as_xyz
  x,y,z
_cell_length_a	18.101397
_cell_length_b	18.101398
_cell_length_c	18.101389
_cell_angle_alpha	89.991407
_cell_angle_beta	90.018351
_cell_angle_gamma	89.985428
loop_
_atom_site_label
_atom_site_type_symbol
_atom_site_fract_x
_atom_site_fract_y
_atom_site_fract_z
Zn1	Zn	-0.295010	-1.132179	0.418528
Zn2	Zn	-0.418836	-1.132100	0.294687
Zn3	Zn	-0.295001	-1.008338	0.294723
Zn4	Zn	-0.418803	-1.008313	0.418509
O5	O	-0.356912	-1.070233	0.356612
O6	O	-0.311453	-1.235802	0.402093
O7	O	-0.402419	-1.115659	0.191059
O8	O	-0.191369	-1.024810	0.311169
O9	O	-0.402427	-1.235743	0.311107
O10	O	-0.191376	-1.115795	0.402128
O11	O	-0.311438	-1.024732	0.191086
O12	O	-0.311406	-0.904702	0.311151
O13	O	-0.402371	-1.024767	0.522145
O14	O	-0.402363	-0.904684	0.402096
O15	O	-0.311421	-1.115771	0.522159
O16	O	-0.522464	-1.115635	0.311089
O17	O	-0.522440	-1.024690	0.402061
C18	C	-0.356881	-0.877822	0.356626
C19	C	-0.356885	-0.795508	0.356650
C20	C	-0.356925	-0.496417	0.356625
C21	C	-0.414429	-0.527756	0.413562
C22	C	-0.414250	-0.613374	0.413794
C23	C	-0.356906	-0.644800	0.356637
C24	C	-0.278907	-0.613730	0.377966
C25	C	-0.279251	-0.528085	0.378372
C26	C	-0.376732	-0.527968	0.278222
C27	C	-0.378445	-0.613619	0.278639
C28	C	-0.356890	-0.728659	0.356643
C29	C	-0.356935	-0.412558	0.356621
C30	C	-0.549323	-1.070172	0.356585
C31	C	-0.631637	-1.070213	0.356598
C32	C	-0.782345	-1.070258	0.356624
C33	C	-0.813683	-1.127535	0.299442
C34	C	-0.899302	-1.127392	0.299232
C35	C	-0.930728	-1.070304	0.356648
C36	C	-0.899701	-0.992202	0.335655
C37	C	-0.814056	-0.992507	0.335226
C38	C	-0.813855	-1.090411	0.434947
C39	C	-0.899505	-1.092159	0.434544
C40	C	-1.014587	-1.070325	0.356664
C41	C	-0.698486	-1.070232	0.356606
C42	C	-0.163751	-1.070314	0.356655
C43	C	-0.081436	-1.070349	0.356673
C44	C	-0.356894	-1.070275	0.549774
C45	C	-0.356886	-1.070294	0.632088
C46	C	-0.356941	-0.263394	0.356603
C47	C	-0.356945	-0.345709	0.356612
C48	C	-0.356878	-1.070233	0.164201
C49	C	-0.356677	-1.070358	0.081888
C50	C	-0.356747	-1.070337	0.931179
C51	C	-0.413788	-1.012883	0.899845
C52	C	-0.414053	-1.013038	0.814227
C53	C	-0.356816	-1.070315	0.782797
C54	C	-0.378007	-1.148344	0.813881
C55	C	-0.378381	-1.148024	0.899526
C56	C	-0.278388	-1.050440	0.899609
C57	C	-0.278840	-1.048704	0.813958
C58	C	-0.356853	-1.070307	0.698937
C59	C	-0.356711	-1.070350	1.015039
H60	H	-0.261802	-0.635191	0.434658
H61	H	-0.432635	-0.506366	0.258840
H62	H	-0.472458	-0.507152	0.400345
H63	H	-0.792198	-1.114345	0.241738
H64	H	-0.259082	-0.994529	0.921210
H65	H	-0.262449	-0.508120	0.435688
H66	H	-0.337766	-1.192302	0.793523
H67	H	-0.920058	-0.948376	0.376031
Br68	Br	-0.933527	-1.105155	0.202515
H69	H	-0.401146	-0.633874	0.471885
Br70	Br	-0.474116	-0.647463	0.251831
H71	H	-0.234901	-0.634085	0.337788
Br72	Br	-0.312095	-1.221747	0.934079
H73	H	-0.234871	-0.507354	0.338803
H74	H	-0.339602	-0.635011	0.233937
Br75	Br	-0.780828	-0.964079	0.239813
Br76	Br	-0.306922	-0.494189	0.207512
Br77	Br	-0.779293	-1.224337	0.321034
Br78	Br	-0.934267	-1.223906	0.321100
Br79	Br	-0.935519	-0.963306	0.241299
Br80	Br	-0.207553	-1.120187	0.933381
Br81	Br	-0.779503	-0.918938	0.401638
Br82	Br	-0.252207	-0.952989	0.780110
Br83	Br	-0.777794	-1.183704	0.466835
Br84	Br	-0.509995	-1.034510	0.935777
H85	H	-0.919779	-1.149635	0.450377
Br86	Br	-0.935157	-1.027751	0.509348
Br87	Br	-0.472465	-1.176945	0.778137
H88	H	-0.793585	-1.048698	0.477550
H89	H	-0.400791	-0.955176	0.793210
Br90	Br	-0.391909	-0.916146	0.934173
Br91	Br	-0.204242	-1.113368	0.778311
H92	H	-0.472135	-1.026175	0.793741
H93	H	-0.472091	-0.634380	0.400427
Br94	Br	-0.392886	-0.491881	0.509824
Br95	Br	-0.473854	-1.176134	0.932830
