data_functionalizedCrystal
_audit_creation_method	'MofGen! by Chris Wilmer'
_symmetry_space_group_name_H-M	'P1'
_symmetry_Int_Tables_number	1
_symmetry_cell_setting	triclinic
loop_
_symmetry_equiv_pos_as_xyz
  x,y,z
_cell_length_a	13.032831
_cell_length_b	18.050589
_cell_length_c	13.032268
_cell_angle_alpha	82.850583
_cell_angle_beta	89.113023
_cell_angle_gamma	82.833186
loop_
_atom_site_label
_atom_site_type_symbol
_atom_site_fract_x
_atom_site_fract_y
_atom_site_fract_z
Zn1	Zn	1.498351	-0.501530	0.780835
Zn2	Zn	1.998351	-0.001530	1.280835
Zn3	Zn	1.520065	-0.612177	0.608855
Zn4	Zn	2.020065	-0.112177	1.108855
Zn5	Zn	1.348217	-0.470507	0.587076
Zn6	Zn	1.848217	0.029493	1.087076
Zn7	Zn	1.326314	-0.608161	0.758980
Zn8	Zn	1.826314	-0.108161	1.258980
O9	O	1.423237	-0.548094	0.683937
O10	O	1.923237	-0.048094	1.183937
O11	O	1.645148	-0.530872	0.776283
O12	O	2.145148	-0.030872	1.276283
O13	O	1.515523	-0.582081	0.462049
O14	O	2.015523	-0.082081	0.962049
O15	O	1.368212	-0.370708	0.612810
O16	O	1.868212	0.129292	1.112810
O17	O	1.661101	-0.612163	0.649930
O18	O	2.161101	-0.112163	1.149930
O19	O	1.478515	-0.393501	0.755164
O20	O	1.978515	0.106499	1.255164
O21	O	1.389267	-0.477997	0.446048
O22	O	1.889267	0.022003	0.946048
O23	O	1.201395	-0.474104	0.591619
O24	O	1.701395	0.025896	1.091619
O25	O	1.330881	-0.605320	0.905796
O26	O	1.830881	-0.105320	1.405796
O27	O	1.185303	-0.575238	0.717916
O28	O	1.685303	-0.075238	1.217916
O29	O	1.457276	-0.526978	0.921853
O30	O	1.957276	-0.026978	1.421853
O31	O	1.494284	-0.715559	0.628738
O32	O	1.994284	-0.215559	1.128738
O33	O	1.351936	-0.712609	0.739034
O34	O	1.851936	-0.212609	1.239034
C35	C	1.156033	-0.520869	0.650033
C36	C	1.656033	-0.020869	1.150033
C37	C	1.041718	-0.509242	0.635553
C38	C	1.541718	-0.009242	1.135553
C39	C	0.982831	-0.554162	0.691494
C40	C	1.482831	-0.054162	1.191494
C41	C	0.864681	-0.542146	0.676530
C42	C	1.364681	-0.042146	1.176530
C43	C	1.423115	-0.741032	0.683904
C44	C	1.923115	-0.241032	1.183904
C45	C	1.423152	-0.823584	0.683936
C46	C	1.923152	-0.323584	1.183936
C47	C	1.345814	-1.021463	0.743900
C48	C	1.845814	-0.521463	1.243900
C49	C	1.332669	-1.060964	0.646879
C50	C	1.832669	-0.560964	1.146879
C51	C	1.423252	-0.974726	0.683962
C52	C	1.923252	-0.474726	1.183962
C53	C	1.436446	-1.082312	0.781001
C54	C	1.936446	-0.582312	1.281001
C55	C	1.423345	-1.120722	0.683996
C56	C	1.923345	-0.620722	1.183996
C57	C	1.410063	-1.013131	0.586886
C58	C	1.910063	-0.513131	1.086886
C59	C	1.513876	-1.034484	0.721076
C60	C	2.013876	-0.534484	1.221076
C61	C	1.500775	-1.073962	0.623995
C62	C	2.000775	-0.573962	1.123995
C63	C	1.423195	-0.890621	0.683944
C64	C	1.923195	-0.390621	1.183944
C65	C	1.423402	-1.204825	0.684003
C66	C	1.923402	-0.704825	1.184003
C67	C	1.691484	-0.575426	0.717973
C68	C	2.191484	-0.075426	1.217973
C69	C	1.805795	-0.587073	0.732478
C70	C	2.305795	-0.087073	1.232478
C71	C	1.389213	-0.569162	0.952184
C72	C	1.889213	-0.069162	1.452184
C73	C	1.374714	-0.578139	1.066495
C74	C	1.874714	-0.078139	1.566495
C75	C	1.423384	-0.354407	0.683996
C76	C	1.923384	0.145593	1.183996
C77	C	1.423447	-0.271869	0.684021
C78	C	1.923447	0.228131	1.184021
C79	C	1.457187	-0.527061	0.416741
C80	C	1.957187	-0.027061	0.916741
C81	C	1.471885	-0.517894	0.302456
C82	C	1.971885	-0.017894	0.802456
C83	C	1.430788	-0.543380	1.125403
C84	C	1.930788	-0.043380	1.625403
C85	C	1.415804	-0.552658	1.243549
C86	C	1.915804	-0.052658	1.743549
H87	H	1.019885	-0.601514	0.750468
H88	H	1.519885	-0.101514	1.250468
H89	H	0.827631	-0.494786	0.617559
H90	H	1.327631	0.005214	1.117559
Cl91	Cl	1.601958	-1.109260	0.545662
Cl92	Cl	2.101958	-0.609260	1.045662
Cl93	Cl	1.453621	-1.128720	0.907678
Cl94	Cl	1.953621	-0.628720	1.407678
Cl95	Cl	1.244598	-0.985929	0.822015
Cl96	Cl	1.744598	-0.485929	1.322015
Cl97	Cl	1.632098	-1.015914	0.769566
Cl98	Cl	2.132098	-0.515914	1.269566
H99	H	1.530984	-0.481259	1.265427
H100	H	2.030984	0.018741	1.765427
H101	H	1.398850	-0.983153	0.504801
H102	H	1.898850	-0.483153	1.004801
Cl103	Cl	1.214409	-1.079507	0.598426
Cl104	Cl	1.714409	-0.579507	1.098426
Cl105	Cl	1.522011	-0.486807	1.068231
Cl106	Cl	2.022011	0.013193	1.568231
Cl107	Cl	0.862985	-0.660180	0.823549
Cl108	Cl	1.362985	-0.160180	1.323549
H109	H	1.004664	-0.461885	0.576587
H110	H	1.504664	0.038115	1.076587
H111	H	1.356694	-0.589283	1.280578
H112	H	1.856694	-0.089283	1.780578
Cl113	Cl	1.283460	-0.634687	1.123663
Cl114	Cl	1.783460	-0.134687	1.623663
