data_functionalizedCrystal
_audit_creation_method	'MofGen! by Chris Wilmer'
_symmetry_space_group_name_H-M	'P1'
_symmetry_Int_Tables_number	1
_symmetry_cell_setting	triclinic
loop_
_symmetry_equiv_pos_as_xyz
  x,y,z
_cell_length_a	14.853569
_cell_length_b	14.853559
_cell_length_c	13.330367
_cell_angle_alpha	89.997552
_cell_angle_beta	89.994419
_cell_angle_gamma	83.633509
loop_
_atom_site_label
_atom_site_type_symbol
_atom_site_fract_x
_atom_site_fract_y
_atom_site_fract_z
O1	O	1.196364	0.117711	-0.083373
O2	O	0.933905	0.131731	-0.083384
O3	O	1.072149	-0.006510	-0.083377
O4	O	1.058120	0.255951	-0.083380
O5	O	1.072129	-0.006513	0.083470
O6	O	0.933885	0.131728	0.083463
O7	O	1.196344	0.117708	0.083475
Cu8	Cu	1.065113	0.124717	0.098703
Cu9	Cu	1.065136	0.124721	-0.098613
O10	O	1.058100	0.255948	0.083467
C11	C	0.900306	0.131094	0.000038
C12	C	0.800222	0.129189	0.000033
C13	C	0.763848	0.046178	0.000031
C14	C	0.742554	0.210411	0.000040
C15	C	0.648520	0.208625	0.000041
C16	C	0.612146	0.125614	0.000039
C17	C	0.669806	0.044389	0.000035
C18	C	0.590853	0.289848	0.000055
C19	C	0.496812	0.288065	0.000058
C20	C	0.460437	0.205053	0.000048
C21	C	0.518103	0.123825	0.000043
C22	C	0.481729	0.040813	0.000040
C23	C	0.539394	-0.040416	0.000028
C24	C	0.633430	-0.038623	0.000025
C25	C	0.366401	0.203260	0.000051
C26	C	0.387687	0.039024	0.000044
C27	C	1.071505	-0.040100	0.000045
C28	C	1.069604	-0.140184	0.000039
C29	C	1.061551	-0.563357	-0.090910
C30	C	1.061529	-0.563356	0.090993
C31	C	1.063323	-0.469322	0.090994
C32	C	1.064229	-0.422302	0.000042
C33	C	1.063342	-0.469315	-0.090912
C34	C	1.064201	-0.422301	0.181946
C35	C	1.065993	-0.328262	0.181951
C36	C	1.066906	-0.281241	0.090997
C37	C	1.066020	-0.328260	0.000040
C38	C	1.066926	-0.281239	-0.090913
C39	C	1.066047	-0.328258	-0.181871
C40	C	1.064255	-0.422294	-0.181865
C41	C	1.068698	-0.187204	0.090992
C42	C	1.068717	-0.187197	-0.090914
C43	C	1.229943	0.118345	0.000050
C44	C	1.330027	0.120249	0.000048
C45	C	1.058744	0.289538	0.000044
C46	C	1.060645	0.389622	0.000043
N47	N	1.065102	0.124714	0.237485
N48	N	1.065154	0.124717	-0.237394
C49	C	1.003919	0.185910	0.710105
C50	C	1.126378	0.063525	0.710079
C51	C	1.126368	0.063522	0.605060
C52	C	1.065133	0.124715	0.552559
C53	C	1.003909	0.185911	0.605076
C54	C	1.187597	0.002334	0.552535
C55	C	1.187590	0.002330	0.447511
C56	C	1.126350	0.063519	0.395008
C57	C	1.065123	0.124716	0.447531
C58	C	1.003888	0.185909	0.395030
C59	C	0.942656	0.247102	0.447552
C60	C	0.942669	0.247100	0.552573
C61	C	1.126337	0.063522	0.289986
C62	C	1.003878	0.185910	0.290002
H63	H	0.620476	0.357431	0.000064
H64	H	0.810803	-0.019956	0.000017
H65	H	0.319454	0.269396	0.000070
O66	O	1.060567	-0.614075	0.189083
H67	H	0.998359	-0.648968	0.193435
H68	H	0.772176	0.277995	0.000049
H69	H	0.449869	0.354207	0.000066
H70	H	1.069393	-0.148924	0.165048
O71	O	0.937834	0.251914	0.233375
H72	H	0.895266	0.294465	0.287543
O73	O	1.192424	-0.002466	0.766705
H74	H	1.235000	-0.045013	0.712541
O75	O	1.253645	-0.063659	0.609158
H76	H	1.215649	-0.107554	0.657008
O77	O	0.876602	0.313086	0.390911
H78	H	0.914594	0.356969	0.343042
H79	H	1.063538	-0.460584	-0.255919
H80	H	0.892816	0.296922	0.595343
O81	O	0.937888	0.251921	0.766744
H82	H	0.867595	0.240307	0.746608
O83	O	1.253619	-0.063677	0.390863
H84	H	1.296195	-0.106232	0.445016
O85	O	1.069687	-0.136481	-0.189014
H86	H	1.068765	-0.184975	-0.252256
H87	H	1.060839	-0.601644	-0.164966
H88	H	0.358079	-0.028574	0.000037
H89	H	0.509766	-0.108003	0.000020
H90	H	1.066778	-0.289961	-0.255924
O91	O	1.063245	-0.473013	0.280041
H92	H	1.061872	-0.546304	0.264759
H93	H	1.176196	0.013703	0.247228
O94	O	0.695621	-0.126230	0.000032
H95	H	0.767121	-0.111037	0.000047
O96	O	1.066961	-0.277553	0.280048
H97	H	1.066040	-0.326050	0.343292
