data_functionalizedCrystal
_audit_creation_method	'MofGen! by Chris Wilmer'
_symmetry_space_group_name_H-M	'P1'
_symmetry_Int_Tables_number	1
_symmetry_cell_setting	triclinic
loop_
_symmetry_equiv_pos_as_xyz
  x,y,z
_cell_length_a	16.992694
_cell_length_b	16.974959
_cell_length_c	16.053942
_cell_angle_alpha	88.925455
_cell_angle_beta	87.253706
_cell_angle_gamma	87.028296
loop_
_atom_site_label
_atom_site_type_symbol
_atom_site_fract_x
_atom_site_fract_y
_atom_site_fract_z
O1	O	1.037471	0.170243	0.057837
O2	O	1.537471	0.670243	0.557837
O3	O	0.809180	0.168410	0.057985
O4	O	1.309180	0.668410	0.557985
O5	O	0.929315	0.054974	0.065621
O6	O	1.429315	0.554974	0.565621
O7	O	0.917336	0.283678	0.050201
O8	O	1.417336	0.783678	0.550201
O9	O	0.935890	0.048752	-0.072816
O10	O	1.435890	0.548752	0.427184
O11	O	0.815756	0.162188	-0.080452
O12	O	1.315756	0.662188	0.419548
O13	O	1.044046	0.164020	-0.080600
O14	O	1.544046	0.664020	0.419400
Zn15	Zn	0.930945	0.162116	-0.102506
Zn16	Zn	1.430945	0.662116	0.397494
Zn17	Zn	0.922281	0.170314	0.079891
Zn18	Zn	1.422281	0.670314	0.579891
O19	O	0.923911	0.277456	-0.088236
O20	O	1.423911	0.777456	0.411764
C21	C	0.783250	0.162940	-0.011071
C22	C	1.283250	0.662940	0.488929
C23	C	0.696190	0.155902	-0.010587
C24	C	1.196190	0.655902	0.489413
C25	C	0.646099	0.223811	-0.015166
C26	C	1.146099	0.723811	0.484834
C27	C	0.564298	0.217192	-0.014732
C28	C	1.064298	0.717192	0.485268
C29	C	0.532590	0.142665	-0.009712
C30	C	1.032590	0.642665	0.490288
C31	C	0.582688	0.074752	-0.005135
C32	C	1.082688	0.574752	0.494865
C33	C	0.664487	0.081371	-0.005575
C34	C	1.164487	0.581371	0.494425
C35	C	0.288933	0.115233	-0.007884
C36	C	0.788933	0.615233	0.492116
C37	C	0.207127	0.108620	-0.007442
C38	C	0.707127	0.608620	0.492558
C39	C	0.188743	0.251061	-0.017040
C40	C	0.688743	0.751061	0.482960
C41	C	0.270544	0.257673	-0.017475
C42	C	0.770544	0.757673	0.482525
C43	C	0.320635	0.189760	-0.012903
C44	C	0.820635	0.689760	0.487097
N45	N	0.448977	0.135899	-0.009265
N46	N	0.948977	0.635899	0.490735
N47	N	0.404247	0.196527	-0.013356
N48	N	0.904247	0.696527	0.486644
C49	C	0.932022	0.022464	-0.001614
C50	C	1.432022	0.522464	0.498386
C51	C	0.930282	-0.065137	0.004299
C52	C	1.430282	0.434863	0.504299
C53	C	1.069976	0.169490	-0.011542
C54	C	1.569976	0.669490	0.488458
C55	C	1.157036	0.176528	-0.012021
C56	C	1.657036	0.676528	0.487979
C57	C	0.920173	-0.557871	0.045769
C58	C	1.420173	-0.057871	0.545769
C59	C	0.921801	-0.475561	0.040197
C60	C	1.421801	0.024439	0.540197
C61	C	0.926193	-0.437814	-0.038051
C62	C	1.426193	0.062186	0.461949
C63	C	0.928965	-0.482382	-0.110732
C64	C	1.428965	0.017618	0.389268
C65	C	0.927343	-0.564691	-0.105159
C66	C	1.427343	-0.064691	0.394841
C67	C	0.931433	-0.192013	-0.062810
C68	C	1.431433	0.307987	0.437190
C69	C	0.933052	-0.109698	-0.068377
C70	C	1.433052	0.390302	0.431623
C71	C	0.925889	-0.102883	0.082553
C72	C	1.425889	0.397117	0.582553
C73	C	0.924263	-0.185194	0.088119
C74	C	1.424263	0.314806	0.588119
C75	C	0.927040	-0.229755	0.015438
C76	C	1.427040	0.270245	0.515438
N77	N	0.927854	-0.353680	-0.043748
N78	N	1.427854	0.146320	0.456252
N79	N	0.925384	-0.313888	0.021136
N80	N	1.425384	0.186112	0.521136
C81	C	0.921204	0.309966	-0.021000
C82	C	1.421204	0.809966	0.479000
C83	C	0.922943	0.397567	-0.026906
C84	C	1.422943	0.897567	0.473094
N85	N	0.936863	0.156521	-0.226987
N86	N	1.436863	0.656521	0.273013
C87	C	0.967496	0.127656	-0.748664
C88	C	1.467496	0.627656	-0.248664
C89	C	0.963338	0.131579	-0.661523
C90	C	1.463338	0.631579	-0.161523
C91	C	0.908048	0.183745	-0.621347
C92	C	1.408048	0.683745	-0.121347
C93	C	0.856919	0.231998	-0.668317
C94	C	1.356919	0.731998	-0.168317
C95	C	0.861081	0.228078	-0.755456
C96	C	1.361081	0.728078	-0.255456
C97	C	0.889896	0.200854	-0.361097
C98	C	1.389896	0.700854	0.138903
C99	C	0.885736	0.204768	-0.273951
C100	C	1.385736	0.704768	0.226049
C101	C	0.992157	0.104350	-0.267163
C102	C	1.492157	0.604350	0.232837
C103	C	0.996311	0.100432	-0.354304
C104	C	1.496311	0.600432	0.145696
C105	C	0.945185	0.148687	-0.401267
C106	C	1.445185	0.648687	0.098733
N107	N	0.903795	0.187754	-0.532275
N108	N	1.403795	0.687754	-0.032275
N109	N	0.949443	0.144682	-0.490338
N110	N	1.449443	0.644682	0.009662
N111	N	0.916369	0.175903	0.204372
N112	N	1.416369	0.675903	0.704372
H113	H	0.705272	0.026073	-0.001846
H114	H	1.205272	0.526073	0.498154
H115	H	0.923629	-0.066593	0.141726
H116	H	1.423629	0.433407	0.641726
C117	C	0.172251	0.026631	-0.001918
C118	C	0.672251	0.526631	0.498082
N119	N	0.145982	-0.035120	0.002244
N120	N	0.645982	0.464880	0.502244
C121	C	1.048389	0.051269	-0.215497
C122	C	1.548389	0.551269	0.284503
N123	N	1.090745	0.011286	-0.176582
N124	N	1.590745	0.511286	0.323418
H125	H	0.671908	0.284498	-0.019253
H126	H	1.171908	0.784498	0.480747
C127	C	0.509201	0.291897	-0.019784
C128	C	1.009201	0.791897	0.480216
N129	N	0.467702	0.348167	-0.023596
N130	N	0.967702	0.848167	0.476404
C131	C	0.915350	-0.599386	0.131849
C132	C	1.415350	-0.099386	0.631849
N133	N	0.911723	-0.630652	0.196688
N134	N	1.411723	-0.130652	0.696688
H135	H	0.936605	-0.078966	-0.132100
H136	H	1.436605	0.421034	0.367900
C137	C	0.934475	-0.241019	-0.142762
C138	C	1.434475	0.258981	0.357238
N139	N	0.936763	-0.277933	-0.202986
N140	N	1.436763	0.222067	0.297014
C141	C	1.028318	0.070267	-0.792849
C142	C	1.528318	0.570267	-0.292849
N143	N	1.074132	0.027041	-0.826127
N144	N	1.574132	0.527041	-0.326127
H145	H	0.932546	-0.451642	-0.174444
H146	H	1.432546	0.048358	0.325556
C147	C	0.833647	0.253929	-0.412744
C148	C	1.333647	0.753929	0.087256
N149	N	0.791276	0.293905	-0.451647
N150	N	1.291276	0.793905	0.048353
H151	H	0.920692	-0.215922	0.151837
H152	H	1.420692	0.284078	0.651837
H153	H	0.919547	-0.439282	0.099378
H154	H	1.419547	0.060718	0.599378
C155	C	0.930388	-0.613708	-0.185109
C156	C	1.430388	-0.113708	0.314891
N157	N	0.932683	-0.650627	-0.245329
N158	N	1.432683	-0.150627	0.254671
C159	C	0.804835	0.281152	-0.807116
C160	C	1.304835	0.781152	-0.307116
N161	N	0.762470	0.321130	-0.846025
N162	N	1.262470	0.821130	-0.346025
H163	H	1.004970	0.092293	-0.623286
H164	H	1.504970	0.592293	-0.123286
H165	H	0.296354	0.318361	-0.021553
H166	H	0.796354	0.818361	0.478447
C167	C	1.057112	0.043021	-0.398490
C168	C	1.557112	0.543021	0.101510
N169	N	1.102897	-0.000234	-0.431769
N170	N	1.602897	0.499766	0.068231
H171	H	0.840709	0.247250	-0.241244
H172	H	1.340709	0.747250	0.258756
H173	H	0.147951	0.306352	-0.020764
H174	H	0.647951	0.806352	0.479236
C175	C	0.344023	0.040526	-0.002849
C176	C	0.844023	0.540526	0.497151
N177	N	0.385519	-0.015748	0.000945
N178	N	0.885519	0.484252	0.500945
C179	C	0.547807	-0.007229	0.000386
C180	C	1.047807	0.492771	0.500386
N181	N	0.521535	-0.068978	0.004547
N182	N	1.021535	0.431022	0.504547
C183	C	0.796099	0.289381	-0.624120
C184	C	1.296099	0.789381	-0.124120
N185	N	0.750285	0.332601	-0.590831
N186	N	1.250285	0.832601	-0.090831
