data_functionalizedCrystal
_audit_creation_method	'MofGen! by Chris Wilmer'
_symmetry_space_group_name_H-M	'P1'
_symmetry_Int_Tables_number	1
_symmetry_cell_setting	triclinic
loop_
_symmetry_equiv_pos_as_xyz
  x,y,z
_cell_length_a	16.109293
_cell_length_b	9.065215
_cell_length_c	7.540329
_cell_angle_alpha	90.004628
_cell_angle_beta	89.996126
_cell_angle_gamma	95.763516
loop_
_atom_site_label
_atom_site_type_symbol
_atom_site_fract_x
_atom_site_fract_y
_atom_site_fract_z
O1	O	-1.104586	0.189578	0.147619
O2	O	-0.862705	0.213189	0.147591
O3	O	-0.988646	-0.013380	0.147598
O4	O	-0.978645	0.416148	0.147612
O5	O	-0.988645	-0.013393	-0.147367
O6	O	-0.862704	0.213177	-0.147374
O7	O	-1.104585	0.189566	-0.147346
Cu8	Cu	-0.983644	0.201370	-0.174292
Cu9	Cu	-0.983646	0.201385	0.174538
O10	O	-0.978644	0.416135	-0.147353
C11	C	-0.831722	0.212229	0.000105
C12	C	-0.739404	0.209367	0.000095
C13	C	-0.987685	-0.068350	0.000117
C14	C	-0.984813	-0.232123	0.000123
C15	C	-0.527011	0.202744	-0.160685
C16	C	-0.440270	0.200040	-0.160684
C17	C	-0.440282	0.200061	0.160904
C18	C	-0.527022	0.202755	0.160900
C19	C	-0.570384	0.204104	0.000101
C20	C	-0.396902	0.198706	0.000105
C21	C	-0.302854	0.195774	0.000108
C22	C	-0.664439	0.207033	0.000097
C23	C	-0.135567	0.190540	0.000130
C24	C	-0.227882	0.193442	0.000111
C25	C	-0.979605	0.471105	0.000132
C26	C	-0.982477	0.634878	0.000138
N27	N	-0.983647	0.201384	0.419886
N28	N	-0.983650	0.201359	-0.419641
H29	H	-0.562314	0.203843	-0.291618
H30	H	-0.404960	0.198933	-0.291612
O31	O	-0.573812	0.204226	0.334326
H32	H	-0.529088	0.202859	0.446141
H33	H	-0.404966	0.198964	0.291821
