data_functionalizedCrystal
_audit_creation_method	'MofGen! by Chris Wilmer'
_symmetry_space_group_name_H-M	'P1'
_symmetry_Int_Tables_number	1
_symmetry_cell_setting	triclinic
loop_
_symmetry_equiv_pos_as_xyz
  x,y,z
_cell_length_a	14.446369
_cell_length_b	12.477989
_cell_length_c	12.477989
_cell_angle_alpha	89.511470
_cell_angle_beta	64.370309
_cell_angle_gamma	124.276907
loop_
_atom_site_label
_atom_site_type_symbol
_atom_site_fract_x
_atom_site_fract_y
_atom_site_fract_z
Zr1	Zr	1.146133	0.218558	0.959604
O2	O	1.339253	0.390425	0.787750
O3	O	0.953012	0.165864	1.012286
O4	O	1.171460	0.405139	0.997564
O5	O	1.100827	-0.037585	0.814086
O6	O	1.191438	0.416754	1.163069
O7	O	1.120806	0.151150	0.802472
O8	O	0.800675	-0.011265	1.189404
O9	O	1.491590	0.390434	0.787751
O10	O	1.047355	0.152068	1.158270
O11	O	1.017536	0.002549	1.043422
O12	O	1.274730	0.284264	1.026089
O13	O	1.244910	0.134745	0.911241
Zr14	Zr	1.146133	-0.063928	1.242089
Zr15	Zr	1.177996	0.237083	1.223566
Zr16	Zr	1.114269	-0.082453	0.978127
Zr17	Zr	1.389092	0.218572	0.959605
Zr18	Zr	0.903173	-0.063942	1.242088
O19	O	1.339253	-0.011234	1.189408
O20	O	1.384559	0.416765	1.163071
O21	O	1.293948	-0.037574	0.814087
O22	O	0.953012	-0.235795	1.413943
O23	O	0.998318	0.192204	1.387606
O24	O	0.907707	-0.262135	1.038623
O25	O	1.191438	0.192215	1.387608
O26	O	1.120806	-0.250509	1.204129
O27	O	1.100827	-0.262124	1.038624
O28	O	1.171460	0.003480	1.399221
O29	O	1.516917	0.405159	0.997566
O30	O	0.775348	-0.250529	1.204127
O31	O	0.800675	-0.235804	1.413942
O32	O	0.826002	0.003460	1.399219
O33	O	1.466263	0.151170	0.802474
O34	O	1.491590	0.165895	1.012289
O35	O	1.017536	-0.129634	1.175604
O36	O	1.047355	0.019885	1.290452
O37	O	1.274730	0.152081	1.158271
O38	O	1.244910	0.002562	1.043423
C39	C	0.842227	0.077297	1.100845
C40	C	0.739084	0.077291	1.100844
C41	C	1.185989	0.453834	1.077677
C42	C	1.199516	0.581621	1.069814
C43	C	1.106276	-0.299204	1.124016
C44	C	1.092750	-0.426991	1.131879
C45	C	0.573270	-0.017391	1.028808
C46	C	0.680877	-0.017060	1.028364
C47	C	0.797423	0.226363	1.034597
C48	C	0.690071	0.225859	1.034043
C49	C	0.515235	0.024223	1.239101
C50	C	0.621032	0.021086	1.239095
C51	C	1.450038	0.077332	1.100848
C52	C	1.553181	0.077338	1.100849
C53	C	1.106277	0.054143	0.770670
C54	C	1.092750	0.046279	0.658611
C55	C	1.185989	0.100487	1.431023
C56	C	1.199515	0.108351	1.543082
C57	C	0.882083	0.100469	1.431022
C58	C	0.792467	0.108327	1.543080
C59	C	0.802371	-0.299222	1.124014
C60	C	0.685701	-0.427015	1.131877
C61	C	0.842227	-0.276050	1.454191
C62	C	0.739084	-0.395979	1.574113
C63	C	1.450038	0.430680	0.747502
C64	C	1.553181	0.550609	0.627581
C65	C	1.410182	0.054161	0.770672
C66	C	1.499798	0.046302	0.658613
C67	C	1.489894	0.453851	1.077679
C68	C	1.606564	0.581645	1.069817
C69	C	0.750384	0.181028	1.526705
C70	C	0.666195	0.188440	1.631984
C71	C	0.624084	0.123141	1.753637
C72	C	0.666176	0.050437	1.770010
C73	C	0.750371	0.043035	1.664731
C74	C	1.541893	-0.026386	0.674987
C75	C	1.626112	-0.033764	0.569706
C76	C	1.668227	0.031539	0.448053
C77	C	1.626129	0.104237	0.431681
C78	C	1.541919	0.111622	0.536960
C79	C	0.703832	-0.493424	1.044378
C80	C	0.594220	-0.613490	1.051741
C81	C	0.466480	-0.667149	1.146608
C82	C	0.448351	-0.600729	1.234110
C83	C	0.557962	-0.480660	1.226741
C84	C	1.734283	0.635265	0.974941
C85	C	1.843918	0.755328	0.967549
C86	C	1.825831	0.821774	1.055029
C87	C	1.698099	0.768144	1.149914
C88	C	1.588467	0.648077	1.157310
H89	H	0.636838	-0.127092	1.073419
Cl90	Cl	0.568945	-0.378482	1.556619
Cl91	Cl	0.287753	-0.668207	1.353368
Cl92	Cl	0.496529	0.130440	1.322563
Cl93	Cl	0.863300	0.339366	1.110956
H94	H	0.609006	-0.667555	0.980483
Cl95	Cl	0.783485	-0.466945	1.645086
Cl96	Cl	0.424674	-0.187743	1.098103
Cl97	Cl	0.617048	0.038249	0.872588
H98	H	0.543181	-0.426602	1.298001
Cl99	Cl	0.935635	-0.045062	0.678967
Cl100	Cl	0.806604	0.039162	0.871181
Cl101	Cl	0.803312	0.263138	1.373781
Cl102	Cl	2.004481	0.822727	0.848253
H103	H	0.656263	0.083750	1.298147
H104	H	0.681903	0.299706	1.082554
Cl105	Cl	0.742649	0.292445	0.876591
Cl106	Cl	1.427909	0.580702	1.276577
H107	H	0.990994	0.467874	1.191028
H108	H	0.555526	0.129177	1.839351
Cl109	Cl	1.679080	0.186318	0.278736
Cl110	Cl	0.613218	-0.031653	1.922955
Cl111	Cl	0.361249	-0.142001	1.322925
Cl112	Cl	0.929920	0.293589	0.878569
Cl113	Cl	0.549370	-0.148408	1.315361
H114	H	1.301276	0.686764	1.010647
H115	H	1.301272	0.167519	0.529902
H116	H	1.749035	0.581182	0.903697
Cl117	Cl	1.675383	0.851701	1.259873
H118	H	0.377239	-0.764917	1.152593
Cl119	Cl	0.613290	0.279836	1.611373
H120	H	0.784623	-0.016174	1.678082
H121	H	1.507608	-0.079574	0.774035
H122	H	1.915113	0.919542	1.048990
H123	H	1.507647	0.170809	0.523611
Cl124	Cl	1.679010	-0.125168	0.590318
H125	H	1.736796	0.025515	0.362338
H126	H	0.807835	-0.449750	0.967123
