data_functionalizedCrystal
_audit_creation_method	'MofGen! by Chris Wilmer'
_symmetry_space_group_name_H-M	'P1'
_symmetry_Int_Tables_number	1
_symmetry_cell_setting	triclinic
loop_
_symmetry_equiv_pos_as_xyz
  x,y,z
_cell_length_a	16.109301
_cell_length_b	10.540510
_cell_length_c	15.186229
_cell_angle_alpha	89.998730
_cell_angle_beta	89.999006
_cell_angle_gamma	83.987447
loop_
_atom_site_label
_atom_site_type_symbol
_atom_site_fract_x
_atom_site_fract_y
_atom_site_fract_z
O1	O	1.104117	0.163163	-0.073175
O2	O	0.862178	0.183467	-0.073187
O3	O	0.988680	-0.011473	-0.073181
O4	O	0.977615	0.358103	-0.073182
O5	O	0.988671	-0.011476	0.073277
O6	O	0.862169	0.183465	0.073270
O7	O	1.104108	0.163160	0.073282
Zn8	Zn	0.983137	0.173312	0.096529
Zn9	Zn	0.983149	0.173315	-0.096434
O10	O	0.977606	0.358100	0.073275
C11	C	0.831194	0.182643	0.000040
C12	C	0.738883	0.180177	0.000035
C13	C	0.987851	-0.058766	0.000046
C14	C	0.985384	-0.199681	0.000041
C15	C	0.430536	0.287790	0.000050
C16	C	0.517270	0.290119	0.000045
C17	C	0.535745	0.058828	0.000034
C18	C	0.449012	0.056501	0.000033
C19	C	0.396409	0.170985	0.000046
C20	C	0.569877	0.175642	0.000042
C21	C	0.663918	0.178166	0.000036
C22	C	0.302362	0.168461	0.000049
C23	C	1.073265	-0.418389	0.000380
C24	C	1.075896	-0.271831	0.000046
C25	C	0.939055	-0.243777	-0.083594
C26	C	0.937065	-0.390510	-0.083660
C27	C	0.935170	-0.390295	0.082890
C28	C	0.939463	-0.244015	0.083991
C29	C	1.135092	0.163984	0.000053
C30	C	1.227403	0.166450	0.000052
C31	C	0.978435	0.405393	0.000047
C32	C	0.980902	0.546308	0.000046
N33	N	0.983136	0.173309	0.228222
N34	N	0.983157	0.173309	-0.228127
C35	C	1.039170	0.087018	0.453948
C36	C	1.039173	0.087015	0.546137
C37	C	0.927116	0.259603	0.546141
C38	C	0.927110	0.259599	0.453953
C39	C	0.983142	0.173308	0.407859
C40	C	0.983151	0.173309	0.592236
C41	C	0.983153	0.173307	0.692192
C42	C	0.983139	0.173309	0.307896
H43	H	0.387708	0.381010	0.000060
C44	C	0.982534	-0.202724	-0.167676
N45	N	1.015289	-0.171808	-0.231005
C46	C	0.593616	-0.067097	0.000036
N47	N	0.637203	-0.161948	0.000043
C48	C	0.865509	0.354587	0.403252
N49	N	0.819126	0.426148	0.365064
H50	H	0.421227	-0.038621	0.000026
C51	C	1.100802	-0.007921	0.596831
N52	N	1.147221	-0.079436	0.635013
H53	H	0.963930	-0.432888	0.146285
H54	H	1.112145	-0.243005	0.059998
C55	C	0.843368	-0.418930	0.083656
N56	N	0.774226	-0.440511	0.084229
C57	C	1.100800	-0.007915	0.403247
N58	N	1.147219	-0.079425	0.365063
C59	C	0.865483	0.354516	0.596853
N60	N	0.819059	0.426006	0.635048
C61	C	1.120903	-0.475757	0.081407
N62	N	1.156785	-0.518976	0.142438
H63	H	1.108327	-0.462393	-0.059256
H64	H	0.968733	-0.431176	-0.146175
C65	C	0.554804	0.418613	0.000057
N66	N	0.583074	0.515400	0.000068
H67	H	1.112363	-0.243944	-0.060007
C68	C	0.845611	-0.420276	-0.088809
N69	N	0.776730	-0.442690	-0.092696
H70	H	0.872422	-0.195439	-0.086707
H71	H	0.973174	-0.215885	0.145863
H72	H	0.873382	-0.194006	0.089038
