data_functionalizedCrystal
_audit_creation_method	'MofGen! by Chris Wilmer'
_symmetry_space_group_name_H-M	'P1'
_symmetry_Int_Tables_number	1
_symmetry_cell_setting	triclinic
loop_
_symmetry_equiv_pos_as_xyz
  x,y,z
_cell_length_a	12.759401
_cell_length_b	12.759400
_cell_length_c	12.759393
_cell_angle_alpha	90.030490
_cell_angle_beta	90.020938
_cell_angle_gamma	90.016209
loop_
_atom_site_label
_atom_site_type_symbol
_atom_site_fract_x
_atom_site_fract_y
_atom_site_fract_z
Zn1	Zn	1.606266	-0.418173	0.594020
Zn2	Zn	2.106266	0.081827	1.094020
Zn3	Zn	1.606158	-0.593888	0.418340
Zn4	Zn	2.106158	-0.093888	0.918340
Zn5	Zn	1.430565	-0.418229	0.418355
Zn6	Zn	1.930565	0.081771	0.918355
Zn7	Zn	1.430557	-0.593815	0.593978
Zn8	Zn	1.930557	-0.093815	1.093978
O9	O	1.518387	-0.506026	0.506173
O10	O	2.018387	-0.006026	1.006173
O11	O	1.753273	-0.441489	0.570727
O12	O	2.253273	0.058511	1.070727
O13	O	1.582823	-0.570641	0.271321
O14	O	2.082823	-0.070641	0.771321
O15	O	1.453921	-0.271200	0.441682
O16	O	1.953921	0.228800	0.941682
O17	O	1.753193	-0.570587	0.441656
O18	O	2.253193	-0.070587	0.941656
O19	O	1.583008	-0.271159	0.570742
O20	O	2.083008	0.228841	1.070742
O21	O	1.453816	-0.441584	0.271332
O22	O	1.953816	0.058416	0.771332
O23	O	1.283543	-0.441513	0.441640
O24	O	1.783543	0.058487	0.941640
O25	O	1.453908	-0.570461	0.741004
O26	O	1.953908	-0.070461	1.241004
O27	O	1.283537	-0.570516	0.570669
O28	O	1.783537	-0.070516	1.070669
O29	O	1.583000	-0.441418	0.741036
O30	O	2.083000	0.058582	1.241036
O31	O	1.582815	-0.740900	0.441615
O32	O	2.082815	-0.240900	0.941615
O33	O	1.453802	-0.740846	0.570655
O34	O	1.953802	-0.240846	1.070655
C35	C	1.245419	-0.506013	0.506152
C36	C	1.745419	-0.006013	1.006152
C37	C	1.128643	-0.506033	0.506168
C38	C	1.628643	-0.006033	1.006168
C39	C	1.073805	-0.573307	0.573248
C40	C	1.573805	-0.073307	1.073248
C41	C	0.964081	-0.573311	0.573269
C42	C	1.464081	-0.073311	1.073269
C43	C	0.964042	-0.438764	0.439122
C44	C	1.464042	0.061236	0.939122
C45	C	1.073764	-0.438756	0.439107
C46	C	1.573764	0.061244	0.939107
C47	C	1.518324	-0.778994	0.506151
C48	C	2.018324	-0.278994	1.006151
C49	C	1.518394	-0.895770	0.506177
C50	C	2.018394	-0.395770	1.006177
C51	C	1.585645	-0.950625	0.439060
C52	C	2.085645	-0.450625	0.939060
C53	C	1.585710	-1.060349	0.439093
C54	C	2.085710	-0.560349	0.939093
C55	C	1.451262	-1.060353	0.573362
C56	C	1.951262	-0.560353	1.073362
C57	C	1.451204	-0.950631	0.573334
C58	C	1.951204	-0.450631	1.073334
C59	C	1.663264	-0.950624	0.361538
C60	C	2.163264	-0.450624	0.861538
C61	C	1.663329	-1.060348	0.361570
C62	C	2.163329	-0.560348	0.861570
C63	C	1.792420	-0.506040	0.506195
C64	C	2.292420	-0.006040	1.006195
C65	C	1.909197	-0.506046	0.506204
C66	C	2.409197	-0.006046	1.006204
C67	C	1.518465	-0.505925	0.780207
C68	C	2.018465	-0.005925	1.280207
C69	C	1.518499	-0.505882	0.896984
C70	C	2.018499	-0.005882	1.396984
C71	C	1.518478	-0.231993	0.506218
C72	C	2.018478	0.268007	1.006218
C73	C	1.518517	-0.115216	0.506238
C74	C	2.018517	0.384784	1.006238
C75	C	1.518369	-0.506051	0.233206
C76	C	2.018369	-0.006051	0.733206
C77	C	1.518539	-0.505798	0.116430
C78	C	2.018539	-0.005798	0.616430
C79	C	1.585722	-0.438679	0.951864
C80	C	2.085722	0.061321	1.451864
C81	C	1.585740	-0.438633	1.061588
C82	C	2.085740	0.061367	1.561588
C83	C	1.451308	-0.573004	1.061542
C84	C	1.951308	-0.073004	1.561542
C85	C	1.451285	-0.573044	0.951820
C86	C	1.951285	-0.073044	1.451820
H87	H	0.919346	-0.383991	0.384521
H88	H	1.419346	0.116009	0.884521
H89	H	1.396452	-0.905969	0.627995
H90	H	1.896452	-0.405969	1.127995
H91	H	1.634138	-0.916676	0.284211
H92	H	2.134138	-0.416676	0.784211
H93	H	1.118414	-0.383967	0.384482
H94	H	1.618414	0.116033	0.884482
F95	F	0.905724	-0.644911	0.644666
F96	F	1.405724	-0.144911	1.144666
F97	F	1.379728	-0.644570	0.893409
F98	F	1.879728	-0.144570	1.393409
F99	F	1.379759	-1.118750	0.644832
F100	F	1.879759	-0.618750	1.144832
F101	F	1.132208	-0.644906	0.644624
F102	F	1.632208	-0.144906	1.144624
F103	F	1.769584	-0.911590	0.390102
F104	F	2.269584	-0.411590	0.890102
F105	F	1.764363	-1.104720	0.399769
F106	F	2.264363	-0.604720	0.899769
H107	H	1.396587	-0.627687	1.106203
H108	H	1.896587	-0.127687	1.606203
F109	F	1.634917	-1.099384	0.255202
F110	F	2.134917	-0.599384	0.755202
F111	F	1.657254	-0.367197	0.893506
F112	F	2.157254	0.132803	1.393506
F113	F	1.657296	-0.367113	1.119990
F114	F	2.157296	0.132887	1.619990
