data_functionalizedCrystal
_audit_creation_method	'MofGen! by Chris Wilmer'
_symmetry_space_group_name_H-M	'P1'
_symmetry_Int_Tables_number	1
_symmetry_cell_setting	triclinic
loop_
_symmetry_equiv_pos_as_xyz
  x,y,z
_cell_length_a	6.817900
_cell_length_b	16.418049
_cell_length_c	12.200875
_cell_angle_alpha	94.314492
_cell_angle_beta	107.143593
_cell_angle_gamma	103.389670
loop_
_atom_site_label
_atom_site_type_symbol
_atom_site_fract_x
_atom_site_fract_y
_atom_site_fract_z
V1	V	-4.067906	-0.116076	-0.358066
V2	V	-3.817906	0.133924	-0.108066
V3	V	-3.567906	0.383924	0.141934
V4	V	-3.317906	0.633924	0.391934
O5	O	-4.055058	0.005382	-0.350834
O6	O	-3.805058	0.255382	-0.100834
O7	O	-3.555058	0.505382	0.149166
O8	O	-3.305058	0.755382	0.399166
O9	O	-4.018735	-0.229972	-0.356016
O10	O	-3.768735	0.020028	-0.106016
O11	O	-3.518735	0.270028	0.143984
O12	O	-3.268735	0.520028	0.393984
O13	O	-4.037635	-0.114377	-0.514048
O14	O	-3.787635	0.135623	-0.264048
O15	O	-3.537635	0.385623	-0.014048
O16	O	-3.287635	0.635623	0.235952
O17	O	-4.036027	-0.111013	-0.191708
O18	O	-3.786027	0.138987	0.058292
O19	O	-3.536027	0.388987	0.308292
O20	O	-3.286027	0.638987	0.558292
V21	V	-4.549284	-0.101538	-0.338119
V22	V	-4.299284	0.148462	-0.088119
V23	V	-4.049284	0.398462	0.161881
V24	V	-3.799284	0.648462	0.411881
O25	O	-4.333868	-0.147967	-0.401819
O26	O	-4.083868	0.102033	-0.151819
O27	O	-3.833868	0.352033	0.098181
O28	O	-3.583868	0.602033	0.348181
O29	O	-4.733520	-0.069648	-0.294366
O30	O	-4.483520	0.180352	-0.044366
O31	O	-4.233520	0.430352	0.205634
O32	O	-3.983520	0.680352	0.455634
O33	O	-4.375249	0.012357	-0.340168
O34	O	-4.125249	0.262357	-0.090168
O35	O	-3.875249	0.512357	0.159832
O36	O	-3.625249	0.762357	0.409832
O37	O	-4.679528	-0.222997	-0.345351
O38	O	-4.429528	0.027003	-0.095351
O39	O	-4.179528	0.277003	0.154649
O40	O	-3.929528	0.527003	0.404649
O41	O	-4.698559	-0.106602	-0.504477
O42	O	-4.448559	0.143398	-0.254477
O43	O	-4.198559	0.393398	-0.004477
O44	O	-3.948559	0.643398	0.245523
O45	O	-4.356349	-0.103238	-0.182137
O46	O	-4.106349	0.146762	0.067863
O47	O	-3.856349	0.396762	0.317863
O48	O	-3.606349	0.646762	0.567863
C49	C	-3.862961	-0.257734	-0.350471
C50	C	-3.612961	-0.007734	-0.100471
C51	C	-3.362961	0.242266	0.149529
C52	C	-3.112961	0.492266	0.399529
C53	C	-3.904166	-0.350846	-0.349835
C54	C	-3.654166	-0.100846	-0.099835
C55	C	-3.404166	0.149154	0.150165
C56	C	-3.154166	0.399154	0.400165
C57	C	-3.887069	-0.110280	-0.552054
C58	C	-3.637069	0.139720	-0.302054
C59	C	-3.387069	0.389720	-0.052054
C60	C	-3.137069	0.639720	0.197946
C61	C	-3.943598	-0.109644	-0.679573
C62	C	-3.693598	0.140356	-0.429573
C63	C	-3.443598	0.390356	-0.179573
C64	C	-3.193598	0.640356	0.070427
C65	C	-4.181698	-0.569338	-0.354132
C66	C	-3.931698	-0.319338	-0.104132
C67	C	-3.681698	-0.069338	0.145868
C68	C	-3.431698	0.180662	0.395868
C69	C	-4.220403	-0.656827	-0.353545
C70	C	-3.970403	-0.406827	-0.103545
C71	C	-3.720403	-0.156827	0.146455
C72	C	-3.470403	0.093173	0.396455
C73	C	-3.854851	-0.648276	-0.342060
C74	C	-3.604851	-0.398276	-0.092060
C75	C	-3.354851	-0.148276	0.157940
C76	C	-3.104851	0.101724	0.407940
C77	C	-3.816152	-0.560790	-0.342655
C78	C	-3.566152	-0.310790	-0.092655
C79	C	-3.316152	-0.060790	0.157345
C80	C	-3.066152	0.189210	0.407345
C81	C	-3.979580	-0.521322	-0.348686
C82	C	-3.729580	-0.271322	-0.098686
C83	C	-3.479580	-0.021322	0.151314
C84	C	-3.229580	0.228678	0.401314
C85	C	-4.056984	-0.696298	-0.347503
C86	C	-3.806984	-0.446298	-0.097503
C87	C	-3.556984	-0.196298	0.152497
C88	C	-3.306984	0.053702	0.402497
C89	C	-4.098949	-0.791157	-0.346866
C90	C	-3.848949	-0.541157	-0.096866
C91	C	-3.598949	-0.291157	0.153134
C92	C	-3.348949	-0.041157	0.403134
C93	C	-3.937614	-0.426457	-0.349325
C94	C	-3.687614	-0.176457	-0.099325
C95	C	-3.437614	0.073543	0.150675
C96	C	-3.187614	0.323543	0.400675
C97	C	-4.047053	-0.108481	-0.913044
C98	C	-3.797053	0.141519	-0.663044
C99	C	-3.547053	0.391519	-0.413044
C100	C	-3.297053	0.641519	-0.163044
C101	C	-3.989475	-0.109128	-0.783124
C102	C	-3.739475	0.140872	-0.533124
C103	C	-3.489475	0.390872	-0.283124
C104	C	-3.239475	0.640872	-0.033124
C105	C	-4.194364	0.040115	-0.345711
C106	C	-3.944364	0.290115	-0.095711
C107	C	-3.694364	0.540115	0.154289
C108	C	-3.444364	0.790115	0.404289
C109	C	-4.132398	0.133226	-0.346354
C110	C	-3.882398	0.383226	-0.096354
C111	C	-3.632398	0.633226	0.153646
C112	C	-3.382398	0.883226	0.403646
C113	C	-4.170256	-0.107337	-0.144124
C114	C	-3.920256	0.142663	0.105876
C115	C	-3.670256	0.392663	0.355876
C116	C	-3.420256	0.642663	0.605876
C117	C	-4.092965	-0.107969	-0.016604
C118	C	-3.842965	0.142031	0.233396
C119	C	-3.592965	0.392031	0.483396
C120	C	-3.342965	0.642031	0.733396
H121	H	-4.314773	-0.537206	-0.359041
H122	H	-4.064773	-0.287206	-0.109041
H123	H	-3.814773	-0.037206	0.140959
H124	H	-3.564773	0.212794	0.390959
F125	F	-3.601023	-0.509686	-0.336865
F126	F	-3.351023	-0.259686	-0.086865
F127	F	-3.101023	-0.009686	0.163135
F128	F	-2.851023	0.240314	0.413135
H129	H	-4.384986	-0.695918	-0.357982
H130	H	-4.134986	-0.445918	-0.107982
H131	H	-3.884986	-0.195918	0.142018
H132	H	-3.634986	0.054082	0.392018
F133	F	-3.680932	-0.690288	-0.335637
F134	F	-3.430932	-0.440288	-0.085637
F135	F	-3.180932	-0.190288	0.164363
F136	F	-2.930932	0.059712	0.414363
