data_functionalizedCrystal
_audit_creation_method	'MofGen! by Chris Wilmer'
_symmetry_space_group_name_H-M	'P1'
_symmetry_Int_Tables_number	1
_symmetry_cell_setting	triclinic
loop_
_symmetry_equiv_pos_as_xyz
  x,y,z
_cell_length_a	33.428889
_cell_length_b	33.428139
_cell_length_c	33.424847
_cell_angle_alpha	60.004234
_cell_angle_beta	60.008465
_cell_angle_gamma	59.994972
loop_
_atom_site_label
_atom_site_type_symbol
_atom_site_fract_x
_atom_site_fract_y
_atom_site_fract_z
O1	O	0.055565	-0.584504	0.488714
O2	O	0.020982	-0.455083	0.393778
O3	O	0.102943	-0.536959	0.393689
O4	O	-0.026396	-0.502628	0.488803
O5	O	0.130140	-0.509767	0.420792
O6	O	0.048179	-0.427891	0.420881
O7	O	0.082762	-0.557312	0.515817
Cu8	Cu	0.067954	-0.490119	0.470823
Cu9	Cu	0.035790	-0.522276	0.438771
O10	O	0.000801	-0.475436	0.515906
N11	N	0.090577	-0.467504	0.493370
N12	N	0.013171	-0.544895	0.416225
C13	C	0.143377	-0.280390	0.546067
C14	C	0.143515	-0.414755	0.680369
C15	C	0.143392	-0.414735	0.546069
C16	C	0.277766	-0.414702	0.545966
C17	C	0.158177	-0.324719	0.560828
C18	C	0.158255	-0.399967	0.636038
C19	C	0.233434	-0.399936	0.560773
C20	C	0.158186	-0.399955	0.560829
C21	C	0.124540	-0.223964	0.527278
C22	C	0.124565	-0.433545	0.527281
C23	C	0.177014	-0.381145	0.579617
C24	C	0.359814	-0.400540	0.502735
C25	C	0.411105	-0.417624	0.485606
C26	C	0.411136	-0.500620	0.517255
C27	C	0.359845	-0.483534	0.534385
C28	C	0.136887	-0.198305	0.476855
C29	C	0.119761	-0.147011	0.459777
C30	C	0.077945	-0.147038	0.543547
C31	C	0.095072	-0.198332	0.560625
C32	C	0.074134	-0.421169	0.539710
C33	C	0.057023	-0.438269	0.522625
C34	C	0.140770	-0.480120	0.480694
C35	C	0.157883	-0.463020	0.497773
C36	C	0.074339	-0.421208	0.762475
C37	C	0.057288	-0.438323	0.813768
C38	C	0.141075	-0.480183	0.813699
C39	C	0.158125	-0.463069	0.762404
C40	C	0.124756	-0.433580	0.736794
C41	C	0.334186	-0.433494	0.527123
C42	C	-0.173769	-0.597444	0.363037
C43	C	-0.039302	-0.597595	0.228856
C44	C	-0.039496	-0.597587	0.363300
C45	C	-0.039512	-0.731889	0.363237
C46	C	-0.129442	-0.612265	0.348329
C47	C	-0.054138	-0.612351	0.273187
C48	C	-0.054257	-0.687554	0.348440
C49	C	-0.054247	-0.612346	0.348477
C50	C	-0.230191	-0.578579	0.381758
C51	C	-0.020722	-0.578803	0.382168
C52	C	-0.073020	-0.631130	0.329609
C53	C	-0.053713	-0.813916	0.406386
C54	C	-0.036654	-0.865210	0.423504
C55	C	0.046338	-0.865293	0.391984
C56	C	0.029278	-0.813999	0.374865
C57	C	-0.255900	-0.590938	0.432169
C58	C	-0.307191	-0.573786	0.449185
C59	C	-0.307060	-0.531922	0.365377
C60	C	-0.255769	-0.549074	0.348360
C61	C	-0.033081	-0.528377	0.369764
C62	C	-0.016014	-0.511306	0.386922
C63	C	0.025770	-0.595083	0.428877
C64	C	0.008703	-0.612156	0.411725
C65	C	-0.032755	-0.528393	0.146761
C66	C	-0.015585	-0.511324	0.095468
C67	C	0.026262	-0.595106	0.095516
C68	C	0.009094	-0.612174	0.146811
C69	C	-0.020417	-0.578816	0.172432
C70	C	-0.020748	-0.788312	0.382068
N71	N	0.436037	-0.467415	0.493101
O72	O	0.592642	-0.471896	0.376066
O73	O	0.592838	-0.567146	0.505347
O74	O	0.592754	-0.566928	0.423360
O75	O	0.592727	-0.472113	0.458053
O76	O	0.511269	-0.539835	0.450606
O77	O	0.511353	-0.540052	0.532594
O78	O	0.511157	-0.444802	0.403312
Cu79	Cu	0.503815	-0.489954	0.470441
Cu80	Cu	0.600180	-0.521995	0.438219
O81	O	0.511242	-0.445020	0.485300
N82	N	0.667959	-0.544533	0.415554
N83	N	0.090544	-0.122107	0.493359
O84	O	-0.026406	0.034587	0.488773
O85	O	0.102877	0.034627	0.393499
O86	O	0.020848	0.034591	0.393771
O87	O	0.055623	0.034623	0.488500
O88	O	0.048051	-0.046899	0.420925
O89	O	0.130080	-0.046864	0.420653
O90	O	0.000796	-0.046903	0.515927
Cu91	Cu	0.067922	-0.054324	0.470769
Cu92	Cu	0.035752	0.042048	0.438656
O93	O	0.082825	-0.046867	0.515655
N94	N	0.013123	0.109830	0.416068
N95	N	0.090892	-0.467554	0.838649
O96	O	0.086330	-0.584488	0.995334
O97	O	-0.008902	-0.455160	0.995379
O98	O	-0.008679	-0.537172	0.995355
O99	O	0.086107	-0.502475	0.995358
O100	O	0.018452	-0.509990	0.913868
O101	O	0.018230	-0.427978	0.913891
O102	O	0.113461	-0.557306	0.913847
Cu103	Cu	0.068323	-0.490160	0.906429
Cu104	Cu	0.036237	-0.522306	1.002797
O105	O	0.113239	-0.475293	0.913870
N106	N	0.013667	-0.544916	1.070577
C107	C	0.031339	-0.425179	0.394250
C108	C	0.132837	-0.526572	0.394139
C109	C	0.072405	-0.587216	0.515344
C110	C	-0.029093	-0.485823	0.515455
C111	C	0.552119	-0.566716	0.535258
C112	C	0.552016	-0.566447	0.433726
C113	C	0.551873	-0.445232	0.373402
C114	C	0.551980	-0.445502	0.474933
C115	C	0.132731	-0.006013	0.393923
C116	C	0.031182	-0.006158	0.394293
C117	C	-0.029092	-0.006163	0.515469
C118	C	0.072491	-0.006119	0.515133
C119	C	-0.008451	-0.425276	0.954641
C120	C	-0.008170	-0.526833	0.954596
C121	C	0.113010	-0.587190	0.954585
C122	C	0.112735	-0.485627	0.954611
H123	H	0.047163	-0.397193	0.741627
H124	H	0.551811	-0.415327	0.336274
H125	H	0.551974	-0.415718	0.482355
H126	H	-0.038348	-0.388133	0.954654
C127	C	0.194973	-0.517353	0.954587
C128	C	0.152939	-0.475607	0.954604
H129	H	0.219791	-0.511167	0.954585
H130	H	0.206277	-0.525122	0.926169
H131	H	0.187357	-0.544080	0.983002
H132	H	0.160553	-0.448880	0.926188
H133	H	0.141633	-0.467832	0.983026
H134	H	0.023733	-0.006162	0.364531
C135	C	0.510181	-0.619849	0.457065
C136	C	0.552031	-0.606660	0.423711
H137	H	0.510192	-0.644677	0.450883
H138	H	0.481746	-0.592002	0.453439
H139	H	0.510227	-0.631821	0.489494
H140	H	0.551983	-0.594685	0.391282
H141	H	0.580474	-0.634512	0.427332
C142	C	-0.030693	-0.584651	0.954516
C143	C	-0.048354	-0.536834	0.954547
H144	H	-0.055501	-0.590823	0.954483
H145	H	-0.021783	-0.607260	0.982936
H146	H	-0.002821	-0.588294	0.926103
H147	H	-0.076224	-0.533192	0.982962
H148	H	-0.057270	-0.514219	0.926124
H149	H	0.142910	-0.624330	0.954565
C150	C	-0.100879	-0.509337	0.568936
C151	C	-0.079241	-0.475951	0.555775
H152	H	-0.131839	-0.503239	0.593826
H153	H	-0.080317	-0.541758	0.580812
H154	H	-0.105161	-0.505650	0.541097
H155	H	-0.074956	-0.479640	0.583613
H156	H	-0.099808	-0.443522	0.543901
C157	C	0.063180	-0.376367	0.584508
C158	C	0.037511	-0.388763	0.572137
H159	H	0.040569	-0.356362	0.604529
H160	H	0.083166	-0.358961	0.555499
H161	H	0.083208	-0.405374	0.601894
H162	H	0.017486	-0.359757	0.554748
H163	H	0.017516	-0.406170	0.601151
C164	C	-0.023817	-0.395210	0.808677
C165	C	0.001867	-0.424711	0.841992
H166	H	-0.058032	-0.386807	0.826103
H167	H	-0.015425	-0.412607	0.788671
H168	H	-0.015417	-0.366205	0.788669
H169	H	-0.006530	-0.453718	0.861998
H170	H	-0.006529	-0.407314	0.862006
H171	H	0.552170	-0.596617	0.572390
C172	C	0.191754	-0.575819	0.342530
C173	C	0.182983	-0.536445	0.353817
H174	H	0.222714	-0.581915	0.317639
H175	H	0.166829	-0.568069	0.331292
H176	H	0.191676	-0.604179	0.371004
H177	H	0.183058	-0.508084	0.325344
H178	H	0.207915	-0.544193	0.365054
C179	C	-0.026444	-0.344759	0.371587
C180	C	0.021365	-0.374992	0.353993
H181	H	-0.032601	-0.313777	0.346733
H182	H	-0.030093	-0.340511	0.399426
H183	H	-0.049061	-0.359482	0.380529
H184	H	0.043983	-0.360271	0.345055
H185	H	0.025019	-0.379239	0.326146
H186	H	0.169783	-0.005775	0.363939
H187	H	0.087072	-0.886205	0.386121
C188	C	-0.109579	-0.006176	0.538423
C189	C	-0.079216	-0.006165	0.555844
H190	H	-0.140525	-0.006171	0.563348
H191	H	-0.094928	-0.034596	0.529533
H192	H	-0.113881	0.022239	0.510578
H193	H	-0.074911	-0.034581	0.583687
H194	H	-0.093871	0.022259	0.564741
C195	C	0.130365	-0.006109	0.537640
C196	C	0.082545	-0.006121	0.555316
H197	H	0.136573	-0.006115	0.562450
H198	H	0.133992	0.022314	0.509784
H199	H	0.152962	-0.034522	0.528706
H200	H	0.059948	0.022294	0.564247
H201	H	0.078914	-0.034546	0.583182
C202	C	0.040615	-0.637603	0.597606
C203	C	0.082376	-0.637404	0.555600
H204	H	0.046773	-0.668587	0.622459
H205	H	0.013894	-0.631665	0.589975
H206	H	0.032861	-0.612698	0.608878
H207	H	0.090128	-0.662307	0.544327
H208	H	0.109105	-0.643348	0.563232
H209	H	0.168250	-0.504186	0.834549
H210	H	0.199181	-0.473148	0.741498
H211	H	0.167905	-0.504126	0.456671
C212	C	-0.019590	-0.442093	0.587303
C213	C	0.001589	-0.424676	0.536286
H214	H	-0.053812	-0.433704	0.595735
H215	H	-0.014173	-0.427688	0.601698
H216	H	-0.005155	-0.476701	0.599073
H217	H	-0.012843	-0.390067	0.524516
H218	H	-0.003832	-0.439078	0.521885
C219	C	0.238947	-0.506095	0.454596
C220	C	0.213318	-0.476615	0.484106
H221	H	0.273170	-0.514488	0.446160
H222	H	0.230501	-0.488687	0.425616
H223	H	0.230558	-0.535107	0.472005
H224	H	0.221704	-0.447601	0.466696
H225	H	0.221768	-0.494022	0.513091
H226	H	0.432025	-0.541365	0.523165
C227	C	0.344061	-0.543652	0.530068
C228	C	0.331681	-0.519763	0.561190
H229	H	0.326672	-0.566018	0.546615
H230	H	0.378278	-0.560981	0.520908
H231	H	0.335622	-0.520156	0.501579
H232	H	0.340124	-0.543259	0.589677
H233	H	0.297457	-0.502433	0.570357
C234	C	0.405927	-0.333869	0.456033
C235	C	0.439280	-0.381401	0.458793
H236	H	0.423323	-0.311507	0.439474
H237	H	0.385948	-0.332565	0.488167
H238	H	0.385897	-0.325297	0.438577
H239	H	0.459308	-0.389974	0.476252
H240	H	0.459268	-0.382706	0.426652
H241	H	0.338923	-0.359792	0.496821
H242	H	0.129813	-0.126117	0.418717
C243	C	0.143582	-0.214085	0.410741
C244	C	0.169276	-0.226479	0.440199
H245	H	0.163577	-0.231483	0.388114
H246	H	0.135152	-0.179868	0.393355
H247	H	0.114593	-0.222508	0.430776
H248	H	0.198263	-0.218053	0.420163
H249	H	0.177712	-0.260704	0.457586
C250	C	0.038342	-0.152217	0.628068
C251	C	0.045557	-0.118861	0.580202
H252	H	0.018343	-0.134821	0.650697
H253	H	0.069098	-0.172213	0.632966
H254	H	0.022684	-0.172233	0.633006
H255	H	0.061218	-0.098847	0.575263
H256	H	0.014795	-0.098857	0.575303
H257	H	-0.025639	-0.470264	0.074572
C258	C	0.102802	-0.276973	0.624003
C259	C	0.081535	-0.226537	0.616052
H260	H	0.094451	-0.294384	0.658223
H261	H	0.137399	-0.285348	0.609548
H262	H	0.090973	-0.285391	0.609638
H263	H	0.093368	-0.218117	0.630414
H264	H	0.046931	-0.218158	0.630514
C265	C	-0.039532	-0.462266	0.162576
C266	C	-0.065197	-0.491723	0.174921
H267	H	-0.059559	-0.439630	0.179963
H268	H	-0.031075	-0.444889	0.128358
H269	H	-0.010560	-0.482303	0.171043
H270	H	-0.094167	-0.471686	0.166451
H271	H	-0.073660	-0.509101	0.209146
C272	C	0.065893	-0.679638	0.100717
C273	C	0.058691	-0.631774	0.067354
H274	H	0.085918	-0.702273	0.083330
H275	H	0.035136	-0.684525	0.120675
H276	H	0.081519	-0.684577	0.120769
H277	H	0.043062	-0.626834	0.047304
H278	H	0.089454	-0.626885	0.047387
H279	H	-0.057039	-0.501216	0.345698
C280	C	-0.020127	-0.679936	0.204455
C281	C	0.022655	-0.667603	0.175029
H282	H	-0.011755	-0.714154	0.221877
H283	H	-0.037485	-0.671511	0.184397
H284	H	-0.040153	-0.662510	0.227053
H285	H	0.042678	-0.685026	0.152428
H286	H	0.040020	-0.676033	0.195088
H287	H	0.049734	-0.622248	0.452940
C288	C	-0.059000	-0.430205	0.343697
C289	C	-0.029581	-0.455877	0.373275
H290	H	-0.067368	-0.395986	0.335266
H291	H	-0.088021	-0.438564	0.361050
H292	H	-0.041559	-0.438650	0.314711
H293	H	-0.047024	-0.447434	0.402262
H294	H	-0.000555	-0.447514	0.355922
C295	C	-0.261184	-0.630586	0.516723
C296	C	-0.227785	-0.623368	0.468880
H297	H	-0.243824	-0.650605	0.539385
H298	H	-0.281190	-0.646221	0.521609
H299	H	-0.281182	-0.599827	0.521622
H300	H	-0.207789	-0.654127	0.463980
H301	H	-0.207770	-0.607733	0.463992
C302	C	0.051722	-0.693255	0.454920
C303	C	0.022289	-0.667586	0.425356
H304	H	0.060112	-0.727475	0.463331
H305	H	0.034285	-0.684829	0.483911
H306	H	0.080735	-0.684875	0.437561
H307	H	-0.006726	-0.675963	0.442716
H308	H	0.039726	-0.676016	0.396359
C309	C	0.113026	-0.819241	0.345437
C310	C	0.065516	-0.785858	0.348137
H311	H	0.135397	-0.801867	0.328939
H312	H	0.121622	-0.839248	0.327952
H313	H	0.114280	-0.839244	0.377591
H314	H	0.064261	-0.765858	0.315982
H315	H	0.056917	-0.765842	0.365622
H316	H	-0.063498	-0.886058	0.443304
H317	H	-0.094449	-0.793002	0.412253
H318	H	-0.328125	-0.583847	0.490235
H319	H	-0.234840	-0.539009	0.307312
C320	C	-0.301780	-0.492274	0.280824
C321	C	-0.335179	-0.499493	0.328667
H322	H	-0.319139	-0.472250	0.258162
H323	H	-0.281785	-0.523028	0.275923
H324	H	-0.281770	-0.476639	0.275940
H325	H	-0.355187	-0.515131	0.333552
H326	H	-0.355183	-0.468733	0.333570
