data_functionalizedCrystal
_audit_creation_method	'MofGen! by Chris Wilmer'
_symmetry_space_group_name_H-M	'P1'
_symmetry_Int_Tables_number	1
_symmetry_cell_setting	triclinic
loop_
_symmetry_equiv_pos_as_xyz
  x,y,z
_cell_length_a	11.792241
_cell_length_b	17.038272
_cell_length_c	10.868271
_cell_angle_alpha	89.994627
_cell_angle_beta	89.999893
_cell_angle_gamma	87.652486
loop_
_atom_site_label
_atom_site_type_symbol
_atom_site_fract_x
_atom_site_fract_y
_atom_site_fract_z
O1	O	1.516303	0.107207	-0.102203
O2	O	2.016303	0.607207	0.397797
O3	O	1.186930	0.118256	-0.102232
O4	O	1.686930	0.618256	0.397768
O5	O	1.349659	-0.001093	-0.102208
O6	O	1.849659	0.498907	0.397792
O7	O	1.353574	0.226555	-0.102227
O8	O	1.853574	0.726555	0.397773
O9	O	1.349644	-0.001097	0.102436
O10	O	1.849644	0.498903	0.602436
O11	O	1.186915	0.118251	0.102412
O12	O	1.686915	0.618251	0.602412
O13	O	1.516288	0.107202	0.102441
O14	O	2.016288	0.607202	0.602441
Zn15	Zn	1.351599	0.112726	0.134919
Zn16	Zn	1.851599	0.612726	0.634919
Zn17	Zn	1.351618	0.112732	-0.134710
Zn18	Zn	1.851618	0.612732	0.365290
O19	O	1.353559	0.226551	0.102417
O20	O	1.853559	0.726551	0.602417
C21	C	1.144571	0.117559	0.000086
C22	C	1.644571	0.617559	0.500086
C23	C	1.018375	0.115482	0.000076
C24	C	1.518375	0.615482	0.500076
C25	C	0.787328	0.111662	0.000111
C26	C	1.287328	0.611662	0.500111
C27	C	0.915899	0.113785	0.000092
C28	C	1.415899	0.613785	0.500092
C29	C	1.346090	-0.030239	0.000114
C30	C	1.846090	0.469761	0.500114
C31	C	1.335466	-0.117079	0.000112
C32	C	1.835466	0.382921	0.500112
C33	C	1.433006	-0.166762	0.000122
C34	C	1.933006	0.333238	0.500122
C35	C	1.423017	-0.248357	0.000110
C36	C	1.923017	0.251643	0.500110
C37	C	1.315487	-0.280267	0.000096
C38	C	1.815487	0.219733	0.500096
C39	C	1.217940	-0.230577	0.000083
C40	C	1.717940	0.269423	0.500083
C41	C	1.227930	-0.148984	0.000086
C42	C	1.727930	0.351016	0.500086
C43	C	1.280194	-0.526181	0.000076
C44	C	1.780194	-0.026181	0.500076
C45	C	1.270211	-0.607780	0.000076
C46	C	1.770211	-0.107780	0.500076
C47	C	1.475289	-0.625554	0.000101
C48	C	1.975289	-0.125554	0.500101
C49	C	1.485270	-0.543958	0.000112
C50	C	1.985270	-0.043958	0.500112
C51	C	1.387723	-0.494276	0.000092
C52	C	1.887723	0.005724	0.500092
C53	C	1.305274	-0.363669	0.000087
C54	C	1.805274	0.136331	0.500087
C55	C	1.397937	-0.410875	0.000092
C56	C	1.897937	0.089125	0.500092
C57	C	1.558647	0.107899	0.000120
C58	C	2.058647	0.607899	0.500120
C59	C	1.684843	0.109976	0.000122
C60	C	2.184843	0.609976	0.500122
C61	C	1.357127	0.255697	0.000093
C62	C	1.857127	0.755697	0.500093
C63	C	1.367751	0.342537	0.000086
C64	C	1.867751	0.842537	0.500086
N65	N	1.351594	0.112721	0.318933
N66	N	1.851594	0.612721	0.818933
N67	N	1.351632	0.112731	-0.318724
N68	N	1.851632	0.612731	0.181276
C69	C	1.351612	0.112730	0.569939
C70	C	1.851612	0.612730	1.069939
C71	C	1.351599	0.112728	0.430261
C72	C	1.851599	0.612728	0.930261
H73	H	1.520568	-0.140788	0.000141
H74	H	2.020568	0.359212	0.500141
H75	H	1.572832	-0.517984	0.000123
H76	H	2.072832	-0.017984	0.500123
H77	H	1.502445	-0.288806	0.000120
H78	H	2.002445	0.211194	0.500120
H79	H	1.554706	-0.666014	0.000115
H80	H	2.054706	-0.166014	0.500115
C81	C	1.174387	-0.472151	0.000254
C82	C	1.674387	0.027849	0.500254
C83	C	1.174136	-0.424779	0.105521
C84	C	1.674136	0.075221	0.605521
C85	C	1.076689	-0.374985	0.105719
C86	C	1.576689	0.125015	0.605719
H87	H	1.108832	-0.502742	0.000313
H88	H	1.608832	-0.002742	0.500313
H89	H	1.174024	-0.439903	-0.071075
H90	H	1.674024	0.060097	0.428925
H91	H	1.174489	-0.457023	0.176832
H92	H	1.674489	0.042977	0.676832
H93	H	1.239670	-0.394171	0.105485
H94	H	1.739670	0.105829	0.605485
H95	H	1.076326	-0.342737	0.034389
H96	H	1.576326	0.157263	0.534389
H97	H	1.011141	-0.405582	0.105774
H98	H	1.511141	0.094418	0.605774
H99	H	1.076511	-0.342832	0.177134
H100	H	1.576511	0.157168	0.677134
H101	H	1.182643	-0.633757	0.000085
H102	H	1.682643	-0.133757	0.500085
C103	C	1.121893	-0.095170	0.000138
C104	C	1.621893	0.404830	0.500138
C105	C	1.025584	-0.140577	0.000157
C106	C	1.525584	0.359423	0.500157
C107	C	0.927880	-0.091031	0.000213
C108	C	1.427880	0.408969	0.500213
H109	H	1.121377	-0.062951	-0.071208
H110	H	1.621377	0.437049	0.428792
H111	H	1.121455	-0.062985	0.071529
H112	H	1.621455	0.437015	0.571529
H113	H	1.026021	-0.172748	-0.071227
H114	H	1.526021	0.327252	0.428773
H115	H	1.026063	-0.172794	0.071498
H116	H	1.526063	0.327206	0.571498
H117	H	0.927442	-0.058846	0.071604
H118	H	1.427442	0.441154	0.571604
H119	H	0.927375	-0.058814	-0.071135
H120	H	1.427375	0.441186	0.428865
H121	H	0.862523	-0.121832	0.000237
H122	H	1.362523	0.378168	0.500237
C123	C	1.514609	-0.376125	-0.000084
C124	C	2.014609	0.123875	0.499916
C125	C	1.526331	-0.329778	-0.105351
C126	C	2.026331	0.170222	0.394649
C127	C	1.633788	-0.297737	-0.105542
C128	C	2.133788	0.202263	0.394458
H129	H	1.571384	-0.417315	-0.000138
H130	H	2.071384	0.082685	0.499862
H131	H	1.522766	-0.344623	0.071245
H132	H	2.022766	0.155377	0.571245
H133	H	1.518185	-0.361277	-0.176662
H134	H	2.018185	0.138723	0.323338
H135	H	1.469581	-0.288575	-0.105319
H136	H	1.969581	0.211425	0.394681
H137	H	1.641945	-0.266236	-0.034213
H138	H	2.141945	0.233764	0.465787
H139	H	1.690554	-0.338933	-0.105593
H140	H	2.190554	0.161067	0.394407
H141	H	1.641751	-0.266282	-0.176958
H142	H	2.141751	0.233718	0.323042
H143	H	1.130387	-0.256565	0.000064
H144	H	1.630387	0.243435	0.500064
H145	H	1.217723	-0.389660	0.000079
H146	H	1.717723	0.110340	0.500079
