data_functionalizedCrystal
_audit_creation_method	'MofGen! by Chris Wilmer'
_symmetry_space_group_name_H-M	'P1'
_symmetry_Int_Tables_number	1
_symmetry_cell_setting	triclinic
loop_
_symmetry_equiv_pos_as_xyz
  x,y,z
_cell_length_a	13.339070
_cell_length_b	16.109302
_cell_length_c	15.186229
_cell_angle_alpha	90.007553
_cell_angle_beta	89.997216
_cell_angle_gamma	99.545538
loop_
_atom_site_label
_atom_site_type_symbol
_atom_site_fract_x
_atom_site_fract_y
_atom_site_fract_z
O1	O	0.130019	1.133155	0.073266
O2	O	0.146199	0.894830	0.073259
O3	O	-0.009146	0.986640	0.073259
O4	O	0.285363	1.041345	0.073266
O5	O	-0.009137	0.986627	-0.073198
O6	O	0.146208	0.894817	-0.073198
O7	O	0.130027	1.133142	-0.073191
Zn8	Zn	0.138119	1.013977	-0.096448
Zn9	Zn	0.138107	1.013995	0.096516
O10	O	0.285372	1.041332	-0.073191
C11	C	0.145548	0.863697	0.000030
C12	C	0.143582	0.770948	0.000027
C13	C	0.139043	0.557550	-0.079798
C14	C	0.137185	0.470401	-0.079795
C15	C	0.137181	0.470427	0.079880
C16	C	0.139031	0.557574	0.079876
C17	C	0.139967	0.601134	0.000034
C18	C	0.136259	0.426838	0.000041
C19	C	0.134245	0.332348	0.000045
C20	C	0.141979	0.695630	0.000030
C21	C	-0.046828	0.977393	0.000031
C22	C	-0.159121	0.949849	0.000034
C23	C	-0.523983	1.164017	0.000040
C24	C	-0.418479	1.189899	0.000033
C25	C	-0.353634	1.129889	0.000033
C26	C	-0.394304	1.043992	0.000041
C27	C	-0.499819	1.018108	0.000042
C28	C	-0.329470	0.983980	0.000035
C29	C	-0.370139	0.898083	0.000042
C30	C	-0.475644	0.872203	0.000044
C31	C	-0.540489	0.932214	0.000043
C32	C	-0.223955	1.009864	0.000034
C33	C	-0.199790	0.863955	0.000036
C34	C	-0.305295	0.838073	0.000043
C35	C	0.323054	1.050579	0.000038
C36	C	0.435347	1.078123	0.000041
C37	C	0.130679	1.164275	0.000040
C38	C	0.132644	1.257024	0.000049
N39	N	0.138126	1.013972	-0.228141
C40	C	0.199481	1.078563	-0.453860
C41	C	0.199473	1.078570	-0.546050
C42	C	0.076730	0.949411	-0.546065
C43	C	0.076733	0.949407	-0.453877
C44	C	0.138114	1.013983	-0.407777
C45	C	0.138104	1.013994	-0.592155
C46	C	0.138096	1.014001	-0.692111
C47	C	0.138121	1.013977	-0.307815
N48	N	0.138092	1.014005	0.228209
H49	H	0.139781	0.593060	0.144890
C50	C	0.140060	0.605462	-0.167627
N51	N	0.140822	0.641546	-0.233782
C52	C	0.136180	0.422465	-0.167618
N53	N	0.135426	0.386361	-0.233770
H54	H	0.026756	0.896817	-0.416355
C55	C	-0.595318	1.230018	0.000033
N56	N	-0.649049	1.279734	0.000027
C57	C	-0.350046	0.743588	0.000039
N58	N	-0.383753	0.672423	0.000032
H59	H	0.136420	0.434950	0.144885
C60	C	-0.179231	1.104347	0.000032
N61	N	-0.145546	1.175518	0.000033
H62	H	0.249443	1.131158	-0.583567
H63	H	0.026757	0.896834	-0.583611
C64	C	-0.656551	0.903748	0.000041
N65	N	-0.743972	0.882310	0.000035
C66	C	-0.520377	0.777715	0.000043
N67	N	-0.554068	0.706546	0.000043
C68	C	-0.373750	1.284382	0.000025
N69	N	-0.340060	1.355551	0.000021
H70	H	-0.146993	0.815089	0.000032
H71	H	-0.267729	1.150967	0.000027
C72	C	0.266992	1.149603	-0.403153
N73	N	0.317841	1.203115	-0.364963
