data_functionalizedCrystal
_audit_creation_method	'MofGen! by Chris Wilmer'
_symmetry_space_group_name_H-M	'P1'
_symmetry_Int_Tables_number	1
_symmetry_cell_setting	triclinic
loop_
_symmetry_equiv_pos_as_xyz
  x,y,z
_cell_length_a	14.908618
_cell_length_b	11.169417
_cell_length_c	11.169409
_cell_angle_alpha	89.980176
_cell_angle_beta	86.730959
_cell_angle_gamma	93.294137
loop_
_atom_site_label
_atom_site_type_symbol
_atom_site_fract_x
_atom_site_fract_y
_atom_site_fract_z
Zn1	Zn	0.359054	1.862604	-0.706151
Zn2	Zn	0.509943	1.874110	-0.517070
Zn3	Zn	0.359109	1.661894	-0.505490
Zn4	Zn	0.509869	1.673508	-0.717710
O5	O	0.434494	1.768029	-0.611605
O6	O	0.379078	2.032081	-0.681079
O7	O	0.489988	1.845914	-0.347588
O8	O	0.232861	1.678843	-0.522424
O9	O	0.489935	2.040534	-0.542162
O10	O	0.232820	1.826304	-0.669849
O11	O	0.379171	1.690000	-0.339080
O12	O	0.379100	1.495485	-0.533632
O13	O	0.489810	1.698638	-0.884122
O14	O	0.489863	1.504017	-0.689549
O15	O	0.379006	1.837566	-0.875630
O16	O	0.636174	1.857175	-0.553369
O17	O	0.636120	1.709794	-0.700778
C18	C	0.434480	1.456203	-0.611589
C19	C	0.434496	1.322805	-0.611612
C20	C	0.199193	1.749995	-0.593556
C21	C	0.098921	1.742310	-0.585864
C22	C	-0.042387	1.654714	-0.498274
C23	C	0.051827	1.661929	-0.505496
C24	C	0.051795	1.815484	-0.659013
C25	C	-0.042419	1.808269	-0.651791
C26	C	-0.089507	1.727880	-0.571420
C27	C	-0.183722	1.720660	-0.564204
C28	C	-0.183753	1.874221	-0.717715
C29	C	-0.089539	1.881436	-0.724937
C30	C	0.668880	1.786026	-0.629611
C31	C	0.769151	1.793835	-0.637354
C32	C	0.434394	1.768114	-0.924640
C33	C	0.434351	1.768150	-1.058037
C34	C	0.434508	2.081073	-0.611623
C35	C	0.434514	2.214473	-0.611630
C36	C	0.434529	1.768009	-0.299783
C37	C	0.434317	1.768186	-0.166368
H38	H	-0.222060	1.655201	-0.498765
H39	H	0.090150	1.880942	-0.724439
H40	H	-0.080726	1.589250	-0.432840
H41	H	-0.222128	1.933795	-0.777279
H42	H	0.090188	1.602349	-0.445932
Cl43	Cl	-0.030334	1.982492	-0.825968
