data_functionalizedCrystal
_audit_creation_method	'MofGen! by Chris Wilmer'
_symmetry_space_group_name_H-M	'P1'
_symmetry_Int_Tables_number	1
_symmetry_cell_setting	triclinic
loop_
_symmetry_equiv_pos_as_xyz
  x,y,z
_cell_length_a	10.723022
_cell_length_b	10.723024
_cell_length_c	15.455313
_cell_angle_alpha	92.691723
_cell_angle_beta	87.293625
_cell_angle_gamma	84.467548
loop_
_atom_site_label
_atom_site_type_symbol
_atom_site_fract_x
_atom_site_fract_y
_atom_site_fract_z
O1	O	1.662612	0.169607	-0.072123
O2	O	1.299460	0.186362	-0.072126
O3	O	1.489412	-0.003592	-0.072121
O4	O	1.472659	0.359560	-0.072128
O5	O	1.478550	0.007226	0.072141
O6	O	1.288597	0.197179	0.072136
O7	O	1.651749	0.180424	0.072139
Cu8	Cu	1.469181	0.189789	0.085310
Cu9	Cu	1.482028	0.176997	-0.085296
O10	O	1.461797	0.370378	0.072134
C11	C	1.247529	0.190552	0.000005
C12	C	1.108974	0.186905	0.000004
C13	C	1.060413	0.077365	0.000005
C14	C	0.917211	0.073593	0.000004
C15	C	1.482762	-0.044683	0.000009
C16	C	1.479114	-0.183237	0.000006
C17	C	1.585402	-0.258220	0.000005
C18	C	1.581635	-0.401424	0.000002
C19	C	1.703681	0.176234	0.000007
C20	C	1.842235	0.179881	0.000002
C21	C	1.468447	0.411469	0.000003
C22	C	1.472095	0.550023	-0.000000
N23	N	1.460155	0.198786	0.205305
N24	N	1.491064	0.167990	-0.205292
C25	C	1.540882	0.118118	0.250701
C26	C	1.534067	0.124933	0.341509
C27	C	1.446531	0.212425	0.386919
C28	C	1.365795	0.293097	0.341517
C29	C	1.372605	0.286274	0.250710
C30	C	1.417138	0.241840	0.658500
C31	C	1.410337	0.248659	0.749312
C32	C	1.578608	0.080493	0.749298
C33	C	1.585415	0.073683	0.658491
C34	C	1.504675	0.154351	0.613096
N35	N	1.439566	0.219396	0.479739
N36	N	1.511635	0.147372	0.520278
H37	H	0.884038	0.273673	0.000006
Br38	Br	1.001579	0.338568	-0.000010
H39	H	1.599801	0.059246	0.378470
H40	H	1.294514	0.364330	0.378495
H41	H	1.124856	-0.013624	0.000003
H42	H	1.679188	-0.216398	0.000011
H43	H	1.672625	-0.465857	0.000006
H44	H	1.381099	-0.385551	0.000006
H45	H	1.306866	0.351962	0.213750
H46	H	1.385329	-0.225059	-0.000001
Br47	Br	1.688177	-0.028982	0.810908
Br48	Br	0.847530	-0.082734	0.000017
H49	H	1.612169	0.046878	0.213734
H50	H	1.656695	0.002441	0.621520
Br51	Br	1.291532	0.367413	0.810935
H52	H	1.351398	0.307525	0.621547
