data_functionalizedCrystal
_audit_creation_method	'MofGen! by Chris Wilmer'
_symmetry_space_group_name_H-M	'P1'
_symmetry_Int_Tables_number	1
_symmetry_cell_setting	triclinic
loop_
_symmetry_equiv_pos_as_xyz
  x,y,z
_cell_length_a	23.532361
_cell_length_b	26.809956
_cell_length_c	23.532407
_cell_angle_alpha	89.990736
_cell_angle_beta	97.160827
_cell_angle_gamma	90.011773
loop_
_atom_site_label
_atom_site_type_symbol
_atom_site_fract_x
_atom_site_fract_y
_atom_site_fract_z
O1	O	0.755286	0.041435	-0.069007
O2	O	1.255286	0.541435	0.430993
O3	O	0.589419	0.041447	-0.079038
O4	O	1.089419	0.541447	0.420962
O5	O	0.677355	0.041431	0.008910
O6	O	1.177355	0.541431	0.508910
O7	O	0.667351	0.041450	-0.156955
O8	O	1.167351	0.541450	0.343045
O9	O	0.677328	-0.041528	0.008910
O10	O	1.177328	0.458472	0.508910
O11	O	0.589392	-0.041512	-0.079038
O12	O	1.089392	0.458488	0.420962
O13	O	0.755259	-0.041525	-0.069007
O14	O	1.255259	0.458475	0.430993
Zn15	Zn	0.672322	-0.054690	-0.074023
Zn16	Zn	1.172322	0.445310	0.425977
Zn17	Zn	0.672357	0.054613	-0.074023
Zn18	Zn	1.172357	0.554613	0.425977
O19	O	0.667324	-0.041509	-0.156955
O20	O	1.167324	0.458491	0.343045
C21	C	0.568189	-0.000031	-0.078787
C22	C	1.068189	0.499969	0.421213
C23	C	0.504971	-0.000026	-0.078032
C24	C	1.004971	0.499974	0.421968
N25	N	0.672302	-0.129286	-0.074022
N26	N	1.172302	0.370714	0.425978
C27	C	0.231742	0.045191	-0.074728
C28	C	0.731742	0.545191	0.425272
C29	C	0.291141	0.045193	-0.075443
C30	C	0.791141	0.545193	0.424557
O31	O	0.321880	0.083651	-0.075793
O32	O	0.821880	0.583651	0.424207
N33	N	0.320832	-0.000029	-0.075804
N34	N	0.820832	0.499971	0.424196
C35	C	0.291121	-0.045254	-0.075445
C36	C	0.791121	0.454746	0.424555
O37	O	0.321830	-0.083718	-0.075817
O38	O	0.821830	0.416282	0.424183
C39	C	0.231723	-0.045255	-0.074726
C40	C	0.731723	0.454745	0.425274
C41	C	0.202035	-0.000031	-0.074370
C42	C	0.702035	0.499969	0.425630
C43	C	0.202053	0.090412	-0.074372
C44	C	0.702053	0.590412	0.425628
C45	C	0.142657	0.090410	-0.073658
C46	C	0.642657	0.590410	0.426342
C47	C	0.112950	0.045188	-0.073301
C48	C	0.612950	0.545188	0.426699
C49	C	0.142639	-0.000032	-0.073657
C50	C	0.642639	0.499968	0.426343
C51	C	0.202014	-0.090480	-0.074362
C52	C	0.702014	0.409520	0.425638
C53	C	0.142612	-0.090477	-0.073642
C54	C	0.642612	0.409523	0.426358
C55	C	0.112923	-0.045253	-0.073287
C56	C	0.612923	0.454747	0.426713
C57	C	0.053536	-0.045256	-0.072585
C58	C	0.553536	0.454744	0.427415
N59	N	0.023845	-0.000034	-0.072224
N60	N	0.523845	0.499966	0.427776
C61	C	0.053552	0.045188	-0.072582
C62	C	0.553552	0.545188	0.427418
C63	C	0.415862	-0.045249	-0.076954
C64	C	0.915862	0.454751	0.423046
C65	C	0.475258	-0.045249	-0.077677
C66	C	0.975258	0.454751	0.422323
C67	C	0.475274	0.045198	-0.077674
C68	C	0.975274	0.545198	0.422326
C69	C	0.415876	0.045197	-0.076955
C70	C	0.915876	0.545197	0.423045
C71	C	0.386171	-0.000028	-0.076593
C72	C	0.886171	0.499972	0.423407
C73	C	-0.071184	0.045181	-0.071083
C74	C	0.428816	0.545181	0.428917
C75	C	-0.130585	0.045175	-0.070372
C76	C	0.369415	0.545175	0.429628
C77	C	-0.130595	-0.045271	-0.070371
C78	C	0.369405	0.454729	0.429629
C79	C	-0.071200	-0.045266	-0.071086
C80	C	0.428800	0.454734	0.428914
C81	C	-0.041495	-0.000036	-0.071440
C82	C	0.458505	0.499964	0.428560
O83	O	0.022760	-0.083694	-0.072232
O84	O	0.522760	0.416306	0.427768
O85	O	0.022837	0.083645	-0.072202
O86	O	0.522837	0.583645	0.427798
C87	C	0.706694	-0.473911	-0.108377
C88	C	1.206694	0.026089	0.391623
C89	C	0.706713	-0.682788	-0.108377
C90	C	1.206713	-0.182788	0.391623
O91	O	0.735940	-0.709791	-0.137580
O92	O	1.235940	-0.209791	0.362420
N93	N	0.672371	-0.708913	-0.074017
N94	N	1.172371	-0.208913	0.425983
C95	C	0.638024	-0.682815	-0.039652
C96	C	1.138024	-0.182815	0.460348
O97	O	0.608819	-0.709828	-0.010422
O98	O	1.108819	-0.209828	0.489578
C99	C	0.638010	-0.473938	-0.039650
C100	C	1.138010	0.026062	0.460350
C101	C	0.672349	-0.447816	-0.074016
C102	C	1.172349	0.052184	0.425984
C103	C	0.741032	-0.447789	-0.142740
C104	C	1.241032	0.052211	0.357260
C105	C	0.741025	-0.395572	-0.142743
C106	C	1.241025	0.104428	0.357257
C107	C	0.706680	-0.369478	-0.108381
C108	C	1.206680	0.130522	0.391619
C109	C	0.672342	-0.395600	-0.074018
C110	C	1.172342	0.104400	0.425982
C111	C	0.603667	-0.447841	-0.005282
C112	C	1.103667	0.052159	0.494718
C113	C	0.603667	-0.395619	-0.005283
C114	C	1.103667	0.104381	0.494717
C115	C	0.638007	-0.369497	-0.039650
C116	C	1.138007	0.130503	0.460350
C117	C	0.637990	-0.317289	-0.039659
C118	C	1.137990	0.182711	0.460341
N119	N	0.672332	-0.291165	-0.074019
N120	N	1.172332	0.208835	0.425981
C121	C	0.706677	-0.317259	-0.108380
C122	C	1.206677	0.182741	0.391620
C123	C	0.638034	-0.792478	-0.039656
C124	C	1.138034	-0.292478	0.460344
C125	C	0.638037	-0.844697	-0.039657
C126	C	1.138037	-0.344697	0.460343
C127	C	0.706726	-0.844667	-0.108382
C128	C	1.206726	-0.344667	0.391618
C129	C	0.706720	-0.792447	-0.108383
C130	C	1.206720	-0.292447	0.391617
C131	C	0.672376	-0.766354	-0.074016
C132	C	1.172376	-0.266354	0.425984
C133	C	0.706659	-0.207601	-0.108382
C134	C	1.206659	0.292399	0.391618
C135	C	0.706646	-0.155380	-0.108383
C136	C	1.206646	0.344620	0.391617
C137	C	0.637960	-0.155415	-0.039657
C138	C	1.137960	0.344585	0.460343
C139	C	0.637969	-0.207631	-0.039658
C140	C	1.137969	0.292369	0.460342
C141	C	0.672323	-0.233723	-0.074023
C142	C	1.172323	0.266277	0.425977
O143	O	0.608783	-0.290255	-0.010466
O144	O	1.108783	0.209745	0.489534
O145	O	0.735887	-0.290237	-0.137596
O146	O	1.235887	0.209763	0.362404
C147	C	0.706702	-0.526127	-0.108375
C148	C	1.206702	-0.026127	0.391625
C149	C	0.672364	-0.552249	-0.074012
C150	C	1.172364	-0.052249	0.425988
C151	C	0.638019	-0.526155	-0.039651
C152	C	1.138019	-0.026155	0.460349
C153	C	0.672367	-0.604468	-0.074013
C154	C	1.172367	-0.104468	0.425987
C155	C	0.706712	-0.630562	-0.108374
C156	C	1.206712	-0.130562	0.391626
C157	C	0.741054	-0.604437	-0.142734
C158	C	1.241054	-0.104437	0.357266
C159	C	0.741047	-0.552221	-0.142736
C160	C	1.241047	-0.052221	0.357264
C161	C	0.603677	-0.552279	-0.005291
C162	C	1.103677	-0.052279	0.494709
C163	C	0.603687	-0.604496	-0.005292
C164	C	1.103687	-0.104496	0.494708
C165	C	0.638032	-0.630590	-0.039653
C166	C	1.138032	-0.130590	0.460347
C167	C	0.776489	-0.000045	-0.069258
C168	C	1.276489	0.499955	0.430742
C169	C	0.839708	-0.000047	-0.070014
C170	C	1.339708	0.499953	0.429986
C171	C	0.677086	-0.000049	0.030126
C172	C	1.177086	0.499951	0.530126
C173	C	0.676320	-0.000053	0.093343
C174	C	1.176320	0.499947	0.593343
N175	N	0.672382	0.129208	-0.074019
N176	N	1.172382	0.629208	0.425981
C177	C	0.667592	-0.000027	-0.178171
C178	C	1.167592	0.499973	0.321829
C179	C	0.668358	-0.000020	-0.241388
C180	C	1.168358	0.499980	0.258612
C181	C	0.723555	-0.000030	0.492454
C182	C	1.223555	0.499970	0.992454
C183	C	0.722844	-0.000026	0.551854
C184	C	1.222844	0.499974	1.051854
O185	O	0.766630	-0.000011	0.588606
O186	O	1.266630	0.499989	1.088606
N187	N	0.670566	-0.000022	0.574471
N188	N	1.170566	0.499978	1.074471
C189	C	0.618997	-0.000017	0.537685
C190	C	1.118997	0.499983	1.037685
O191	O	0.574465	-0.000013	0.562377
O192	O	1.074465	0.499987	1.062377
C193	C	0.619709	-0.000017	0.478286
C194	C	1.119709	0.499983	0.978286
C195	C	0.671990	-0.000026	0.455672
C196	C	1.171990	0.499974	0.955672
C197	C	0.775832	-0.000038	0.469839
C198	C	1.275832	0.499962	0.969839
C199	C	0.776543	-0.000042	0.410443
C200	C	1.276543	0.499958	0.910443
C201	C	0.724977	-0.000039	0.373662
C202	C	1.224977	0.499961	0.873662
C203	C	0.672701	-0.000031	0.396276
C204	C	1.172701	0.499969	0.896276
C205	C	0.568140	-0.000009	0.441501
C206	C	1.068140	0.499991	0.941501
C207	C	0.568857	-0.000009	0.382099
C208	C	1.068857	0.499991	0.882099
C209	C	0.621137	-0.000018	0.359485
C210	C	1.121137	0.499982	0.859485
C211	C	0.621847	-0.000032	0.300099
C212	C	1.121847	0.499968	0.800099
N213	N	0.674124	-0.000036	0.277481
N214	N	1.174124	0.499964	0.777481
C215	C	0.725690	-0.000039	0.314263
C216	C	1.225690	0.499961	0.814263
C217	C	0.617505	-0.000016	0.662427
C218	C	1.117505	0.499984	1.162427
C219	C	0.616793	-0.000019	0.721825
C220	C	1.116793	0.499981	1.221825
C221	C	0.720640	-0.000027	0.735990
C222	C	1.220640	0.499973	1.235990
C223	C	0.721352	-0.000027	0.676591
C224	C	1.221352	0.499973	1.176591
C225	C	0.669783	-0.000019	0.639810
C226	C	1.169783	0.499981	1.139810
C227	C	0.727179	-0.000050	0.189526
C228	C	1.227179	0.499950	0.689526
C229	C	0.727886	-0.000057	0.130124
C230	C	1.227886	0.499943	0.630124
C231	C	0.624039	-0.000046	0.115965
C232	C	1.124039	0.499954	0.615965
C233	C	0.623332	-0.000042	0.175361
C234	C	1.123332	0.499958	0.675361
C235	C	0.674907	-0.000042	0.212141
C236	C	1.174907	0.499958	0.712141
O237	O	0.578083	-0.000045	0.263312
O238	O	1.078083	0.499955	0.763312
O239	O	0.770214	-0.000037	0.289562
O240	O	1.270214	0.499963	0.789562
H241	H	-0.154755	0.082004	-0.070084
H242	H	0.345245	0.582004	0.429916
O243	O	0.739953	-0.129929	-0.141754
O244	O	1.239953	0.370071	0.358246
C245	C	0.732595	-0.078242	-0.134382
C246	C	1.232595	0.421758	0.365618
H247	H	0.689554	-0.071122	-0.118370
H248	H	1.189554	0.428878	0.381630
H249	H	0.768499	-0.063417	-0.101751
H250	H	1.268499	0.436583	0.398249
C251	C	0.787064	-0.060174	-0.211702
C252	C	1.287064	0.439826	0.288298
C253	C	0.734197	-0.051428	-0.192041
C254	C	1.234197	0.448572	0.307959
H255	H	0.788055	-0.043633	-0.247267
H256	H	1.288055	0.456367	0.252733
H257	H	0.792023	-0.094996	-0.216667
H258	H	1.292023	0.405004	0.283333
H259	H	0.816978	-0.047819	-0.184504
H260	H	1.316978	0.452181	0.315496
H261	H	0.704285	-0.063789	-0.219234
H262	H	1.204285	0.436211	0.280766
H263	H	0.729233	-0.016608	-0.187081
H264	H	1.229233	0.483392	0.312919
O265	O	0.778689	0.000026	0.108186
O266	O	1.278689	0.500026	0.608186
C267	C	0.810120	0.042984	0.127013
C268	C	1.310120	0.542984	0.627013
H269	H	0.779552	0.073017	0.139188
H270	H	1.279552	0.573017	0.639188
H271	H	0.842077	0.033270	0.165913
H272	H	1.342077	0.533270	0.665913
C273	C	0.880122	0.025572	0.063633
C274	C	1.380122	0.525572	0.563633
C275	C	0.842577	0.062461	0.078582
C276	C	1.342577	0.562461	0.578582
H277	H	0.900146	0.037586	0.033760
H278	H	1.400146	0.537586	0.533760
H279	H	0.858948	-0.003370	0.050950
H280	H	1.358948	0.496630	0.550950
H281	H	0.906748	0.017481	0.096054
H282	H	1.406748	0.517481	0.596054
H283	H	0.815948	0.070547	0.046163
H284	H	1.315948	0.570547	0.546163
H285	H	0.863748	0.091406	0.091258
H286	H	1.363748	0.591406	0.591258
O287	O	0.740043	-0.232864	-0.141818
O288	O	1.240043	0.267136	0.358182
C289	C	0.770355	-0.198602	-0.172134
C290	C	1.270355	0.301398	0.327866
H291	H	0.746751	-0.161387	-0.175575
H292	H	1.246751	0.338613	0.324425
H293	H	0.815191	-0.193038	-0.148439
H294	H	1.315191	0.306962	0.351561
C295	C	0.803775	-0.264674	-0.228382
C296	C	1.303775	0.235326	0.271618
C297	C	0.774782	-0.218966	-0.232612
C298	C	1.274782	0.281034	0.267388
H299	H	0.806509	-0.277235	-0.265687
H300	H	1.306509	0.222765	0.234313
H301	H	0.783355	-0.287757	-0.207956
H302	H	1.283355	0.212243	0.292044
H303	H	0.841136	-0.260030	-0.208634
H304	H	1.341136	0.239970	0.291366
H305	H	0.737420	-0.223611	-0.252354
H306	H	1.237420	0.276389	0.247646
H307	H	0.795196	-0.195884	-0.253043
H308	H	1.295196	0.304116	0.246957
O309	O	0.774355	-0.370258	-0.176204
O310	O	1.274355	0.129742	0.323796
C311	C	0.758238	-0.383010	-0.234095
C312	C	1.258238	0.116990	0.265905
H313	H	0.736131	-0.420925	-0.236652
H314	H	1.236131	0.079075	0.263348
H315	H	0.727572	-0.353622	-0.255239
H316	H	1.227572	0.146378	0.244761
C317	C	0.839074	-0.338851	-0.262179
C318	C	1.339074	0.161149	0.237821
C319	C	0.811926	-0.385421	-0.265318
C320	C	1.311926	0.114579	0.234682
H321	H	0.872190	-0.340336	-0.281440
H322	H	1.372190	0.159664	0.218560
H323	H	0.849931	-0.330258	-0.223177
H324	H	1.349931	0.169742	0.276823
H325	H	0.813513	-0.314366	-0.279798
H326	H	1.313513	0.185634	0.220202
H327	H	0.837485	-0.409904	-0.247694
H328	H	1.337485	0.090096	0.252306
H329	H	0.801074	-0.394018	-0.304319
H330	H	1.301074	0.105982	0.195681
O331	O	0.827314	-0.000132	0.388452
O332	O	1.327314	0.499868	0.888452
C333	C	0.830823	-0.043090	0.354512
C334	C	1.330823	0.456910	0.854512
H335	H	0.801136	-0.073122	0.368392
H336	H	1.301136	0.426878	0.868392
H337	H	0.817421	-0.033376	0.307589
H338	H	1.317421	0.466624	0.807589
C339	C	0.929326	-0.025686	0.345026
C340	C	1.429326	0.474314	0.845026
C341	C	0.892867	-0.062572	0.362077
C342	C	1.392867	0.437428	0.862077
H343	H	0.967597	-0.037702	0.349690
H344	H	1.467597	0.462298	0.849690
H345	H	0.926961	0.003257	0.367890
H346	H	1.426961	0.503257	0.867890
H347	H	0.918150	-0.017594	0.305925
H348	H	1.418150	0.482406	0.805925
H349	H	0.904038	-0.070659	0.401180
H350	H	1.404038	0.429341	0.901180
H351	H	0.895235	-0.091517	0.339220
H352	H	1.395235	0.408483	0.839220
H353	H	0.582056	-0.000045	0.086007
H354	H	1.082056	0.499955	0.586007
O355	O	-0.042426	0.089161	-0.071456
O356	O	0.457574	0.589161	0.428544
C357	C	-0.081375	0.129069	-0.070977
C358	C	0.418625	0.629069	0.429023
H359	H	-0.126178	0.115804	-0.088496
H360	H	0.373822	0.615804	0.411504
H361	H	-0.081453	0.142972	-0.025206
H362	H	0.418547	0.642972	0.474794
C363	C	-0.008266	0.188091	-0.087099
C364	C	0.491734	0.688091	0.412901
C365	C	-0.063294	0.171800	-0.108621
C366	C	0.436706	0.671800	0.391379
H367	H	0.002888	0.214451	-0.110318
H368	H	0.502888	0.714451	0.389682
H369	H	0.017976	0.161205	-0.087420
H370	H	0.517976	0.661205	0.412580
H371	H	-0.008338	0.199673	-0.048957
H372	H	0.491662	0.699673	0.451043
H373	H	-0.063219	0.160212	-0.146759
H374	H	0.436781	0.660212	0.353241
H375	H	-0.089535	0.198685	-0.108307
H376	H	0.410465	0.698685	0.391693
O377	O	0.565957	0.000006	0.743694
O378	O	1.065957	0.500006	1.243694
C379	C	0.520601	-0.000006	0.698485
C380	C	1.020601	0.499994	1.198485
H381	H	0.536340	0.015696	0.658219
H382	H	1.036340	0.515696	1.158219
H383	H	0.504699	-0.039805	0.689998
H384	H	1.004699	0.460195	1.189998
C385	C	0.451944	0.013249	0.764416
C386	C	0.951944	0.513249	1.264416
C387	C	0.471274	0.032538	0.714961
C388	C	0.971274	0.532538	1.214961
H389	H	0.421515	0.033321	0.774579
H390	H	0.921515	0.533321	1.274579
H391	H	0.482500	0.013255	0.794874
H392	H	0.982500	0.513255	1.294874
H393	H	0.438697	-0.019916	0.757337
H394	H	0.938697	0.480084	1.257337
H395	H	0.484527	0.065700	0.722044
H396	H	0.984527	0.565700	1.222044
H397	H	0.440718	0.032538	0.684504
H398	H	0.940718	0.532538	1.184504
H399	H	0.817825	-0.000039	0.499782
H400	H	1.317825	0.499961	0.999782
O401	O	0.230944	0.134331	-0.074622
O402	O	0.730944	0.634331	0.425378
C403	C	0.272051	0.137038	-0.025717
C404	C	0.772051	0.637038	0.474283
H405	H	0.258863	0.111372	0.008983
H406	H	0.758863	0.611372	0.508983
H407	H	0.315544	0.124898	-0.037417
H408	H	0.815544	0.624898	0.462583
C409	C	0.292215	0.222591	-0.045987
C410	C	0.792215	0.722591	0.454013
C411	C	0.276014	0.191070	-0.003365
C412	C	0.776014	0.691070	0.496635
H413	H	0.294662	0.255920	-0.032200
H414	H	0.794662	0.755920	0.467800
H415	H	0.264522	0.220767	-0.078937
H416	H	0.764522	0.720767	0.421063
H417	H	0.328458	0.212468	-0.055733
H418	H	0.828458	0.712468	0.444267
H419	H	0.239769	0.201189	0.006374
H420	H	0.739769	0.701189	0.506374
H421	H	0.303701	0.192896	0.029586
H422	H	0.803701	0.692896	0.529586
O423	O	0.504105	-0.089166	-0.078129
O424	O	1.004105	0.410834	0.421871
C425	C	0.531744	-0.091865	-0.127865
C426	C	1.031744	0.408135	0.372135
H427	H	0.509147	-0.066197	-0.162130
H428	H	1.009147	0.433803	0.337870
H429	H	0.578287	-0.079720	-0.117252
H430	H	1.078287	0.420280	0.382748
C431	C	0.557339	-0.177416	-0.108158
C432	C	1.057339	0.322584	0.391842
C433	C	0.529583	-0.145894	-0.150244
C434	C	1.029583	0.354106	0.349756
H435	H	0.556009	-0.210744	-0.121962
H436	H	1.056009	0.289256	0.378038
H437	H	0.538721	-0.175598	-0.074648
H438	H	1.038721	0.324402	0.425352
H439	H	0.596123	-0.167290	-0.099318
H440	H	1.096123	0.332710	0.400682
H441	H	0.490798	-0.156017	-0.159078
H442	H	0.990798	0.343983	0.340922
H443	H	0.548194	-0.147715	-0.183756
H444	H	1.048194	0.352285	0.316244
O445	O	0.387091	-0.089229	-0.076636
O446	O	0.887091	0.410771	0.423364
C447	C	0.426042	-0.129137	-0.077096
C448	C	0.926042	0.370863	0.422904
H449	H	0.465922	-0.115870	-0.095638
H450	H	0.965922	0.384130	0.404362
H451	H	0.438597	-0.143049	-0.031477
H452	H	0.938597	0.356951	0.468523
C453	C	0.348777	-0.188154	-0.091398
C454	C	0.848777	0.311846	0.408602
C455	C	0.397756	-0.171860	-0.114177
C456	C	0.897756	0.328140	0.385823
H457	H	0.331329	-0.214509	-0.114270
H458	H	0.831329	0.285491	0.385730
H459	H	0.322534	-0.161267	-0.091087
H460	H	0.822534	0.338733	0.408913
H461	H	0.359246	-0.199744	-0.053383
H462	H	0.859246	0.300256	0.446617
H463	H	0.387285	-0.160265	-0.152189
H464	H	0.887285	0.339735	0.347811
H465	H	0.423996	-0.198746	-0.114496
H466	H	0.923996	0.301254	0.385504
H467	H	0.575509	-0.000014	0.632483
H468	H	1.075509	0.499986	1.132483
H469	H	0.769003	-0.469029	-0.170721
H470	H	1.269003	0.030971	0.329279
H471	H	0.734682	-0.771182	-0.136368
H472	H	1.234682	-0.271182	0.363632
H473	H	0.763923	-0.000034	0.658183
H474	H	1.263923	0.499966	1.158183
H475	H	0.118490	0.127237	-0.073367
H476	H	0.618490	0.627237	0.426633
H477	H	0.575700	-0.374376	0.022703
H478	H	1.075700	0.125624	0.522703
H479	H	0.769176	-0.000048	0.219466
H480	H	1.269176	0.499952	0.719466
H481	H	0.525567	0.000001	0.459902
H482	H	1.025567	0.500001	0.959902
O483	O	0.770718	0.000064	0.771748
O484	O	1.270718	0.500064	1.271748
C485	C	0.773412	0.043026	0.806529
C486	C	1.273412	0.543026	1.306529
H487	H	0.744170	0.073055	0.784598
H488	H	1.244170	0.573055	1.284598
H489	H	0.758916	0.033316	0.849644
H490	H	1.258916	0.533316	1.349644
C491	C	0.871353	0.025627	0.842843
C492	C	1.371353	0.525627	1.342843
C493	C	0.835441	0.062510	0.815904
C494	C	1.335441	0.562510	1.315904
H495	H	0.909616	0.037645	0.848629
H496	H	1.409616	0.537645	1.348629
H497	H	0.869538	-0.003319	0.819412
H498	H	1.369538	0.496681	1.319412
H499	H	0.859266	0.017538	0.878769
H500	H	1.359266	0.517538	1.378769
H501	H	0.847524	0.070593	0.779976
H502	H	1.347524	0.570593	1.279976
H503	H	0.837260	0.091457	0.839329
H504	H	1.337260	0.591457	1.339329
O505	O	0.518708	-0.000024	0.346451
O506	O	1.018708	0.499976	0.846451
C507	C	0.472417	-0.000002	0.379154
C508	C	0.972417	0.499998	0.879154
H509	H	0.487128	-0.015708	0.423575
H510	H	0.987128	0.484292	0.923575
H511	H	0.456393	0.039800	0.383286
H512	H	0.956393	0.539800	0.883286
C513	C	0.405555	-0.013239	0.294731
C514	C	0.905555	0.486761	0.794731
C515	C	0.423622	-0.032533	0.349288
C516	C	0.923622	0.467467	0.849288
H517	H	0.375455	-0.033304	0.276307
H518	H	0.875455	0.466696	0.776307
H519	H	0.436742	-0.013252	0.272698
H520	H	0.936742	0.486748	0.772698
H521	H	0.392206	0.019930	0.298182
H522	H	0.892206	0.519930	0.798182
H523	H	0.436977	-0.065699	0.345835
H524	H	0.936977	0.434301	0.845835
H525	H	0.392436	-0.032527	0.371320
H526	H	0.892436	0.467473	0.871320
O527	O	0.774500	-0.629736	-0.176079
O528	O	1.274500	-0.129736	0.323921
C529	C	0.832396	-0.616975	-0.159984
C530	C	1.332396	-0.116975	0.340016
H531	H	0.834965	-0.579060	-0.137889
H532	H	1.334965	-0.079060	0.362111
H533	H	0.853544	-0.646361	-0.129314
H534	H	1.353544	-0.146361	0.370686
C535	C	0.860445	-0.661124	-0.240818
C536	C	1.360445	-0.161124	0.259182
C537	C	0.863601	-0.614555	-0.213685
C538	C	1.363601	-0.114555	0.286315
H539	H	0.879695	-0.659633	-0.273942
H540	H	1.379695	-0.159633	0.226058
H541	H	0.821440	-0.669723	-0.251660
H542	H	1.321440	-0.169723	0.248340
H543	H	0.878068	-0.685608	-0.215254
H544	H	1.378068	-0.185608	0.284746
H545	H	0.845972	-0.590073	-0.239246
H546	H	1.345972	-0.090073	0.260754
H547	H	0.902604	-0.605952	-0.202848
H548	H	1.402604	-0.105952	0.297152
O549	O	0.572498	-0.000013	0.197237
O550	O	1.072498	0.499987	0.697237
C551	C	0.527138	-0.000026	0.152032
C552	C	1.027138	0.499974	0.652032
H553	H	0.542875	0.015669	0.111762
H554	H	1.042875	0.515669	0.611762
H555	H	0.511232	-0.039824	0.143552
H556	H	1.011232	0.460176	0.643552
C557	C	0.458489	0.013243	0.217968
C558	C	0.958489	0.513243	0.717968
C559	C	0.477817	0.032524	0.168509
C560	C	0.977817	0.532524	0.668509
H561	H	0.428064	0.033319	0.228132
H562	H	0.928064	0.533319	0.728132
H563	H	0.489048	0.013250	0.248424
H564	H	0.989048	0.513250	0.748424
H565	H	0.445238	-0.019922	0.210895
H566	H	0.945238	0.480078	0.710895
H567	H	0.491074	0.065686	0.175585
H568	H	0.991074	0.565686	0.675585
H569	H	0.447259	0.032524	0.138054
H570	H	0.947259	0.532524	0.638054
H571	H	0.575717	-0.625760	0.022692
H572	H	1.075717	-0.125760	0.522692
H573	H	0.610067	-0.865961	-0.011680
H574	H	1.110067	-0.365961	0.488320
H575	H	0.610000	-0.228901	-0.011682
H576	H	1.110000	0.271099	0.488318
H577	H	0.610065	-0.771238	-0.011669
H578	H	1.110065	-0.271238	0.488331
H579	H	0.499473	0.082020	-0.077965
H580	H	0.999473	0.582020	0.422035
O581	O	0.570258	-0.527013	0.028102
O582	O	1.070258	-0.027013	0.528102
C583	C	0.539963	-0.561274	0.058436
C584	C	1.039963	-0.061274	0.558436
H585	H	0.536518	-0.598494	0.034840
H586	H	1.036518	-0.098494	0.534840
H587	H	0.563678	-0.566827	0.103265
H588	H	1.063678	-0.066827	0.603265
C589	C	0.483722	-0.495206	0.091871
C590	C	0.983722	0.004794	0.591871
C591	C	0.479486	-0.540919	0.062887
C592	C	0.979486	-0.040919	0.562887
H593	H	0.446418	-0.482649	0.094619
H594	H	0.946418	0.017351	0.594619
H595	H	0.504133	-0.472123	0.071436
H596	H	1.004133	0.027877	0.571436
H597	H	0.503487	-0.499840	0.129225
H598	H	1.003487	0.000160	0.629225
H599	H	0.459728	-0.536283	0.025531
H600	H	0.959728	-0.036283	0.525531
H601	H	0.459070	-0.564001	0.083316
H602	H	0.959070	-0.064001	0.583316
H603	H	0.226176	-0.127306	-0.074649
H604	H	0.726176	0.372694	0.425351
O605	O	0.113841	-0.134455	-0.073318
O606	O	0.613841	0.365545	0.426682
C607	C	0.152790	-0.174365	-0.073770
C608	C	0.652790	0.325635	0.426230
H609	H	0.192671	-0.161103	-0.092313
H610	H	0.692671	0.338897	0.407687
H611	H	0.165342	-0.188273	-0.028149
H612	H	0.665342	0.311727	0.471851
C613	C	0.075521	-0.233380	-0.088067
C614	C	0.575521	0.266620	0.411933
C615	C	0.124503	-0.217091	-0.110847
C616	C	0.624503	0.282909	0.389153
H617	H	0.058072	-0.259736	-0.110935
H618	H	0.558072	0.240264	0.389065
H619	H	0.049280	-0.206491	-0.087760
H620	H	0.549280	0.293509	0.412240
H621	H	0.085988	-0.244966	-0.050050
H622	H	0.585988	0.255034	0.449950
H623	H	0.114034	-0.205500	-0.148860
H624	H	0.614034	0.294500	0.351140
H625	H	0.150741	-0.243979	-0.111161
H626	H	0.650741	0.256021	0.388839
H627	H	0.391707	0.082023	-0.076666
H628	H	0.891707	0.582023	0.423334
H629	H	-0.047027	-0.082091	-0.071386
H630	H	0.452973	0.417909	0.428614
O631	O	0.604547	-0.130139	-0.006264
O632	O	1.104547	0.369861	0.493736
C633	C	0.574249	-0.164388	0.024082
C634	C	1.074249	0.335612	0.524082
H635	H	0.570786	-0.201611	0.000492
H636	H	1.070786	0.298389	0.500492
H637	H	0.597971	-0.169942	0.068908
H638	H	1.097971	0.330058	0.568908
C639	C	0.518038	-0.098300	0.057520
C640	C	1.018038	0.401700	0.557520
C641	C	0.513781	-0.144017	0.028543
C642	C	1.013781	0.355983	0.528543
H643	H	0.480739	-0.085734	0.060275
H644	H	0.980739	0.414266	0.560275
H645	H	0.538451	-0.075225	0.037077
H646	H	1.038451	0.424775	0.537077
H647	H	0.537808	-0.102934	0.094872
H648	H	1.037808	0.397066	0.594872
H649	H	0.494017	-0.139381	-0.008810
H650	H	0.994017	0.360619	0.491190
H651	H	0.493362	-0.167090	0.048980
H652	H	0.993362	0.332910	0.548980
O653	O	-0.159471	-0.089184	-0.069921
O654	O	0.340529	0.410816	0.430079
C655	C	-0.187108	-0.091883	-0.020182
C656	C	0.312892	0.408117	0.479818
H657	H	-0.164490	-0.066225	0.014078
H658	H	0.335510	0.433775	0.514078
H659	H	-0.233642	-0.079727	-0.030793
H660	H	0.266358	0.420273	0.469207
C661	C	-0.212766	-0.177427	-0.039878
C662	C	0.287234	0.322573	0.460122
C663	C	-0.184984	-0.145916	0.002204
C664	C	0.315016	0.354084	0.502204
H665	H	-0.211460	-0.210756	-0.026070
H666	H	0.288540	0.289244	0.473930
H667	H	-0.194149	-0.175608	-0.073389
H668	H	0.305851	0.324392	0.426611
H669	H	-0.251543	-0.167291	-0.048716
H670	H	0.248457	0.332709	0.451284
H671	H	-0.146207	-0.156048	0.011036
H672	H	0.353793	0.343952	0.511036
H673	H	-0.203595	-0.147737	0.035717
H674	H	0.296405	0.352263	0.535717
H675	H	0.575704	-0.469101	0.022704
H676	H	1.075704	0.030899	0.522704
H677	H	0.734689	-0.865922	-0.136362
H678	H	1.234689	-0.365922	0.363638
H679	H	0.769010	-0.530957	-0.170721
H680	H	1.269010	-0.030957	0.329279
