data_functionalizedCrystal
_audit_creation_method	'MofGen! by Chris Wilmer'
_symmetry_space_group_name_H-M	'P1'
_symmetry_Int_Tables_number	1
_symmetry_cell_setting	triclinic
loop_
_symmetry_equiv_pos_as_xyz
  x,y,z
_cell_length_a	16.974800
_cell_length_b	10.540510
_cell_length_c	15.455313
_cell_angle_alpha	92.694210
_cell_angle_beta	90.973911
_cell_angle_gamma	83.950335
loop_
_atom_site_label
_atom_site_type_symbol
_atom_site_fract_x
_atom_site_fract_y
_atom_site_fract_z
O1	O	1.049974	0.161819	0.001607
O2	O	1.549974	0.661819	0.501607
O3	O	0.820649	0.181204	-0.014499
O4	O	1.320649	0.681204	0.485501
O5	O	0.940556	-0.013255	-0.006077
O6	O	1.440556	0.486745	0.493923
O7	O	0.930068	0.356278	-0.006815
O8	O	1.430068	0.856278	0.493185
O9	O	0.933699	-0.002181	0.137703
O10	O	1.433699	0.497819	0.637703
O11	O	0.813792	0.192278	0.129282
O12	O	1.313792	0.692278	0.629282
O13	O	1.043117	0.172893	0.145387
O14	O	1.543117	0.672893	0.645387
Cu15	Cu	0.927829	0.183597	0.150463
Cu16	Cu	1.427829	0.683597	0.650463
Cu17	Cu	0.935938	0.170500	-0.019574
Cu18	Cu	1.435938	0.670500	0.480426
O19	O	0.923211	0.367352	0.136966
O20	O	1.423211	0.867352	0.636966
C21	C	0.787856	0.185801	0.055329
C22	C	1.287856	0.685801	0.555329
C23	C	0.700359	0.182984	0.049184
C24	C	1.200359	0.682984	0.549184
C25	C	0.655520	0.187695	0.124674
C26	C	1.155520	0.687695	0.624674
C27	C	0.573308	0.185028	0.118903
C28	C	1.073308	0.685028	0.618903
C29	C	0.535937	0.177660	0.037641
C30	C	1.035937	0.677660	0.537641
C31	C	0.580783	0.172946	-0.037855
C32	C	1.080783	0.672946	0.462145
C33	C	0.662993	0.175603	-0.032082
C34	C	1.162993	0.675603	0.467918
C35	C	0.290464	0.169055	0.011973
C36	C	0.790464	0.669055	0.511973
C37	C	0.208247	0.166402	0.006207
C38	C	0.708247	0.666402	0.506207
C39	C	0.200779	0.178482	0.162965
C40	C	0.700779	0.678482	0.662965
C41	C	0.282991	0.181147	0.168730
C42	C	0.782991	0.681147	0.668730
C43	C	0.327830	0.176425	0.093235
C44	C	0.827830	0.676425	0.593235
N45	N	0.451903	0.174938	0.031740
N46	N	0.951903	0.674938	0.531740
N47	N	0.411863	0.179138	0.099137
N48	N	0.911863	0.679138	0.599137
C49	C	0.936346	-0.055013	0.065756
C50	C	1.436346	0.444987	0.565756
C51	C	0.934008	-0.195938	0.065587
C52	C	1.434008	0.304062	0.565587
C53	C	1.017291	-0.414287	0.071766
C54	C	1.517291	0.085713	0.571766
C55	C	1.019801	-0.267744	0.071613
C56	C	1.519801	0.232256	0.571613
C57	C	0.894006	-0.246536	-0.019601
C58	C	1.394006	0.253464	0.480399
C59	C	0.892122	-0.393281	-0.019798
C60	C	1.392122	0.106719	0.480202
C61	C	0.882538	-0.380476	0.143582
C62	C	1.382538	0.119524	0.643582
C63	C	0.886555	-0.234097	0.144948
C64	C	1.386555	0.265903	0.644948
C65	C	1.075910	0.168296	0.075557
C66	C	1.575910	0.668296	0.575557
C67	C	1.163408	0.171112	0.081697
C68	C	1.663408	0.671112	0.581697
C69	C	0.927421	0.409110	0.065130
C70	C	1.427421	0.909110	0.565130
C71	C	0.929759	0.550034	0.065294
C72	C	1.429759	1.050034	0.565294
N73	N	0.922131	0.192807	0.270058
N74	N	1.422131	0.692807	0.770058
N75	N	0.941642	0.161280	-0.139169
N76	N	1.441642	0.661280	0.360831
C77	C	0.973089	0.110225	0.319031
C78	C	1.473089	0.610225	0.819031
C79	C	0.968788	0.117202	0.409537
C80	C	1.468788	0.617202	0.909537
C81	C	0.913531	0.206769	0.451068
C82	C	1.413531	0.706769	0.951068
C83	C	0.862567	0.289355	0.402089
C84	C	1.362567	0.789355	0.902089
C85	C	0.866865	0.282371	0.311584
C86	C	1.366865	0.782371	0.811584
C87	C	0.894977	0.236882	0.721347
C88	C	1.394977	0.736882	1.221347
C89	C	0.890683	0.243862	0.811858
C90	C	1.390683	0.743862	1.311858
C91	C	0.996904	0.071706	0.819300
C92	C	1.496904	0.571706	1.319300
C93	C	1.001201	0.064735	0.728794
C94	C	1.501201	0.564735	1.228794
C95	C	0.950234	0.147317	0.679822
C96	C	1.450234	0.647317	1.179822
N97	N	0.909134	0.213906	0.543580
N98	N	1.409134	0.713906	1.043580
N99	N	0.954627	0.140173	0.587312
N100	N	1.454627	0.640173	1.087312
H101	H	0.550349	0.166937	-0.104020
H102	H	1.050349	0.666937	0.395980
H103	H	0.906834	-0.418166	0.207732
H104	H	1.406834	0.081834	0.707732
H105	H	0.699501	0.171770	-0.093554
H106	H	1.199501	0.671770	0.406446
H107	H	0.536805	0.188842	0.180375
H108	H	1.036805	0.688842	0.680375
C109	C	0.829898	0.342386	0.857545
C110	C	1.329898	0.842386	1.357545
H111	H	0.834647	0.334725	0.918460
H112	H	1.334647	0.834725	1.418460
H113	H	0.777932	0.327218	0.839035
H114	H	1.277932	0.827218	1.339035
H115	H	0.839631	0.426006	0.843336
H116	H	1.339631	0.926006	1.343336
C117	C	0.810814	0.373217	0.257714
C118	C	1.310814	0.873217	0.757714
H119	H	0.777294	0.427569	0.295410
H120	H	1.277294	0.927569	0.795410
H121	H	0.779435	0.324682	0.220098
H122	H	1.279435	0.824682	0.720098
H123	H	0.841136	0.423467	0.224410
H124	H	1.341136	0.923467	0.724410
H125	H	1.051357	-0.234246	0.132880
H126	H	1.551357	0.265754	0.632880
H127	H	0.685940	0.193705	0.190847
H128	H	1.185940	0.693705	0.690847
C129	C	0.838937	0.327748	0.667486
C130	C	1.338937	0.827748	1.167486
H131	H	0.849406	0.310766	0.607636
H132	H	1.349406	0.810766	1.107636
H133	H	0.847275	0.413642	0.682954
H134	H	1.347275	0.913642	1.182954
H135	H	0.785556	0.314886	0.678629
H136	H	1.285556	0.814886	1.178629
H137	H	0.927419	-0.220722	-0.078561
H138	H	1.427419	0.279278	0.421439
C139	C	0.324098	0.189245	0.258116
C140	C	0.824098	0.689245	0.758116
H141	H	0.379481	0.190164	0.250741
H142	H	0.879481	0.690164	0.750741
H143	H	0.314692	0.117335	0.289770
H144	H	0.814692	0.617335	0.789770
H145	H	0.303487	0.265257	0.288978
H146	H	0.803487	0.765257	0.788978
H147	H	0.817571	0.362279	0.435908
H148	H	1.317571	0.862279	0.935908
C149	C	0.151451	0.183720	0.246002
C150	C	0.651451	0.683720	0.746002
H151	H	0.097136	0.181090	0.230929
H152	H	0.597136	0.681090	0.730929
H153	H	0.157801	0.260606	0.278736
H154	H	0.657801	0.760606	0.778736
H155	H	0.168977	0.112687	0.279565
H156	H	0.668977	0.612687	0.779565
C157	C	0.925802	-0.189591	0.230036
C158	C	1.425802	0.310409	0.730036
H159	H	0.970916	-0.147920	0.217259
H160	H	1.470916	0.352080	0.717259
H161	H	0.941652	-0.261428	0.263499
H162	H	1.441652	0.238572	0.763499
H163	H	0.889051	-0.131936	0.261837
H164	H	1.389051	0.368064	0.761837
H165	H	1.053314	-0.462669	0.015552
H166	H	1.553314	0.037331	0.515552
C167	C	0.936583	-0.454443	-0.099884
C168	C	1.436583	0.045557	0.400116
H169	H	0.955632	-0.389550	-0.131987
H170	H	1.455632	0.110450	0.368013
H171	H	0.901570	-0.499567	-0.135252
H172	H	1.401570	0.000433	0.364748
H173	H	0.979980	-0.511926	-0.081825
H174	H	1.479980	-0.011926	0.418175
C175	C	0.167138	0.158326	-0.083186
C176	C	0.667138	0.658326	0.416814
H177	H	0.205617	0.155895	-0.127322
H178	H	0.705617	0.655895	0.372678
H179	H	0.129630	0.231009	-0.089074
H180	H	0.629630	0.731009	0.410926
H181	H	0.140815	0.083084	-0.088310
H182	H	0.640815	0.583084	0.411690
C183	C	1.058653	-0.465322	0.154483
C184	C	1.558653	0.034678	0.654483
H185	H	1.022915	-0.508857	0.185811
H186	H	1.522915	-0.008857	0.685811
H187	H	1.074796	-0.395998	0.189529
H188	H	1.574796	0.104002	0.689529
H189	H	1.103760	-0.522620	0.139139
H190	H	1.603760	-0.022620	0.639139
C191	C	1.070280	-0.236009	-0.004758
C192	C	1.570280	0.263991	0.495242
H193	H	1.089325	-0.312731	-0.035816
H194	H	1.589325	0.187269	0.464184
H195	H	1.113860	-0.193768	0.016667
H196	H	1.613860	0.306232	0.516667
H197	H	1.038788	-0.181963	-0.042257
H198	H	1.538788	0.318037	0.457743
H199	H	0.828131	-0.415855	-0.028025
H200	H	1.328131	0.084145	0.471975
H201	H	0.326963	0.165207	-0.049501
H202	H	0.826963	0.665207	0.450499
C203	C	1.024850	0.026373	0.463404
C204	C	1.524850	0.526373	0.963404
H205	H	1.058382	-0.027956	0.425708
H206	H	1.558382	0.472044	0.925708
H207	H	0.994542	-0.023882	0.496713
H208	H	1.494542	0.476118	0.996713
H209	H	1.056227	0.074927	0.501016
H210	H	1.556227	0.574927	1.001016
C211	C	0.801623	-0.166357	0.145713
C212	C	1.301623	0.333643	0.645713
H213	H	0.793954	-0.113691	0.097422
H214	H	1.293954	0.386309	0.597422
H215	H	0.793732	-0.115252	0.197738
H216	H	1.293732	0.384748	0.697738
H217	H	0.764781	-0.228343	0.142432
H218	H	1.264781	0.271657	0.642432
C219	C	0.808884	-0.181890	-0.029729
C220	C	1.308884	0.318110	0.470271
H221	H	0.796957	-0.123322	0.018019
H222	H	1.296957	0.376678	0.518019
H223	H	0.772773	-0.244981	-0.031500
H224	H	1.272773	0.255019	0.468500
H225	H	0.804412	-0.137457	-0.081951
H226	H	1.304412	0.362543	0.418049
C227	C	0.795486	-0.409378	0.138222
C228	C	1.295486	0.090622	0.638222
H229	H	0.787922	-0.463523	0.088545
H230	H	1.287922	0.036477	0.588545
H231	H	0.761964	-0.331791	0.134057
H232	H	1.261964	0.168209	0.634057
H233	H	0.782874	-0.450680	0.188750
H234	H	1.282874	0.049320	0.688750
H235	H	1.018089	0.037295	0.285223
H236	H	1.518089	0.537295	0.785223
H237	H	1.046195	-0.008197	0.694981
H238	H	1.546195	0.491803	1.194981
H239	H	1.038398	0.004471	0.859181
H240	H	1.538398	0.504471	1.359181
