data_functionalizedCrystal
_audit_creation_method	'MofGen! by Chris Wilmer'
_symmetry_space_group_name_H-M	'P1'
_symmetry_Int_Tables_number	1
_symmetry_cell_setting	triclinic
loop_
_symmetry_equiv_pos_as_xyz
  x,y,z
_cell_length_a	16.974897
_cell_length_b	14.853576
_cell_length_c	16.053802
_cell_angle_alpha	92.570318
_cell_angle_beta	83.774775
_cell_angle_gamma	83.519618
loop_
_atom_site_label
_atom_site_type_symbol
_atom_site_fract_x
_atom_site_fract_y
_atom_site_fract_z
O1	O	1.056015	0.107269	-0.140705
O2	O	0.825080	0.122743	-0.125119
O3	O	0.946712	-0.016262	-0.133325
O4	O	0.934382	0.246274	-0.132499
O5	O	0.940017	-0.008642	0.005986
O6	O	0.818385	0.130363	0.014192
O7	O	1.049320	0.114889	-0.001394
Zn8	Zn	0.932789	0.123835	0.028517
Zn9	Zn	0.941610	0.113796	-0.155030
O10	O	0.927687	0.253893	0.006812
C11	C	0.792178	0.126103	-0.053469
C12	C	0.704115	0.124754	-0.047526
C13	C	0.666385	0.119968	-0.120665
C14	C	0.583638	0.118715	-0.115068
C15	C	0.538624	0.122241	-0.036331
C16	C	0.576360	0.127029	0.036814
C17	C	0.659104	0.128289	0.031217
C18	C	0.290764	0.118925	-0.011447
C19	C	0.208015	0.117663	-0.005855
C20	C	0.215299	0.109350	-0.157738
C21	C	0.298045	0.110605	-0.163329
C22	C	0.335773	0.115398	-0.090184
N23	N	0.454044	0.120957	-0.030608
N24	N	0.420350	0.116688	-0.095907
C25	C	0.942805	-0.046037	-0.063632
C26	C	0.941127	-0.146110	-0.063522
C27	C	0.943987	-0.197274	-0.139411
C28	C	0.936697	-0.188980	0.012470
C29	C	0.935125	-0.283004	0.012577
C30	C	0.937985	-0.334168	-0.063312
C31	C	0.942417	-0.291307	-0.139307
C32	C	0.930700	-0.325873	0.088570
C33	C	0.929129	-0.419903	0.088679
C34	C	0.931983	-0.471067	0.012790
C35	C	0.936415	-0.428201	-0.063208
C36	C	0.939275	-0.479365	-0.139097
C37	C	0.943701	-0.436500	-0.215095
C38	C	0.945271	-0.342472	-0.215196
C39	C	0.930413	-0.565095	0.012890
C40	C	0.937705	-0.573398	-0.138993
C41	C	1.082222	0.111528	-0.073046
C42	C	1.170285	0.112877	-0.078995
C43	C	0.931595	0.283669	-0.062882
C44	C	0.933273	0.383741	-0.062998
N45	N	0.926775	0.130687	0.153783
N46	N	0.947631	0.106938	-0.280297
C47	C	0.978549	0.071561	0.193985
C48	C	0.974349	0.076362	0.281675
C49	C	0.918379	0.140293	0.329162
C50	C	0.866600	0.199422	0.288955
C51	C	0.870796	0.194616	0.201267
C52	C	0.900048	0.161260	0.591808
C53	C	0.895857	0.166064	0.679502
C54	C	1.003606	0.043002	0.672216
C55	C	1.007801	0.038205	0.584526
C56	C	0.956019	0.097330	0.544327
N57	N	0.914086	0.145204	0.418795
N58	N	0.960308	0.092415	0.454695
H59	H	0.184572	0.105450	-0.217289
H60	H	0.926812	-0.599992	0.074767
H61	H	0.857886	0.209404	0.559085
C62	C	0.940681	-0.628818	-0.221440
C63	C	0.875074	-0.597965	-0.262673
C64	C	0.877789	-0.648989	-0.338627
H65	H	0.939076	-0.690970	-0.210607
H66	H	0.988632	-0.622191	-0.255835
H67	H	0.827135	-0.604600	-0.228285
H68	H	0.876665	-0.535821	-0.273527
H69	H	0.925741	-0.642362	-0.373023
H70	H	0.876186	-0.711138	-0.327786
H71	H	0.833280	-0.628058	-0.366617
H72	H	0.934374	-0.147318	0.074255
H73	H	0.946034	-0.478170	-0.276884
C74	C	0.949931	-0.295940	-0.297709
C75	C	0.883552	-0.310801	-0.338904
C76	C	0.887820	-0.267930	-0.414906
H77	H	0.997348	-0.320106	-0.332110
H78	H	0.950422	-0.232604	-0.286916
H79	H	0.883070	-0.374124	-0.349700
H80	H	0.836126	-0.286633	-0.304528
H81	H	0.888310	-0.204593	-0.404113
H82	H	0.935239	-0.292099	-0.449300
H83	H	0.842780	-0.277999	-0.442863
H84	H	0.947587	-0.162368	-0.201287
H85	H	0.925525	-0.454796	0.150562
C86	C	1.039346	0.002054	0.142580
C87	C	1.083772	-0.048714	0.196561
C88	C	1.139778	-0.112763	0.149240
H89	H	1.074115	0.032363	0.106121
H90	H	1.012426	-0.037278	0.110330
H91	H	1.110691	-0.009388	0.228796
H92	H	1.049025	-0.079043	0.233020
H93	H	1.112859	-0.152096	0.116991
H94	H	1.174541	-0.082447	0.112783
H95	H	1.169923	-0.147223	0.185859
C96	C	0.927564	-0.270162	0.170873
C97	C	0.929861	-0.178638	0.154516
C98	C	0.926962	-0.127285	0.230317
H99	H	0.972019	-0.290844	0.199032
H100	H	0.879571	-0.276717	0.205226
H101	H	0.977849	-0.172088	0.120176
H102	H	0.885410	-0.157930	0.126369
H103	H	0.878969	-0.133840	0.264670
H104	H	0.971418	-0.147974	0.258470
H105	H	0.928513	-0.065180	0.219229
H106	H	0.539702	0.129905	0.100924
C107	C	1.030438	0.012068	0.325369
C108	C	0.985726	-0.040212	0.378565
C109	C	1.037371	-0.099461	0.418818
H110	H	1.061873	0.046132	0.357401
H111	H	1.064361	-0.026740	0.284551
H112	H	0.951817	-0.001409	0.419377
H113	H	0.954293	-0.074295	0.346554
H114	H	1.071294	-0.138269	0.378000
H115	H	1.068803	-0.065390	0.450845
H116	H	1.007042	-0.134946	0.454910
C117	C	0.159273	0.121545	0.079715
C118	C	0.210020	0.126036	0.142576
C119	C	0.165147	0.129623	0.221407
H120	H	0.132822	0.068676	0.084771
H121	H	0.120867	0.173817	0.085497
H122	H	0.248411	0.073770	0.136796
H123	H	0.236472	0.178903	0.137547
H124	H	0.126741	0.181894	0.227190
H125	H	0.138697	0.076752	0.226455
H126	H	0.199570	0.132679	0.264068
H127	H	1.053376	-0.013853	0.545863
H128	H	0.850277	0.218129	0.718163
H129	H	0.703030	0.117095	-0.184782
C130	C	0.805912	0.268803	0.340655
C131	C	0.813333	0.260377	0.426053
C132	C	0.757449	0.324287	0.473701
H133	H	0.753609	0.258513	0.329978
H134	H	0.815285	0.328169	0.325734
H135	H	0.803954	0.201025	0.440969
H136	H	0.865624	0.270675	0.436756
H137	H	0.766822	0.383653	0.458780
H138	H	0.705150	0.313992	0.463017
H139	H	0.762481	0.318584	0.531648
H140	H	1.045763	-0.005136	0.704954
H141	H	0.828635	0.242762	0.168536
C142	C	0.542767	0.113650	-0.194549
C143	C	0.556282	0.188986	-0.241151
C144	C	0.518655	0.184343	-0.314383
H145	H	0.487029	0.113446	-0.180063
H146	H	0.563828	0.059601	-0.227110
H147	H	0.535218	0.243021	-0.208597
H148	H	0.612013	0.189205	-0.255659
H149	H	0.539715	0.130294	-0.346943
H150	H	0.462918	0.184138	-0.299888
H151	H	0.527826	0.235452	-0.346015
H152	H	0.321473	0.122822	0.048113
C153	C	0.346772	0.106811	-0.248894
C154	C	0.296016	0.102371	-0.311751
C155	C	0.340874	0.098879	-0.390584
H156	H	0.385191	0.054566	-0.254750
H157	H	0.373203	0.159713	-0.253882
H158	H	0.269598	0.049474	-0.306766
H159	H	0.257597	0.154611	-0.305924
H160	H	0.367305	0.151781	-0.395572
H161	H	0.379292	0.046633	-0.396431
H162	H	0.306442	0.095875	-0.433242
H163	H	0.689822	0.132189	0.090775
