data_functionalizedCrystal
_audit_creation_method	'MofGen! by Chris Wilmer'
_symmetry_space_group_name_H-M	'P1'
_symmetry_Int_Tables_number	1
_symmetry_cell_setting	triclinic
loop_
_symmetry_equiv_pos_as_xyz
  x,y,z
_cell_length_a	19.077236
_cell_length_b	29.839132
_cell_length_c	19.077174
_cell_angle_alpha	87.731998
_cell_angle_beta	85.294282
_cell_angle_gamma	87.662196
loop_
_atom_site_label
_atom_site_type_symbol
_atom_site_fract_x
_atom_site_fract_y
_atom_site_fract_z
Zn1	Zn	1.093645	0.162207	-0.441944
Zn2	Zn	1.593645	0.662207	0.058056
Zn3	Zn	1.088789	0.234437	-0.324043
Zn4	Zn	1.588789	0.734437	0.175957
Zn5	Zn	0.971027	0.162214	-0.319327
Zn6	Zn	1.471027	0.662214	0.180673
Zn7	Zn	0.975676	0.240207	-0.437146
Zn8	Zn	1.475676	0.740207	0.062854
O9	O	1.032284	0.199766	-0.380615
O10	O	1.532284	0.699766	0.119385
O11	O	1.191655	0.169371	-0.430286
O12	O	1.691655	0.669371	0.069714
O13	O	1.069189	0.222444	-0.224767
O14	O	1.569189	0.722444	0.275233
O15	O	0.987379	0.099345	-0.335627
O16	O	1.487379	0.599345	0.164373
O17	O	1.188087	0.222438	-0.343664
O18	O	1.688087	0.722438	0.156336
O19	O	1.077466	0.099340	-0.425713
O20	O	1.577466	0.599340	0.074287
O21	O	0.982670	0.169383	-0.221303
O22	O	1.482670	0.669383	0.278697
O23	O	0.872989	0.174978	-0.330975
O24	O	1.372989	0.674978	0.169025
O25	O	0.995303	0.232272	-0.536432
O26	O	1.495303	0.732272	-0.036432
O27	O	0.876405	0.232279	-0.417536
O28	O	1.376405	0.732279	0.082464
O29	O	1.081975	0.174966	-0.539957
O30	O	1.581975	0.674966	-0.039957
O31	O	1.073697	0.298071	-0.339012
O32	O	1.573697	0.798071	0.160988
O33	O	0.990594	0.302310	-0.422108
O34	O	1.490594	0.802310	0.077892
C35	C	0.849117	0.204255	-0.373223
C36	C	1.349117	0.704255	0.126777
C37	C	0.770758	0.206187	-0.370078
C38	C	1.270758	0.706187	0.129922
C39	C	0.735806	0.179513	-0.413768
C40	C	1.235806	0.679513	0.086232
C41	C	0.662179	0.181325	-0.410806
C42	C	1.162179	0.681325	0.089194
C43	C	0.623505	0.209815	-0.364157
C44	C	1.123505	0.709815	0.135843
C45	C	0.658463	0.236490	-0.320462
C46	C	1.158463	0.736490	0.179538
C47	C	0.732088	0.234675	-0.323421
C48	C	1.232088	0.734675	0.176579
C49	C	0.403109	0.218200	-0.350462
C50	C	0.903109	0.718200	0.149538
C51	C	0.329479	0.220014	-0.347508
C52	C	0.829479	0.720014	0.152492
C53	C	0.333200	0.164848	-0.437852
C54	C	0.833200	0.664848	0.062148
C55	C	0.406827	0.163038	-0.440809
C56	C	0.906827	0.663038	0.059191
C57	C	0.441777	0.189711	-0.397111
C58	C	0.941777	0.689711	0.102889
N59	N	0.548247	0.211670	-0.361131
N60	N	1.048247	0.711670	0.138869
N61	N	0.517034	0.187854	-0.400135
N62	N	1.017034	0.687854	0.099865
C63	C	1.032143	0.316491	-0.380567
C64	C	1.532143	0.816491	0.119433
C65	C	1.032148	0.366426	-0.380573
C66	C	1.532148	0.866426	0.119427
C67	C	1.075589	0.673847	-0.337385
C68	C	1.575589	1.173847	0.162615
C69	C	1.075657	0.861519	-0.337404
C70	C	1.575657	1.361519	0.162596
O71	O	1.112517	0.883896	-0.300668
O72	O	1.612517	1.383896	0.199332
N73	N	1.032358	0.887207	-0.380629
N74	N	1.532358	1.387207	0.119371
C75	C	0.989043	0.865974	-0.423857
C76	C	1.489043	1.365974	0.076143
O77	O	0.952221	0.892130	-0.460629
O78	O	1.452221	1.392130	0.039371
C79	C	0.988979	0.678303	-0.423842
C80	C	1.488979	1.178303	0.076158
C81	C	1.032276	0.652617	-0.380608
C82	C	1.532276	1.152617	0.119392
C83	C	1.118883	0.648161	-0.294155
C84	C	1.618883	1.148161	0.205845
C85	C	1.118863	0.601246	-0.294148
C86	C	1.618863	1.101246	0.205852
C87	C	1.075549	0.580017	-0.337371
C88	C	1.575549	1.080017	0.162629
C89	C	1.032255	0.605702	-0.380601
C90	C	1.532255	1.105702	0.119399
C91	C	0.945668	0.657072	-0.467072
C92	C	1.445668	1.157072	0.032928
C93	C	0.945657	0.610151	-0.467066
C94	C	1.445657	1.110151	0.032934
C95	C	0.988953	0.584465	-0.423832
C96	C	1.488953	1.084465	0.076168
C97	C	0.988921	0.537558	-0.423816
C98	C	1.488921	1.037558	0.076184
N99	N	1.032220	0.511870	-0.380590
N100	N	1.532220	1.011870	0.119410
C101	C	1.075534	0.533099	-0.337368
C102	C	1.575534	1.033099	0.162632
C103	C	0.989078	0.964504	-0.423861
C104	C	1.489078	1.464504	0.076139
C105	C	0.989093	1.011422	-0.423864
C106	C	1.489093	1.511422	0.076136
C107	C	1.075709	1.006963	-0.337411
C108	C	1.575709	1.506963	0.162589
C109	C	1.075690	0.960044	-0.337405
C110	C	1.575690	1.460044	0.162595
C111	C	1.032377	0.938816	-0.380635
C112	C	1.532377	1.438816	0.119365
C113	C	1.075488	0.434574	-0.337356
C114	C	1.575488	0.934574	0.162644
C115	C	1.075462	0.387655	-0.337350
C116	C	1.575462	0.887655	0.162650
C117	C	0.988849	0.392118	-0.423805
C118	C	1.488849	0.892118	0.076195
C119	C	0.988872	0.439033	-0.423808
C120	C	1.488872	0.939033	0.076192
C121	C	1.032197	0.460260	-0.380581
C122	C	1.532197	0.960260	0.119419
O123	O	0.952087	0.515151	-0.460539
O124	O	1.452087	1.015151	0.039461
O125	O	1.112362	0.506936	-0.300613
O126	O	1.612362	1.006936	0.199387
C127	C	1.075610	0.720762	-0.337392
C128	C	1.575610	1.220762	0.162608
C129	C	1.032316	0.746448	-0.380622
C130	C	1.532316	1.246448	0.119378
C131	C	0.989002	0.725218	-0.423845
C132	C	1.489002	1.225218	0.076155
C133	C	1.032331	0.793365	-0.380625
C134	C	1.532331	1.293365	0.119375
C135	C	1.075645	0.814595	-0.337402
C136	C	1.575645	1.314595	0.162598
C137	C	1.118944	0.788906	-0.294176
C138	C	1.618944	1.288906	0.205824
C139	C	1.118923	0.741991	-0.294169
C140	C	1.618923	1.241991	0.205831
C141	C	0.945703	0.750907	-0.467070
C142	C	1.445703	1.250907	0.032930
C143	C	0.945727	0.797822	-0.467073
C144	C	1.445727	1.297822	0.032927
C145	C	0.989040	0.819051	-0.423851
C146	C	1.489040	1.319051	0.076149
C147	C	1.216167	0.195260	-0.388036
C148	C	1.716167	0.695260	0.111964
C149	C	1.294526	0.193340	-0.391199
C150	C	1.794526	0.693340	0.108801
C151	C	1.039699	0.204262	-0.564489
C152	C	1.539699	0.704262	-0.064489
C153	C	1.042859	0.206178	-0.642845
C154	C	1.542859	0.706178	-0.142845
C155	C	1.032419	1.082586	-0.380663
C156	C	1.532419	1.582586	0.119337
C157	C	1.032407	1.032651	-0.380641
C158	C	1.532407	1.532651	0.119359
C159	C	0.999300	0.179452	-0.677852
C160	C	1.499300	0.679452	-0.177852
C161	C	1.002266	0.181255	-0.751476
C162	C	1.502266	0.681255	-0.251476
C163	C	1.048796	0.209783	-0.790091
C164	C	1.548796	0.709783	-0.290091
C165	C	1.092357	0.236512	-0.755079
C166	C	1.592357	0.736512	-0.255079
C167	C	1.089387	0.234710	-0.681456
C168	C	1.589387	0.734710	-0.181456
C169	C	1.062506	0.218136	-1.010473
C170	C	1.562506	0.718136	-0.510473
C171	C	1.065475	0.219935	-1.084100
C172	C	1.565475	0.719935	-0.584100
C173	C	0.975382	0.164679	-1.080493
C174	C	1.475382	0.664679	-0.580493
C175	C	0.972419	0.162878	-1.006869
C176	C	1.472419	0.662878	-0.506869
C177	C	1.015978	0.189608	-0.971863
C178	C	1.515978	0.689608	-0.471863
N179	N	1.051830	0.211627	-0.865347
N180	N	1.551830	0.711627	-0.365347
N181	N	1.012939	0.187767	-0.896609
N182	N	1.512939	0.687767	-0.396609
C183	C	1.024939	0.195255	-0.197458
C184	C	1.524939	0.695255	0.302542
C185	C	1.021915	0.193209	-0.119108
C186	C	1.521915	0.693209	0.380892
H187	H	0.760545	0.256396	-0.287843
H188	H	1.260545	0.756396	0.212157
Br189	Br	0.936154	0.140730	-0.625454
Br190	Br	1.436154	0.640730	-0.125454
H191	H	1.124863	0.256470	-0.652954
H192	H	1.624863	0.756470	-0.152954
H193	H	1.110946	0.939133	-0.302201
H194	H	1.610946	1.439133	0.197799
H195	H	0.431557	0.239920	-0.314881
H196	H	0.931557	0.739920	0.185119
H197	H	1.110719	0.366743	-0.302142
H198	H	1.610719	0.866743	0.197858
H199	H	1.110769	0.451851	-0.302158
H200	H	1.610769	0.951851	0.197842
H201	H	0.767288	0.156315	-0.451756
H202	H	1.267288	0.656315	0.048244
H203	H	0.626969	0.259685	-0.282476
H204	H	1.126969	0.759685	0.217524
H205	H	0.966792	0.159494	-0.779976
H206	H	1.466792	0.659494	-0.279976
Br207	Br	1.177636	0.566394	-0.235481
Br208	Br	1.677636	1.066394	0.264519
H209	H	1.154158	0.665441	-0.258958
H210	H	1.654158	1.165441	0.241042
Br211	Br	0.909273	0.124158	-0.954468
Br212	Br	1.409273	0.624158	-0.454468
H213	H	0.304735	0.143132	-0.473427
H214	H	0.804735	0.643132	0.026573
H215	H	1.097967	0.239907	-0.981979
H216	H	1.597967	0.739907	-0.481979
H217	H	1.110977	1.024255	-0.302218
H218	H	1.610977	1.524255	0.197782
H219	H	1.103368	0.243166	-1.115539
H220	H	1.603368	0.743166	-0.615539
Br221	Br	0.614746	0.145123	-0.470103
Br222	Br	1.114746	0.645123	0.029897
Br223	Br	0.459307	0.124376	-0.504127
Br224	Br	0.959307	0.624376	-0.004127
Br225	Br	0.930320	1.046275	-0.482530
Br226	Br	1.430320	1.546275	0.017470
H227	H	0.953806	0.947223	-0.459065
H228	H	1.453806	1.447223	0.040935
H229	H	0.297993	0.243216	-0.309521
H230	H	0.797993	0.743216	0.190479
H231	H	0.910408	0.677977	-0.502275
H232	H	1.410408	1.177977	-0.002275
Br233	Br	0.886875	0.581344	-0.525742
Br234	Br	1.386875	1.081344	-0.025742
H235	H	1.130239	0.259742	-0.786525
H236	H	1.630239	0.759742	-0.286525
H237	H	0.953619	0.459948	-0.459015
H238	H	1.453619	0.959948	0.040985
Br239	Br	0.916269	0.128405	-1.128005
Br240	Br	1.416269	0.628405	-0.628005
H241	H	0.953581	0.374826	-0.458995
H242	H	1.453581	0.874826	0.041005
H243	H	1.154180	0.721081	-0.258964
H244	H	1.654180	1.221081	0.241036
H245	H	1.154209	0.806199	-0.258981
H246	H	1.654209	1.306199	0.241019
H247	H	0.910463	0.818731	-0.502279
H248	H	1.410463	1.318731	-0.002279
H249	H	0.910433	0.733626	-0.502269
H250	H	1.410433	1.233626	-0.002269
