data_functionalizedCrystal
_audit_creation_method	'MofGen! by Chris Wilmer'
_symmetry_space_group_name_H-M	'P1'
_symmetry_Int_Tables_number	1
_symmetry_cell_setting	triclinic
loop_
_symmetry_equiv_pos_as_xyz
  x,y,z
_cell_length_a	16.974897
_cell_length_b	22.610064
_cell_length_c	16.974816
_cell_angle_alpha	86.336863
_cell_angle_beta	83.630038
_cell_angle_gamma	93.659798
loop_
_atom_site_label
_atom_site_type_symbol
_atom_site_fract_x
_atom_site_fract_y
_atom_site_fract_z
O1	O	1.049029	0.094514	0.100814
O2	O	1.549029	0.594514	0.600814
O3	O	0.818810	0.082893	0.113641
O4	O	1.318810	0.582893	0.613641
O5	O	0.940344	0.094522	-0.007884
O6	O	1.440344	0.594522	0.492116
O7	O	0.927495	0.082885	0.222339
O8	O	1.427495	0.582885	0.722339
O9	O	0.940323	-0.003849	-0.007866
O10	O	1.440323	0.496151	0.492134
O11	O	0.818788	-0.015478	0.113658
O12	O	1.318788	0.484522	0.613658
O13	O	1.049008	-0.003857	0.100832
O14	O	1.549008	0.496143	0.600832
Zn15	Zn	0.933895	-0.025286	0.107248
Zn16	Zn	1.433895	0.474714	0.607248
Zn17	Zn	0.933923	0.104322	0.107225
Zn18	Zn	1.433923	0.604322	0.607225
O19	O	0.927473	-0.015486	0.222357
O20	O	1.427473	0.484514	0.722357
C21	C	0.789342	0.032322	0.113160
C22	C	1.289342	0.532322	0.613160
C23	C	0.701567	0.028196	0.111692
C24	C	1.201567	0.528196	0.611692
N25	N	0.933881	-0.113740	0.107264
N26	N	1.433881	0.386260	0.607264
C27	C	0.660335	0.079875	0.110994
C28	C	1.160335	0.579875	0.610994
C29	C	0.577860	0.075989	0.109627
C30	C	1.077860	0.575989	0.609627
C31	C	0.536619	0.020423	0.108952
C32	C	1.036619	0.520423	0.608952
C33	C	0.577857	-0.031260	0.109652
C34	C	1.077857	0.468740	0.609652
C35	C	0.660330	-0.027374	0.111025
C36	C	1.160330	0.472626	0.611025
C37	C	0.289961	0.003048	0.104854
C38	C	0.789961	0.503048	0.604854
C39	C	0.207483	-0.000834	0.103479
C40	C	0.707483	0.499166	0.603479
C41	C	0.207491	0.106415	0.103455
C42	C	0.707491	0.606415	0.603455
C43	C	0.289966	0.110297	0.104823
C44	C	0.789966	0.610297	0.604823
C45	C	0.331196	0.058614	0.105527
C46	C	0.831196	0.558614	0.605527
N47	N	0.452317	0.016449	0.107553
N48	N	0.952317	0.516449	0.607553
N49	N	0.415496	0.062588	0.106932
N50	N	0.915496	0.562588	0.606932
C51	C	0.987741	-0.517229	0.053422
C52	C	1.487741	-0.017229	0.553422
C53	C	0.987745	-0.579148	0.053416
C54	C	1.487745	-0.079148	0.553416
O55	O	1.033505	-0.606788	0.007650
O56	O	1.533505	-0.106788	0.507650
N57	N	0.933922	-0.615273	0.107208
N58	N	1.433922	-0.115273	0.607208
C59	C	0.880087	-0.589475	0.161004
C60	C	1.380087	-0.089475	0.661004
O61	O	0.834307	-0.625888	0.206758
O62	O	1.334307	-0.125888	0.706758
C63	C	0.880080	-0.527557	0.161006
C64	C	1.380080	-0.027557	0.661006
C65	C	0.933911	-0.491435	0.107215
C66	C	1.433911	0.008565	0.607215
C67	C	1.041567	-0.481107	-0.000365
C68	C	1.541567	0.018893	0.499635
C69	C	1.041564	-0.419192	-0.000358
C70	C	1.541564	0.080808	0.499642
C71	C	0.987734	-0.393398	0.053436
C72	C	1.487734	0.106602	0.553436
C73	C	0.933908	-0.429520	0.107222
C74	C	1.433908	0.070480	0.607222
C75	C	0.826241	-0.501760	0.214797
C76	C	1.326241	-0.001760	0.714797
C77	C	0.826238	-0.439837	0.214794
C78	C	1.326238	0.060163	0.714794
C79	C	0.880070	-0.403715	0.161003
C80	C	1.380070	0.096285	0.661003
C81	C	0.880075	-0.341811	0.161023
C82	C	1.380075	0.158189	0.661023
N83	N	0.933898	-0.305686	0.107231
N84	N	1.433898	0.194314	0.607231
C85	C	0.987727	-0.331480	0.053437
C86	C	1.487727	0.168520	0.553437
C87	C	0.880105	-0.719507	0.160997
C88	C	1.380105	-0.219507	0.660997
C89	C	0.880116	-0.781425	0.161000
C90	C	1.380116	-0.281425	0.661000
C91	C	0.987773	-0.771093	0.053410
C92	C	1.487773	-0.271093	0.553410
C93	C	0.987766	-0.709175	0.053412
C94	C	1.487766	-0.209175	0.553412
C95	C	0.933928	-0.683383	0.107204
C96	C	1.433928	-0.183383	0.607204
C97	C	0.987717	-0.201454	0.053456
C98	C	1.487717	0.298546	0.553456
C99	C	0.987711	-0.139534	0.053470
C100	C	1.487711	0.360466	0.553470
C101	C	0.880051	-0.149871	0.161056
C102	C	1.380051	0.350129	0.661056
C103	C	0.880060	-0.211785	0.161046
C104	C	1.380060	0.288215	0.661046
C105	C	0.933895	-0.237575	0.107239
C106	C	1.433895	0.262425	0.607239
O107	O	0.834336	-0.314130	0.206764
O108	O	1.334336	0.185870	0.706764
O109	O	1.033493	-0.295060	0.007684
O110	O	1.533493	0.204940	0.507684
C111	C	1.078476	0.046715	0.101313
C112	C	1.578476	0.546715	0.601313
C113	C	1.166251	0.050845	0.102781
C114	C	1.666251	0.550845	0.602781
N115	N	0.933943	0.192776	0.107203
N116	N	1.433943	0.692776	0.607203
C117	C	0.927971	0.032312	0.251806
C118	C	1.427971	0.532312	0.751806
C119	C	0.929430	0.028179	0.339582
C120	C	1.429430	0.528179	0.839582
C121	C	0.930128	0.079860	0.380807
C122	C	1.430128	0.579860	0.880807
C123	C	0.931509	0.075977	0.463281
C124	C	1.431509	0.575977	0.963281
C125	C	0.932187	0.020413	0.504529
C126	C	1.432187	0.520413	1.004529
C127	C	0.931491	-0.031272	0.463298
C128	C	1.431491	0.468728	0.963298
C129	C	0.930116	-0.027388	0.380825
C130	C	1.430116	0.472612	0.880825
C131	C	0.936305	0.003048	0.751188
C132	C	1.436305	0.503048	1.251188
C133	C	0.937678	-0.000832	0.833667
C134	C	1.437678	0.499168	1.333667
C135	C	0.937698	0.106418	0.833644
C136	C	1.437698	0.606418	1.333644
C137	C	0.936318	0.110297	0.751170
C138	C	1.436318	0.610297	1.251170
C139	C	0.935626	0.058612	0.709946
C140	C	1.435626	0.558612	1.209946
N141	N	0.933596	0.016443	0.588831
N142	N	1.433596	0.516443	1.088831
N143	N	0.934222	0.062583	0.625644
N144	N	1.434222	0.562583	1.125644
C145	C	0.939844	0.046722	0.962667
C146	C	1.439844	0.546722	1.462667
C147	C	0.938376	0.050849	0.874892
C148	C	1.438376	0.550849	1.374892
H149	H	0.544292	0.118071	0.109059
H150	H	1.044292	0.618071	0.609059
O151	O	0.329967	0.164282	0.105618
O152	O	0.829967	0.664282	0.605618
C153	C	0.300776	0.192255	0.173711
C154	C	0.800776	0.692255	0.673711
H155	H	0.271798	0.157221	0.221185
H156	H	0.771798	0.657221	0.721185
H157	H	0.351984	0.217894	0.197578
H158	H	0.851984	0.717894	0.697578
H159	H	0.254942	0.224270	0.157431
H160	H	0.754942	0.724270	0.657431
H161	H	0.935743	-0.039037	0.717633
H162	H	1.435743	0.460963	1.217633
H163	H	0.932048	-0.076513	0.496888
H164	H	1.432048	0.423487	0.996888
O165	O	0.827753	-0.816423	0.213287
O166	O	1.327753	-0.316423	0.713287
C167	C	0.780259	-0.780371	0.260778
C168	C	1.280259	-0.280371	0.760778
H169	H	0.779409	-0.734719	0.228358
H170	H	1.279409	-0.234719	0.728358
H171	H	0.717102	-0.801866	0.272870
H172	H	1.217102	-0.301866	0.772870
H173	H	0.805862	-0.775377	0.319506
H174	H	1.305862	-0.275377	0.819506
H175	H	0.929547	-0.069472	0.347261
H176	H	1.429547	0.430528	0.847261
H177	H	0.935771	0.155543	0.717590
H178	H	1.435771	0.655543	1.217590
O179	O	1.093770	-0.384210	-0.052822
O180	O	1.593770	0.115790	0.447178
C181	C	1.080888	-0.396344	-0.131011
C182	C	1.580888	0.103656	0.368989
H183	H	1.017544	-0.416337	-0.131226
H184	H	1.517544	0.083663	0.368774
H185	H	1.090055	-0.353351	-0.170840
H186	H	1.590055	0.146649	0.329160
H187	H	1.124646	-0.429155	-0.154191
H188	H	1.624646	0.070845	0.345809
O189	O	0.167384	0.156591	0.102919
O190	O	0.667384	0.656591	0.602919
C191	C	0.110639	0.153835	0.170563
C192	C	0.610639	0.653835	0.670563
H193	H	0.129183	0.121982	0.218820
H194	H	0.629183	0.621982	0.718820
H195	H	0.106675	0.199972	0.193517
H196	H	0.606675	0.699972	0.693517
H197	H	0.050174	0.137322	0.154050
H198	H	0.550174	0.637322	0.654050
H199	H	0.693907	0.125123	0.111541
H200	H	1.193907	0.625123	0.611541
H201	H	0.836266	-0.698511	0.204808
H202	H	1.336266	-0.198511	0.704808
H203	H	0.323521	-0.039036	0.105422
H204	H	0.823521	0.460964	0.605422
O205	O	0.167322	-0.054788	0.102936
O206	O	0.667322	0.445212	0.602936
C207	C	0.110601	-0.063952	0.170599
C208	C	0.610601	0.436048	0.670599
H209	H	0.095239	-0.019210	0.193195
H210	H	0.595239	0.480790	0.693195
H211	H	0.054635	-0.088548	0.154248
H212	H	0.554635	0.411452	0.654248
H213	H	0.136062	-0.091509	0.219068
H214	H	0.636062	0.408491	0.719068
O215	O	0.537681	-0.085188	0.108961
O216	O	1.037681	0.414812	0.608961
C217	C	0.456044	-0.077540	0.107619
C218	C	0.956044	0.422460	0.607619
H219	H	0.448081	-0.030631	0.082400
H220	H	0.948081	0.469369	0.582400
H221	H	0.429760	-0.111185	0.068734
H222	H	0.929760	0.388815	0.568734
H223	H	0.424276	-0.084619	0.170633
H224	H	0.924276	0.415381	0.670633
H225	H	0.938206	-0.046083	0.867252
H226	H	1.438206	0.453917	1.367252
O227	O	0.700268	-0.077631	0.111661
O228	O	1.200268	0.422369	0.611661
C229	C	0.646183	-0.127510	0.110790
C230	C	1.146183	0.372490	0.610790
H231	H	0.590694	-0.113205	0.084787
H232	H	1.090694	0.386795	0.584787
H233	H	0.675073	-0.161812	0.072824
H234	H	1.175073	0.338188	0.572824
H235	H	0.629049	-0.147847	0.174051
H236	H	1.129049	0.352153	0.674051
H237	H	1.031603	-0.792105	0.009607
H238	H	1.531603	-0.292105	0.509607
H239	H	1.031554	-0.222444	0.009641
H240	H	1.531554	0.277556	0.509641
O241	O	1.040034	-0.104532	0.001137
O242	O	1.540034	0.395468	0.501137
C243	C	1.087555	-0.140581	-0.046330
C244	C	1.587555	0.359419	0.453670
H245	H	1.055139	-0.186230	-0.047210
H246	H	1.555139	0.313770	0.452790
H247	H	1.099693	-0.119079	-0.109483
H248	H	1.599693	0.380921	0.390517
H249	H	1.146259	-0.145584	-0.020683
H250	H	1.646259	0.354416	0.479317
O251	O	0.773870	-0.536753	0.267078
O252	O	1.273870	-0.036753	0.767078
C253	C	0.726376	-0.500696	0.314560
C254	C	1.226376	-0.000696	0.814560
H255	H	0.725531	-0.455045	0.282135
H256	H	1.225531	0.044955	0.782135
H257	H	0.663216	-0.522188	0.326648
H258	H	1.163216	-0.022188	0.826648
H259	H	0.751972	-0.495700	0.373291
H260	H	1.251972	0.004300	0.873291
H261	H	1.085402	-0.502102	-0.044173
H262	H	1.585402	-0.002102	0.455827
O263	O	1.040083	-0.674175	0.001080
O264	O	1.540083	-0.174175	0.501080
C265	C	1.087607	-0.710227	-0.046380
C266	C	1.587607	-0.210227	0.453620
H267	H	1.055194	-0.755878	-0.047253
H268	H	1.555194	-0.255878	0.452747
H269	H	1.099745	-0.688730	-0.109536
H270	H	1.599745	-0.188730	0.390464
H271	H	1.146311	-0.715226	-0.020731
H272	H	1.646311	-0.215226	0.479269
H273	H	0.782394	-0.418841	0.258598
H274	H	1.282394	0.081159	0.758598
O275	O	0.827692	-0.246791	0.213325
O276	O	1.327692	0.253209	0.713325
C277	C	0.780195	-0.210744	0.260820
C278	C	1.280195	0.289256	0.760820
H279	H	0.779352	-0.165088	0.228410
H280	H	1.279352	0.334912	0.728410
H281	H	0.717036	-0.232236	0.272899
H282	H	1.217036	0.267764	0.772899
H283	H	0.805789	-0.205759	0.319554
H284	H	1.305789	0.294241	0.819554
O285	O	0.938234	0.156632	0.873670
O286	O	1.438234	0.656632	1.373670
C287	C	0.869469	0.186506	0.862521
C288	C	1.369469	0.686506	1.362521
H289	H	0.821243	0.153607	0.846169
H290	H	1.321243	0.653607	1.346169
H291	H	0.847405	0.207036	0.919782
H292	H	1.347405	0.707036	1.419782
H293	H	0.884154	0.223030	0.812597
H294	H	1.384154	0.723030	1.312597
O295	O	0.827791	-0.124712	0.213230
O296	O	1.327791	0.375288	0.713230
C297	C	0.839348	-0.062316	0.201704
C298	C	1.339348	0.437684	0.701704
H299	H	0.868983	-0.049427	0.138828
H300	H	1.368983	0.450573	0.638828
H301	H	0.779461	-0.042075	0.210517
H302	H	1.279461	0.457925	0.710517
H303	H	0.878942	-0.044990	0.246447
H304	H	1.378942	0.455010	0.746447
O305	O	0.929489	0.133884	0.340862
O306	O	1.429489	0.633884	0.840862
C307	C	0.930374	0.178664	0.394942
C308	C	1.430374	0.678664	0.894942
H309	H	0.956387	0.161535	0.450426
H310	H	1.456387	0.661535	0.950426
H311	H	0.968335	0.219375	0.366042
H312	H	1.468335	0.719375	0.866042
H313	H	0.867116	0.191293	0.412086
H314	H	1.367116	0.691293	0.912086
O315	O	0.931975	0.126152	0.503390
O316	O	1.431975	0.626152	1.003390
C317	C	0.864258	0.123366	0.560047
C318	C	1.364258	0.623366	1.060047
H319	H	0.841738	0.074974	0.575460
H320	H	1.341738	0.574974	1.075460
H321	H	0.880511	0.144231	0.616001
H322	H	1.380511	0.644231	1.116001
H323	H	0.815770	0.148639	0.534497
H324	H	1.315770	0.648639	1.034497
