data_functionalizedCrystal
_audit_creation_method	'MofGen! by Chris Wilmer'
_symmetry_space_group_name_H-M	'P1'
_symmetry_Int_Tables_number	1
_symmetry_cell_setting	triclinic
loop_
_symmetry_equiv_pos_as_xyz
  x,y,z
_cell_length_a	10.654541
_cell_length_b	19.288865
_cell_length_c	18.366186
_cell_angle_alpha	90.011479
_cell_angle_beta	90.007686
_cell_angle_gamma	83.810088
loop_
_atom_site_label
_atom_site_type_symbol
_atom_site_fract_x
_atom_site_fract_y
_atom_site_fract_z
O1	O	-1.665764	-0.097548	-0.060537
O2	O	-1.300086	-0.106844	-0.060544
O3	O	-1.493491	-0.001135	-0.060526
O4	O	-1.472359	-0.203257	-0.060555
O5	O	-1.493458	-0.001129	0.060574
O6	O	-1.300053	-0.106838	0.060555
O7	O	-1.665731	-0.097542	0.060563
Zn8	Zn	-1.482887	-0.102189	0.079786
Zn9	Zn	-1.482930	-0.102197	-0.079767
O10	O	-1.472326	-0.203252	0.060544
C11	C	-1.253286	-0.106159	0.000005
C12	C	-1.113886	-0.104118	0.000003
C13	C	-1.492795	0.024749	0.000026
C14	C	-1.490754	0.101866	0.000033
C15	C	-1.712531	-0.098227	0.000012
C16	C	-1.851931	-0.100268	0.000009
C17	C	-1.083210	-0.230522	-0.000024
C18	C	-1.002383	-0.292762	-0.000041
C19	C	-0.871406	-0.290840	-0.000041
C20	C	-0.821254	-0.226671	-0.000023
C21	C	-0.902081	-0.164431	-0.000007
C22	C	-1.033059	-0.166360	-0.000008
C23	C	-0.932757	-0.038028	0.000026
C24	C	-1.063735	-0.039949	0.000021
C25	C	-0.882606	0.026141	0.000044
C26	C	-0.963433	0.088383	0.000056
C27	C	-1.094417	0.086458	0.000055
C28	C	-1.144561	0.022292	0.000038
C29	C	-1.473022	-0.229135	-0.000009
C30	C	-1.475063	-0.306252	-0.000020
N31	N	-1.482867	-0.102184	0.188677
C32	C	-1.604235	0.145820	0.000038
C33	C	-1.602318	0.218279	0.000027
C34	C	-1.486912	0.246782	0.000024
C35	C	-1.373415	0.202818	0.000014
C36	C	-1.375336	0.130360	0.000018
C37	C	-1.396178	0.355665	0.042441
C38	C	-1.394262	0.428122	0.042441
C39	C	-1.480982	0.470266	0.000008
C40	C	-1.569640	0.439946	-0.042417
C41	C	-1.571561	0.367488	-0.042412
C42	C	-1.484816	0.325350	0.000019
C43	C	-1.592392	0.592790	-0.000000
C44	C	-1.590470	0.665250	-0.000016
C45	C	-1.361565	0.649788	-0.000022
C46	C	-1.363490	0.577329	-0.000013
C47	C	-1.478908	0.548834	0.000001
N48	N	-1.482960	-0.102196	-0.188659
C49	C	-1.568534	-0.055400	0.226786
C50	C	-1.568542	-0.055396	0.303014
C51	C	-1.482894	-0.102190	0.341130
C52	C	-1.397211	-0.148978	0.303012
C53	C	-1.397197	-0.148975	0.226786
C54	C	-1.466084	-0.165368	0.461881
C55	C	-1.466106	-0.165372	0.538106
C56	C	-1.482930	-0.102199	0.576238
C57	C	-1.499758	-0.039020	0.538135
C58	C	-1.499744	-0.039017	0.461908
C59	C	-1.482900	-0.102198	0.423785
C60	C	-1.568611	-0.055407	0.697001
C61	C	-1.568611	-0.055403	0.773230
C62	C	-1.397285	-0.148991	0.773228
C63	C	-1.397280	-0.148989	0.697000
C64	C	-1.482949	-0.102198	0.658891
H65	H	-1.189856	-0.232093	-0.000040
H66	H	-1.043231	-0.345008	-0.000054
H67	H	-1.452362	-0.216814	0.430841
Cl68	Cl	-1.520919	0.040403	0.586063
H69	H	-1.327544	-0.187089	0.804261
Cl70	Cl	-1.289493	-0.207796	0.178875
H71	H	-0.805596	-0.341522	-0.000050
H72	H	-1.325557	0.321356	0.076999
H73	H	-0.775956	0.027702	0.000048
H74	H	-0.714605	-0.225111	-0.000015
Cl75	Cl	-1.196017	0.164708	0.000082
H76	H	-1.638365	-0.017305	0.665972
H77	H	-0.922588	0.140624	0.000070
Cl78	Cl	-1.309217	0.019867	0.000033
H79	H	-1.698217	0.122625	0.000047
Cl80	Cl	-1.744991	0.273546	0.000033
H81	H	-1.643747	0.342805	-0.076957
Cl82	Cl	-1.228334	0.238649	0.000005
Cl83	Cl	-1.678667	0.492920	-0.095766
H84	H	-1.686372	0.569588	0.000008
H85	H	-1.327526	-0.187088	0.665970
Cl86	Cl	-1.733146	0.720508	-0.000014
H87	H	-1.452412	-0.216816	0.569123
Cl88	Cl	-1.216481	0.685613	-0.000029
H89	H	-1.271081	0.541540	-0.000013
Cl90	Cl	-1.232662	0.075101	0.000011
Cl91	Cl	-1.282812	0.466231	0.095776
H92	H	-1.638289	-0.017298	0.195760
H93	H	-1.638306	-0.017297	0.334047
H94	H	-1.513442	0.012426	0.430888
Cl95	Cl	-1.676309	0.003421	0.821141
H96	H	-1.327473	-0.187077	0.334051
