data_functionalizedCrystal
_audit_creation_method	'MofGen! by Chris Wilmer'
_symmetry_space_group_name_H-M	'P1'
_symmetry_Int_Tables_number	1
_symmetry_cell_setting	triclinic
loop_
_symmetry_equiv_pos_as_xyz
  x,y,z
_cell_length_a	6.817900
_cell_length_b	17.110486
_cell_length_c	9.109307
_cell_angle_alpha	101.521773
_cell_angle_beta	111.764999
_cell_angle_gamma	99.060439
loop_
_atom_site_label
_atom_site_type_symbol
_atom_site_fract_x
_atom_site_fract_y
_atom_site_fract_z
V1	V	-4.029231	-0.261991	-0.224842
O2	O	-3.962743	-0.241256	0.011304
O3	O	-4.032622	-0.275344	-0.446305
O4	O	-3.958232	-0.369344	-0.221165
O5	O	-4.037647	-0.146605	-0.215395
V6	V	-4.509076	-0.246350	-0.196622
O7	O	-4.298556	-0.296300	-0.286745
O8	O	-4.689947	-0.212040	-0.134720
O9	O	-4.282478	-0.232996	0.024840
O10	O	-4.692960	-0.267084	-0.432769
O11	O	-4.618056	-0.361735	-0.206070
O12	O	-4.356867	-0.138996	-0.200300
C13	C	-3.890953	-0.275119	-0.500299
C14	C	-3.974862	-0.286753	-0.681346
C15	C	-3.796061	-0.395024	-0.213109
C16	C	-3.819638	-0.482886	-0.211568
C17	C	-4.013903	-0.528746	-0.218972
C18	C	-4.036044	-0.611301	-0.217522
C19	C	-3.863924	-0.647995	-0.208681
C20	C	-3.669641	-0.602128	-0.201271
C21	C	-3.647497	-0.519573	-0.202709
C22	C	-3.921615	-0.897027	-0.203923
C23	C	-3.943778	-0.979589	-0.202490
C24	C	-4.310178	-0.988756	-0.218738
C25	C	-4.288021	-0.906200	-0.220185
C26	C	-4.093738	-0.860339	-0.212767
C27	C	-3.886554	-0.732380	-0.207204
C28	C	-4.071105	-0.775954	-0.214232
C29	C	-4.087491	-0.233220	0.078826
C30	C	-3.982819	-0.221591	0.259871
C31	C	-4.182383	-0.113312	-0.208361
C32	C	-4.138042	-0.025450	-0.209894
H33	H	-3.925486	-0.156887	-0.651946
H34	H	-4.428183	-0.876330	-0.227383
C35	C	-4.052327	-0.374173	-0.800484
N36	N	-4.110667	-0.440016	-0.890220
H37	H	-3.489289	-0.482228	-0.196640
C38	C	-4.203254	-0.488390	-0.228696
N39	N	-4.345876	-0.457996	-0.236013
C40	C	-4.249739	-0.661742	-0.225648
N41	N	-4.410700	-0.699732	-0.231761
H42	H	-3.763450	-0.859705	-0.197940
H43	H	-4.468356	-1.026105	-0.224775
C44	C	-3.754417	-1.019949	-0.192755
N45	N	-3.611799	-1.050349	-0.185423
H46	H	-3.529495	-0.632009	-0.194062
C47	C	-3.697122	-0.772721	-0.197258
N48	N	-3.554402	-0.803095	-0.189681
H49	H	-4.211240	-0.746073	-0.221426
