data_functionalizedCrystal
_audit_creation_method	'MofGen! by Chris Wilmer'
_symmetry_space_group_name_H-M	'P1'
_symmetry_Int_Tables_number	1
_symmetry_cell_setting	triclinic
loop_
_symmetry_equiv_pos_as_xyz
  x,y,z
_cell_length_a	16.120530
_cell_length_b	12.645330
_cell_length_c	16.120256
_cell_angle_alpha	92.876632
_cell_angle_beta	90.128265
_cell_angle_gamma	87.108294
loop_
_atom_site_label
_atom_site_type_symbol
_atom_site_fract_x
_atom_site_fract_y
_atom_site_fract_z
Zn1	Zn	1.247519	-0.537103	-0.534584
Zn2	Zn	1.580852	-0.203770	-0.201250
Zn3	Zn	1.914186	0.129563	0.132083
Zn4	Zn	1.254495	-0.705860	-0.395531
Zn5	Zn	1.587828	-0.372527	-0.062197
Zn6	Zn	1.921162	-0.039193	0.271136
Zn7	Zn	1.115507	-0.519184	-0.388501
Zn8	Zn	1.448840	-0.185850	-0.055167
Zn9	Zn	1.782174	0.147483	0.278166
Zn10	Zn	1.108451	-0.704889	-0.527501
Zn11	Zn	1.441784	-0.371556	-0.194167
Zn12	Zn	1.775118	-0.038222	0.139166
O13	O	1.181493	-0.616759	-0.461529
O14	O	1.514826	-0.283426	-0.128196
O15	O	1.848160	0.049908	0.205138
O16	O	1.364812	-0.567395	-0.522044
O17	O	1.698145	-0.234062	-0.188711
O18	O	2.031479	0.099272	0.144622
O19	O	1.241930	-0.674004	-0.278232
O20	O	1.575263	-0.340671	0.055101
O21	O	1.908597	-0.007337	0.388435
O22	O	1.133052	-0.373217	-0.407901
O23	O	1.466386	-0.039884	-0.074568
O24	O	1.799719	0.293450	0.258766
O25	O	1.369937	-0.691380	-0.419883
O26	O	1.703270	-0.358047	-0.086550
O27	O	2.036604	-0.024713	0.246784
O28	O	1.230041	-0.386383	-0.515228
O29	O	1.563374	-0.053049	-0.181894
O30	O	1.896708	0.280284	0.151439
O31	O	1.139816	-0.536854	-0.273067
O32	O	1.473150	-0.203520	0.060266
O33	O	1.806483	0.129813	0.393600
O34	O	0.998204	-0.535912	-0.401033
O35	O	1.331537	-0.202579	-0.067699
O36	O	1.664870	0.130755	0.265634
O37	O	1.121026	-0.689725	-0.644806
O38	O	1.454360	-0.356391	-0.311473
O39	O	1.787693	-0.023058	0.021860
O40	O	0.993020	-0.672349	-0.503155
O41	O	1.326353	-0.339016	-0.169822
O42	O	1.659686	-0.005682	0.163511
O43	O	1.223199	-0.566453	-0.650010
O44	O	1.556533	-0.233120	-0.316677
O45	O	1.889866	0.100213	0.016656
O46	O	1.235088	-0.854075	-0.413015
O47	O	1.568422	-0.520742	-0.079681
O48	O	1.901755	-0.187408	0.253652
O49	O	1.127790	-0.853361	-0.509972
O50	O	1.461124	-0.520028	-0.176639
O51	O	1.794457	-0.186695	0.156694
C52	C	0.965439	-0.602081	-0.450563
C53	C	1.298772	-0.268748	-0.117230
C54	C	1.632105	0.064585	0.216104
C55	C	0.873009	-0.595829	-0.445892
C56	C	1.206342	-0.262496	-0.112558
C57	C	1.539675	0.070838	0.220775
C58	C	1.181452	-0.892185	-0.461507
C59	C	1.514786	-0.558851	-0.128174
C60	C	1.848119	-0.225518	0.205160
C61	C	1.181510	-1.010020	-0.461529
C62	C	1.514843	-0.676687	-0.128196
C63	C	1.848176	-0.343353	0.205137
C64	C	0.703778	-0.584389	-0.437370
C65	C	1.037111	-0.251056	-0.104036
C66	C	1.370444	0.082277	0.229297
C67	C	0.660046	-0.649211	-0.485749
C68	C	0.993379	-0.315877	-0.152415
C69	C	1.326713	0.017456	0.180918
C70	C	0.565880	-0.642845	-0.481007
C71	C	0.899213	-0.309512	-0.147674
C72	C	1.232546	0.023821	0.185660
C73	C	0.797952	-0.590753	-0.442110
C74	C	1.131286	-0.257420	-0.108777
C75	C	1.464619	0.075914	0.224556
C76	C	1.248914	-1.177974	-0.400398
C77	C	1.582247	-0.844640	-0.067064
C78	C	1.915581	-0.511307	0.266269
C79	C	1.249115	-1.055437	-0.400566
C80	C	1.582448	-0.722104	-0.067233
C81	C	1.915782	-0.388770	0.266101
C82	C	1.200830	-1.061389	-0.550386
C83	C	1.534163	-0.728055	-0.217053
C84	C	1.867496	-0.394722	0.116280
C85	C	1.201356	-1.184000	-0.550071
C86	C	1.534689	-0.850667	-0.216737
C87	C	1.868023	-0.517334	0.116596
C88	C	1.094716	-1.170009	-0.434667
C89	C	1.428049	-0.836675	-0.101333
C90	C	1.761383	-0.503342	0.232000
C91	C	1.095237	-1.047312	-0.432722
C92	C	1.428570	-0.713979	-0.099389
C93	C	1.761904	-0.380646	0.233944
C94	C	1.398391	-0.631495	-0.472538
C95	C	1.731724	-0.298161	-0.139205
C96	C	2.065058	0.035172	0.194129
C97	C	1.490820	-0.637774	-0.477229
C98	C	1.824153	-0.304441	-0.143896
C99	C	2.157486	0.028892	0.189437
C100	C	1.170548	-0.629980	-0.678424
C101	C	1.503881	-0.296646	-0.345091
C102	C	1.837214	0.036687	-0.011758
C103	C	1.165883	-0.635614	-0.770852
C104	C	1.499217	-0.302280	-0.437519
C105	C	1.832550	0.031053	-0.104186
C106	C	1.181556	-0.340260	-0.461570
C107	C	1.514889	-0.006927	-0.128237
C108	C	1.848222	0.326406	0.205097
C109	C	1.181582	-0.222433	-0.461588
C110	C	1.514916	0.110900	-0.128254
C111	C	1.848249	0.444233	0.205079
C112	C	1.205815	-0.587352	-0.983835
C113	C	1.539148	-0.254018	-0.650501
C114	C	1.872482	0.079315	-0.317168
C115	C	1.157340	-0.645854	-0.940073
C116	C	1.490673	-0.312520	-0.606739
C117	C	1.824006	0.020813	-0.273406
C118	C	1.162095	-0.640154	-0.845910
C119	C	1.495428	-0.306821	-0.512576
C120	C	1.828762	0.026512	-0.179243
C121	C	1.201061	-0.593050	-1.078006
C122	C	1.534394	-0.259716	-0.744673
C123	C	1.867728	0.073617	-0.411340
C124	C	1.192444	-0.603517	-0.245480
C125	C	1.525777	-0.270183	0.087854
C126	C	1.859110	0.063150	0.421187
C127	C	1.197269	-0.597595	-0.153060
C128	C	1.530602	-0.264262	0.180273
C129	C	1.863936	0.069072	0.513606
H130	H	0.693327	-0.709485	-0.530729
H131	H	1.026660	-0.376151	-0.197396
H132	H	1.359994	-0.042818	0.135937
H133	H	0.670498	-0.524119	-0.392393
H134	H	1.003832	-0.190786	-0.059060
H135	H	1.337165	0.142547	0.274273
H136	H	1.264719	-1.218043	-0.572357
H137	H	1.598052	-0.884710	-0.239023
H138	H	1.931385	-0.551377	0.094310
H139	H	1.237542	-1.020440	-0.334819
H140	H	1.570875	-0.687107	-0.001486
H141	H	1.904209	-0.353774	0.331847
H142	H	1.237537	-1.202534	-0.334470
H143	H	1.570870	-0.869200	-0.001137
H144	H	1.904203	-0.535867	0.332196
H145	H	1.313002	-1.214003	-0.418373
H146	H	1.646335	-0.880669	-0.085040
H147	H	1.979669	-0.547336	0.248293
H148	H	1.250884	-0.532992	-0.950584
H149	H	1.584218	-0.199658	-0.617251
H150	H	1.917551	0.133675	-0.283917
H151	H	1.112263	-0.700213	-0.973325
H152	H	1.445596	-0.366879	-0.639992
H153	H	1.778930	-0.033546	-0.306659
H154	H	1.313544	-1.031362	-0.418725
H155	H	1.646878	-0.698028	-0.085392
H156	H	1.980211	-0.364695	0.247941
H157	H	1.154220	-1.213686	-0.597474
H158	H	1.487553	-0.880353	-0.264140
H159	H	1.820887	-0.547020	0.069193
H160	H	1.153089	-1.032196	-0.597390
H161	H	1.486422	-0.698863	-0.264057
H162	H	1.819756	-0.365530	0.069277
H163	H	1.263450	-1.036101	-0.572953
H164	H	1.596783	-0.702768	-0.239619
H165	H	1.930117	-0.369434	0.093714
Cl166	Cl	1.066265	-1.209674	-0.336013
Cl167	Cl	1.399599	-0.876341	-0.002679
Cl168	Cl	1.732932	-0.543008	0.330654
H169	H	1.080589	-1.013145	-0.367309
H170	H	1.413922	-0.679811	-0.033976
H171	H	1.747256	-0.346478	0.299357
H172	H	1.042724	-1.015952	-0.473664
H173	H	1.376057	-0.682619	-0.140331
H174	H	1.709391	-0.349285	0.193003
H175	H	1.044603	-1.198656	-0.479179
H176	H	1.377936	-0.865323	-0.145846
H177	H	1.711269	-0.531989	0.187487
