data_functionalizedCrystal
_audit_creation_method	'MofGen! by Chris Wilmer'
_symmetry_space_group_name_H-M	'P1'
_symmetry_Int_Tables_number	1
_symmetry_cell_setting	triclinic
loop_
_symmetry_equiv_pos_as_xyz
  x,y,z
_cell_length_a	12.594517
_cell_length_b	12.594516
_cell_length_c	12.759393
_cell_angle_alpha	90.030800
_cell_angle_beta	90.014978
_cell_angle_gamma	90.011773
loop_
_atom_site_label
_atom_site_type_symbol
_atom_site_fract_x
_atom_site_fract_y
_atom_site_fract_z
Zn1	Zn	1.627305	-0.423681	0.593888
Zn2	Zn	1.627207	-0.601700	0.418211
Zn3	Zn	1.449307	-0.423736	0.418238
Zn4	Zn	1.449305	-0.601617	0.593863
O5	O	1.538281	-0.512683	0.506050
O6	O	1.776238	-0.447307	0.570583
O7	O	1.603568	-0.578150	0.271193
O8	O	1.472961	-0.274783	0.441561
O9	O	1.776166	-0.578097	0.441514
O10	O	1.603736	-0.274742	0.570610
O11	O	1.472866	-0.447401	0.271214
O12	O	1.300361	-0.447321	0.441536
O13	O	1.472957	-0.577956	0.740887
O14	O	1.300359	-0.578009	0.570567
O15	O	1.603733	-0.447227	0.740906
O16	O	1.603566	-0.750635	0.441489
O17	O	1.472862	-0.750574	0.570540
C18	C	1.261740	-0.512663	0.506053
C19	C	1.143435	-0.512680	0.506079
C20	C	1.538232	-0.789224	0.506032
C21	C	1.538308	-0.907530	0.506059
C22	C	1.003448	-0.583890	0.576128
C23	C	1.074219	-0.609803	0.480242
C24	C	1.074235	-0.486814	0.601954
C25	C	1.003420	-0.538677	0.410110
C26	C	1.003430	-0.415644	0.531887
C27	C	1.074169	-0.441519	0.435935
C28	C	1.609481	-0.976777	0.435943
C29	C	1.635492	-1.047469	0.531834
C30	C	1.512429	-1.047637	0.410229
C31	C	1.564369	-0.976663	0.602000
C32	C	1.441261	-0.976825	0.480331
C33	C	1.467236	-1.047485	0.576288
C34	C	1.815902	-0.512705	0.506048
C35	C	1.934207	-0.512714	0.506047
C36	C	1.538356	-0.512576	0.780084
C37	C	1.538387	-0.512530	0.896860
C38	C	1.538360	-0.235063	0.506091
C39	C	1.538393	-0.116757	0.506109
C40	C	1.538268	-0.512714	0.233083
C41	C	1.538442	-0.512459	0.116307
C42	C	1.606492	-0.444453	0.951734
C43	C	1.606517	-0.444415	1.061458
C44	C	1.470330	-0.580540	1.061426
C45	C	1.470300	-0.580572	0.951703
C46	C	1.685122	-0.365865	0.951753
C47	C	1.685147	-0.365827	1.061477
H48	H	0.972395	-0.644142	0.635306
O49	O	1.115410	-0.718516	0.451287
H50	H	1.087091	-0.777475	0.509556
H51	H	1.490506	-1.078811	0.329167
O52	O	0.962400	-0.567798	0.302658
H53	H	0.991452	-0.648101	0.281150
O54	O	1.332539	-0.935671	0.451426
H55	H	1.273342	-0.965232	0.508862
O56	O	1.396898	-0.653922	1.120585
H57	H	1.349529	-0.701260	1.063990
O58	O	1.396788	-0.653960	0.892538
H59	H	1.414983	-0.737505	0.913562
H60	H	1.105026	-0.381313	0.376615
H61	H	1.407084	-1.078336	0.635673
H62	H	1.586211	-0.945621	0.683133
H63	H	1.105341	-0.464922	0.683048
O64	O	1.788823	-0.404987	0.906654
H65	H	1.803589	-0.487474	0.933541
H66	H	0.972312	-0.333591	0.553764
O67	O	1.655907	-0.256684	0.912322
H68	H	1.641614	-0.203208	0.980035
H69	H	1.655648	-0.287506	1.095526
H70	H	1.669679	-0.945729	0.376702
H71	H	1.767584	-0.387905	1.091251
O72	O	1.744247	-1.088580	0.560709
H73	H	1.803153	-1.060268	0.502378
