data_functionalizedCrystal
_audit_creation_method	'MofGen! by Chris Wilmer'
_symmetry_space_group_name_H-M	'P1'
_symmetry_Int_Tables_number	1
_symmetry_cell_setting	triclinic
loop_
_symmetry_equiv_pos_as_xyz
  x,y,z
_cell_length_a	31.640172
_cell_length_b	23.196402
_cell_length_c	23.196401
_cell_angle_alpha	60.008822
_cell_angle_beta	90.017286
_cell_angle_gamma	59.998806
loop_
_atom_site_label
_atom_site_type_symbol
_atom_site_fract_x
_atom_site_fract_y
_atom_site_fract_z
Zr1	Zr	0.407181	0.630929	-0.075553
O2	O	0.339678	0.751207	-0.167612
O3	O	0.427873	0.510660	-0.047336
O4	O	0.427854	0.630927	-0.167601
O5	O	0.339713	0.630939	0.047525
O6	O	0.497412	0.630915	-0.167589
O7	O	0.339697	0.630940	-0.047347
O8	O	0.497445	0.415779	0.047544
O9	O	0.339680	0.846075	-0.167608
O10	O	0.488610	0.560116	-0.035288
O11	O	0.436712	0.560124	0.035504
O12	O	0.436690	0.701723	-0.106093
O13	O	0.384793	0.701731	-0.035301
Zr14	Zr	0.518143	0.630908	0.075776
Zr15	Zr	0.518117	0.630910	-0.075533
Zr16	Zr	0.407208	0.630927	0.075756
Zr17	Zr	0.407184	0.782231	-0.075547
Zr18	Zr	0.518140	0.479605	0.075769
O19	O	0.497452	0.751177	0.047558
O20	O	0.497414	0.751180	-0.167583
O21	O	0.339716	0.751204	0.047530
O22	O	0.585647	0.510629	0.167834
O23	O	0.585609	0.510633	-0.047307
O24	O	0.427911	0.510656	0.167806
O25	O	0.585611	0.630898	-0.047302
O26	O	0.497470	0.630910	0.167824
O27	O	0.427913	0.630922	0.167811
O28	O	0.585628	0.630896	0.047569
O29	O	0.427859	0.846059	-0.167592
O30	O	0.497466	0.415777	0.167814
O31	O	0.585645	0.415762	0.167830
O32	O	0.585624	0.415764	0.047560
O33	O	0.339701	0.846073	-0.047338
O34	O	0.427880	0.846058	-0.047322
O35	O	0.488634	0.560114	0.106315
O36	O	0.540532	0.560106	0.035523
O37	O	0.488612	0.701713	-0.035282
O38	O	0.436715	0.701721	0.035510
C39	C	0.462659	0.441662	0.000103
C40	C	0.462657	0.377430	0.000100
C41	C	0.323899	0.630942	0.000086
C42	C	0.276804	0.630950	0.000077
C43	C	0.489744	0.347256	-0.036855
C44	C	0.489749	0.286895	-0.036849
C45	C	0.462657	0.256722	0.000102
C46	C	0.435570	0.286900	0.037066
C47	C	0.435570	0.347255	0.037065
C48	C	0.417269	0.194701	-0.005181
C49	C	0.417268	0.134351	-0.005185
C50	C	0.462658	0.070567	0.000109
C51	C	0.508049	0.067148	0.005393
C52	C	0.508049	0.127502	0.005392
C53	C	0.462654	0.191278	0.000108
C54	C	0.489752	-0.025058	-0.036842
C55	C	0.489758	-0.085424	-0.036831
C56	C	0.435575	-0.085411	0.037079
C57	C	0.435573	-0.025053	0.037073
C58	C	0.462661	0.005123	0.000109
C59	C	0.011899	0.556993	0.037085
C60	C	-0.165086	0.556979	0.037099
O61	O	-0.164923	0.494115	0.068557
N62	N	-0.214317	0.630896	0.000138
C63	C	-0.219301	0.704821	-0.036824
O64	O	-0.265236	0.767692	-0.068255
C65	C	-0.042316	0.704835	-0.036834
C66	C	0.006914	0.630913	0.000123
C67	C	0.061128	0.483078	0.074039
C68	C	0.105371	0.483082	0.074032
C69	C	0.100386	0.557002	0.037071
C70	C	0.051158	0.630917	0.000116
C71	C	-0.047301	0.778759	-0.073792
C72	C	-0.003049	0.778756	-0.073789
C73	C	0.046181	0.704835	-0.036832
C74	C	0.090416	0.704842	-0.036852
N75	N	0.139647	0.630925	0.000108
C76	C	0.144632	0.557005	0.037070
C77	C	-0.312218	0.704809	-0.036818
C78	C	-0.356464	0.704806	-0.036817
C79	C	-0.302246	0.556964	0.037108
C80	C	-0.258000	0.556967	0.037102
C81	C	-0.262987	0.630892	0.000143
C82	C	0.237544	0.557019	0.037052
C83	C	0.281789	0.557030	0.037039
C84	C	0.227567	0.704872	-0.036882
C85	C	0.183326	0.704862	-0.036873
C86	C	0.188318	0.630929	0.000099
O87	O	0.090293	0.767673	-0.068288
O88	O	0.190571	0.494144	0.068508
C89	C	-0.032344	0.556989	0.037092
C90	C	-0.081572	0.630905	0.000137
C91	C	-0.086557	0.704824	-0.036824
C92	C	-0.125818	0.630901	0.000139
C93	C	-0.120833	0.556982	0.037100
C94	C	-0.071602	0.483065	0.074060
C95	C	-0.027359	0.483069	0.074053
C96	C	-0.135788	0.778741	-0.073785
C97	C	-0.180029	0.778731	-0.073775
C98	C	-0.175044	0.704811	-0.036814
C99	C	0.601426	0.630894	0.000136
C100	C	0.648521	0.630886	0.000145
C101	C	0.462629	0.630921	-0.189153
C102	C	0.462618	0.630922	-0.253388
C103	C	0.462666	0.820175	0.000119
C104	C	0.462668	0.884406	0.000122
C105	C	0.435519	0.704837	-0.320520
C106	C	0.435532	0.704838	-0.380876
C107	C	0.462637	0.630920	-0.374094
C108	C	0.489742	0.556995	-0.306950
C109	C	0.489732	0.556996	-0.246596
C110	C	0.458787	0.574293	-0.441414
C111	C	0.458793	0.574295	-0.501768
C112	C	0.462670	0.630914	-0.560242
C113	C	0.466531	0.687545	-0.558362
C114	C	0.466521	0.687546	-0.498008
C115	C	0.462651	0.630911	-0.439533
C116	C	0.435584	0.704835	-0.692821
C117	C	0.435601	0.704833	-0.753176
C118	C	0.489807	0.556988	-0.679248
C119	C	0.489794	0.556992	-0.618895
C120	C	0.462679	0.630918	-0.625686
C121	C	0.462696	0.630915	0.189376
C122	C	0.462707	0.630914	0.253610
C123	C	0.601422	0.441638	0.000128
C124	C	0.648516	0.377398	0.000134
C125	C	0.462692	0.441659	0.189367
C126	C	0.462702	0.377426	0.253599
C127	C	0.601455	0.441635	0.189393
C128	C	0.648560	0.377394	0.253633
C129	C	0.323870	0.820201	-0.189170
C130	C	0.276765	0.884442	-0.253411
C131	C	0.323903	0.820198	0.000094
C132	C	0.276809	0.884438	0.000088
C133	C	0.462633	0.820177	-0.189145
C134	C	0.462623	0.884410	-0.253377
C135	C	0.643529	0.347236	-0.036832
C136	C	0.687774	0.286884	-0.036841
C137	C	0.737006	0.256691	0.000121
C138	C	0.741992	0.286860	0.037089
C139	C	0.697747	0.347215	0.037093
C140	C	0.489809	0.347257	0.320732
C141	C	0.489817	0.286911	0.381091
C142	C	0.462719	0.256733	0.374315
C143	C	0.435609	0.286909	0.307175
C144	C	0.435598	0.347257	0.246818
C145	C	0.697776	0.347222	0.246848
C146	C	0.742040	0.286869	0.307203
C147	C	0.737088	0.256686	0.374342
C148	C	0.687867	0.286864	0.381126
C149	C	0.643604	0.347220	0.320771
C150	C	0.227549	0.914622	-0.246626
C151	C	0.183285	0.974993	-0.306981
C152	C	0.188237	1.005180	-0.374120
C153	C	0.237458	0.974998	-0.380903
C154	C	0.281721	0.914632	-0.320549
C155	C	0.281796	0.914607	0.037048
C156	C	0.237551	0.974976	0.037040
C157	C	0.188319	1.005170	0.000076
C158	C	0.183333	0.974999	-0.036888
C159	C	0.227578	0.914636	-0.036884
C160	C	0.489726	0.914570	-0.246578
C161	C	0.489726	0.974915	-0.306925
C162	C	0.462621	1.005104	-0.374070
C163	C	0.435518	0.974939	-0.380867
C164	C	0.435520	0.914591	-0.320521
H165	H	0.511801	0.371821	-0.066952
C166	C	0.405667	1.008200	-0.454727
H167	H	0.389516	0.981609	-0.450140
H168	H	0.380034	1.065181	-0.479765
H169	H	0.429031	0.998330	-0.479838
H170	H	0.462732	0.207594	0.423467
H171	H	-0.087379	0.838954	-0.103885
H172	H	0.223510	0.890074	-0.066979
H173	H	0.511796	0.999469	-0.301377
C174	C	0.796177	0.253658	0.299733
H175	H	0.821833	0.213390	0.345290
H176	H	0.800038	0.230113	0.274659
H177	H	0.800060	0.296981	0.274648
C178	C	0.519645	0.253722	0.454935
H179	H	0.535788	0.280331	0.450321
H180	H	0.496267	0.263621	0.480018
H181	H	0.545292	0.196735	0.480019
H182	H	0.511875	0.371821	0.326263
H183	H	-0.139855	0.838937	-0.103885
H184	H	0.413547	0.262328	0.301668
C185	C	0.519540	0.253697	-0.077505
H186	H	0.515662	0.213428	-0.072207
H187	H	0.506148	0.297027	-0.126128
H188	H	0.555195	0.230142	-0.059250
H189	H	0.321879	0.890027	0.067153
H190	H	0.603445	0.371818	-0.066940
H191	H	0.455626	0.528187	-0.393807
H192	H	0.241621	0.999531	0.067144
H193	H	0.455647	0.528186	-0.503294
C194	C	0.139654	1.071566	0.000079
H195	H	0.149680	1.085200	0.027392
H196	H	0.119626	1.118663	-0.047006
H197	H	0.119639	1.051786	0.019871
C198	C	0.796148	0.253636	0.077750
H199	H	0.821780	0.213365	0.072456
H200	H	0.800038	0.296950	0.059512
H201	H	0.800040	0.230076	0.126377
H202	H	0.701818	0.371788	0.192186
H203	H	0.683843	0.262280	0.435798
H204	H	0.603532	0.371778	0.326305
C205	C	0.129177	1.008213	-0.077540
H206	H	0.103544	1.048475	-0.072237
H207	H	0.125277	1.031762	-0.126165
H208	H	0.125295	0.964885	-0.059281
H209	H	0.683704	0.262328	-0.066944
C210	C	0.785780	0.190289	0.440725
H211	H	0.815799	0.176641	0.427063
H212	H	0.785796	0.210061	0.468036
H213	H	0.785791	0.143193	0.468025
H214	H	0.511800	0.496804	-0.191932
H215	H	0.413526	0.371813	0.192157
C216	C	0.785670	0.190295	0.000118
H217	H	0.775645	0.176654	-0.027187
H218	H	0.805690	0.210063	-0.019664
H219	H	0.805694	0.143195	0.047209
H220	H	0.701815	0.371765	0.067199
C221	C	-0.066125	0.401755	0.114721
H222	H	-0.099529	0.412348	0.109433
H223	H	-0.047746	0.371375	0.096477
H224	H	-0.047730	0.371388	0.163347
C225	C	0.405790	0.786142	-0.827025
H226	H	0.409683	0.775556	-0.861998
H227	H	0.370138	0.816512	-0.832338
H228	H	0.419166	0.816516	-0.832304
C229	C	0.557976	0.123735	0.011214
H230	H	0.585012	0.077103	0.014373
H231	H	0.552221	0.171496	-0.029375
H232	H	0.567504	0.120265	0.052253
C233	C	0.557983	-0.003014	0.011226
H234	H	0.551486	-0.038477	0.010481
H235	H	0.568993	0.018675	-0.027409
H236	H	0.584273	-0.032539	0.054219
H237	H	0.511810	-0.000491	-0.066938
C238	C	0.405699	0.881431	-0.328008
H239	H	0.389553	0.908064	-0.376641
H240	H	0.429080	0.824448	-0.306002
H241	H	0.380055	0.891343	-0.306012
H242	H	0.223507	0.890047	-0.191964
H243	H	0.143212	0.999557	-0.301444
H244	H	0.321793	0.890060	-0.326082
C245	C	0.519622	0.475679	-0.671781
H246	H	0.515744	0.486264	-0.717340
H247	H	0.555271	0.445301	-0.646682
H248	H	0.506236	0.445314	-0.646724
C249	C	0.139545	1.071570	-0.440503
H250	H	0.109526	1.085209	-0.426840
H251	H	0.139529	1.118667	-0.467814
H252	H	0.139535	1.051780	-0.467802
C253	C	0.242898	1.008202	-0.454758
H254	H	0.209486	1.048468	-0.489725
H255	H	0.261284	1.031746	-0.460061
H256	H	0.261275	0.964871	-0.460055
C257	C	0.405766	0.786146	-0.700282
H258	H	0.409635	0.775561	-0.654723
H259	H	0.419146	0.816515	-0.725339
H260	H	0.370114	0.816521	-0.725381
H261	H	0.511818	-0.109996	-0.066921
C262	C	-0.410614	0.786117	-0.077474
H263	H	-0.436255	0.775536	-0.072187
H264	H	-0.414490	0.816488	-0.059223
H265	H	-0.414506	0.816489	-0.126101
H266	H	0.511798	0.889999	-0.191911
H267	H	0.462623	1.054244	-0.423202
H268	H	0.413464	0.765031	-0.435545
C269	C	0.405771	0.008150	0.077715
H270	H	0.389633	-0.018458	0.099719
H271	H	0.429163	-0.001741	0.112691
H272	H	0.380122	0.065137	0.045804
C273	C	0.367342	0.138112	-0.010996
H274	H	0.373840	0.093039	-0.010246
H275	H	0.356340	0.136191	0.027645
H276	H	0.341045	0.187428	-0.053984
C277	C	0.367337	0.264861	-0.011007
H278	H	0.340303	0.258261	-0.014164
H279	H	0.373091	0.264192	0.029583
H280	H	0.357807	0.315416	-0.052045
C281	C	0.405774	-0.118591	0.077727
H282	H	0.389642	-0.091975	0.099738
H283	H	0.380128	-0.108699	0.045825
H284	H	0.429171	-0.175577	0.112708
H285	H	0.413512	0.262329	0.067152
C286	C	0.405762	0.380467	0.077699
H287	H	0.409641	0.420735	0.072404
H288	H	0.370113	0.404013	0.059437
H289	H	0.419149	0.337145	0.126329
C290	C	0.335941	0.475713	0.077698
H291	H	0.332570	0.431691	0.099717
H292	H	0.354322	0.472636	0.045799
H293	H	0.354336	0.472643	0.112673
H294	H	0.145453	0.422887	0.104123
C295	C	0.243041	0.475695	0.077715
H296	H	0.278699	0.431680	0.099715
H297	H	0.226920	0.472609	0.112695
H298	H	0.226900	0.472621	0.045812
C299	C	0.066620	0.401759	0.114696
H300	H	0.102279	0.357745	0.136696
H301	H	0.050498	0.398669	0.149675
H302	H	0.050483	0.398684	0.082790
H303	H	-0.298194	0.496775	0.067199
C304	C	-0.203850	0.475655	0.077762
H305	H	-0.207224	0.431634	0.099777
H306	H	-0.185465	0.472576	0.045868
H307	H	-0.185459	0.472583	0.112742
C308	C	-0.317712	0.786132	-0.077483
H309	H	-0.353370	0.830147	-0.099498
H310	H	-0.301574	0.789218	-0.045591
H311	H	-0.301588	0.789207	-0.112463
H312	H	-0.220114	0.838931	-0.103877
H313	H	-0.007116	0.838956	-0.103878
H314	H	0.223517	0.765056	-0.066978
C315	C	0.129173	0.786173	-0.077524
H316	H	0.132543	0.830197	-0.099534
H317	H	0.110769	0.789252	-0.112494
H318	H	0.110801	0.789239	-0.045610
H319	H	0.413443	0.765033	-0.326056
H320	H	0.012723	0.422874	0.104149
H321	H	0.469666	0.733655	-0.496480
C322	C	0.470796	0.749831	-0.622674
H323	H	0.473090	0.783559	-0.612911
H324	H	0.500885	0.721787	-0.632181
H325	H	0.441033	0.782584	-0.662609
C326	C	0.519596	0.475685	-0.545047
H327	H	0.535737	0.431660	-0.549650
H328	H	0.545234	0.472605	-0.519944
H329	H	0.496198	0.472620	-0.519990
H330	H	0.511811	0.496811	-0.301432
