data_functionalizedCrystal
_audit_creation_method	'MofGen! by Chris Wilmer'
_symmetry_space_group_name_H-M	'P1'
_symmetry_Int_Tables_number	1
_symmetry_cell_setting	triclinic
loop_
_symmetry_equiv_pos_as_xyz
  x,y,z
_cell_length_a	21.395362
_cell_length_b	12.594516
_cell_length_c	21.395356
_cell_angle_alpha	89.981492
_cell_angle_beta	89.964230
_cell_angle_gamma	90.031933
loop_
_atom_site_label
_atom_site_type_symbol
_atom_site_fract_x
_atom_site_fract_y
_atom_site_fract_z
Zn1	Zn	0.957873	-0.423340	-0.354617
Zn2	Zn	1.457873	0.076660	0.145383
Zn3	Zn	0.957817	-0.601326	-0.249852
Zn4	Zn	1.457817	-0.101326	0.250148
Zn5	Zn	0.853103	-0.423411	-0.249818
Zn6	Zn	1.353103	0.076589	0.250182
Zn7	Zn	0.853084	-0.601326	-0.354557
Zn8	Zn	1.353084	-0.101326	0.145443
O9	O	0.905469	-0.512351	-0.302211
O10	O	1.405469	-0.012351	0.197789
O11	O	1.045543	-0.446920	-0.340759
O12	O	1.545543	0.053080	0.159241
O13	O	0.943911	-0.577755	-0.162170
O14	O	1.443911	-0.077755	0.337830
O15	O	0.867032	-0.274456	-0.263730
O16	O	1.367032	0.225544	0.236270
O17	O	1.045502	-0.577686	-0.263789
O18	O	1.545502	-0.077686	0.236211
O19	O	0.944006	-0.274403	-0.340725
O20	O	1.444006	0.225597	0.159275
O21	O	0.866978	-0.447042	-0.162144
O22	O	1.366978	0.052958	0.337856
O23	O	0.765422	-0.447042	-0.263672
O24	O	1.265422	0.052958	0.236328
O25	O	0.867000	-0.577686	-0.442243
O26	O	1.367000	-0.077686	0.057757
O27	O	0.765408	-0.577755	-0.340624
O28	O	1.265408	-0.077755	0.159376
O29	O	0.943988	-0.446920	-0.442287
O30	O	1.443988	0.053080	0.057713
O31	O	0.943893	-0.750272	-0.263731
O32	O	1.443893	-0.250272	0.236269
O33	O	0.866945	-0.750272	-0.340657
O34	O	1.366945	-0.250272	0.159343
C35	C	0.742681	-0.512407	-0.302138
C36	C	1.242681	-0.012407	0.197862
C37	C	0.673040	-0.512457	-0.302122
C38	C	1.173040	-0.012457	0.197878
C39	C	0.640336	-0.580609	-0.342130
C40	C	1.140336	-0.080609	0.157870
C41	C	0.574901	-0.580583	-0.342158
C42	C	1.074901	-0.080583	0.157842
C43	C	0.542172	-0.512416	-0.302167
C44	C	1.042172	-0.012416	0.197833
C45	C	0.574884	-0.444250	-0.262155
C46	C	1.074884	0.055750	0.237845
C47	C	0.640318	-0.444270	-0.262133
C48	C	1.140318	0.055730	0.237867
C49	C	0.438454	-0.503853	-0.245761
C50	C	0.938454	-0.003853	0.254239
C51	C	0.373021	-0.503840	-0.245782
C52	C	0.873021	-0.003840	0.254218
C53	C	0.340351	-0.512346	-0.302236
C54	C	0.840351	-0.012346	0.197764
C55	C	0.373122	-0.520888	-0.358670
C56	C	0.873122	-0.020888	0.141330
C57	C	0.438556	-0.520908	-0.358648
C58	C	0.938556	-0.020908	0.141352
C59	C	0.471219	-0.512385	-0.302187
C60	C	0.971219	-0.012385	0.197813
C61	C	0.236695	-0.580474	-0.342278
C62	C	0.736695	-0.080474	0.157722
C63	C	0.171258	-0.580441	-0.342307
C64	C	0.671258	-0.080441	0.157693
C65	C	0.171242	-0.444113	-0.262298
C66	C	0.671242	0.055887	0.237702
C67	C	0.236677	-0.444141	-0.262275
C68	C	0.736677	0.055859	0.237725
C69	C	0.269400	-0.512327	-0.302264
C70	C	0.769400	-0.012327	0.197736
C71	C	0.905428	-0.788892	-0.302205
C72	C	1.405428	-0.288892	0.197795
C73	C	0.905468	-0.907197	-0.302223
C74	C	1.405468	-0.407197	0.197777
C75	C	0.863612	-0.976489	-0.344034
C76	C	1.363612	-0.476489	0.155966
C77	C	0.848351	-1.047348	-0.286856
C78	C	1.348351	-0.547348	0.213144
C79	C	0.920786	-1.047137	-0.359410
C80	C	1.420786	-0.547137	0.140590
C81	C	0.890176	-0.976498	-0.245015
C82	C	1.390176	-0.476498	0.254985
C83	C	0.962638	-0.976280	-0.317608
C84	C	1.462638	-0.476280	0.182392
C85	C	0.947398	-1.047108	-0.260391
C86	C	1.447398	-0.547108	0.239609
C87	C	1.068892	-0.512295	-0.302284
C88	C	1.568892	-0.012295	0.197716
C89	C	1.138534	-0.512271	-0.302315
C90	C	1.638534	-0.012271	0.197685
C91	C	0.905498	-0.512295	-0.465634
C92	C	1.405498	-0.012295	0.034366
C93	C	0.905510	-0.512271	-0.535275
C94	C	1.405510	-0.012271	-0.035275
C95	C	0.905527	-0.234730	-0.302231
C96	C	1.405527	0.265270	0.197769
C97	C	0.905552	-0.116424	-0.302239
C98	C	1.405552	0.383576	0.197761
C99	C	0.945639	-0.580110	-1.037085
C100	C	1.445639	-0.080110	-0.537085
C101	C	0.945628	-0.580144	-0.971650
C102	C	1.445628	-0.080144	-0.471650
C103	C	0.905570	-0.512102	-0.938914
C104	C	1.405570	-0.012102	-0.438914
C105	C	0.865508	-0.444041	-0.971619
C106	C	1.365508	0.055959	-0.471619
C107	C	0.865516	-0.444017	-1.037053
C108	C	1.365516	0.055983	-0.537053
C109	C	0.900630	-0.416247	-0.835250
C110	C	1.400630	0.083753	-0.335250
C111	C	0.900626	-0.416270	-0.769817
C112	C	1.400626	0.083730	-0.269817
C113	C	0.905541	-0.512178	-0.737093
C114	C	1.405541	-0.012178	-0.237093
C115	C	0.910474	-0.608066	-0.769810
C116	C	1.410474	-0.108066	-0.269810
C117	C	0.910481	-0.608042	-0.835244
C118	C	1.410481	-0.108042	-0.335244
C119	C	0.905556	-0.512121	-0.867962
C120	C	1.405556	-0.012121	-0.367962
C121	C	0.945585	-0.580277	-0.633444
C122	C	1.445585	-0.080277	-0.133444
C123	C	0.945570	-0.580312	-0.568007
C124	C	1.445570	-0.080312	-0.068007
C125	C	0.865453	-0.444200	-0.567977
C126	C	1.365453	0.055800	-0.067977
C127	C	0.865465	-0.444173	-0.633412
C128	C	1.365465	0.055827	-0.133412
C129	C	0.905535	-0.512210	-0.666142
C130	C	1.405535	-0.012210	-0.166142
C131	C	0.905476	-0.512330	-0.139423
C132	C	1.405476	-0.012330	0.360577
C133	C	0.905586	-0.512054	-0.069782
C134	C	1.405586	-0.012054	0.430218
H135	H	0.263305	-0.388649	-0.229692
H136	H	0.763305	0.111351	0.270308
H137	H	0.828153	-0.945479	-0.379340
H138	H	1.328153	-0.445479	0.120660
N139	N	0.339559	-0.495130	-0.188133
N140	N	0.839559	0.004870	0.311867
N141	N	0.368733	-0.487525	-0.137732
N142	N	0.868733	0.012475	0.362268
H143	H	0.345102	-0.481376	-0.097015
H144	H	0.845102	0.018624	0.402985
H145	H	0.346524	-0.527813	-0.404640
H146	H	0.846524	-0.027813	0.095360
N147	N	0.270115	-0.650128	-0.383127
N148	N	0.770115	-0.150128	0.116873
N149	N	0.240903	-0.710970	-0.418851
N150	N	0.740903	-0.210970	0.081149
H151	H	0.264504	-0.760165	-0.447701
H152	H	0.764504	-0.260165	0.052299
H153	H	0.896614	-0.338191	-0.743184
H154	H	1.396614	0.161809	-0.243184
N155	N	0.873877	-0.937735	-0.184342
N156	N	1.373877	-0.437735	0.315658
N157	N	0.826646	-0.880521	-0.177516
N158	N	1.326646	-0.380521	0.322484
H159	H	0.815129	-0.853144	-0.134667
H160	H	1.315129	-0.353144	0.365333
H161	H	0.978254	-0.635551	-0.945023
H162	H	1.478254	-0.135551	-0.445023
H163	H	0.800042	-1.078587	-0.273857
H164	H	1.300042	-0.578587	0.226143
H165	H	0.978211	-0.635679	-0.660093
H166	H	1.478211	-0.135679	-0.160093
H167	H	0.896668	-0.338135	-0.861889
H168	H	1.396668	0.161865	-0.361889
H169	H	0.465236	-0.527860	-0.404598
H170	H	0.965236	-0.027860	0.095402
N171	N	0.991845	-1.085757	-0.215989
N172	N	1.491845	-0.585757	0.284011
N173	N	0.986135	-1.062905	-0.159425
N174	N	1.486135	-0.562905	0.340575
H175	H	1.017524	-1.090202	-0.128064
H176	H	1.517524	-0.590202	0.371936
H177	H	1.010935	-0.945044	-0.330634
H178	H	1.510935	-0.445044	0.169366
N179	N	0.986484	-0.649851	-0.534615
N180	N	1.486484	-0.149851	-0.034615
N181	N	1.022253	-0.710590	-0.563849
N182	N	1.522253	-0.210590	-0.063849
H183	H	1.051150	-0.759705	-0.540266
H184	H	1.551150	-0.259705	-0.040266
H185	H	0.832851	-0.388750	-0.660034
H186	H	1.332851	0.111250	-0.160034
N187	N	0.936988	-1.086065	-0.420073
N188	N	1.436988	-0.586065	0.079927
N189	N	0.903699	-1.063428	-0.466175
N190	N	1.403699	-0.563428	0.033825
H191	H	0.915136	-1.090919	-0.509020
H192	H	1.415136	-0.590919	-0.009020
N193	N	0.824594	-0.374491	-1.070446
N194	N	1.324594	0.125509	-0.570446
N195	N	0.788825	-0.313750	-1.041214
N196	N	1.288825	0.186250	-0.541214
H197	H	0.759924	-0.264645	-1.064798
H198	H	1.259924	0.235355	-0.564798
N199	N	0.137830	-0.374464	-0.221447
N200	N	0.637830	0.125536	0.278553
N201	N	0.145190	-0.276262	-0.225698
N202	N	0.645190	0.223738	0.274302
H203	H	0.121591	-0.227066	-0.196847
H204	H	0.621591	0.272934	0.303153
N205	N	0.541476	-0.650193	-0.383026
N206	N	1.041476	-0.150193	0.116974
N207	N	0.505015	-0.612831	-0.423000
N208	N	1.005015	-0.112831	0.077000
H209	H	0.481409	-0.661993	-0.451862
H210	H	0.981409	-0.161993	0.048138
H211	H	0.914477	-0.686164	-0.743168
H212	H	1.414477	-0.186164	-0.243168
H213	H	0.144632	-0.635937	-0.374890
H214	H	0.644632	-0.135937	0.125110
H215	H	0.978265	-0.635514	-1.063730
H216	H	1.478265	-0.135514	-0.563730
N217	N	0.824532	-0.374711	-0.534536
N218	N	1.324532	0.125289	-0.034536
N219	N	0.824527	-0.374745	-0.476114
N220	N	1.324527	0.125255	0.023886
H221	H	0.795623	-0.325670	-0.452493
H222	H	1.295623	0.174330	0.047507
N223	N	0.824589	-0.374551	-0.938173
N224	N	1.324589	0.125449	-0.438173
N225	N	0.824587	-0.374581	-0.879751
N226	N	1.324587	0.125419	-0.379751
H227	H	0.795685	-0.325505	-0.856129
H228	H	1.295685	0.174495	-0.356129
H229	H	0.548232	-0.388746	-0.229595
H230	H	1.048232	0.111254	0.270405
N231	N	0.673750	-0.650263	-0.382981
N232	N	1.173750	-0.150263	0.117019
N233	N	0.644537	-0.711109	-0.418702
N234	N	1.144537	-0.211109	0.081298
H235	H	0.668136	-0.760302	-0.447555
H236	H	1.168136	-0.260302	0.052445
N237	N	0.915519	-0.705990	-0.868654
N238	N	1.415519	-0.205990	-0.368654
N239	N	0.919910	-0.791619	-0.839436
N240	N	1.419910	-0.291619	-0.339436
H241	H	0.923466	-0.860798	-0.863032
H242	H	1.423466	-0.360798	-0.363032
H243	H	0.465048	-0.496922	-0.199786
H244	H	0.965048	0.003078	0.300214
H245	H	0.666945	-0.388769	-0.229553
H246	H	1.166945	0.111231	0.270447
