data_functionalizedCrystal
_audit_creation_method	'MofGen! by Chris Wilmer'
_symmetry_space_group_name_H-M	'P1'
_symmetry_Int_Tables_number	1
_symmetry_cell_setting	triclinic
loop_
_symmetry_equiv_pos_as_xyz
  x,y,z
_cell_length_a	14.519731
_cell_length_b	16.992695
_cell_length_c	15.455313
_cell_angle_alpha	87.152573
_cell_angle_beta	92.687541
_cell_angle_gamma	87.178538
loop_
_atom_site_label
_atom_site_type_symbol
_atom_site_fract_x
_atom_site_fract_y
_atom_site_fract_z
O1	O	-1.235029	-0.099450	-0.072154
O2	O	-0.967422	-0.111538	-0.072151
O3	O	-1.100152	0.008650	-0.072146
O4	O	-1.102298	-0.219638	-0.072160
O5	O	-1.092560	0.001806	0.072116
O6	O	-0.959830	-0.118382	0.072111
O7	O	-1.227437	-0.106294	0.072107
Cu8	Cu	-1.092940	-0.112963	0.085281
Cu9	Cu	-1.101919	-0.104869	-0.085325
O10	O	-1.094706	-0.226482	0.072102
C11	C	-0.929226	-0.114394	-0.000020
C12	C	-0.826724	-0.112697	-0.000019
C13	C	-0.743480	-0.111317	-0.000021
C14	C	-0.639048	-0.109594	-0.000019
C15	C	-0.555811	-0.108227	-0.000018
C16	C	-0.451372	-0.106504	-0.000018
N17	N	-1.086631	-0.118656	0.205277
C18	C	-1.093596	0.034444	-0.000015
C19	C	-1.085361	0.121501	-0.000015
C20	C	-0.265633	-0.103438	-0.000022
C21	C	-0.368134	-0.105136	-0.000016
C22	C	-1.101263	-0.252276	-0.000031
C23	C	-1.109498	-0.339332	-0.000036
C24	C	-1.164820	0.171625	-0.000015
C25	C	-1.157077	0.253423	-0.000023
C26	C	-1.069873	0.285096	-0.000025
C27	C	-0.990408	0.234965	-0.000028
C28	C	-0.998152	0.153169	-0.000026
C29	C	-1.037777	0.528741	-0.000037
C30	C	-1.030039	0.610544	-0.000036
C31	C	-1.196709	0.628996	-0.000033
C32	C	-1.204445	0.547197	-0.000026
C33	C	-1.124980	0.497074	-0.000033
N34	N	-1.061957	0.368706	-0.000031
N35	N	-1.132898	0.413465	-0.000034
N36	N	-1.108234	-0.099170	-0.205320
C37	C	-1.143042	-0.067615	0.250673
C38	C	-1.138281	-0.071927	0.341481
C39	C	-1.077112	-0.127285	0.386890
C40	C	-1.020695	-0.178329	0.341487
C41	C	-1.025453	-0.174012	0.250681
C42	C	-1.056575	-0.145897	0.658471
C43	C	-1.051823	-0.150211	0.749283
C44	C	-1.169408	-0.043808	0.749270
C45	C	-1.174164	-0.039499	0.658462
C46	C	-1.117744	-0.090540	0.613068
N47	N	-1.072245	-0.131696	0.479710
N48	N	-1.122606	-0.086125	0.520249
H49	H	-1.235830	0.145843	-0.000008
H50	H	-0.970885	-0.223400	0.378465
H51	H	-1.184214	-0.030365	0.378442
H52	H	-1.275455	0.521415	-0.000024
H53	H	-1.261404	0.669814	-0.000029
H54	H	-1.010636	-0.187458	0.621518
O55	O	-0.970622	-0.223677	0.206715
C56	C	-0.915597	-0.273452	0.266264
H57	H	-0.950085	-0.277491	0.330985
H58	H	-0.907511	-0.334802	0.240017
H59	H	-0.844701	-0.248313	0.275943
H60	H	-1.221782	0.294231	-0.000021
H61	H	-1.192856	-0.022540	0.213706
H62	H	-0.959023	0.636327	-0.000024
O63	O	-1.233454	0.014529	0.614588
C64	C	-1.211351	0.090999	0.637089
H65	H	-1.136118	0.090135	0.661945
H66	H	-1.222215	0.133377	0.577549
H67	H	-1.257846	0.111320	0.689967
O68	O	-0.960491	0.480169	0.000006
C69	C	-0.881867	0.525668	-0.000011
H70	H	-0.899348	0.585387	0.027297
H71	H	-0.823618	0.493600	0.041878
H72	H	-0.859058	0.534809	-0.069219
O73	O	-0.992310	-0.204004	0.793261
C74	C	-0.943543	-0.248138	0.733724
H75	H	-0.943531	-0.212912	0.668998
H76	H	-0.869392	-0.261190	0.759979
H77	H	-0.978271	-0.306001	0.724052
O78	O	-0.905767	0.265858	0.000008
C79	C	-0.915969	0.348803	-0.000012
H80	H	-0.985091	0.366612	0.027299
H81	H	-0.857600	0.372010	0.041872
H82	H	-0.913463	0.374859	-0.069221
O83	O	-0.920870	0.104586	0.000013
C84	C	-0.842241	0.150080	-0.000012
H85	H	-0.859711	0.209797	0.027303
H86	H	-0.783989	0.118005	0.041867
H87	H	-0.819442	0.159224	-0.069223
H88	H	-1.215342	-0.002252	0.786239
