data_functionalizedCrystal
_audit_creation_method	'MofGen! by Chris Wilmer'
_symmetry_space_group_name_H-M	'P1'
_symmetry_Int_Tables_number	1
_symmetry_cell_setting	triclinic
loop_
_symmetry_equiv_pos_as_xyz
  x,y,z
_cell_length_a	10.540491
_cell_length_b	16.176319
_cell_length_c	17.699083
_cell_angle_alpha	90.004339
_cell_angle_beta	96.105659
_cell_angle_gamma	89.994447
loop_
_atom_site_label
_atom_site_type_symbol
_atom_site_fract_x
_atom_site_fract_y
_atom_site_fract_z
O1	O	-1.683978	0.068740	0.106484
O2	O	-1.314373	0.068744	0.116571
O3	O	-1.509618	0.068735	0.001405
O4	O	-1.488734	0.068750	0.221650
O5	O	-1.509595	-0.068758	0.001405
O6	O	-1.314350	-0.068749	0.116571
O7	O	-1.683956	-0.068753	0.106483
Cu8	Cu	-1.499151	-0.081305	0.111527
Cu9	Cu	-1.499178	0.081296	0.111528
O10	O	-1.488711	-0.068744	0.221649
C11	C	-1.267071	-0.000002	0.115822
C12	C	-1.126161	-0.000001	0.113582
C13	C	-0.907241	0.000322	0.193591
C14	C	-1.053794	0.000006	0.195981
C15	C	-1.082159	-0.078517	0.071405
C16	C	-0.935430	-0.078577	0.069599
C17	C	-0.935682	0.077779	0.067884
C18	C	-1.081953	0.078811	0.071786
N19	N	-1.499141	-0.195670	0.111526
C20	C	-1.575979	-0.238928	0.157867
C21	C	-1.575993	-0.325476	0.157864
C22	C	-1.499161	-0.368763	0.111524
C23	C	-1.422320	-0.325499	0.065179
C24	C	-1.422314	-0.238953	0.065178
C25	C	-1.422343	-0.674527	0.065180
C26	C	-1.422352	-0.761079	0.065186
C27	C	-1.576022	-0.761049	0.157865
C28	C	-1.576016	-0.674504	0.157865
C29	C	-1.499181	-0.631247	0.111517
C30	C	-1.499169	-0.537403	0.111519
C31	C	-1.499165	-0.462606	0.111525
C32	C	-0.731255	-0.000003	0.107242
C33	C	-0.872158	0.000007	0.109512
C34	C	-1.508858	-0.000012	-0.026797
C35	C	-1.506613	-0.000012	-0.110829
N36	N	-1.499198	0.195662	0.111522
C37	C	-1.621218	-0.000014	-0.158717
C38	C	-1.619101	-0.000007	-0.237674
C39	C	-1.502378	-0.000003	-0.268742
C40	C	-1.387764	0.000001	-0.220848
C41	C	-1.389883	-0.000000	-0.141892
C42	C	-1.379219	0.000008	-0.539265
C43	C	-1.377109	0.000007	-0.618227
C44	C	-1.608437	0.000001	-0.635047
C45	C	-1.610555	-0.000000	-0.556092
C46	C	-1.495943	0.000009	-0.508205
C47	C	-1.498240	0.000002	-0.422591
C48	C	-1.500080	-0.000003	-0.354354
C49	C	-1.489470	0.000005	0.249851
C50	C	-1.491715	0.000011	0.333884
H51	H	-0.913561	-0.082147	0.007973
H52	H	-1.285894	0.000015	-0.500285
H53	H	-1.359768	-0.360750	0.027444
H54	H	-1.082546	0.056292	0.228977
H55	H	-1.110019	0.136896	0.102474
Cl56	Cl	-1.096706	-0.087036	0.247227
H57	H	-1.130659	-0.081441	0.010745
H58	H	-1.638537	-0.203690	0.195606
Cl59	Cl	-0.841575	0.087259	0.243160
Cl60	Cl	-1.230360	0.000014	-0.657282
Cl61	Cl	-1.752525	-0.000007	-0.695253
H62	H	-1.712424	-0.000011	-0.276661
H63	H	-0.914659	0.078306	0.006022
H64	H	-1.359744	-0.203734	0.027443
H65	H	-1.716267	-0.000022	-0.133428
Cl66	Cl	-1.757298	-0.000002	-0.517040
Cl67	Cl	-1.325699	-0.620159	0.006943
Cl68	Cl	-1.245802	0.000006	-0.081690
H69	H	-1.638564	-0.360692	0.195597
H70	H	-1.638576	-0.639263	0.195602
H71	H	-1.292726	0.000010	-0.246149
H72	H	-0.863140	-0.055663	0.225508
H73	H	-0.894677	-0.137264	0.098426
H74	H	-1.112469	-0.136945	0.100696
H75	H	-0.892668	0.137290	0.093869
H76	H	-1.638588	-0.796279	0.195602
H77	H	-1.132122	0.083548	0.011629
Cl78	Cl	-1.325757	-0.815496	0.006924
