data_functionalizedCrystal
_audit_creation_method	'MofGen! by Chris Wilmer'
_symmetry_space_group_name_H-M	'P1'
_symmetry_Int_Tables_number	1
_symmetry_cell_setting	triclinic
loop_
_symmetry_equiv_pos_as_xyz
  x,y,z
_cell_length_a	25.639239
_cell_length_b	18.215407
_cell_length_c	18.215399
_cell_angle_alpha	89.982632
_cell_angle_beta	89.969965
_cell_angle_gamma	90.036130
loop_
_atom_site_label
_atom_site_type_symbol
_atom_site_fract_x
_atom_site_fract_y
_atom_site_fract_z
Zn1	Zn	-0.208192	1.125001	-0.416057
Zn2	Zn	-0.295628	1.124880	-0.292986
Zn3	Zn	-0.208204	1.001934	-0.293009
Zn4	Zn	-0.295594	1.001870	-0.416016
O5	O	-0.251905	1.063421	-0.354517
O6	O	-0.219799	1.227969	-0.399738
O7	O	-0.284050	1.108547	-0.190005
O8	O	-0.135037	1.018336	-0.309359
O9	O	-0.284038	1.227880	-0.309319
O10	O	-0.135028	1.108754	-0.399761
O11	O	-0.219821	1.018219	-0.190022
O12	O	-0.219788	0.898941	-0.309319
O13	O	-0.283981	1.018228	-0.519006
O14	O	-0.283993	0.898894	-0.399692
O15	O	-0.219767	1.108692	-0.519036
O16	O	-0.368789	1.108485	-0.309279
O17	O	-0.368764	1.018110	-0.399669
C18	C	-0.251888	0.872215	-0.354504
C19	C	-0.251894	0.790416	-0.354516
C20	C	-0.218514	0.602268	-0.401672
C21	C	-0.218518	0.525409	-0.401674
C22	C	-0.285310	0.525327	-0.307375
C23	C	-0.285302	0.602184	-0.307370
C24	C	-0.251905	0.640653	-0.354522
C25	C	-0.251917	0.486937	-0.354530
C26	C	-0.251922	0.403603	-0.354533
C27	C	-0.251899	0.723992	-0.354519
C28	C	-0.387747	1.063298	-0.354483
C29	C	-0.445861	1.063312	-0.354494
C30	C	-0.806224	1.110602	-0.307531
C31	C	-0.860829	1.110631	-0.307541
O32	O	-0.889066	1.150710	-0.267575
N33	N	-0.888144	1.063551	-0.354566
C34	C	-0.860851	1.016444	-0.401589
O35	O	-0.889099	0.976402	-0.441589
C36	C	-0.806248	1.016420	-0.401582
C37	C	-0.778936	1.063498	-0.354549
C38	C	-0.778912	1.157677	-0.260503
C39	C	-0.724312	1.157647	-0.260492
C40	C	-0.697023	1.110543	-0.307510
C41	C	-0.724335	1.063468	-0.354539
C42	C	-0.778957	0.969318	-0.448609
C43	C	-0.724350	0.969298	-0.448598
C44	C	-0.697038	1.016376	-0.401565
C45	C	-0.642446	1.016334	-0.401546
N46	N	-0.615132	1.063414	-0.354521
C47	C	-0.642420	1.110519	-0.307503
C48	C	-0.975522	1.016500	-0.401600
C49	C	-1.030124	1.016520	-0.401604
C50	C	-1.030098	1.110707	-0.307557
C51	C	-0.975495	1.110683	-0.307550
C52	C	-0.948207	1.063580	-0.354576
C53	C	-0.527755	1.110452	-0.307484
C54	C	-0.473150	1.110416	-0.307476
C55	C	-0.473181	1.016232	-0.401525
C56	C	-0.527781	1.016265	-0.401531
C57	C	-0.555067	1.063381	-0.354508
O58	O	-0.614175	0.976277	-0.441494
O59	O	-0.614166	1.150561	-0.267517
C60	C	-0.115532	1.063566	-0.354567
C61	C	-0.057417	1.063627	-0.354588
C62	C	-0.251869	1.063466	-0.546470
C63	C	-0.251853	1.063485	-0.628269
C64	C	-0.251921	1.255374	-0.354530
C65	C	-0.251928	1.337173	-0.354536
C66	C	-0.218386	1.110607	-0.816480
C67	C	-0.218370	1.110616	-0.893339
C68	C	-0.285240	1.016416	-0.893296
C69	C	-0.285252	1.016404	-0.816439
C70	C	-0.251826	1.063504	-0.778033
C71	C	-0.251798	1.063524	-0.931749
C72	C	-0.251782	1.063534	-1.015082
C73	C	-0.251841	1.063494	-0.694694
C74	C	-0.251903	1.063419	-0.163311
C75	C	-0.251771	1.063543	-0.081512
H76	H	-0.191327	0.494159	-0.440067
H77	H	-0.702078	1.195984	-0.222196
H78	H	-0.191166	1.148956	-0.785212
O79	O	-0.321332	0.483832	-0.256526
H80	H	-0.312308	0.498563	-0.198788
O81	O	-0.557245	0.965488	-0.452256
H82	H	-0.529093	0.932731	-0.484950
H83	H	-0.312494	0.633438	-0.268970
H84	H	-0.450914	1.148753	-0.269173
O85	O	-0.557182	1.161263	-0.256762
H86	H	-0.529009	1.193982	-0.224057
O87	O	-1.059581	0.965738	-0.452327
H88	H	-1.031426	0.932985	-0.485020
H89	H	-0.801125	1.196039	-0.222215
H90	H	-0.953260	1.149018	-0.269252
H91	H	-1.052326	1.149065	-0.269275
H92	H	-0.953307	0.978136	-0.439892
O93	O	-0.321316	0.965595	-0.774956
H94	H	-0.297907	0.928177	-0.739954
O95	O	-0.182486	0.643755	-0.452520
H96	H	-0.205914	0.678765	-0.489910
O97	O	-0.808407	0.918545	-0.499342
H98	H	-0.780250	0.885799	-0.532038
O99	O	-0.694917	0.918483	-0.499311
H100	H	-0.723086	0.885749	-0.532006
O101	O	-0.443744	0.965430	-0.452240
H102	H	-0.401187	0.973331	-0.444334
O103	O	-0.321294	0.965622	-0.934723
H104	H	-0.312321	0.907871	-0.919970
H105	H	-0.191139	1.148971	-0.924639
