data_functionalizedCrystal
_audit_creation_method	'MofGen! by Chris Wilmer'
_symmetry_space_group_name_H-M	'P1'
_symmetry_Int_Tables_number	1
_symmetry_cell_setting	triclinic
loop_
_symmetry_equiv_pos_as_xyz
  x,y,z
_cell_length_a	15.298709
_cell_length_b	25.639240
_cell_length_c	15.296720
_cell_angle_alpha	99.632790
_cell_angle_beta	107.326335
_cell_angle_gamma	99.728959
loop_
_atom_site_label
_atom_site_type_symbol
_atom_site_fract_x
_atom_site_fract_y
_atom_site_fract_z
Zn1	Zn	1.330590	-0.102606	-0.280156
Zn2	Zn	1.830590	0.397394	0.219844
Zn3	Zn	1.357390	-0.171759	-0.124654
Zn4	Zn	1.857390	0.328241	0.375346
Zn5	Zn	1.202006	-0.102641	-0.151536
Zn6	Zn	1.702006	0.397359	0.348464
Zn7	Zn	1.175024	-0.208324	-0.306952
Zn8	Zn	1.675024	0.291676	0.193048
O9	O	1.266252	-0.146332	-0.215824
O10	O	1.766252	0.353668	0.284176
O11	O	1.464278	-0.096462	-0.237064
O12	O	1.964278	0.403538	0.262936
O13	O	1.359286	-0.147302	0.001900
O14	O	1.859286	0.352698	0.501900
O15	O	1.219138	-0.029467	-0.168633
O16	O	1.719138	0.470533	0.331367
O17	O	1.483968	-0.147268	-0.122818
O18	O	1.983968	0.352732	0.377182
O19	O	1.313608	-0.029441	-0.263130
O20	O	1.813608	0.470559	0.236870
O21	O	1.245125	-0.096521	-0.017850
O22	O	1.745125	0.403479	0.482150
O23	O	1.068293	-0.131977	-0.194616
O24	O	1.568293	0.368023	0.305384
O25	O	1.173153	-0.209588	-0.433518
O26	O	1.673153	0.290412	0.066482
O27	O	1.048470	-0.209622	-0.308800
O28	O	1.548470	0.290378	0.191200
O29	O	1.287446	-0.131918	-0.413831
O30	O	1.787446	0.368082	0.086169
O31	O	1.333123	-0.249778	-0.148801
O32	O	1.833123	0.250222	0.351199
O33	O	1.199140	-0.276642	-0.282734
O34	O	1.699140	0.223358	0.217266
C35	C	1.024639	-0.174771	-0.257533
C36	C	1.524639	0.325229	0.242467
C37	C	0.921272	-0.186953	-0.275398
C38	C	1.421272	0.313047	0.224602
C39	C	0.862434	-0.233140	-0.343145
C40	C	1.362434	0.266860	0.156855
C41	C	0.765314	-0.244584	-0.359939
C42	C	1.265314	0.255416	0.140061
C43	C	0.727023	-0.209843	-0.308983
C44	C	1.227023	0.290157	0.191017
C45	C	0.785863	-0.163657	-0.241231
C46	C	1.285863	0.336343	0.258769
C47	C	0.882992	-0.152210	-0.224440
C48	C	1.382992	0.347790	0.275560
C49	C	0.747581	-0.128913	-0.190278
C50	C	1.247581	0.371087	0.309722
C51	C	0.806421	-0.082726	-0.122525
C52	C	1.306421	0.417274	0.377475
C53	C	0.903540	-0.071281	-0.105737
C54	C	1.403540	0.428719	0.394263
C55	C	0.941830	-0.106022	-0.156693
C56	C	1.441830	0.393978	0.343307
C57	C	0.650453	-0.140360	-0.207069
C58	C	1.150453	0.359640	0.292931
C59	C	0.671011	-0.059429	-0.088364
C60	C	1.171011	0.440571	0.411636
C61	C	0.768130	-0.047985	-0.071570
C62	C	1.268130	0.452015	0.428430
C63	C	1.266134	-0.282182	-0.215774
C64	C	1.766134	0.217818	0.284226
C65	C	1.266162	-0.340292	-0.215769
C66	C	1.766162	0.159708	0.284231
C67	C	1.315454	-0.700609	-0.265131
C68	C	1.815454	-0.200609	0.234869
C69	C	1.315478	-0.755213	-0.265145
C70	C	1.815478	-0.255213	0.234855
O71	O	1.357244	-0.783420	-0.307067
O72	O	1.857244	-0.283420	0.192933
N73	N	1.266366	-0.782567	-0.215892
N74	N	1.766366	-0.282567	0.284108
C75	C	1.217218	-0.755316	-0.166629
C76	C	1.717218	-0.255316	0.333371
O77	O	1.175446	-0.783597	-0.124738
O78	O	1.675446	-0.283597	0.375262
C79	C	1.217189	-0.700715	-0.166621
C80	C	1.717189	-0.200715	0.333379
C81	C	1.266313	-0.673362	-0.215870
C82	C	1.766313	-0.173362	0.284130
C83	C	1.364572	-0.673257	-0.314377
C84	C	1.864572	-0.173257	0.185623
C85	C	1.364549	-0.618657	-0.314361
C86	C	1.864549	-0.118657	0.185639
C87	C	1.315408	-0.591410	-0.265099
C88	C	1.815408	-0.091410	0.234901
C89	C	1.266290	-0.618762	-0.215854
C90	C	1.766290	-0.118762	0.284146
C91	C	1.168037	-0.673467	-0.117365
C92	C	1.668037	-0.173467	0.382635
C93	C	1.168012	-0.618862	-0.117361
C94	C	1.668012	-0.118862	0.382639
C95	C	1.217135	-0.591509	-0.166610
C96	C	1.717135	-0.091509	0.333390
C97	C	1.217125	-0.536915	-0.166577
C98	C	1.717125	-0.036915	0.333423
N99	N	1.266238	-0.509561	-0.215830
N100	N	1.766238	-0.009561	0.284170
C101	C	1.315379	-0.536809	-0.265091
C102	C	1.815379	-0.036809	0.234909
C103	C	1.217282	-0.869983	-0.166651
C104	C	1.717282	-0.369983	0.333349
C105	C	1.217316	-0.924582	-0.166653
C106	C	1.717316	-0.424582	0.333347
C107	C	1.315574	-0.924475	-0.265171
C108	C	1.815574	-0.424475	0.234829
C109	C	1.315545	-0.869874	-0.265163
C110	C	1.815545	-0.369874	0.234837
C111	C	1.266394	-0.842629	-0.215905
C112	C	1.766394	-0.342629	0.284095
C113	C	1.315328	-0.422145	-0.265054
C114	C	1.815328	0.077855	0.234946
C115	C	1.315304	-0.367540	-0.265031
C116	C	1.815304	0.132460	0.234969
C117	C	1.217042	-0.367652	-0.166517
C118	C	1.717042	0.132348	0.333483
C119	C	1.217069	-0.422252	-0.166536
C120	C	1.717069	0.077748	0.333464
C121	C	1.266214	-0.449497	-0.215812
C122	C	1.766214	0.050503	0.284188
O123	O	1.175378	-0.508674	-0.124680
O124	O	1.675378	-0.008674	0.375320
O125	O	1.357134	-0.508523	-0.306986
O126	O	1.857134	-0.008523	0.193014
C127	C	1.508809	-0.117783	-0.173953
C128	C	2.008809	0.382217	0.326047
C129	C	1.612172	-0.105617	-0.156110
C130	C	2.112172	0.394383	0.343890
C131	C	1.224300	-0.174828	-0.458356
C132	C	1.724300	0.325172	0.041644
C133	C	1.206422	-0.186971	-0.561709
C134	C	1.706422	0.313029	-0.061709
C135	C	1.266393	-0.009952	-0.215891
C136	C	1.766393	0.490048	0.284109
C137	C	1.266454	0.048166	-0.215919
C138	C	1.766454	0.548166	0.284081
C139	C	1.394061	-0.059448	-0.812041
C140	C	1.894061	0.440552	-0.312041
C141	C	1.410864	-0.048039	-0.714935
C142	C	1.910864	0.451961	-0.214935
C143	C	1.359755	-0.082771	-0.676624
C144	C	1.859755	0.417229	-0.176624
C145	C	1.291840	-0.128914	-0.735428
C146	C	1.791840	0.371086	-0.235428
C147	C	1.275041	-0.140326	-0.832542
C148	C	1.775041	0.359674	-0.332542
C149	C	1.240735	-0.163649	-0.697125
C150	C	1.740735	0.336351	-0.197125
C151	C	1.172820	-0.209792	-0.755929
C152	C	1.672820	0.290208	-0.255929
C153	C	1.156024	-0.221202	-0.853034
C154	C	1.656024	0.278798	-0.353034
C155	C	1.207133	-0.186470	-0.891345
C156	C	1.707133	0.313530	-0.391345
C157	C	1.257534	-0.152237	-0.600010
C158	C	1.757534	0.347763	-0.100010
C159	C	1.138514	-0.233115	-0.620512
C160	C	1.638514	0.266885	-0.120512
C161	C	1.121711	-0.244524	-0.717617
C162	C	1.621711	0.255476	-0.217617
C163	C	1.308095	-0.117904	0.025773
C164	C	1.808095	0.382096	0.525773
C165	C	1.326153	-0.105592	0.129156
C166	C	1.826153	0.394408	0.629156
H167	H	0.717413	-0.282189	-0.415103
H168	H	1.217413	0.217811	0.084897
H169	H	1.096898	-0.261397	-0.589319
H170	H	1.596898	0.238603	-0.089319
C171	C	0.628906	-0.021211	-0.032307
C172	C	1.128906	0.478789	0.467693
H173	H	0.677856	0.007940	0.010438
H174	H	1.177856	0.507940	0.510438
H175	H	0.598012	-0.040874	0.001723
H176	H	1.098012	0.459126	0.501723
H177	H	0.584879	-0.007112	-0.074510
H178	H	1.084879	0.492888	0.425490
H179	H	1.373440	-0.073479	-0.597555
H180	H	1.873440	0.426521	-0.097555
H181	H	0.951444	-0.033671	-0.050574
H182	H	1.451444	0.466329	0.449426
H183	H	1.404546	-0.596390	-0.354466
H184	H	1.904546	-0.096390	0.145534
C185	C	0.832858	0.002820	0.002947
C186	C	1.332858	0.502820	0.502947
H187	H	0.896182	0.004661	0.005640
H188	H	1.396182	0.504661	0.505640
H189	H	0.827734	0.000692	0.062696
H190	H	1.327734	0.500692	0.562696
H191	H	0.814598	0.034453	-0.013538
H192	H	1.314598	0.534453	0.486462
H193	H	1.312830	-0.114667	-0.552141
H194	H	1.812830	0.385333	-0.052141
C195	C	1.369332	-0.337456	-0.319216
C196	C	1.869332	0.162544	0.180784
H197	H	1.398591	-0.361509	-0.348564
H198	H	1.898591	0.138491	0.151436
H199	H	1.416020	-0.307197	-0.276682
H200	H	1.916020	0.192803	0.223318
H201	H	1.326703	-0.325113	-0.365847
H202	H	1.826703	0.174887	0.134153
C203	C	1.418639	-0.703219	-0.368562
C204	C	1.918639	-0.203219	0.131438
H205	H	1.447889	-0.679100	-0.397879
H206	H	1.947889	-0.179100	0.102121
H207	H	1.376055	-0.733476	-0.415203
H208	H	1.876055	-0.233476	0.084797
H209	H	1.465354	-0.715554	-0.326021
H210	H	1.965354	-0.215554	0.173979
C211	C	0.585737	-0.191162	-0.281586
C212	C	1.085737	0.308838	0.218414
H213	H	0.522409	-0.193003	-0.284297
H214	H	1.022409	0.306997	0.215703
H215	H	0.604001	-0.222793	-0.265111
H216	H	1.104001	0.277207	0.234889
H217	H	0.590866	-0.189026	-0.341336
H218	H	1.090866	0.310974	0.158664
C219	C	1.188652	-0.199023	-0.998162
C220	C	1.688652	0.300977	-0.498162
H221	H	1.140886	-0.231478	-1.027699
H222	H	1.640886	0.268522	-0.527699
H223	H	1.244853	-0.203581	-1.009767
H224	H	1.744853	0.296419	-0.509767
H225	H	1.168798	-0.169754	-1.022923
H226	H	1.668798	0.330246	-0.522923
H227	H	1.355339	-0.444323	-0.305186
H228	H	1.855339	0.055677	0.194814
H229	H	1.435672	-0.031177	-0.843243
H230	H	1.935672	0.468823	-0.343243
C231	C	1.081323	-0.271958	-0.917715
C232	C	1.581323	0.228042	-0.417715
H233	H	1.053284	-0.291007	-0.880995
H234	H	1.553284	0.208993	-0.380995
H235	H	1.110316	-0.295006	-0.949447
H236	H	1.610316	0.204994	-0.449447
H237	H	1.034272	-0.261172	-0.962600
H238	H	1.534272	0.238828	-0.462600
C239	C	1.369561	-0.839794	-0.319355
C240	C	1.869561	-0.339794	0.180645
H241	H	1.398822	-0.863848	-0.348699
H242	H	1.898822	-0.363848	0.151301
H243	H	1.416247	-0.809531	-0.276830
H244	H	1.916247	-0.309531	0.223170
H245	H	1.326925	-0.827457	-0.365991
H246	H	1.826925	-0.327457	0.134009
H247	H	1.355586	-0.946670	-0.305284
H248	H	1.855586	-0.446670	0.194716
H249	H	1.177327	-0.946845	-0.126538
H250	H	1.677327	-0.446845	0.373462
C251	C	1.113992	-0.703545	-0.063198
C252	C	1.613992	-0.203545	0.436802
H253	H	1.084716	-0.679492	-0.033874
H254	H	1.584716	-0.179492	0.466126
H255	H	1.156598	-0.715894	-0.016564
H256	H	1.656598	-0.215894	0.483436
H257	H	1.067301	-0.733801	-0.105749
H258	H	1.567301	-0.233801	0.394251
C259	C	0.904553	-0.271346	-0.399193
C260	C	1.404553	0.228654	0.100807
H261	H	0.970823	-0.257914	-0.379487
H262	H	1.470823	0.242086	0.120513
H263	H	0.877845	-0.272965	-0.464442
H264	H	1.377845	0.227035	0.035558
H265	H	0.890989	-0.306732	-0.388217
H266	H	1.390989	0.193268	0.111783
C267	C	1.048663	-0.093432	-0.138219
C268	C	1.548663	0.406568	0.361781
H269	H	1.078224	-0.060951	-0.090570
H270	H	1.578224	0.439049	0.409430
H271	H	1.060276	-0.088909	-0.194451
H272	H	1.560276	0.411091	0.305549
H273	H	1.073402	-0.122671	-0.118219
H274	H	1.573402	0.377329	0.381781
C275	C	1.047013	-0.295280	-0.782302
C276	C	1.547013	0.204720	-0.282302
H277	H	1.018973	-0.314331	-0.745585
H278	H	1.518973	0.185669	-0.245585
H279	H	1.076009	-0.318326	-0.814035
H280	H	1.576009	0.181674	-0.314035
H281	H	0.999962	-0.284494	-0.827187
H282	H	1.499962	0.215506	-0.327187
H283	H	1.177261	-0.847801	-0.126531
H284	H	1.677261	-0.347801	0.373469
H285	H	1.127984	-0.596682	-0.077251
H286	H	1.627984	-0.096682	0.422749
H287	H	1.466162	-0.010471	-0.667063
H288	H	1.966162	0.489529	-0.167063
H289	H	0.647943	-0.219163	-0.322662
H290	H	1.147943	0.280837	0.177338
H291	H	1.177078	-0.444522	-0.126425
H292	H	1.677078	0.055478	0.373575
H293	H	1.177035	-0.345458	-0.126406
H294	H	1.677035	0.154542	0.373594
