data_functionalizedCrystal
_audit_creation_method	'MofGen! by Chris Wilmer'
_symmetry_space_group_name_H-M	'P1'
_symmetry_Int_Tables_number	1
_symmetry_cell_setting	triclinic
loop_
_symmetry_equiv_pos_as_xyz
  x,y,z
_cell_length_a	19.288864
_cell_length_b	10.723023
_cell_length_c	18.366186
_cell_angle_alpha	89.994813
_cell_angle_beta	89.977106
_cell_angle_gamma	83.801897
loop_
_atom_site_label
_atom_site_type_symbol
_atom_site_fract_x
_atom_site_fract_y
_atom_site_fract_z
O1	O	0.922365	0.155659	-0.060782
O2	O	0.720241	0.176657	-0.060732
O3	O	0.825966	-0.015516	-0.060755
O4	O	0.816641	0.347832	-0.060759
O5	O	0.825948	-0.015526	0.060344
O6	O	0.720223	0.176647	0.060368
O7	O	0.922347	0.155649	0.060318
Zn8	Zn	0.821282	0.166147	0.079570
Zn9	Zn	0.821306	0.166159	-0.079984
O10	O	0.816623	0.347823	0.060341
C11	C	0.694351	0.175977	-0.000176
C12	C	0.617235	0.173948	-0.000157
C13	C	0.825278	-0.062006	-0.000206
C14	C	0.823248	-0.200518	-0.000208
C15	C	0.573272	0.286707	-0.000169
C16	C	0.500812	0.284801	-0.000177
C17	C	0.472319	0.170131	-0.000187
C18	C	0.516291	0.057358	-0.000171
C19	C	0.588749	0.059266	-0.000155
C20	C	0.363477	0.079991	-0.042637
C21	C	0.291020	0.078087	-0.042657
C22	C	0.248835	0.164239	-0.000231
C23	C	0.279114	0.252317	0.042205
C24	C	0.351572	0.254226	0.042220
C25	C	0.393751	0.168049	-0.000204
C26	C	0.126303	0.274940	-0.000252
C27	C	0.053842	0.273029	-0.000255
C28	C	0.069323	0.045582	-0.000256
C29	C	0.141782	0.047496	-0.000245
C30	C	0.170267	0.162178	-0.000246
C31	C	0.822353	-0.262260	-0.062942
C32	C	0.820255	-0.405419	-0.062945
C33	C	0.948237	0.156330	-0.000240
C34	C	1.025354	0.158358	-0.000264
C35	C	0.817310	0.394313	-0.000210
C36	C	0.819340	0.532824	-0.000213
N37	N	0.821271	0.166138	0.188461
N38	N	0.821323	0.166159	-0.188875
C39	C	0.868102	0.081085	0.226551
C40	C	0.868106	0.081079	0.302779
C41	C	0.821286	0.166148	0.340914
C42	C	0.774447	0.251207	0.302814
C43	C	0.774439	0.251202	0.226588
C44	C	0.812728	0.279841	0.461674
C45	C	0.812740	0.279847	0.537899
C46	C	0.821306	0.166164	0.576021
C47	C	0.829874	0.052468	0.537909
C48	C	0.829867	0.052463	0.461682
C49	C	0.821289	0.166163	0.423568
C50	C	0.868144	0.081098	0.696766
C51	C	0.868144	0.081091	0.772995
C52	C	0.774488	0.251229	0.773029
C53	C	0.774485	0.251226	0.696802
C54	C	0.821317	0.166161	0.658675
H55	H	0.596459	0.380090	-0.000172
Cl56	Cl	0.197053	-0.094266	-0.000234
H57	H	0.906277	0.011824	0.804009
Cl58	Cl	0.715624	0.358163	0.820965
H59	H	0.736354	0.320488	0.665786
H60	H	0.822457	-0.253642	0.053498
H61	H	0.376223	0.325938	0.076776
H62	H	0.820114	-0.414088	0.053499
H63	H	0.465011	0.376626	-0.000186
Cl64	Cl	0.715585	0.358146	0.350753
Cl65	Cl	0.480472	-0.086800	-0.000179
H66	H	0.397819	0.009832	-0.077190
H67	H	0.624544	-0.032558	-0.000146
Cl68	Cl	0.840649	-0.090459	0.585825
Cl69	Cl	0.226090	0.360632	0.095544
H70	H	0.819488	-0.458516	-0.116654
H71	H	0.823136	-0.209134	-0.116648
Cl72	Cl	0.801974	0.422777	0.585804
Cl73	Cl	0.926985	-0.025853	0.350672
H74	H	0.736303	0.320463	0.195574
Cl75	Cl	0.252961	-0.032626	-0.096013
H76	H	0.906233	0.011818	0.195510
H77	H	0.046124	-0.047784	-0.000309
H78	H	0.836841	-0.040112	0.430654
Cl79	Cl	0.927014	-0.025846	0.648834
H80	H	0.149497	0.368320	-0.000242
Cl81	Cl	-0.001427	0.414797	-0.000267
H82	H	0.805740	0.372422	0.430641
