data_functionalizedCrystal
_audit_creation_method	'MofGen! by Chris Wilmer'
_symmetry_space_group_name_H-M	'P1'
_symmetry_Int_Tables_number	1
_symmetry_cell_setting	triclinic
loop_
_symmetry_equiv_pos_as_xyz
  x,y,z
_cell_length_a	14.519709
_cell_length_b	27.732048
_cell_length_c	13.596369
_cell_angle_alpha	89.989067
_cell_angle_beta	90.000291
_cell_angle_gamma	83.161400
loop_
_atom_site_label
_atom_site_type_symbol
_atom_site_fract_x
_atom_site_fract_y
_atom_site_fract_z
O1	O	1.222766	0.063362	-0.081675
O2	O	0.954159	0.070824	-0.081706
O3	O	1.096805	-0.003264	-0.081671
O4	O	1.080120	0.137450	-0.081710
O5	O	1.096791	-0.003268	0.081912
O6	O	0.954145	0.070820	0.081877
O7	O	1.222752	0.063358	0.081908
Zn8	Zn	1.088446	0.067088	0.107865
Zn9	Zn	1.088465	0.067094	-0.107663
O10	O	1.080106	0.137446	0.081873
C11	C	0.919799	0.070474	0.000082
C12	C	0.817435	0.069432	0.000071
C13	C	1.096448	-0.021274	0.000124
C14	C	1.095393	-0.074934	0.000132
C15	C	0.442606	0.065596	0.000116
C16	C	0.546896	0.066661	0.000103
C17	C	0.630018	0.067514	0.000093
C18	C	0.734314	0.068579	0.000081
C19	C	1.173048	-0.413378	0.000090
C20	C	1.169135	-0.615057	0.000076
O21	O	1.240145	-0.645973	0.000041
N22	N	1.084552	-0.634585	0.000067
C23	C	1.000941	-0.603690	0.000055
O24	O	0.928909	-0.624927	0.000037
C25	C	1.004855	-0.402012	0.000062
C26	C	1.089444	-0.382487	0.000081
C27	C	1.257630	-0.393853	0.000108
C28	C	1.258607	-0.343436	0.000117
C29	C	1.175003	-0.312545	0.000108
C30	C	1.090421	-0.332071	0.000090
C31	C	0.921246	-0.371118	0.000043
C32	C	0.922232	-0.320696	0.000043
C33	C	1.006820	-0.301171	0.000062
C34	C	1.007794	-0.250763	0.000090
N35	N	1.092377	-0.231235	0.000099
C36	C	1.175981	-0.262126	0.000108
C37	C	0.998893	-0.709574	0.000053
C38	C	0.997914	-0.759993	0.000053
C39	C	1.166108	-0.771356	0.000072
C40	C	1.167086	-0.720936	0.000079
C41	C	1.083476	-0.690045	0.000062
C42	C	1.178028	-0.156247	0.000128
C43	C	1.178998	-0.105825	0.000141
C44	C	1.010804	-0.094466	0.000116
C45	C	1.009833	-0.144883	0.000109
C46	C	1.093453	-0.175773	0.000111
O47	O	0.936822	-0.219818	0.000114
O48	O	1.248004	-0.240879	0.000104
C49	C	1.172071	-0.463795	0.000081
C50	C	1.087489	-0.483320	0.000063
C51	C	1.003885	-0.452429	0.000054
C52	C	1.086510	-0.533740	0.000063
C53	C	1.170115	-0.564631	0.000072
C54	C	1.254698	-0.545103	0.000081
C55	C	1.255675	-0.494686	0.000090
C56	C	0.919302	-0.471957	0.000046
C57	C	0.918331	-0.522375	0.000038
C58	C	1.001936	-0.553266	0.000047
C59	C	1.257113	0.063708	0.000119
C60	C	1.359476	0.064750	0.000123
C61	C	1.080464	0.155456	0.000077
C62	C	1.081518	0.209116	0.000062
N63	N	1.088441	0.067085	0.254957
N64	N	1.088478	0.067094	-0.254754
C65	C	1.088464	0.067094	0.656248
C66	C	1.088454	0.067093	0.544596
C67	C	1.088453	0.067090	0.455606
C68	C	1.088442	0.067088	0.343947
H69	H	1.247882	-0.089931	0.000158
H70	H	1.234182	-0.796516	0.000080
H71	H	1.246119	-0.181392	0.000126
H72	H	0.849444	-0.538266	0.000031
H73	H	1.235965	-0.705043	0.000094
C74	C	1.348724	-0.473212	0.000103
C75	C	1.372541	-0.440107	-0.084837
C76	C	1.465595	-0.418637	-0.084827
C77	C	1.534832	-0.430273	0.000123
C78	C	1.511017	-0.463380	0.085068
C79	C	1.417963	-0.484850	0.085058
H80	H	1.321286	-0.431491	-0.147727
H81	H	1.483224	-0.394129	-0.147709
H82	H	1.603717	-0.414380	0.000130
H83	H	1.562273	-0.471995	0.147958
H84	H	1.400334	-0.509358	0.147941
H85	H	0.851220	-0.446810	0.000036
C86	C	0.904864	-0.781466	0.000045
C87	C	0.835613	-0.769847	0.084978
C88	C	0.742559	-0.791318	0.084963
C89	C	0.718758	-0.824407	0.000015
C90	C	0.788011	-0.836027	-0.084925
C91	C	0.881064	-0.814557	-0.084910
H92	H	0.853231	-0.745351	0.147867
H93	H	0.691294	-0.782715	0.147841
H94	H	0.649874	-0.840301	0.000004
H95	H	0.770393	-0.860523	-0.147814
H96	H	0.932330	-0.823159	-0.147788
C97	C	1.346664	-0.579089	0.000088
C98	C	1.369106	-0.615328	0.085026
C99	C	1.461067	-0.649317	0.085027
C100	C	1.530585	-0.647067	0.000089
C101	C	1.508144	-0.610827	-0.084855
C102	C	1.416184	-0.576838	-0.084856
H103	H	1.317643	-0.616994	0.147908
H104	H	1.477678	-0.676144	0.147909
H105	H	1.598659	-0.672228	0.000089
H106	H	1.559607	-0.609161	-0.147737
H107	H	1.399572	-0.550011	-0.147738
H108	H	0.854144	-0.295547	0.000027
C109	C	0.906912	-0.675598	0.000045
C110	C	0.884441	-0.639367	-0.084900
C111	C	0.792460	-0.605395	-0.084903
C112	C	0.722950	-0.607655	0.000039
C113	C	0.745419	-0.643888	0.084990
C114	C	0.837400	-0.677860	0.084993
H115	H	0.935898	-0.637693	-0.147785
H116	H	0.775827	-0.578573	-0.147790
H117	H	0.654859	-0.582507	0.000037
H118	H	0.693962	-0.645562	0.147875
H119	H	0.854033	-0.704682	0.147880
C120	C	1.351659	-0.321965	0.000118
C121	C	1.420905	-0.333601	0.085059
C122	C	1.513963	-0.312135	0.085053
C123	C	1.537774	-0.279033	0.000106
C124	C	1.468526	-0.267395	-0.084842
C125	C	1.375468	-0.288861	-0.084835
H126	H	1.403280	-0.358107	0.147948
H127	H	1.565225	-0.320750	0.147937
H128	H	1.606661	-0.263142	0.000101
H129	H	1.486151	-0.242889	-0.147731
H130	H	1.324206	-0.280246	-0.147720
H131	H	0.940955	-0.160781	0.000120
H132	H	0.942736	-0.069306	0.000113
H133	H	1.325714	-0.419000	0.000112
H134	H	0.852365	-0.387006	0.000022
