data_functionalizedCrystal
_audit_creation_method	'MofGen! by Chris Wilmer'
_symmetry_space_group_name_H-M	'P1'
_symmetry_Int_Tables_number	1
_symmetry_cell_setting	triclinic
loop_
_symmetry_equiv_pos_as_xyz
  x,y,z
_cell_length_a	12.827892
_cell_length_b	15.298073
_cell_length_c	12.827885
_cell_angle_alpha	99.712192
_cell_angle_beta	89.970214
_cell_angle_gamma	80.326255
loop_
_atom_site_label
_atom_site_type_symbol
_atom_site_fract_x
_atom_site_fract_y
_atom_site_fract_z
Zn1	Zn	-0.139839	-1.379389	-0.867967
Zn2	Zn	-0.314634	-1.379298	-0.693209
Zn3	Zn	-0.170095	-1.228507	-0.662928
Zn4	Zn	-0.344746	-1.228495	-0.837612
O5	O	-0.242329	-1.303922	-0.765429
O6	O	-0.137761	-1.505634	-0.870160
O7	O	-0.295521	-1.359263	-0.542949
O8	O	-0.019837	-1.248565	-0.690158
O9	O	-0.266183	-1.505567	-0.741766
O10	O	0.002392	-1.359418	-0.840799
O11	O	-0.189329	-1.248477	-0.520702
O12	O	-0.218528	-1.102249	-0.660725
O13	O	-0.317505	-1.248544	-0.987882
O14	O	-0.346843	-1.102240	-0.789064
O15	O	-0.166960	-1.359406	-1.010183
O16	O	-0.464873	-1.359251	-0.712333
O17	O	-0.486997	-1.248456	-0.818426
C18	C	-0.289237	-1.069508	-0.718315
C19	C	-0.309329	-0.969224	-0.698185
C20	C	-0.098937	-0.686683	-0.909256
C21	C	-0.080062	-0.780904	-0.928176
C22	C	-0.137377	-0.827989	-0.870680
C23	C	-0.213571	-0.780842	-0.794261
C24	C	-0.232453	-0.686612	-0.775345
C25	C	-0.270893	-0.827918	-0.736768
C26	C	-0.347087	-0.780772	-0.660349
C27	C	-0.365966	-0.686550	-0.641436
C28	C	-0.308651	-0.639466	-0.698933
C29	C	-0.252010	-0.922149	-0.755684
C30	C	-0.385527	-0.922078	-0.621773
C31	C	-0.404402	-0.827856	-0.602853
C32	C	-0.513850	-1.303867	-0.765399
C33	C	-0.629991	-1.303926	-0.765438
C34	C	-0.790730	-1.358814	-0.840071
C35	C	-0.670692	-1.358754	-0.840032
C36	C	0.030258	-1.304003	-0.765486
C37	C	0.146418	-1.304037	-0.765511
C38	C	-0.242216	-1.303984	-1.038012
C39	C	-0.242168	-1.304010	-1.154170
C40	C	-0.195229	-0.539253	-0.812717
C41	C	-0.175134	-0.639536	-0.832844
C42	C	-0.167660	-1.358874	-1.216991
C43	C	-0.167609	-1.358902	-1.337047
C44	C	-0.242355	-1.303913	-0.493917
C45	C	-0.242074	-1.304062	-0.377794
H46	H	-0.122000	-0.904708	-0.886085
N47	N	-0.169839	-0.972993	-0.838104
H48	H	-0.098437	-0.956597	-0.818716
H49	H	-0.166667	-1.039812	-0.841329
N50	N	-0.083228	-1.421089	-1.170520
H51	H	-0.095243	-1.412261	-1.091345
H52	H	-0.086604	-1.485531	-1.202507
N53	N	0.002109	-0.831753	-1.010595
H54	H	0.035554	-0.787630	-1.044148
H55	H	0.058353	-0.870837	-0.975990
N56	N	-0.326563	-1.241823	-1.306299
H57	H	-0.376246	-1.205226	-1.349992
H58	H	-0.367557	-1.278549	-1.268381
N59	N	-0.037133	-0.635901	-0.971272
H60	H	-0.060661	-0.569057	-0.947694
H61	H	0.040822	-0.652366	-0.958445
N62	N	-0.328991	-0.537838	-0.678525
H63	H	-0.352821	-0.515162	-0.745627
H64	H	-0.385932	-0.515178	-0.621361
H65	H	-0.428016	-0.648166	-0.579219
N66	N	-0.326612	-1.241820	-1.200661
H67	H	-0.398509	-1.255789	-1.184523
H68	H	-0.323216	-1.177365	-1.168750
N69	N	-0.599155	-1.420870	-0.924594
H70	H	-0.545495	-1.462643	-0.890512
H71	H	-0.642889	-1.457408	-0.974355
H72	H	-0.466441	-0.789456	-0.540633
N73	N	-0.701511	-1.241799	-0.680871
H74	H	-0.755170	-1.200024	-0.714952
H75	H	-0.739366	-1.278612	-0.639943
N76	N	-0.447356	-0.972849	-0.559755
H77	H	-0.423831	-1.039694	-0.583331
H78	H	-0.434310	-0.956350	-0.481837
N79	N	-0.837152	-1.421002	-0.924663
H80	H	-0.916323	-1.412231	-0.912698
H81	H	-0.820906	-1.406929	-0.996469
N82	N	-0.807149	-1.241858	-0.680917
H83	H	-0.839046	-1.177380	-0.684113
H84	H	-0.823327	-1.255978	-0.609118
N85	N	-0.083112	-1.421130	-1.408543
H86	H	-0.095054	-1.412331	-1.484173
H87	H	-0.011271	-1.407120	-1.386716
