data_functionalizedCrystal
_audit_creation_method	'MofGen! by Chris Wilmer'
_symmetry_space_group_name_H-M	'P1'
_symmetry_Int_Tables_number	1
_symmetry_cell_setting	triclinic
loop_
_symmetry_equiv_pos_as_xyz
  x,y,z
_cell_length_a	16.625547
_cell_length_b	29.839131
_cell_length_c	16.625539
_cell_angle_alpha	89.969769
_cell_angle_beta	89.978691
_cell_angle_gamma	90.041357
loop_
_atom_site_label
_atom_site_type_symbol
_atom_site_fract_x
_atom_site_fract_y
_atom_site_fract_z
Zn1	Zn	1.232546	-0.178862	-0.455980
Zn2	Zn	1.732546	0.321138	0.044020
Zn3	Zn	1.232413	-0.253990	-0.321138
Zn4	Zn	1.732413	0.246010	0.178862
Zn5	Zn	1.097716	-0.178875	-0.321150
Zn6	Zn	1.597716	0.321125	0.178850
Zn7	Zn	1.097634	-0.253965	-0.455918
Zn8	Zn	1.597634	0.246035	0.044082
O9	O	1.165077	-0.216423	-0.388546
O10	O	1.665077	0.283577	0.111454
O11	O	1.345361	-0.188832	-0.438113
O12	O	1.845361	0.311168	0.061887
O13	O	1.214524	-0.244042	-0.208307
O14	O	1.714524	0.255958	0.291693
O15	O	1.115692	-0.116006	-0.339067
O16	O	1.615692	0.383994	0.160933
O17	O	1.345263	-0.244029	-0.339046
O18	O	1.845263	0.255971	0.160954
O19	O	1.214751	-0.115996	-0.438125
O20	O	1.714751	0.384004	0.061875
O21	O	1.115563	-0.188855	-0.208316
O22	O	1.615563	0.311145	0.291684
O23	O	0.984873	-0.188831	-0.339007
O24	O	1.484873	0.311169	0.160993
O25	O	1.115552	-0.243987	-0.568758
O26	O	1.615552	0.256013	-0.068758
O27	O	0.984813	-0.243999	-0.438020
O28	O	1.484813	0.256001	0.061980
O29	O	1.214671	-0.188808	-0.568804
O30	O	1.714671	0.311192	-0.068804
O31	O	1.214444	-0.316854	-0.338986
O32	O	1.714444	0.183146	0.161014
O33	O	1.115423	-0.316836	-0.438008
O34	O	1.615423	0.183164	0.061992
C35	C	0.955587	-0.216414	-0.388508
C36	C	1.455587	0.283586	0.111492
C37	C	0.865966	-0.216421	-0.388511
C38	C	1.365966	0.283579	0.111489
C39	C	0.793183	-0.216422	-0.388521
C40	C	1.293183	0.283578	0.111479
C41	C	0.701875	-0.216424	-0.388541
C42	C	1.201875	0.283576	0.111459
C43	C	0.629098	-0.216429	-0.388562
C44	C	1.129098	0.283571	0.111438
C45	C	0.537784	-0.216432	-0.388581
C46	C	1.037784	0.283568	0.111419
C47	C	1.164932	-0.333145	-0.388506
C48	C	1.664932	0.166855	0.111494
C49	C	1.164943	-0.383080	-0.388516
C50	C	1.664943	0.116920	0.111484
C51	C	1.216732	-0.692720	-0.337061
C52	C	1.716732	-0.192720	0.162939
C53	C	1.216831	-0.880393	-0.337092
C54	C	1.716831	-0.380393	0.162908
O55	O	1.260748	-0.904655	-0.293312
O56	O	1.760748	-0.404655	0.206688
N57	N	1.165245	-0.903865	-0.388607
N58	N	1.665245	-0.403865	0.111393
C59	C	1.113633	-0.880416	-0.440122
C60	C	1.613633	-0.380416	0.059878
O61	O	1.069764	-0.904686	-0.483945
O62	O	1.569764	-0.404686	0.016055
C63	C	1.113538	-0.692743	-0.440094
C64	C	1.613538	-0.192743	0.059906
C65	C	1.165123	-0.669274	-0.388570
C66	C	1.665123	-0.169274	0.111430
C67	C	1.268313	-0.669251	-0.285542
C68	C	1.768313	-0.169251	0.214458
C69	C	1.268284	-0.622335	-0.285531
C70	C	1.768284	-0.122335	0.214469
C71	C	1.216675	-0.598889	-0.337040
C72	C	1.716675	-0.098889	0.162960
C73	C	1.165094	-0.622359	-0.388559
C74	C	1.665094	-0.122359	0.111441
C75	C	1.061931	-0.669295	-0.491612
C76	C	1.561931	-0.169295	0.008388
C77	C	1.061914	-0.622374	-0.491602
C78	C	1.561914	-0.122374	0.008398
C79	C	1.113498	-0.598904	-0.440078
C80	C	1.613498	-0.098904	0.059922
C81	C	1.113456	-0.551997	-0.440058
C82	C	1.613456	-0.051997	0.059942
N83	N	1.165043	-0.528525	-0.388543
N84	N	1.665043	-0.028525	0.111457
C85	C	1.216652	-0.551971	-0.337034
C86	C	1.716652	-0.051971	0.162966
C87	C	1.113686	-0.978946	-0.440132
C88	C	1.613686	-0.478946	0.059868
C89	C	1.113708	-1.025864	-0.440138
C90	C	1.613708	-0.525864	0.059862
C91	C	1.216908	-1.025838	-0.337109
C92	C	1.716908	-0.525838	0.162891
C93	C	1.216880	-0.978920	-0.337099
C94	C	1.716880	-0.478920	0.162901
C95	C	1.165272	-0.955474	-0.388617
C96	C	1.665272	-0.455474	0.111383
C97	C	1.216588	-0.453446	-0.337015
C98	C	1.716588	0.046554	0.162985
C99	C	1.216553	-0.406526	-0.337007
C100	C	1.716553	0.093474	0.162993
C101	C	1.113356	-0.406556	-0.440039
C102	C	1.613356	0.093444	0.059961
C103	C	1.113389	-0.453471	-0.440044
C104	C	1.613389	0.046529	0.059956
C105	C	1.165011	-0.476915	-0.388530
C106	C	1.665011	0.023085	0.111470
O107	O	1.069569	-0.527706	-0.483821
O108	O	1.569569	-0.027706	0.016179
O109	O	1.260528	-0.527693	-0.293230
O110	O	1.760528	-0.027693	0.206770
C111	C	1.216760	-0.739636	-0.337071
C112	C	1.716760	-0.239636	0.162929
C113	C	1.165180	-0.763105	-0.388591
C114	C	1.665180	-0.263105	0.111409
C115	C	1.113570	-0.739659	-0.440099
C116	C	1.613570	-0.239659	0.059901
C117	C	1.165202	-0.810023	-0.388597
C118	C	1.665202	-0.310023	0.111403
C119	C	1.216811	-0.833469	-0.337088
C120	C	1.716811	-0.333469	0.162912
C121	C	1.268398	-0.809997	-0.285573
C122	C	1.768398	-0.309997	0.214427
C123	C	1.268370	-0.763082	-0.285562
C124	C	1.768370	-0.263082	0.214438
C125	C	1.061984	-0.763131	-0.491614
C126	C	1.561984	-0.263131	0.008386
C127	C	1.062016	-0.810046	-0.491620
C128	C	1.562016	-0.310046	0.008380
C129	C	1.113625	-0.833492	-0.440111
C130	C	1.613625	-0.333492	0.059889
C131	C	1.375386	-0.216432	-0.388585
C132	C	1.875386	0.283568	0.111415
C133	C	1.465007	-0.216436	-0.388602
C134	C	1.965007	0.283564	0.111398
C135	C	1.165117	-0.216393	-0.598855
C136	C	1.665117	0.283607	-0.098855
C137	C	1.165134	-0.216381	-0.688476
C138	C	1.665134	0.283619	-0.188476
C139	C	1.165246	-0.099244	-0.388604
C140	C	1.665246	0.400756	0.111396
C141	C	1.165317	-0.049310	-0.388629
C142	C	1.665317	0.450690	0.111371
C143	C	1.165147	-0.216371	-0.761259
C144	C	1.665147	0.283629	-0.261259
C145	C	1.165166	-0.216354	-0.852567
C146	C	1.665166	0.283646	-0.352567
C147	C	1.165185	-0.216338	-0.925344
C148	C	1.665185	0.283662	-0.425344
C149	C	1.165205	-0.216322	-1.016658
C150	C	1.665205	0.283678	-0.516658
C151	C	1.165085	-0.216420	-0.179055
C152	C	1.665085	0.283580	0.320945
C153	C	1.165224	-0.216306	-0.089435
C154	C	1.665224	0.283694	0.410565
H155	H	1.258559	-0.387419	-0.295047
H156	H	1.758559	0.112581	0.204953
N157	N	1.058009	-0.953661	-0.495689
N158	N	1.558009	-0.453661	0.004311
H159	H	1.090734	-0.934164	-0.533093
H160	H	1.590734	-0.434164	-0.033093
H161	H	1.025346	-0.975682	-0.528263
H162	H	1.525346	-0.475682	-0.028263
N163	N	1.323979	-0.694530	-0.229972
N164	N	1.823979	-0.194530	0.270028
H165	H	1.291243	-0.714025	-0.192573
H166	H	1.791243	-0.214025	0.307427
H167	H	1.361333	-0.713940	-0.262823
H168	H	1.861333	-0.213940	0.237177
N169	N	1.006379	-0.835359	-0.547197
N170	N	1.506379	-0.335359	-0.047197
H171	H	0.969041	-0.854861	-0.514404
H172	H	1.469041	-0.354861	-0.014404
H173	H	0.973738	-0.813356	-0.579816
H174	H	1.473738	-0.313356	-0.079816
H175	H	1.019958	-0.744044	-0.533560
H176	H	1.519958	-0.244044	-0.033560
N177	N	1.057746	-0.478785	-0.495611
N178	N	1.557746	0.021215	0.004389
H179	H	1.090502	-0.498217	-0.533016
H180	H	1.590502	0.001783	-0.033016
H181	H	1.020424	-0.498261	-0.462755
H182	H	1.520424	0.001739	0.037245
H183	H	1.071334	-0.387459	-0.481974
H184	H	1.571334	0.112541	0.018026
H185	H	1.019889	-0.603287	-0.533556
H186	H	1.519889	-0.103287	-0.033556
H187	H	1.258885	-0.959814	-0.295144
H188	H	1.758885	-0.459814	0.204856
H189	H	1.310418	-0.829095	-0.243630
H190	H	1.810418	-0.329095	0.256370
N191	N	1.272571	-1.051131	-0.281549
N192	N	1.772571	-0.551131	0.218451
H193	H	1.264753	-1.084413	-0.289376
H194	H	1.764753	-0.584413	0.210624
H195	H	1.330145	-1.042896	-0.294160
H196	H	1.830145	-0.542896	0.205840
H197	H	1.258626	-0.472528	-0.295069
H198	H	1.758626	0.027472	0.204931
H199	H	1.310291	-0.603229	-0.243578
H200	H	1.810291	-0.103229	0.256422
N201	N	1.058056	-1.051171	-0.495701
N202	N	1.558056	-0.551171	0.004299
H203	H	1.070540	-1.042977	-0.553321
H204	H	1.570540	-0.542977	-0.053321
H205	H	1.065918	-1.084444	-0.487827
H206	H	1.565918	-0.584444	0.012173
N207	N	1.006289	-0.694601	-0.547181
N208	N	1.506289	-0.194601	-0.047181
H209	H	0.973599	-0.672622	-0.579807
H210	H	1.473599	-0.172622	-0.079807
H211	H	1.039094	-0.714035	-0.584535
H212	H	1.539094	-0.214035	-0.084535
N213	N	1.324013	-0.737770	-0.229998
N214	N	1.824013	-0.237770	0.270002
H215	H	1.311535	-0.745965	-0.172377
H216	H	1.811535	-0.245965	0.327623
H217	H	1.381595	-0.745913	-0.242656
H218	H	1.881595	-0.245913	0.257344
