data_functionalizedCrystal
_audit_creation_method	'MofGen! by Chris Wilmer'
_symmetry_space_group_name_H-M	'P1'
_symmetry_Int_Tables_number	1
_symmetry_cell_setting	triclinic
loop_
_symmetry_equiv_pos_as_xyz
  x,y,z
_cell_length_a	15.944551
_cell_length_b	15.944551
_cell_length_c	15.021413
_cell_angle_alpha	89.996935
_cell_angle_beta	89.997174
_cell_angle_gamma	96.501262
loop_
_atom_site_label
_atom_site_type_symbol
_atom_site_fract_x
_atom_site_fract_y
_atom_site_fract_z
O1	O	1.114529	-0.108321	-0.073941
O2	O	0.869979	-0.121677	-0.073964
O3	O	0.998932	0.007276	-0.073944
O4	O	0.985576	-0.237274	-0.073961
O5	O	0.998912	0.007257	0.074121
O6	O	0.869959	-0.121695	0.074101
O7	O	1.114508	-0.108339	0.074123
Zn8	Zn	0.992230	-0.115020	0.097620
Zn9	Zn	0.992257	-0.114996	-0.097461
O10	O	0.985555	-0.237292	0.074103
C11	C	0.838675	-0.121132	0.000066
C12	C	0.745429	-0.119470	0.000057
C13	C	0.998367	0.038561	0.000089
C14	C	0.996705	0.131807	0.000089
C15	C	0.530572	-0.035565	0.000081
C16	C	0.469562	-0.074518	-0.072926
C17	C	0.574703	-0.116462	0.000068
C18	C	0.469564	-0.074556	0.073054
C19	C	0.409790	-0.113551	0.000083
C20	C	0.514921	-0.155438	-0.072998
C21	C	0.514930	-0.155464	0.073047
C22	C	0.453937	-0.194476	0.000023
C23	C	0.669705	-0.118137	0.000059
C24	C	0.314789	-0.111883	0.000085
C25	C	1.145813	-0.108885	0.000092
C26	C	1.239059	-0.110547	0.000094
C27	C	0.986120	-0.268577	0.000069
C28	C	0.987782	-0.361823	0.000063
N29	N	0.992218	-0.115036	0.230758
C30	C	0.912801	0.346663	0.000069
C31	C	0.951753	0.407672	0.073077
C32	C	0.993698	0.302533	0.000082
C33	C	0.951792	0.407673	-0.072903
C34	C	0.990787	0.467445	0.000071
C35	C	1.032672	0.362313	0.073150
C36	C	1.032700	0.362308	-0.072895
C37	C	1.071711	0.423298	0.000131
C38	C	0.995372	0.207530	0.000089
C39	C	0.989119	0.562446	0.000070
N40	N	0.992276	-0.114973	-0.230598
C41	C	0.932581	-0.174636	0.470432
C42	C	1.008481	-0.190943	0.529772
C43	C	0.992239	-0.115015	0.412365
C44	C	0.916360	-0.098727	0.529766
C45	C	0.992253	-0.114997	0.587789
C46	C	1.068178	-0.131360	0.470398
C47	C	0.976006	-0.039111	0.470387
C48	C	1.051962	-0.055386	0.529701
C49	C	0.992230	-0.115028	0.311307
C50	C	0.992271	-0.114984	0.688844
H51	H	0.563905	0.031573	-0.000005
C52	C	0.541507	-0.201170	-0.155317
C53	C	0.501720	-0.284085	-0.155402
C54	C	0.526201	-0.326238	-0.231213
H55	H	0.525622	-0.172723	-0.207159
H56	H	0.600994	-0.201978	-0.154836
H57	H	0.442247	-0.283273	-0.155892
H58	H	0.517600	-0.312555	-0.103578
H59	H	0.585687	-0.327046	-0.230731
H60	H	0.510315	-0.297784	-0.283049
H61	H	0.499215	-0.382502	-0.231276
C62	C	0.442817	-0.028730	-0.155140
C63	C	0.481967	0.054428	-0.154790
C64	C	0.457345	0.096641	-0.230501
H65	H	0.459098	-0.056817	-0.207049
H66	H	0.383270	-0.028406	-0.154817
H67	H	0.541501	0.054100	-0.155121
H68	H	0.465691	0.082537	-0.102898
H69	H	0.397798	0.096965	-0.230178
H70	H	0.473627	0.068548	-0.282405
H71	H	0.483898	0.153071	-0.230270
H72	H	0.962240	0.025051	0.444283
C73	C	0.865261	-0.241859	0.435844
C74	C	0.786070	-0.225412	0.467231
C75	C	0.724042	-0.287326	0.435395
H76	H	0.865274	-0.241117	0.372613
H77	H	0.876885	-0.295762	0.456205
H78	H	0.774448	-0.171523	0.446865
H79	H	0.786029	-0.226162	0.530458
H80	H	0.735666	-0.341229	0.455756
H81	H	0.724063	-0.286579	0.372164
H82	H	0.670304	-0.276180	0.456692
H83	H	0.535052	-0.189659	0.134767
H84	H	0.852184	-0.084959	0.555847
H85	H	0.917528	0.427772	0.134794
H86	H	1.022224	-0.255126	0.555856
H87	H	0.420779	-0.261683	-0.000023
H88	H	0.449470	-0.040332	0.134773
H89	H	1.132368	-0.145206	0.444430
H90	H	0.845652	0.313356	0.000136
H91	H	1.066851	0.342314	0.134941
C92	C	1.161338	0.467477	0.000374
C93	C	1.203280	0.444481	0.076949
C94	C	1.285840	0.485172	0.077214
H95	H	1.190398	0.451291	-0.050931
H96	H	1.159829	0.526871	-0.000070
H97	H	1.204794	0.385100	0.077385
H98	H	1.174246	0.460668	0.128267
H99	H	1.284331	0.544566	0.076770
H100	H	1.314891	0.468984	0.025905
H101	H	1.314305	0.469582	0.129173
C102	C	1.078153	0.335494	-0.155296
C103	C	1.035521	0.358194	-0.231535
C104	C	1.077354	0.333494	-0.307466
H105	H	1.134292	0.362771	-0.155940
H106	H	1.079297	0.276055	-0.154448
H107	H	1.034387	0.417622	-0.232382
H108	H	0.979386	0.330920	-0.230920
H109	H	1.078498	0.274054	-0.306618
H110	H	1.133491	0.360773	-0.308101
H111	H	1.048430	0.348885	-0.359203
C112	C	0.906035	0.434334	-0.155173
C113	C	0.822892	0.395141	-0.154836
C114	C	0.780713	0.419667	-0.230610
H115	H	0.905663	0.493865	-0.154946
H116	H	0.934189	0.418010	-0.207035
H117	H	0.794745	0.411471	-0.102988
H118	H	0.823239	0.335611	-0.155076
H119	H	0.808867	0.403343	-0.282472
H120	H	0.780347	0.479198	-0.230377
H121	H	0.724299	0.393073	-0.230396
H122	H	1.102474	-0.004956	0.555561
