data_functionalizedCrystal
_audit_creation_method	'MofGen! by Chris Wilmer'
_symmetry_space_group_name_H-M	'P1'
_symmetry_Int_Tables_number	1
_symmetry_cell_setting	triclinic
loop_
_symmetry_equiv_pos_as_xyz
  x,y,z
_cell_length_a	15.995350
_cell_length_b	15.995300
_cell_length_c	14.472311
_cell_angle_alpha	89.996261
_cell_angle_beta	89.998542
_cell_angle_gamma	83.482091
loop_
_atom_site_label
_atom_site_type_symbol
_atom_site_fract_x
_atom_site_fract_y
_atom_site_fract_z
O1	O	-1.110966	-0.107933	0.076753
O2	O	-0.610966	0.392067	0.576753
O3	O	-0.867189	-0.121261	0.076771
O4	O	-0.367189	0.378739	0.576771
O5	O	-0.995763	0.007293	0.076766
O6	O	-0.495763	0.507293	0.576766
O7	O	-0.982392	-0.236488	0.076758
O8	O	-0.482392	0.263512	0.576758
O9	O	-0.995752	0.007306	-0.076916
O10	O	-0.495752	0.507306	0.423084
O11	O	-0.867177	-0.121249	-0.076911
O12	O	-0.367177	0.378751	0.423089
O13	O	-1.110955	-0.107921	-0.076929
O14	O	-0.610955	0.392079	0.423071
Cu15	Cu	-0.989065	-0.114584	-0.090952
Cu16	Cu	-0.489065	0.385416	0.409048
Cu17	Cu	-0.989079	-0.114598	0.090795
Cu18	Cu	-0.489079	0.385402	0.590795
O19	O	-0.982380	-0.236475	-0.076924
O20	O	-0.482380	0.263525	0.423076
C21	C	-0.835988	-0.120704	-0.000067
C22	C	-0.335988	0.379296	0.499933
C23	C	-0.743038	-0.119052	-0.000060
C24	C	-0.243038	0.380948	0.499940
C25	C	-1.142155	-0.108478	-0.000088
C26	C	-0.642155	0.391522	0.499912
C27	C	-1.235105	-0.110130	-0.000089
C28	C	-0.735105	0.389870	0.499911
C29	C	-0.405292	-0.113120	-0.000079
C30	C	0.094708	0.386880	0.499921
C31	C	-0.452742	-0.021566	-0.000419
C32	C	0.047258	0.478434	0.499581
C33	C	-0.549432	-0.023218	-0.000066
C34	C	-0.049432	0.476782	0.499934
C35	C	-0.572852	-0.116062	-0.000070
C36	C	-0.072852	0.383938	0.499930
C37	C	-0.531763	-0.161227	0.087684
C38	C	-0.031763	0.338773	0.587684
C39	C	-0.435128	-0.158927	0.087752
C40	C	0.064872	0.341073	0.587752
C41	C	-0.434775	-0.160805	-0.087014
C42	C	0.065225	0.339195	0.412986
C43	C	-0.531721	-0.160783	-0.088167
C44	C	-0.031721	0.339217	0.411833
C45	C	-0.667549	-0.117730	-0.000062
C46	C	-0.167549	0.382270	0.499938
C47	C	-0.310594	-0.111455	-0.000081
C48	C	0.189406	0.388545	0.499919
C49	C	-0.995212	0.038495	-0.000072
C50	C	-0.495212	0.538495	0.499928
C51	C	-0.993577	0.131448	-0.000062
C52	C	-0.493577	0.631448	0.499938
C53	C	-0.982931	-0.267677	-0.000084
C54	C	-0.482931	0.232323	0.499916
C55	C	-0.984566	-0.360630	-0.000088
C56	C	-0.484566	0.139370	0.499912
C57	C	-0.990558	0.301631	-0.000071
C58	C	-0.490558	0.801631	0.499929
C59	C	-1.082105	0.349096	-0.000076
C60	C	-0.582105	0.849096	0.499924
C61	C	-1.080435	0.445784	-0.000428
C62	C	-0.580435	0.945784	0.499572
C63	C	-0.987586	0.469187	-0.000079
C64	C	-0.487586	0.969187	0.499921
C65	C	-0.942159	0.428060	-0.087662
C66	C	-0.442159	0.928060	0.412338
C67	C	-0.944476	0.331427	-0.087732
C68	C	-0.444476	0.831427	0.412268
C69	C	-0.943133	0.331137	0.087039
C70	C	-0.443133	0.831137	0.587039
C71	C	-0.943142	0.428081	0.088187
C72	C	-0.443142	0.928081	0.588187
C73	C	-0.985901	0.563883	-0.000086
C74	C	-0.485901	1.063883	0.499914
C75	C	-0.992239	0.206935	-0.000070
C76	C	-0.492239	0.706935	0.499930
N77	N	-0.989061	-0.114573	-0.218783
N78	N	-0.489061	0.385427	0.281217
C79	C	-0.989070	-0.114583	-0.407283
C80	C	-0.489070	0.385417	0.092717
C81	C	-1.057884	-0.045820	-0.446488
C82	C	-0.557884	0.454180	0.053512
C83	C	-1.058133	-0.046003	-0.553576
C84	C	-0.558133	0.453997	-0.053576
C85	C	-0.989080	-0.114592	-0.592874
C86	C	-0.489080	0.385408	-0.092874
C87	C	-1.007784	-0.202067	-0.553986
C88	C	-0.507784	0.297933	-0.053986
C89	C	-1.008273	-0.201658	-0.446864
C90	C	-0.508273	0.298342	0.053136
C91	C	-0.901346	-0.096659	-0.446767
C92	C	-0.401346	0.403341	0.053233
C93	C	-0.901940	-0.094680	-0.553895
C94	C	-0.401940	0.405320	-0.053895
C95	C	-0.989083	-0.114603	-0.697763
C96	C	-0.489083	0.385397	-0.197763
C97	C	-0.989069	-0.114579	-0.302395
C98	C	-0.489069	0.385421	0.197605
N99	N	-0.989089	-0.114603	0.218625
N100	N	-0.489089	0.385397	0.718625
H101	H	-0.577863	0.012283	-0.062973
H102	H	-0.077863	0.512283	0.437027
H103	H	-0.959901	-0.254259	-0.420929
H104	H	-0.459901	0.245741	0.079071
H105	H	-0.545876	-0.229438	0.090945
H106	H	-0.045876	0.270562	0.590945
H107	H	-0.875633	0.299366	0.087879
H108	H	-0.375633	0.799366	0.587879
H109	H	-0.547073	-0.228487	-0.093471
H110	H	-0.047073	0.271513	0.406529
H111	H	-0.416830	-0.126002	0.153353
H112	H	0.083170	0.373998	0.653353
H113	H	-0.883279	-0.034217	-0.419755
H114	H	-0.383279	0.465783	0.080245
H115	H	-1.118368	0.329433	-0.062747
H116	H	-0.618368	0.829433	0.437253
H117	H	-0.577301	0.012513	0.062952
H118	H	-0.077301	0.512513	0.562952
H119	H	-0.850141	-0.146802	-0.421413
H120	H	-0.350141	0.353198	0.078587
H121	H	-0.877251	0.299154	-0.091465
H122	H	-0.377251	0.799154	0.408535
H123	H	-0.973321	0.456418	-0.153092
H124	H	-0.473321	0.956418	0.346908
H125	H	-0.973277	0.310630	0.153445
H126	H	-0.473277	0.810630	0.653445
H127	H	-1.116130	0.474244	0.062340
H128	H	-0.616130	0.974244	0.562340
H129	H	-0.434222	0.015036	-0.063351
H130	H	0.065778	0.515036	0.436649
H131	H	-0.559038	-0.127813	-0.153088
H132	H	-0.059038	0.372187	0.346912
H133	H	-0.433160	0.014857	0.062169
H134	H	0.066840	0.514857	0.562169
H135	H	-0.403002	-0.228307	-0.087610
H136	H	0.096998	0.271693	0.412390
H137	H	-1.118896	0.330613	0.062730
H138	H	-0.618896	0.830613	0.562730
H139	H	-0.560148	-0.129868	0.152996
H140	H	-0.060148	0.370132	0.652996
H141	H	-0.402867	-0.226145	0.091731
H142	H	0.097133	0.273855	0.591731
H143	H	-0.875451	0.443425	0.093744
H144	H	-0.375451	0.943425	0.593744
H145	H	-1.122622	-0.057136	-0.419555
H146	H	-0.622622	0.442864	0.080445
H147	H	-0.873935	0.442160	-0.090668
H148	H	-0.373935	0.942160	0.409332
H149	H	-1.047051	0.019010	-0.579870
H150	H	-0.547051	0.519010	-0.079870
H151	H	-0.958981	-0.254485	-0.579440
H152	H	-0.458981	0.245515	-0.079440
H153	H	-0.848361	-0.141495	-0.580643
H154	H	-0.348361	0.358505	-0.080643
H155	H	-1.046999	0.019408	-0.420714
H156	H	-0.546999	0.519408	0.079286
H157	H	-0.414240	-0.130868	-0.153530
H158	H	0.085760	0.369132	0.346470
H159	H	-1.071017	-0.218189	-0.580813
H160	H	-0.571017	0.281811	-0.080813
H161	H	-1.115966	0.473636	-0.063583
H162	H	-0.615966	0.973636	0.436417
H163	H	-1.123241	-0.057491	-0.579201
H164	H	-0.623241	0.442509	-0.079201
H165	H	-0.977204	0.313111	-0.153455
H166	H	-0.477204	0.813111	0.346545
H167	H	-0.976315	0.455417	0.152982
H168	H	-0.476315	0.955417	0.652982
H169	H	-1.072238	-0.217402	-0.421878
H170	H	-0.572238	0.282598	0.078122
H171	H	-0.887738	-0.030328	-0.579313
H172	H	-0.387738	0.469672	-0.079313
