data_functionalizedCrystal
_audit_creation_method	'MofGen! by Chris Wilmer'
_symmetry_space_group_name_H-M	'P1'
_symmetry_Int_Tables_number	1
_symmetry_cell_setting	triclinic
loop_
_symmetry_equiv_pos_as_xyz
  x,y,z
_cell_length_a	14.519709
_cell_length_b	12.837942
_cell_length_c	12.996460
_cell_angle_alpha	90.000533
_cell_angle_beta	90.000602
_cell_angle_gamma	90.745457
loop_
_atom_site_label
_atom_site_type_symbol
_atom_site_fract_x
_atom_site_fract_y
_atom_site_fract_z
O1	O	1.235614	-0.135901	0.085431
O2	O	1.568947	0.197432	0.418764
O3	O	1.902281	0.530765	0.752098
O4	O	0.968520	-0.151906	0.085462
O5	O	1.301853	0.181427	0.418796
O6	O	1.635187	0.514760	0.752129
O7	O	1.096145	0.007010	0.085441
O8	O	1.429478	0.340343	0.418774
O9	O	1.762811	0.673676	0.752108
O10	O	1.107990	-0.294818	0.085452
O11	O	1.441323	0.038516	0.418786
O12	O	1.774656	0.371849	0.752119
O13	O	1.096127	0.007001	-0.085693
O14	O	1.429460	0.340334	0.247641
O15	O	1.762794	0.673667	0.580974
O16	O	0.968503	-0.151916	-0.085671
O17	O	1.301836	0.181418	0.247662
O18	O	1.635169	0.514751	0.580995
O19	O	1.235597	-0.135911	-0.085703
O20	O	1.568930	0.197423	0.247631
O21	O	1.902263	0.530756	0.580964
Cu22	Cu	1.102048	-0.143914	-0.101313
Cu23	Cu	1.435381	0.189419	0.232020
Cu24	Cu	1.768715	0.522753	0.565354
Cu25	Cu	1.102069	-0.143903	0.101073
Cu26	Cu	1.435402	0.189430	0.434406
Cu27	Cu	1.768735	0.522764	0.767739
O28	O	1.107972	-0.294827	-0.085681
O29	O	1.441305	0.038506	0.247652
O30	O	1.774639	0.371840	0.580985
C31	C	0.934087	-0.151165	-0.000101
C32	C	1.267421	0.182168	0.333233
C33	C	1.600754	0.515502	0.666566
C34	C	0.831513	-0.148930	-0.000089
C35	C	1.164846	0.184403	0.333245
C36	C	1.498179	0.517737	0.666578
C37	C	0.455906	-0.140701	-0.000136
C38	C	0.789239	0.192632	0.333198
C39	C	1.122573	0.525965	0.666531
C40	C	0.560411	-0.142986	-0.000122
C41	C	0.893745	0.190347	0.333211
C42	C	1.227078	0.523680	0.666544
C43	C	0.643706	-0.144815	-0.000111
C44	C	0.977039	0.188518	0.333222
C45	C	1.310373	0.521851	0.666555
C46	C	0.748218	-0.147101	-0.000100
C47	C	1.081551	0.186232	0.333234
C48	C	1.414885	0.519566	0.666567
C49	C	1.092134	0.045633	-0.000125
C50	C	1.425468	0.378967	0.333209
C51	C	1.758801	0.712300	0.666542
C52	C	1.080200	0.160732	-0.000122
C53	C	1.413534	0.494066	0.333212
C54	C	1.746867	0.827399	0.666545
C55	C	1.270030	-0.136652	-0.000138
C56	C	1.603363	0.196681	0.333196
C57	C	1.936696	0.530015	0.666529
C58	C	1.372604	-0.138887	-0.000143
C59	C	1.705937	0.194446	0.333191
C60	C	2.039271	0.527780	0.666524
C61	C	1.111982	-0.333450	-0.000113
C62	C	1.445316	-0.000117	0.333220
C63	C	1.778649	0.333216	0.666553
C64	C	1.123916	-0.448550	-0.000110
C65	C	1.457250	-0.115216	0.333224
C66	C	1.790583	0.218117	0.666557
C67	C	1.223671	0.401425	-0.000117
C68	C	1.557004	0.734758	0.333216
C69	C	1.890337	1.068092	0.666550
C70	C	1.212462	0.509571	-0.000114
C71	C	1.545795	0.842905	0.333219
C72	C	1.879129	1.176238	0.666553
C73	C	1.046574	0.485174	-0.000105
C74	C	1.379908	0.818508	0.333228
C75	C	1.713241	1.151841	0.666561
C76	C	1.057783	0.377028	-0.000108
C77	C	1.391117	0.710361	0.333225
C78	C	1.724450	1.043694	0.666558
C79	C	1.146334	0.335157	-0.000116
C80	C	1.479668	0.668491	0.333218
C81	C	1.813001	1.001824	0.666551
C82	C	1.157542	0.227009	-0.000126
C83	C	1.490876	0.560342	0.333207
C84	C	1.824209	0.893675	0.666541
C85	C	0.991656	0.202614	-0.000110
C86	C	1.324989	0.535947	0.333223
C87	C	1.658322	0.869280	0.666557
C88	C	0.980447	0.310760	-0.000107
C89	C	1.313780	0.644093	0.333226
C90	C	1.647113	0.977427	0.666560
N91	N	1.102040	-0.143921	-0.243660
N92	N	1.435374	0.189412	0.089673
N93	N	1.768707	0.522746	0.423007
C94	C	1.102045	-0.143924	-0.336766
C95	C	1.435378	0.189410	-0.003433
C96	C	1.768711	0.522743	0.329901
C97	C	1.102053	-0.143917	-0.453571
C98	C	1.435386	0.189417	-0.120238
C99	C	1.768719	0.522750	0.213096
C100	C	1.102063	-0.143905	-0.546669
C101	C	1.435396	0.189428	-0.213336
C102	C	1.768730	0.522761	0.119997
C103	C	1.102072	-0.143899	-0.663482
C104	C	1.435406	0.189434	-0.330149
C105	C	1.768739	0.522767	0.003185
N106	N	1.102083	-0.143888	0.243420
N107	N	1.435416	0.189445	0.576753
N108	N	1.768750	0.522779	0.910086
H109	H	1.229645	0.192920	-0.000136
H110	H	1.562978	0.526253	0.333197
H111	H	1.896312	0.859586	0.666531
C112	C	1.321070	0.355363	-0.000133
C113	C	1.654403	0.688697	0.333200
C114	C	1.987736	1.022030	0.666533
H115	H	1.365525	0.410320	-0.000132
H116	H	1.698858	0.743654	0.333202
H117	H	2.032191	1.076987	0.666535
H118	H	1.328881	0.313681	-0.059813
H119	H	1.662215	0.647015	0.273521
H120	H	1.995548	0.980348	0.606854
H121	H	1.328897	0.313683	0.059551
H122	H	1.662230	0.647017	0.392884
H123	H	1.995563	0.980350	0.726218
H124	H	0.974480	0.519285	-0.000088
H125	H	1.307813	0.852618	0.333245
H126	H	1.641147	1.185952	0.666578
H127	H	1.275438	0.563524	-0.000112
H128	H	1.608771	0.896857	0.333222
H129	H	1.942104	1.230190	0.666555
H130	H	0.928683	0.148646	-0.000117
H131	H	1.262016	0.481979	0.333216
H132	H	1.595349	0.815313	0.666550
C133	C	0.883049	0.356824	-0.000105
C134	C	1.216382	0.690158	0.333228
C135	C	1.549716	1.023491	0.666562
H136	H	0.887448	0.430724	-0.000111
H137	H	1.220781	0.764057	0.333223
H138	H	1.554115	1.097390	0.666556
H139	H	0.850803	0.334087	0.059570
H140	H	1.184136	0.667420	0.392903
H141	H	1.517470	1.000753	0.726236
H142	H	0.850811	0.334090	-0.059794
H143	H	1.184144	0.667424	0.273539
H144	H	1.517477	1.000757	0.606872
