data_functionalizedCrystal
_audit_creation_method	'MofGen! by Chris Wilmer'
_symmetry_space_group_name_H-M	'P1'
_symmetry_Int_Tables_number	1
_symmetry_cell_setting	triclinic
loop_
_symmetry_equiv_pos_as_xyz
  x,y,z
_cell_length_a	12.837942
_cell_length_b	16.109301
_cell_length_c	14.586319
_cell_angle_alpha	90.000787
_cell_angle_beta	89.996741
_cell_angle_gamma	90.854789
loop_
_atom_site_label
_atom_site_type_symbol
_atom_site_fract_x
_atom_site_fract_y
_atom_site_fract_z
O1	O	0.133240	-1.113716	-0.076181
O2	O	0.633240	-0.613716	0.423819
O3	O	0.149822	-0.872971	-0.076196
O4	O	0.649822	-0.372971	0.423804
O5	O	-0.009370	-0.988005	-0.076183
O6	O	0.490630	-0.488005	0.423817
O7	O	0.292432	-0.998682	-0.076194
O8	O	0.792432	-0.498682	0.423806
O9	O	-0.009372	-0.987996	0.076298
O10	O	0.490628	-0.487996	0.576298
O11	O	0.149819	-0.872962	0.076285
O12	O	0.649819	-0.372962	0.576285
O13	O	0.133238	-1.113707	0.076299
O14	O	0.633238	-0.613707	0.576299
Cu15	Cu	0.141528	-0.993333	0.090215
Cu16	Cu	0.641528	-0.493333	0.590215
Cu17	Cu	0.141531	-0.993344	-0.090111
Cu18	Cu	0.641531	-0.493344	0.409889
O19	O	0.292430	-0.998673	0.076287
O20	O	0.792430	-0.498673	0.576287
C21	C	0.149149	-0.841938	0.000043
C22	C	0.649149	-0.341938	0.500043
C23	C	0.147135	-0.749483	0.000037
C24	C	0.647135	-0.249483	0.500037
C25	C	-0.047991	-0.984394	0.000056
C26	C	0.452009	-0.484394	0.500056
C27	C	-0.163064	-0.973637	0.000054
C28	C	0.336936	-0.473637	0.500054
C29	C	0.133911	-1.144739	0.000059
C30	C	0.633911	-0.644739	0.500059
C31	C	0.135924	-1.237195	0.000058
C32	C	0.635924	-0.737195	0.500058
C33	C	-0.404066	-1.102954	0.000043
C34	C	0.095934	-0.602954	0.500043
C35	C	-0.512188	-1.092851	0.000041
C36	C	-0.012188	-0.592851	0.500041
C37	C	-0.487433	-0.943328	0.000041
C38	C	0.012567	-0.443328	0.500041
C39	C	-0.379311	-0.953431	0.000043
C40	C	0.120689	-0.453431	0.500043
C41	C	-0.337632	-1.033247	0.000046
C42	C	0.162368	-0.533247	0.500046
C43	C	-0.229507	-1.043349	0.000054
C44	C	0.270493	-0.543349	0.500054
C45	C	-0.204754	-0.893827	0.000048
C46	C	0.295246	-0.393827	0.500048
C47	C	-0.312876	-0.883724	0.000046
C48	C	0.187124	-0.383724	0.500046
C49	C	0.331050	-1.002284	0.000045
C50	C	0.831050	-0.502284	0.500045
C51	C	0.446124	-1.013041	0.000041
C52	C	0.946124	-0.513041	0.500041
N53	N	0.141526	-0.993332	0.217047
N54	N	0.641526	-0.493332	0.717047
C55	C	0.236914	-0.534343	0.000045
C56	C	0.736914	-0.034343	0.500045
C57	C	0.235014	-0.447471	0.000051
C58	C	0.735014	0.052529	0.500051
C59	C	0.046138	-0.452341	0.000054
C60	C	0.546138	0.047659	0.500054
C61	C	0.048040	-0.539211	0.000054
C62	C	0.548040	-0.039211	0.500054
C63	C	0.143431	-0.580209	0.000045
C64	C	0.643431	-0.080209	0.500045
C65	C	0.139629	-0.406468	0.000050
C66	C	0.639629	0.093532	0.500050
C67	C	0.137568	-0.312278	0.000057
C68	C	0.637568	0.187722	0.500057
C69	C	0.145492	-0.674405	0.000040
C70	C	0.645492	-0.174405	0.500040
N71	N	0.141526	-0.993352	-0.216943
N72	N	0.641526	-0.493352	0.283057
C73	C	0.071059	-1.044290	0.452059
C74	C	0.571059	-0.544290	0.952059
C75	C	0.071057	-1.044292	0.548040
C76	C	0.571057	-0.544292	1.048040
C77	C	0.211995	-0.942388	0.548038
C78	C	0.711995	-0.442388	1.048038
C79	C	0.211992	-0.942382	0.452059
C80	C	0.711992	-0.442382	0.952059
C81	C	0.141525	-0.993338	0.404071
C82	C	0.641525	-0.493338	0.904071
C83	C	0.141526	-0.993346	0.596032
C84	C	0.641526	-0.493346	1.096032
C85	C	0.141524	-0.993348	0.700099
C86	C	0.641524	-0.493348	1.200099
C87	C	0.141526	-0.993335	0.299998
C88	C	0.641526	-0.493335	0.799998
H89	H	-0.195574	-1.108339	0.000059
H90	H	0.304426	-0.608339	0.500059
H91	H	0.269370	-0.900903	0.587119
H92	H	0.769370	-0.400903	1.087119
Cl93	Cl	-0.539849	-0.842997	0.000011
Cl94	Cl	-0.039849	-0.342997	0.500011
H95	H	0.311138	-0.410130	0.000052
H96	H	0.811138	0.089870	0.500052
H97	H	0.013676	-1.085780	0.587108
H98	H	0.513676	-0.585780	1.087108
Cl99	Cl	0.300580	-0.878319	0.391726
Cl100	Cl	0.800580	-0.378319	0.891726
H101	H	0.314588	-0.567721	0.000044
H102	H	0.814588	-0.067721	0.500044
H103	H	-0.031526	-0.418949	0.000066
H104	H	0.468474	0.081051	0.500066
H105	H	-0.028091	-0.576557	0.000057
H106	H	0.471909	-0.076557	0.500057
Cl107	Cl	-0.121229	-0.806190	0.000063
Cl108	Cl	0.378771	-0.306190	0.500063
H109	H	-0.370130	-1.167943	0.000054
H110	H	0.129870	-0.667943	0.500054
H111	H	0.013680	-1.085779	0.412990
H112	H	0.513680	-0.585779	0.912990
H113	H	-0.566277	-1.149614	0.000036
H114	H	-0.066277	-0.649614	0.500036
Cl115	Cl	-0.365284	-0.783391	0.000036
Cl116	Cl	0.134716	-0.283391	0.500036
