data_functionalizedCrystal
_audit_creation_method	'MofGen! by Chris Wilmer'
_symmetry_space_group_name_H-M	'P1'
_symmetry_Int_Tables_number	1
_symmetry_cell_setting	triclinic
loop_
_symmetry_equiv_pos_as_xyz
  x,y,z
_cell_length_a	10.654541
_cell_length_b	10.723022
_cell_length_c	9.798715
_cell_angle_alpha	89.996609
_cell_angle_beta	90.000340
_cell_angle_gamma	95.524423
loop_
_atom_site_label
_atom_site_type_symbol
_atom_site_fract_x
_atom_site_fract_y
_atom_site_fract_z
O1	O	-0.176138	1.657213	-0.113473
O2	O	-0.193000	1.294063	-0.113477
O3	O	-0.001828	1.483989	-0.113475
O4	O	-0.367310	1.467287	-0.113474
O5	O	-0.001828	1.483975	0.113507
O6	O	-0.193000	1.294049	0.113505
O7	O	-0.176137	1.657199	0.113509
Zn8	Zn	-0.184568	1.475621	0.149546
Zn9	Zn	-0.184569	1.475640	-0.149513
O10	O	-0.367309	1.467273	0.113508
C11	C	-0.191774	1.247556	0.000014
C12	C	-0.188103	1.109001	0.000012
C13	C	-0.291277	0.890837	0.000010
C14	C	-0.295073	1.034041	0.000011
C15	C	-0.414108	1.468505	0.000017
C16	C	-0.553550	1.472173	0.000017
C17	C	-0.581557	1.245064	0.000031
C18	C	-0.661069	1.133238	0.000043
C19	C	-0.792086	1.136692	0.000043
C20	C	-0.843593	1.251983	0.000027
C21	C	-0.764081	1.363810	0.000015
C22	C	-0.633063	1.360344	0.000019
C23	C	-0.736075	1.590915	-0.000009
C24	C	-0.605058	1.587465	0.000001
C25	C	-0.787583	1.706207	-0.000025
C26	C	-0.708071	1.818036	-0.000027
C27	C	-0.577046	1.814578	-0.000025
C28	C	-0.525546	1.699291	-0.000011
C29	C	0.044970	1.482756	0.000013
C30	C	0.184413	1.479089	0.000003
C31	C	-0.177364	1.703706	0.000016
C32	C	-0.181034	1.842261	0.000009
N33	N	-0.184567	1.475618	0.353645
N34	N	-0.184560	1.475654	-0.353613
C35	C	-0.103946	1.555363	0.421423
C36	C	-0.103941	1.555383	0.578586
H37	H	-0.474877	1.242241	0.000035
H38	H	-0.856825	1.045633	0.000048
H39	H	-0.034922	1.623660	0.636871
H40	H	-0.382849	0.826408	0.000001
H41	H	-0.089462	0.906690	0.000000
H42	H	-0.619117	1.039370	0.000052
H43	H	-0.950276	1.254785	0.000010
H44	H	-0.750019	1.911897	-0.000059
H45	H	-0.389462	1.075866	0.000020
H46	H	-0.093710	1.067184	-0.000025
H47	H	-0.894265	1.709011	-0.000034
H48	H	-0.512313	1.905641	-0.000045
H49	H	-0.418866	1.696464	-0.000011
H50	H	-0.253583	1.407355	0.411969
H51	H	-0.034920	1.623617	0.363101
H52	H	-0.253592	1.407382	0.588110
