data_functionalizedCrystal
_audit_creation_method	'MofGen! by Chris Wilmer'
_symmetry_space_group_name_H-M	'P1'
_symmetry_Int_Tables_number	1
_symmetry_cell_setting	triclinic
loop_
_symmetry_equiv_pos_as_xyz
  x,y,z
_cell_length_a	18.050589
_cell_length_b	17.077404
_cell_length_c	17.077395
_cell_angle_alpha	89.985498
_cell_angle_beta	89.976617
_cell_angle_gamma	90.026191
loop_
_atom_site_label
_atom_site_type_symbol
_atom_site_fract_x
_atom_site_fract_y
_atom_site_fract_z
Zn1	Zn	-0.295709	1.199996	-0.443840
Zn2	Zn	-0.419903	1.199899	-0.312583
Zn3	Zn	-0.295727	1.068736	-0.312590
Zn4	Zn	-0.419857	1.068683	-0.443809
O5	O	-0.357799	1.134329	-0.378205
O6	O	-0.312195	1.309830	-0.426438
O7	O	-0.403458	1.182482	-0.202737
O8	O	-0.191800	1.086211	-0.330017
O9	O	-0.403440	1.309759	-0.330004
O10	O	-0.191787	1.182646	-0.426445
O11	O	-0.312227	1.086117	-0.202742
O12	O	-0.312182	0.958882	-0.329987
O13	O	-0.403362	1.086120	-0.553660
O14	O	-0.403379	0.958843	-0.426393
O15	O	-0.312150	1.182595	-0.553683
O16	O	-0.523822	1.182431	-0.329974
O17	O	-0.523788	1.086027	-0.426385
C18	C	-0.357778	0.930381	-0.378188
C19	C	-0.357787	0.843131	-0.378199
C20	C	-0.310360	0.802178	-0.428489
C21	C	-0.310365	0.720198	-0.428492
C22	C	-0.357801	0.679172	-0.378209
C23	C	-0.405230	0.720130	-0.327914
C24	C	-0.405221	0.802109	-0.327907
C25	C	-0.405247	0.549260	-0.327933
C26	C	-0.405257	0.467275	-0.327941
C27	C	-0.310391	0.467349	-0.428519
C28	C	-0.310382	0.549328	-0.428512
C29	C	-0.357812	0.590281	-0.378217
C30	C	-0.550751	1.134234	-0.378192
C31	C	-0.633297	1.134265	-0.378213
C32	C	-0.832756	1.081892	-0.430623
C33	C	-0.882196	1.062762	-0.358994
C34	C	-0.784427	1.134342	-0.378223
C35	C	-0.882070	1.153511	-0.449860
C36	C	-0.930413	1.134415	-0.378239
C37	C	-0.832780	1.115174	-0.306557
C38	C	-0.832649	1.205957	-0.397471
C39	C	-0.882066	1.186854	-0.325793
C40	C	-0.700329	1.134298	-0.378215
C41	C	-1.014509	1.134459	-0.378240
C42	C	-0.164094	1.134445	-0.378236
C43	C	-0.081548	1.134495	-0.378249
C44	C	-0.357749	1.134362	-0.582950
C45	C	-0.357727	1.134377	-0.670200
C46	C	-0.357821	1.339073	-0.378223
C47	C	-0.357830	1.426323	-0.378231
C48	C	-0.310133	1.184698	-1.046027
C49	C	-0.310159	1.184682	-0.964047
C50	C	-0.357657	1.134441	-0.923049
C51	C	-0.405138	1.084219	-0.964035
C52	C	-0.405115	1.084240	-1.046014
C53	C	-0.405181	1.084178	-0.793165
C54	C	-0.405203	1.084157	-0.711180
C55	C	-0.310225	1.184621	-0.711198
C56	C	-0.310202	1.184641	-0.793177
C57	C	-0.357682	1.134418	-0.834158
C58	C	-0.357796	1.134340	-0.174258
C59	C	-0.357608	1.134478	-0.087008
H60	H	-0.271760	0.582729	-0.469461
H61	H	-0.443863	1.043228	-0.677802
H62	H	-0.271770	0.434001	-0.469469
H63	H	-0.903721	1.169695	-0.510436
N64	N	-0.456377	0.846277	-0.273664
H65	H	-0.490828	0.880291	-0.305497
H66	H	-0.426093	0.880241	-0.237349
N67	N	-0.456393	1.030013	-0.837369
H68	H	-0.486485	0.998181	-0.798958
H69	H	-0.426147	0.993716	-0.871386
H70	H	-0.811104	1.037472	-0.474873
N71	N	-0.456363	1.030025	-0.919817
H72	H	-0.486436	0.998214	-0.958221
H73	H	-0.490745	1.061944	-0.885797
H74	H	-0.271563	1.225513	-0.677827
N75	N	-0.911015	0.982580	-0.337431
H76	H	-0.942593	0.961625	-0.381518
H77	H	-0.941788	0.986433	-0.288178
H78	H	-0.811218	1.098920	-0.245964
H79	H	-0.810872	1.266471	-0.413770
H80	H	-0.903581	1.231240	-0.281435
H81	H	-0.443850	0.686720	-0.286969
N82	N	-0.259202	0.846423	-0.482731
H83	H	-0.266396	0.904571	-0.475102
H84	H	-0.270841	0.832100	-0.538769
H85	H	-0.271449	1.225605	-1.079402
N86	N	-0.456323	1.030077	-1.090219
H87	H	-0.486416	0.998246	-1.051809
H88	H	-0.426081	0.993778	-1.124239
N89	N	-0.258956	1.238850	-0.919845
H90	H	-0.228860	1.270677	-0.958257
H91	H	-0.224594	1.206912	-0.885833
N92	N	-0.456404	0.423025	-0.273692
H93	H	-0.449211	0.364878	-0.281331
H94	H	-0.509462	0.437334	-0.285797
N95	N	-0.259198	0.676027	-0.482718
H96	H	-0.229145	0.714456	-0.514569
H97	H	-0.289463	0.642004	-0.518996
H98	H	-0.271521	1.225549	-0.826555
H99	H	-0.443868	0.582601	-0.286976
