data_functionalizedCrystal
_audit_creation_method	'MofGen! by Chris Wilmer'
_symmetry_space_group_name_H-M	'P1'
_symmetry_Int_Tables_number	1
_symmetry_cell_setting	triclinic
loop_
_symmetry_equiv_pos_as_xyz
  x,y,z
_cell_length_a	11.792241
_cell_length_b	10.540539
_cell_length_c	10.868271
_cell_angle_alpha	89.997005
_cell_angle_beta	89.999893
_cell_angle_gamma	84.359454
loop_
_atom_site_label
_atom_site_type_symbol
_atom_site_fract_x
_atom_site_fract_y
_atom_site_fract_z
O1	O	1.507361	0.173992	-0.102197
O2	O	2.007361	0.673992	0.397803
O3	O	1.177067	0.191924	-0.102225
O4	O	1.677067	0.691924	0.397775
O5	O	1.349750	-0.001773	-0.102208
O6	O	1.849750	0.498227	0.397792
O7	O	1.334679	0.367689	-0.102213
O8	O	1.834679	0.867689	0.397787
O9	O	1.349735	-0.001781	0.102436
O10	O	1.849735	0.498219	0.602436
O11	O	1.177053	0.191916	0.102420
O12	O	1.677053	0.691916	0.602420
O13	O	1.507347	0.173984	0.102448
O14	O	2.007347	0.673984	0.602448
Zn15	Zn	1.342198	0.182949	0.134926
Zn16	Zn	1.842198	0.682949	0.634926
Zn17	Zn	1.342216	0.182959	-0.134702
Zn18	Zn	1.842216	0.682959	0.365298
O19	O	1.334664	0.367681	0.102432
O20	O	1.834664	0.867681	0.602432
C21	C	1.134766	0.190793	0.000094
C22	C	1.634766	0.690793	0.500094
C23	C	1.008743	0.187422	0.000083
C24	C	1.508743	0.687422	0.500083
C25	C	0.778015	0.181223	0.000119
C26	C	1.278015	0.681223	0.500119
C27	C	0.906409	0.184667	0.000099
C28	C	1.406409	0.684667	0.500099
C29	C	1.348612	-0.049076	0.000112
C30	C	1.848612	0.450924	0.500112
C31	C	1.345231	-0.190014	0.000105
C32	C	1.845231	0.309986	0.500105
C33	C	1.215660	-0.373018	-0.000366
C34	C	1.715660	0.126982	0.499634
C35	C	1.219087	-0.226411	0.000095
C36	C	1.719087	0.273589	0.500095
C37	C	1.405929	-0.251873	0.116972
C38	C	1.905929	0.248127	0.616972
C39	C	1.401623	-0.398404	0.117070
C40	C	1.901623	0.101596	0.617070
C41	C	1.404205	-0.398922	-0.115649
C42	C	1.904205	0.101078	0.384351
C43	C	1.405367	-0.251943	-0.117194
C44	C	1.905367	0.248057	0.382806
C45	C	1.549648	0.175114	0.000127
C46	C	2.049648	0.675114	0.500127
C47	C	1.675671	0.178486	0.000130
C48	C	2.175671	0.678486	0.500130
C49	C	1.335802	0.414984	0.000109
C50	C	1.835802	0.914984	0.500109
C51	C	1.339183	0.555921	0.000108
C52	C	1.839183	1.055921	0.500108
N53	N	1.342193	0.182941	0.318940
N54	N	1.842193	0.682941	0.818940
N55	N	1.342230	0.182957	-0.318716
N56	N	1.842230	0.682957	0.181284
C57	C	1.342211	0.182956	0.569946
C58	C	1.842211	0.682956	1.069946
C59	C	1.342197	0.182952	0.430268
C60	C	1.842197	0.682952	0.930268
H61	H	1.165836	-0.401453	-0.084174
H62	H	1.665836	0.098547	0.415826
H63	H	1.363753	-0.209140	0.203933
H64	H	1.863753	0.290860	0.703933
C65	C	1.154117	-0.169788	0.113454
C66	C	1.654117	0.330212	0.613454
H67	H	1.125532	-0.236402	0.159409
H68	H	1.625532	0.263598	0.659409
H69	H	1.092483	-0.111130	0.087397
H70	H	1.592483	0.388870	0.587397
H71	H	1.204268	-0.126917	0.163512
H72	H	1.704268	0.373083	0.663512
C73	C	1.529621	-0.219670	-0.126707
C74	C	2.029621	0.280330	0.373293
H75	H	1.563818	-0.258300	-0.198358
H76	H	2.063818	0.241700	0.301642
H77	H	1.570732	-0.250956	-0.056029
H78	H	2.070732	0.249044	0.443971
H79	H	1.530973	-0.129845	-0.131615
H80	H	2.030973	0.370155	0.368385
C81	C	1.349060	-0.441351	-0.235311
C82	C	1.849060	0.058649	0.264689
H83	H	1.285857	-0.487006	-0.215788
H84	H	1.785857	0.012994	0.284212
H85	H	1.403390	-0.494755	-0.280937
H86	H	1.903390	0.005245	0.219063
H87	H	1.323881	-0.368453	-0.283017
H88	H	1.823881	0.131547	0.216983
C89	C	1.531068	-0.222079	0.122867
C90	C	2.031068	0.277921	0.622867
H91	H	1.547446	-0.171522	0.053944
H92	H	2.047446	0.328478	0.553944
H93	H	1.579653	-0.299496	0.121789
H94	H	2.079653	0.200504	0.621789
H95	H	1.543300	-0.176809	0.196501
H96	H	2.043300	0.323191	0.696501
H97	H	1.492344	-0.446668	0.122379
H98	H	1.992344	0.053332	0.622379
H99	H	1.171327	-0.183649	-0.083680
H100	H	1.671327	0.316351	0.416320
C101	C	1.345462	-0.196441	-0.233994
C102	C	1.845462	0.303559	0.266006
H103	H	1.284061	-0.135773	-0.211382
H104	H	1.784061	0.364227	0.288618
H105	H	1.317047	-0.263188	-0.279883
H106	H	1.817047	0.236812	0.220117
H107	H	1.398321	-0.156089	-0.282765
H108	H	1.898321	0.343911	0.217235
C109	C	1.527284	-0.463128	-0.116713
C110	C	2.027284	0.036872	0.383287
H111	H	1.539034	-0.517200	-0.046997
H112	H	2.039034	-0.017200	0.453003
H113	H	1.579075	-0.399612	-0.114146
H114	H	2.079075	0.100388	0.385854
H115	H	1.539663	-0.512214	-0.189647
H116	H	2.039663	-0.012214	0.310353
C117	C	1.148609	-0.413593	0.112210
C118	C	1.648609	0.086407	0.612210
H119	H	1.195568	-0.473648	0.159501
H120	H	1.695568	0.026352	0.659501
H121	H	1.082973	-0.451254	0.085338
H122	H	1.582973	0.048746	0.585338
H123	H	1.125941	-0.340901	0.161261
H124	H	1.625941	0.159099	0.661261
H125	H	1.356753	-0.426460	0.204423
H126	H	1.856753	0.073540	0.704423
