data_functionalizedCrystal
_audit_creation_method	'MofGen! by Chris Wilmer'
_symmetry_space_group_name_H-M	'P1'
_symmetry_Int_Tables_number	1
_symmetry_cell_setting	triclinic
loop_
_symmetry_equiv_pos_as_xyz
  x,y,z
_cell_length_a	14.628931
_cell_length_b	12.970454
_cell_length_c	12.970454
_cell_angle_alpha	59.999644
_cell_angle_beta	90.000112
_cell_angle_gamma	59.999998
loop_
_atom_site_label
_atom_site_type_symbol
_atom_site_fract_x
_atom_site_fract_y
_atom_site_fract_z
Zr1	Zr	0.880619	1.128519	-0.135304
O2	O	0.734657	1.343611	-0.299930
O3	O	0.925364	0.913427	-0.084837
O4	O	0.925363	1.128519	-0.299929
O5	O	0.734659	1.128518	0.084829
O6	O	1.075795	1.128519	-0.299929
O7	O	0.734658	1.128519	-0.084838
O8	O	1.075796	0.743759	0.084832
O9	O	0.734657	1.513278	-0.299931
O10	O	1.056713	1.001897	-0.063314
O11	O	0.944447	1.001897	0.063307
O12	O	0.944447	1.255140	-0.189936
O13	O	0.832181	1.255139	-0.063315
Zr14	Zr	1.120542	1.128517	0.135296
Zr15	Zr	1.120541	1.128518	-0.135304
Zr16	Zr	0.880620	1.128517	0.135296
Zr17	Zr	0.880619	1.399119	-0.135306
Zr18	Zr	1.120542	0.857917	0.135297
O19	O	1.075797	1.343608	0.084829
O20	O	1.075795	1.343610	-0.299930
O21	O	0.734659	1.343609	0.084828
O22	O	1.266503	0.913424	0.299922
O23	O	1.266502	0.913426	-0.084836
O24	O	0.925365	0.913426	0.299921
O25	O	1.266502	1.128517	-0.084837
O26	O	1.075797	1.128516	0.299921
O27	O	0.925365	1.128516	0.299920
O28	O	1.266502	1.128516	0.084830
O29	O	0.925363	1.513278	-0.299931
O30	O	1.075797	0.743758	0.299923
O31	O	1.266503	0.743757	0.299923
O32	O	1.266502	0.743758	0.084832
O33	O	0.734658	1.513277	-0.084840
O34	O	0.925364	1.513277	-0.084840
O35	O	1.056714	1.001896	0.189928
O36	O	1.168979	1.001896	0.063307
O37	O	1.056713	1.255139	-0.063315
O38	O	0.944447	1.255138	0.063306
C39	C	1.000580	0.790038	-0.000002
C40	C	1.000580	0.675162	-0.000002
C41	C	0.700474	1.128519	-0.000005
C42	C	0.598621	1.128519	-0.000005
C43	C	0.608904	1.002894	0.062808
C44	C	0.503634	1.002891	0.062810
C45	C	1.300686	1.128517	-0.000004
C46	C	1.402539	1.128516	-0.000003
C47	C	1.000579	1.128519	-0.338483
C48	C	1.000578	1.128520	-0.453360
C49	C	1.000580	1.466997	-0.000006
C50	C	1.000580	1.581874	-0.000006
C51	C	1.000581	1.128516	0.338475
C52	C	1.000582	1.128515	0.453352
C53	C	1.300686	0.790037	-0.000002
C54	C	1.402539	0.675160	-0.000001
C55	C	1.000581	0.790037	0.338477
C56	C	1.000582	0.675159	0.453354
C57	C	1.300687	0.790036	0.338477
C58	C	1.402541	0.675158	0.453355
C59	C	0.700473	1.467000	-0.338486
C60	C	0.598620	1.581877	-0.453363
C61	C	0.700475	1.466998	-0.000006
C62	C	0.598621	1.581875	-0.000007
C63	C	1.000579	1.466999	-0.338485
C64	C	1.000578	1.581876	-0.453362
C65	C	1.450371	0.527727	0.093476
C66	C	1.546064	0.419772	0.093481
C67	C	1.593926	0.459255	0.000013
C68	C	1.546085	0.606703	-0.093474
C69	C	1.450390	0.714654	-0.093483
C70	C	1.450380	0.527725	0.507302
C71	C	1.546093	0.419769	0.615230
C72	C	1.593960	0.459248	0.669213
C73	C	1.546116	0.606696	0.615256
C74	C	1.450410	0.714649	0.507325
C75	C	0.550789	1.729310	-0.507320
C76	C	0.455097	1.837266	-0.615272
C77	C	0.407233	1.797786	-0.669259
C78	C	0.455073	1.650339	-0.615296
C79	C	0.550768	1.542386	-0.507352
C80	C	0.550789	1.542347	0.093477
C81	C	0.455097	1.650271	0.093502
C82	C	0.407234	1.797723	0.000037
C83	C	0.455075	1.837250	-0.093453
C84	C	0.550770	1.729327	-0.093472
H85	H	0.695641	0.895343	0.116590
C86	C	0.422978	1.281674	-0.164738
C87	C	0.481535	1.273718	-0.072609
H88	H	0.350697	1.371322	-0.209566
H89	H	0.415790	1.202867	-0.125324
H90	H	0.462729	1.276253	-0.221818
H91	H	0.441788	1.279129	-0.015523
H92	H	0.488719	1.352547	-0.112025
H93	H	1.585105	0.638821	0.659225
H94	H	1.411418	0.495552	0.463363
C95	C	1.536414	0.245864	0.604364
C96	C	1.598660	0.257703	0.674534
H97	H	1.568861	0.145814	0.640982
H98	H	1.536571	0.291855	0.519984
H99	H	1.461597	0.291878	0.604558
H100	H	1.673475	0.211698	0.674333
H101	H	1.598514	0.211693	0.758936
C102	C	0.408755	0.885792	0.121367
C103	C	0.515295	0.857689	0.135416
H104	H	0.415957	0.796145	0.166201
H105	H	0.369033	0.940125	0.034404
H106	H	0.369029	0.940145	0.153990
H107	H	0.555019	0.803345	0.102784
H108	H	0.555034	0.803333	0.222396
H109	H	0.589700	1.422340	-0.463423
C110	C	1.459971	0.332090	0.278250
C111	C	1.397769	0.484301	0.196220
H112	H	1.427492	0.305276	0.341675
H113	H	1.534784	0.293872	0.316651
H114	H	1.459805	0.293898	0.232056
H115	H	1.397942	0.522493	0.242413
H116	H	1.322937	0.522535	0.157817
C117	C	0.713686	1.716359	-0.448254
C118	C	0.603392	1.772730	-0.447995
H119	H	0.746158	1.743168	-0.411630
H120	H	0.713838	1.754574	-0.532635
H121	H	0.755865	1.613098	-0.400651
H122	H	0.561210	1.875992	-0.495606
H123	H	0.603233	1.734521	-0.363599
C124	C	0.635450	1.855500	-0.190527
C125	C	0.603328	1.772799	-0.196252
H126	H	0.667886	1.882353	-0.253989
H127	H	0.688642	1.799390	-0.109856
H128	H	0.571599	1.940860	-0.203876
H129	H	0.667181	1.687434	-0.182894
H130	H	0.550133	1.828910	-0.276942
C131	C	1.303724	0.963152	-0.176518
C132	C	1.397826	0.876717	-0.196231
H133	H	1.271275	1.063201	-0.239959
H134	H	1.325530	0.942434	-0.095835
H135	H	1.250538	0.942455	-0.180411
H136	H	1.451016	0.897406	-0.192328
H137	H	1.376022	0.897444	-0.276934
C138	C	1.708943	0.189925	0.264290
C139	C	1.598648	0.257704	0.196255
H140	H	1.741405	0.089872	0.327732
H141	H	1.709098	0.235928	0.302667
H142	H	1.751129	0.197990	0.208609
H143	H	1.556459	0.249648	0.251934
H144	H	1.598486	0.211688	0.157877
H145	H	0.329313	1.885703	-0.757154
C146	C	1.675769	0.355468	-0.113170
C147	C	1.699122	0.340579	0.000041
H148	H	1.740714	0.282191	-0.113139
H149	H	1.654147	0.448909	-0.182212
H150	H	1.616621	0.345376	-0.120926
H151	H	1.758265	0.350682	0.007792
H152	H	1.720760	0.247115	0.069103
C153	C	1.365707	0.907171	0.536496
C154	C	1.397818	0.876711	0.448044
H155	H	1.333237	1.007223	0.499898
H156	H	1.429558	0.848523	0.608486
H157	H	1.312534	0.886445	0.561077
H158	H	1.450998	0.897426	0.423470
H159	H	1.333959	0.935378	0.376032
H160	H	0.589744	1.422292	0.169588
C161	C	0.464729	2.011171	-0.604355
C162	C	0.402515	1.999333	-0.674560
H163	H	0.432262	2.111222	-0.640951
H164	H	0.539542	1.965183	-0.604534
H165	H	0.464559	1.965156	-0.519971
H166	H	0.402692	2.045339	-0.758942
H167	H	0.327682	2.045340	-0.674394
H168	H	0.393902	1.236074	-0.053788
C169	C	0.370308	2.029856	-0.315127
C170	C	0.402456	1.999333	-0.196194
H171	H	0.337827	2.129919	-0.378556
H172	H	0.317147	2.009125	-0.318983
H173	H	0.434156	1.971239	-0.328509
H174	H	0.338607	2.057943	-0.182808
H175	H	0.455621	2.020079	-0.192335
H176	H	1.585069	0.638830	-0.169573
H177	H	0.416088	1.618213	-0.659269
H178	H	0.416157	1.618059	0.169633
H179	H	1.671890	0.371331	0.757098
H180	H	0.329312	1.885586	0.000066
