data_functionalizedCrystal
_audit_creation_method	'MofGen! by Chris Wilmer'
_symmetry_space_group_name_H-M	'P1'
_symmetry_Int_Tables_number	1
_symmetry_cell_setting	triclinic
loop_
_symmetry_equiv_pos_as_xyz
  x,y,z
_cell_length_a	10.654550
_cell_length_b	16.109301
_cell_length_c	9.130313
_cell_angle_alpha	89.994060
_cell_angle_beta	89.999724
_cell_angle_gamma	83.973206
loop_
_atom_site_label
_atom_site_type_symbol
_atom_site_fract_x
_atom_site_fract_y
_atom_site_fract_z
O1	O	1.666255	0.116774	-0.121695
O2	O	1.300626	0.127899	-0.121723
O3	O	1.493485	0.001365	-0.121693
O4	O	1.473396	0.243308	-0.121725
O5	O	1.493472	0.001362	0.121906
O6	O	1.300613	0.127896	0.121876
O7	O	1.666242	0.116770	0.121904
Cu8	Cu	1.483426	0.122333	0.144132
Cu9	Cu	1.483442	0.122337	-0.143951
O10	O	1.473383	0.243304	0.121874
C11	C	1.253832	0.127081	0.000073
C12	C	1.114422	0.124637	0.000063
C13	C	1.033926	0.199138	0.000058
C14	C	0.902936	0.196836	0.000084
C15	C	0.932952	0.045526	0.000114
C16	C	1.063939	0.047828	0.000099
C17	C	1.492664	-0.029616	0.000107
C18	C	1.490225	-0.121926	0.000109
C19	C	1.598991	-0.343552	0.000094
C20	C	1.596689	-0.430286	0.000081
C21	C	1.367868	-0.411772	0.000070
C22	C	1.370172	-0.325039	0.000072
C23	C	1.485737	-0.290932	0.000091
C24	C	1.481131	-0.464398	0.000077
C25	C	1.478634	-0.558439	0.000064
C26	C	1.488234	-0.196885	0.000101
C27	C	1.713036	0.117589	0.000104
C28	C	1.852446	0.120033	0.000105
C29	C	1.474203	0.274286	0.000071
C30	C	1.476643	0.366596	0.000059
N31	N	1.483424	0.122329	0.346755
N32	N	1.483453	0.122334	-0.346574
C33	C	1.568851	0.066324	0.423420
C34	C	1.568863	0.066324	0.576757
C35	C	1.398018	0.178342	0.576750
C36	C	1.398001	0.178337	0.423416
H37	H	1.693091	-0.315784	0.000106
O38	O	1.083117	0.273695	0.000228
C39	C	1.213535	0.364130	0.126436
C40	C	1.157939	0.279656	0.126406
H41	H	1.274019	0.368985	0.228455
H42	H	1.274181	0.369004	0.024550
H43	H	1.133477	0.416968	0.126367
H44	H	1.237916	0.226769	0.126527
H45	H	1.097260	0.274854	0.228283
H46	H	1.273779	-0.439553	0.000057
O47	O	1.314924	0.232778	0.650995
C48	C	1.145511	0.343914	0.634803
C49	C	1.239529	0.282296	0.550544
H50	H	1.084548	0.383977	0.553625
H51	H	1.082722	0.307673	0.706570
H52	H	1.199733	0.385750	0.706610
H53	H	1.185410	0.240444	0.478658
H54	H	1.302318	0.318588	0.478870
H55	H	1.277941	-0.282194	0.000065
O56	O	0.824922	0.269285	0.000009
C57	C	0.808982	0.419607	0.000056
C58	C	0.897477	0.337619	0.000104
H59	H	0.867607	0.474876	0.000165
H60	H	0.746919	0.422369	-0.101904
H61	H	0.746893	0.422269	0.101988
H62	H	0.959645	0.334902	-0.101758
H63	H	0.959454	0.334891	0.102132
O64	O	1.706788	-0.481314	-0.000107
C65	C	1.901629	-0.523694	-0.126340
C66	C	1.776997	-0.465844	-0.126289
H67	H	1.958416	-0.511219	-0.228363
H68	H	1.958581	-0.511203	-0.024457
H69	H	1.880109	-0.591537	-0.126279
H70	H	1.798402	-0.397980	-0.126401
H71	H	1.720081	-0.478406	-0.228163
O72	O	0.884056	-0.029132	-0.000063
C73	C	0.869561	-0.159135	-0.126293
C74	C	0.925039	-0.074621	-0.126250
H75	H	0.902652	-0.195930	-0.228320
H76	H	0.902755	-0.196050	-0.024415
H77	H	0.762116	-0.147963	-0.126218
H78	H	1.032486	-0.085718	-0.126376
H79	H	0.891746	-0.037734	-0.228120
H80	H	1.638406	0.020717	0.361006
O81	O	1.142269	-0.024491	-0.000095
C82	C	1.307521	-0.109725	-0.126340
C83	C	1.218907	-0.027788	-0.126292
H84	H	1.369486	-0.112425	-0.228375
H85	H	1.369690	-0.112438	-0.024469
H86	H	1.248914	-0.165003	-0.126253
H87	H	1.277413	0.027536	-0.126430
H88	H	1.156733	-0.025148	-0.228154
H89	H	1.638423	0.020718	0.639173
H90	H	1.328430	0.223944	0.360992
