data_functionalizedCrystal
_audit_creation_method	'MofGen! by Chris Wilmer'
_symmetry_space_group_name_H-M	'P1'
_symmetry_Int_Tables_number	1
_symmetry_cell_setting	triclinic
loop_
_symmetry_equiv_pos_as_xyz
  x,y,z
_cell_length_a	21.295419
_cell_length_b	12.759401
_cell_length_c	12.759393
_cell_angle_alpha	90.018496
_cell_angle_beta	89.978300
_cell_angle_gamma	89.997782
loop_
_atom_site_label
_atom_site_type_symbol
_atom_site_fract_x
_atom_site_fract_y
_atom_site_fract_z
Zn1	Zn	0.250569	1.606348	0.594053
Zn2	Zn	0.750569	2.106348	1.094053
Zn3	Zn	0.355853	1.606281	0.418404
Zn4	Zn	0.855853	2.106281	0.918404
Zn5	Zn	0.250602	1.430650	0.418393
Zn6	Zn	0.750602	1.930650	0.918393
Zn7	Zn	0.355805	1.430677	0.594045
Zn8	Zn	0.855805	1.930677	1.094045
O9	O	0.303207	1.518489	0.506224
O10	O	0.803207	2.018489	1.006224
O11	O	0.264542	1.753360	0.570761
O12	O	0.764542	2.253360	1.070761
O13	O	0.341926	1.582944	0.271381
O14	O	0.841926	2.082944	0.771381
O15	O	0.162509	1.453973	0.441693
O16	O	0.662509	1.953973	0.941693
O17	O	0.341894	1.753311	0.441712
O18	O	0.841894	2.253311	0.941712
O19	O	0.162484	1.583057	0.570750
O20	O	0.662484	2.083057	1.070750
O21	O	0.264598	1.453908	0.271373
O22	O	0.764598	1.953908	0.771373
O23	O	0.264551	1.283632	0.441685
O24	O	0.764551	1.783632	0.941685
O25	O	0.341811	1.454020	0.741067
O26	O	0.841811	1.954020	1.241067
O27	O	0.341843	1.283652	0.570737
O28	O	0.841843	1.783652	1.070737
O29	O	0.264495	1.583084	0.741073
O30	O	0.764495	2.083084	1.241073
O31	O	0.443936	1.582970	0.441704
O32	O	0.943936	2.082970	0.941704
O33	O	0.443901	1.453955	0.570747
O34	O	0.943901	1.953955	1.070747
C35	C	0.303196	1.245521	0.506210
C36	C	0.803196	1.745521	1.006210
C37	C	0.303206	1.128745	0.506228
C38	C	0.803206	1.628745	1.006228
C39	C	0.139017	1.518520	0.506222
C40	C	0.639017	2.018520	1.006222
C41	C	0.069049	1.518533	0.506221
C42	C	0.569049	2.018533	1.006221
C43	C	0.343516	1.073921	0.573314
C44	C	0.843516	1.573921	1.073314
C45	C	0.343524	0.964197	0.573326
C46	C	0.843524	1.464197	1.073326
C47	C	0.262910	0.964130	0.439156
C48	C	0.762910	1.464130	0.939156
C49	C	0.262899	1.073852	0.439151
C50	C	0.762899	1.573852	0.939151
C51	C	0.390060	1.073958	0.650773
C52	C	0.890060	1.573958	1.150773
C53	C	0.390068	0.964234	0.650784
C54	C	0.890068	1.464234	1.150784
C55	C	0.036194	1.451337	0.439029
C56	C	0.536194	1.951337	0.939029
C57	C	-0.029548	1.451336	0.439042
C58	C	0.470452	1.951336	0.939042
C59	C	-0.062433	1.518549	0.506235
C60	C	0.437567	2.018549	1.006235
C61	C	-0.029570	1.585749	0.573439
C62	C	0.470430	2.085749	1.073439
C63	C	0.036171	1.585741	0.573432
C64	C	0.536171	2.085741	1.073432
N65	N	-0.165653	1.610529	0.514307
N66	N	0.334347	2.110529	1.014307
N67	N	-0.228104	1.610533	0.514307
N68	N	0.271896	2.110533	1.014307
C69	C	-0.260508	1.518575	0.506261
C70	C	0.239492	2.018575	1.006261
N71	N	-0.228101	1.426610	0.498194
N72	N	0.271899	1.926610	0.998194
N73	N	-0.165644	1.426607	0.498188
N74	N	0.334356	1.926607	0.998188
C75	C	-0.133719	1.518564	0.506250
C76	C	0.366281	2.018564	1.006250
C77	C	-0.364649	1.451373	0.439080
C78	C	0.135351	1.951373	0.939080
C79	C	-0.430393	1.451370	0.439100
C80	C	0.069607	1.951370	0.939100
C81	C	-0.430413	1.585792	0.573492
C82	C	0.069587	2.085792	1.073492
C83	C	-0.364671	1.585786	0.573478
C84	C	0.135329	2.085786	1.073478
C85	C	-0.331792	1.518578	0.506266
C86	C	0.168208	2.018578	1.006266
C87	C	0.466759	1.518487	0.506249
C88	C	0.966759	2.018487	1.006249
C89	C	0.536727	1.518582	0.506295
C90	C	1.036727	2.018582	1.006295
C91	C	0.303144	1.518562	0.780257
C92	C	0.803144	2.018562	1.280257
C93	C	0.303117	1.518594	0.897034
C94	C	0.803117	2.018594	1.397034
C95	C	0.303220	1.792522	0.506239
C96	C	0.803220	2.292522	1.006239
C97	C	0.303225	1.909299	0.506245
C98	C	0.803225	2.409299	1.006245
C99	C	0.303225	1.518476	0.233256
C100	C	0.803225	2.018476	0.733256
C101	C	0.303075	1.518648	0.116480
C102	C	0.803075	2.018648	0.616480
C103	C	0.262855	1.585807	0.951901
C104	C	0.762855	2.085807	1.451901
C105	C	0.262832	1.585832	1.061625
C106	C	0.762832	2.085832	1.561625
C107	C	0.343339	1.451428	1.061606
C108	C	0.843339	1.951428	1.561606
C109	C	0.343358	1.451398	0.951884
C110	C	0.843358	1.951398	1.451884
C111	C	0.216376	1.663407	0.951913
C112	C	0.716376	2.163407	1.451913
C113	C	0.216353	1.663432	1.061637
C114	C	0.716353	2.163432	1.561637
H115	H	0.230071	1.118486	0.384530
H116	H	0.730071	1.618486	0.884530
Br117	Br	0.245503	1.792207	0.895181
Br118	Br	0.745503	2.292207	1.395181
H119	H	0.376101	1.396717	1.106278
H120	H	0.876101	1.896717	1.606278
H121	H	-0.337878	1.396643	0.384357
H122	H	0.162122	1.896643	0.884357
H123	H	0.170033	1.634302	1.095672
H124	H	0.670033	2.134302	1.595672
H125	H	0.229410	1.744808	1.091419
H126	H	0.729410	2.244808	1.591419
Br127	Br	0.467230	1.130690	0.602094
Br128	Br	0.967230	1.630690	1.102094
Br129	Br	0.208208	0.889627	0.348131
Br130	Br	0.708208	1.389627	0.848131
H131	H	0.377059	1.103762	0.732176
H132	H	0.877059	1.603762	1.232176
H133	H	0.372666	0.930230	0.728131
H134	H	0.872666	1.430230	1.228131
Br135	Br	0.471298	0.914592	0.614217
Br136	Br	0.971298	1.414592	1.114217
Br137	Br	0.080812	1.360122	0.347819
Br138	Br	0.580812	1.860122	0.847819
H139	H	-0.457144	1.396645	0.384388
H140	H	0.042856	1.896645	0.884388
Br141	Br	0.397989	1.360156	0.877423
Br142	Br	0.897989	1.860156	1.377423
Br143	Br	-0.074148	1.360141	0.347841
Br144	Br	0.425852	1.860141	0.847841
Br145	Br	-0.074198	1.676957	0.664641
Br146	Br	0.425802	2.176957	1.164641
Br147	Br	-0.475036	1.677005	0.664691
Br148	Br	0.024964	2.177005	1.164691
Br149	Br	0.080763	1.676938	0.664631
Br150	Br	0.580763	2.176938	1.164631
Br151	Br	-0.320078	1.676982	0.664674
Br152	Br	0.179922	2.176982	1.164674
H153	H	0.167626	1.641621	0.922143
H154	H	0.667626	2.141621	1.422143
