data_functionalizedCrystal
_audit_creation_method	'MofGen! by Chris Wilmer'
_symmetry_space_group_name_H-M	'P1'
_symmetry_Int_Tables_number	1
_symmetry_cell_setting	triclinic
loop_
_symmetry_equiv_pos_as_xyz
  x,y,z
_cell_length_a	12.759401
_cell_length_b	19.077068
_cell_length_c	12.759393
_cell_angle_alpha	92.262348
_cell_angle_beta	89.979062
_cell_angle_gamma	92.328499
loop_
_atom_site_label
_atom_site_type_symbol
_atom_site_fract_x
_atom_site_fract_y
_atom_site_fract_z
Zn1	Zn	1.589374	-0.280138	-0.610771
Zn2	Zn	1.922707	0.053195	-0.277437
Zn3	Zn	2.256040	0.386529	0.055896
Zn4	Zn	1.582167	-0.397851	-0.442129
Zn5	Zn	1.915500	-0.064518	-0.108796
Zn6	Zn	2.248833	0.268815	0.224538
Zn7	Zn	1.413670	-0.280175	-0.435108
Zn8	Zn	1.747004	0.053158	-0.101775
Zn9	Zn	2.080337	0.386491	0.231559
Zn10	Zn	1.406569	-0.397802	-0.617763
Zn11	Zn	1.739902	-0.064469	-0.284430
Zn12	Zn	2.073236	0.268864	0.048903
O13	O	1.497945	-0.338992	-0.526443
O14	O	1.831278	-0.005658	-0.193109
O15	O	2.164612	0.327675	0.140224
O16	O	1.735438	-0.295758	-0.588412
O17	O	2.068772	0.037576	-0.255078
O18	O	2.402105	0.370909	0.078255
O19	O	1.559771	-0.382278	-0.294179
O20	O	1.893104	-0.048944	0.039155
O21	O	2.226437	0.284389	0.372488
O22	O	1.442966	-0.181680	-0.452545
O23	O	1.776299	0.151654	-0.119212
O24	O	2.109632	0.484987	0.214122
O25	O	1.730143	-0.382241	-0.464512
O26	O	2.063477	-0.048908	-0.131178
O27	O	2.396810	0.284425	0.202155
O28	O	1.572054	-0.181652	-0.581604
O29	O	1.905388	0.151681	-0.248270
O30	O	2.238721	0.485015	0.085063
O31	O	1.435977	-0.295822	-0.289020
O32	O	1.769311	0.037512	0.044313
O33	O	2.102644	0.370845	0.377646
O34	O	1.265708	-0.295774	-0.459326
O35	O	1.599041	0.037559	-0.125992
O36	O	1.932374	0.370893	0.207341
O37	O	1.430863	-0.382158	-0.763855
O38	O	1.764196	-0.048824	-0.430521
O39	O	2.097530	0.284509	-0.097188
O40	O	1.260490	-0.382194	-0.593522
O41	O	1.593824	-0.048861	-0.260189
O42	O	1.927157	0.284473	0.073145
O43	O	1.565169	-0.295710	-0.758717
O44	O	1.898502	0.037623	-0.425384
O45	O	2.231835	0.370957	-0.092050
O46	O	1.552885	-0.496336	-0.471292
O47	O	1.886218	-0.163002	-0.137959
O48	O	2.219552	0.170331	0.195374
O49	O	1.423874	-0.496300	-0.600330
O50	O	1.757208	-0.162966	-0.266997
O51	O	2.090541	0.170367	0.066337
C52	C	1.224978	-0.338983	-0.526421
C53	C	1.558311	-0.005650	-0.193088
C54	C	1.891645	0.327684	0.140245
C55	C	1.108201	-0.338996	-0.526438
C56	C	1.441534	-0.005663	-0.193105
C57	C	1.774867	0.327670	0.140229
C58	C	1.050645	-0.384064	-0.596212
C59	C	1.383979	-0.050730	-0.262879
C60	C	1.717312	0.282603	0.070454
C61	C	0.940921	-0.384066	-0.596233
C62	C	1.274255	-0.050733	-0.262900
C63	C	1.607588	0.282600	0.070433
C64	C	0.946317	-0.293932	-0.456697
C65	C	1.279650	0.039401	-0.123363
C66	C	1.612984	0.372734	0.209970
C67	C	1.056040	-0.293927	-0.456682
C68	C	1.389373	0.039407	-0.123348
C69	C	1.722706	0.372740	0.209985
C70	C	1.486856	-0.521855	-0.537355
C71	C	1.820189	-0.188522	-0.204021
C72	C	2.153522	0.144811	0.129312
C73	C	1.482208	-0.600085	-0.542058
C74	C	1.815541	-0.266752	-0.208725
C75	C	2.148874	0.066582	0.124608
C76	C	1.547245	-0.636833	-0.477141
C77	C	1.880579	-0.303500	-0.143807
C78	C	2.213912	0.029834	0.189526
C79	C	1.542880	-0.710338	-0.481570
C80	C	1.876213	-0.377005	-0.148237
C81	C	2.209547	-0.043671	0.185096
C82	C	1.473471	-0.747094	-0.550913
C83	C	1.806804	-0.413761	-0.217580
C84	C	2.140138	-0.080427	0.115753
C85	C	1.408431	-0.710341	-0.615838
C86	C	1.741764	-0.377008	-0.282505
C87	C	2.075097	-0.043674	0.050828
C88	C	1.412802	-0.636837	-0.611413
C89	C	1.746135	-0.303504	-0.278080
C90	C	2.079469	0.029830	0.055254
C91	C	1.453194	-0.966927	-0.571352
C92	C	1.786527	-0.633594	-0.238019
C93	C	2.119860	-0.300261	0.095315
C94	C	1.448825	-1.040436	-0.575770
C95	C	1.782158	-0.707103	-0.242437
C96	C	2.115491	-0.373770	0.090896
C97	C	1.583276	-1.040429	-0.441503
C98	C	1.916609	-0.707095	-0.108170
C99	C	2.249943	-0.373762	0.225163
C100	C	1.587637	-0.966923	-0.437080
C101	C	1.920970	-0.633590	-0.103746
C102	C	2.254303	-0.300257	0.229587
C103	C	1.522600	-0.930177	-0.502008
C104	C	1.855934	-0.596843	-0.168675
C105	C	2.189267	-0.263510	0.164658
N106	N	1.469005	-0.822228	-0.555441
N107	N	1.802338	-0.488895	-0.222108
N108	N	2.135671	-0.155561	0.111226
N109	N	1.527073	-0.855044	-0.497485
N110	N	1.860406	-0.521711	-0.164152
N111	N	2.193739	-0.188377	0.169181
C112	C	1.771978	-0.339001	-0.526465
C113	C	2.105311	-0.005668	-0.193131
C114	C	2.438644	0.327666	0.140202
C115	C	1.888754	-0.339005	-0.526474
C116	C	2.222087	-0.005671	-0.193141
C117	C	2.555421	0.327662	0.140192
C118	C	1.498028	-0.338924	-0.800472
C119	C	1.831361	-0.005591	-0.467139
C120	C	2.164694	0.327742	-0.133805
C121	C	1.498063	-0.338895	-0.917247
C122	C	1.831396	-0.005562	-0.583914
C123	C	2.164729	0.327771	-0.250581
C124	C	1.509106	-0.155414	-0.515511
C125	C	1.842439	0.177919	-0.182178
C126	C	2.175773	0.511252	0.151156
C127	C	1.513862	-0.077184	-0.510853
C128	C	1.847196	0.256149	-0.177519
C129	C	2.180529	0.589482	0.155814
C130	C	1.568001	-0.293875	-0.969435
C131	C	1.901335	0.039458	-0.636102
C132	C	2.234668	0.372792	-0.302769
C133	C	1.568021	-0.293845	-1.079158
C134	C	1.901354	0.039489	-0.745824
C135	C	2.234688	0.372822	-0.412491
C136	C	1.428160	-0.383861	-1.084494
C137	C	1.761494	-0.050528	-0.751161
C138	C	2.094827	0.282805	-0.417828
C139	C	1.428136	-0.383887	-0.974774
C140	C	1.761470	-0.050554	-0.641441
C141	C	2.094803	0.282779	-0.308107
C142	C	1.497926	-0.339008	-0.253476
C143	C	1.831259	-0.005675	0.079857
C144	C	2.164593	0.327658	0.413190
C145	C	1.498106	-0.338839	-0.136690
C146	C	1.831440	-0.005505	0.196643
C147	C	2.164773	0.327828	0.529977
H148	H	0.903834	-0.257239	-0.399902
H149	H	1.237167	0.076094	-0.066569
H150	H	1.570501	0.409427	0.266765
H151	H	1.624937	-0.257238	-0.922600
H152	H	1.958270	0.076096	-0.589267
H153	H	2.291604	0.409429	-0.255933
H154	H	1.624970	-0.257183	-1.121644
H155	H	1.958304	0.076150	-0.788311
H156	H	2.291637	0.409483	-0.454977
H157	H	1.636226	-1.070356	-0.388644
H158	H	1.969560	-0.737022	-0.055310
H159	H	2.302893	-0.403689	0.278023
H160	H	1.371231	-0.420494	-1.131346
H161	H	1.704564	-0.087160	-0.798013
H162	H	2.037898	0.246173	-0.464679
H163	H	1.644155	-0.936998	-0.380615
H164	H	1.977488	-0.603665	-0.047282
H165	H	2.310822	-0.270332	0.286052
H166	H	1.093112	-0.420761	-0.653015
H167	H	1.426445	-0.087427	-0.319682
H168	H	1.759778	0.245906	0.013651
H169	H	0.894064	-0.420764	-0.653052
H170	H	1.227398	-0.087431	-0.319719
H171	H	1.560731	0.245903	0.013614
H172	H	1.102903	-0.257223	-0.399863
H173	H	1.436236	0.076110	-0.066529
H174	H	1.769569	0.409444	0.266804
H175	H	1.603761	-0.606911	-0.420670
H176	H	1.937094	-0.273578	-0.087336
H177	H	2.270427	0.059756	0.245997
H178	H	1.595840	-0.740255	-0.428707
H179	H	1.929173	-0.406922	-0.095373
H180	H	2.262506	-0.073588	0.237960
H181	H	1.392316	-1.070361	-0.632256
H182	H	1.725650	-0.737028	-0.298923
H183	H	2.058983	-0.403694	0.034411
H184	H	1.371177	-0.420548	-0.932281
H185	H	1.704510	-0.087215	-0.598948
H186	H	2.037843	0.246119	-0.265615
H187	H	1.400236	-0.937014	-0.624217
H188	H	1.733570	-0.603681	-0.290884
H189	H	2.066903	-0.270347	0.042449
H190	H	1.359843	-0.606918	-0.664277
H191	H	1.693176	-0.273584	-0.330944
H192	H	2.026510	0.059749	0.002390
H193	H	1.351921	-0.740273	-0.672303
H194	H	1.685254	-0.406940	-0.338970
H195	H	2.018588	-0.073607	-0.005637
