data_functionalizedCrystal
_audit_creation_method	'MofGen! by Chris Wilmer'
_symmetry_space_group_name_H-M	'P1'
_symmetry_Int_Tables_number	1
_symmetry_cell_setting	triclinic
loop_
_symmetry_equiv_pos_as_xyz
  x,y,z
_cell_length_a	16.625547
_cell_length_b	16.625546
_cell_length_c	18.101389
_cell_angle_alpha	90.019589
_cell_angle_beta	90.025473
_cell_angle_gamma	90.021654
loop_
_atom_site_label
_atom_site_type_symbol
_atom_site_fract_x
_atom_site_fract_y
_atom_site_fract_z
Zn1	Zn	-1.232668	0.321104	-0.418855
Zn2	Zn	-0.732668	0.821104	0.081145
Zn3	Zn	-1.232575	0.455921	-0.295011
Zn4	Zn	-0.732575	0.955921	0.204989
Zn5	Zn	-1.097833	0.321105	-0.295014
Zn6	Zn	-0.597833	0.821105	0.204986
Zn7	Zn	-1.097800	0.455896	-0.418797
Zn8	Zn	-0.597800	0.955896	0.081203
O9	O	-1.165219	0.388506	-0.356920
O10	O	-0.665219	0.888506	0.143080
O11	O	-1.345488	0.338998	-0.402450
O12	O	-0.845488	0.838998	0.097550
O13	O	-1.214676	0.438049	-0.191379
O14	O	-0.714676	0.938049	0.308621
O15	O	-1.115772	0.208272	-0.311467
O16	O	-0.615772	0.708272	0.188533
O17	O	-1.345420	0.438048	-0.311463
O18	O	-0.845420	0.938048	0.188537
O19	O	-1.214835	0.208271	-0.402453
O20	O	-0.714835	0.708271	0.097547
O21	O	-1.115682	0.338999	-0.191381
O22	O	-0.615682	0.838999	0.308619
O23	O	-0.984997	0.338975	-0.311411
O24	O	-0.484997	0.838975	0.188589
O25	O	-1.115716	0.438005	-0.522438
O26	O	-0.615716	0.938005	-0.022438
O27	O	-0.984972	0.438005	-0.402354
O28	O	-0.484972	0.938005	0.097646
O29	O	-1.214802	0.338973	-0.522481
O30	O	-0.714802	0.838973	-0.022481
O31	O	-1.214644	0.568750	-0.311406
O32	O	-0.714644	1.068750	0.188594
O33	O	-1.115625	0.568732	-0.402352
O34	O	-0.615625	1.068732	0.097648
C35	C	-0.955728	0.388488	-0.356877
C36	C	-0.455728	0.888488	0.143123
C37	C	-0.866107	0.388500	-0.356876
C38	C	-0.366107	0.888500	0.143124
C39	C	-0.793325	0.388500	-0.356883
C40	C	-0.293325	0.888500	0.143117
C41	C	-0.702016	0.388503	-0.356898
C42	C	-0.202016	0.888503	0.143102
C43	C	-0.629240	0.388510	-0.356914
C44	C	-0.129240	0.888510	0.143086
C45	C	-0.537925	0.388514	-0.356929
C46	C	-0.037925	0.888514	0.143071
C47	C	-1.165143	0.597997	-0.356889
C48	C	-0.665143	1.097997	0.143111
C49	C	-1.165184	0.687618	-0.356900
C50	C	-0.665184	1.187618	0.143100
C51	C	-0.375528	0.388522	-0.356954
C52	C	0.124472	0.888522	0.143046
C53	C	-0.465149	0.388520	-0.356945
C54	C	0.034851	0.888520	0.143055
C55	C	-1.165266	0.388486	-0.550082
C56	C	-0.665266	0.888486	-0.050082
C57	C	-1.165285	0.388477	-0.632396
C58	C	-0.665285	0.888477	-0.132396
C59	C	-1.165318	0.178197	-0.356967
C60	C	-0.665318	0.678197	0.143033
C61	C	-1.165360	0.088576	-0.356987
C62	C	-0.665360	0.588576	0.143013
C63	C	-1.165325	1.015794	-0.356977
C64	C	-0.665325	1.515794	0.143023
C65	C	-1.165283	0.924485	-0.356958
C66	C	-0.665283	1.424485	0.143042
C67	C	-1.165254	0.851709	-0.356938
C68	C	-0.665254	1.351709	0.143062
C69	C	-1.165213	0.760395	-0.356920
C70	C	-0.665213	1.260395	0.143080
C71	C	-1.165332	0.388326	-0.931487
C72	C	-0.665332	0.888326	-0.431487
C73	C	-1.102775	0.450436	-0.900135
C74	C	-0.602775	0.950436	-0.400135
C75	C	-1.102944	0.450724	-0.814516
C76	C	-0.602944	0.950724	-0.314516
C77	C	-1.165308	0.388401	-0.783104
C78	C	-0.665308	0.888401	-0.283104
C79	C	-1.250264	0.411467	-0.814211
C80	C	-0.750264	0.911467	-0.314211
C81	C	-1.249915	0.411875	-0.899856
C82	C	-0.749915	0.911875	-0.399856
C83	C	-1.143673	0.303012	-0.899912
C84	C	-0.643673	0.803012	-0.399912
C85	C	-1.141783	0.303505	-0.814261
C86	C	-0.641783	0.803505	-0.314261
C87	C	-1.165300	0.388442	-0.699245
C88	C	-0.665300	0.888442	-0.199245
C89	C	-1.165346	0.388287	-1.015346
C90	C	-0.665346	0.888287	-0.515346
C91	C	-1.165219	0.388469	-0.164509
C92	C	-0.665219	0.888469	0.335491
C93	C	-1.165355	0.388250	-0.082195
C94	C	-0.665355	0.888250	0.417805
H95	H	-1.039947	0.436290	-0.793483
H96	H	-0.539947	0.936290	-0.293483
N97	N	-1.058974	0.280455	-0.787323
N98	N	-0.558974	0.780455	-0.287323
H99	H	-1.044177	0.225801	-0.807539
H100	H	-0.544177	0.725801	-0.307539
H101	H	-1.018574	0.321623	-0.804829
H102	H	-0.518574	0.821623	-0.304829
N103	N	-1.019069	0.431505	-0.927379
N104	N	-0.519069	0.931505	-0.427379
H105	H	-1.020883	0.382487	-0.960314
H106	H	-0.520883	0.882487	-0.460314
H107	H	-0.997567	0.478833	-0.956237
H108	H	-0.497567	0.978833	-0.456237
H109	H	-1.184021	0.254774	-0.792879
H110	H	-0.684021	0.754774	-0.292879
N111	N	-1.121541	0.533690	-0.928635
N112	N	-0.621541	1.033690	-0.428635
H113	H	-1.074100	0.554759	-0.957607
H114	H	-0.574100	1.054759	-0.457607
H115	H	-1.170403	0.531275	-0.961734
H116	H	-0.670403	1.031275	-0.461734
H117	H	-1.117245	0.513961	-0.794033
H118	H	-0.617245	1.013961	-0.294033
N119	N	-1.275003	0.493200	-0.785813
N120	N	-0.775003	0.993200	-0.285813
H121	H	-1.283681	0.530833	-0.828872
H122	H	-0.783681	1.030833	-0.328872
H123	H	-1.326572	0.488058	-0.756724
H124	H	-0.826572	0.988058	-0.256724
N125	N	-1.274228	0.494481	-0.926339
N126	N	-0.774228	0.994481	-0.426339
H127	H	-1.329916	0.507517	-0.907559
H128	H	-0.829916	1.007517	-0.407559
H129	H	-1.234763	0.535650	-0.907064
H130	H	-0.734763	1.035650	-0.407064
N131	N	-1.313757	0.354570	-0.927339
N132	N	-0.813757	0.854570	-0.427339
H133	H	-1.342003	0.329158	-0.883817
H134	H	-0.842003	0.829158	-0.383817
H135	H	-1.354094	0.385029	-0.958282
H136	H	-0.854094	0.885029	-0.458282
N137	N	-1.313667	0.353425	-0.787278
N138	N	-0.813667	0.853425	-0.287278
H139	H	-1.287868	0.311521	-0.754573
H140	H	-0.787868	0.811521	-0.254573
H141	H	-1.355750	0.383743	-0.758255
H142	H	-0.855750	0.883743	-0.258255
H143	H	-1.189237	0.256738	-0.920190
H144	H	-0.689237	0.756738	-0.420190
H145	H	-1.082800	0.281998	-0.921497
H146	H	-0.582800	0.781998	-0.421497
