data_functionalizedCrystal
_audit_creation_method	'MofGen! by Chris Wilmer'
_symmetry_space_group_name_H-M	'P1'
_symmetry_Int_Tables_number	1
_symmetry_cell_setting	triclinic
loop_
_symmetry_equiv_pos_as_xyz
  x,y,z
_cell_length_a	6.817900
_cell_length_b	11.452831
_cell_length_c	12.200875
_cell_angle_alpha	81.382333
_cell_angle_beta	107.143593
_cell_angle_gamma	108.696887
loop_
_atom_site_label
_atom_site_type_symbol
_atom_site_fract_x
_atom_site_fract_y
_atom_site_fract_z
V1	V	-4.076243	-0.169164	-0.323894
O2	O	-4.054672	0.007844	-0.352418
O3	O	-4.035253	-0.335149	-0.288316
O4	O	-4.045850	-0.166687	-0.480377
O5	O	-4.044001	-0.161784	-0.159028
V6	V	-4.556578	-0.147977	-0.308228
O7	O	-4.344496	-0.215639	-0.358260
O8	O	-4.738522	-0.101501	-0.273862
O9	O	-4.374361	0.018008	-0.343806
O10	O	-4.695546	-0.324984	-0.279704
O11	O	-4.706216	-0.155356	-0.473095
O12	O	-4.363764	-0.150454	-0.151745
C13	C	-3.881474	-0.375608	-0.274598
C14	C	-3.929366	-0.511304	-0.246552
C15	C	-4.050849	-0.728697	-0.301572
C16	C	-4.001351	-0.588450	-0.330566
C17	C	-3.894990	-0.160717	-0.519590
C18	C	-3.951473	-0.159790	-0.647296
C19	C	-4.054845	-0.158095	-0.881108
C20	C	-3.997313	-0.159037	-0.750998
C21	C	-4.191482	0.058462	-0.357520
C22	C	-4.122829	0.194156	-0.385573
C23	C	-4.177965	-0.156427	-0.112526
C24	C	-4.100721	-0.157348	0.015180
H25	H	-3.904363	-0.549077	-0.153163
O26	O	-4.021240	-0.773965	-0.190228
C27	C	-4.043356	-0.955013	-0.059805
C28	C	-4.077040	-0.903920	-0.185954
H29	H	-4.088412	-1.060085	-0.056307
H30	H	-4.148851	-0.926239	-0.018266
H31	H	-3.867701	-0.916520	-0.011442
H32	H	-4.252635	-0.942388	-0.234413
H33	H	-3.971411	-0.932682	-0.227404
O34	O	-4.031139	-0.543193	-0.441920
C35	C	-4.008760	-0.362137	-0.572337
C36	C	-3.974976	-0.413226	-0.446185
H37	H	-3.963325	-0.257051	-0.575825
H38	H	-4.184432	-0.400466	-0.620753
H39	H	-3.903384	-0.391080	-0.613826
H40	H	-4.080222	-0.384302	-0.404596
H41	H	-3.799253	-0.374902	-0.397853
O42	O	-4.152612	-0.760582	-0.496922
C43	C	-4.130233	-0.579525	-0.627338
C44	C	-4.096448	-0.630615	-0.501187
H45	H	-4.084798	-0.474440	-0.630827
H46	H	-4.305904	-0.617854	-0.675754
H47	H	-4.024857	-0.608468	-0.668827
H48	H	-4.201695	-0.601691	-0.459597
H49	H	-3.920726	-0.592291	-0.452854
