data_functionalizedCrystal
_audit_creation_method	'MofGen! by Chris Wilmer'
_symmetry_space_group_name_H-M	'P1'
_symmetry_Int_Tables_number	1
_symmetry_cell_setting	triclinic
loop_
_symmetry_equiv_pos_as_xyz
  x,y,z
_cell_length_a	14.908795
_cell_length_b	21.295417
_cell_length_c	14.908308
_cell_angle_alpha	86.738273
_cell_angle_beta	90.211334
_cell_angle_gamma	93.319839
loop_
_atom_site_label
_atom_site_type_symbol
_atom_site_fract_x
_atom_site_fract_y
_atom_site_fract_z
Zn1	Zn	1.345263	-0.220181	0.587806
Zn2	Zn	1.678597	0.113152	0.921139
Zn3	Zn	2.011930	0.446485	1.254473
Zn4	Zn	1.353821	-0.319059	0.437434
Zn5	Zn	1.687155	0.014275	0.770768
Zn6	Zn	2.020488	0.347608	1.104101
Zn7	Zn	1.203577	-0.219499	0.428777
Zn8	Zn	1.536910	0.113834	0.762110
Zn9	Zn	1.870243	0.447167	1.095444
Zn10	Zn	1.194844	-0.331112	0.579054
Zn11	Zn	1.528178	0.002222	0.912388
Zn12	Zn	1.861511	0.335555	1.245721
O13	O	1.274376	-0.272463	0.508268
O14	O	1.607710	0.060871	0.841601
O15	O	1.941043	0.394204	1.174935
O16	O	1.472227	-0.228539	0.575145
O17	O	1.805560	0.104795	0.908478
O18	O	2.138894	0.438128	1.241811
O19	O	1.341127	-0.300522	0.310463
O20	O	1.674461	0.032811	0.643797
O21	O	2.007794	0.366144	0.977130
O22	O	1.222445	-0.131499	0.449912
O23	O	1.555778	0.201834	0.783245
O24	O	1.889111	0.535168	1.116579
O25	O	1.478515	-0.301184	0.464667
O26	O	1.811848	0.032150	0.798001
O27	O	2.145182	0.365483	1.131334
O28	O	1.326541	-0.132000	0.566750
O29	O	1.659874	0.201333	0.900083
O30	O	1.993208	0.534667	1.233417
O31	O	1.230743	-0.227376	0.304103
O32	O	1.564077	0.105957	0.637436
O33	O	1.897410	0.439290	0.970770
O34	O	1.076590	-0.239064	0.441426
O35	O	1.409923	0.094270	0.774759
O36	O	1.743256	0.427603	1.108093
O37	O	1.207562	-0.321726	0.706038
O38	O	1.540895	0.011607	1.039371
O39	O	1.874228	0.344940	1.372705
O40	O	1.070174	-0.321065	0.551834
O41	O	1.403508	0.012269	0.885168
O42	O	1.736841	0.345602	1.218501
O43	O	1.318074	-0.240226	0.712468
O44	O	1.651407	0.093107	1.045801
O45	O	1.984740	0.426441	1.379134
O46	O	1.332660	-0.408748	0.456181
O47	O	1.665993	-0.075415	0.789515
O48	O	1.999327	0.257918	1.122848
O49	O	1.215860	-0.417604	0.560229
O50	O	1.549194	-0.084270	0.893562
O51	O	1.882527	0.249063	1.226896
C52	C	1.040756	-0.281299	0.494742
C53	C	1.374089	0.052035	0.828075
C54	C	1.707423	0.385368	1.161408
C55	C	0.940811	-0.285095	0.488976
C56	C	1.274144	0.048239	0.822310
C57	C	1.607478	0.381572	1.155643
C58	C	0.803223	-0.328196	0.423242
C59	C	1.136556	0.005137	0.756575
C60	C	1.469890	0.338470	1.089909
C61	C	0.897130	-0.324632	0.428659
C62	C	1.230464	0.008701	0.761992
C63	C	1.563797	0.342035	1.095325
C64	C	0.890577	-0.249117	0.543879
C65	C	1.223911	0.084216	0.877213
C66	C	1.557244	0.417549	1.210546
C67	C	0.796670	-0.252682	0.538463
C68	C	1.130003	0.080652	0.871796
C69	C	1.463336	0.413985	1.205129
C70	C	0.752996	-0.292223	0.478143
C71	C	1.086329	0.041110	0.811476
C72	C	1.419663	0.374444	1.144810
C73	C	0.659087	-0.295790	0.472732
C74	C	0.992420	0.037543	0.806065
C75	C	1.325753	0.370876	1.139398
C76	C	0.652535	-0.220273	0.587947
C77	C	0.985869	0.113061	0.921280
C78	C	1.319202	0.446394	1.254614
C79	C	0.746443	-0.216708	0.593364
C80	C	1.079776	0.116625	0.926697
C81	C	1.413110	0.449958	1.260030
C82	C	1.274265	-0.436017	0.508216
C83	C	1.607598	-0.102683	0.841549
C84	C	1.940931	0.230650	1.174883
C85	C	1.274297	-0.505984	0.508228
C86	C	1.607630	-0.172651	0.841562
C87	C	1.940964	0.160683	1.174895
C88	C	1.328465	-0.539057	0.569105
C89	C	1.661798	-0.205724	0.902438
C90	C	1.995132	0.127609	1.235772
C91	C	1.328495	-0.604800	0.569129
C92	C	1.661829	-0.271466	0.902462
C93	C	1.995162	0.061867	1.235796
C94	C	1.274368	-0.637465	0.508261
C95	C	1.607702	-0.304132	0.841594
C96	C	1.941035	0.029202	1.174928
C97	C	1.220190	-0.604384	0.447380
C98	C	1.553523	-0.271051	0.780713
C99	C	1.886856	0.062283	1.114046
C100	C	1.220154	-0.538643	0.447363
C101	C	1.553487	-0.205310	0.780697
C102	C	1.886821	0.128023	1.114030
N103	N	1.272120	-0.737636	0.429180
N104	N	1.605454	-0.404303	0.762513
N105	N	1.938787	-0.070970	1.095847
N106	N	1.272159	-0.800087	0.429198
N107	N	1.605493	-0.466753	0.762532
N108	N	1.938826	-0.133420	1.095865
C109	C	1.274471	-0.835537	0.508308
C110	C	1.607804	-0.502204	0.841641
C111	C	1.941138	-0.168871	1.174974
N112	N	1.276760	-0.806178	0.587400
N113	N	1.610093	-0.472844	0.920734
N114	N	1.943427	-0.139511	1.254067
N115	N	1.276726	-0.743721	0.587381
N116	N	1.610059	-0.410388	0.920715
N117	N	1.943392	-0.077054	1.254048
C118	C	1.274401	-0.708749	0.508272
C119	C	1.607734	-0.375416	0.841606
C120	C	1.941067	-0.042083	1.174939
C121	C	1.328675	-0.939896	0.569215
C122	C	1.662008	-0.606563	0.902549
C123	C	1.995341	-0.273229	1.235882
C124	C	1.328699	-1.005640	0.569240
C125	C	1.662032	-0.672307	0.902574
C126	C	1.995365	-0.338973	1.235907
C127	C	1.220398	-1.005222	0.447483
C128	C	1.553732	-0.671889	0.780817
C129	C	1.887065	-0.338556	1.114150
C130	C	1.220369	-0.939480	0.447466
C131	C	1.553702	-0.606147	0.780799
C132	C	1.887036	-0.272814	1.114133
C133	C	1.274512	-0.906821	0.508331
C134	C	1.607845	-0.573488	0.841664
C135	C	1.941179	-0.240154	1.174998
C136	C	1.508909	-0.263593	0.521848
C137	C	1.842243	0.069741	0.855181
C138	C	2.175576	0.403074	1.188514
C139	C	1.608853	-0.259813	0.527635
C140	C	1.942186	0.073520	0.860968
C141	C	2.275520	0.406854	1.194301
C142	C	1.260889	-0.282397	0.742789
C143	C	1.594222	0.050937	1.076123
C144	C	1.927556	0.384270	1.409456
C145	C	1.255141	-0.286630	0.842728
C146	C	1.588475	0.046703	1.176062
C147	C	1.921808	0.380037	1.509395
C148	C	1.274512	-0.108270	0.508341
C149	C	1.607846	0.225063	0.841675
C150	C	1.941179	0.558397	1.175008
C151	C	1.274570	-0.038301	0.508373
C152	C	1.607903	0.295033	0.841706
C153	C	1.941237	0.628366	1.175039
C154	C	1.287863	-0.262520	0.274662
C155	C	1.621197	0.070813	0.607995
C156	C	1.954530	0.404147	0.941329
C157	C	1.293785	-0.258103	0.174734
C158	C	1.627118	0.075231	0.508067
C159	C	1.960452	0.408564	0.841400
C160	C	1.359415	-0.209704	1.037221
C161	C	1.692748	0.123629	1.370555
C162	C	2.026081	0.456962	1.703888
C163	C	1.354017	-0.213680	1.131123
C164	C	1.687350	0.119654	1.464456
C165	C	2.020684	0.452987	1.797790
C166	C	1.238945	-0.298552	1.124435
C167	C	1.572278	0.034781	1.457769
C168	C	1.905611	0.368114	1.791102
C169	C	1.244342	-0.294577	1.030534
C170	C	1.577676	0.038756	1.363867
C171	C	1.911009	0.372090	1.697200
C172	C	1.304580	-0.250152	0.986930
C173	C	1.637914	0.083181	1.320263
C174	C	1.971247	0.416514	1.653597
C175	C	1.309982	-0.246180	0.893027
C176	C	1.643315	0.087153	1.226360
C177	C	1.976648	0.420486	1.559693
C178	C	1.194906	-0.331050	0.886340
C179	C	1.528239	0.002284	1.219674
C180	C	1.861572	0.335617	1.553007
C181	C	1.189508	-0.335025	0.980242
C182	C	1.522841	-0.001692	1.313576
C183	C	1.856175	0.331642	1.646909
H184	H	0.611630	-0.190981	0.632653
H185	H	0.944964	0.142352	0.965986
H186	H	1.278297	0.475685	1.299320
H187	H	1.398667	-0.180741	1.172067
H188	H	1.732000	0.152592	1.505400
H189	H	2.065333	0.485926	1.838734
O190	O	1.424389	-0.161794	0.990192
O191	O	1.757722	0.171540	1.323525
O192	O	2.091056	0.504873	1.656858
H193	H	1.472576	-0.186431	0.950055
H194	H	1.805909	0.146902	1.283388
H195	H	2.139242	0.480236	1.616721
O196	O	1.387123	-1.041312	0.634911
O197	O	1.720456	-0.707979	0.968244
O198	O	2.053789	-0.374646	1.301578
H199	H	1.378043	-1.092514	0.624708
H200	H	1.711377	-0.759181	0.958041
H201	H	2.044710	-0.425847	1.291375
H202	H	1.176117	-0.630984	0.397822
H203	H	1.509451	-0.297651	0.731156
H204	H	1.842784	0.035682	1.064489
H205	H	1.189902	-0.334721	1.159954
H206	H	1.523235	-0.001387	1.493287
H207	H	1.856569	0.331946	1.826620
H208	H	0.767663	-0.360398	0.374134
H209	H	1.100996	-0.027064	0.707468
H210	H	1.434330	0.306269	1.040801
H211	H	1.372758	-0.913304	0.618778
H212	H	1.706092	-0.579971	0.952111
H213	H	2.039425	-0.246637	1.285445
O214	O	0.951308	-0.363431	0.369446
O215	O	1.284642	-0.030098	0.702779
O216	O	1.617975	0.303236	1.036112
H217	H	0.905159	-0.391526	0.326598
H218	H	1.238492	-0.058193	0.659931
H219	H	1.571826	0.275140	0.993264
H220	H	0.926153	-0.216921	0.592984
H221	H	1.259486	0.116412	0.926317
H222	H	1.592820	0.449746	1.259650
H223	H	0.782015	-0.184513	0.642472
H224	H	1.115348	0.148820	0.975805
H225	H	1.448682	0.482153	1.309139
O226	O	0.611983	-0.338432	0.407667
O227	O	0.945316	-0.005099	0.741000
O228	O	1.278650	0.328234	1.074334
H229	H	0.566884	-0.373835	0.445351
H230	H	0.900217	-0.040502	0.778684
H231	H	1.233550	0.292832	1.112018
H232	H	1.176043	-0.511714	0.397789
H233	H	1.509377	-0.178381	0.731123
H234	H	1.842710	0.154952	1.064456
O235	O	1.162021	-1.040450	0.381831
O236	O	1.495355	-0.707116	0.715165
O237	O	1.828688	-0.373783	1.048498
H238	H	1.090546	-1.031201	0.393108
H239	H	1.423879	-0.697867	0.726442
H240	H	1.757213	-0.364534	1.059775
H241	H	1.176265	-0.912550	0.397891
H242	H	1.509598	-0.579216	0.731224
H243	H	1.842931	-0.245883	1.064557
H244	H	1.372597	-0.631734	0.618712
H245	H	1.705930	-0.298401	0.952045
H246	H	2.039264	0.034933	1.285379
O247	O	1.386875	-0.503829	0.634734
O248	O	1.720209	-0.170496	0.968067
O249	O	2.053542	0.162838	1.301401
H250	H	1.424550	-0.537876	0.677067
H251	H	1.757884	-0.204543	1.010401
H252	H	2.091217	0.128791	1.343734
H253	H	1.359032	-0.210008	0.857526
H254	H	1.692365	0.123325	1.190860
H255	H	2.025698	0.456659	1.524193
H256	H	1.140462	-0.371193	1.015757
H257	H	1.473796	-0.037860	1.349090
H258	H	1.807129	0.295473	1.682424
O259	O	1.135753	-0.374679	0.832100
O260	O	1.469086	-0.041345	1.165433
O261	O	1.802419	0.291988	1.498767
H262	H	1.149620	-0.364451	0.759477
H263	H	1.482953	-0.031117	1.092811
H264	H	1.816287	0.302216	1.426144
