data_functionalizedCrystal
_audit_creation_method	'MofGen! by Chris Wilmer'
_symmetry_space_group_name_H-M	'P1'
_symmetry_Int_Tables_number	1
_symmetry_cell_setting	triclinic
loop_
_symmetry_equiv_pos_as_xyz
  x,y,z
_cell_length_a	16.959455
_cell_length_b	12.645330
_cell_length_c	16.959447
_cell_angle_alpha	89.973930
_cell_angle_beta	89.985678
_cell_angle_gamma	90.014639
loop_
_atom_site_label
_atom_site_type_symbol
_atom_site_fract_x
_atom_site_fract_y
_atom_site_fract_z
Zn1	Zn	1.208397	-0.422105	-0.446932
Zn2	Zn	1.208325	-0.599396	-0.314763
Zn3	Zn	1.076225	-0.422138	-0.314770
Zn4	Zn	1.076195	-0.599317	-0.446902
O5	O	1.142286	-0.510739	-0.380842
O6	O	1.318998	-0.445642	-0.429410
O7	O	1.190784	-0.575930	-0.204153
O8	O	1.093801	-0.273786	-0.332316
O9	O	1.318945	-0.575898	-0.332306
O10	O	1.190907	-0.273762	-0.429416
O11	O	1.093731	-0.445699	-0.204158
O12	O	0.965610	-0.445622	-0.332287
O13	O	1.093750	-0.575763	-0.557517
O14	O	0.965589	-0.575795	-0.429364
O15	O	1.190878	-0.445565	-0.557539
O16	O	1.190755	-0.747733	-0.332277
O17	O	1.093680	-0.747675	-0.429358
C18	C	0.936919	-0.510704	-0.380824
C19	C	0.849063	-0.510715	-0.380835
C20	C	1.142228	-0.786169	-0.380831
C21	C	1.142276	-0.903999	-0.380852
C22	C	0.477574	-0.442903	-0.330399
C23	C	0.477600	-0.578663	-0.431329
C24	C	0.560146	-0.578648	-0.431325
C25	C	0.601410	-0.510760	-0.380855
C26	C	0.560128	-0.442888	-0.330391
C27	C	0.601434	-0.646526	-0.481782
C28	C	0.683985	-0.646515	-0.481779
C29	C	0.725251	-0.578621	-0.431313
C30	C	0.683963	-0.510745	-0.380847
C31	C	0.725227	-0.442857	-0.330378
C32	C	0.683941	-0.374975	-0.279916
C33	C	0.601393	-0.374994	-0.279925
C34	C	0.807799	-0.578602	-0.431304
C35	C	0.807781	-0.442842	-0.330370
C36	C	1.081458	-1.071570	-0.442115
C37	C	1.081147	-0.949011	-0.441918
C38	C	1.119734	-0.948594	-0.297551
C39	C	1.119363	-1.071192	-0.297922
C40	C	1.226007	-1.071094	-0.402216
C41	C	1.225494	-0.948487	-0.404038
C42	C	1.348454	-0.510775	-0.380860
C43	C	1.436310	-0.510790	-0.380868
C44	C	1.142319	-0.510651	-0.587010
C45	C	1.142333	-0.510614	-0.674867
C46	C	1.142365	-0.234234	-0.380870
C47	C	1.142399	-0.116404	-0.380882
C48	C	1.091857	-0.578290	-1.046333
C49	C	1.192997	-0.442715	-1.046352
C50	C	1.192976	-0.442737	-0.963806
C51	C	1.142395	-0.510538	-0.922520
C52	C	1.091836	-0.578317	-0.963780
C53	C	1.243540	-0.374967	-0.922539
C54	C	1.243522	-0.374988	-0.839988
C55	C	1.192937	-0.442784	-0.798701
C56	C	1.142375	-0.510565	-0.839966
C57	C	1.091794	-0.578366	-0.798680
C58	C	1.041227	-0.646142	-0.839944
C59	C	1.041251	-0.646113	-0.922492
C60	C	1.192913	-0.442813	-0.716153
C61	C	1.091773	-0.578393	-0.716127
C62	C	1.142298	-0.510750	-0.175475
C63	C	1.142437	-0.510489	-0.087619
H64	H	0.717549	-0.319706	-0.238821
H65	H	1.271410	-1.100086	-0.357618
N66	N	1.175591	-1.110511	-0.235426
H67	H	1.230475	-1.083736	-0.247130
H68	H	1.158119	-1.083748	-0.182114
H69	H	1.019862	-1.102467	-0.428161
N70	N	0.556865	-0.301817	-0.225478
H71	H	0.498310	-0.312144	-0.233131
H72	H	0.571288	-0.318254	-0.169013
H73	H	1.095249	-0.918856	-0.503685
H74	H	0.443956	-0.387632	-0.289316
N75	N	0.999047	-0.910268	-0.423190
H76	H	0.962918	-0.972831	-0.415027
H77	H	1.000461	-0.866103	-0.373607
N78	N	0.433099	-0.651891	-0.485754
H79	H	0.374540	-0.641604	-0.478099
H80	H	0.447545	-0.635483	-0.542227
N81	N	1.298095	-0.301847	-0.967065
H82	H	1.334714	-0.344928	-1.001311
H83	H	1.265938	-0.252716	-1.001275
N84	N	1.037303	-0.651368	-1.090832
H85	H	1.044983	-0.641059	-1.149391
H86	H	1.049568	-0.727092	-1.076398
H87	H	1.059254	-0.917979	-0.279151
H88	H	1.284696	-0.319800	-0.806398
N89	N	1.037205	-0.651505	-0.671599
H90	H	1.005174	-0.694428	-0.710267
H91	H	1.069347	-0.700589	-0.637338
H92	H	0.841372	-0.387553	-0.289276
H93	H	1.234086	-0.387634	-0.682559
H94	H	1.234182	-0.387520	-1.079971
H95	H	0.717593	-0.701788	-0.522869
N96	N	0.556932	-0.719754	-0.536206
H97	H	0.498373	-0.709459	-0.528555
H98	H	0.571381	-0.703354	-0.592679
H99	H	1.246571	-1.101937	-0.461927
N100	N	0.852330	-0.651809	-0.485722
H101	H	0.886563	-0.700871	-0.453529
H102	H	0.813614	-0.694751	-0.517680
N103	N	1.099952	-1.110533	-0.524204
H104	H	1.154579	-1.086538	-0.539812
H105	H	1.097474	-1.190322	-0.525167
N106	N	1.038410	-1.109203	-0.273981
H107	H	1.003301	-1.046319	-0.263286
H108	H	1.015058	-1.153041	-0.317927
H109	H	1.162714	-0.919440	-0.250681
N110	N	1.248020	-0.909877	-0.485242
H111	H	1.204508	-0.863757	-0.506927
H112	H	1.298430	-0.867587	-0.481843
N113	N	1.288810	-0.907892	-0.349272
H114	H	1.264338	-0.859878	-0.308471
H115	H	1.315156	-0.969565	-0.322107
H116	H	1.000048	-0.701350	-0.806318
H117	H	1.000085	-0.701296	-0.956097
