data_functionalizedCrystal
_audit_creation_method	'MofGen! by Chris Wilmer'
_symmetry_space_group_name_H-M	'P1'
_symmetry_Int_Tables_number	1
_symmetry_cell_setting	triclinic
loop_
_symmetry_equiv_pos_as_xyz
  x,y,z
_cell_length_a	23.532361
_cell_length_b	16.109301
_cell_length_c	14.586319
_cell_angle_alpha	89.998390
_cell_angle_beta	90.001545
_cell_angle_gamma	96.854425
loop_
_atom_site_label
_atom_site_type_symbol
_atom_site_fract_x
_atom_site_fract_y
_atom_site_fract_z
O1	O	0.755650	-0.100735	0.076151
O2	O	1.088983	0.232598	0.409485
O3	O	1.422317	0.565931	0.742818
O4	O	0.589837	-0.115379	0.076174
O5	O	0.923170	0.217954	0.409507
O6	O	1.256504	0.551288	0.742840
O7	O	0.677298	0.013011	0.076153
O8	O	1.010632	0.346344	0.409486
O9	O	1.343965	0.679677	0.742819
O10	O	0.668188	-0.229125	0.076173
O11	O	1.001522	0.104208	0.409506
O12	O	1.334855	0.437542	0.742839
O13	O	0.677288	0.013003	-0.076328
O14	O	1.010621	0.346336	0.257005
O15	O	1.343954	0.679670	0.590338
O16	O	0.589826	-0.115387	-0.076307
O17	O	0.923160	0.217947	0.257026
O18	O	1.256493	0.551280	0.590360
O19	O	0.755639	-0.100743	-0.076329
O20	O	1.088973	0.232590	0.257004
O21	O	1.422306	0.565924	0.590337
Cu22	Cu	0.672732	-0.108066	-0.090241
Cu23	Cu	1.006065	0.225268	0.243092
Cu24	Cu	1.339398	0.558601	0.576426
Cu25	Cu	0.672744	-0.108056	0.090085
Cu26	Cu	1.006078	0.225277	0.423419
Cu27	Cu	1.339411	0.558610	0.756752
O28	O	0.668178	-0.229133	-0.076308
O29	O	1.001511	0.104201	0.257025
O30	O	1.334844	0.437534	0.590358
C31	C	0.568614	-0.115016	-0.000064
C32	C	0.901947	0.218317	0.333269
C33	C	1.235280	0.551651	0.666603
C34	C	0.505391	-0.113913	-0.000056
C35	C	0.838724	0.219420	0.333278
C36	C	1.172058	0.552753	0.666611
N37	N	0.672727	-0.108071	-0.217073
N38	N	1.006060	0.225262	0.116261
N39	N	1.339394	0.558595	0.449594
C40	C	0.676924	0.043979	-0.000088
C41	C	1.010257	0.377312	0.333245
C42	C	1.343591	0.710645	0.666578
C43	C	0.675818	0.136265	-0.000089
C44	C	1.009151	0.469599	0.333244
C45	C	1.342484	0.802932	0.666577
C46	C	0.232135	-0.109087	0.083056
C47	C	0.565469	0.224247	0.416389
C48	C	0.898802	0.557580	0.749722
C49	C	0.291539	-0.110131	0.083058
C50	C	0.624872	0.223203	0.416391
C51	C	0.958206	0.556536	0.749725
O52	O	0.322272	-0.110638	0.153745
O53	O	0.655605	0.222695	0.487078
O54	O	0.988938	0.556029	0.820411
N55	N	0.321241	-0.110662	-0.000060
N56	N	0.654574	0.222671	0.333274
N57	N	0.987907	0.556005	0.666607
C58	C	0.291537	-0.110141	-0.083185
C59	C	0.624870	0.223192	0.250148
C60	C	0.958203	0.556526	0.583482
O61	O	0.322255	-0.110688	-0.153883
O62	O	0.655588	0.222645	0.179451
O63	O	0.988922	0.555979	0.512784
C64	C	0.232135	-0.109091	-0.083186
C65	C	0.565468	0.224242	0.250147
C66	C	0.898801	0.557575	0.583480
C67	C	0.202435	-0.108569	-0.000063
C68	C	0.535769	0.224765	0.333270
C69	C	0.869102	0.558098	0.666603
C70	C	0.202436	-0.108563	0.166172
C71	C	0.535769	0.224770	0.499505
C72	C	0.869103	0.558104	0.832839
C73	C	0.143036	-0.107521	0.166169
C74	C	0.476370	0.225812	0.499503
C75	C	0.809703	0.559146	0.832836
C76	C	0.113336	-0.107003	0.083050
C77	C	0.446669	0.226331	0.416384
C78	C	0.780003	0.559664	0.749717
C79	C	0.143036	-0.107527	-0.000066
C80	C	0.476369	0.225807	0.333267
C81	C	0.809702	0.559140	0.666601
C82	C	0.202432	-0.108565	-0.166311
C83	C	0.535765	0.224769	0.167023
C84	C	0.869099	0.558102	0.500356
C85	C	0.143026	-0.107514	-0.166305
C86	C	0.476359	0.225819	0.167028
C87	C	0.809693	0.559152	0.500362
C88	C	0.113327	-0.106991	-0.083182
C89	C	0.446660	0.226342	0.250151
C90	C	0.779993	0.559675	0.583485
C91	C	0.053936	-0.105966	-0.083188
C92	C	0.387269	0.227367	0.250146
C93	C	0.720602	0.560700	0.583479
N94	N	0.024234	-0.105435	-0.000070
N95	N	0.357567	0.227899	0.333263
N96	N	0.690901	0.561232	0.666597
C97	C	0.053934	-0.105953	0.083049
C98	C	0.387267	0.227380	0.416382
C99	C	0.720601	0.560714	0.749716
C100	C	0.416285	-0.112344	-0.083176
C101	C	0.749618	0.220989	0.250158
C102	C	1.082952	0.554323	0.583491
C103	C	0.475685	-0.113400	-0.083175
C104	C	0.809019	0.219934	0.250158
C105	C	1.142352	0.553267	0.583491
C106	C	0.475684	-0.113387	0.083068
C107	C	0.809017	0.219946	0.416401
C108	C	1.142350	0.553279	0.749735
C109	C	0.416282	-0.112338	0.083067
C110	C	0.749615	0.220996	0.416400
C111	C	1.082948	0.554329	0.749733
C112	C	0.386583	-0.111813	-0.000058
C113	C	0.719916	0.221521	0.333275
C114	C	1.053250	0.554854	0.666609
C115	C	-0.070810	-0.103765	0.083037
C116	C	0.262524	0.229568	0.416370
C117	C	0.595857	0.562901	0.749704
C118	C	-0.130215	-0.102727	0.083027
C119	C	0.203119	0.230607	0.416360
C120	C	0.536452	0.563940	0.749694
C121	C	-0.130208	-0.102735	-0.083216
C122	C	0.203126	0.230599	0.250118
C123	C	0.536459	0.563932	0.583451
C124	C	-0.070808	-0.103778	-0.083206
C125	C	0.262525	0.229556	0.250127
C126	C	0.595859	0.562889	0.583460
C127	C	-0.041110	-0.104290	-0.000072
C128	C	0.292223	0.229043	0.333261
C129	C	0.625557	0.562377	0.666594
O130	O	0.023166	-0.105455	-0.153838
O131	O	0.356499	0.227879	0.179495
O132	O	0.689832	0.561212	0.512829
O133	O	0.023209	-0.105395	0.153735
O134	O	0.356543	0.227938	0.487068
O135	O	0.689876	0.561272	0.820402
C136	C	0.776863	-0.101106	-0.000090
C137	C	1.110196	0.232227	0.333244
C138	C	1.443529	0.565561	0.666577
C139	C	0.840085	-0.102208	-0.000092
C140	C	1.173418	0.231125	0.333241
C141	C	1.506752	0.564458	0.666575
C142	C	0.668552	-0.260101	-0.000065
C143	C	1.001885	0.073233	0.333268
C144	C	1.335219	0.406566	0.666601
C145	C	0.669658	-0.352387	-0.000058
C146	C	1.002992	-0.019054	0.333275
C147	C	1.336325	0.314280	0.666608
C148	C	0.725143	0.358937	-0.000081
C149	C	1.058477	0.692271	0.333252
C150	C	1.391810	1.025604	0.666585
C151	C	0.724099	0.445649	-0.000074
C152	C	1.057433	0.778983	0.333260
C153	C	1.390766	1.112316	0.666593
C154	C	0.620329	0.424934	-0.000063
C155	C	0.953662	0.758267	0.333270
C156	C	1.286996	1.091600	0.666603
C157	C	0.621374	0.338224	-0.000065
C158	C	0.954707	0.671557	0.333269
C159	C	1.288040	1.004890	0.666602
C160	C	0.673782	0.305228	-0.000078
C161	C	1.007116	0.638561	0.333255
C162	C	1.340449	0.971895	0.666588
C163	C	0.671694	0.478650	-0.000069
C164	C	1.005027	0.811983	0.333264
C165	C	1.338360	1.145317	0.666597
C166	C	0.670561	0.572667	-0.000061
C167	C	1.003895	0.906000	0.333272
C168	C	1.337228	1.239334	0.666606
C169	C	0.674915	0.211205	-0.000085
C170	C	1.008248	0.544538	0.333249
C171	C	1.341582	0.877872	0.666582
C172	C	0.707267	-0.158220	-0.452080
C173	C	1.040600	0.175113	-0.118746
C174	C	1.373933	0.508447	0.214587
C175	C	0.707273	-0.158214	-0.548061
C176	C	1.040606	0.175119	-0.214728
C177	C	1.373939	0.508453	0.118606
C178	C	0.638212	-0.057890	-0.548069
C179	C	0.971546	0.275444	-0.214736
C180	C	1.304879	0.608777	0.118597
C181	C	0.638210	-0.057892	-0.452090
C182	C	0.971543	0.275442	-0.118757
C183	C	1.304877	0.608775	0.214577
C184	C	0.672736	-0.108062	-0.404097
C185	C	1.006069	0.225272	-0.070764
C186	C	1.339403	0.558605	0.262569
C187	C	0.672745	-0.108054	-0.596058
C188	C	1.006078	0.225280	-0.262725
C189	C	1.339411	0.558613	0.070608
C190	C	0.672751	-0.108047	-0.700125
C191	C	1.006084	0.225286	-0.366792
C192	C	1.339417	0.558620	-0.033459
C193	C	0.672731	-0.108067	-0.300024
C194	C	1.006064	0.225266	0.033310
C195	C	1.339398	0.558599	0.366643
N196	N	0.672754	-0.108044	0.216917
N197	N	1.006087	0.225289	0.550250
N198	N	1.339420	0.558623	0.883584
H199	H	-0.154394	-0.102303	0.150719
H200	H	0.178940	0.231030	0.484052
H201	H	0.512273	0.564363	0.817385
H202	H	0.226603	-0.108988	-0.233998
H203	H	0.559937	0.224346	0.099335
H204	H	0.893270	0.557679	0.432668
N205	N	0.565975	0.280286	-0.000055
N206	N	0.899308	0.613619	0.333279
N207	N	1.232641	0.946952	0.666612
H208	H	0.532616	0.314344	-0.000052
H209	H	0.865949	0.647678	0.333281
H210	H	1.199282	0.981011	0.666615
H211	H	0.564146	0.243857	-0.056580
H212	H	0.897479	0.577191	0.276754
H213	H	1.230812	0.910524	0.610087
H214	H	0.392107	-0.111927	-0.150870
H215	H	0.725440	0.221406	0.182463
H216	H	1.058774	0.554740	0.515797
H217	H	0.765922	0.489377	-0.000074
H218	H	1.099256	0.822710	0.333259
H219	H	1.432589	1.156044	0.666592
H220	H	0.577660	0.451810	-0.000054
H221	H	0.910993	0.785143	0.333279
H222	H	1.244326	1.118476	0.666613
N223	N	0.110996	-0.106944	-0.255964
N224	N	0.444330	0.226390	0.077369
N225	N	0.777663	0.559723	0.410702
H226	H	0.138879	-0.106867	-0.308612
H227	H	0.472213	0.226466	0.024721
H228	H	0.805546	0.559800	0.358055
H229	H	0.081985	-0.158344	-0.259860
H230	H	0.415318	0.174990	0.073474
H231	H	0.748651	0.508323	0.406807
N232	N	0.744531	-0.212304	-0.599797
N233	N	1.077864	0.121029	-0.266464
N234	N	1.411197	0.454363	0.066870
H235	H	0.733290	-0.272885	-0.583098
H236	H	1.066623	0.060448	-0.249765
H237	H	1.399956	0.393781	0.083569
H238	H	0.739291	-0.204624	-0.667869
H239	H	1.072624	0.128709	-0.334535
H240	H	1.405957	0.462042	-0.001202
H241	H	0.610090	-0.017042	-0.413022
H242	H	0.943424	0.316291	-0.079688
H243	H	1.276757	0.649624	0.253645
H244	H	0.735380	-0.199071	-0.413007
H245	H	1.068714	0.134262	-0.079674
H246	H	1.402047	0.467595	0.253660
H247	H	0.767818	0.332076	-0.000091
H248	H	1.101151	0.665409	0.333243
H249	H	1.434484	0.998742	0.666576
H250	H	0.610102	-0.017044	-0.587156
H251	H	0.943435	0.316289	-0.253823
H252	H	1.276769	0.649623	0.079510
H253	H	-0.046637	-0.104184	0.150733
H254	H	0.286697	0.229149	0.484066
H255	H	0.620030	0.562483	0.817399
H256	H	0.118861	-0.107091	0.233857
H257	H	0.452194	0.226242	0.567190
H258	H	0.785527	0.559575	0.900523
N259	N	-0.038775	-0.104351	-0.172860
N260	N	0.294558	0.228982	0.160473
N261	N	0.627892	0.562315	0.493807
H262	H	-0.009502	-0.053237	-0.176572
H263	H	0.323832	0.280096	0.156762
H264	H	0.657165	0.613430	0.490095
H265	H	-0.018791	-0.156362	-0.176505
H266	H	0.314542	0.176972	0.156829
H267	H	0.647875	0.510305	0.490162
H268	H	0.226612	-0.108982	0.233861
H269	H	0.559945	0.224351	0.567195
H270	H	0.893278	0.557684	0.900528
H271	H	-0.154400	-0.102316	-0.150889
H272	H	0.178933	0.231017	0.182444
H273	H	0.512266	0.564351	0.515778
N274	N	0.507731	-0.113933	0.172715
N275	N	0.841064	0.219400	0.506049
N276	N	1.174398	0.552734	0.839382
H277	H	0.502025	-0.062201	0.209045
H278	H	0.835359	0.271133	0.542379
H279	H	1.168692	0.604466	0.875712
H280	H	0.492755	-0.165326	0.208997
H281	H	0.826089	0.168008	0.542330
H282	H	1.159422	0.501341	0.875663
N283	N	0.384251	-0.111772	0.172719
N284	N	0.717584	0.221562	0.506052
N285	N	1.050918	0.554895	0.839386
H286	H	0.412085	-0.112261	0.225370
H287	H	0.745418	0.221072	0.558703
H288	H	1.078752	0.554406	0.892037
H289	H	0.364238	-0.059787	0.176339
H290	H	0.697572	0.273546	0.509672
H291	H	1.030905	0.606880	0.843005
H292	H	0.499860	-0.113839	-0.150862
H293	H	0.833194	0.219495	0.182471
H294	H	1.166527	0.552828	0.515804
