data_functionalizedCrystal
_audit_creation_method	'MofGen! by Chris Wilmer'
_symmetry_space_group_name_H-M	'P1'
_symmetry_Int_Tables_number	1
_symmetry_cell_setting	triclinic
loop_
_symmetry_equiv_pos_as_xyz
  x,y,z
_cell_length_a	12.759394
_cell_length_b	12.827893
_cell_length_c	12.827885
_cell_angle_alpha	89.980538
_cell_angle_beta	89.968776
_cell_angle_gamma	90.014808
loop_
_atom_site_label
_atom_site_type_symbol
_atom_site_fract_x
_atom_site_fract_y
_atom_site_fract_z
Zn1	Zn	-0.418216	1.597676	-0.590838
Zn2	Zn	0.081784	2.097676	-0.090838
Zn3	Zn	-0.593932	1.597571	-0.416094
Zn4	Zn	-0.093932	2.097571	0.083906
Zn5	Zn	-0.418268	1.422916	-0.416112
Zn6	Zn	0.081732	1.922916	0.083888
Zn7	Zn	-0.593854	1.422904	-0.590794
Zn8	Zn	-0.093854	1.922904	-0.090794
O9	O	-0.506068	1.510267	-0.503460
O10	O	-0.006068	2.010267	-0.003460
O11	O	-0.441537	1.743898	-0.567669
O12	O	0.058463	2.243898	-0.067669
O13	O	-0.570684	1.574364	-0.269860
O14	O	-0.070684	2.074364	0.230140
O15	O	-0.271240	1.446148	-0.439316
O16	O	0.228760	1.946148	0.060684
O17	O	-0.570634	1.743821	-0.439285
O18	O	-0.070634	2.243821	0.060715
O19	O	-0.271202	1.574542	-0.567686
O20	O	0.228798	2.074542	-0.067686
O21	O	-0.441624	1.446046	-0.269873
O22	O	0.058376	1.946046	0.230127
O23	O	-0.441548	1.276679	-0.439273
O24	O	0.058452	1.776679	0.060727
O25	O	-0.570501	1.446126	-0.737036
O26	O	-0.070501	1.946126	-0.237036
O27	O	-0.570551	1.276670	-0.567611
O28	O	-0.070551	1.776670	-0.067611
O29	O	-0.441461	1.574530	-0.737069
O30	O	0.058539	2.074530	-0.237069
O31	O	-0.740943	1.574352	-0.439243
O32	O	-0.240943	2.074352	0.060757
O33	O	-0.740885	1.446025	-0.567594
O34	O	-0.240885	1.946025	-0.067594
C35	C	-0.506047	1.238757	-0.503440
C36	C	-0.006047	1.738757	-0.003440
C37	C	-0.506064	1.122604	-0.503456
C38	C	-0.006064	1.622604	-0.003456
C39	C	-0.569998	1.070842	-0.566864
C40	C	-0.069998	1.570842	-0.066864
C41	C	-0.570017	0.950792	-0.566882
C42	C	-0.070017	1.450792	-0.066882
C43	C	-0.779035	1.510204	-0.503434
C44	C	-0.279035	2.010204	-0.003434
C45	C	-0.895812	1.510273	-0.503458
C46	C	-0.395812	2.010273	-0.003458
C47	C	-0.895818	1.644000	-0.369906
C48	C	-0.395818	2.144000	0.130094
C49	C	-0.950682	1.710891	-0.303143
C50	C	-0.450682	2.210891	0.196857
C51	C	-1.060404	1.710952	-0.303171
C52	C	-0.560404	2.210952	0.196829
C53	C	-1.115264	1.644117	-0.369973
C54	C	-0.615264	2.144117	0.130027
C55	C	-1.060400	1.577227	-0.436736
C56	C	-0.560400	2.077227	0.063264
C57	C	-0.950676	1.577170	-0.436698
C58	C	-0.450676	2.077170	0.063302
C59	C	-1.060393	1.443506	-0.570292
C60	C	-0.560393	1.943506	-0.070292
C61	C	-0.950672	1.443438	-0.570260
C62	C	-0.450672	1.943438	-0.070260
C63	C	-1.115253	1.376672	-0.637094
C64	C	-0.615253	1.876672	-0.137094
C65	C	-1.060389	1.309774	-0.703854
C66	C	-0.560389	1.809774	-0.203854
C67	C	-0.950661	1.309715	-0.703822
C68	C	-0.450661	1.809715	-0.203822
C69	C	-0.895808	1.376547	-0.637024
C70	C	-0.395808	1.876547	-0.137024
C71	C	-0.232034	1.510358	-0.503508
C72	C	0.267966	2.010358	-0.003508
C73	C	-0.115257	1.510397	-0.503528
C74	C	0.384743	2.010397	-0.003528
C75	C	-0.505967	1.510339	-0.776030
C76	C	-0.005967	2.010339	-0.276030
C77	C	-0.505924	1.510369	-0.892183
C78	C	-0.005924	2.010369	-0.392183
C79	C	-0.506089	1.782837	-0.503480
C80	C	-0.006089	2.282837	-0.003480
C81	C	-0.506098	1.898990	-0.503489
C82	C	-0.006098	2.398990	-0.003489
C83	C	-0.442048	1.446894	-0.943974
C84	C	0.057952	1.946894	-0.443974
C85	C	-0.442002	1.446924	-1.064025
C86	C	0.057998	1.946924	-0.564025
C87	C	-0.506092	1.510255	-0.231950
C88	C	-0.006092	2.010255	0.268050
C89	C	-0.505839	1.510427	-0.115797
C90	C	-0.005839	2.010427	0.384203
H91	H	-0.451362	0.943497	-0.449197
H92	H	0.048638	1.443497	0.050803
O93	O	-1.119563	1.237701	-0.775898
O94	O	-0.619563	1.737701	-0.275898
H95	H	-1.062983	1.191177	-0.822321
H96	H	-0.562983	1.691177	-0.322321
H97	H	-0.905997	1.255248	-0.758193
H98	H	-0.405997	1.755248	-0.258193
H99	H	-0.906006	1.765309	-0.248755
H100	H	-0.406006	2.265309	0.251245
O101	O	-1.119589	1.783092	-0.231161
O102	O	-0.619589	2.283092	0.268839
H103	H	-1.063014	1.829552	-0.184701
H104	H	-0.563014	2.329552	0.315299
O105	O	-0.433593	1.063579	-0.431549
O106	O	0.066407	1.563579	0.068451
H107	H	-0.380253	1.013865	-0.478455
H108	H	0.119747	1.513865	0.021545
H109	H	-0.560577	1.564734	-0.936720
H110	H	-0.060577	2.064734	-0.436720
H111	H	-1.204605	1.644182	-0.369999
H112	H	-0.704605	2.144182	0.130001
O113	O	-0.642466	1.129853	-0.638786
O114	O	-0.142466	1.629853	-0.138786
H115	H	-0.631070	1.214885	-0.627494
H116	H	-0.131070	1.714885	-0.127494
H117	H	-0.806467	1.376499	-0.636984
H118	H	-0.306467	1.876499	-0.136984
H119	H	-0.806477	1.643943	-0.369863
H120	H	-0.306477	2.143943	0.130137
O121	O	-1.233596	1.376723	-0.637123
O122	O	-0.733596	1.876723	-0.137123
H123	H	-1.262533	1.434453	-0.579466
H124	H	-0.762533	1.934453	-0.079466
H125	H	-0.624756	0.906278	-0.621165
H126	H	-0.124756	1.406278	-0.121165
H127	H	-0.387400	1.392524	-0.899438
H128	H	0.112600	1.892524	-0.399438
O129	O	-0.369544	1.374947	-1.123008
O130	O	0.130456	1.874947	-0.623008
H131	H	-0.380876	1.386268	-1.208044
H132	H	0.119124	1.886268	-0.708044
O133	O	-0.578285	1.582426	-1.056825
O134	O	-0.078285	2.082426	-0.556825
H135	H	-0.631716	1.535583	-1.007088
H136	H	-0.131716	2.035583	-0.507088
