data_functionalizedCrystal
_audit_creation_method	'MofGen! by Chris Wilmer'
_symmetry_space_group_name_H-M	'P1'
_symmetry_Int_Tables_number	1
_symmetry_cell_setting	triclinic
loop_
_symmetry_equiv_pos_as_xyz
  x,y,z
_cell_length_a	34.571875
_cell_length_b	34.571051
_cell_length_c	34.567439
_cell_angle_alpha	60.004367
_cell_angle_beta	60.008842
_cell_angle_gamma	59.994195
loop_
_atom_site_label
_atom_site_type_symbol
_atom_site_fract_x
_atom_site_fract_y
_atom_site_fract_z
O1	O	0.053721	-0.565181	0.472559
O2	O	0.553721	-0.065181	0.972559
O3	O	0.020283	-0.440038	0.380761
O4	O	0.520283	0.059962	0.880761
O5	O	0.099534	-0.519209	0.380676
O6	O	0.599534	-0.019209	0.880676
O7	O	-0.025530	-0.486010	0.472643
O8	O	0.474470	0.013990	0.972643
O9	O	0.125831	-0.492917	0.406885
O10	O	0.625831	0.007083	0.906885
O11	O	0.046580	-0.413746	0.406969
O12	O	0.546580	0.086254	0.906969
O13	O	0.080018	-0.538889	0.498767
O14	O	0.580018	-0.038889	0.998767
Zn15	Zn	0.067475	-0.472143	0.457030
Zn16	Zn	0.567475	0.027857	0.957030
Zn17	Zn	0.032827	-0.506784	0.422498
Zn18	Zn	0.532827	-0.006784	0.922498
O19	O	0.000767	-0.459718	0.498852
O20	O	0.500767	0.040282	0.998852
N21	N	0.091122	-0.448505	0.480598
N22	N	0.591122	0.051495	0.980598
N23	N	0.009184	-0.530426	0.398930
N24	N	0.509184	-0.030426	0.898930
C25	C	0.124402	-0.415465	0.717633
C26	C	0.624402	0.084535	1.217633
C27	C	0.328327	-0.415388	0.513477
C28	C	0.828327	0.084612	1.013477
C29	C	0.124221	-0.415437	0.513630
C30	C	0.624221	0.084563	1.013630
C31	C	0.124201	-0.211364	0.513624
C32	C	0.624201	0.288636	1.013624
C33	C	0.157075	-0.309853	0.546423
C34	C	0.657075	0.190147	1.046423
C35	C	0.157084	-0.382601	0.546423
C36	C	0.657084	0.117399	1.046423
C37	C	0.175289	-0.364414	0.564591
C38	C	0.675289	0.135586	1.064591
C39	C	0.254624	-0.350722	0.522790
C40	C	0.754624	0.149278	1.022790
C41	C	0.304220	-0.367243	0.506229
C42	C	0.804220	0.132757	1.006229
C43	C	0.304249	-0.447494	0.536832
C44	C	0.804249	0.052506	1.036832
C45	C	0.254655	-0.430972	0.553394
C46	C	0.754655	0.069028	1.053394
C47	C	0.169014	-0.285043	0.497667
C48	C	0.669014	0.214957	0.997667
C49	C	0.152454	-0.235444	0.481153
C50	C	0.652454	0.264556	0.981153
C51	C	0.112020	-0.235469	0.562154
C52	C	0.612020	0.264531	1.062154
C53	C	0.128580	-0.285068	0.578668
C54	C	0.628580	0.214932	1.078668
C55	C	0.108321	-0.370634	0.558439
C56	C	0.608321	0.129366	1.058439
C57	C	0.091776	-0.387168	0.541918
C58	C	0.591776	0.112832	1.041918
C59	C	0.172754	-0.427637	0.501375
C60	C	0.672754	0.072363	1.001375
C61	C	0.189301	-0.411103	0.517891
C62	C	0.689301	0.088897	1.017891
C63	C	0.108399	-0.370649	0.643978
C64	C	0.608399	0.129351	1.143978
C65	C	0.091911	-0.387197	0.693575
C66	C	0.591911	0.112803	1.193575
C67	C	0.172928	-0.427676	0.693511
C68	C	0.672928	0.072324	1.193511
C69	C	0.189415	-0.411128	0.643912
C70	C	0.689415	0.088872	1.143912
C71	C	0.157149	-0.382613	0.619147
C72	C	0.657149	0.117387	1.119147
C73	C	0.229844	-0.382585	0.546371
C74	C	0.729844	0.117415	1.046371
C75	C	0.105624	-0.433333	0.772186
C76	C	0.605624	0.066667	1.272186
C77	C	0.382878	-0.432925	0.495007
C78	C	0.882878	0.067075	0.995007
C79	C	0.105380	-0.433313	0.495792
C80	C	0.605380	0.066687	0.995792
C81	C	0.105683	-0.156808	0.496094
C82	C	0.605683	0.343192	0.996094
C83	C	-0.023527	-0.563458	0.161535
C84	C	0.476473	-0.063458	0.661535
C85	C	-0.023851	-0.767445	0.365663
C86	C	0.476149	-0.267445	0.865663
C87	C	-0.023821	-0.563448	0.365756
C88	C	0.476179	-0.063448	0.865756
C89	C	-0.227785	-0.563229	0.365355
C90	C	0.272215	-0.063229	0.865355
C91	C	-0.129302	-0.596153	0.332678
C92	C	0.370698	-0.096153	0.832678
C93	C	-0.056593	-0.596234	0.332823
C94	C	0.443407	-0.096234	0.832823
C95	C	-0.074746	-0.614396	0.314578
C96	C	0.425254	-0.114396	0.814578
C97	C	-0.088477	-0.693710	0.356299
C98	C	0.411523	-0.193710	0.856299
C99	C	-0.071982	-0.743310	0.372851
C100	C	0.428018	-0.243310	0.872851
C101	C	0.008266	-0.743392	0.342376
C102	C	0.508266	-0.243392	0.842376
C103	C	-0.008230	-0.693794	0.325823
C104	C	0.491770	-0.193794	0.825823
C105	C	-0.154162	-0.608103	0.381422
C106	C	0.345838	-0.108103	0.881422
C107	C	-0.203757	-0.591517	0.397874
C108	C	0.296243	-0.091517	0.897874
C109	C	-0.203630	-0.551037	0.316836
C110	C	0.296370	-0.051037	0.816836
C111	C	-0.154034	-0.567623	0.300384
C112	C	0.345966	-0.067623	0.800384
C113	C	-0.068543	-0.547475	0.320829
C114	C	0.431457	-0.047475	0.820829
C115	C	-0.052041	-0.530969	0.337421
C116	C	0.447959	-0.030969	0.837421
C117	C	-0.011639	-0.611977	0.377990
C118	C	0.488361	-0.111977	0.877990
C119	C	-0.028141	-0.628485	0.361404
C120	C	0.471859	-0.128485	0.861404
C121	C	-0.068417	-0.547482	0.235199
C122	C	0.431583	-0.047482	0.735199
C123	C	-0.051814	-0.530977	0.185602
C124	C	0.448186	-0.030977	0.685602
C125	C	-0.011349	-0.611990	0.185649
C126	C	0.488651	-0.111990	0.685649
C127	C	-0.027951	-0.628493	0.235248
C128	C	0.472049	-0.128493	0.735248
C129	C	-0.056486	-0.596238	0.260022
C130	C	0.443514	-0.096238	0.760022
C131	C	-0.056602	-0.668955	0.332787
C132	C	0.443398	-0.168955	0.832787
C133	C	-0.005599	-0.544662	0.106983
C134	C	0.494401	-0.044662	0.606983
C135	C	-0.006342	-0.821999	0.384121
C136	C	0.493658	-0.321999	0.884121
C137	C	-0.005979	-0.544649	0.383673
C138	C	0.494021	-0.044649	0.883673
C139	C	-0.282336	-0.544682	0.382817
C140	C	0.217664	-0.044682	0.882817
N141	N	0.427518	-0.448428	0.480350
N142	N	0.927518	0.051572	0.980350
O143	O	0.589573	-0.456297	0.363634
O144	O	1.089573	0.043703	0.863634
O145	O	0.589761	-0.548399	0.488643
O146	O	1.089761	-0.048399	0.988643
O147	O	0.589681	-0.548188	0.409364
O148	O	1.089681	-0.048188	0.909364
O149	O	0.589654	-0.456508	0.442913
O150	O	1.089654	0.043492	0.942913
O151	O	0.510890	-0.521988	0.435708
O152	O	1.010890	-0.021988	0.935708
O153	O	0.510970	-0.522199	0.514987
O154	O	1.010970	-0.022199	1.014987
O155	O	0.510782	-0.430098	0.389978
O156	O	1.010782	0.069902	0.889978
Zn157	Zn	0.498366	-0.471989	0.456665
Zn158	Zn	0.998366	0.028011	0.956665
Zn159	Zn	0.602177	-0.506508	0.421956
Zn160	Zn	1.102177	-0.006508	0.921956
O161	O	0.510862	-0.430308	0.469257
O162	O	1.010862	0.069692	0.969257
N163	N	0.673025	-0.530068	0.398267
N164	N	1.173025	-0.030068	0.898267
N165	N	0.091092	-0.112167	0.480590
N166	N	0.591092	0.387833	0.980590
O167	O	-0.025539	0.049976	0.472612
O168	O	0.474461	0.549976	0.972612
O169	O	0.099472	0.050011	0.380491
O170	O	0.599472	0.550011	0.880491
O171	O	0.020155	0.049979	0.380751
O172	O	0.520155	0.549979	0.880751
O173	O	0.053778	0.050009	0.472352
O174	O	0.553778	0.550009	0.972352
O175	O	0.046458	-0.028818	0.407008
O176	O	0.546458	0.471182	0.907008
O177	O	0.125775	-0.028785	0.406748
O178	O	0.625775	0.471215	0.906748
O179	O	0.000764	-0.028821	0.498869
O180	O	0.500764	0.471179	0.998869
Zn181	Zn	0.067445	-0.041314	0.456977
Zn182	Zn	0.567445	0.458686	0.956977
Zn183	Zn	0.032791	0.062504	0.422382
Zn184	Zn	0.532791	0.562504	0.922382
O185	O	0.080081	-0.028788	0.498609
O186	O	0.580081	0.471212	0.998609
N187	N	0.009138	0.133358	0.398771
N188	N	0.509138	0.633358	0.898771
N189	N	0.091421	-0.448552	0.816827
N190	N	0.591421	0.051448	1.316827
O191	O	0.083469	-0.565164	0.978960
O192	O	0.583469	-0.065164	1.478960
O193	O	-0.008614	-0.440110	0.979002
O194	O	0.491386	0.059890	1.479002
O195	O	-0.008399	-0.519410	0.978978
O196	O	0.491601	-0.019410	1.478978
O197	O	0.083253	-0.485863	0.978984
O198	O	0.583253	0.014137	1.478984
O199	O	0.017837	-0.493128	0.900185
O200	O	0.517837	0.006872	1.400185
O201	O	0.017621	-0.413827	0.900208
O202	O	0.517621	0.086173	1.400208
O203	O	0.109704	-0.538881	0.900167
O204	O	0.609704	-0.038881	1.400167
Zn205	Zn	0.067828	-0.472181	0.887677
Zn206	Zn	0.567828	0.027819	1.387677
Zn207	Zn	0.033262	-0.506810	0.991491
Zn208	Zn	0.533262	-0.006810	1.491491
O209	O	0.109489	-0.459581	0.900191
O210	O	0.609489	0.040419	1.400191
N211	N	0.009668	-0.530444	1.062341
N212	N	0.509668	-0.030444	1.562341
C213	C	0.030297	-0.411123	0.381218
C214	C	0.530297	0.088877	0.881218
C215	C	0.128439	-0.509167	0.381113
C216	C	0.628439	-0.009167	0.881113
C217	C	0.070004	-0.567805	0.498310
C218	C	0.570004	-0.067805	0.998310
C219	C	-0.028138	-0.469761	0.498415
C220	C	0.471862	0.030239	0.998415
C221	C	0.550388	-0.547982	0.517564
C222	C	1.050388	-0.047982	1.017564
C223	C	0.550290	-0.547721	0.419387
C224	C	1.050290	-0.047721	0.919387
C225	C	0.550153	-0.430514	0.361058
C226	C	1.050153	0.069486	0.861058
C227	C	0.550253	-0.430775	0.459234
C228	C	1.050253	0.069225	0.959234
C229	C	0.128339	0.010714	0.380902
C230	C	0.628339	0.510714	0.880902
C231	C	0.030148	0.010577	0.381256
C232	C	0.530148	0.510577	0.881256
C233	C	-0.028136	0.010574	0.498426
C234	C	0.471864	0.510574	0.998426
C235	C	0.070089	0.010613	0.498104
C236	C	0.570089	0.510613	0.998104
C237	C	-0.008178	-0.411214	0.939610
C238	C	0.491822	0.088786	1.439610
C239	C	-0.007906	-0.509413	0.939566
C240	C	0.492094	-0.009413	1.439566
C241	C	0.109268	-0.567777	0.939558
C242	C	0.609268	-0.067777	1.439558
C243	C	0.109002	-0.469572	0.939586
C244	C	0.609002	0.030428	1.439586
H245	H	0.052212	-0.377448	0.713786
H246	H	0.552212	0.122552	1.213786
C247	C	0.550238	-0.391866	0.468931
C248	C	1.050238	0.108134	0.968931
N249	N	0.550225	-0.362559	0.476236
N250	N	1.050225	0.137441	0.976236
C251	C	0.550458	-0.587045	0.566067
C252	C	1.050458	-0.087045	1.066067
N253	N	0.550512	-0.616467	0.602600
N254	N	1.050512	-0.116467	1.102600
H255	H	0.550303	-0.576522	0.412207
H256	H	1.050303	-0.076522	0.912207
C257	C	0.080657	-0.208204	0.597624
C258	C	0.580657	0.291796	1.097624
N259	N	0.057025	-0.187669	0.624341
N260	N	0.557025	0.312331	1.124341
C261	C	0.020645	-0.362558	0.342265
C262	C	0.520645	0.137442	0.842265
N263	N	0.013374	-0.325979	0.312926
N264	N	0.513374	0.174021	0.812926
H265	H	0.234479	-0.456922	0.572596
H266	H	0.734479	0.043078	1.072596
C267	C	-0.046788	-0.519092	0.939517
C268	C	0.453212	-0.019092	1.439517
N269	N	-0.076074	-0.526383	0.939480
N270	N	0.423926	-0.026383	1.439480
H271	H	-0.064060	-0.462687	0.527292
H272	H	0.435940	0.037313	1.027292
H273	H	-0.064037	0.010563	0.527345
H274	H	0.435963	0.510563	1.027345
C275	C	0.550006	-0.391426	0.312580
C276	C	1.050006	0.108574	0.812580
N277	N	0.549871	-0.361976	0.276074
N278	N	1.049871	0.138024	0.776074
C279	C	0.176739	0.011027	0.341732
C280	C	0.676739	0.511027	0.841732
N281	N	0.213193	0.011264	0.312230
N282	N	0.713193	0.511264	0.812230
C283	C	0.147902	-0.459874	0.939580
C284	C	0.647902	0.040126	1.439580
N285	N	0.177202	-0.452569	0.939575
N286	N	0.677202	0.047431	1.439575
H287	H	0.022945	0.010574	0.352477
H288	H	0.522945	0.510574	0.852477
C289	C	0.072901	-0.339278	0.616738
C290	C	0.572901	0.160722	1.116738
N291	N	0.046166	-0.315649	0.596221
N292	N	0.546166	0.184351	1.096221
C293	C	0.079816	0.010621	0.536984
C294	C	0.579816	0.510621	1.036984
N295	N	0.087143	0.010626	0.566268
N296	N	0.587143	0.510626	1.066268
C297	C	-0.047234	-0.362693	0.939625
C298	C	0.452766	0.137307	1.439625
N299	N	-0.076651	-0.326148	0.939637
N300	N	0.423349	0.173852	1.439637
C301	C	0.148296	-0.616325	0.939627
C302	C	0.648296	-0.116325	1.439627
N303	N	0.177681	-0.652902	0.939710
N304	N	0.677681	-0.152902	1.439710
H305	H	0.229113	-0.420876	0.623698
H306	H	0.729113	0.079124	1.123698
C307	C	0.208424	-0.459033	0.720747
C308	C	0.708424	0.040967	1.220747
N309	N	0.235162	-0.482652	0.741261
N310	N	0.735162	0.017348	1.241261
C311	C	0.208198	-0.458991	0.469993
C312	C	0.708198	0.041009	0.969993
N313	N	0.234895	-0.482606	0.446354
N314	N	0.734895	0.017394	0.946354
C315	C	0.242943	-0.424277	0.504685
C316	C	0.742943	0.075723	1.004685
N317	N	0.283346	-0.434205	0.494743
N318	N	0.783346	0.065795	0.994743
C319	C	0.331543	-0.500722	0.544552
C320	C	0.831543	-0.000722	1.044552
N321	N	0.352101	-0.540813	0.550368
N322	N	0.852101	-0.040813	1.050368
C323	C	0.331478	-0.332189	0.480287
C324	C	0.831478	0.167811	0.980287
N325	N	0.352010	-0.305786	0.460745
N326	N	0.852010	0.194214	0.960745
C327	C	0.038134	-0.374003	0.555134
C328	C	0.538134	0.125997	1.055134
N329	N	-0.002269	-0.364088	0.565089
N330	N	0.497731	0.135912	1.065089
H331	H	0.234427	-0.311322	0.517070
H332	H	0.734427	0.188678	1.017070
C333	C	0.200356	-0.312305	0.462197
C334	C	0.700356	0.187695	0.962197
N335	N	0.223963	-0.332839	0.435478
N336	N	0.723963	0.167161	0.935478
H337	H	0.082085	-0.347427	0.581670
H338	H	0.582085	0.152573	1.081670
H339	H	0.077150	-0.603753	0.527142
H340	H	0.577150	-0.103753	1.027142
C341	C	0.115447	-0.312362	0.632305
C342	C	0.615447	0.187638	1.132305
N343	N	0.105554	-0.332918	0.672704
N344	N	0.605554	0.167082	1.172704
C345	C	-0.064950	-0.477339	0.158305
C346	C	0.435050	0.022661	0.658305
N347	N	-0.074844	-0.436940	0.137743
N348	N	0.425156	0.063060	0.637743
C349	C	0.165587	-0.208150	0.427516
C350	C	0.665587	0.291850	0.927516
N351	N	0.175481	-0.187594	0.387117
N352	N	0.675481	0.312406	0.887117
H353	H	0.011877	-0.638258	0.165483
H354	H	0.511877	-0.138258	0.665483
C355	C	-0.014824	-0.682131	0.262549
C356	C	0.485176	-0.182131	0.762549
N357	N	-0.004936	-0.722531	0.283111
N358	N	0.495064	-0.222531	0.783111
C359	C	-0.099808	-0.511995	0.262449
C360	C	0.400192	-0.011995	0.762449
N361	N	-0.123450	-0.485268	0.282972
N362	N	0.376550	0.014732	0.782972
H363	H	-0.091707	-0.521211	0.297556
H364	H	0.408293	-0.021211	0.797556
C365	C	-0.065183	-0.477332	0.324227
C366	C	0.434817	0.022668	0.824227
N367	N	-0.075081	-0.436932	0.314288
N368	N	0.424919	0.063068	0.814288
C369	C	-0.014994	-0.682122	0.374593
C370	C	0.485006	-0.182122	0.874593
N371	N	-0.005089	-0.722522	0.384526
N372	N	0.494911	-0.222522	0.884526
C373	C	0.026838	-0.666563	0.299961
C374	C	0.526838	-0.166563	0.799961
N375	N	0.053251	-0.646053	0.280483
N376	N	0.553251	-0.146053	0.780483
C377	C	0.061479	-0.770717	0.334718
C378	C	0.561479	-0.270717	0.834718
N379	N	0.101558	-0.791297	0.328948
N380	N	0.601558	-0.291297	0.828948
C381	C	0.019677	-0.647458	0.409409
C382	C	0.519677	-0.147458	0.909409
N383	N	0.043270	-0.674185	0.433070
N384	N	0.543270	-0.174185	0.933070
H385	H	-0.097938	-0.763465	0.391989
H386	H	0.402062	-0.263465	0.891989
H387	H	-0.127865	-0.673490	0.361973
H388	H	0.372135	-0.173490	0.861973
H389	H	-0.134026	-0.631339	0.407719
H390	H	0.365974	-0.131339	0.907719
H391	H	-0.223999	-0.601245	0.437568
H392	H	0.276001	-0.101245	0.937568
C393	C	-0.230837	-0.519657	0.281311
C394	C	0.269163	-0.019657	0.781311
N395	N	-0.251329	-0.496020	0.254553
N396	N	0.248671	0.003980	0.754553
C397	C	-0.126687	-0.554478	0.246760
C398	C	0.373313	-0.054478	0.746760
N399	N	-0.106090	-0.544578	0.206371
N400	N	0.393910	-0.044578	0.706371
H401	H	0.164358	-0.516243	0.352233
H402	H	0.664358	-0.016243	0.852233
