data_functionalizedCrystal
_audit_creation_method	'MofGen! by Chris Wilmer'
_symmetry_space_group_name_H-M	'P1'
_symmetry_Int_Tables_number	1
_symmetry_cell_setting	triclinic
loop_
_symmetry_equiv_pos_as_xyz
  x,y,z
_cell_length_a	19.902436
_cell_length_b	21.606444
_cell_length_c	21.606444
_cell_angle_alpha	60.001331
_cell_angle_beta	89.998329
_cell_angle_gamma	60.000906
loop_
_atom_site_label
_atom_site_type_symbol
_atom_site_fract_x
_atom_site_fract_y
_atom_site_fract_z
Zr1	Zr	0.647232	0.677521	-0.081271
O2	O	0.539946	0.806632	-0.180082
O3	O	0.680122	0.548405	-0.050983
O4	O	0.680113	0.677529	-0.180101
O5	O	0.539960	0.677504	0.050891
O6	O	0.790679	0.677541	-0.180113
O7	O	0.539954	0.677508	-0.050963
O8	O	0.790695	0.446562	0.050856
O9	O	0.539944	0.908483	-0.180078
O10	O	0.776662	0.601523	-0.038071
O11	O	0.694152	0.601511	0.037951
O12	O	0.694142	0.753538	-0.114069
O13	O	0.611632	0.753526	-0.038048
Zr14	Zr	0.823581	0.677533	0.081156
Zr15	Zr	0.823572	0.677540	-0.081290
Zr16	Zr	0.647241	0.677514	0.081175
Zr17	Zr	0.647230	0.839962	-0.081265
Zr18	Zr	0.823582	0.515093	0.081150
O19	O	0.790691	0.806650	0.050868
O20	O	0.790678	0.806659	-0.180109
O21	O	0.539958	0.806622	0.050895
O22	O	0.930867	0.548423	0.179967
O23	O	0.930854	0.548432	-0.051010
O24	O	0.680135	0.548395	0.179994
O25	O	0.930853	0.677551	-0.051006
O26	O	0.790699	0.677526	0.179986
O27	O	0.680133	0.677514	0.179998
O28	O	0.930858	0.677546	0.050848
O29	O	0.680111	0.908498	-0.180094
O30	O	0.790702	0.446556	0.179979
O31	O	0.930868	0.446572	0.179963
O32	O	0.930861	0.446577	0.050841
O33	O	0.539951	0.908478	-0.050956
O34	O	0.680118	0.908493	-0.050971
O35	O	0.776670	0.601517	0.113954
O36	O	0.859180	0.601529	0.037933
O37	O	0.776660	0.753544	-0.038066
O38	O	0.694151	0.753531	0.037956
C39	C	0.735409	0.474339	-0.000064
C40	C	0.735409	0.405379	-0.000066
C41	C	0.778477	0.372988	-0.039750
C42	C	0.778480	0.308188	-0.039745
C43	C	0.735410	0.275785	-0.000060
C44	C	0.692341	0.308179	0.039628
C45	C	0.692344	0.372973	0.039627
C46	C	0.692332	0.046869	0.039635
C47	C	0.692330	-0.017928	0.039631
C48	C	0.778468	-0.017916	-0.039737
C49	C	0.778470	0.046879	-0.039738
C50	C	0.735405	0.079264	-0.000047
C51	C	0.735404	0.149526	-0.000052
C52	C	0.735406	0.205528	-0.000059
C53	C	0.514832	0.677503	-0.000034
C54	C	0.439971	0.677495	-0.000026
C55	C	0.167923	0.677538	-0.000068
C56	C	0.248469	0.581645	0.047645
C57	C	0.326372	0.581585	0.047914
C58	C	0.302890	0.677516	-0.000047
C59	C	0.248772	0.725137	0.034925
C60	C	0.171210	0.724524	0.035274
C61	C	0.170063	0.726498	-0.082773
C62	C	0.248941	0.724696	-0.082643
C63	C	0.379164	0.677509	-0.000036
C64	C	0.091647	0.677548	-0.000077
C65	C	0.955980	0.677551	-0.000081
C66	C	1.030841	0.677559	-0.000089
C67	C	0.735395	0.677536	-0.203252
C68	C	0.735391	0.677539	-0.272215
C69	C	0.735404	0.880715	-0.000051
C70	C	0.735403	0.949676	-0.000049
C71	C	0.692316	0.756888	-0.344284
C72	C	0.692323	0.756886	-0.409079
C73	C	0.735401	0.677533	-0.401803
C74	C	0.778481	0.598178	-0.329726
C75	C	0.778479	0.598181	-0.264933
C76	C	0.778495	0.598163	-0.591029
C77	C	0.778492	0.598165	-0.655830
C78	C	0.692339	0.756868	-0.735175
C79	C	0.692336	0.756871	-0.670382
C80	C	0.735420	0.677516	-0.598311
C81	C	0.735413	0.677519	-0.528053
C82	C	0.735404	0.677529	-0.472058
C83	C	0.735418	0.677519	0.203137
C84	C	0.735421	0.677516	0.272099
C85	C	0.955983	0.474363	-0.000088
C86	C	1.030844	0.405411	-0.000098
C87	C	0.735420	0.474331	0.203131
C88	C	0.735424	0.405368	0.272091
C89	C	0.955994	0.474355	0.203107
C90	C	1.030859	0.405400	0.272059
C91	C	0.514819	0.880700	-0.203222
C92	C	0.439953	0.949655	-0.272174
C93	C	0.514830	0.880691	-0.000027
C94	C	0.439968	0.949643	-0.000017
C95	C	0.735393	0.880724	-0.203246
C96	C	0.735388	0.949687	-0.272206
C97	C	1.022926	0.373028	-0.039783
C98	C	1.093260	0.308249	-0.039808
C99	C	1.171511	0.275850	-0.000143
C100	C	1.179427	0.308240	0.039543
C101	C	1.109094	0.373022	0.039563
C102	C	0.778500	0.372985	0.344155
C103	C	0.778501	0.308196	0.408957
C104	C	0.735431	0.275786	0.401692
C105	C	0.692350	0.308175	0.329620
C106	C	0.692345	0.372968	0.264820
C107	C	1.109093	0.373024	0.264757
C108	C	1.179444	0.308242	0.329538
C109	C	1.171559	0.275833	0.401621
C110	C	1.093316	0.308215	0.408921
C111	C	1.022967	0.373000	0.344141
C112	C	0.361719	0.982039	-0.264872
C113	C	0.291368	1.046840	-0.329653
C114	C	0.299254	1.079253	-0.401736
C115	C	0.377496	1.046867	-0.409037
C116	C	0.447845	0.982071	-0.344256
C117	C	0.447886	0.982034	0.039661
C118	C	0.377553	1.046831	0.039668
C119	C	0.299302	1.079231	0.000001
C120	C	0.291386	1.046838	-0.039682
C121	C	0.361718	0.982047	-0.039693
C122	C	0.778467	0.982076	-0.264917
C123	C	0.778479	1.046866	-0.329706
C124	C	0.735406	1.079270	-0.401783
C125	C	0.692326	1.046874	-0.409071
C126	C	0.692320	0.982081	-0.344282
H127	H	0.813538	0.073262	-0.072056
F128	F	0.385995	1.081291	0.081909
F129	F	0.224454	1.148188	0.000021
F130	F	0.824305	-0.052390	-0.081978
H131	H	0.813561	0.533567	-0.323806
H132	H	0.365470	0.543877	0.108929
F133	F	0.208105	1.081294	-0.321868
H134	H	0.511545	0.955705	-0.350210
H135	H	0.735418	1.132028	-0.454532
F136	F	0.297729	0.681906	0.113719
H137	H	0.657283	0.281778	0.323717
H138	H	0.813545	0.399370	-0.072070
H139	H	0.383907	1.073265	-0.467734
H140	H	0.813549	0.281815	-0.072057
H141	H	0.355283	0.955652	-0.206184
H142	H	0.813541	0.955703	-0.206234
H143	H	0.511596	0.955658	0.071968
H144	H	1.115530	0.399402	0.206069
H145	H	0.227664	1.073229	-0.071978
F146	F	0.353279	0.947577	-0.081921
F147	F	0.224374	1.148215	-0.470676
F148	F	0.824328	1.081335	-0.321935
H149	H	0.657237	0.955718	-0.350227
H150	H	1.228848	0.223081	0.454364
F151	F	0.646488	-0.052413	0.081872
H152	H	0.657258	1.073268	-0.467764
H153	H	0.657269	0.073226	0.071957
H154	H	0.657271	0.399347	0.071940
F155	F	0.646514	0.273681	0.081874
H156	H	1.086798	0.281885	-0.072125
H157	H	1.228774	0.223100	-0.000165
H158	H	1.243148	0.281852	0.071836
H159	H	0.813586	0.281832	0.467634
H160	H	0.229004	0.795672	0.001847
H161	H	0.657270	0.399325	0.206145
F162	F	0.646488	0.841325	-0.811884
F163	F	0.377866	0.532747	0.017257
F164	F	0.735445	0.206827	0.470666
H165	H	0.250163	0.544005	0.024311
H166	H	0.171408	0.690679	0.096134
F167	F	0.249455	0.532689	0.126910
F168	F	1.262708	0.273788	0.321753
F169	F	0.096655	0.816482	-0.007217
H170	H	0.167073	0.695811	-0.111986
F171	F	0.297722	0.679309	-0.116791
H172	H	0.230415	0.794684	-0.121184
F173	F	1.084937	0.273714	0.485643
H174	H	0.113290	0.797140	-0.118490
H175	H	0.657232	0.821507	-0.350217
H176	H	0.657249	0.821500	-0.467759
H177	H	0.813574	0.533543	-0.649897
H178	H	0.959268	0.399352	0.350097
H179	H	0.657255	0.821488	-0.676313
H180	H	0.813576	0.533547	-0.532354
H181	H	0.959217	0.399406	-0.072092
F182	F	0.824332	0.513727	-0.188229
H183	H	1.115553	0.399381	0.071883
H184	H	0.813573	0.399365	0.350084
