data_functionalizedCrystal
_audit_creation_method	'MofGen! by Chris Wilmer'
_symmetry_space_group_name_H-M	'P1'
_symmetry_Int_Tables_number	1
_symmetry_cell_setting	triclinic
loop_
_symmetry_equiv_pos_as_xyz
  x,y,z
_cell_length_a	15.944545
_cell_length_b	15.944493
_cell_length_c	13.596369
_cell_angle_alpha	89.999885
_cell_angle_beta	89.997458
_cell_angle_gamma	83.485608
loop_
_atom_site_label
_atom_site_type_symbol
_atom_site_fract_x
_atom_site_fract_y
_atom_site_fract_z
O1	O	1.114506	0.108311	-0.081715
O2	O	0.869953	0.121673	-0.081729
O3	O	0.998933	-0.007286	-0.081730
O4	O	0.985526	0.237271	-0.081714
O5	O	0.998920	-0.007293	0.081853
O6	O	0.869940	0.121667	0.081854
O7	O	1.114493	0.108304	0.081868
Zn8	Zn	0.992214	0.114984	0.107833
Zn9	Zn	0.992231	0.114993	-0.107694
O10	O	0.985513	0.237264	0.081869
C11	C	0.838652	0.121116	0.000060
C12	C	0.745406	0.119456	0.000054
C13	C	0.474791	0.034560	0.000059
C14	C	0.525358	0.075487	0.080719
C15	C	0.409764	0.113535	0.000071
C16	C	0.525351	0.075515	-0.080561
C17	C	0.574677	0.116440	0.000061
C18	C	0.459102	0.154441	0.080797
C19	C	0.459092	0.154457	-0.080555
C20	C	0.509626	0.195442	0.000124
C21	C	0.314762	0.111859	0.000077
C22	C	0.669676	0.118122	0.000062
C23	C	0.998378	-0.038584	0.000058
C24	C	0.996735	-0.131833	0.000045
C25	C	1.072656	-0.367594	0.000068
C26	C	1.031721	-0.418158	-0.080589
C27	C	0.993691	-0.302554	0.000057
C28	C	1.031690	-0.418141	0.080691
C29	C	0.990757	-0.467463	0.000073
C30	C	0.952778	-0.351889	-0.080667
C31	C	0.952758	-0.351869	0.080686
C32	C	0.911766	-0.402400	0.000009
C33	C	0.995384	-0.207554	0.000047
C34	C	0.989058	-0.562460	0.000075
C35	C	1.145793	0.108862	0.000077
C36	C	1.239039	0.110522	0.000076
C37	C	0.986067	0.268562	0.000079
C38	C	0.987710	0.361811	0.000086
N39	N	0.992209	0.114978	0.254925
N40	N	0.992243	0.114993	-0.254786
C41	C	0.992230	0.114994	0.656216
C42	C	0.992222	0.114993	0.544565
C43	C	0.992220	0.114987	0.455574
C44	C	0.992211	0.114984	0.343916
H45	H	0.430144	0.187784	-0.148745
H46	H	0.843695	-0.417864	-0.000039
N47	N	0.420933	0.198572	0.171231
H48	H	0.467051	0.219696	0.212162
H49	H	0.379159	0.247845	0.150706
N50	N	0.530121	0.285605	0.000174
H51	H	0.505775	0.315322	0.061120
H52	H	0.593394	0.286174	-0.000444
H53	H	1.065075	-0.447102	-0.148775
H54	H	0.554281	0.042151	-0.148748
H55	H	1.065049	-0.447076	0.148876
H56	H	0.554290	0.042130	0.148906
N57	N	1.162752	-0.346893	-0.000021
H58	H	1.192487	-0.371142	-0.061003
H59	H	1.163178	-0.283603	0.000640
H60	H	0.919454	-0.323066	-0.148928
H61	H	0.919434	-0.322910	0.148874
H62	H	0.459152	-0.033454	0.000133
