data_functionalizedCrystal
_audit_creation_method	'MofGen! by Chris Wilmer'
_symmetry_space_group_name_H-M	'P1'
_symmetry_Int_Tables_number	1
_symmetry_cell_setting	triclinic
loop_
_symmetry_equiv_pos_as_xyz
  x,y,z
_cell_length_a	17.699077
_cell_length_b	27.732048
_cell_length_c	16.176319
_cell_angle_alpha	89.988239
_cell_angle_beta	89.993140
_cell_angle_gamma	82.961616
loop_
_atom_site_label
_atom_site_type_symbol
_atom_site_fract_x
_atom_site_fract_y
_atom_site_fract_z
O1	O	1.003543	0.061113	-0.068745
O2	O	1.503543	0.561113	0.431255
O3	O	0.783094	0.069069	-0.068750
O4	O	1.283094	0.569069	0.431250
O5	O	0.900165	-0.005281	-0.068731
O6	O	1.400165	0.494719	0.431269
O7	O	0.886472	0.135463	-0.068763
O8	O	1.386472	0.635463	0.431237
O9	O	0.900149	-0.005286	0.068762
O10	O	1.400149	0.494714	0.568762
O11	O	0.783078	0.069064	0.068743
O12	O	1.283078	0.569064	0.568743
O13	O	1.003527	0.061109	0.068749
O14	O	1.503527	0.561109	0.568749
Cu15	Cu	0.893301	0.065086	0.081300
Cu16	Cu	1.393301	0.565086	0.581300
Cu17	Cu	0.893320	0.065092	-0.081301
Cu18	Cu	1.393320	0.565092	0.418699
O19	O	0.886456	0.135459	0.068730
O20	O	1.386456	0.635459	0.568730
C21	C	0.754891	0.068782	-0.000004
C22	C	1.254891	0.568782	0.499996
C23	C	0.670880	0.067928	-0.000005
C24	C	1.170880	0.567928	0.499995
C25	C	0.631408	0.067523	0.074944
C26	C	1.131408	0.567523	0.574944
C27	C	0.552472	0.066714	0.074945
C28	C	1.052472	0.566714	0.574945
C29	C	0.513010	0.066312	-0.000004
C30	C	1.013010	0.566312	0.499996
C31	C	0.552489	0.066715	-0.074958
C32	C	1.052489	0.566715	0.425042
C33	C	0.631423	0.067522	-0.074958
C34	C	1.131423	0.567522	0.425042
C35	C	0.234154	0.063463	-0.074959
C36	C	0.734154	0.563463	0.425041
C37	C	0.155213	0.062658	-0.074953
C38	C	0.655213	0.562658	0.425047
C39	C	0.155203	0.062654	0.074944
C40	C	0.655203	0.562654	0.574944
C41	C	0.234138	0.063461	0.074944
C42	C	0.734138	0.563461	0.574944
C43	C	0.273610	0.063862	-0.000010
C44	C	0.773610	0.563862	0.499990
C45	C	0.359201	0.064739	-0.000010
C46	C	0.859201	0.564739	0.499990
C47	C	0.427420	0.065438	-0.000004
C48	C	0.927420	0.565438	0.499996
C49	C	0.899870	-0.023291	0.000018
C50	C	1.399870	0.476709	0.500018
C51	C	0.899004	-0.076949	0.000024
C52	C	1.399004	0.423051	0.500024
C53	C	0.962736	-0.415536	-0.000017
C54	C	1.462736	0.084464	0.499983
C55	C	0.959525	-0.617207	-0.000028
C56	C	1.459525	-0.117207	0.499972
O57	O	1.017804	-0.648254	-0.000063
O58	O	1.517804	-0.148254	0.499937
N59	N	0.890107	-0.636580	-0.000029
N60	N	1.390107	-0.136580	0.499971
C61	C	0.821486	-0.605531	-0.000032
C62	C	1.321486	-0.105531	0.499968
O63	O	0.762368	-0.626636	-0.000042
O64	O	1.262368	-0.126636	0.499958
C65	C	0.824698	-0.403861	-0.000027
C66	C	1.324698	0.096139	0.499973
C67	C	0.894121	-0.384491	-0.000017
C68	C	1.394121	0.115509	0.499983
C69	C	1.032154	-0.396166	-0.000008
C70	C	1.532154	0.103834	0.499992
C71	C	1.032956	-0.345751	-0.000001
C72	C	1.532956	0.154249	0.499999
C73	C	0.964341	-0.314706	-0.000002
C74	C	1.464341	0.185294	0.499998
C75	C	0.894923	-0.334076	-0.000010
C76	C	1.394923	0.165924	0.499990
C77	C	0.756079	-0.372813	-0.000036
C78	C	1.256079	0.127187	0.499964
C79	C	0.756888	-0.322393	-0.000037
C80	C	1.256888	0.177607	0.499963
C81	C	0.826311	-0.303023	-0.000027
C82	C	1.326311	0.196977	0.499973
C83	C	0.827110	-0.252617	-0.000004
C84	C	1.327110	0.247383	0.499996
N85	N	0.896529	-0.233244	-0.000003
N86	N	1.396529	0.266756	0.499997
C87	C	0.965144	-0.264289	-0.000002
C88	C	1.465144	0.235711	0.499998
C89	C	0.819805	-0.711411	-0.000034
C90	C	1.319805	-0.211411	0.499966
C91	C	0.819001	-0.761828	-0.000034
C92	C	1.319001	-0.261828	0.499966
C93	C	0.957041	-0.773501	-0.000031
C94	C	1.457041	-0.273501	0.499969
C95	C	0.957843	-0.723083	-0.000025
C96	C	1.457843	-0.223083	0.499975
C97	C	0.889223	-0.692039	-0.000033
C98	C	1.389223	-0.192039	0.499967
C99	C	0.966823	-0.158414	0.000014
C100	C	1.466823	0.341586	0.500014
C101	C	0.967619	-0.107994	0.000025
C102	C	1.467619	0.392006	0.500025
C103	C	0.829580	-0.096326	0.000018
C104	C	1.329580	0.403674	0.500018
C105	C	0.828784	-0.146741	0.000012
C106	C	1.328784	0.353259	0.500012
C107	C	0.897412	-0.177784	0.000007
C108	C	1.397412	0.322216	0.500007
O109	O	0.768863	-0.221541	0.000022
O110	O	1.268863	0.278459	0.500022
O111	O	1.024254	-0.243175	-0.000011
O112	O	1.524254	0.256825	0.499989
C113	C	0.961934	-0.465951	-0.000024
C114	C	1.461934	0.034049	0.499976
C115	C	0.892517	-0.485321	-0.000032
C116	C	1.392517	0.014679	0.499968
C117	C	0.823902	-0.454276	-0.000033
C118	C	1.323902	0.045724	0.499967
C119	C	0.891714	-0.535738	-0.000032
C120	C	1.391714	-0.035738	0.499968
C121	C	0.960329	-0.566783	-0.000031
C122	C	1.460329	-0.066783	0.499969
C123	C	1.029747	-0.547411	-0.000030
C124	C	1.529747	-0.047411	0.499970
C125	C	1.030550	-0.496996	-0.000023
C126	C	1.530550	0.003004	0.499977
C127	C	0.754483	-0.473648	-0.000034
C128	C	1.254483	0.026352	0.499966
C129	C	0.753687	-0.524064	-0.000041
C130	C	1.253687	-0.024064	0.499959
C131	C	0.822302	-0.555109	-0.000040
C132	C	1.322302	-0.055109	0.499960
C133	C	1.031729	0.061395	0.000001
C134	C	1.531729	0.561395	0.500001
C135	C	1.115740	0.062249	-0.000003
C136	C	1.615740	0.562249	0.499997
C137	C	0.886751	0.153469	-0.000021
C138	C	1.386751	0.653469	0.499979
C139	C	0.887617	0.207127	-0.000033
C140	C	1.387617	0.707127	0.499967
N141	N	0.893293	0.065082	0.195665
N142	N	1.393293	0.565082	0.695665
N143	N	0.893333	0.065092	-0.195667
N144	N	1.393333	0.565092	0.304333
C145	C	0.945148	0.032173	0.238938
C146	C	1.445148	0.532173	0.738938
C147	C	0.945151	0.032172	0.325485
C148	C	1.445151	0.532172	0.825485
C149	C	0.893304	0.065083	0.368758
C150	C	1.393304	0.565083	0.868758
C151	C	0.841444	0.097994	0.325480
C152	C	1.341444	0.597994	0.825480
C153	C	0.841437	0.097992	0.238934
C154	C	1.341437	0.597992	0.738934
C155	C	0.841470	0.098003	0.674508
C156	C	1.341470	0.598003	1.174508
C157	C	0.841482	0.098003	0.761059
C158	C	1.341482	0.598003	1.261059
C159	C	0.945184	0.032184	0.761059
C160	C	1.445184	0.532184	1.261059
C161	C	0.945177	0.032182	0.674513
C162	C	1.445177	0.532182	1.174513
C163	C	0.893315	0.065090	0.631242
C164	C	1.393315	0.565090	1.131242
C165	C	0.893311	0.065089	0.537398
C166	C	1.393311	0.565089	1.037398
C167	C	0.893311	0.065087	0.462601
C168	C	1.393311	0.565087	0.962601
H169	H	0.123086	0.062330	-0.135989
H170	H	0.623086	0.562330	0.364011
H171	H	1.085616	-0.572696	-0.000026
H172	H	1.585616	-0.072696	0.499974
H173	H	1.087081	-0.481230	-0.000016
H174	H	1.587081	0.018770	0.499984
H175	H	0.799225	0.124789	0.360718
H176	H	1.299225	0.624789	0.860718
H177	H	0.987411	0.005386	0.796299
H178	H	1.487411	0.505386	1.296299
N179	N	0.274449	0.063860	0.151502
N180	N	0.774449	0.563860	0.651502
N181	N	0.325870	0.030247	0.168228
N182	N	0.825870	0.530247	0.668228
H183	H	0.354340	0.030526	0.222299
H184	H	0.854340	0.530526	0.722299
H185	H	0.123056	0.062326	0.135975
H186	H	0.623056	0.562326	0.635975
N187	N	0.788523	0.131620	0.805276
N188	N	1.288523	0.631620	1.305276
N189	N	0.812185	0.161607	0.853551
N190	N	1.312185	0.661607	1.353551
H191	H	0.774786	0.185347	0.884781
H192	H	1.274786	0.685347	1.384781
N193	N	1.028756	-0.703299	-0.000004
N194	N	1.528756	-0.203299	0.499996
N195	N	1.074867	-0.712847	0.057959
N196	N	1.574867	-0.212847	0.557959
H197	H	1.124952	-0.698877	0.057974
H198	H	1.624952	-0.198877	0.557974
N199	N	0.274455	0.063872	-0.151526
N200	N	0.774455	0.563872	0.348474
N201	N	0.239209	0.063515	-0.218437
N202	N	0.739209	0.563515	0.281563
H203	H	0.267674	0.063804	-0.272517
H204	H	0.767674	0.563804	0.227483
N205	N	0.512171	0.066300	-0.151510
N206	N	1.012171	0.566300	0.348490
N207	N	0.441694	0.065580	-0.151501
N208	N	0.941694	0.565580	0.348499
H209	H	0.413220	0.065287	-0.205567
H210	H	0.913220	0.565287	0.294433
H211	H	0.987375	0.005375	0.360717
H212	H	1.487375	0.505375	0.860717
N213	N	0.686800	-0.290674	-0.000051
N214	N	1.186800	0.209326	0.499949
N215	N	0.671858	-0.261230	-0.058006
N216	N	1.171858	0.238770	0.441994
H217	H	0.622360	-0.238828	-0.058015
H218	H	1.122360	0.261172	0.441985
N219	N	0.671735	0.067931	-0.151524
N220	N	1.171735	0.567931	0.348476
N221	N	0.636495	0.067571	-0.218437
N222	N	1.136495	0.567571	0.281563
H223	H	0.664965	0.067857	-0.272515
H224	H	1.164965	0.567857	0.227485
N225	N	0.998153	-0.001433	0.630325
N226	N	1.498153	0.498567	1.130325
N227	N	1.044453	-0.030812	0.668972
N228	N	1.544453	0.469188	1.168972
H229	H	1.081870	-0.054553	0.637765
H230	H	1.581870	0.445447	1.137765
H231	H	0.799243	0.124799	0.639283
H232	H	1.299243	0.624799	1.139283
H233	H	0.799211	0.124789	0.203702
H234	H	1.299211	0.624789	0.703702
N235	N	1.038543	-0.088218	0.000041
N236	N	1.538543	0.411782	0.500041
N237	N	1.099800	-0.115946	0.000042
N238	N	1.599800	0.384054	0.500042
H239	H	1.149889	-0.101981	0.000053
H240	H	1.649889	0.398019	0.500053
H241	H	0.663531	0.067854	0.135975
H242	H	1.163531	0.567854	0.635975
N243	N	1.103864	-0.325962	-0.000007
N244	N	1.603864	0.174038	0.499993
N245	N	1.104585	-0.280947	-0.000008
N246	N	1.604585	0.219053	0.499992
H247	H	1.154667	-0.266973	-0.000016
H248	H	1.654667	0.233027	0.499984
H249	H	0.520339	0.066376	0.135975
H250	H	1.020339	0.566376	0.635975
N251	N	1.036930	-0.190112	0.000007
N252	N	1.536930	0.309888	0.500007
N253	N	1.098900	-0.172803	0.000015
N254	N	1.598900	0.327197	0.500015
H255	H	1.148414	-0.195189	0.000014
H256	H	1.648414	0.304811	0.500014
N257	N	0.757865	-0.166521	0.000028
N258	N	1.257865	0.333479	0.500028
N259	N	0.696607	-0.138795	0.000040
N260	N	1.196607	0.361205	0.500040
H261	H	0.646519	-0.152761	0.000049
H262	H	1.146519	0.347239	0.500049
H263	H	1.088032	-0.421439	-0.000011
H264	H	1.588032	0.078561	0.499989
N265	N	1.027124	-0.805225	-0.000024
N266	N	1.527124	-0.305225	0.499976
N267	N	1.026387	-0.850238	-0.000023
N268	N	1.526387	-0.350238	0.499977
H269	H	1.075880	-0.872645	-0.000021
H270	H	1.575880	-0.372645	0.499979
H271	H	0.762470	-0.777594	-0.000027
H272	H	1.262470	-0.277594	0.499973
N273	N	0.682761	-0.543837	-0.000040
N274	N	1.182761	-0.043837	0.499960
N275	N	0.621506	-0.516107	-0.000042
N276	N	1.121506	-0.016107	0.499958
H277	H	0.571415	-0.530071	-0.000047
H278	H	1.071415	-0.030071	0.499953
H279	H	0.763923	-0.686138	-0.000040
H280	H	1.263923	-0.186138	0.499960
H281	H	0.699547	-0.388574	-0.000049
H282	H	1.199547	0.111426	0.499951
H283	H	0.773716	-0.071040	0.000020
H284	H	1.273716	0.428960	0.500020
N285	N	0.684384	-0.441948	-0.000038
N286	N	1.184384	0.058052	0.499962
N287	N	0.622413	-0.459257	-0.000040
N288	N	1.122413	0.040743	0.499960
H289	H	0.572900	-0.436870	-0.000038
H290	H	1.072900	0.063130	0.499962
N291	N	0.998075	-0.001474	0.194752
N292	N	1.498075	0.498526	0.694752
N293	N	1.044339	-0.030875	0.233403
N294	N	1.544339	0.469125	0.733403
H295	H	1.081703	-0.054651	0.202200
H296	H	1.581703	0.445349	0.702200
