data_functionalizedCrystal
_audit_creation_method	'MofGen! by Chris Wilmer'
_symmetry_space_group_name_H-M	'P1'
_symmetry_Int_Tables_number	1
_symmetry_cell_setting	triclinic
loop_
_symmetry_equiv_pos_as_xyz
  x,y,z
_cell_length_a	19.805407
_cell_length_b	13.032721
_cell_length_c	13.032268
_cell_angle_alpha	103.289627
_cell_angle_beta	97.161370
_cell_angle_gamma	97.204665
loop_
_atom_site_label
_atom_site_type_symbol
_atom_site_fract_x
_atom_site_fract_y
_atom_site_fract_z
Zn1	Zn	0.939872	-0.499088	-0.654244
Zn2	Zn	1.439872	0.000912	-0.154244
Zn3	Zn	0.939799	-0.654172	-0.499191
Zn4	Zn	1.439799	-0.154172	0.000809
Zn5	Zn	0.843151	-0.476582	-0.476659
Zn6	Zn	1.343151	0.023418	0.023341
Zn7	Zn	0.810205	-0.676645	-0.676728
Zn8	Zn	1.310205	-0.176645	-0.176728
O9	O	0.883257	-0.576622	-0.576705
O10	O	1.383257	-0.076622	-0.076705
O11	O	1.034576	-0.519674	-0.633696
O12	O	1.534576	-0.019674	-0.133696
O13	O	0.940735	-0.611791	-0.347583
O14	O	1.440735	-0.111791	0.152417
O15	O	0.869800	-0.330937	-0.481376
O16	O	1.369800	0.169063	0.018624
O17	O	1.034522	-0.633614	-0.519780
O18	O	1.534522	-0.133614	-0.019780
O19	O	0.940861	-0.347472	-0.611847
O20	O	1.440861	0.152528	-0.111847
O21	O	0.869728	-0.481316	-0.331029
O22	O	1.369728	0.018684	0.168971
O23	O	0.744067	-0.503107	-0.503178
O24	O	1.244067	-0.003107	-0.003178
O25	O	0.813649	-0.671916	-0.822364
O26	O	1.313649	-0.171916	-0.322364
O27	O	0.719862	-0.650093	-0.650168
O28	O	1.219862	-0.150093	-0.150168
O29	O	0.908915	-0.541465	-0.805845
O30	O	1.408915	-0.041465	-0.305845
O31	O	0.908789	-0.805784	-0.541582
O32	O	1.408789	-0.305784	-0.041582
O33	O	0.813577	-0.822295	-0.672017
O34	O	1.313577	-0.322295	-0.172017
C35	C	0.707406	-0.576597	-0.576668
C36	C	1.207406	-0.076597	-0.076668
C37	C	0.632171	-0.576616	-0.576681
C38	C	1.132171	-0.076616	-0.076681
C39	C	0.584242	-0.653239	-0.653122
C40	C	1.084242	-0.153239	-0.153122
C41	C	0.513552	-0.653243	-0.653137
C42	C	1.013552	-0.153243	-0.153137
C43	C	0.490793	-0.576627	-0.576706
C44	C	0.990793	-0.076627	-0.076706
C45	C	0.538728	-0.499995	-0.500262
C46	C	1.038728	0.000005	-0.000262
C47	C	0.609416	-0.499988	-0.500252
C48	C	1.109416	0.000012	-0.000252
C49	C	0.253649	-0.500023	-0.500300
C50	C	0.753649	-0.000023	-0.000300
C51	C	0.182955	-0.500039	-0.500313
C52	C	0.682955	-0.000039	-0.000313
C53	C	0.157785	-0.653278	-0.653185
C54	C	0.657785	-0.153278	-0.153185
C55	C	0.228473	-0.653271	-0.653175
C56	C	0.728473	-0.153271	-0.153175
C57	C	0.276402	-0.576637	-0.576735
C58	C	0.776402	-0.076637	-0.076735
C59	C	0.353052	-0.576632	-0.576720
C60	C	0.853052	-0.076632	-0.076720
C61	C	0.414144	-0.576635	-0.576715
C62	C	0.914144	-0.076635	-0.076715
C63	C	0.857616	-0.852580	-0.611707
C64	C	1.357616	-0.352580	-0.111707
C65	C	0.846706	-0.970641	-0.626716
C66	C	1.346706	-0.470641	-0.126716
C67	C	0.888982	-1.015079	-0.568920
C68	C	1.388982	-0.515079	-0.068920
C69	C	0.877707	-1.137100	-0.584431
C70	C	1.377707	-0.637100	-0.084431
C71	C	1.059794	-0.576648	-0.576743
C72	C	1.559794	-0.076648	-0.076743
C73	C	1.135024	-0.576659	-0.576759
C74	C	1.635024	-0.076659	-0.076759
C75	C	0.857615	-0.611708	-0.853718
C76	C	1.357615	-0.111708	-0.353718
C77	C	0.846688	-0.626659	-0.971764
C78	C	1.346688	-0.126659	-0.471764
C79	C	0.909013	-0.299589	-0.541590
C80	C	1.409013	0.200411	-0.041590
C81	C	0.919990	-0.181534	-0.526626
C82	C	1.419990	0.318466	-0.026626
C83	C	0.888953	-0.568781	-1.016219
C84	C	1.388953	-0.068781	-0.516219
C85	C	0.877660	-0.584232	-1.138226
C86	C	1.377660	-0.084232	-0.638226
C87	C	0.908844	-0.541596	-0.300761
C88	C	1.408844	-0.041596	0.199239
C89	C	0.919930	-0.526346	-0.182678
C90	C	1.419930	-0.026346	0.317322
H91	H	0.164428	-0.437642	-0.438073
H92	H	0.664428	0.062358	0.061927
H93	H	0.292665	-0.437630	-0.438050
H94	H	0.792665	0.062370	0.061950
H95	H	0.246999	-0.715663	-0.715410
H96	H	0.746999	-0.215663	-0.215410
Br97	Br	0.772468	-1.057788	-0.728343
Br98	Br	1.272468	-0.557788	-0.228343
Br99	Br	0.674465	-0.395990	-0.396512
Br100	Br	1.174465	0.104010	0.103488
Br101	Br	0.963181	-0.467088	-0.929114
Br102	Br	1.463181	0.032912	-0.429114
H103	H	0.964537	-1.129248	-0.465660
H104	H	1.464537	-0.629248	0.034340
H105	H	0.833109	-0.645221	-1.190487
H106	H	1.333109	-0.145221	-0.690487
Br107	Br	0.772437	-0.728311	-1.058864
Br108	Br	1.272437	-0.228311	-0.558864
H109	H	0.964474	-0.465344	-1.130417
H110	H	1.464474	0.034656	-0.630417
H111	H	0.933527	-0.962790	-0.507958
H112	H	1.433527	-0.462790	-0.007958
Br113	Br	0.507841	-0.396006	-0.396541
Br114	Br	1.007841	0.103994	0.103459
H115	H	0.833164	-1.189389	-0.645405
H116	H	1.333164	-0.689389	-0.145405
H117	H	0.602766	-0.715632	-0.715358
H118	H	1.102766	-0.215632	-0.215358
H119	H	0.474530	-0.715639	-0.715381
H120	H	0.974530	-0.215639	-0.215381
H121	H	0.118752	-0.715675	-0.715430
H122	H	0.618752	-0.215675	-0.215430
