data_functionalizedCrystal
_audit_creation_method	'MofGen! by Chris Wilmer'
_symmetry_space_group_name_H-M	'P1'
_symmetry_Int_Tables_number	1
_symmetry_cell_setting	triclinic
loop_
_symmetry_equiv_pos_as_xyz
  x,y,z
_cell_length_a	11.026607
_cell_length_b	14.185328
_cell_length_c	11.026607
_cell_angle_alpha	78.492039
_cell_angle_beta	108.586017
_cell_angle_gamma	78.489701
loop_
_atom_site_label
_atom_site_type_symbol
_atom_site_fract_x
_atom_site_fract_y
_atom_site_fract_z
O1	O	-1.758156	0.083419	-0.565044
O2	O	-1.391576	0.083421	-0.504281
O3	O	-1.544483	0.083416	-0.351371
O4	O	-1.605249	0.083423	-0.717954
O5	O	-1.481618	-0.083427	-0.288519
O6	O	-1.328712	-0.083423	-0.441428
O7	O	-1.695291	-0.083424	-0.502191
Cu8	Cu	-1.506261	-0.098658	-0.466071
Cu9	Cu	-1.580606	0.098654	-0.540402
O10	O	-1.542384	-0.083420	-0.655101
C11	C	-1.312484	-0.000001	-0.461645
C12	C	-1.170471	-0.000000	-0.428228
N13	N	-1.453980	-0.237436	-0.413792
C14	C	-1.501841	-0.000004	-0.272286
C15	C	-1.468426	-0.000000	-0.130273
C16	C	-1.774384	-0.000001	-0.544828
C17	C	-1.916400	0.000005	-0.578247
C18	C	-1.116822	0.000002	-0.520499
C19	C	-0.970044	0.000003	-0.485963
C20	C	-1.786401	-0.605039	-0.746282
C21	C	-1.746824	-0.710066	-0.706668
C22	C	-1.558493	-0.710054	-0.518250
C23	C	-1.598050	-0.605024	-0.557852
C24	C	-1.712006	-0.552525	-0.671868
C25	C	-1.523655	-0.552511	-0.483437
C26	C	-1.563214	-0.447491	-0.523032
C27	C	-1.677167	-0.394984	-0.637042
C28	C	-1.751565	-0.447505	-0.711463
C29	C	-1.409706	-0.605012	-0.369416
C30	C	-1.335311	-0.552498	-0.295002
C31	C	-1.374863	-0.447476	-0.334602
C32	C	-1.488817	-0.394970	-0.448611
C33	C	-1.300466	-0.394955	-0.260181
C34	C	-1.340025	-0.289935	-0.299776
C35	C	-1.528375	-0.289950	-0.488206
N36	N	-1.632895	0.237432	-0.592673
C37	C	-1.585027	0.000003	-0.734188
C38	C	-1.618445	0.000006	-0.876203
C39	C	-1.560696	0.000001	-0.076624
C40	C	-1.526161	0.000005	0.070153
H41	H	-1.179554	-0.000001	-0.625060
H42	H	-0.907324	0.000027	-0.381403
H43	H	-1.363865	0.000007	-0.067543
H44	H	-1.279443	-0.247177	-0.239181
N45	N	-0.999472	-0.000002	-0.716763
H46	H	-1.092549	-0.000004	-0.721803
H47	H	-1.003964	0.061850	-0.783867
N48	N	-1.874461	-0.390870	-0.834452
H49	H	-1.915588	-0.440071	-0.875596
H50	H	-1.941049	-0.347278	-0.808973
H51	H	-1.807414	-0.752819	-0.767275
N52	N	-1.435593	-0.766680	-0.395275
H53	H	-1.421821	-0.841179	-0.381480
H54	H	-1.355315	-0.748338	-0.407075
H55	H	-1.421594	0.000012	0.132879
N56	N	-1.087384	-0.000015	-0.289713
H57	H	-0.994306	-0.000017	-0.284674
H58	H	-1.129497	0.061834	-0.269204
H59	H	-1.723043	0.000081	0.061042
H60	H	-1.621158	-0.247202	-0.581060
H61	H	-1.709376	-0.309470	-0.669276
N62	N	-1.367607	-0.718280	-0.326142
H63	H	-1.284328	-0.743568	-0.242428
H64	H	-1.441628	-0.742855	-0.307712
H65	H	-1.879184	-0.562291	-0.839136
N66	N	-1.212411	-0.609124	-0.172027
H67	H	-1.198639	-0.683623	-0.158232
H68	H	-1.132133	-0.590782	-0.183827
N69	N	-1.177574	-0.451583	-0.137199
H70	H	-1.163808	-0.526082	-0.123403
H71	H	-1.097289	-0.433248	-0.148987
H72	H	-1.665256	-0.000006	-0.139355
