data_functionalizedCrystal
_audit_creation_method	'MofGen! by Chris Wilmer'
_symmetry_space_group_name_H-M	'P1'
_symmetry_Int_Tables_number	1
_symmetry_cell_setting	triclinic
loop_
_symmetry_equiv_pos_as_xyz
  x,y,z
_cell_length_a	19.077105
_cell_length_b	12.594516
_cell_length_c	19.076919
_cell_angle_alpha	92.277239
_cell_angle_beta	90.076224
_cell_angle_gamma	87.712633
loop_
_atom_site_label
_atom_site_type_symbol
_atom_site_fract_x
_atom_site_fract_y
_atom_site_fract_z
Zn1	Zn	1.058319	-0.514930	-0.440450
Zn2	Zn	1.558319	-0.014930	0.059550
Zn3	Zn	1.062975	-0.686069	-0.322954
Zn4	Zn	1.562975	-0.186069	0.177046
Zn5	Zn	0.945535	-0.500672	-0.318243
Zn6	Zn	1.445535	-0.000672	0.181757
Zn7	Zn	0.940797	-0.685427	-0.435707
Zn8	Zn	1.440797	-0.185427	0.064293
O9	O	1.001907	-0.596775	-0.379338
O10	O	1.501907	-0.096775	0.120662
O11	O	1.157269	-0.543868	-0.428821
O12	O	1.657269	-0.043868	0.071179
O13	O	1.051328	-0.655777	-0.223998
O14	O	1.551328	-0.155777	0.276002
O15	O	0.960531	-0.353620	-0.334467
O16	O	1.460531	0.146380	0.165533
O17	O	1.160690	-0.669603	-0.342497
O18	O	1.660690	-0.169603	0.157503
O19	O	1.043393	-0.364096	-0.424253
O20	O	1.543393	0.135904	0.075747
O21	O	0.965046	-0.519567	-0.220536
O22	O	1.465046	-0.019567	0.279464
O23	O	0.846574	-0.518944	-0.329868
O24	O	1.346574	-0.018944	0.170132
O25	O	0.952455	-0.668509	-0.534668
O26	O	1.452455	-0.168509	-0.034668
O27	O	0.843093	-0.654683	-0.416168
O28	O	1.343093	-0.154683	0.083832
O29	O	1.038798	-0.543246	-0.538153
O30	O	1.538798	-0.043246	-0.038153
O31	O	1.046733	-0.834927	-0.337898
O32	O	1.546733	-0.334927	0.162102
O33	O	0.956969	-0.834455	-0.420737
O34	O	1.456969	-0.334455	0.079263
C35	C	0.819337	-0.585197	-0.371992
C36	C	1.319337	-0.085197	0.128008
C37	C	0.741233	-0.580271	-0.368866
C38	C	1.241233	-0.080271	0.131134
C39	C	0.702747	-0.648728	-0.412259
C40	C	1.202747	-0.148728	0.087741
C41	C	0.629360	-0.644085	-0.409325
C42	C	1.129360	-0.144085	0.090675
C43	C	0.594459	-0.570991	-0.362994
C44	C	1.094459	-0.070991	0.137006
C45	C	0.632949	-0.502527	-0.319600
C46	C	1.132949	-0.002527	0.180400
C47	C	0.706335	-0.507165	-0.322538
C48	C	1.206335	-0.007165	0.177462
C49	C	0.375169	-0.549525	-0.349400
C50	C	0.875169	-0.049525	0.150600
C51	C	0.301778	-0.544895	-0.346464
C52	C	0.801778	-0.044895	0.153536
C53	C	0.298194	-0.686452	-0.436191
C54	C	0.798194	-0.186452	0.063809
C55	C	0.371582	-0.691088	-0.439121
C56	C	0.871582	-0.191088	0.060879
C57	C	0.410065	-0.622620	-0.395730
C58	C	0.910065	-0.122620	0.104270
N59	N	0.519445	-0.566246	-0.359993
N60	N	1.019445	-0.066246	0.140007
N61	N	0.485078	-0.627361	-0.398735
N62	N	0.985078	-0.127361	0.101265
C63	C	1.001861	-0.873312	-0.379330
C64	C	1.501861	-0.373312	0.120670
C65	C	1.001905	-0.991622	-0.379352
C66	C	1.501905	-0.491622	0.120648
C67	C	0.953079	-1.060655	-0.424375
C68	C	1.453079	-0.560655	0.075625
C69	C	0.938538	-1.126689	-0.359570
C70	C	1.438538	-0.626689	0.140430
C71	C	1.016509	-1.136391	-0.444171
C72	C	1.516509	-0.636391	0.055829
C73	C	0.987331	-1.056094	-0.314511
C74	C	1.487331	-0.556094	0.185489
C75	C	1.065330	-1.065794	-0.399157
C76	C	1.565330	-0.565794	0.100843
C77	C	1.050816	-1.131795	-0.334309
C78	C	1.550816	-0.631795	0.165691
C79	C	1.185189	-0.608398	-0.386714
C80	C	1.685189	-0.108398	0.113286
C81	C	1.263293	-0.613351	-0.389857
C82	C	1.763293	-0.113351	0.110143
C83	C	0.994578	-0.607396	-0.562619
C84	C	1.494578	-0.107396	-0.062619
C85	C	0.991455	-0.611923	-0.640723
C86	C	1.491455	-0.111923	-0.140723
C87	C	1.001971	-0.319159	-0.379363
C88	C	1.501971	0.180841	0.120637
C89	C	1.001998	-0.200856	-0.379374
C90	C	1.501998	0.299144	0.120626
C91	C	1.034940	-0.548834	-0.679231
C92	C	1.534940	-0.048834	-0.179231
C93	C	1.031997	-0.553083	-0.752617
C94	C	1.531997	-0.053083	-0.252617
C95	C	0.985572	-0.620426	-0.787494
C96	C	1.485572	-0.120426	-0.287494
C97	C	0.942083	-0.683517	-0.748980
C98	C	1.442083	-0.183517	-0.248980
C99	C	0.945023	-0.679262	-0.675595
C100	C	1.445023	-0.179262	-0.175595
C101	C	0.971956	-0.640139	-1.006776
C102	C	1.471956	-0.140139	-0.506776
C103	C	0.969021	-0.644391	-1.080166
C104	C	1.469021	-0.144391	-0.580166
C105	C	1.058935	-0.513955	-1.083799
C106	C	1.558935	-0.013955	-0.583799
C107	C	1.061873	-0.509711	-1.010412
C108	C	1.561873	-0.009711	-0.510412
C109	C	1.018381	-0.572798	-0.971905
C110	C	1.518381	-0.072798	-0.471905
N111	N	0.982565	-0.624772	-0.862506
N112	N	1.482565	-0.124772	-0.362506
N113	N	1.021386	-0.568445	-0.896894
N114	N	1.521386	-0.068445	-0.396894
C115	C	1.009247	-0.586120	-0.196772
C116	C	1.509247	-0.086120	0.303228
C117	C	1.012506	-0.581302	-0.118675
C118	C	1.512506	-0.081302	0.381325
H119	H	0.399993	-0.750611	-0.476847
H120	H	0.899993	-0.250611	0.023153
H121	H	0.731159	-0.708252	-0.449984
H122	H	1.231159	-0.208252	0.050016
C123	C	0.929728	-0.962352	-0.527713
C124	C	1.429728	-0.462352	-0.027713
C125	C	0.897251	-1.018479	-0.475695
C126	C	1.397251	-0.518479	0.024305
H127	H	0.895261	-0.936321	-0.559395
H128	H	1.395261	-0.436321	-0.059395
H129	H	0.953333	-0.904335	-0.506541
H130	H	1.453333	-0.404335	-0.006541
H131	H	0.962607	-1.008344	-0.552490
H132	H	1.462607	-0.508344	-0.052490
H133	H	0.864376	-0.972485	-0.450915
H134	H	1.364376	-0.472485	0.049085
H135	H	0.873635	-1.076504	-0.496869
H136	H	1.373635	-0.576504	0.003131
H137	H	0.266852	-0.742192	-0.471519
H138	H	0.766852	-0.242192	0.028481
C139	C	0.283896	-0.484405	-0.226633
C140	C	0.783896	0.015595	0.273367
C141	C	0.263403	-0.464538	-0.295545
C142	C	0.763403	0.035462	0.204455
H143	H	0.260204	-0.434795	-0.195203
H144	H	0.760204	0.065205	0.304797
H145	H	0.272275	-0.554526	-0.215787
H146	H	0.772275	-0.054526	0.284213
H147	H	0.333109	-0.477350	-0.222172
H148	H	0.833109	0.022650	0.277828
H149	H	0.214190	-0.471601	-0.300007
H150	H	0.714190	0.028399	0.199993
H151	H	0.275019	-0.394400	-0.306394
H152	H	0.775019	0.105600	0.193606
C153	C	0.820425	-0.451418	-0.287205
C154	C	1.320425	0.048582	0.212795
C155	C	0.748642	-0.431917	-0.274839
C156	C	1.248642	0.068083	0.225161
H157	H	0.846541	-0.404953	-0.257761
H158	H	1.346541	0.095047	0.242239
H159	H	0.832851	-0.523057	-0.277319
H160	H	1.332851	-0.023057	0.222681
H161	H	0.830566	-0.439450	-0.334919
H162	H	1.330566	0.060550	0.165081
H163	H	0.738500	-0.443892	-0.227126
H164	H	1.238500	0.056108	0.272874
H165	H	0.736211	-0.360261	-0.284720
H166	H	1.236211	0.139739	0.215280
C167	C	0.904471	-1.040316	-0.219681
C168	C	1.404471	-0.540316	0.280319
C169	C	0.970619	-1.008876	-0.240497
C170	C	1.470619	-0.508876	0.259503
H171	H	0.894155	-1.011169	-0.173987
H172	H	1.394155	-0.511169	0.326013
H173	H	0.869969	-1.015395	-0.251685
H174	H	1.369969	-0.515395	0.248315
H175	H	0.904432	-1.115710	-0.219242
H176	H	1.404432	-0.615710	0.280758
H177	H	0.970657	-0.933482	-0.240941
H178	H	1.470657	-0.433482	0.259059
H179	H	1.005130	-1.033792	-0.208484
H180	H	1.505130	-0.533792	0.291516
C181	C	1.132773	-0.535249	-0.600517
C182	C	1.632773	-0.035249	-0.100517
C183	C	1.085970	-0.474806	-0.640898
C184	C	1.585970	0.025194	-0.140898
H185	H	1.164278	-0.489541	-0.576857
H186	H	1.664278	0.010459	-0.076857
H187	H	1.107297	-0.572205	-0.567081
H188	H	1.607297	-0.072205	-0.067081
H189	H	1.158494	-0.584981	-0.630231
H190	H	1.658494	-0.084981	-0.130231
H191	H	1.060246	-0.425078	-0.611183
H192	H	1.560246	0.074922	-0.111183
H193	H	1.111449	-0.437832	-0.674337
H194	H	1.611449	0.062168	-0.174337
C195	C	0.867206	-1.274237	-0.336602
C196	C	1.367206	-0.774237	0.163398
C197	C	0.866187	-1.163031	-0.336961
C198	C	1.366187	-0.663031	0.163039
H199	H	0.822539	-1.296667	-0.322644
H200	H	1.322539	-0.796667	0.177356
H201	H	0.877879	-1.302883	-0.382329
H202	H	1.377879	-0.802883	0.117671
H203	H	0.901883	-1.298577	-0.304581
H204	H	1.401883	-0.798577	0.195419
H205	H	0.831514	-1.138691	-0.368987
H206	H	1.331514	-0.638691	0.131013
H207	H	0.855505	-1.134374	-0.291228
H208	H	1.355505	-0.634374	0.208772
H209	H	0.406494	-0.493782	-0.314062
H210	H	0.906494	0.006218	0.185938
C211	C	0.522046	-0.432562	-0.275256
C212	C	1.022046	0.067438	0.224744
C213	C	0.594587	-0.422176	-0.268674
C214	C	1.094587	0.077824	0.231326
H215	H	0.498366	-0.382959	-0.243812
H216	H	0.998366	0.117041	0.256188
H217	H	0.508147	-0.419076	-0.322000
H218	H	1.008147	0.080924	0.178000
H219	H	0.510428	-0.502693	-0.264407
H220	H	1.010428	-0.002693	0.235593
H221	H	0.606206	-0.352047	-0.279529
H222	H	1.106206	0.147953	0.220471
H223	H	0.608491	-0.435654	-0.221920
H224	H	1.108491	0.064346	0.278080
H225	H	1.118911	-1.038859	-0.415922
H226	H	1.618911	-0.538859	0.084078
H227	H	0.598028	-0.699830	-0.444659
H228	H	1.098028	-0.199830	0.055341
H229	H	0.936552	-0.691524	-0.975432
H230	H	1.436552	-0.191524	-0.475432
H231	H	1.092148	-1.162827	-0.296198
H232	H	1.592148	-0.662827	0.203802
H233	H	0.931215	-0.699232	-1.108560
H234	H	1.431215	-0.199232	-0.608560
H235	H	1.028824	-1.171502	-0.498979
H236	H	1.528824	-0.671502	0.001021
H237	H	1.099679	-0.454876	-0.982021
H238	H	1.599679	0.045124	-0.482021
C239	C	0.909604	-0.730650	-0.561485
C240	C	1.409604	-0.230650	-0.061485
C241	C	0.897223	-0.748610	-0.633262
C242	C	1.397223	-0.248610	-0.133262
H243	H	0.880088	-0.773458	-0.535353
H244	H	1.380088	-0.273458	-0.035353
H245	H	0.957288	-0.748529	-0.551363
H246	H	1.457288	-0.248529	-0.051363
H247	H	0.899818	-0.657783	-0.549061
H248	H	1.399818	-0.157783	-0.049061
H249	H	0.907014	-0.821476	-0.645688
H250	H	1.407014	-0.321476	-0.145688
H251	H	0.849528	-0.730738	-0.643389
H252	H	1.349528	-0.230738	-0.143389
C253	C	1.121177	-0.423744	-0.748837
C254	C	1.621177	0.076256	-0.248837
C255	C	1.079802	-0.483741	-0.794946
C256	C	1.579802	0.016259	-0.294946
H257	H	1.150693	-0.380939	-0.774971
H258	H	1.650693	0.119061	-0.274971
H259	H	1.091720	-0.379428	-0.718986
H260	H	1.591720	0.120572	-0.218986
H261	H	1.149186	-0.470180	-0.721292
H262	H	1.649186	0.029820	-0.221292
H263	H	1.051789	-0.437305	-0.822488
H264	H	1.551789	0.062695	-0.322488
H265	H	1.109262	-0.528061	-0.824810
H266	H	1.609262	-0.028061	-0.324810
C267	C	1.094348	-0.462549	-1.197905
C268	C	1.594348	0.037451	-0.697905
C269	C	1.106732	-0.444602	-1.126128
C270	C	1.606732	0.055398	-0.626128
H271	H	1.123854	-0.419723	-1.224035
H272	H	1.623854	0.080277	-0.724035
H273	H	1.104139	-0.535401	-1.210337
H274	H	1.604139	-0.035401	-0.710337
H275	H	1.046655	-0.444677	-1.208022
H276	H	1.546655	0.055323	-0.708022
H277	H	1.154425	-0.462482	-1.116010
H278	H	1.654425	0.037518	-0.616010
H279	H	1.096946	-0.371733	-1.113691
H280	H	1.596946	0.128267	-0.613691
H281	H	0.904280	-0.738345	-0.777382
H282	H	1.404280	-0.238345	-0.277382
