data_functionalizedCrystal
_audit_creation_method	'MofGen! by Chris Wilmer'
_symmetry_space_group_name_H-M	'P1'
_symmetry_Int_Tables_number	1
_symmetry_cell_setting	triclinic
loop_
_symmetry_equiv_pos_as_xyz
  x,y,z
_cell_length_a	14.971486
_cell_length_b	14.519709
_cell_length_c	13.448316
_cell_angle_alpha	89.992453
_cell_angle_beta	89.998199
_cell_angle_gamma	83.647137
loop_
_atom_site_label
_atom_site_type_symbol
_atom_site_fract_x
_atom_site_fract_y
_atom_site_fract_z
O1	O	1.187015	0.120184	-0.082580
O2	O	0.926623	0.134576	-0.082607
O3	O	1.063723	-0.006863	-0.082584
O4	O	1.049915	0.261623	-0.082603
O5	O	1.063706	-0.006871	0.082800
O6	O	0.926606	0.134567	0.082777
O7	O	1.186998	0.120175	0.082804
Cu8	Cu	1.056800	0.127371	0.097891
Cu9	Cu	1.056820	0.127381	-0.097694
O10	O	1.049898	0.261614	0.082781
C11	C	0.893289	0.133928	0.000082
C12	C	0.793991	0.131999	0.000071
C13	C	0.736812	0.215091	0.000067
C14	C	0.643512	0.213273	0.000082
C15	C	0.607392	0.128363	0.000094
C16	C	0.664578	0.045265	0.000102
C17	C	0.757876	0.047084	0.000094
C18	C	0.470113	0.041480	0.000116
C19	C	0.376808	0.039661	0.000122
C20	C	0.355749	0.207669	0.000104
C21	C	0.449047	0.209488	0.000096
C22	C	0.506227	0.126390	0.000101
C23	C	1.063071	-0.041226	0.000108
C24	C	1.061142	-0.143606	0.000109
C25	C	1.054043	-0.518498	0.000082
C26	C	1.056015	-0.414191	0.000090
C27	C	1.057593	-0.331055	0.000096
C28	C	1.059564	-0.226742	0.000102
C29	C	1.220331	0.120823	0.000113
C30	C	1.319630	0.122752	0.000117
C31	C	1.050550	0.295978	0.000087
C32	C	1.052478	0.398358	0.000080
N33	N	1.056792	0.127363	0.235456
N34	N	1.056835	0.127381	-0.235258
C35	C	1.117519	0.064759	0.287506
C36	C	1.117525	0.064759	0.391610
C37	C	1.056807	0.127366	0.443660
C38	C	0.996074	0.189973	0.391602
C39	C	0.996065	0.189968	0.287501
C40	C	0.996099	0.189979	0.608582
C41	C	0.996109	0.189985	0.712691
C42	C	1.117559	0.064769	0.712691
C43	C	1.117549	0.064765	0.608590
C44	C	1.056817	0.127373	0.556539
H45	H	0.635162	-0.023871	0.000126
C46	C	0.841354	0.243835	0.744780
C47	C	0.929357	0.258785	0.769917
H48	H	0.800144	0.286304	0.780117
H49	H	0.832654	0.252805	0.675343
H50	H	0.831577	0.182258	0.761850
H51	H	0.939137	0.320360	0.752840
H52	H	0.938061	0.249823	0.839370
H53	H	0.596960	0.280934	0.000077
H54	H	1.166994	0.013790	0.566210
H55	H	1.166966	0.013781	0.245134
H56	H	0.516667	-0.026188	0.000122
H57	H	0.946632	0.240946	0.433988
C58	C	1.237594	-0.058984	0.381153
C59	C	1.184291	-0.004043	0.448824
H60	H	1.278820	-0.101454	0.416477
H61	H	1.200316	-0.092235	0.340569
H62	H	1.269806	-0.020523	0.340531
H63	H	1.152074	-0.042504	0.489441
H64	H	1.221574	0.029210	0.489425
H65	H	0.946614	0.240945	0.245122
C66	C	0.541731	0.308994	-0.084971
C67	C	0.488743	0.302827	0.000061
H68	H	0.566229	0.366623	-0.084997
H69	H	0.589137	0.259778	-0.084957
H70	H	0.505755	0.304781	-0.142628
H71	H	0.524720	0.307033	0.057718
H72	H	0.441331	0.352057	0.000055
H73	H	0.946641	0.240958	0.566206
C74	C	0.706615	0.380975	0.000061
C75	C	0.776511	0.308428	0.000056
H76	H	0.731123	0.438598	0.000062
H77	H	0.670664	0.376776	-0.057606
H78	H	0.670665	0.376759	0.057741
H79	H	0.812457	0.312641	-0.057629
H80	H	0.812477	0.312630	0.057728
C81	C	0.203381	0.279491	0.000115
C82	C	0.292900	0.299014	0.000099
H83	H	0.164580	0.335882	0.000113
H84	H	0.192419	0.244681	-0.057545
H85	H	0.192429	0.244681	0.057801
H86	H	0.303853	0.333818	-0.057591
H87	H	0.303866	0.333838	0.057766
H88	H	0.347403	-0.029481	0.000133
C89	C	1.272318	0.010891	0.744733
C90	C	1.184317	-0.004048	0.769906
H91	H	1.313531	-0.031585	0.780065
H92	H	1.280999	0.001924	0.675295
H93	H	1.282107	0.072464	0.761784
H94	H	1.174525	-0.065619	0.752847
H95	H	1.175632	0.004911	0.839360
C96	C	0.769327	-0.119167	0.000095
C97	C	0.820731	-0.044253	0.000090
H98	H	0.808133	-0.175554	0.000089
H99	H	0.732505	-0.116387	0.057768
H100	H	0.732494	-0.116371	-0.057578
H101	H	0.857560	-0.047045	0.057768
H102	H	0.857569	-0.047034	-0.057589
