data_functionalizedCrystal
_audit_creation_method	'MofGen! by Chris Wilmer'
_symmetry_space_group_name_H-M	'P1'
_symmetry_Int_Tables_number	1
_symmetry_cell_setting	triclinic
loop_
_symmetry_equiv_pos_as_xyz
  x,y,z
_cell_length_a	10.540539
_cell_length_b	19.188930
_cell_length_c	9.616153
_cell_angle_alpha	89.992615
_cell_angle_beta	89.995174
_cell_angle_gamma	83.835137
loop_
_atom_site_label
_atom_site_type_symbol
_atom_site_fract_x
_atom_site_fract_y
_atom_site_fract_z
O1	O	1.683724	0.098389	-0.115598
O2	O	2.183724	0.598389	0.384402
O3	O	1.314107	0.107659	-0.115617
O4	O	1.814107	0.607659	0.384383
O5	O	1.509582	0.001439	-0.115579
O6	O	2.009582	0.501439	0.384421
O7	O	1.488249	0.204608	-0.115635
O8	O	1.988249	0.704608	0.384365
O9	O	1.509555	0.001441	0.115712
O10	O	2.009555	0.501441	0.615712
O11	O	1.314080	0.107661	0.115675
O12	O	1.814080	0.607661	0.615675
O13	O	1.683697	0.098391	0.115694
O14	O	2.183697	0.598391	0.615694
Zn15	Zn	1.498885	0.103026	0.152407
Zn16	Zn	1.998885	0.603026	0.652407
Zn17	Zn	1.498920	0.103023	-0.152330
Zn18	Zn	1.998920	0.603023	0.347670
O19	O	1.488222	0.204610	0.115657
O20	O	1.988222	0.704610	0.615657
C21	C	1.266806	0.106965	0.000027
C22	C	1.766806	0.606965	0.500027
C23	C	1.125904	0.104885	0.000021
C24	C	1.625904	0.604885	0.500021
C25	C	1.508878	-0.024575	0.000070
C26	C	2.008878	0.475425	0.500070
C27	C	1.506804	-0.102094	0.000082
C28	C	2.006804	0.397906	0.500082
C29	C	0.944233	0.025184	0.000583
C30	C	1.444233	0.525184	0.500583
C31	C	1.090805	0.027292	0.000047
C32	C	1.590805	0.527292	0.500047
C33	C	1.063423	0.142224	-0.132063
C34	C	1.563423	0.642224	0.367937
C35	C	0.916937	0.139576	-0.132158
C36	C	1.416937	0.639576	0.367842
C37	C	0.916384	0.141157	0.130863
C38	C	1.416384	0.641157	0.630863
C39	C	1.063350	0.141872	0.132594
C40	C	1.563350	0.641872	0.632594
C41	C	1.621502	-0.146253	0.000095
C42	C	2.121502	0.353747	0.500095
C43	C	1.619554	-0.219090	0.000072
C44	C	2.119554	0.280910	0.500072
C45	C	1.502901	-0.247764	0.000065
C46	C	2.002901	0.252236	0.500065
C47	C	1.388187	-0.203595	0.000045
C48	C	1.888187	0.296405	0.500045
C49	C	1.390139	-0.130760	0.000053
C50	C	1.890139	0.369240	0.500053
N51	N	1.413724	-0.356363	0.078774
N52	N	1.913724	0.143637	0.578774
N53	N	1.411878	-0.425554	0.078769
N54	N	1.911878	0.074446	0.578769
C55	C	1.497014	-0.467212	0.000037
C56	C	1.997014	0.032788	0.500037
N57	N	1.584085	-0.437067	-0.078672
N58	N	2.084085	0.062933	0.421328
N59	N	1.585935	-0.367870	-0.078661
N60	N	2.085935	0.132130	0.421339
C61	C	1.500772	-0.326741	0.000055
C62	C	2.000772	0.173259	0.500055
C63	C	1.609608	-0.590350	0.000023
C64	C	2.109608	-0.090350	0.500023
C65	C	1.607655	-0.663188	-0.000008
C66	C	2.107655	-0.163188	0.499992
C67	C	1.376285	-0.647691	-0.000021
C68	C	1.876285	-0.147691	0.499979
C69	C	1.378241	-0.574855	-0.000004
C70	C	1.878241	-0.074855	0.499996
C71	C	1.494906	-0.546189	0.000025
C72	C	1.994906	-0.046189	0.500025
C73	C	1.730998	0.099085	0.000047
C74	C	2.230998	0.599085	0.500047
C75	C	1.871901	0.101165	0.000044
C76	C	2.371901	0.601165	0.500044
C77	C	1.488927	0.230625	0.000004
C78	C	1.988927	0.730625	0.500004
C79	C	1.491000	0.308143	-0.000017
C80	C	1.991000	0.808143	0.499983
N81	N	1.498870	0.103028	0.360381
N82	N	1.998870	0.603028	0.860381
N83	N	1.498945	0.103016	-0.360304
N84	N	1.998945	0.603016	0.139696
C85	C	1.393992	0.159658	0.580731
C86	C	1.893992	0.659658	1.080731
C87	C	1.394216	0.159870	0.419564
C88	C	1.894216	0.659870	0.919564
C89	C	1.631228	0.119601	0.418832
C90	C	2.131228	0.619601	0.918832
C91	C	1.630655	0.120002	0.580050
C92	C	2.130655	0.620002	1.080050
C93	C	1.472715	0.029640	0.580311
C94	C	1.972715	0.529640	1.080311
C95	C	1.469658	0.030115	0.419084
C96	C	1.969658	0.530115	0.919084
H97	H	1.134055	-0.002088	0.094731
H98	H	1.634055	0.497912	0.594731
H99	H	1.704603	-0.567009	0.000040
H100	H	2.204603	-0.067009	0.500040
H101	H	1.654959	0.172529	0.378429
H102	H	2.154959	0.672529	0.878429
H103	H	1.295284	0.149839	0.619541
H104	H	1.795284	0.649839	1.119541
O105	O	0.880393	0.103009	-0.262914
O106	O	1.380393	0.603009	0.237086
H107	H	0.812947	0.139155	-0.324562
H108	H	1.312947	0.639155	0.175438
O109	O	0.875343	0.107887	0.263483
O110	O	1.375343	0.607887	0.763483
H111	H	0.769753	0.109688	0.265390
H112	H	1.269753	0.609688	0.765390
O113	O	1.120583	0.107863	-0.262264
O114	O	1.620583	0.607863	0.237736
H115	H	1.193474	0.064198	-0.233235
H116	H	1.693474	0.564198	0.266765
H117	H	1.716500	-0.122918	0.000113
H118	H	2.216500	0.377082	0.500113
O119	O	1.731372	-0.710822	-0.000001
O120	O	2.231372	-0.210822	0.499999
H121	H	1.735989	-0.744390	0.094257
H122	H	2.235989	-0.244390	0.594257
O123	O	0.907252	-0.015425	0.126054
O124	O	1.407252	0.484575	0.626054
H125	H	0.836914	0.018107	0.189371
H126	H	1.336914	0.518107	0.689371
O127	O	1.347661	0.008761	0.634231
O128	O	1.847661	0.508761	1.134231
H129	H	1.365378	-0.041151	0.692906
H130	H	1.865378	0.458849	1.192906
O131	O	1.263869	0.146679	0.367214
O132	O	1.763869	0.646679	0.867214
H133	H	1.263896	0.146819	0.251789
H134	H	1.763896	0.646819	0.751789
H135	H	1.104902	0.114594	0.230309
H136	H	1.604902	0.614594	0.730309
O137	O	1.266418	-0.083129	0.000049
O138	O	1.766418	0.416871	0.500049
H139	H	1.287374	-0.027665	0.000053
H140	H	1.787374	0.472335	0.500053
H141	H	1.281303	-0.671037	-0.000034
H142	H	1.781303	-0.171037	0.499966
H143	H	1.086329	0.198442	0.140553
H144	H	1.586329	0.698442	0.640553
O145	O	1.091371	0.217703	-0.138619
O146	O	1.591371	0.717703	0.361381
H147	H	1.150236	0.229430	-0.047590
H148	H	1.650236	0.729430	0.452410
H149	H	1.372296	0.017553	0.380883
H150	H	1.872296	0.517553	0.880883
O151	O	1.415806	0.231365	0.634337
O152	O	1.915806	0.731365	1.134337
H153	H	1.501076	0.226839	0.702790
H154	H	2.001076	0.726839	1.202790
H155	H	0.867922	0.197202	0.131740
H156	H	1.367922	0.697202	0.631740
O157	O	0.905123	-0.015262	-0.124154
O158	O	1.405123	0.484738	0.375846
H159	H	0.834395	0.018518	-0.186536
H160	H	1.334395	0.518518	0.313464
H161	H	1.712958	-0.255051	0.000077
H162	H	2.212958	0.244949	0.500077
H163	H	1.284841	-0.538899	-0.000006
H164	H	1.784841	-0.038899	0.499994
H165	H	1.133213	-0.002297	-0.094785
H166	H	1.633213	0.497703	0.405215
H167	H	1.410915	0.214309	0.380970
H168	H	1.910915	0.714309	0.880970
H169	H	1.293208	-0.226946	0.000036
H170	H	1.793208	0.273054	0.500036
H171	H	1.653830	0.173535	0.617625
H172	H	2.153830	0.673535	1.117625
O173	O	1.564358	-0.028409	0.365745
O174	O	2.064358	0.471591	0.865745
H175	H	1.615480	-0.055299	0.454907
H176	H	2.115480	0.444701	0.954907
H177	H	1.711170	0.080409	0.619052
H178	H	2.211170	0.580409	1.119052
H179	H	0.867739	0.195380	-0.138168
H180	H	1.367739	0.695380	0.361832
H181	H	1.711167	0.079472	0.380494
H182	H	2.211167	0.579472	0.880494
O183	O	1.574084	-0.026211	0.630827
O184	O	2.074084	0.473789	1.130827
H185	H	1.642823	-0.001873	0.697903
H186	H	2.142823	0.498127	1.197903
