data_functionalizedCrystal
_audit_creation_method	'MofGen! by Chris Wilmer'
_symmetry_space_group_name_H-M	'P1'
_symmetry_Int_Tables_number	1
_symmetry_cell_setting	triclinic
loop_
_symmetry_equiv_pos_as_xyz
  x,y,z
_cell_length_a	19.377372
_cell_length_b	19.377369
_cell_length_c	19.377372
_cell_angle_alpha	62.058157
_cell_angle_beta	93.588494
_cell_angle_gamma	62.069167
loop_
_atom_site_label
_atom_site_type_symbol
_atom_site_fract_x
_atom_site_fract_y
_atom_site_fract_z
Zr1	Zr	0.435549	0.939463	-0.001256
O2	O	0.306590	1.070589	-0.082286
O3	O	0.485587	0.808337	0.000849
O4	O	0.437727	0.987395	-0.130266
O5	O	0.380253	0.853721	0.178116
O6	O	0.529222	1.025205	-0.142252
O7	O	0.354449	0.891531	0.048829
O8	O	0.614833	0.704902	0.092289
O9	O	0.294641	1.174023	-0.056425
O10	O	0.562517	0.890487	0.020269
O11	O	0.513493	0.834053	0.125699
O12	O	0.457145	1.044871	-0.028672
O13	O	0.408120	0.988437	0.076759
Zr14	Zr	0.622626	0.939461	0.185824
Zr15	Zr	0.581473	0.999764	-0.020373
Zr16	Zr	0.476703	0.879160	0.204941
Zr17	Zr	0.416492	1.104428	0.039989
Zr18	Zr	0.641683	0.774496	0.144579
O19	O	0.572589	1.070587	0.183718
O20	O	0.514074	1.156330	-0.109468
O21	O	0.365105	0.984846	0.210900
O22	O	0.751585	0.808335	0.266854
O23	O	0.693071	0.894078	-0.026333
O24	O	0.544101	0.722594	0.294036
O25	O	0.677923	1.025203	0.006452
O26	O	0.620448	0.891529	0.314834
O27	O	0.528953	0.853719	0.326820
O28	O	0.703726	0.987393	0.135738
O29	O	0.410631	1.221955	-0.071621
O30	O	0.647545	0.656969	0.256188
O31	O	0.763534	0.704901	0.240993
O32	O	0.730823	0.752834	0.077093
O33	O	0.327352	1.126090	0.107474
O34	O	0.443342	1.174022	0.092279
O35	O	0.601031	0.834053	0.213239
O36	O	0.650055	0.890487	0.107809
O37	O	0.544683	1.044871	0.058868
O38	O	0.495658	0.988437	0.164299
C39	C	0.552925	0.733115	0.040692
C40	C	0.561015	0.663083	0.023183
C41	C	0.460015	0.285198	0.240999
C42	C	0.467724	0.219319	0.224603
C43	C	0.518902	0.278242	0.114541
C44	C	0.511202	0.344123	0.130931
C45	C	0.481757	0.347595	0.194161
C46	C	0.532943	0.406521	0.084093
C47	C	0.525238	0.472400	0.100479
C48	C	0.495793	0.475881	0.163703
C49	C	0.474052	0.413474	0.210547
C50	C	0.562382	0.403052	0.020860
C51	C	0.584123	0.465450	-0.025979
C52	C	0.576424	0.531326	-0.009589
C53	C	0.546979	0.534807	0.053635
C54	C	0.598165	0.593732	-0.056433
C55	C	0.590460	0.659611	-0.040047
C56	C	0.539274	0.600686	0.070021
C57	C	0.346560	0.864034	0.116196
C58	C	0.284612	0.838434	0.124312
C59	C	-0.194140	1.157167	0.023268
C60	C	-0.252335	1.133091	0.030902
C61	C	-0.142325	0.971926	0.081992
C62	C	-0.084118	0.995988	0.074366
C63	C	-0.110033	1.088610	0.045003
C64	C	-0.000011	0.927430	0.096101
C65	C	0.058189	0.951492	0.088472
C66	C	0.032282	1.044110	0.059108
C67	C	-0.051833	1.112671	0.037374
C68	C	0.025901	0.834810	0.125459
C69	C	0.110008	0.766253	0.147194
C70	C	0.168211	0.790312	0.139570
C71	C	0.142304	0.882930	0.110206
C72	C	0.252326	0.721751	0.161305
C73	C	0.310526	0.745812	0.153675
C74	C	0.200505	0.906992	0.102577
C75	C	0.711615	1.014890	0.068371
C76	C	0.773564	1.040490	0.060256
C77	C	0.477611	1.014892	-0.165638
C78	C	0.460141	1.040492	-0.253174
C79	C	0.505250	1.145808	0.143875
C80	C	0.497160	1.215840	0.161385
C81	C	0.677675	0.721756	-0.413338
C82	C	0.661241	0.745831	-0.495598
C83	C	0.551240	0.906996	-0.546679
C84	C	0.567667	0.882935	-0.464422
C85	C	0.630885	0.790313	-0.397757
C86	C	0.520878	0.951493	-0.448841
C87	C	0.537301	0.927433	-0.366591
C88	C	0.600514	0.834815	-0.299922
C89	C	0.647309	0.766253	-0.315507
C90	C	0.457656	1.044113	-0.515507
C91	C	0.410867	1.112671	-0.499925
C92	C	0.427294	1.088613	-0.417675
C93	C	0.490507	0.995994	-0.351006
C94	C	0.380499	1.157174	-0.402089
C95	C	0.396923	1.133114	-0.319839
C96	C	0.506930	0.971934	-0.268755
C97	C	0.580564	0.864032	0.350206
C98	C	0.598035	0.838432	0.437742
C99	C	0.735453	0.808543	0.016780
C100	C	0.805491	0.764111	-0.008845
C101	C	0.604402	0.657686	0.298614
C102	C	0.629962	0.562053	0.368641
C103	C	0.786929	0.733114	0.274702
C104	C	0.874438	0.663081	0.336613
C105	C	0.271246	1.145810	-0.090134
C106	C	0.183737	1.215843	-0.152045
C107	C	0.322722	1.070380	0.167788
C108	C	0.252684	1.114813	0.193413
C109	C	0.453774	1.221238	-0.114046
C110	C	0.428213	1.316871	-0.184073
C111	C	0.792686	0.743248	-0.066583
C112	C	0.858485	0.701511	-0.090677
C113	C	0.937089	0.680632	-0.057028
C114	C	0.949892	0.701501	0.000713
C115	C	0.884093	0.743243	0.024801
C116	C	0.687662	0.517141	0.447230
C117	C	0.711677	0.427290	0.513038
C118	C	0.677996	0.382350	0.500253
C119	C	0.620290	0.427271	0.421657
C120	C	0.596271	0.517123	0.355852
C121	C	0.941130	0.659653	0.310652
C122	C	1.023357	0.593864	0.368818
C123	C	1.038891	0.531499	0.452942
C124	C	0.972192	0.534930	0.478903
C125	C	0.889966	0.600723	0.420739
C126	C	0.117044	1.219279	-0.126082
C127	C	0.034815	1.285088	-0.184243
C128	C	0.019280	1.347457	-0.268366
C129	C	0.085980	1.344021	-0.294329
C130	C	0.168208	1.278217	-0.236168
C131	C	0.265486	1.135685	0.251144
C132	C	0.199682	1.177447	0.275220
C133	C	0.121077	1.198329	0.241568
C134	C	0.108275	1.177456	0.183831
C135	C	0.174077	1.135702	0.159751
C136	C	0.461909	1.361783	-0.171264
C137	C	0.437908	1.451634	-0.237058
C138	C	0.380206	1.496574	-0.315658
C139	C	0.346509	1.451654	-0.328466
C140	C	0.370515	1.361802	-0.262675
H141	H	0.450076	0.416300	0.262035
F142	F	0.024613	1.199683	0.148025
H143	H	0.990660	0.646642	-0.076649
H144	H	0.465351	1.488196	-0.226612
H145	H	0.928497	0.710426	0.242156
F146	F	0.069435	1.410404	-0.383864
H147	H	1.013899	0.684496	0.028104
F148	F	0.988737	0.468549	0.568439
F149	F	0.818993	0.604356	0.448380
F150	F	0.133559	1.152907	-0.036555
F151	F	0.279893	0.623182	0.192544
H152	H	0.360665	1.569738	-0.369222
F153	F	0.897735	0.765436	0.086258
F154	F	-0.036160	1.288728	-0.156596
H155	H	0.613881	0.815225	-0.232949
H156	H	0.697561	0.309187	0.553843
F157	F	0.285093	1.499499	-0.412122
F158	F	-0.068238	1.417488	-0.330259
F159	F	0.534864	0.564911	0.272212
H160	H	0.379015	0.689981	0.171390
H161	H	0.222508	1.275424	-0.257318
H162	H	0.515298	0.603511	0.121510
F163	F	0.723521	0.564951	0.460853
H164	H	0.848045	0.684524	-0.137692
F165	F	0.334638	1.314016	-0.276318
H166	H	0.758666	0.390727	0.577028
H167	H	0.698791	0.690833	-0.261223
F168	F	-0.079410	1.211248	0.006132
F169	F	1.094332	0.590224	0.341171
H170	H	0.444286	1.063699	-0.582478
F171	F	0.160441	1.113485	0.098311
H172	H	0.489516	0.529528	0.177041
H173	H	0.210122	1.194433	0.322235
H174	H	0.592872	0.390668	0.411260
H175	H	0.436039	0.288023	0.292487
H176	H	0.067503	1.232328	0.261182
F177	F	0.444579	0.152911	0.274458
F178	F	0.349137	1.113472	0.286967
H179	H	0.568648	0.349412	0.007516
F180	F	0.615456	0.461748	-0.093273
F181	F	0.550235	0.274540	0.047248
H182	H	0.622131	0.590902	-0.107920
F183	F	0.709035	0.765464	-0.102408
F184	F	1.126409	0.461479	0.514837
H185	H	-0.215239	1.232581	-0.000614
H186	H	0.608163	0.710419	-0.078188
F187	F	0.172927	1.005568	0.071335
H188	H	-0.320823	1.188926	0.013198
H189	H	-0.021494	0.815225	0.131663
F190	F	0.094224	1.069720	0.050985
F191	F	-0.114755	0.873355	0.113239
F192	F	0.137578	0.667681	0.178441
F193	F	0.523322	1.313970	-0.087617
H194	H	0.329022	1.232584	-0.456378
F195	F	0.744979	0.623185	-0.342386
F196	F	0.574234	0.873363	-0.197803
H197	H	0.699345	0.689995	-0.508277
H198	H	0.499766	0.982408	-0.600967
H199	H	0.359393	1.188082	-0.554214
H200	H	0.358819	1.188939	-0.307154
