data_functionalizedCrystal
_audit_creation_method	'MofGen! by Chris Wilmer'
_symmetry_space_group_name_H-M	'P1'
_symmetry_Int_Tables_number	1
_symmetry_cell_setting	triclinic
loop_
_symmetry_equiv_pos_as_xyz
  x,y,z
_cell_length_a	16.625548
_cell_length_b	19.120786
_cell_length_c	16.625548
_cell_angle_alpha	92.454923
_cell_angle_beta	90.008236
_cell_angle_gamma	92.466188
loop_
_atom_site_label
_atom_site_type_symbol
_atom_site_fract_x
_atom_site_fract_y
_atom_site_fract_z
Zn1	Zn	1.218869	-0.279724	0.442191
Zn2	Zn	1.718869	0.220276	0.942191
Zn3	Zn	1.213045	-0.397152	0.301599
Zn4	Zn	1.713045	0.102848	0.801599
Zn5	Zn	1.084061	-0.279716	0.307372
Zn6	Zn	1.584061	0.220284	0.807372
Zn7	Zn	1.078245	-0.397146	0.436389
Zn8	Zn	1.578245	0.102854	0.936389
O9	O	1.148555	-0.338434	0.371888
O10	O	1.648555	0.161566	0.871888
O11	O	1.330929	-0.295307	0.423553
O12	O	1.830929	0.204693	0.923553
O13	O	1.195931	-0.381573	0.189533
O14	O	1.695931	0.118427	0.689533
O15	O	1.106815	-0.181427	0.330100
O16	O	1.606815	0.318573	0.830100
O17	O	1.326650	-0.381580	0.320261
O18	O	1.826650	0.118420	0.820261
O19	O	1.205858	-0.181433	0.429151
O20	O	1.705858	0.318567	0.929151
O21	O	1.101167	-0.295293	0.193774
O22	O	1.601167	0.204707	0.693774
O23	O	0.970457	-0.295287	0.324474
O24	O	1.470457	0.204713	0.824474
O25	O	1.096903	-0.381571	0.549991
O26	O	1.596903	0.118429	1.049991
O27	O	0.966184	-0.381563	0.419263
O28	O	1.466184	0.118437	0.919263
O29	O	1.200219	-0.295301	0.554253
O30	O	1.700219	0.204699	1.054253
O31	O	1.190292	-0.495440	0.314635
O32	O	1.690292	0.004560	0.814635
O33	O	1.091255	-0.495436	0.413665
O34	O	1.591255	0.004564	0.913665
C35	C	0.939065	-0.338424	0.371866
C36	C	1.439065	0.161576	0.871866
C37	C	0.849443	-0.338437	0.371874
C38	C	1.349443	0.161563	0.871874
C39	C	0.521267	-0.338442	0.371909
C40	C	1.021267	0.161558	0.871909
C41	C	0.612576	-0.338438	0.371897
C42	C	1.112576	0.161562	0.871897
C43	C	0.685352	-0.338440	0.371891
C44	C	1.185352	0.161560	0.871891
C45	C	0.776666	-0.338436	0.371880
C46	C	1.276666	0.161564	0.871880
C47	C	1.139532	-0.520924	0.362912
C48	C	1.639532	-0.020924	0.862912
C49	C	1.135746	-0.598993	0.359099
C50	C	1.635746	-0.098993	0.859099
C51	C	1.185496	-0.635613	0.408920
C52	C	1.685496	-0.135613	0.908920
C53	C	1.181935	-0.708968	0.405339
C54	C	1.681935	-0.208968	0.905339
C55	C	1.128628	-0.745702	0.351932
C56	C	1.628628	-0.245702	0.851932
C57	C	1.078873	-0.709076	0.302109
C58	C	1.578873	-0.209076	0.802109
C59	C	1.082431	-0.635723	0.305695
C60	C	1.582431	-0.135723	0.805695
C61	C	1.115306	-0.967184	0.338526
C62	C	1.615306	-0.467184	0.838526
C63	C	1.111754	-1.040543	0.334943
C64	C	1.611754	-0.540543	0.834943
C65	C	1.214815	-1.040429	0.438174
C66	C	1.714815	-0.540429	0.938174
C67	C	1.218371	-0.967075	0.441752
C68	C	1.718371	-0.467075	0.941752
C69	C	1.168613	-0.930456	0.391932
C70	C	1.668613	-0.430456	0.891932
C71	C	1.124989	-0.820682	0.348268
C72	C	1.624989	-0.320682	0.848268
C73	C	1.172249	-0.855477	0.395600
C74	C	1.672249	-0.355477	0.895600
C75	C	1.358863	-0.338445	0.371910
C76	C	1.858863	0.161555	0.871910
C77	C	1.448484	-0.338450	0.371920
C78	C	1.948484	0.161550	0.871920
C79	C	1.148562	-0.338436	0.582196
C80	C	1.648562	0.161564	1.082196
C81	C	1.148565	-0.338437	0.671817
C82	C	1.648565	0.161563	1.171817
C83	C	1.157635	-0.155233	0.380916
C84	C	1.657635	0.344767	0.880916
C85	C	1.161504	-0.077163	0.384764
C86	C	1.661504	0.422837	0.884764
C87	C	1.148531	-0.338443	0.999993
C88	C	1.648531	0.161557	1.499993
C89	C	1.148538	-0.338444	0.908684
C90	C	1.648538	0.161556	1.408684
C91	C	1.148548	-0.338441	0.835908
C92	C	1.648548	0.161559	1.335908
C93	C	1.148555	-0.338440	0.744594
C94	C	1.648555	0.161560	1.244594
C95	C	1.148539	-0.338447	1.162396
C96	C	1.648539	0.161553	1.662396
C97	C	1.148532	-0.338441	1.072775
C98	C	1.648532	0.161559	1.572775
H99	H	1.228907	-0.605710	0.452406
H100	H	1.728907	-0.105710	0.952406
H101	H	1.215648	-0.825566	0.439087
H102	H	1.715648	-0.325566	0.939087
H103	H	1.035467	-0.738991	0.258627
H104	H	1.535467	-0.238991	0.758627
H105	H	1.041918	-0.605908	0.265126
H106	H	1.541918	-0.105908	0.765126
O107	O	1.073172	-0.856445	0.296492
O108	O	1.573172	-0.356445	0.796492
C109	C	1.018987	-0.898889	0.340275
C110	C	1.518987	-0.398889	0.840275
H111	H	1.046841	-0.909830	0.400876
H112	H	1.546841	-0.409830	0.900876
H113	H	1.005716	-0.950494	0.304905
H114	H	1.505716	-0.450494	0.804905
H115	H	0.960591	-0.870667	0.350447
H116	H	1.460591	-0.370667	0.850447
H117	H	1.222452	-0.738781	0.445902
H118	H	1.722452	-0.238781	0.945902
H119	H	1.261778	-0.937168	0.485240
H120	H	1.761778	-0.437168	0.985240
H121	H	1.255324	-1.070252	0.478736
H122	H	1.755324	-0.570252	0.978736
H123	H	1.074793	-0.937375	0.297959
H124	H	1.574793	-0.437375	0.797959
O125	O	1.059854	-1.076198	0.283151
O126	O	1.559854	-0.576198	0.783151
C127	C	0.980344	-1.058326	0.301562
C128	C	1.480344	-0.558326	0.801562
H129	H	0.977202	-1.038143	0.366958
H130	H	1.477202	-0.538143	0.866958
H131	H	0.938181	-1.106604	0.292226
H132	H	1.438181	-0.606604	0.792226
H133	H	0.961354	-1.015782	0.260392
H134	H	1.461354	-0.515782	0.760392
