data_functionalizedCrystal
_audit_creation_method	'MofGen! by Chris Wilmer'
_symmetry_space_group_name_H-M	'P1'
_symmetry_Int_Tables_number	1
_symmetry_cell_setting	triclinic
loop_
_symmetry_equiv_pos_as_xyz
  x,y,z
_cell_length_a	23.096457
_cell_length_b	23.096457
_cell_length_c	18.760492
_cell_angle_alpha	89.999015
_cell_angle_beta	59.999352
_cell_angle_gamma	60.000086
loop_
_atom_site_label
_atom_site_type_symbol
_atom_site_fract_x
_atom_site_fract_y
_atom_site_fract_z
Zr1	Zr	0.633738	0.557785	-0.093546
O2	O	0.754529	0.465336	-0.207360
O3	O	0.512949	0.586123	-0.058658
O4	O	0.633741	0.586123	-0.207365
O5	O	0.633734	0.465338	0.058653
O6	O	0.633741	0.681405	-0.207368
O7	O	0.633737	0.465336	-0.058652
O8	O	0.417666	0.681404	0.058643
O9	O	0.849809	0.465338	-0.207358
O10	O	0.562630	0.669319	-0.043778
O11	O	0.562628	0.598213	0.043767
O12	O	0.704845	0.598213	-0.131317
O13	O	0.704843	0.527108	-0.043772
Zr14	Zr	0.633732	0.709751	0.093538
Zr15	Zr	0.633737	0.709747	-0.093550
Zr16	Zr	0.633733	0.557788	0.093542
Zr17	Zr	0.785698	0.557788	-0.093543
Zr18	Zr	0.481773	0.709747	0.093535
O19	O	0.754521	0.681413	0.058649
O20	O	0.754528	0.681408	-0.207365
O21	O	0.754522	0.465341	0.058655
O22	O	0.512941	0.802200	0.207351
O23	O	0.512949	0.802195	-0.058663
O24	O	0.512942	0.586128	0.207357
O25	O	0.633736	0.802198	-0.058661
O26	O	0.633729	0.681413	0.207357
O27	O	0.633729	0.586131	0.207359
O28	O	0.633733	0.802200	0.058644
O29	O	0.849808	0.586129	-0.207361
O30	O	0.417662	0.681407	0.207353
O31	O	0.417662	0.802197	0.207350
O32	O	0.417666	0.802194	0.058640
O33	O	0.849804	0.465341	-0.058648
O34	O	0.849804	0.586131	-0.058651
O35	O	0.562625	0.669322	0.131308
O36	O	0.562627	0.740428	0.043763
O37	O	0.704842	0.669322	-0.043775
O38	O	0.704840	0.598217	0.043770
C39	C	0.443657	0.633763	-0.000008
C40	C	0.379146	0.633761	-0.000009
C41	C	-0.028883	0.581288	-0.064627
C42	C	0.031736	0.581282	-0.064627
C43	C	0.009556	0.633773	-0.000005
C44	C	-0.073252	0.686264	0.064634
C45	C	-0.133868	0.686265	0.064637
N46	N	0.065657	0.696021	0.019560
N47	N	0.123244	0.696018	0.019552
C48	C	0.192186	0.633774	-0.000008
N49	N	0.201376	0.571529	-0.019577
N50	N	0.143786	0.571533	-0.019573
C51	C	0.075278	0.633778	-0.000000
C52	C	0.340713	0.581276	-0.064639
C53	C	0.401331	0.581270	-0.064632
C54	C	0.296341	0.686258	0.064625
C55	C	0.235725	0.686259	0.064622
C56	C	0.257917	0.633769	-0.000014
C57	C	0.633736	0.443685	0.000001
C58	C	0.633736	0.379173	0.000002
C59	C	0.633742	0.633763	-0.234022
C60	C	0.633744	0.633762	-0.313446
C61	C	0.823813	0.633773	-0.000001
C62	C	0.888324	0.633774	0.000001
C63	C	0.633742	-0.081340	0.064608
C64	C	0.633736	-0.020722	0.064615
C65	C	0.633739	0.009589	-0.000010
C66	C	0.633726	-0.020713	-0.064634
C67	C	0.633724	-0.081326	-0.064634
N68	N	0.680097	0.081583	-0.076646
N69	N	0.680101	0.139162	-0.076643
C70	C	0.633745	0.192216	-0.000012
N71	N	0.587395	0.185509	0.076619
N72	N	0.587394	0.127923	0.076616
C73	C	0.633741	0.075315	-0.000017
C74	C	0.633745	0.288243	0.064619
C75	C	0.633735	0.348866	0.064627
C76	C	0.633733	0.348869	-0.064629
C77	C	0.633736	0.288252	-0.064630
C78	C	0.633746	0.257941	-0.000006
C79	C	0.633734	0.823850	-0.000009
C80	C	0.633734	0.888362	-0.000011
C81	C	0.633747	0.581267	-0.350759
C82	C	0.633737	0.686259	-0.350758
C83	C	0.633735	0.686262	-0.425378
C84	C	0.633737	0.633767	-0.462692
C85	C	0.633742	0.581269	-0.425385
C86	C	0.633721	0.738763	-0.462685
C87	C	0.633718	0.738768	-0.537309
C88	C	0.633727	0.686269	-0.574628
C89	C	0.633733	0.633769	-0.537317
C90	C	0.633735	0.581274	-0.574630
C91	C	0.633747	0.528770	-0.537324
C92	C	0.633751	0.528770	-0.462703
C93	C	0.633723	0.686269	-0.649249
C94	C	0.633731	0.581276	-0.649256
C95	C	0.633728	0.633772	0.234014
C96	C	0.633726	0.633774	0.313438
C97	C	0.443656	0.823845	-0.000013
C98	C	0.379145	0.888356	-0.000016
C99	C	0.443650	0.633768	0.234010
C100	C	0.379137	0.633767	0.313433
C101	C	0.443649	0.823850	0.234006
C102	C	0.379136	0.888362	0.313426
C103	C	0.823821	0.443686	-0.234014
C104	C	0.888334	0.379174	-0.313435
C105	C	0.823814	0.443690	0.000004
C106	C	0.888325	0.379180	0.000007
C107	C	0.823820	0.633768	-0.234019
C108	C	0.888333	0.633768	-0.313441
C109	C	0.348852	0.881533	-0.045720
C110	C	0.288245	0.942141	-0.045741
C111	C	0.257929	1.009573	-0.000050
C112	C	0.288228	1.016395	0.045656
C113	C	0.348838	0.955787	0.045671
C114	C	0.348840	0.670886	0.396434
C115	C	0.288231	0.670883	0.471067
C116	C	0.257917	0.633766	0.462697
C117	C	0.288221	0.596643	0.379687
C118	C	0.348832	0.596642	0.305056
C119	C	0.348841	0.955780	0.305026
C120	C	0.288232	1.016402	0.379643
C121	C	0.257916	1.009604	0.462660
C122	C	0.288216	0.942179	0.471059
C123	C	0.348828	0.881558	0.396443
C124	C	0.918636	0.311755	-0.305034
C125	C	0.979264	0.251133	-0.379651
C126	C	1.009584	0.257932	-0.462668
C127	C	0.979279	0.325357	-0.471067
C128	C	0.918657	0.385977	-0.396451
C129	C	0.918625	0.386003	0.045704
C130	C	0.979248	0.325394	0.045704
C131	C	1.009566	0.257963	0.000011
C132	C	0.979264	0.251141	-0.045692
C133	C	0.918646	0.311749	-0.045696
C134	C	0.918628	0.670893	-0.305043
C135	C	0.979237	0.670907	-0.379662
C136	C	1.009554	0.633791	-0.462678
C137	C	0.979253	0.596666	-0.471074
C138	C	0.918641	0.596657	-0.396456
H139	H	-0.201285	0.729007	0.117266
H140	H	0.263524	0.936654	0.538661
O141	O	0.199071	1.068518	-0.000001
C142	C	0.112023	1.196235	0.050180
C143	C	0.178696	1.129544	0.050178
H144	H	0.095517	1.245591	0.090761
H145	H	0.135846	1.196292	-0.019672
H146	H	0.055300	1.196190	0.079501
H147	H	0.235441	1.129545	0.020898
H148	H	0.154806	1.129512	0.120046
H149	H	0.373487	0.826665	0.403295
H150	H	0.893953	0.306206	-0.237444
O151	O	0.258751	1.081863	0.090174
C152	C	0.190214	1.163894	0.229729
C153	C	0.223590	1.089722	0.179408
H154	H	0.161763	1.170277	0.301887
H155	H	0.242398	1.170321	0.202738
H156	H	0.141719	1.206017	0.221818
H157	H	0.272072	1.047554	0.187299
H158	H	0.171362	1.083356	0.206410
O159	O	1.068555	0.199072	-0.000132
C160	C	1.205424	0.091716	-0.086610
C161	C	1.138700	0.158382	-0.086577
H162	H	1.262146	0.058791	-0.156495
H163	H	1.221934	0.108147	-0.046152
H164	H	1.181560	0.058829	-0.057204
H165	H	1.162507	0.191299	-0.115999
H166	H	1.122199	0.141902	-0.127009
O167	O	0.889281	0.451413	-0.404774
C168	C	0.895735	0.518618	-0.503341
C169	C	0.929056	0.444471	-0.494032
H170	H	0.927890	0.513030	-0.575501
H171	H	0.827065	0.548858	-0.470757
H172	H	0.907619	0.548861	-0.470645
H173	H	0.917231	0.414169	-0.526733
H174	H	0.997716	0.414285	-0.526593
H175	H	0.633744	0.486031	-0.567710
H176	H	1.003973	0.330884	-0.538669
H177	H	1.003947	0.566448	-0.538676
H178	H	0.893982	0.566422	-0.403307
O179	O	0.889247	0.707013	-0.224473
C180	C	0.895671	0.780625	-0.141703
C181	C	0.929001	0.739756	-0.232997
H182	H	0.927810	0.807097	-0.148565
H183	H	0.826998	0.822815	-0.104468
H184	H	0.907570	0.742172	-0.104485
H185	H	0.917161	0.778155	-0.270288
H186	H	0.997664	0.697557	-0.270166
O187	O	1.008639	0.185620	-0.089930
C188	C	1.027239	0.074086	-0.081518
C189	C	0.993922	0.148275	-0.031317
H190	H	1.015368	0.043866	-0.034154
H191	H	0.995164	0.079566	-0.114158
H192	H	1.095912	0.043885	-0.133428
H193	H	0.925256	0.178517	0.020634
H194	H	1.026059	0.142744	0.001262
O195	O	1.008574	0.185695	-0.371325
C196	C	1.002166	0.118489	-0.272761
C197	C	0.968891	0.192636	-0.282067
H198	H	0.970110	0.124075	-0.200601
H199	H	0.990228	0.088235	-0.305363
H200	H	1.070849	0.088259	-0.305441
H201	H	0.900204	0.222925	-0.249383
H202	H	0.980893	0.222835	-0.249489
H203	H	0.373495	0.961352	0.082894
H204	H	0.893977	0.306183	-0.082906
O205	O	0.199113	0.633748	0.535262
C206	C	0.162037	0.604205	0.667412
C207	C	0.228699	0.604192	0.585277
H208	H	0.185938	0.580298	0.707863
H209	H	0.105282	0.660953	0.707984
H210	H	0.145554	0.571328	0.647159
H211	H	0.245251	0.637035	0.605452
H212	H	0.285410	0.547425	0.544725
H213	H	0.263567	1.071297	0.372788
H214	H	0.633710	0.781518	-0.567680
H215	H	1.003901	0.701137	-0.372808
O216	O	0.889295	0.451448	0.090109
C217	C	0.895665	0.518681	0.180799
C218	C	0.928959	0.444526	0.130530
H219	H	0.927706	0.513110	0.213508
H220	H	0.907607	0.548931	0.133494
H221	H	0.826981	0.548906	0.232664
H222	H	0.997647	0.414242	0.078665
H223	H	0.916953	0.414330	0.177889
H224	H	1.058908	0.633805	-0.523429
O225	O	0.258888	0.935543	-0.090245
C226	C	0.240309	0.960893	-0.204687
C227	C	0.273609	0.968404	-0.154375
H228	H	0.252183	0.987469	-0.256535
H229	H	0.272393	0.902296	-0.237394
H230	H	0.171636	0.987398	-0.157329
H231	H	0.342275	0.941939	-0.201675
H232	H	0.241463	1.027013	-0.121655
H233	H	0.358783	0.538534	-0.117268
H234	H	0.633760	0.538517	-0.320385
O235	O	1.068443	0.198968	-0.535056
C236	C	1.155449	0.071249	-0.591954
C237	C	1.088782	0.137968	-0.509907
H238	H	1.171926	0.021913	-0.571650
H239	H	1.131635	0.071175	-0.632480
H240	H	1.212188	0.071270	-0.632479
H241	H	1.032021	0.137991	-0.469315
H242	H	1.112662	0.138015	-0.469447
O243	O	-0.007185	0.530226	-0.127449
C244	C	0.103349	0.426120	-0.255684
C245	C	0.078892	0.483896	-0.184581
H246	H	0.172943	0.388656	-0.301904
H247	H	0.077654	0.394949	-0.223873
H248	H	0.077545	0.452017	-0.293948
H249	H	0.104689	0.458057	-0.146292
H250	H	0.104574	0.515061	-0.216444
O251	O	0.378224	0.706946	0.404733
C252	C	0.371811	0.780589	0.503268
C253	C	0.338472	0.739773	0.493985
H254	H	0.339674	0.807152	0.575424
H255	H	0.440483	0.742155	0.470666
H256	H	0.359919	0.822719	0.470575
H257	H	0.350305	0.697642	0.526683
H258	H	0.269810	0.778250	0.526564
H259	H	0.099159	0.538531	-0.117245
H260	H	0.208561	1.058971	0.523410
H261	H	-0.091307	0.729002	0.117251
H262	H	1.003910	0.330963	0.082924
H263	H	0.468748	0.538527	-0.117261
O264	O	0.633846	0.258694	-0.127427
C265	C	0.704419	0.154998	-0.245903
C266	C	0.704391	0.188378	-0.174809
H267	H	0.761457	0.098147	-0.284242
H268	H	0.647463	0.155060	-0.214083
H269	H	0.704380	0.187103	-0.292056
H270	H	0.704459	0.156300	-0.128632
H271	H	0.761342	0.188328	-0.206688
H272	H	0.263565	0.701115	0.538650
H273	H	0.373534	0.826632	-0.082938
H274	H	0.278280	0.728995	0.117246
H275	H	0.373492	0.566418	0.237475
O276	O	0.258888	0.560484	0.371525
C277	C	0.290182	0.447168	0.316244
C278	C	0.323517	0.488019	0.325436
H279	H	0.342421	0.388576	0.278966
H280	H	0.241685	0.453497	0.383829
H281	H	0.261762	0.469206	0.279078
H282	H	0.351978	0.466009	0.362567
H283	H	0.371976	0.481692	0.257825
O284	O	0.633702	0.737213	-0.314383
C285	C	0.563303	0.833360	-0.186717
C286	C	0.563197	0.775709	-0.227791
H287	H	0.506297	0.864509	-0.116708
H288	H	0.620292	0.807424	-0.186846
H289	H	0.563374	0.870861	-0.226221
H290	H	0.563096	0.738190	-0.188320
H291	H	0.506213	0.801693	-0.227676
O292	O	0.155334	0.737321	0.127437
C293	C	0.057599	0.841430	0.255668
C294	C	0.148674	0.783653	0.184565
H295	H	0.052185	0.878896	0.301886
H296	H	0.026572	0.872598	0.223857
H297	H	0.026610	0.815534	0.293936
H298	H	0.179733	0.809491	0.146273
H299	H	0.179640	0.752490	0.216430
H300	H	0.373516	0.961329	0.237435
H301	H	0.633747	-0.106017	0.117230
H302	H	0.633742	0.003951	0.117237
H303	H	0.633727	0.003970	-0.117251
O304	O	0.633712	0.258906	0.127481
C305	C	0.633764	0.265273	0.255652
C306	C	0.633782	0.298577	0.184525
H307	H	0.633838	0.297324	0.301780
H308	H	0.576760	0.265410	0.294022
H309	H	0.690746	0.208391	0.223766
H310	H	0.576838	0.355472	0.216340
H311	H	0.690824	0.298385	0.146162
H312	H	0.633717	-0.105995	-0.117255
O313	O	0.633877	0.530224	-0.685619
C314	C	0.704400	0.434049	-0.813320
C315	C	0.704347	0.491824	-0.772241
H316	H	0.761360	0.402997	-0.883366
H317	H	0.704462	0.396478	-0.773901
H318	H	0.647376	0.459940	-0.813118
H319	H	0.761361	0.465994	-0.772437
H320	H	0.704243	0.529389	-0.811672
O321	O	0.633717	0.477847	-0.426326
C322	C	0.633760	0.431300	-0.311386
C323	C	0.633785	0.489018	-0.352488
H324	H	0.633833	0.440303	-0.251692
H325	H	0.576753	0.433909	-0.290914
H326	H	0.690740	0.376924	-0.361172
H327	H	0.576843	0.543422	-0.302748
H328	H	0.690829	0.486347	-0.372980
H329	H	0.633731	0.373550	-0.117245
O330	O	0.633791	0.789643	-0.426328
C331	C	0.563641	0.885666	-0.298660
C332	C	0.563348	0.828148	-0.339702
H333	H	0.506686	0.916823	-0.228623
H334	H	0.620680	0.859605	-0.298870
H335	H	0.563750	0.923186	-0.338133
H336	H	0.563210	0.790610	-0.300262
H337	H	0.506314	0.854257	-0.339505
O338	O	0.633595	0.737358	-0.685340
C339	C	0.562983	0.862367	-0.664745
C340	C	0.563038	0.804578	-0.623760
H341	H	0.505935	0.916727	-0.614983
H342	H	0.619929	0.859832	-0.685120
H343	H	0.563020	0.853315	-0.724509
H344	H	0.562972	0.813593	-0.563969
H345	H	0.506096	0.807129	-0.603447
H346	H	0.633736	0.373537	0.117251
