data_functionalizedCrystal
_audit_creation_method	'MofGen! by Chris Wilmer'
_symmetry_space_group_name_H-M	'P1'
_symmetry_Int_Tables_number	1
_symmetry_cell_setting	triclinic
loop_
_symmetry_equiv_pos_as_xyz
  x,y,z
_cell_length_a	11.169417
_cell_length_b	12.645330
_cell_length_c	11.169409
_cell_angle_alpha	89.967722
_cell_angle_beta	89.980176
_cell_angle_gamma	90.018570
loop_
_atom_site_label
_atom_site_type_symbol
_atom_site_fract_x
_atom_site_fract_y
_atom_site_fract_z
Zn1	Zn	1.834901	-0.421929	-0.678543
Zn2	Zn	1.834765	-0.599240	-0.477860
Zn3	Zn	1.634187	-0.421993	-0.477878
Zn4	Zn	1.634169	-0.599153	-0.678505
O5	O	1.734505	-0.510579	-0.578197
O6	O	2.002833	-0.445458	-0.651931
O7	O	1.808108	-0.575791	-0.309913
O8	O	1.660877	-0.273637	-0.504519
O9	O	2.002732	-0.575728	-0.504490
O10	O	1.808341	-0.273590	-0.651948
O11	O	1.660745	-0.445569	-0.309925
O12	O	1.466235	-0.445485	-0.504483
O13	O	1.660846	-0.575581	-0.846460
O14	O	1.466221	-0.575644	-0.651883
O15	O	1.808323	-0.445375	-0.846488
O16	O	1.808090	-0.747575	-0.504453
O17	O	1.660713	-0.747512	-0.651866
C18	C	1.422681	-0.510563	-0.578181
C19	C	1.289281	-0.510581	-0.578203
C20	C	1.734418	-0.786008	-0.578180
C21	C	1.734490	-0.903838	-0.578213
C22	C	1.642158	-1.071407	-0.671236
C23	C	1.641685	-0.948847	-0.670937
C24	C	1.700247	-0.948447	-0.451730
C25	C	1.699683	-1.071046	-0.452295
C26	C	1.861631	-1.070922	-0.610646
C27	C	1.860852	-0.948315	-0.613412
C28	C	2.047548	-0.510596	-0.578213
C29	C	2.180948	-0.510603	-0.578220
C30	C	1.734597	-0.510461	-0.891239
C31	C	1.734637	-0.510411	-1.024639
C32	C	1.734626	-0.234073	-0.578240
C33	C	1.734677	-0.116243	-0.578258
C34	C	1.734483	-0.510619	-0.266372
C35	C	1.734676	-0.510371	-0.132972
H36	H	1.663110	-0.918682	-0.764723
C37	C	1.957793	-0.907541	-0.529849
C38	C	2.068658	-0.949120	-0.564545
C39	C	2.157986	-0.911576	-0.487593
H40	H	1.940413	-0.928872	-0.450159
H41	H	1.960576	-0.832529	-0.533822
H42	H	2.065873	-1.024115	-0.560561
H43	H	2.086077	-0.927793	-0.644224
H44	H	2.160769	-0.836564	-0.491565
H45	H	2.140594	-0.932909	-0.407906
H46	H	2.233220	-0.939773	-0.511129
H47	H	1.663386	-1.100807	-0.765330
H48	H	1.892868	-1.101755	-0.701309
H49	H	1.606879	-1.099742	-0.424857
C50	C	1.517538	-1.112815	-0.642964
C51	C	1.517731	-1.223413	-0.648850
C52	C	1.402959	-1.261597	-0.622791
H53	H	1.462079	-1.085468	-0.699505
H54	H	1.495020	-1.091055	-0.564735
H55	H	1.540234	-1.245163	-0.727067
H56	H	1.573165	-1.250788	-0.592309
H57	H	1.380441	-1.239837	-0.544562
H58	H	1.347510	-1.234243	-0.679335
H59	H	1.403077	-1.336641	-0.626770
C60	C	1.516161	-0.909802	-0.642563
C61	C	1.473946	-0.848362	-0.737935
C62	C	1.358308	-0.812390	-0.711841
H63	H	1.517958	-0.868229	-0.571781
H64	H	1.464549	-0.968661	-0.630972
H65	H	1.525546	-0.789512	-0.749511
H66	H	1.472121	-0.889912	-0.808728
H67	H	1.306695	-0.871248	-0.700250
H68	H	1.360116	-0.770821	-0.641057
H69	H	1.329646	-0.770707	-0.776550
H70	H	1.764146	-1.100710	-0.380657
H71	H	1.886676	-0.919154	-0.706497
H72	H	1.765497	-0.919296	-0.380561
C73	C	1.577718	-0.907864	-0.414409
C74	C	1.500420	-0.993618	-0.396504
C75	C	1.387539	-0.956277	-0.362116
H76	H	1.546464	-0.863457	-0.475475
H77	H	1.584836	-0.868782	-0.342139
H78	H	1.493299	-1.032682	-0.468765
H79	H	1.531636	-1.038033	-0.335432
H80	H	1.394657	-0.917195	-0.289846
H81	H	1.356296	-0.911870	-0.423187
H82	H	1.335082	-1.014455	-0.349953
H83	H	1.930560	-1.099917	-0.542926
