data_functionalizedCrystal
_audit_creation_method	'MofGen! by Chris Wilmer'
_symmetry_space_group_name_H-M	'P1'
_symmetry_Int_Tables_number	1
_symmetry_cell_setting	triclinic
loop_
_symmetry_equiv_pos_as_xyz
  x,y,z
_cell_length_a	18.101398
_cell_length_b	12.645330
_cell_length_c	12.645324
_cell_angle_alpha	90.031766
_cell_angle_beta	89.971903
_cell_angle_gamma	89.987041
loop_
_atom_site_label
_atom_site_type_symbol
_atom_site_fract_x
_atom_site_fract_y
_atom_site_fract_z
Zn1	Zn	1.132218	0.422093	-0.599591
Zn2	Zn	1.132134	0.599402	-0.422332
Zn3	Zn	1.008368	0.422138	-0.422320
Zn4	Zn	1.008356	0.599300	-0.599531
O5	O	1.070269	0.510733	-0.510943
O6	O	1.235839	0.445637	-0.576108
O7	O	1.115687	0.575949	-0.273983
O8	O	1.024837	0.273785	-0.445856
O9	O	1.235778	0.575905	-0.445876
O10	O	1.115829	0.273751	-0.576096
O11	O	1.024756	0.445715	-0.273974
O12	O	0.904734	0.445616	-0.445797
O13	O	1.024817	0.575731	-0.747886
O14	O	0.904725	0.575775	-0.575993
O15	O	1.115817	0.445538	-0.747931
O16	O	1.115675	0.747736	-0.445817
O17	O	1.024736	0.747661	-0.576005
C18	C	0.877859	0.510690	-0.510888
C19	C	0.795545	0.510697	-0.510890
C20	C	1.070215	0.786163	-0.510929
C21	C	1.070260	0.903993	-0.510958
C22	C	1.070325	0.510618	-0.787449
C23	C	1.070348	0.510569	-0.905279
C24	C	0.496454	0.510763	-0.510979
C25	C	0.527760	0.428461	-0.429462
C26	C	0.613378	0.428682	-0.429115
C27	C	0.644836	0.510730	-0.510934
C28	C	0.613735	0.622405	-0.480419
C29	C	0.528090	0.621948	-0.479852
C30	C	0.528069	0.482361	-0.623203
C31	C	0.613719	0.479874	-0.622590
C32	C	0.728696	0.510717	-0.510911
C33	C	0.412594	0.510783	-0.510999
C34	C	1.263431	0.510777	-0.511000
C35	C	1.345745	0.510796	-0.511024
C36	C	1.070344	0.234228	-0.510982
C37	C	1.070375	0.116398	-0.510998
C38	C	1.013286	1.071554	-0.593111
C39	C	1.012994	0.948994	-0.592847
C40	C	1.049131	0.948598	-0.399233
C41	C	1.048783	1.071196	-0.399732
C42	C	1.148711	1.071088	-0.539623
C43	C	1.148231	0.948481	-0.542066
C44	C	1.127820	0.428901	-1.072871
C45	C	1.127635	0.428607	-0.950311
C46	C	0.992329	0.480202	-0.949747
C47	C	0.992678	0.479582	-1.072346
C48	C	1.090263	0.622723	-1.072480
C49	C	1.091970	0.622159	-0.949874
C50	C	1.070256	0.510771	-0.235514
C51	C	1.070376	0.510522	-0.117684
H52	H	0.634406	0.345870	-0.448241
F53	F	0.970617	0.372391	-1.109741
H54	H	1.146161	0.650367	-1.103472
F55	F	1.110424	0.319968	-0.911990
H56	H	0.948421	0.536443	-1.101987
F57	F	0.934863	0.555521	-0.911628
F58	F	0.937854	1.111956	-0.568658
H59	H	0.975163	0.399099	-0.919050
F60	F	0.500857	0.319886	-0.454184
H61	H	1.089393	0.919452	-0.336380
H62	H	0.506210	0.447026	-0.346789
F63	F	0.640361	0.704707	-0.555600
H64	H	1.149386	0.645057	-0.920811
H65	H	1.053172	0.686245	-0.919217
H66	H	1.048428	0.683539	-1.101467
F67	F	0.937086	0.910772	-0.568063
F68	F	0.501019	0.704818	-0.554067
F69	F	0.640115	0.453221	-0.320421
F70	F	0.973935	1.108696	-0.368038
F71	F	0.501609	0.560713	-0.702591
H72	H	1.193005	0.917842	-0.486614
F73	F	0.501931	0.653426	-0.372619
F74	F	1.030272	0.909567	-0.701129
F75	F	0.975061	0.908588	-0.366966
H76	H	0.635150	0.646908	-0.399264
H77	H	0.506485	0.402344	-0.650949
H78	H	0.634051	0.397693	-0.645600
H79	H	1.026384	1.100957	-0.676226
H80	H	1.088560	1.100866	-0.336464
H81	H	0.635136	0.535449	-0.686580
F82	F	1.173905	1.111392	-0.644300
H83	H	1.164165	0.919322	-0.624289
F84	F	1.203255	0.453452	-0.911013
F85	F	1.204308	1.109010	-0.461465
F86	F	1.110833	0.320862	-1.113156
H87	H	1.185864	0.447681	-1.102372
