data_functionalizedCrystal
_audit_creation_method	'MofGen! by Chris Wilmer'
_symmetry_space_group_name_H-M	'P1'
_symmetry_Int_Tables_number	1
_symmetry_cell_setting	triclinic
loop_
_symmetry_equiv_pos_as_xyz
  x,y,z
_cell_length_a	12.827893
_cell_length_b	18.050590
_cell_length_c	12.827885
_cell_angle_alpha	89.965317
_cell_angle_beta	89.980728
_cell_angle_gamma	90.018523
loop_
_atom_site_label
_atom_site_type_symbol
_atom_site_fract_x
_atom_site_fract_y
_atom_site_fract_z
Zn1	Zn	1.597649	-0.295624	-0.590808
Zn2	Zn	1.597532	-0.419832	-0.416053
Zn3	Zn	1.422889	-0.295660	-0.416082
Zn4	Zn	1.422866	-0.419777	-0.590754
O5	O	1.510234	-0.357723	-0.503424
O6	O	1.743869	-0.312108	-0.567637
O7	O	1.574327	-0.403399	-0.269821
O8	O	1.446130	-0.191731	-0.439294
O9	O	1.743784	-0.403363	-0.439245
O10	O	1.574525	-0.191704	-0.567665
O11	O	1.446018	-0.312170	-0.269842
O12	O	1.276650	-0.312117	-0.439242
O13	O	1.446090	-0.403269	-0.736997
O14	O	1.276633	-0.403304	-0.567573
O15	O	1.574502	-0.312055	-0.737037
O16	O	1.574304	-0.523749	-0.439193
O17	O	1.445977	-0.523709	-0.567545
C18	C	1.238724	-0.357709	-0.503405
C19	C	1.122571	-0.357721	-0.503422
C20	C	1.070744	-0.402807	-0.439805
C21	C	0.950694	-0.402820	-0.439821
C22	C	1.510154	-0.550675	-0.503383
C23	C	1.510215	-0.633221	-0.503400
C24	C	1.580144	-0.832667	-0.433699
C25	C	1.605674	-0.881992	-0.529074
C26	C	1.510274	-0.784351	-0.503441
C27	C	1.484851	-0.882108	-0.408109
C28	C	1.510334	-0.930337	-0.503473
C29	C	1.535853	-0.832589	-0.598866
C30	C	1.414985	-0.832701	-0.477837
C31	C	1.440479	-0.882004	-0.573278
C32	C	1.510243	-0.700253	-0.503422
C33	C	1.510365	-1.014433	-0.503504
C34	C	1.782804	-0.357738	-0.503444
C35	C	1.898957	-0.357744	-0.503452
C36	C	1.510306	-0.357652	-0.775994
C37	C	1.510337	-0.357622	-0.892148
C38	C	1.510343	-0.164018	-0.503489
C39	C	1.510390	-0.081472	-0.503516
C40	C	1.573866	-0.402713	-1.063966
C41	C	1.573835	-0.402746	-0.943916
C42	C	1.510222	-0.357741	-0.231914
C43	C	1.510394	-0.357562	-0.115762
H44	H	1.078065	-0.319133	-0.557901
H45	H	1.455998	-0.318960	-0.936684
N46	N	1.129684	-0.453929	-0.367642
H47	H	1.207089	-0.446673	-0.377859
H48	H	1.110627	-0.442319	-0.293024
H49	H	0.906124	-0.441419	-0.385355
H50	H	1.334399	-0.811031	-0.456132
H51	H	1.381418	-0.903530	-0.632338
H52	H	1.456029	-0.318932	-1.071229
H53	H	0.943520	-0.319139	-0.557915
H54	H	1.639251	-0.811003	-0.374782
H55	H	1.463323	-0.903858	-0.327475
H56	H	1.686284	-0.903646	-0.550751
H57	H	1.557301	-0.810931	-0.679570
N58	N	1.645868	-0.453898	-1.122942
H59	H	1.635678	-0.446623	-1.200342
H60	H	1.720523	-0.442365	-1.103933
N61	N	1.645826	-0.453948	-0.884924
H62	H	1.635570	-0.446732	-0.807527
H63	H	1.629582	-0.506993	-0.903958
