data_functionalizedCrystal
_audit_creation_method	'MofGen! by Chris Wilmer'
_symmetry_space_group_name_H-M	'P1'
_symmetry_Int_Tables_number	1
_symmetry_cell_setting	triclinic
loop_
_symmetry_equiv_pos_as_xyz
  x,y,z
_cell_length_a	19.288864
_cell_length_b	10.268362
_cell_length_c	11.792253
_cell_angle_alpha	89.989159
_cell_angle_beta	96.332579
_cell_angle_gamma	90.018431
loop_
_atom_site_label
_atom_site_type_symbol
_atom_site_fract_x
_atom_site_fract_y
_atom_site_fract_z
O1	O	0.922157	0.108734	-0.141581
O2	O	1.422157	0.608734	0.358419
O3	O	0.720005	0.108647	-0.160680
O4	O	1.220005	0.608647	0.339320
O5	O	0.825982	0.108666	0.014114
O6	O	1.325982	0.608666	0.514114
O7	O	0.816180	0.108716	-0.316374
O8	O	1.316180	0.608716	0.183626
O9	O	0.825973	-0.107935	0.014121
O10	O	1.325973	0.392065	0.514121
O11	O	0.719996	-0.107953	-0.160673
O12	O	1.219996	0.392047	0.339327
O13	O	0.922147	-0.107867	-0.141574
O14	O	1.422147	0.392133	0.358426
Cu15	Cu	0.821071	-0.127687	-0.151122
Cu16	Cu	1.321071	0.372313	0.348878
Cu17	Cu	0.821082	0.128468	-0.151131
Cu18	Cu	1.321082	0.628468	0.348869
O19	O	0.816170	-0.107885	-0.316367
O20	O	1.316170	0.392115	0.183633
C21	C	0.694120	0.000335	-0.160062
C22	C	1.194120	0.500335	0.339938
C23	C	0.617006	0.000301	-0.158217
C24	C	1.117006	0.500301	0.341783
N25	N	0.821068	-0.307853	-0.151116
N26	N	1.321068	0.192147	0.348884
C27	C	0.572895	0.000337	-0.260778
C28	C	1.072895	0.500337	0.239222
C29	C	0.500438	0.000351	-0.259045
C30	C	1.000438	0.500351	0.240955
C31	C	0.472095	0.000355	-0.154745
C32	C	0.972095	0.500355	0.345255
C33	C	0.516216	0.000312	-0.052170
C34	C	1.016216	0.500312	0.447830
C35	C	0.588671	0.000285	-0.053906
C36	C	1.088671	0.500285	0.446094
C37	C	0.363369	0.076272	-0.072756
C38	C	0.863369	0.576272	0.427244
C39	C	0.290914	0.076307	-0.071024
C40	C	0.790914	0.576307	0.428976
C41	C	0.248619	0.000433	-0.149386
C42	C	0.748619	0.500433	0.350614
C43	C	0.278786	-0.075458	-0.229499
C44	C	0.778786	0.424542	0.270501
C45	C	0.351241	-0.075486	-0.231235
C46	C	0.851241	0.424514	0.268765
C47	C	0.393531	0.000384	-0.152851
C48	C	0.893531	0.500384	0.347149
C49	C	0.125942	0.000483	-0.250075
C50	C	0.625942	0.500483	0.249925
C51	C	0.053484	0.000489	-0.248337
C52	C	0.553484	0.500489	0.251663
C53	C	0.069263	0.000463	-0.041460
C54	C	0.569263	0.500463	0.458540
C55	C	0.141719	0.000444	-0.043200
C56	C	0.641719	0.500444	0.456800
C57	C	0.170054	0.000460	-0.147511
C58	C	0.670054	0.500460	0.352489
C59	C	0.821078	-0.573524	-0.151129
C60	C	1.321078	-0.073524	0.348871
C61	C	0.821070	-0.425686	-0.151125
C62	C	1.321070	0.074314	0.348875
C63	C	0.948032	0.000448	-0.142192
C64	C	1.448032	0.500448	0.357808
C65	C	1.025146	0.000491	-0.144036
C66	C	1.525146	0.500491	0.355964
C67	C	0.825360	0.000361	0.056399
C68	C	1.325360	0.500361	0.556399
C69	C	0.823511	0.000348	0.182384
C70	C	1.323511	0.500348	0.682384
N71	N	0.821090	0.308634	-0.151128
N72	N	1.321090	0.808634	0.348872
C73	C	0.822010	0.000341	0.284697
C74	C	1.322010	0.500341	0.784697
C75	C	0.820132	0.000338	0.413056
C76	C	1.320132	0.500338	0.913056
C77	C	0.816792	0.000395	0.641348
C78	C	1.316792	0.500395	1.141348
C79	C	0.818641	0.000336	0.515363
C80	C	1.318641	0.500336	1.015363
H81	H	0.595960	0.000353	-0.345715
H82	H	1.095960	0.500353	0.154285
Cl83	Cl	-0.001972	0.000527	-0.377283
Cl84	Cl	0.498028	0.500527	0.122717
H85	H	0.244351	-0.137243	-0.293308
H86	H	0.744351	0.362757	0.206692
H87	H	0.149013	0.000477	-0.335010
H88	H	0.649013	0.500477	0.164990
Cl89	Cl	0.033639	0.000453	0.089662
Cl90	Cl	0.533639	0.500453	0.589662
H91	H	0.177636	0.000422	0.040316
H92	H	0.677636	0.500422	0.540316
Cl93	Cl	0.252997	0.171726	0.029677
Cl94	Cl	0.752997	0.671726	0.529677
Cl95	Cl	0.389164	-0.170894	-0.331938
Cl96	Cl	0.889164	0.329106	0.168062
Cl97	Cl	0.416533	0.171665	0.025766
Cl98	Cl	0.916533	0.671665	0.525766
Cl99	Cl	0.480586	0.000310	0.078950
Cl100	Cl	0.980586	0.500310	0.578950
H101	H	0.464516	0.000377	-0.342565
H102	H	0.964516	0.500377	0.157435
Cl103	Cl	0.644128	0.000241	0.075038
Cl104	Cl	1.144128	0.500241	0.575038
