data_functionalizedCrystal
_audit_creation_method	'MofGen! by Chris Wilmer'
_symmetry_space_group_name_H-M	'P1'
_symmetry_Int_Tables_number	1
_symmetry_cell_setting	triclinic
loop_
_symmetry_equiv_pos_as_xyz
  x,y,z
_cell_length_a	27.732064
_cell_length_b	27.732048
_cell_length_c	22.010155
_cell_angle_alpha	90.009515
_cell_angle_beta	90.008059
_cell_angle_gamma	82.646040
loop_
_atom_site_label
_atom_site_type_symbol
_atom_site_fract_x
_atom_site_fract_y
_atom_site_fract_z
O1	O	0.640930	0.057554	0.050423
O2	O	0.890930	0.307554	0.300423
O3	O	1.140930	0.557554	0.550423
O4	O	1.390930	0.807554	0.800423
O5	O	0.500138	0.066291	0.050449
O6	O	0.750138	0.316291	0.300449
O7	O	1.000138	0.566291	0.550449
O8	O	1.250138	0.816291	0.800449
O9	O	0.574906	-0.008474	0.050424
O10	O	0.824906	0.241526	0.300424
O11	O	1.074906	0.491526	0.550424
O12	O	1.324906	0.741526	0.800424
O13	O	0.566161	0.132319	0.050449
O14	O	0.816161	0.382319	0.300449
O15	O	1.066161	0.632319	0.550449
O16	O	1.316161	0.882319	0.800449
O17	O	0.574884	-0.008474	-0.050627
O18	O	0.824884	0.241526	0.199373
O19	O	1.074884	0.491526	0.449373
O20	O	1.324884	0.741526	0.699373
O21	O	0.500115	0.066291	-0.050601
O22	O	0.750115	0.316291	0.199399
O23	O	1.000115	0.566291	0.449399
O24	O	1.250115	0.816291	0.699399
O25	O	0.640907	0.057554	-0.050627
O26	O	0.890907	0.307554	0.199373
O27	O	1.140907	0.557554	0.449373
O28	O	1.390907	0.807554	0.699373
Cu29	Cu	0.570509	0.061923	-0.059841
Cu30	Cu	0.820509	0.311923	0.190159
Cu31	Cu	1.070509	0.561923	0.440159
Cu32	Cu	1.320509	0.811923	0.690159
Cu33	Cu	0.570536	0.061923	0.059663
Cu34	Cu	0.820536	0.311923	0.309663
Cu35	Cu	1.070536	0.561923	0.559663
Cu36	Cu	1.320536	0.811923	0.809663
O37	O	0.566139	0.132319	-0.050602
O38	O	0.816139	0.382319	0.199398
O39	O	1.066139	0.632319	0.449398
O40	O	1.316139	0.882319	0.699398
C41	C	0.482120	0.066106	-0.000073
C42	C	0.732120	0.316106	0.249927
C43	C	0.982120	0.566106	0.499927
C44	C	1.232120	0.816106	0.749927
C45	C	0.428465	0.065551	-0.000064
C46	C	0.678465	0.315551	0.249936
C47	C	0.928465	0.565551	0.499936
C48	C	1.178465	0.815551	0.749936
C49	C	0.051392	0.017583	-0.000107
C50	C	0.301392	0.267583	0.249893
C51	C	0.551392	0.517583	0.499893
C52	C	0.801392	0.767583	0.749893
C53	C	0.253053	0.019630	-0.000090
C54	C	0.503053	0.269630	0.249910
C55	C	0.753053	0.519630	0.499910
C56	C	1.003053	0.769630	0.749910
O57	O	0.284305	-0.017591	-0.000120
O58	O	0.534305	0.232409	0.249880
O59	O	0.784305	0.482409	0.499880
O60	O	1.034305	0.732409	0.749880
N61	N	0.272180	0.063964	-0.000080
N62	N	0.522180	0.313964	0.249920
N63	N	0.772180	0.563964	0.499920
N64	N	1.022180	0.813964	0.749920
C65	C	0.240889	0.107790	-0.000077
C66	C	0.490889	0.357790	0.249923
C67	C	0.740889	0.607790	0.499923
C68	C	0.990889	0.857790	0.749923
O69	O	0.261785	0.145546	-0.000074
O70	O	0.511785	0.395546	0.249926
O71	O	0.761785	0.645546	0.499926
O72	O	1.011785	0.895546	0.749926
C73	C	0.039230	0.105743	-0.000098
C74	C	0.289230	0.355743	0.249902
C75	C	0.539230	0.605743	0.499902
C76	C	0.789230	0.855743	0.749902
C77	C	0.020105	0.061406	-0.000102
C78	C	0.270105	0.311406	0.249898
C79	C	0.520105	0.561406	0.499898
C80	C	0.770105	0.811406	0.749898
C81	C	0.032267	-0.026750	-0.000112
C82	C	0.282267	0.223250	0.249888
C83	C	0.532267	0.473250	0.499888
C84	C	0.782267	0.723250	0.749888
C85	C	-0.018145	-0.027261	-0.000112
C86	C	0.231855	0.222739	0.249888
C87	C	0.481855	0.472739	0.499888
C88	C	0.731855	0.722739	0.749888
C89	C	-0.049432	0.016561	-0.000108
C90	C	0.200568	0.266561	0.249892
C91	C	0.450568	0.516561	0.499892
C92	C	0.700568	0.766561	0.749892
C93	C	-0.030307	0.060895	-0.000103
C94	C	0.219693	0.310895	0.249897
C95	C	0.469693	0.560895	0.499897
C96	C	0.719693	0.810895	0.749897
C97	C	0.007940	0.149568	-0.000100
C98	C	0.257940	0.399568	0.249900
C99	C	0.507940	0.649568	0.499900
C100	C	0.757940	0.899568	0.749900
C101	C	-0.042478	0.149053	-0.000106
C102	C	0.207522	0.399053	0.249894
C103	C	0.457522	0.649053	0.499894
C104	C	0.707522	0.899053	0.749894
C105	C	-0.061602	0.104716	-0.000111
C106	C	0.188398	0.354716	0.249889
C107	C	0.438398	0.604716	0.499889
C108	C	0.688398	0.854716	0.749889
C109	C	-0.112006	0.104206	-0.000099
C110	C	0.137994	0.354206	0.249901
C111	C	0.387994	0.604206	0.499901
C112	C	0.637994	0.854206	0.749901
N113	N	-0.131134	0.059872	-0.000110
N114	N	0.118866	0.309872	0.249890
N115	N	0.368866	0.559872	0.499890
N116	N	0.618866	0.809872	0.749890
C117	C	-0.099846	0.016049	-0.000114
C118	C	0.150154	0.266049	0.249886
C119	C	0.400154	0.516049	0.499886
C120	C	0.650154	0.766049	0.749886
C121	C	0.346763	0.108861	-0.000065
C122	C	0.596763	0.358861	0.249935
C123	C	0.846763	0.608861	0.499935
C124	C	1.096763	0.858861	0.749935
C125	C	0.397178	0.109373	-0.000059
C126	C	0.647178	0.359373	0.249941
C127	C	0.897178	0.609373	0.499941
C128	C	1.147178	0.859373	0.749941
C129	C	0.409338	0.021213	-0.000073
C130	C	0.659338	0.271213	0.249927
C131	C	0.909338	0.521213	0.499927
C132	C	1.159338	0.771213	0.749927
C133	C	0.358923	0.020701	-0.000075
C134	C	0.608923	0.270701	0.249925
C135	C	0.858923	0.520701	0.499925
C136	C	1.108923	0.770701	0.749925
C137	C	0.327636	0.064527	-0.000076
C138	C	0.577636	0.314527	0.249924
C139	C	0.827636	0.564527	0.499924
C140	C	1.077636	0.814527	0.749924
C141	C	-0.205716	0.014979	-0.000115
C142	C	0.044284	0.264979	0.249885
C143	C	0.294284	0.514979	0.499885
C144	C	0.544284	0.764979	0.749885
C145	C	-0.256133	0.014472	-0.000113
C146	C	-0.006133	0.264472	0.249887
C147	C	0.243867	0.514472	0.499887
C148	C	0.493867	0.764472	0.749887
C149	C	-0.268289	0.102632	-0.000103
C150	C	-0.018289	0.352632	0.249897
C151	C	0.231711	0.602632	0.499897
C152	C	0.481711	0.852632	0.749897
C153	C	-0.217876	0.103140	-0.000101
C154	C	0.032124	0.353140	0.249899
C155	C	0.282124	0.603140	0.499899
C156	C	0.532124	0.853140	0.749899
C157	C	-0.186590	0.059309	-0.000110
C158	C	0.063410	0.309309	0.249890
C159	C	0.313410	0.559309	0.499890
C160	C	0.563410	0.809309	0.749890
O161	O	-0.143287	0.141407	-0.000077
O162	O	0.106713	0.391407	0.249923
O163	O	0.356713	0.641407	0.499923
O164	O	0.606713	0.891407	0.749923
O165	O	-0.120752	-0.021701	-0.000131
O166	O	0.129248	0.228299	0.249869
O167	O	0.379248	0.478299	0.499869
O168	O	0.629248	0.728299	0.749869
C169	C	0.101804	0.018094	-0.000106
C170	C	0.351804	0.268094	0.249894
C171	C	0.601804	0.518094	0.499894
C172	C	0.851804	0.768094	0.749894
C173	C	0.120930	0.062428	-0.000101
C174	C	0.370930	0.312428	0.249899
C175	C	0.620930	0.562428	0.499899
C176	C	0.870930	0.812428	0.749899
C177	C	0.089642	0.106250	-0.000097
C178	C	0.339642	0.356250	0.249903
C179	C	0.589642	0.606250	0.499903
C180	C	0.839642	0.856250	0.749903
C181	C	0.171344	0.062940	-0.000095
C182	C	0.421344	0.312940	0.249905
C183	C	0.671344	0.562940	0.499905
C184	C	0.921344	0.812940	0.749905
C185	C	0.202631	0.019117	-0.000099
C186	C	0.452631	0.269117	0.249901
C187	C	0.702631	0.519117	0.499901
C188	C	0.952631	0.769117	0.749901
C189	C	0.183504	-0.025217	-0.000109
C190	C	0.433504	0.224783	0.249891
C191	C	0.683504	0.474783	0.499891
C192	C	0.933504	0.724783	0.749891
C193	C	0.133092	-0.025728	-0.000110
C194	C	0.383092	0.224272	0.249890
C195	C	0.633092	0.474272	0.499890
C196	C	0.883092	0.724272	0.749890
C197	C	0.108770	0.150585	-0.000086
C198	C	0.358770	0.400585	0.249914
C199	C	0.608770	0.650585	0.499914
C200	C	0.858770	0.900585	0.749914
C201	C	0.159183	0.151092	-0.000085
C202	C	0.409183	0.401092	0.249915
C203	C	0.659183	0.651092	0.499915
C204	C	0.909183	0.901092	0.749915
C205	C	0.190470	0.107270	-0.000089
C206	C	0.440470	0.357270	0.249911
C207	C	0.690470	0.607270	0.499911
C208	C	0.940470	0.857270	0.749911
C209	C	0.574712	-0.026481	-0.000103
C210	C	0.824712	0.223519	0.249897
C211	C	1.074712	0.473519	0.499897
C212	C	1.324712	0.723519	0.749897
C213	C	0.574159	-0.080136	-0.000108
C214	C	0.824159	0.169864	0.249892
C215	C	1.074159	0.419864	0.499892
C216	C	1.324159	0.669864	0.749892
C217	C	0.614862	-0.418948	-0.000084
C218	C	0.864862	-0.168948	0.249916
C219	C	1.114862	0.081052	0.499916
C220	C	1.364862	0.331052	0.749916
C221	C	0.612811	-0.620608	-0.000075
C222	C	0.862811	-0.370608	0.249925
C223	C	1.112811	-0.120608	0.499925
C224	C	1.362811	0.129392	0.749925
O225	O	0.650032	-0.651862	-0.000056
O226	O	0.900032	-0.401862	0.249944
O227	O	1.150032	-0.151862	0.499944
O228	O	1.400032	0.098138	0.749944
N229	N	0.568476	-0.639735	-0.000068
N230	N	0.818476	-0.389735	0.249932
N231	N	1.068476	-0.139735	0.499932
N232	N	1.318476	0.110265	0.749932
C233	C	0.524651	-0.608442	-0.000058
C234	C	0.774651	-0.358442	0.249942
C235	C	1.024651	-0.108442	0.499942
C236	C	1.274651	0.141558	0.749942
O237	O	0.486895	-0.629338	-0.000045
O238	O	0.736895	-0.379338	0.249955
O239	O	0.986895	-0.129338	0.499955
O240	O	1.236895	0.120662	0.749955
C241	C	0.526703	-0.406784	-0.000063
C242	C	0.776703	-0.156784	0.249937
C243	C	1.026703	0.093216	0.499937
C244	C	1.276703	0.343216	0.749937
C245	C	0.571040	-0.387660	-0.000077
C246	C	0.821040	-0.137660	0.249923
C247	C	1.071040	0.112340	0.499923
C248	C	1.321040	0.362340	0.749923
C249	C	0.659196	-0.399824	-0.000097
C250	C	0.909196	-0.149824	0.249903
C251	C	1.159196	0.100176	0.499903
C252	C	1.409196	0.350176	0.749903
C253	C	0.659709	-0.349412	-0.000103
C254	C	0.909709	-0.099412	0.249897
C255	C	1.159709	0.150588	0.499897
C256	C	1.409709	0.400588	0.749897
C257	C	0.615887	-0.318124	-0.000095
C258	C	0.865887	-0.068124	0.249905
C259	C	1.115887	0.181876	0.499905
C260	C	1.365887	0.431876	0.749905
C261	C	0.571553	-0.337248	-0.000082
C262	C	0.821553	-0.087248	0.249918
C263	C	1.071553	0.162752	0.499918
C264	C	1.321553	0.412752	0.749918
C265	C	0.482878	-0.375493	-0.000049
C266	C	0.732878	-0.125493	0.249951
C267	C	0.982878	0.124507	0.499951
C268	C	1.232878	0.374507	0.749951
C269	C	0.483395	-0.325075	-0.000049
C270	C	0.733395	-0.075075	0.249951
C271	C	0.983395	0.174925	0.499951
C272	C	1.233395	0.424925	0.749951
C273	C	0.527733	-0.305952	-0.000063
C274	C	0.777733	-0.055952	0.249937
C275	C	1.027733	0.194048	0.499937
C276	C	1.277733	0.444048	0.749937
C277	C	0.528243	-0.255548	-0.000080
C278	C	0.778243	-0.005548	0.249920
C279	C	1.028243	0.244452	0.499920
C280	C	1.278243	0.494452	0.749920
N281	N	0.572578	-0.236422	-0.000088
N282	N	0.822578	0.013578	0.249912
N283	N	1.072578	0.263578	0.499912
N284	N	1.322578	0.513578	0.749912
C285	C	0.616400	-0.267710	-0.000095
C286	C	0.866400	-0.017710	0.249905
C287	C	1.116400	0.232290	0.499905
C288	C	1.366400	0.482290	0.749905
C289	C	0.523577	-0.714317	-0.000057
C290	C	0.773577	-0.464317	0.249943
C291	C	1.023577	-0.214317	0.499943
C292	C	1.273577	0.035683	0.749943
C293	C	0.523064	-0.764731	-0.000057
C294	C	0.773064	-0.514731	0.249943
C295	C	1.023064	-0.264731	0.499943
C296	C	1.273064	-0.014731	0.749943
C297	C	0.611225	-0.776893	-0.000073
C298	C	0.861225	-0.526893	0.249927
C299	C	1.111225	-0.276893	0.499927
C300	C	1.361225	-0.026893	0.749927
C301	C	0.611737	-0.726478	-0.000077
C302	C	0.861737	-0.476478	0.249923
C303	C	1.111737	-0.226478	0.499923
C304	C	1.361737	0.023522	0.749923
C305	C	0.567912	-0.695190	-0.000065
C306	C	0.817912	-0.445190	0.249935
C307	C	1.067912	-0.195190	0.499935
C308	C	1.317912	0.054810	0.749935
C309	C	0.617472	-0.161841	-0.000107
C310	C	0.867472	0.088159	0.249893
C311	C	1.117472	0.338159	0.499893
C312	C	1.367472	0.588159	0.749893
C313	C	0.617981	-0.111424	-0.000115
C314	C	0.867981	0.138576	0.249885
C315	C	1.117981	0.388576	0.499885
C316	C	1.367981	0.638576	0.749885
C317	C	0.529821	-0.099266	-0.000096
C318	C	0.779821	0.150734	0.249904
C319	C	1.029821	0.400734	0.499904
C320	C	1.279821	0.650734	0.749904
C321	C	0.529312	-0.149679	-0.000092
C322	C	0.779312	0.100321	0.249908
C323	C	1.029312	0.350321	0.499908
C324	C	1.279312	0.600321	0.749908
C325	C	0.573142	-0.180965	-0.000095
C326	C	0.823142	0.069035	0.249905
C327	C	1.073142	0.319035	0.499905
C328	C	1.323142	0.569035	0.749905
O329	O	0.491043	-0.224267	-0.000093
O330	O	0.741043	0.025733	0.249907
O331	O	0.991043	0.275733	0.499907
O332	O	1.241043	0.525733	0.749907
O333	O	0.654151	-0.246805	-0.000095
O334	O	0.904151	0.003195	0.249905
O335	O	1.154151	0.253195	0.499905
O336	O	1.404151	0.503195	0.749905
C337	C	0.614350	-0.469360	-0.000079
C338	C	0.864350	-0.219360	0.249921
C339	C	1.114350	0.030640	0.499921
C340	C	1.364350	0.280640	0.749921
C341	C	0.570016	-0.488484	-0.000066
C342	C	0.820016	-0.238484	0.249934
C343	C	1.070016	0.011516	0.499934
C344	C	1.320016	0.261516	0.749934
C345	C	0.526194	-0.457196	-0.000058
C346	C	0.776194	-0.207196	0.249942
C347	C	1.026194	0.042804	0.499942
C348	C	1.276194	0.292804	0.749942
C349	C	0.569503	-0.538899	-0.000066
C350	C	0.819503	-0.288899	0.249934
C351	C	1.069503	-0.038899	0.499934
C352	C	1.319503	0.211101	0.749934
C353	C	0.613325	-0.570187	-0.000073
C354	C	0.863325	-0.320187	0.249927
C355	C	1.113325	-0.070187	0.499927
C356	C	1.363325	0.179813	0.749927
C357	C	0.657660	-0.551060	-0.000081
C358	C	0.907660	-0.301060	0.249919
C359	C	1.157660	-0.051060	0.499919
C360	C	1.407660	0.198940	0.749919
C361	C	0.658172	-0.500648	-0.000086
C362	C	0.908172	-0.250648	0.249914
C363	C	1.158172	-0.000648	0.499914
C364	C	1.408172	0.249352	0.749914
C365	C	0.481859	-0.476323	-0.000050
C366	C	0.731859	-0.226323	0.249950
C367	C	0.981859	0.023677	0.499950
C368	C	1.231859	0.273677	0.749950
C369	C	0.481351	-0.526735	-0.000046
C370	C	0.731351	-0.276735	0.249954
C371	C	0.981351	-0.026735	0.499954
C372	C	1.231351	0.223265	0.749954
C373	C	0.525172	-0.558023	-0.000053
C374	C	0.775172	-0.308023	0.249947
C375	C	1.025172	-0.058023	0.499947
C376	C	1.275172	0.191977	0.749947
C377	C	0.658925	0.057739	-0.000104
C378	C	0.908925	0.307739	0.249896
C379	C	1.158925	0.557739	0.499896
C380	C	1.408925	0.807739	0.749896
C381	C	0.712580	0.058295	-0.000109
C382	C	0.962580	0.308295	0.249891
C383	C	1.212580	0.558295	0.499891
C384	C	1.462580	0.808295	0.749891
C385	C	0.566333	0.150326	-0.000074
C386	C	0.816333	0.400326	0.249926
C387	C	1.066333	0.650326	0.499926
C388	C	1.316333	0.900326	0.749926
C389	C	0.566886	0.203981	-0.000065
C390	C	0.816886	0.453981	0.249935
C391	C	1.066886	0.703981	0.499935
C392	C	1.316886	0.953981	0.749935
N393	N	0.570494	0.061922	-0.143893
N394	N	0.820494	0.311922	0.106107
N395	N	1.070494	0.561922	0.356107
N396	N	1.320494	0.811922	0.606107
C397	C	0.599634	0.091035	-0.563673
C398	C	0.849634	0.341035	-0.313673
C399	C	1.099634	0.591035	-0.063673
C400	C	1.349634	0.841035	0.186327
C401	C	0.599639	0.091034	-0.627281
C402	C	0.849639	0.341034	-0.377281
C403	C	1.099639	0.591034	-0.127281
C404	C	1.349639	0.841034	0.122719
O405	O	0.624398	0.115784	-0.660172
O406	O	0.874398	0.365784	-0.410172
O407	O	1.124398	0.615784	-0.160172
O408	O	1.374398	0.865784	0.089828
N409	N	0.570545	0.061917	-0.659100
N410	N	0.820545	0.311917	-0.409100
N411	N	1.070545	0.561917	-0.159100
N412	N	1.320545	0.811917	0.090900
C413	C	0.541447	0.032796	-0.627309
C414	C	0.791447	0.282796	-0.377309
C415	C	1.041447	0.532796	-0.127309
C416	C	1.291447	0.782796	0.122691
O417	O	0.516701	0.008029	-0.660215
O418	O	0.766701	0.258029	-0.410215
O419	O	1.016701	0.508029	-0.160215
O420	O	1.266701	0.758029	0.089785
C421	C	0.541444	0.032795	-0.563703
C422	C	0.791444	0.282795	-0.313703
C423	C	1.041444	0.532795	-0.063703
C424	C	1.291444	0.782795	0.186297
C425	C	0.570537	0.061917	-0.531886
C426	C	0.820537	0.311917	-0.281886
C427	C	1.070537	0.561917	-0.031886
C428	C	1.320537	0.811917	0.218114
C429	C	0.628724	0.120155	-0.531857
C430	C	0.878724	0.370155	-0.281857
C431	C	1.128724	0.620155	-0.031857
C432	C	1.378724	0.870155	0.218143
C433	C	0.628718	0.120157	-0.468253
C434	C	0.878718	0.370157	-0.218253
C435	C	1.128718	0.620157	0.031747
C436	C	1.378718	0.870157	0.281747
C437	C	0.599621	0.091039	-0.436467
C438	C	0.849621	0.341039	-0.186467
C439	C	1.099621	0.591039	0.063533
C440	C	1.349621	0.841039	0.313533
C441	C	0.570530	0.061919	-0.468283
C442	C	0.820530	0.311919	-0.218283
C443	C	1.070530	0.561919	0.031717
C444	C	1.320530	0.811919	0.281717
C445	C	0.512349	0.003671	-0.531913
C446	C	0.762349	0.253671	-0.281913
C447	C	1.012349	0.503671	-0.031913
C448	C	1.262349	0.753671	0.218087
C449	C	0.512349	0.003672	-0.468302
C450	C	0.762349	0.253672	-0.218302
C451	C	1.012349	0.503672	0.031698
C452	C	1.262349	0.753672	0.281698
C453	C	0.541442	0.032795	-0.436486
C454	C	0.791442	0.282795	-0.186486
C455	C	1.041442	0.532795	0.063514
C456	C	1.291442	0.782795	0.313514
C457	C	0.541427	0.032803	-0.372893
C458	C	0.791427	0.282803	-0.122893
C459	C	1.041427	0.532803	0.127107
C460	C	1.291427	0.782803	0.377107
N461	N	0.570521	0.061920	-0.341074
N462	N	0.820521	0.311920	-0.091074
N463	N	1.070521	0.561920	0.158926
N464	N	1.320521	0.811920	0.408926
C465	C	0.599618	0.091038	-0.372860
C466	C	0.849618	0.341038	-0.122860
C467	C	1.099618	0.591038	0.127140
C468	C	1.349618	0.841038	0.377140
C469	C	0.541456	0.032799	-0.760887
C470	C	0.791456	0.282799	-0.510887
C471	C	1.041456	0.532799	-0.260887
C472	C	1.291456	0.782799	-0.010887
C473	C	0.541456	0.032803	-0.824492
C474	C	0.791456	0.282803	-0.574492
C475	C	1.041456	0.532803	-0.324492
C476	C	1.291456	0.782803	-0.074492
C477	C	0.599649	0.091040	-0.824459
C478	C	0.849649	0.341040	-0.574459
C479	C	1.099649	0.591040	-0.324459
C480	C	1.349649	0.841040	-0.074459
C481	C	0.599646	0.091039	-0.760853
C482	C	0.849646	0.341039	-0.510853
C483	C	1.099646	0.591039	-0.260853
C484	C	1.349646	0.841039	-0.010853
C485	C	0.570550	0.061916	-0.729067
C486	C	0.820550	0.311916	-0.479067
C487	C	1.070550	0.561916	-0.229067
C488	C	1.320550	0.811916	0.020933
C489	C	0.599602	0.091040	-0.239289
C490	C	0.849602	0.341040	0.010711
C491	C	1.099602	0.591040	0.260711
C492	C	1.349602	0.841040	0.510711
C493	C	0.599591	0.091040	-0.175680
C494	C	0.849591	0.341040	0.074320
C495	C	1.099591	0.591040	0.324320
C496	C	1.349591	0.841040	0.574320
C497	C	0.541400	0.032801	-0.175719
C498	C	0.791400	0.282801	0.074281
C499	C	1.041400	0.532801	0.324281
C500	C	1.291400	0.782801	0.574281
C501	C	0.541409	0.032802	-0.239322
C502	C	0.791409	0.282802	0.010678
C503	C	1.041409	0.532802	0.260678
C504	C	1.291409	0.782802	0.510678
C505	C	0.570513	0.061923	-0.271105
C506	C	0.820513	0.311923	-0.021105
C507	C	1.070513	0.561923	0.228895
C508	C	1.320513	0.811923	0.478895
O509	O	0.516683	0.008064	-0.339961
O510	O	0.766683	0.258064	-0.089961
O511	O	1.016683	0.508064	0.160039
O512	O	1.266683	0.758064	0.410039
O513	O	0.624365	0.115796	-0.339947
O514	O	0.874365	0.365796	-0.089947
O515	O	1.124365	0.615796	0.160053
O516	O	1.374365	0.865796	0.410053
N517	N	0.570555	0.061919	0.143715
N518	N	0.820555	0.311919	0.393715
N519	N	1.070555	0.561919	0.643715
N520	N	1.320555	0.811919	0.893715
H521	H	-0.033711	-0.063365	-0.000118
H522	H	0.216289	0.186635	0.249882
H523	H	0.466289	0.436635	0.499882
H524	H	0.716289	0.686635	0.749882
O525	O	0.066009	-0.074020	-0.000118
O526	O	0.316009	0.175980	0.249882
O527	O	0.566009	0.425980	0.499882
O528	O	0.816009	0.675980	0.749882
H529	H	0.059248	-0.095249	0.041068
H530	H	0.309248	0.154751	0.291068
H531	H	0.559248	0.404751	0.541068
H532	H	0.809248	0.654751	0.791068
H533	H	0.445243	-0.542300	-0.000040
H534	H	0.695243	-0.292300	0.249960
H535	H	0.945243	-0.042300	0.499960
H536	H	1.195243	0.207700	0.749960
H537	H	0.647841	-0.710911	-0.000088
H538	H	0.897841	-0.460911	0.249912
H539	H	1.147841	-0.210911	0.499912
H540	H	1.397841	0.039089	0.749912
O541	O	0.705993	-0.480025	-0.000098
O542	O	0.955993	-0.230025	0.249902
O543	O	1.205993	0.019975	0.499902
O544	O	1.455993	0.269975	0.749902
H545	H	0.708345	-0.457340	0.041085
H546	H	0.958345	-0.207340	0.291085
H547	H	1.208345	0.042660	0.541085
H548	H	1.458345	0.292660	0.791085
H549	H	0.446173	-0.450852	-0.000043
H550	H	0.696173	-0.200852	0.249957
H551	H	0.946173	0.049148	0.499957
H552	H	1.196173	0.299148	0.749957
H553	H	0.517713	0.009094	-0.265228
H554	H	0.767713	0.259094	-0.015228
H555	H	1.017713	0.509094	0.234772
H556	H	1.267713	0.759094	0.484772
O557	O	0.510051	0.001376	-0.141407
O558	O	0.760051	0.251376	0.108593
O559	O	1.010051	0.501376	0.358593
O560	O	1.260051	0.751376	0.608593
H561	H	0.483899	0.024709	-0.112407
H562	H	0.733899	0.274709	0.137593
H563	H	0.983899	0.524709	0.387593
H564	H	1.233899	0.774709	0.637593
O565	O	0.481489	-0.170303	-0.000084
O566	O	0.731489	0.079697	0.249916
O567	O	0.981489	0.329697	0.499916
O568	O	1.231489	0.579697	0.749916
H569	H	0.479135	-0.192986	-0.041269
H570	H	0.729135	0.057014	0.208731
H571	H	0.979135	0.307014	0.458731
H572	H	1.229135	0.557014	0.708731
H573	H	0.488656	-0.020044	-0.442426
H574	H	0.738656	0.229956	-0.192426
H575	H	0.988656	0.479956	0.057574
H576	H	1.238656	0.729956	0.307574
O577	O	0.631028	0.122449	-0.726542
O578	O	0.881028	0.372449	-0.476542
O579	O	1.131028	0.622449	-0.226542
O580	O	1.381028	0.872449	0.023458
H581	H	0.607659	0.148590	-0.697567
H582	H	0.857659	0.398590	-0.447567
H583	H	1.107659	0.648590	-0.197567
H584	H	1.357659	0.898590	0.052433
H585	H	0.693341	-0.576544	-0.000090
H586	H	0.943341	-0.326544	0.249910
H587	H	1.193341	-0.076544	0.499910
H588	H	1.443341	0.173456	0.749910
O589	O	0.658492	-0.810644	-0.000077
O590	O	0.908492	-0.560644	0.249923
O591	O	1.158492	-0.310644	0.499923
O592	O	1.408492	-0.060644	0.749923
H593	H	0.650682	-0.848911	-0.000069
H594	H	0.900682	-0.598911	0.249931
H595	H	1.150682	-0.348911	0.499931
H596	H	1.400682	-0.098911	0.749931
H597	H	-0.271701	-0.021634	-0.000115
H598	H	-0.021701	0.228366	0.249885
H599	H	0.228299	0.478366	0.499885
H600	H	0.478299	0.728366	0.749885
H601	H	-0.180248	-0.020712	-0.000122
H602	H	0.069752	0.229288	0.249878
H603	H	0.319752	0.479288	0.499878
H604	H	0.569752	0.729288	0.749878
H605	H	0.494142	-0.073782	-0.000092
H606	H	0.744142	0.176218	0.249908
H607	H	0.994142	0.426218	0.499908
H608	H	1.244142	0.676218	0.749908
O609	O	-0.302043	0.149894	-0.000103
O610	O	-0.052043	0.399894	0.249897
O611	O	0.197957	0.649894	0.499897
O612	O	0.447957	0.899894	0.749897
H613	H	-0.295290	0.171135	0.041086
H614	H	-0.045290	0.421135	0.291086
H615	H	0.204710	0.671135	0.541086
H616	H	0.454710	0.921135	0.791086
O617	O	0.338298	-0.027120	-0.000092
O618	O	0.588298	0.222880	0.249908
O619	O	0.838298	0.472880	0.499908
O620	O	1.088298	0.722880	0.749908
H621	H	0.350895	-0.048160	0.041089
H622	H	0.600895	0.201840	0.291089
H623	H	0.850895	0.451840	0.541089
H624	H	1.100895	0.701840	0.791089
O625	O	0.443087	-0.026055	-0.000087
O626	O	0.693087	0.223945	0.249913
O627	O	0.943087	0.473945	0.499913
O628	O	1.193087	0.723945	0.749913
H629	H	0.481355	-0.018246	-0.000088
H630	H	0.731355	0.231754	0.249912
H631	H	0.981355	0.481754	0.499912
H632	H	1.231355	0.731754	0.749912
H633	H	0.623282	0.114758	-0.149778
H634	H	0.873282	0.364758	0.100222
H635	H	1.123282	0.614758	0.350222
H636	H	1.373282	0.864758	0.600222
O637	O	0.475244	-0.785356	-0.000050
O638	O	0.725244	-0.535356	0.249950
O639	O	0.975244	-0.285356	0.499950
O640	O	1.225244	-0.035356	0.749950
H641	H	0.444860	-0.755125	-0.000040
H642	H	0.694860	-0.505125	0.249960
H643	H	0.944860	-0.255125	0.499960
H644	H	1.194860	-0.005125	0.749960
H645	H	0.412744	0.145477	-0.000047
H646	H	0.662744	0.395477	0.249953
H647	H	0.912744	0.645477	0.499953
H648	H	1.162744	0.895477	0.749953
O649	O	0.313020	0.156133	-0.000062
O650	O	0.563020	0.406133	0.249938
O651	O	0.813020	0.656133	0.499938
O652	O	1.063020	0.906133	0.749938
H653	H	0.334796	0.187043	-0.000048
H654	H	0.584796	0.437043	0.249952
H655	H	0.834796	0.687043	0.499952
H656	H	1.084796	0.937043	0.749952
H657	H	0.623302	0.114752	-0.265160
H658	H	0.873302	0.364752	-0.015160
H659	H	1.123302	0.614752	0.234840
H660	H	1.373302	0.864752	0.484840
H661	H	0.023501	0.185672	-0.000094
H662	H	0.273501	0.435672	0.249906
H663	H	0.523501	0.685672	0.499906
H664	H	0.773501	0.935672	0.749906
H665	H	0.652410	0.143869	-0.442354
H666	H	0.902410	0.393869	-0.192354
H667	H	1.152410	0.643869	0.057646
H668	H	1.402410	0.893869	0.307646
O669	O	0.664746	-0.195580	-0.000116
O670	O	0.914746	0.054420	0.249884
O671	O	1.164746	0.304420	0.499884
O672	O	1.414746	0.554420	0.749884
H673	H	0.666610	-0.218847	-0.041300
H674	H	0.916610	0.031153	0.208700
H675	H	1.166610	0.281153	0.458700
H676	H	1.416610	0.531153	0.708700
O677	O	0.660111	0.151566	-0.566130
O678	O	0.910111	0.401566	-0.316130
O679	O	1.160111	0.651566	-0.066130
O680	O	1.410111	0.901566	0.183870
H681	H	0.686272	0.128220	-0.595104
H682	H	0.936272	0.378220	-0.345104
H683	H	1.186272	0.628220	-0.095104
H684	H	1.436272	0.878220	0.154896
O685	O	-0.076224	0.196322	-0.000104
O686	O	0.173776	0.446322	0.249896
O687	O	0.423776	0.696322	0.499896
O688	O	0.673776	0.946322	0.749896
H689	H	-0.054452	0.227235	-0.000095
H690	H	0.195548	0.477235	0.249905
H691	H	0.445548	0.727235	0.499905
H692	H	0.695548	0.977235	0.749905
O693	O	0.112467	-0.073549	-0.000125
O694	O	0.362467	0.176451	0.249875
O695	O	0.612467	0.426451	0.499875
O696	O	0.862467	0.676451	0.749875
H697	H	0.142699	-0.103931	-0.000136
H698	H	0.392699	0.146069	0.249864
H699	H	0.642699	0.396069	0.499864
H700	H	0.892699	0.646069	0.749864
H701	H	0.446774	-0.391054	-0.000034
H702	H	0.696774	-0.141054	0.249966
H703	H	0.946774	0.108946	0.499966
H704	H	1.196774	0.358946	0.749966
H705	H	0.623340	0.114751	-0.850352
H706	H	0.873340	0.364751	-0.600352
H707	H	1.123340	0.614751	-0.350352
H708	H	1.373340	0.864751	-0.100352
O709	O	0.217253	-0.072485	-0.000120
O710	O	0.467253	0.177515	0.249880
O711	O	0.717253	0.427515	0.499880
O712	O	0.967253	0.677515	0.749880
H713	H	0.255521	-0.064675	-0.000125
H714	H	0.505521	0.185325	0.249875
H715	H	0.755521	0.435325	0.499875
H716	H	1.005521	0.685325	0.749875
H717	H	0.174748	0.187200	-0.000077
H718	H	0.424748	0.437200	0.249923
H719	H	0.674748	0.687200	0.499923
H720	H	0.924748	0.937200	0.749923
O721	O	0.075027	0.197853	-0.000079
O722	O	0.325027	0.447853	0.249921
O723	O	0.575027	0.697853	0.499921
O724	O	0.825027	0.947853	0.749921
H725	H	0.096802	0.228763	-0.000067
H726	H	0.346802	0.478763	0.249933
H727	H	0.596802	0.728763	0.499933
H728	H	0.846802	0.978763	0.749933
O729	O	-0.197244	0.150958	-0.000094
O730	O	0.052756	0.400958	0.249906
O731	O	0.302756	0.650958	0.499906
O732	O	0.552756	0.900958	0.749906
H733	H	-0.227472	0.181345	-0.000094
H734	H	0.022528	0.431345	0.249906
H735	H	0.272528	0.681345	0.499906
H736	H	0.522528	0.931345	0.749906
O737	O	0.476306	-0.680572	-0.000057
O738	O	0.726306	-0.430572	0.249943
O739	O	0.976306	-0.180572	0.499943
O740	O	1.226306	0.069428	0.749943
H741	H	0.445396	-0.702347	-0.000060
H742	H	0.695396	-0.452347	0.249940
H743	H	0.945396	-0.202347	0.499940
H744	H	1.195396	0.047653	0.749940
O745	O	0.480974	-0.027754	-0.566203
O746	O	0.730974	0.222246	-0.316203
O747	O	0.980974	0.472246	-0.066203
O748	O	1.230974	0.722246	0.183797
H749	H	0.454809	-0.004420	-0.595185
H750	H	0.704809	0.245580	-0.345185
H751	H	0.954809	0.495580	-0.095185
H752	H	1.204809	0.745580	0.154815
O753	O	0.510087	0.001383	-0.858807
O754	O	0.760087	0.251383	-0.608807
O755	O	1.010087	0.501383	-0.358807
O756	O	1.260087	0.751383	-0.108807
H757	H	0.489862	-0.018870	-0.826011
H758	H	0.739862	0.231130	-0.576011
H759	H	0.989862	0.481130	-0.326011
H760	H	1.239862	0.731130	-0.076011
H761	H	0.447706	-0.299603	-0.000038
H762	H	0.697706	-0.049603	0.249962
H763	H	0.947706	0.200397	0.499962
H764	H	1.197706	0.450397	0.749962
O765	O	0.665804	-0.090797	-0.000121
O766	O	0.915804	0.159203	0.249879
O767	O	1.165804	0.409203	0.499879
O768	O	1.415804	0.659203	0.749879
H769	H	0.696188	-0.121026	-0.000116
H770	H	0.946188	0.128974	0.249884
H771	H	1.196188	0.378974	0.499884
H772	H	1.446188	0.628974	0.749884
H773	H	0.695813	-0.333847	-0.000112
H774	H	0.945813	-0.083847	0.249888
H775	H	1.195813	0.166153	0.499888
H776	H	1.445813	0.416153	0.749888
O777	O	0.706465	-0.433568	-0.000114
O778	O	0.956465	-0.183568	0.249886
O779	O	1.206465	0.066432	0.499886
O780	O	1.456465	0.316432	0.749886
H781	H	0.737375	-0.411792	-0.000129
H782	H	0.987375	-0.161792	0.249871
H783	H	1.237375	0.088208	0.499871
H784	H	1.487375	0.338208	0.749871
H785	H	0.517758	0.009086	-0.735011
H786	H	0.767758	0.259086	-0.485011
H787	H	1.017758	0.509086	-0.235011
H788	H	1.267758	0.759086	0.014989
