data_functionalizedCrystal
_audit_creation_method	'MofGen! by Chris Wilmer'
_symmetry_space_group_name_H-M	'P1'
_symmetry_Int_Tables_number	1
_symmetry_cell_setting	triclinic
loop_
_symmetry_equiv_pos_as_xyz
  x,y,z
_cell_length_a	10.268362
_cell_length_b	19.288864
_cell_length_c	19.288865
_cell_angle_alpha	83.136245
_cell_angle_beta	89.989489
_cell_angle_gamma	89.981569
loop_
_atom_site_label
_atom_site_type_symbol
_atom_site_fract_x
_atom_site_fract_y
_atom_site_fract_z
O1	O	0.108733	-0.921348	-0.086648
O2	O	0.608733	-0.421348	0.413352
O3	O	0.108646	-0.719088	-0.098337
O4	O	0.608646	-0.219088	0.401663
O5	O	0.108666	-0.826062	0.008638
O6	O	0.608666	-0.326062	0.508638
O7	O	0.108712	-0.814374	-0.193623
O8	O	0.608712	-0.314374	0.306377
O9	O	-0.107935	-0.826053	0.008642
O10	O	0.392065	-0.326053	0.508642
O11	O	-0.107955	-0.719078	-0.098333
O12	O	0.392045	-0.219078	0.401667
O13	O	-0.107868	-0.921339	-0.086644
O14	O	0.392132	-0.421339	0.413356
Cu15	Cu	-0.127689	-0.820208	-0.092488
Cu16	Cu	0.372311	-0.320208	0.407512
Cu17	Cu	0.128467	-0.820219	-0.092493
Cu18	Cu	0.628467	-0.320219	0.407507
O19	O	-0.107888	-0.814364	-0.193619
O20	O	0.392112	-0.314364	0.306381
C21	C	0.000334	-0.693207	-0.097959
C22	C	0.500334	-0.193207	0.402041
C23	C	0.000299	-0.616103	-0.096830
C24	C	0.500299	-0.116103	0.403170
N25	N	-0.307855	-0.820205	-0.092484
N26	N	0.192145	-0.320205	0.407516
C27	C	0.000362	-0.825682	0.034516
C28	C	0.500362	-0.325682	0.534516
C29	C	0.000350	-0.824553	0.111620
C30	C	0.500350	-0.324553	0.611620
C31	C	-0.573525	-0.820215	-0.092492
C32	C	-0.073525	-0.320215	0.407508
C33	C	-0.425687	-0.820207	-0.092489
C34	C	0.074313	-0.320207	0.407511
N35	N	0.308632	-0.820227	-0.092492
N36	N	0.808632	-0.320227	0.407508
C37	C	0.000447	-0.947220	-0.087022
C38	C	0.500447	-0.447220	0.412978
C39	C	0.000490	-1.024324	-0.088151
C40	C	0.500490	-0.524324	0.411849
C41	C	0.000334	-0.571407	-0.159598
C42	C	0.500334	-0.071407	0.340402
C43	C	0.000349	-0.498960	-0.158537
C44	C	0.500349	0.001040	0.341463
C45	C	0.000354	-0.471212	-0.094705
C46	C	0.500354	0.028788	0.405295
C47	C	0.000312	-0.515918	-0.031929
C48	C	0.500312	-0.015918	0.468071
C49	C	0.000284	-0.588364	-0.032991
C50	C	0.500284	-0.088364	0.467009
C51	C	0.076271	-0.362953	-0.044527
C52	C	0.576271	0.137047	0.455473
C53	C	0.076306	-0.290509	-0.043467
C54	C	0.576306	0.209491	0.456533
C55	C	0.000432	-0.247767	-0.091425
C56	C	0.500432	0.252233	0.408575
C57	C	-0.075461	-0.277476	-0.140455
C58	C	0.424539	0.222524	0.359545
C59	C	-0.075488	-0.349921	-0.141517
C60	C	0.424512	0.150079	0.358483
C61	C	0.000383	-0.392658	-0.093546
C62	C	0.500383	0.107342	0.406454
C63	C	0.000480	-0.124514	-0.153047
C64	C	0.500480	0.375486	0.346953
C65	C	0.000486	-0.052066	-0.151984
C66	C	0.500486	0.447934	0.348016
C67	C	0.000463	-0.069026	-0.025374
C68	C	0.500463	0.430974	0.474626
C69	C	0.000443	-0.141473	-0.026439
C70	C	0.500443	0.358527	0.473561
C71	C	0.000459	-0.169212	-0.090278
C72	C	0.500459	0.330788	0.409722
C73	C	0.000419	-0.814745	-0.219497
C74	C	0.500419	-0.314745	0.280503
C75	C	0.000440	-0.815874	-0.296601
C76	C	0.500440	-0.315874	0.203399
C77	C	0.000370	-0.887321	0.156316
C78	C	0.500370	-0.387321	0.656316
C79	C	0.000390	-0.886260	0.228763
C80	C	0.500390	-0.386260	0.728763
C81	C	0.000364	-0.822428	0.256511
C82	C	0.500364	-0.322428	0.756511
C83	C	0.000350	-0.759652	0.211805
C84	C	0.500350	-0.259652	0.711805
C85	C	0.000343	-0.760714	0.139359
C86	C	0.500343	-0.260714	0.639359
C87	C	-0.075528	-0.772245	0.364800
C88	C	0.424472	-0.272245	0.864800
C89	C	-0.075529	-0.771185	0.437244
C90	C	0.424471	-0.271185	0.937244
C91	C	0.000391	-0.819148	0.479956
C92	C	0.500391	-0.319148	0.979956
C93	C	0.076296	-0.868183	0.450217
C94	C	0.576296	-0.368183	0.950217
C95	C	0.076289	-0.869245	0.377771
C96	C	0.576289	-0.369245	0.877771
C97	C	0.000372	-0.821269	0.335065
C98	C	0.500372	-0.321269	0.835065
C99	C	0.000436	-0.880770	0.603209
C100	C	0.500436	-0.380770	1.103209
C101	C	0.000464	-0.879707	0.675657
C102	C	0.500464	-0.379707	1.175657
C103	C	0.000411	-0.753097	0.658697
C104	C	0.500411	-0.253097	1.158697
C105	C	0.000396	-0.754162	0.586250
C106	C	0.500396	-0.254162	1.086250
C107	C	0.000402	-0.818000	0.558511
C108	C	0.500402	-0.318000	1.058511
H109	H	0.000373	-0.462561	-0.209652
H110	H	0.500373	0.037439	0.290348
O111	O	0.000328	-0.601317	-0.228454
O112	O	0.500328	-0.101317	0.271546
H113	H	0.088602	-0.633938	-0.231977
H114	H	0.588602	-0.133938	0.268023
H115	H	-0.137359	-0.733186	0.330028
H116	H	0.362641	-0.233186	0.830028
H117	H	-0.137328	-0.731255	0.461452
H118	H	0.362672	-0.231255	0.961452
H119	H	0.138119	-0.907239	0.484992
H120	H	0.638119	-0.407239	0.984992
H121	H	0.000396	-0.701123	0.681288
H122	H	0.500396	-0.201123	1.181288
O123	O	0.000246	-0.636579	0.034711
O124	O	0.500246	-0.136579	0.534711
H125	H	0.088530	-0.626769	0.065269
H126	H	0.588530	-0.126769	0.565269
H127	H	0.000412	-0.937375	0.265162
H128	H	0.500412	-0.437375	0.765162
H129	H	0.000332	-0.707679	0.234401
H130	H	0.500332	-0.207679	0.734401
O131	O	0.000303	-0.693008	0.091150
O132	O	0.500303	-0.193008	0.591150
H133	H	0.088582	-0.690462	0.057728
H134	H	0.588582	-0.190462	0.557728
O135	O	0.000341	-0.686462	0.538034
O136	O	0.500341	-0.186462	1.038034
H137	H	0.000310	-0.641896	0.569498
H138	H	0.500310	-0.141896	1.069498
O139	O	0.158104	-0.409049	0.007210
O140	O	0.658104	0.090951	0.507210
H141	H	0.145323	-0.464416	-0.001759
H142	H	0.645323	0.035584	0.498241
O143	O	-0.157310	-0.231383	-0.192181
O144	O	0.342690	0.268617	0.307819
H145	H	-0.126060	-0.238098	-0.246063
H146	H	0.373940	0.261902	0.253937
H147	H	0.000488	-0.930822	0.712049
H148	H	0.500488	-0.430822	1.212049
O149	O	-0.157391	-0.381973	-0.194368
O150	O	0.342609	0.118027	0.305632
H151	H	-0.210173	-0.340087	-0.227530
H152	H	0.289827	0.159913	0.272470
O153	O	0.000470	-0.154442	-0.221897
O154	O	0.500470	0.345558	0.278103
H155	H	0.000472	-0.111187	-0.265367
H156	H	0.500472	0.388813	0.234633
H157	H	0.138096	-0.909169	0.353560
H158	H	0.638096	-0.409169	0.853560
H159	H	0.000507	-0.015674	-0.203099
H160	H	0.500507	0.484326	0.296901
H161	H	0.000334	-0.493322	0.020044
H162	H	0.500334	0.006678	0.520044
H163	H	0.000422	-0.177866	0.024674
H164	H	0.500422	0.322134	0.524674
O165	O	0.000469	-0.039111	0.043477
O166	O	0.500469	0.460889	0.543477
H167	H	0.000500	0.018774	0.033672
H168	H	0.500500	0.518774	0.533672
O169	O	0.158140	-0.258466	0.009418
O170	O	0.658140	0.241534	0.509418
H171	H	0.210868	-0.300358	0.042600
H172	H	0.710868	0.199642	0.542600
O173	O	0.000413	-0.956171	0.126395
O174	O	0.500413	-0.456171	0.626395
H175	H	0.000450	-0.999640	0.169652
H176	H	0.500450	-0.499640	0.669652
O177	O	0.000469	-0.949620	0.573281
O178	O	0.500469	-0.449620	1.073281
H179	H	0.000511	-0.993090	0.616536
H180	H	0.500511	-0.493090	1.116536
