data_functionalizedCrystal
_audit_creation_method	'MofGen! by Chris Wilmer'
_symmetry_space_group_name_H-M	'P1'
_symmetry_Int_Tables_number	1
_symmetry_cell_setting	triclinic
loop_
_symmetry_equiv_pos_as_xyz
  x,y,z
_cell_length_a	12.827893
_cell_length_b	29.839131
_cell_length_c	12.827885
_cell_angle_alpha	90.036821
_cell_angle_beta	90.019272
_cell_angle_gamma	90.041391
loop_
_atom_site_label
_atom_site_type_symbol
_atom_site_fract_x
_atom_site_fract_y
_atom_site_fract_z
Zn1	Zn	1.597481	-0.178832	0.590798
Zn2	Zn	1.597295	-0.253969	0.416036
Zn3	Zn	1.422722	-0.178854	0.416071
Zn4	Zn	1.422628	-0.253936	0.590736
O5	O	1.510031	-0.216398	0.503410
O6	O	1.743692	-0.188804	0.567626
O7	O	1.574100	-0.244028	0.269805
O8	O	1.446021	-0.115984	0.439289
O9	O	1.743556	-0.244007	0.439230
O10	O	1.574415	-0.115968	0.567660
O11	O	1.445841	-0.188841	0.269830
O12	O	1.276473	-0.188809	0.439230
O13	O	1.445861	-0.243950	0.736981
O14	O	1.276404	-0.243971	0.567556
O15	O	1.574324	-0.188771	0.737026
O16	O	1.574008	-0.316832	0.439170
O17	O	1.445681	-0.316807	0.567522
C18	C	1.238522	-0.216389	0.503390
C19	C	1.122368	-0.216396	0.503407
C20	C	1.070577	-0.243735	0.566808
C21	C	0.950527	-0.243743	0.566827
C22	C	1.509843	-0.333120	0.503359
C23	C	1.509858	-0.383055	0.503371
C24	C	1.576973	-0.692698	0.436675
C25	C	1.577102	-0.880371	0.436716
O26	O	1.634016	-0.904636	0.379969
N27	N	1.510248	-0.903840	0.503489
C28	C	1.443362	-0.880387	0.570262
O29	O	1.386509	-0.904655	0.627065
C30	C	1.443239	-0.692715	0.570226
C31	C	1.510090	-0.669249	0.503441
C32	C	1.643819	-0.669232	0.369897
C33	C	1.643782	-0.622317	0.369883
C34	C	1.576899	-0.598867	0.436648
C35	C	1.510053	-0.622333	0.503427
C36	C	1.376359	-0.669263	0.637003
C37	C	1.376336	-0.622342	0.636990
C38	C	1.443187	-0.598876	0.570205
C39	C	1.443133	-0.551969	0.570179
N40	N	1.509987	-0.528500	0.503406
C41	C	1.576870	-0.551949	0.436641
C42	C	1.443430	-0.978918	0.570274
C43	C	1.443459	-1.025835	0.570282
C44	C	1.577201	-1.025816	0.436738
C45	C	1.577165	-0.978898	0.436725
C46	C	1.510284	-0.955449	0.503501
C47	C	1.576787	-0.453424	0.436617
C48	C	1.576741	-0.406504	0.436606
C49	C	1.443004	-0.406527	0.570154
C50	C	1.443045	-0.453443	0.570161
C51	C	1.509945	-0.476890	0.503389
O52	O	1.386257	-0.527675	0.626905
O53	O	1.633731	-0.527674	0.379862
C54	C	1.577010	-0.739614	0.436689
C55	C	1.510164	-0.763080	0.503468
C56	C	1.443281	-0.739630	0.570233
C57	C	1.510193	-0.809997	0.503476
C58	C	1.577076	-0.833447	0.436710
C59	C	1.643930	-0.809978	0.369937
C60	C	1.643893	-0.763063	0.369924
C61	C	1.376427	-0.763099	0.637006
C62	C	1.376468	-0.810014	0.637013
C63	C	1.443351	-0.833464	0.570248
C64	C	1.782602	-0.216407	0.503431
C65	C	1.898755	-0.216410	0.503440
C66	C	1.510103	-0.216354	0.775981
C67	C	1.510133	-0.216336	0.892134
C68	C	1.510249	-0.099219	0.503485
C69	C	1.510342	-0.049285	0.503517
C70	C	1.510021	-0.216408	0.231900
C71	C	1.510193	-0.216300	0.115748
C72	C	1.446618	-0.243609	1.063941
C73	C	1.446585	-0.243629	0.943890
H74	H	0.905987	-0.267150	0.621104
H75	H	0.943287	-0.193005	0.449153
H76	H	1.392161	-0.267011	0.899338
O77	O	1.069206	-0.188545	0.438541
C78	C	0.945756	-0.182493	0.297634
C79	C	1.005907	-0.214085	0.371021
H80	H	0.894547	-0.203129	0.243041
H81	H	1.003381	-0.161919	0.249817
H82	H	0.894751	-0.159038	0.345773
H83	H	1.056913	-0.237567	0.322963
H84	H	0.948225	-0.234627	0.418842
H85	H	1.564568	-0.192956	0.936680
O86	O	1.708936	-0.832692	0.304984
C87	C	1.841639	-0.827737	0.172575
C88	C	1.768056	-0.801956	0.246053
H89	H	1.889472	-0.802898	0.124926
H90	H	1.793757	-0.849731	0.117829
H91	H	1.896217	-0.849675	0.220636
H92	H	1.713463	-0.779994	0.198077
H93	H	1.816003	-0.779990	0.300802
H94	H	1.631178	-0.387399	0.382218
O95	O	1.574952	-0.188398	1.062531
C96	C	1.588962	-0.127788	0.939273
C97	C	1.515506	-0.159369	0.999450
H98	H	1.540928	-0.104304	0.888274
H99	H	1.643492	-0.148415	0.888087
H100	H	1.636853	-0.107245	0.996974
H101	H	1.467547	-0.179920	0.941824
H102	H	1.461044	-0.138716	1.050651
O103	O	1.378071	-0.476171	0.635129
C104	C	1.245381	-0.471232	0.767551
C105	C	1.318917	-0.445442	0.694034
H106	H	1.197520	-0.446399	0.815179
H107	H	1.293302	-0.493142	0.822315
H108	H	1.190827	-0.493255	0.719524
H109	H	1.373485	-0.423395	0.741977
H110	H	1.270930	-0.423560	0.639267
H111	H	1.321964	-0.744010	0.691376
O112	O	1.123860	-0.271638	0.631453
C113	C	1.292092	-0.297039	0.690452
C114	C	1.231884	-0.265422	0.617170
H115	H	1.379440	-0.292017	0.678946
H116	H	1.270716	-0.333274	0.671967
H117	H	1.270682	-0.289208	0.774761
H118	H	1.253262	-0.273212	0.532837
H119	H	1.253265	-0.229196	0.635746
O120	O	1.641802	-0.476126	0.371653
C121	C	1.774482	-0.471143	0.239228
C122	C	1.700897	-0.445377	0.312733
H123	H	1.822295	-0.446294	0.191588
H124	H	1.726602	-0.493135	0.184475
H125	H	1.829078	-0.493081	0.287266
H126	H	1.646286	-0.423414	0.264780
H127	H	1.748841	-0.423414	0.367489
H128	H	1.698221	-0.603213	0.315504
H129	H	1.698289	-0.688320	0.315528
O130	O	1.311670	-0.832855	0.701946
C131	C	1.297591	-0.885756	0.843102
C132	C	1.371079	-0.859927	0.769609
H133	H	1.345595	-0.907642	0.897841
H134	H	1.243000	-0.907795	0.795156
H135	H	1.249766	-0.860923	0.890768
H136	H	1.418972	-0.884728	0.721927
H137	H	1.425601	-0.837881	0.817616
O138	O	1.642206	-0.956174	0.371821
C139	C	1.774809	-0.961120	0.239314
C140	C	1.701218	-0.986907	0.312784
H141	H	1.822524	-0.985956	0.191547
H142	H	1.829488	-0.939130	0.287281
H143	H	1.726833	-0.939179	0.184669
H144	H	1.749109	-1.008872	0.367443
H145	H	1.646536	-1.008869	0.264752
H146	H	1.392211	-0.266974	1.108464
H147	H	1.631660	-1.044917	0.382375
H148	H	1.388545	-0.387427	0.624511
H149	H	1.389013	-1.044938	0.624656
H150	H	1.321917	-0.688361	0.691381
O151	O	1.378350	-0.956212	0.635170
C152	C	1.245733	-0.961195	0.767659
C153	C	1.319371	-0.986961	0.694207
H154	H	1.198045	-0.986045	0.815425
H155	H	1.191031	-0.939282	0.719678
H156	H	1.293669	-0.939179	0.822305
H157	H	1.271519	-1.009002	0.639546
H158	H	1.374076	-1.008847	0.742253
H159	H	1.321874	-0.603252	0.691370
O160	O	1.708688	-0.740252	0.304941
C161	C	1.722810	-0.687307	0.163879
C162	C	1.649306	-0.713116	0.237393
H163	H	1.674830	-0.665354	0.109263
H164	H	1.770595	-0.712112	0.116094
H165	H	1.777437	-0.665322	0.211918
H166	H	1.594615	-0.735101	0.189435
H167	H	1.601594	-0.688286	0.285182
