data_functionalizedCrystal
_audit_creation_method	'MofGen! by Chris Wilmer'
_symmetry_space_group_name_H-M	'P1'
_symmetry_Int_Tables_number	1
_symmetry_cell_setting	triclinic
loop_
_symmetry_equiv_pos_as_xyz
  x,y,z
_cell_length_a	12.759401
_cell_length_b	12.645330
_cell_length_c	12.759393
_cell_angle_alpha	89.971026
_cell_angle_beta	89.979062
_cell_angle_gamma	90.019217
loop_
_atom_site_label
_atom_site_type_symbol
_atom_site_fract_x
_atom_site_fract_y
_atom_site_fract_z
Zn1	Zn	1.606245	-0.421945	-0.594031
Zn2	Zn	1.606126	-0.599246	-0.418356
Zn3	Zn	1.430543	-0.422001	-0.418366
Zn4	Zn	1.430526	-0.599172	-0.593993
O5	O	1.518360	-0.510591	-0.506187
O6	O	1.753250	-0.445472	-0.570739
O7	O	1.582793	-0.575788	-0.271336
O8	O	1.453907	-0.273647	-0.441689
O9	O	1.753163	-0.575734	-0.441671
O10	O	1.582994	-0.273605	-0.570749
O11	O	1.453793	-0.445568	-0.271344
O12	O	1.283520	-0.445496	-0.441652
O13	O	1.453878	-0.575607	-0.741019
O14	O	1.283507	-0.575662	-0.570684
O15	O	1.582977	-0.445400	-0.741047
O16	O	1.582776	-0.747583	-0.441634
O17	O	1.453763	-0.747529	-0.570674
C18	C	1.245393	-0.510578	-0.506166
C19	C	1.128616	-0.510598	-0.506182
C20	C	1.518283	-0.786021	-0.506172
C21	C	1.518347	-0.903851	-0.506201
C22	C	1.073775	-0.578479	-0.573263
C23	C	0.964051	-0.578483	-0.573284
C24	C	0.964019	-0.442722	-0.439133
C25	C	1.073741	-0.442714	-0.439118
C26	C	1.437519	-1.071424	-0.587630
C27	C	1.437106	-0.948865	-0.587368
C28	C	1.488371	-0.948453	-0.395479
C29	C	1.487878	-1.071052	-0.395973
C30	C	1.629644	-1.070935	-0.534596
C31	C	1.628962	-0.948328	-0.537017
C32	C	1.792393	-0.510605	-0.506208
C33	C	1.909170	-0.510610	-0.506217
C34	C	1.518439	-0.510489	-0.780220
C35	C	1.518472	-0.510446	-0.896997
C36	C	1.518466	-0.234086	-0.506224
C37	C	1.518511	-0.116255	-0.506241
C38	C	1.585699	-0.442636	-0.951875
C39	C	1.585717	-0.442590	-1.061599
C40	C	1.451278	-0.578173	-1.061557
C41	C	1.451255	-0.578213	-0.951835
C42	C	1.518342	-0.510616	-0.233219
C43	C	1.518512	-0.510360	-0.116443
H44	H	1.118451	-0.633752	-0.627873
C45	C	1.636984	-0.263076	-1.095394
C46	C	1.659620	-0.368051	-1.121916
H47	H	1.682615	-0.217058	-1.132626
H48	H	1.566413	-0.247554	-1.113373
H49	H	1.646590	-0.253423	-1.022196
H50	H	1.650006	-0.377706	-1.195113
H51	H	1.730207	-0.383579	-1.103944
H52	H	1.396503	-0.633431	-0.907152
C53	C	0.840624	-0.721101	-0.587654
C54	C	0.903766	-0.653100	-0.647019
H55	H	0.803404	-0.767162	-0.633180
H56	H	0.883392	-0.761589	-0.541812
H57	H	0.792242	-0.680665	-0.547722
H58	H	0.952154	-0.693536	-0.686945
H59	H	0.860995	-0.612608	-0.692879
H60	H	1.640429	-0.387452	-0.907229
C61	C	0.795807	-0.382454	-0.379590
C62	C	0.903696	-0.368111	-0.365415
H63	H	0.758570	-0.336395	-0.334072
H64	H	0.777871	-0.367028	-0.450201
H65	H	0.777810	-0.453666	-0.364090
H66	H	0.921694	-0.296900	-0.380923
H67	H	0.921639	-0.383530	-0.294788
C68	C	1.288697	-0.847897	-0.645349
C69	C	1.325885	-0.909399	-0.562003
H70	H	1.220028	-0.823541	-0.629687
H71	H	1.333827	-0.789030	-0.655534
H72	H	1.287000	-0.889421	-0.707348
H73	H	1.327589	-0.867872	-0.500005
H74	H	1.280743	-0.968275	-0.551806
H75	H	1.455861	-0.918705	-0.669468
C76	C	1.062696	-0.308524	-0.306503
C77	C	1.134030	-0.368097	-0.365373
H78	H	1.099919	-0.262465	-0.260976
H79	H	1.019936	-0.268033	-0.352349
H80	H	1.019867	-0.354677	-0.266243
H81	H	1.176855	-0.321944	-0.405639
H82	H	1.176809	-0.408591	-0.319520
C83	C	1.436650	-0.720728	-1.184921
C84	C	1.377404	-0.652670	-1.121839
H85	H	1.391041	-0.766724	-1.222128
H86	H	1.476681	-0.680337	-1.233305
H87	H	1.482395	-0.761292	-1.142105
H88	H	1.331663	-0.612100	-1.164655
H89	H	1.337354	-0.693065	-1.073449
C90	C	1.551156	-1.176403	-0.695612
C91	C	1.462587	-1.111131	-0.698828
H92	H	1.566625	-1.200927	-0.764262
H93	H	1.609125	-1.137460	-0.669327
H94	H	1.537775	-1.235099	-0.651076
H95	H	1.475972	-1.052430	-0.743359
H96	H	1.404606	-1.150074	-0.725127
H97	H	1.544308	-1.100712	-0.333264
H98	H	1.406639	-1.099747	-0.371952
C99	C	1.326883	-1.223745	-0.567702
C100	C	1.326990	-1.113136	-0.562592
H101	H	1.258649	-1.249496	-0.552234
H102	H	1.346575	-1.245562	-0.636151
H103	H	1.375343	-1.251191	-0.518170
H104	H	1.278535	-1.085690	-0.612130
H105	H	1.307285	-1.091310	-0.494132
H106	H	1.545491	-0.919298	-0.333180
C107	C	1.311957	-0.992736	-0.346739
C108	C	1.379839	-0.907153	-0.362460
H109	H	1.244954	-0.967239	-0.326353
H110	H	1.305682	-1.031845	-0.409962
H111	H	1.339191	-1.037156	-0.293226
H112	H	1.352609	-0.862737	-0.415979
H113	H	1.386111	-0.868027	-0.299228
H114	H	1.656988	-1.101772	-0.613962
C115	C	1.674527	-0.995815	-0.713408
C116	C	1.659440	-0.908988	-0.647038
H117	H	1.693319	-0.971529	-0.781338
H118	H	1.728960	-1.039154	-0.686351
H119	H	1.611523	-1.035637	-0.717558
H120	H	1.722446	-0.869170	-0.642881
H121	H	1.605002	-0.865631	-0.674102
C122	C	1.692065	-0.938434	-0.360043
C123	C	1.714717	-0.906961	-0.462818
H124	H	1.745009	-0.912900	-0.314232
H125	H	1.626140	-0.910310	-0.339606
H126	H	1.689702	-1.013440	-0.356590
H127	H	1.717072	-0.831954	-0.466273
H128	H	1.780659	-0.935080	-0.483261
H129	H	1.689984	-1.099926	-0.475316
