data_functionalizedCrystal
_audit_creation_method	'MofGen! by Chris Wilmer'
_symmetry_space_group_name_H-M	'P1'
_symmetry_Int_Tables_number	1
_symmetry_cell_setting	triclinic
loop_
_symmetry_equiv_pos_as_xyz
  x,y,z
_cell_length_a	10.686220
_cell_length_b	13.897448
_cell_length_c	10.685880
_cell_angle_alpha	94.337649
_cell_angle_beta	89.641569
_cell_angle_gamma	94.399460
loop_
_atom_site_label
_atom_site_type_symbol
_atom_site_fract_x
_atom_site_fract_y
_atom_site_fract_z
Zn1	Zn	1.972236	-0.301104	-0.562360
Zn2	Zn	2.472236	0.198896	-0.062360
Zn3	Zn	1.956009	-0.451098	-0.352601
Zn4	Zn	2.456009	0.048902	0.147399
Zn5	Zn	1.746365	-0.303069	-0.368682
Zn6	Zn	2.246365	0.196931	0.131318
Zn7	Zn	1.762425	-0.475615	-0.578372
Zn8	Zn	2.262425	0.024385	-0.078372
O9	O	1.859259	-0.382721	-0.465504
O10	O	2.359259	0.117279	0.034496
O11	O	2.145627	-0.309917	-0.521104
O12	O	2.645627	0.190083	-0.021104
O13	O	1.914687	-0.422023	-0.179193
O14	O	2.414687	0.077977	0.320807
O15	O	1.776398	-0.167825	-0.394403
O16	O	2.276398	0.332175	0.105597
O17	O	2.133705	-0.420117	-0.366995
O18	O	2.633705	0.079883	0.133005
O19	O	1.942344	-0.166380	-0.536697
O20	O	2.442344	0.333620	-0.036697
O21	O	1.760663	-0.313268	-0.191008
O22	O	2.260663	0.186732	0.308992
O23	O	1.572952	-0.337041	-0.409929
O24	O	2.072952	0.162959	0.090071
O25	O	1.803768	-0.461904	-0.751788
O26	O	2.303768	0.038096	-0.251788
O27	O	1.584751	-0.463810	-0.563987
O28	O	2.084751	0.036190	-0.063987
O29	O	1.957916	-0.333691	-0.740025
O30	O	2.457916	0.166309	-0.240025
O31	O	1.930259	-0.589334	-0.382521
O32	O	2.430259	-0.089334	0.117479
O33	O	1.788034	-0.607347	-0.548394
O34	O	2.288034	-0.107347	-0.048394
C35	C	1.533335	-0.403300	-0.490441
C36	C	2.033335	0.096700	0.009559
C37	C	1.393906	-0.412129	-0.501140
C38	C	1.893906	0.087871	-0.001140
C39	C	1.859164	-0.633340	-0.465474
C40	C	2.359164	-0.133340	0.034526
C41	C	1.859242	-0.740550	-0.465495
C42	C	2.359242	-0.240550	0.034505
C43	C	1.859380	-0.936841	-0.465564
C44	C	2.359380	-0.436841	0.034436
C45	C	1.859300	-0.827611	-0.465530
C46	C	2.359300	-0.327611	0.034470
C47	C	2.186455	-0.362063	-0.440469
C48	C	2.686455	0.137937	0.059531
C49	C	2.325886	-0.353259	-0.429801
C50	C	2.825886	0.146741	0.070199
C51	C	1.884444	-0.400313	-0.792695
C52	C	2.384444	0.099687	-0.292695
C53	C	1.895176	-0.407810	-0.932124
C54	C	2.395176	0.092190	-0.432124
C55	C	1.859390	-0.131124	-0.465558
C56	C	2.359390	0.368876	0.034442
C57	C	1.859445	-0.023908	-0.465581
C58	C	2.359445	0.476092	0.034419
C59	C	1.834244	-0.365124	-0.139580
C60	C	2.334244	0.134876	0.360420
C61	C	1.823755	-0.357341	-0.000133
C62	C	2.323755	0.142659	0.499867
H63	H	1.374319	-0.296105	-0.360540
H64	H	1.874319	0.203895	0.139460
H65	H	1.345466	-0.469292	-0.570398
H66	H	1.845466	0.030708	-0.070398
H67	H	1.964543	-0.456758	-0.980573
H68	H	2.464543	0.043242	-0.480573
H69	H	1.754387	-0.308400	-0.951691
H70	H	2.254387	0.191600	-0.451691
