data_functionalizedCrystal
_audit_creation_method	'MofGen! by Chris Wilmer'
_symmetry_space_group_name_H-M	'P1'
_symmetry_Int_Tables_number	1
_symmetry_cell_setting	triclinic
loop_
_symmetry_equiv_pos_as_xyz
  x,y,z
_cell_length_a	14.809374
_cell_length_b	20.875492
_cell_length_c	20.875641
_cell_angle_alpha	60.662107
_cell_angle_beta	90.463459
_cell_angle_gamma	51.465637
loop_
_atom_site_label
_atom_site_type_symbol
_atom_site_fract_x
_atom_site_fract_y
_atom_site_fract_z
Zr1	Zr	0.944864	0.581792	-0.039186
O2	O	0.774321	0.741811	-0.158880
O3	O	1.005041	0.433977	0.003063
O4	O	1.002114	0.565101	-0.132828
O5	O	0.770574	0.619596	0.077883
O6	O	1.172818	0.538053	-0.118598
O7	O	0.777248	0.610686	-0.022989
O8	O	1.178053	0.303495	0.124486
O9	O	0.765339	0.854154	-0.165201
O10	O	1.148559	0.470069	0.024988
O11	O	1.016184	0.496905	0.089648
O12	O	1.012738	0.651287	-0.070346
O13	O	0.880363	0.678122	-0.005685
Zr14	Zr	1.206472	0.552863	0.144388
Zr15	Zr	1.217117	0.538653	-0.016492
Zr16	Zr	0.934219	0.596002	0.121693
Zr17	Zr	0.930537	0.760966	-0.049268
Zr18	Zr	1.220799	0.373689	0.154469
O19	O	1.146295	0.700678	0.102138
O20	O	1.161430	0.680473	-0.126612
O21	O	0.759186	0.762016	0.069870
O22	O	1.377014	0.392844	0.264082
O23	O	1.392150	0.372639	0.035332
O24	O	0.989906	0.454182	0.231813
O25	O	1.380762	0.515059	0.027318
O26	O	1.149222	0.569553	0.238029
O27	O	0.978518	0.596602	0.223800
O28	O	1.374088	0.523968	0.128190
O29	O	0.981744	0.819864	-0.147162
O30	O	1.169592	0.314791	0.252364
O31	O	1.385997	0.280501	0.270403
O32	O	1.394458	0.269206	0.142525
O33	O	0.756878	0.865449	-0.037324
O34	O	0.973283	0.831159	-0.019285
O35	O	1.138598	0.483368	0.175547
O36	O	1.270973	0.456533	0.110887
O37	O	1.135152	0.637750	0.015553
O38	O	1.002777	0.664585	0.080214
C39	C	1.093588	0.343208	0.065211
C40	C	1.099670	0.267143	0.069491
C41	C	1.007209	0.303313	0.004596
C42	C	1.012928	0.231853	0.008590
C43	C	1.111104	0.124225	0.077484
C44	C	1.203575	0.088055	0.142383
C45	C	1.197860	0.159513	0.138385
C46	C	1.138422	-0.097201	0.096612
C47	C	1.144127	-0.168658	0.100606
C48	C	0.953481	-0.024855	-0.033188
C49	C	0.947770	0.046599	-0.037178
C50	C	1.040245	0.010422	0.027719
N51	N	1.116950	0.051180	0.081570
N52	N	1.034403	0.083465	0.023630
C53	C	0.735121	0.621288	0.024214
C54	C	0.619542	0.639601	0.014579
C55	C	0.635390	0.557870	0.057576
C56	C	0.515935	0.576796	0.047620
C57	C	1.416215	0.513367	0.080988
C58	C	1.531794	0.495054	0.090622
C59	C	1.088983	0.549553	-0.148635
C60	C	1.093502	0.543520	-0.216932
C61	C	1.057748	0.791447	0.039990
C62	C	1.051666	0.867511	0.035710
C63	C	1.024730	0.635277	-0.298782
C64	C	1.028992	0.629601	-0.362950
C65	C	1.102020	0.532167	-0.345268
C66	C	1.170800	0.440403	-0.263410
C67	C	1.166544	0.446079	-0.199243
C68	C	1.122359	0.505047	-0.531841
C69	C	1.126606	0.499378	-0.596017
C70	C	0.984799	0.688576	-0.695552
C71	C	0.980544	0.694244	-0.631380
C72	C	1.049329	0.602479	-0.549527
N73	N	1.106376	0.526363	-0.410858
N74	N	1.044980	0.608283	-0.483939
C75	C	1.062353	0.585102	0.253836
C76	C	1.057834	0.591135	0.322134
C77	C	1.434135	0.289247	0.093598
C78	C	1.555796	0.194870	0.107513
C79	C	1.080273	0.360982	0.266447
C80	C	1.081837	0.290951	0.339024
C81	C	1.420821	0.307022	0.294834
C82	C	1.537962	0.218677	0.377046
C83	C	0.730515	0.827633	-0.189632
C84	C	0.613374	0.915978	-0.271844
C85	C	0.717201	0.845407	0.011603
C86	C	0.595540	0.939785	-0.002311
C87	C	1.071062	0.773672	-0.161245
C88	C	1.069499	0.843704	-0.233823
C89	C	1.549031	0.157614	0.069202
C90	C	1.663334	0.068946	0.082259
C91	C	1.784400	0.017531	0.133632
C92	C	1.791162	0.054794	0.171944
C93	C	1.676861	0.143465	0.158881
C94	C	1.146469	0.250998	0.417952
C95	C	1.147931	0.185207	0.486152
C96	C	1.084769	0.159364	0.475422
C97	C	1.020128	0.199325	0.396485
C98	C	1.018659	0.265121	0.328287
C99	C	1.662083	0.163180	0.381902
C100	C	1.772160	0.080178	0.459143
C101	C	1.758114	0.052670	0.531526
C102	C	1.633980	0.108176	0.526667
C103	C	1.523905	0.191181	0.449427
C104	C	0.489252	0.971484	-0.276701
C105	C	0.379173	1.054508	-0.353943
C106	C	0.393219	1.082019	-0.426327
C107	C	0.517354	1.026509	-0.421467
C108	C	0.627429	0.943491	-0.344227
C109	C	0.602305	0.977047	0.035993
C110	C	0.488002	1.065733	0.022916
C111	C	0.366935	1.117151	-0.028459
C112	C	0.360173	1.079885	-0.066767
C113	C	0.474475	0.991205	-0.053696
C114	C	1.132675	0.869524	-0.223067
C115	C	1.131231	0.935313	-0.291252
C116	C	1.066604	0.975287	-0.370194
C117	C	1.003427	0.949461	-0.380948
C118	C	1.004879	0.883666	-0.312763
H119	H	1.273152	0.130055	0.191230
H120	H	1.283517	0.000416	0.198475
H121	H	0.528775	1.048919	-0.480412
Cl122	Cl	1.210652	0.967774	-0.277714
Cl123	Cl	0.837238	0.020615	-0.114769
H124	H	1.682387	0.173787	0.190085
Cl125	Cl	1.262610	0.317914	-0.241181
Cl126	Cl	1.928199	0.010410	0.465232
Cl127	Cl	1.928084	-0.093943	0.150047
H128	H	1.178369	0.430325	-0.465201
H129	H	0.966032	0.297641	0.264023
Cl130	Cl	0.888674	0.816746	-0.653621
Cl131	Cl	1.679775	0.197748	0.290916
Cl132	Cl	0.223252	1.228633	-0.044882
H133	H	1.847755	-0.014921	0.594415
H134	H	0.517538	0.723586	-0.029601
Cl135	Cl	0.783465	0.873713	-0.338135
Cl136	Cl	1.616344	0.073580	0.617672
H137	H	1.197904	0.272031	0.426704
Cl138	Cl	0.898335	0.803929	-0.798452
Cl139	Cl	1.254666	-0.142688	0.178202
Cl140	Cl	1.218422	0.376881	-0.573782
Cl141	Cl	0.792871	0.428201	0.125809
H142	H	0.950808	0.982018	-0.445232
H143	H	0.468949	0.960870	-0.084887
H144	H	0.927249	0.390950	-0.051498
H145	H	0.937636	0.261313	-0.044254
Cl146	Cl	1.253019	0.330720	-0.096343
Cl147	Cl	0.942529	0.744959	-0.465847
Cl148	Cl	1.229205	0.134980	0.585377
Cl149	Cl	0.925434	0.851227	-0.326301
H150	H	1.450463	0.199474	0.027360
Cl151	Cl	0.254824	1.186387	-0.523425
Cl152	Cl	0.754488	0.912430	0.100579
H153	H	0.477791	0.949091	-0.217770
H154	H	1.657803	0.038619	0.051059
H155	H	1.889750	0.012919	0.213772
H156	H	0.493533	1.096060	0.054117
Cl157	Cl	1.086632	0.076645	0.561167
Cl158	Cl	1.267561	-0.303969	0.187220
H159	H	0.261585	1.121762	-0.108598
Cl160	Cl	0.223135	1.124273	-0.360032
H161	H	0.413930	0.660787	0.003436
Cl162	Cl	0.824335	0.181904	-0.123786
H163	H	1.065431	1.028860	-0.425708
H164	H	1.185302	0.836987	-0.158794
Cl165	Cl	0.932916	0.757771	-0.321021
Cl166	Cl	1.367872	0.260935	0.443336
H167	H	0.968703	0.178274	0.387761
Cl168	Cl	0.689276	0.365375	0.158836
