data_functionalizedCrystal
_audit_creation_method	'MofGen! by Chris Wilmer'
_symmetry_space_group_name_H-M	'P1'
_symmetry_Int_Tables_number	1
_symmetry_cell_setting	triclinic
loop_
_symmetry_equiv_pos_as_xyz
  x,y,z
_cell_length_a	17.639054
_cell_length_b	16.120531
_cell_length_c	17.639252
_cell_angle_alpha	82.205981
_cell_angle_beta	109.662713
_cell_angle_gamma	75.371524
loop_
_atom_site_label
_atom_site_type_symbol
_atom_site_fract_x
_atom_site_fract_y
_atom_site_fract_z
Zn1	Zn	1.358753	-0.110125	0.716949
Zn2	Zn	1.323787	0.064616	0.586062
Zn3	Zn	1.190228	-0.039514	0.554022
Zn4	Zn	1.213844	0.064585	0.695929
O5	O	1.271653	-0.005110	0.638241
O6	O	1.470655	-0.116484	0.721792
O7	O	1.281554	0.080366	0.467647
O8	O	1.217334	-0.165576	0.571023
O9	O	1.444965	0.011897	0.625631
O10	O	1.341148	-0.217454	0.690724
O11	O	1.183428	0.003863	0.444108
O12	O	1.076821	0.003834	0.550641
O13	O	1.257583	0.011846	0.812882
O14	O	1.094172	0.080315	0.654899
O15	O	1.364047	-0.116514	0.828325
O16	O	1.304453	0.181307	0.605248
O17	O	1.223678	0.181285	0.685967
C18	C	1.055279	0.049734	0.597013
C19	C	0.962717	0.073211	0.579395
C20	C	0.818865	0.173075	0.504419
C21	C	0.905843	0.151007	0.520979
C22	C	0.932628	0.017455	0.621278
C23	C	0.845651	0.039515	0.604730
C24	C	0.788776	0.117325	0.546299
C25	C	0.815562	-0.016235	0.646609
C26	C	0.728592	0.005820	0.630059
C27	C	0.671711	0.083626	0.571629
C28	C	0.701806	0.139381	0.529748
C29	C	0.872438	-0.094049	0.705035
C30	C	0.842349	-0.149799	0.746915
C31	C	0.755378	-0.127740	0.730369
C32	C	0.698497	-0.049934	0.671939
C33	C	0.725283	-0.183495	0.772249
C34	C	0.638313	-0.161439	0.755699
C35	C	0.611527	-0.027879	0.655388
C36	C	1.262860	0.211543	0.646825
C37	C	1.259181	0.304202	0.650540
C38	C	1.252471	0.473845	0.657339
C39	C	1.290857	0.515100	0.619102
C40	C	1.287123	0.609495	0.622885
C41	C	1.256204	0.379441	0.653557
C42	C	1.488872	-0.060167	0.679630
C43	C	1.581438	-0.083629	0.697268
C44	C	1.317350	-0.060214	0.851033
C45	C	1.336823	-0.083696	0.941712
C46	C	1.280474	0.777393	0.629624
C47	C	1.284149	0.684737	0.625899
C48	C	1.123749	0.173222	1.199750
C49	C	1.142065	0.151141	1.284960
C50	C	1.252917	0.017492	1.301029
C51	C	1.234607	0.039559	1.215818
C52	C	1.170023	0.117425	1.165185
C53	C	1.280881	-0.016237	1.181253
C54	C	1.262576	0.005831	1.096050
C55	C	1.197997	0.083695	1.045412
C56	C	1.151718	0.139493	1.079982
C57	C	1.345469	-0.094100	1.231889
C58	C	1.391743	-0.149896	1.197324
C59	C	1.373434	-0.127832	1.112118
C60	C	1.308855	-0.049968	1.061480
C61	C	1.419713	-0.183630	1.077549
C62	C	1.401407	-0.161562	0.992346
C63	C	1.290549	-0.027900	0.976277
C64	C	1.226123	0.049803	1.426275
C65	C	1.206638	0.073294	1.335593
H66	H	0.655495	0.202747	0.482175
C67	C	1.339033	0.467047	0.571031
N68	N	1.375315	0.430851	0.534821
H69	H	0.613814	-0.206839	0.789798
C70	C	0.968108	-0.118307	0.723242
N71	N	1.040167	-0.136576	0.736956
C72	C	1.204280	0.521905	0.705390
N73	N	1.167978	0.558115	0.741576
H74	H	1.237939	0.035491	0.935044
C75	C	0.904920	-0.235388	0.811186
N76	N	0.952049	-0.299855	0.859598
C77	C	1.177859	0.107969	0.951685
N78	N	1.162691	0.126251	0.881090
C79	C	1.080671	0.225150	1.024280
N80	N	1.027163	0.289665	0.982326
C81	C	1.052702	0.258878	1.144048
N82	N	0.999194	0.323393	1.102094
H83	H	1.104379	0.196583	1.313098
H84	H	1.305503	-0.045904	1.342266
H85	H	1.360373	-0.112063	1.301266
C86	C	0.576041	0.107889	0.553424
N87	N	0.503983	0.126164	0.539713
C88	C	1.462777	-0.235551	1.253028
N89	N	1.516276	-0.300072	1.294982
C90	C	1.490752	-0.269281	1.133256
N91	N	1.544258	-0.333796	1.175214
C92	C	1.452310	-0.222942	0.954322
N93	N	1.490652	-0.269174	0.925683
C94	C	0.756298	0.258676	0.440148
N95	N	0.709172	0.323146	0.391740
H96	H	0.978947	-0.045900	0.668850
C97	C	0.938937	0.212346	0.474907
N98	N	0.963863	0.258545	0.440207
H99	H	0.565217	0.035488	0.607815
C100	C	0.787856	-0.269089	0.836515
N101	N	0.834985	-0.333559	0.884920
