data_functionalizedCrystal
_audit_creation_method	'MofGen! by Chris Wilmer'
_symmetry_space_group_name_H-M	'P1'
_symmetry_Int_Tables_number	1
_symmetry_cell_setting	triclinic
loop_
_symmetry_equiv_pos_as_xyz
  x,y,z
_cell_length_a	17.019372
_cell_length_b	17.038272
_cell_length_c	15.021413
_cell_angle_alpha	90.004029
_cell_angle_beta	93.869114
_cell_angle_gamma	87.242864
loop_
_atom_site_label
_atom_site_type_symbol
_atom_site_fract_x
_atom_site_fract_y
_atom_site_fract_z
O1	O	1.053348	0.099574	0.006650
O2	O	1.553348	0.599574	0.506650
O3	O	0.824539	0.112279	-0.010878
O4	O	1.324539	0.612279	0.489122
O5	O	0.937584	-0.007888	-0.002211
O6	O	1.437584	0.492112	0.497789
O7	O	0.940304	0.219741	-0.002017
O8	O	1.440304	0.719741	0.497983
O9	O	0.937566	-0.007871	0.145852
O10	O	1.437566	0.492129	0.645852
O11	O	0.824521	0.112296	0.137185
O12	O	1.324521	0.612296	0.637185
O13	O	1.053330	0.099591	0.154713
O14	O	1.553330	0.599591	0.654713
Zn15	Zn	0.938923	0.105946	0.169457
Zn16	Zn	1.438923	0.605946	0.669457
Zn17	Zn	0.938947	0.105924	-0.025622
Zn18	Zn	1.438947	0.605924	0.474378
O19	O	0.940286	0.219758	0.146046
O20	O	1.440286	0.719758	0.646046
C21	C	0.795110	0.111806	0.060900
C22	C	1.295110	0.611806	0.560900
C23	C	0.707444	0.110363	0.054184
C24	C	1.207444	0.610363	0.554184
C25	C	0.211627	0.102175	0.012095
C26	C	0.711627	0.602175	0.512095
C27	C	0.293998	0.103531	0.018417
C28	C	0.793998	0.603531	0.518417
C29	C	0.335166	0.104224	0.102287
C30	C	0.835166	0.604224	0.602287
C31	C	0.293958	0.103553	0.179841
C32	C	0.793958	0.603553	0.679841
C33	C	0.211589	0.102192	0.173519
C34	C	0.711589	0.602192	0.673519
C35	C	0.583867	0.108331	0.125416
C36	C	1.083867	0.608331	0.625416
C37	C	0.666242	0.109695	0.131732
C38	C	1.166242	0.609695	0.631732
C39	C	0.666277	0.109671	-0.029693
C40	C	1.166277	0.609671	0.470307
C41	C	0.583906	0.108314	-0.036008
C42	C	1.083906	0.608314	0.463992
C43	C	0.542705	0.107639	0.041546
C44	C	1.042705	0.607639	0.541546
C45	C	0.419362	0.105613	0.108751
C46	C	0.919362	0.605613	0.608751
C47	C	0.458511	0.106245	0.035081
C48	C	0.958511	0.606245	0.535081
C49	C	0.935101	-0.037005	0.071631
C50	C	1.435101	0.462995	0.571631
C51	C	0.927721	-0.123792	0.071065
C52	C	1.427721	0.376208	0.571065
C53	C	0.995480	-0.173965	0.076257
C54	C	1.495480	0.326035	0.576257
C55	C	0.988541	-0.255510	0.075717
C56	C	1.488541	0.244490	0.575717
C57	C	0.913842	-0.286879	0.069991
C58	C	1.413842	0.213121	0.569991
C59	C	0.846078	-0.236699	0.064797
C60	C	1.346078	0.263301	0.564797
C61	C	0.853018	-0.155156	0.065330
C62	C	1.353018	0.344844	0.565330
C63	C	0.889324	-0.532616	0.068101
C64	C	1.389324	-0.032616	0.568101
C65	C	0.882390	-0.614165	0.067570
C66	C	1.382390	-0.114165	0.567570
C67	C	1.024853	-0.632970	0.078489
C68	C	1.524853	-0.132970	0.578489
C69	C	1.031786	-0.551424	0.079027
C70	C	1.531786	-0.051424	0.579027
C71	C	0.964022	-0.501252	0.073828
C72	C	1.464022	-0.001252	0.573828
C73	C	0.906747	-0.370230	0.069442
C74	C	1.406747	0.129770	0.569442
C75	C	0.971118	-0.417902	0.074371
C76	C	1.471118	0.082098	0.574371
C77	C	1.082760	0.100064	0.082933
C78	C	1.582760	0.600064	0.582933
C79	C	1.170425	0.101507	0.089643
C80	C	1.670425	0.601507	0.589643
C81	C	0.942768	0.248875	0.072202
C82	C	1.442768	0.748875	0.572202
C83	C	0.950148	0.335662	0.072762
C84	C	1.450148	0.835662	0.572762
N85	N	0.938912	0.105961	0.302594
N86	N	1.438912	0.605961	0.802594
N87	N	0.938963	0.105902	-0.158758
N88	N	1.438963	0.605902	0.341242
C89	C	0.886630	0.161500	0.538269
C90	C	1.386630	0.661500	1.038269
C91	C	0.958921	0.176593	0.603140
C92	C	1.458921	0.676593	1.103140
C93	C	0.938931	0.105942	0.484202
C94	C	1.438931	0.605942	0.984202
C95	C	0.866660	0.090866	0.596074
C96	C	1.366660	0.590866	1.096074
C97	C	0.938943	0.105925	0.659627
C98	C	1.438943	0.605925	1.159627
C99	C	1.011261	0.121070	0.547770
C100	C	1.511261	0.621070	1.047770
C101	C	0.918951	0.035312	0.540695
C102	C	1.418951	0.535312	1.040695
C103	C	0.991291	0.050375	0.605543
C104	C	1.491291	0.550375	1.105543
C105	C	0.938923	0.105953	0.383144
C106	C	1.438923	0.605953	0.883144
C107	C	0.938959	0.105912	0.760684
C108	C	1.438959	0.605912	1.260684
H109	H	0.699758	0.110264	0.200034
H110	H	1.199758	0.610264	0.700034
O111	O	0.823560	-0.483803	0.063179
O112	O	1.323560	0.016197	0.563179
C113	C	0.823291	-0.436079	0.139852
C114	C	1.323291	0.063921	0.639852
H115	H	0.886171	-0.432025	0.170236
H116	H	1.386171	0.067975	0.670236
H117	H	0.798026	-0.374759	0.120667
H118	H	1.298026	0.125241	0.620667
H119	H	0.785458	-0.462859	0.190651
H120	H	1.285458	0.037141	0.690651
O121	O	0.898663	-0.035846	0.507883
O122	O	1.398663	0.464154	1.007883
C123	C	0.830308	-0.026203	0.449733
C124	C	1.330308	0.473797	0.949733
H125	H	0.824728	0.036681	0.423320
H126	H	1.324728	0.536681	0.923320
H127	H	0.834648	-0.068751	0.391502
H128	H	1.334648	0.431249	0.891502
H129	H	0.776274	-0.038740	0.487352
H130	H	1.276274	0.461260	0.987352
H131	H	0.805537	0.078123	0.617478
H132	H	1.305537	0.578123	1.117478
H133	H	0.178114	0.101616	-0.056202
H134	H	0.678114	0.601616	0.443798
O135	O	0.418604	0.105681	-0.046439
O136	O	0.918604	0.605681	0.453561
C137	C	0.434326	0.173696	-0.094326
C138	C	0.934326	0.673696	0.405674
H139	H	0.492663	0.197248	-0.066908
H140	H	0.992663	0.697248	0.433092
H141	H	0.438141	0.158518	-0.167872
H142	H	0.938141	0.658518	0.332128
H143	H	0.384888	0.220320	-0.086923
H144	H	0.884888	0.720320	0.413077
O145	O	0.334069	0.104047	-0.056885
O146	O	0.834069	0.604047	0.443115
C147	C	0.386124	0.037167	-0.057707
C148	C	0.886124	0.537167	0.442293
H149	H	0.364361	-0.010541	-0.013576
H150	H	0.864361	0.489459	0.486424
H151	H	0.388554	0.014460	-0.128906
H152	H	0.888554	0.514460	0.371094
H153	H	0.447551	0.053500	-0.031305
H154	H	0.947551	0.553500	0.468695
O155	O	0.544043	0.107597	-0.117551
O156	O	1.044043	0.607597	0.382449
C157	C	0.598072	0.108494	-0.184644
C158	C	1.098072	0.608494	0.315356
H159	H	0.658391	0.084735	-0.156348
H160	H	1.158391	0.584735	0.343652
H161	H	0.576753	0.070147	-0.242720
H162	H	1.076753	0.570147	0.257280
H163	H	0.602761	0.171322	-0.209117
H164	H	1.102761	0.671322	0.290883
O165	O	0.706381	0.110426	-0.104960
O166	O	1.206381	0.610426	0.395040
C167	C	0.749616	0.178898	-0.106492
C168	C	1.249616	0.678898	0.393508
H169	H	0.760473	0.201678	-0.035585
H170	H	1.260473	0.701678	0.464415
H171	H	0.808535	0.164628	-0.136128
H172	H	1.308535	0.664628	0.363872
H173	H	0.714803	0.225755	-0.149002
H174	H	1.214803	0.725755	0.350998
H175	H	0.452890	0.106178	0.177039
H176	H	0.952890	0.606178	0.677039
H177	H	0.845927	-0.395781	0.064782
H178	H	1.345927	0.104219	0.564782
H179	H	0.550333	0.107770	0.188566
H180	H	1.050333	0.607770	0.688566
O181	O	0.334040	0.104123	0.261264
O182	O	0.834040	0.604123	0.761264
C183	C	0.386069	0.037227	0.270105
C184	C	0.886069	0.537227	0.770105
H185	H	0.399892	0.014857	0.201091
H186	H	0.899892	0.514857	0.701091
H187	H	0.442994	0.053413	0.308631
H188	H	0.942994	0.553413	0.808631
H189	H	0.357396	-0.010681	0.307741
H190	H	0.857396	0.489319	0.807741
O191	O	0.171682	0.101581	0.248938
O192	O	0.671682	0.601581	0.748938
C193	C	0.225680	0.102465	0.324321
C194	C	0.725680	0.602465	0.824321
H195	H	0.282793	0.128174	0.305042
H196	H	0.782793	0.628174	0.805042
H197	H	0.199400	0.140015	0.378751
H198	H	0.699400	0.640015	0.878751
H199	H	0.238508	0.039923	0.350127
H200	H	0.738508	0.539923	0.850127
H201	H	1.056307	-0.148431	0.080924
H202	H	1.556307	0.351569	0.580924
O203	O	0.787221	-0.106383	0.060134
O204	O	1.287221	0.393617	0.560134
C205	C	0.786995	-0.058645	-0.016557
C206	C	1.286995	0.441355	0.483443
H207	H	0.825333	-0.088560	-0.067215
H208	H	1.325333	0.411440	0.432785
H209	H	0.724079	-0.049402	-0.047119
H210	H	1.224079	0.450598	0.452881
H211	H	0.811390	0.000629	0.002650
H212	H	1.311390	0.500629	0.502650
H213	H	0.785256	-0.262247	0.060129
H214	H	1.285256	0.237753	0.560129
H215	H	1.092614	-0.525890	0.083690
H216	H	1.592614	-0.025890	0.583690
O217	O	1.054442	-0.304136	0.080812
O218	O	1.554442	0.195864	0.580812
C219	C	1.121861	-0.258963	0.085965
C220	C	1.621861	0.241037	0.585965
H221	H	1.105918	-0.198078	0.112775
H222	H	1.605918	0.301922	0.612775
H223	H	1.169664	-0.289098	0.132619
H224	H	1.669664	0.210902	0.632619
H225	H	1.144517	-0.253186	0.016670
H226	H	1.644517	0.246814	0.516670
H227	H	1.080022	-0.673829	0.082720
H228	H	1.580022	-0.173829	0.582720
H229	H	0.821558	-0.639702	0.062922
H230	H	1.321558	-0.139702	0.562922
O231	O	1.043635	-0.387340	0.079810
O232	O	1.543635	0.112660	0.579810
C233	C	1.051928	-0.340755	0.003752
C234	C	1.551928	0.159245	0.503752
H235	H	0.991126	-0.320384	-0.026478
H236	H	1.491126	0.179616	0.473522
H237	H	1.086944	-0.287388	0.023684
H238	H	1.586944	0.212612	0.523684
H239	H	1.084420	-0.376822	-0.047453
H240	H	1.584420	0.123178	0.452547
H241	H	0.842451	0.208522	0.508866
H242	H	1.342451	0.708522	1.008866
H243	H	0.975832	0.236315	0.630519
H244	H	1.475832	0.736315	1.130519
O245	O	1.084134	0.136436	0.522224
O246	O	1.584134	0.636436	1.022224
C247	C	1.083237	0.136301	0.428300
C248	C	1.583237	0.636301	0.928300
H249	H	1.020327	0.148610	0.398940
H250	H	1.520327	0.648610	0.898940
H251	H	1.122447	0.183731	0.405402
H252	H	1.622447	0.683731	0.905402
H253	H	1.106213	0.076454	0.404607
H254	H	1.606213	0.576454	0.904607
O255	O	1.044228	-0.005606	0.640411
O256	O	1.544228	0.494394	1.140411
C257	C	1.120302	0.010568	0.615798
C258	C	1.620302	0.510568	1.115798
H259	H	1.122418	0.075727	0.599403
H260	H	1.622418	0.575727	1.099403
H261	H	1.165362	-0.005227	0.673391
H262	H	1.665362	0.494773	1.173391
H263	H	1.134643	-0.025716	0.554701
H264	H	1.634643	0.474284	1.054701
