data_functionalizedCrystal
_audit_creation_method	'MofGen! by Chris Wilmer'
_symmetry_space_group_name_H-M	'P1'
_symmetry_Int_Tables_number	1
_symmetry_cell_setting	triclinic
loop_
_symmetry_equiv_pos_as_xyz
  x,y,z
_cell_length_a	19.188930
_cell_length_b	14.519709
_cell_length_c	13.596369
_cell_angle_alpha	90.006934
_cell_angle_beta	90.019208
_cell_angle_gamma	83.412462
loop_
_atom_site_label
_atom_site_type_symbol
_atom_site_fract_x
_atom_site_fract_y
_atom_site_fract_z
O1	O	-0.926555	-0.115137	-0.082110
O2	O	-0.723299	-0.130636	-0.082043
O3	O	-0.830316	0.011385	-0.082069
O4	O	-0.819538	-0.257158	-0.082083
O5	O	-0.830306	0.011393	0.081514
O6	O	-0.723289	-0.130629	0.081540
O7	O	-0.926545	-0.115130	0.081473
Zn8	Zn	-0.824915	-0.122878	0.107479
Zn9	Zn	-0.824929	-0.122888	-0.108049
O10	O	-0.819528	-0.257151	0.081500
C11	C	-0.829809	0.045746	-0.000277
C12	C	-0.828304	0.148118	-0.000276
C13	C	-0.697281	-0.130131	-0.000242
C14	C	-0.619771	-0.128624	-0.000217
C15	C	-0.952563	-0.115635	-0.000329
C16	C	-1.030073	-0.117142	-0.000361
C17	C	-0.575144	-0.211957	-0.000236
C18	C	-0.502315	-0.210542	-0.000247
C19	C	-0.474117	-0.125788	-0.000258
C20	C	-0.518754	-0.042444	-0.000232
C21	C	-0.591581	-0.043861	-0.000212
N22	N	-0.365910	-0.061007	-0.055968
N23	N	-0.296726	-0.059666	-0.055990
C24	C	-0.254693	-0.121511	-0.000318
N25	N	-0.284455	-0.184762	0.055365
N26	N	-0.353645	-0.186106	0.055382
C27	C	-0.395149	-0.124241	-0.000280
C28	C	-0.131096	-0.203315	-0.000348
C29	C	-0.058266	-0.201896	-0.000352
C30	C	-0.074706	-0.033796	-0.000348
C31	C	-0.147535	-0.035217	-0.000333
C32	C	-0.175725	-0.119980	-0.000338
C33	C	-0.820035	-0.291511	-0.000294
C34	C	-0.821541	-0.393883	-0.000302
N35	N	-0.824911	-0.122871	0.254571
C36	C	-0.822762	0.522979	-0.000300
C37	C	-0.824301	0.418681	-0.000293
C38	C	-0.825533	0.335552	-0.000287
C39	C	-0.827072	0.231247	-0.000282
N40	N	-0.824939	-0.122888	-0.255140
C41	C	-0.824928	-0.122889	0.655862
C42	C	-0.824921	-0.122887	0.544210
C43	C	-0.824920	-0.122880	0.455220
C44	C	-0.824912	-0.122877	0.343561
H45	H	-0.598091	-0.280978	-0.000242
H46	H	-0.465973	-0.278404	-0.000261
F47	F	-0.161101	-0.293526	-0.000345
H48	H	-0.495790	0.026564	-0.000255
H49	H	-0.627917	0.024001	-0.000196
F50	F	-0.010770	-0.290597	-0.000368
H51	H	-0.051748	0.035213	-0.000417
H52	H	-0.183871	0.032642	-0.000322
