data_functionalizedCrystal
_audit_creation_method	'MofGen! by Chris Wilmer'
_symmetry_space_group_name_H-M	'P1'
_symmetry_Int_Tables_number	1
_symmetry_cell_setting	triclinic
loop_
_symmetry_equiv_pos_as_xyz
  x,y,z
_cell_length_a	14.971486
_cell_length_b	11.026607
_cell_length_c	13.448316
_cell_angle_alpha	89.996104
_cell_angle_beta	89.998199
_cell_angle_gamma	96.100073
loop_
_atom_site_label
_atom_site_type_symbol
_atom_site_fract_x
_atom_site_fract_y
_atom_site_fract_z
O1	O	1.212292	0.158181	-0.082572
O2	O	0.954927	0.177123	-0.082599
O3	O	1.062279	-0.009032	-0.082584
O4	O	1.104940	0.344336	-0.082587
O5	O	1.062260	-0.009044	0.082800
O6	O	0.954908	0.177112	0.082785
O7	O	1.212273	0.158169	0.082812
Cu8	Cu	1.083589	0.167639	0.097899
Cu9	Cu	1.083611	0.167653	-0.097686
O10	O	1.104921	0.344324	0.082797
C11	C	0.921457	0.176270	0.000090
C12	C	0.821753	0.173732	0.000079
C13	C	0.782051	0.283093	0.000080
C14	C	0.688368	0.280700	0.000095
C15	C	0.634389	0.168945	0.000102
C16	C	0.674098	0.059576	0.000105
C17	C	0.767779	0.061969	0.000097
C18	C	0.478837	0.054594	0.000118
C19	C	0.385150	0.052200	0.000124
C20	C	0.399426	0.273325	0.000116
C21	C	0.493107	0.275718	0.000109
C22	C	0.532809	0.166348	0.000109
C23	C	1.054400	-0.054260	0.000106
C24	C	1.030939	-0.189008	0.000100
C25	C	1.095719	-0.262720	0.000105
C26	C	1.071472	-0.401989	0.000099
C27	C	1.245743	0.159022	0.000121
C28	C	1.345447	0.161561	0.000125
C29	C	1.112800	0.389552	0.000105
C30	C	1.136261	0.524300	0.000104
N31	N	1.083579	0.167629	0.235463
N32	N	1.083626	0.167654	-0.235251
C33	C	1.131139	0.085233	0.287510
C34	C	1.131145	0.085232	0.391614
C35	C	1.083595	0.167634	0.443668
C36	C	1.036029	0.250033	0.391614
C37	C	1.036019	0.250028	0.287513
C38	C	1.036055	0.250042	0.608594
C39	C	1.036066	0.250049	0.712703
C40	C	1.131181	0.085246	0.712695
C41	C	1.131171	0.085241	0.608594
C42	C	1.083606	0.167642	0.556547
H43	H	0.511159	-0.034467	0.000120
H44	H	0.825994	0.374096	0.000073
H45	H	0.630141	-0.031417	0.000125
O46	O	0.545643	0.384195	0.000218
C47	C	0.600256	0.392209	0.085871
H48	H	0.608085	0.296577	0.114443
H49	H	0.669156	0.440662	0.066585
H50	H	0.567692	0.445870	0.145846
H51	H	1.209677	-0.435709	0.000037
O52	O	1.183333	-0.215162	0.000244
C53	C	1.226143	-0.254732	0.085912
H54	H	1.187700	-0.342634	0.114468
H55	H	1.297846	-0.272064	0.066652
H56	H	1.227502	-0.181499	0.145890
H57	H	1.169864	0.018138	0.245134
H58	H	0.656047	0.369753	0.000094
O59	O	1.177527	0.005321	0.763206
C60	C	1.269268	0.025245	0.737737
H61	H	1.285339	0.122427	0.709108
H62	H	1.311931	0.011396	0.806194
H63	H	1.284719	-0.041975	0.677315
O64	O	0.360719	0.379456	0.000159
C65	C	0.266459	0.353386	0.000145
H66	H	0.247532	0.258045	0.031469
H67	H	0.235416	0.423092	0.048154
H68	H	0.240209	0.357939	-0.079196
H69	H	0.997345	0.317148	0.755080
H70	H	0.998057	-0.441982	0.000085
O71	O	0.806454	-0.044183	-0.000040
C72	C	0.860197	-0.049424	-0.085709
H73	H	0.880424	0.046929	-0.114270
H74	H	0.923056	-0.094532	-0.066448
H75	H	0.820572	-0.104905	-0.145683
H76	H	0.341202	-0.038801	0.000131
O77	O	0.943391	-0.236856	-0.000045
C78	C	0.925975	-0.309214	-0.085716
H79	H	0.991457	-0.340515	-0.114266
H80	H	0.877035	-0.392251	-0.066462
H81	H	0.895349	-0.253391	-0.145695
H82	H	1.169871	0.018139	0.433990
H83	H	1.169895	0.018149	0.566211
H84	H	0.997319	0.317138	0.566221
H85	H	0.997308	0.317122	0.434003
H86	H	0.997290	0.317121	0.245137
