data_functionalizedCrystal
_audit_creation_method	'MofGen! by Chris Wilmer'
_symmetry_space_group_name_H-M	'P1'
_symmetry_Int_Tables_number	1
_symmetry_cell_setting	triclinic
loop_
_symmetry_equiv_pos_as_xyz
  x,y,z
_cell_length_a	12.837942
_cell_length_b	17.699097
_cell_length_c	16.176319
_cell_angle_alpha	89.988988
_cell_angle_beta	89.994101
_cell_angle_gamma	89.058685
loop_
_atom_site_label
_atom_site_type_symbol
_atom_site_fract_x
_atom_site_fract_y
_atom_site_fract_z
O1	O	0.131133	1.013706	-0.068815
O2	O	0.148171	0.794581	-0.068802
O3	O	-0.011239	0.899285	-0.068803
O4	O	0.290543	0.909002	-0.068814
O5	O	-0.011249	0.899268	0.068690
O6	O	0.148161	0.794564	0.068691
O7	O	0.131123	1.013689	0.068678
Cu8	Cu	0.139641	0.904125	0.081239
Cu9	Cu	0.139653	0.904145	-0.081363
O10	O	0.290533	0.908985	0.068679
C11	C	0.147553	0.766330	-0.000054
C12	C	0.145715	0.682178	-0.000049
C13	C	0.134451	0.165641	-0.075029
C14	C	0.136172	0.244711	-0.075025
C15	C	0.137028	0.284231	-0.000074
C16	C	0.136153	0.244677	0.074878
C17	C	0.134425	0.165608	0.074873
C18	C	0.143120	0.563553	0.074899
C19	C	0.144851	0.642628	0.074898
C20	C	0.144866	0.642656	-0.074999
C21	C	0.143138	0.563587	-0.075003
C22	C	0.142258	0.524040	-0.000052
C23	C	0.140391	0.438303	-0.000058
C24	C	0.138903	0.369967	-0.000068
C25	C	-0.049856	0.895993	-0.000057
C26	C	-0.164909	0.886202	-0.000058
C27	C	-0.406156	1.003906	-0.000082
C28	C	-0.514260	0.994711	-0.000083
C29	C	-0.489221	0.858616	-0.000066
C30	C	-0.381118	0.867811	-0.000065
C31	C	-0.339590	0.940459	-0.000072
C32	C	-0.231484	0.949654	-0.000065
C33	C	-0.206448	0.813560	-0.000054
C34	C	-0.314551	0.804364	-0.000055
C35	C	0.329151	0.912277	-0.000069
C36	C	0.444204	0.922068	-0.000074
C37	C	0.131741	1.041940	-0.000072
C38	C	0.133580	1.126092	-0.000083
N39	N	0.139632	0.904117	0.195604
N40	N	0.139654	0.904159	-0.195728
C41	C	0.069074	0.950497	0.238867
C42	C	0.069073	0.950501	0.325415
C43	C	0.139636	0.904128	0.368696
C44	C	0.210197	0.857742	0.325427
C45	C	0.210192	0.857735	0.238881
C46	C	0.210216	0.857769	0.674455
C47	C	0.210218	0.857782	0.761007
C48	C	0.069097	0.950535	0.760988
C49	C	0.069093	0.950528	0.674443
C50	C	0.139650	0.904140	0.631181
C51	C	0.139649	0.904135	0.537337
C52	C	0.139643	0.904136	0.462539
H53	H	0.142388	0.531364	0.135929
H54	H	0.136844	0.276861	0.135904
C55	C	0.287806	0.806720	0.191287
H56	H	0.277691	0.813351	0.133546
H57	H	0.356967	0.819922	0.205457
H58	H	0.276625	0.755403	0.205489
C59	C	-0.008547	1.001507	0.191265
H60	H	-0.050575	1.029124	0.229430
H61	H	0.028679	1.035693	0.157487
H62	H	-0.051652	0.971167	0.157520
C63	C	-0.008526	1.001554	0.808579
H64	H	0.001571	0.994913	0.866321
H65	H	0.002647	1.052868	0.794379
H66	H	-0.077688	0.988344	0.794403
C67	C	0.142192	0.520119	-0.157449
H68	H	0.142948	0.554998	-0.202085
H69	H	0.201932	0.487859	-0.160571
H70	H	0.081093	0.490692	-0.160560
C71	C	-0.360234	0.724457	-0.000051
H72	H	-0.305103	0.687987	-0.000051
H73	H	-0.401897	0.718035	0.047892
H74	H	-0.401871	0.718046	-0.048008
H75	H	0.133761	0.133469	-0.136063
C76	C	0.287816	0.806734	0.373034
H77	H	0.277722	0.813386	0.430774
H78	H	0.276645	0.755417	0.358871
H79	H	0.356977	0.819943	0.358836
H80	H	0.267668	0.820000	0.639238
C81	C	-0.008531	1.001527	0.373001
H82	H	-0.050544	1.029153	0.334829
H83	H	-0.051636	0.971206	0.406779
H84	H	0.028719	1.035717	0.406745
C85	C	-0.008529	1.001536	0.626837
H86	H	-0.050559	1.029154	0.664999
H87	H	0.028697	1.035721	0.593058
H88	H	-0.051632	0.971193	0.593093
H89	H	0.136875	0.276909	-0.136054
C90	C	0.145825	0.686157	-0.157447
H91	H	0.145081	0.651294	-0.202084
H92	H	0.086085	0.718416	-0.160566
H93	H	0.206923	0.715587	-0.160559
C94	C	0.145771	0.686099	0.157348
H95	H	0.144986	0.651223	0.201986
H96	H	0.206857	0.715532	0.160474
H97	H	0.086018	0.718354	0.160452
C98	C	-0.587484	1.064500	-0.000095
H99	H	-0.657815	1.048621	-0.000102
H100	H	-0.574921	1.093966	0.047846
H101	H	-0.574901	1.093965	-0.048054
H102	H	0.133727	0.133409	0.135901
C103	C	-0.133222	0.743765	-0.000050
H104	H	-0.062891	0.759644	-0.000056
H105	H	-0.145803	0.714292	0.047897
H106	H	-0.145788	0.714307	-0.048003
C107	C	0.287821	0.806754	0.808615
H108	H	0.329832	0.779117	0.770456
H109	H	0.330931	0.837077	0.842368
H110	H	0.250564	0.772574	0.842386
H111	H	-0.197674	1.008808	-0.000068
H112	H	-0.372344	1.063059	-0.000080
C113	C	-0.534916	0.778712	-0.000059
H114	H	-0.608832	0.782326	-0.000058
H115	H	-0.512048	0.752260	-0.048000
H116	H	-0.512069	0.752258	0.047900
