data_functionalizedCrystal
_audit_creation_method	'MofGen! by Chris Wilmer'
_symmetry_space_group_name_H-M	'P1'
_symmetry_Int_Tables_number	1
_symmetry_cell_setting	triclinic
loop_
_symmetry_equiv_pos_as_xyz
  x,y,z
_cell_length_a	17.699083
_cell_length_b	27.732048
_cell_length_c	16.176319
_cell_angle_alpha	89.988239
_cell_angle_beta	89.998611
_cell_angle_gamma	82.962835
loop_
_atom_site_label
_atom_site_type_symbol
_atom_site_fract_x
_atom_site_fract_y
_atom_site_fract_z
O1	O	1.003540	0.061127	-0.068640
O2	O	0.783091	0.069080	-0.068668
O3	O	0.900162	-0.005269	-0.068637
O4	O	0.886469	0.135475	-0.068670
O5	O	0.900146	-0.005273	0.068856
O6	O	0.783075	0.069075	0.068825
O7	O	1.003524	0.061122	0.068853
Cu8	Cu	0.893298	0.065098	0.081394
Cu9	Cu	0.893317	0.065104	-0.081208
O10	O	0.886453	0.135471	0.068823
C11	C	0.754889	0.068792	0.000075
C12	C	0.670878	0.067938	0.000065
C13	C	0.621873	0.111579	0.000055
C14	C	0.542936	0.110772	0.000066
C15	C	0.513007	0.066325	0.000081
C16	C	0.562019	0.022680	0.000094
C17	C	0.640954	0.023487	0.000089
C18	C	0.243685	0.019426	0.000115
C19	C	0.164744	0.018623	0.000117
C20	C	0.145667	0.106712	0.000092
C21	C	0.224602	0.107518	0.000087
C22	C	0.273607	0.063874	0.000104
C23	C	0.359199	0.064749	0.000094
C24	C	0.427418	0.065450	0.000085
C25	C	0.899867	-0.023279	0.000112
C26	C	0.899001	-0.076937	0.000118
C27	C	0.962734	-0.415523	0.000084
C28	C	0.959522	-0.617194	0.000072
O29	O	1.017801	-0.648240	0.000043
N30	N	0.890104	-0.636567	0.000064
C31	C	0.821484	-0.605520	0.000053
O32	O	0.762366	-0.626625	0.000038
C33	C	0.824696	-0.403849	0.000059
C34	C	0.894119	-0.384479	0.000076
C35	C	1.032151	-0.396152	0.000100
C36	C	1.032953	-0.345737	0.000107
C37	C	0.964338	-0.314693	0.000099
C38	C	0.894921	-0.334064	0.000083
C39	C	0.756076	-0.372802	0.000043
C40	C	0.756886	-0.322382	0.000042
C41	C	0.826308	-0.303012	0.000059
C42	C	0.827108	-0.252605	0.000083
N43	N	0.896526	-0.233232	0.000091
C44	C	0.965141	-0.264276	0.000099
C45	C	0.819802	-0.711400	0.000052
C46	C	0.818999	-0.761817	0.000052
C47	C	0.957038	-0.773488	0.000069
C48	C	0.957840	-0.723070	0.000075
C49	C	0.889220	-0.692026	0.000060
C50	C	0.966820	-0.158401	0.000115
C51	C	0.967616	-0.107981	0.000126
C52	C	0.829578	-0.096314	0.000105
C53	C	0.828781	-0.146730	0.000098
C54	C	0.897409	-0.177772	0.000101
O55	O	0.768860	-0.221531	0.000102
O56	O	1.024251	-0.243161	0.000096
C57	C	0.961931	-0.465938	0.000077
C58	C	0.892514	-0.485309	0.000061
C59	C	0.823899	-0.454265	0.000053
C60	C	0.891711	-0.535726	0.000061
C61	C	0.960326	-0.566770	0.000069
C62	C	1.029744	-0.547397	0.000077
C63	C	1.030546	-0.496982	0.000085
C64	C	0.754481	-0.473638	0.000045
C65	C	0.753685	-0.524053	0.000038
C66	C	0.822300	-0.555097	0.000046
C67	C	1.031726	0.061410	0.000108
C68	C	1.115737	0.062264	0.000113
C69	C	0.886748	0.153481	0.000072
C70	C	0.887614	0.207139	0.000060
N71	N	0.893290	0.065094	0.195759
N72	N	0.893331	0.065104	-0.195573
C73	C	0.945145	0.032186	0.239037
C74	C	0.945149	0.032185	0.325584
C75	C	0.893301	0.065096	0.368851
C76	C	0.841441	0.098005	0.325568
C77	C	0.841434	0.098003	0.239022
C78	C	0.841467	0.098014	0.674596
C79	C	0.841479	0.098015	0.761147
C80	C	0.945181	0.032197	0.761157
C81	C	0.945174	0.032194	0.674612
C82	C	0.893312	0.065102	0.631336
C83	C	0.893308	0.065102	0.537491
C84	C	0.893309	0.065099	0.462694
H85	H	0.680855	-0.012050	0.000096
N86	N	0.998084	-0.001444	0.369803
N87	N	0.998061	-0.001455	0.447075
H88	H	1.035435	-0.025215	0.478307
N89	N	1.028754	-0.703286	0.000068
N90	N	1.044614	-0.676454	-0.057891
H91	H	1.094699	-0.662484	-0.057899
N92	N	0.492872	0.155348	0.000051
N93	N	0.446685	0.164728	-0.057897
H94	H	0.411324	0.196211	-0.057903
N95	N	0.759484	-0.064607	0.000097
N96	N	0.713165	-0.066334	0.058039
H97	H	0.663658	-0.043940	0.058027
H98	H	1.085613	-0.572682	0.000087
N99	N	0.998151	-0.001419	0.630429
N100	N	1.044449	-0.030798	0.669081
H101	H	1.081867	-0.054538	0.637878
N102	N	0.095608	0.151295	0.000103
N103	N	0.098043	0.180873	0.058053
H104	H	0.062690	0.212360	0.058060
H105	H	0.799222	0.124800	0.360801
H106	H	0.987368	0.005389	0.203814
H107	H	1.012907	-0.798773	0.000076
N108	N	0.998141	-0.001425	0.805376
N109	N	0.974485	-0.031411	0.853681
H110	H	1.011886	-0.055155	0.884909
N111	N	0.255160	0.152925	0.000064
N112	N	0.211396	0.191888	0.000055
H113	H	0.232975	0.223957	0.000040
H114	H	0.140380	-0.017574	0.000131
N115	N	0.788458	0.131619	0.194825
N116	N	0.742169	0.161001	0.233464
H117	H	0.704750	0.184743	0.202251
N118	N	0.293725	-0.025158	0.000129
N119	N	0.266989	-0.064839	0.000137
H120	H	0.302332	-0.096329	0.000145
H121	H	0.697148	-0.539820	0.000032
H122	H	0.799241	0.124810	0.639367
N123	N	0.652428	0.156986	0.000032
N124	N	0.608660	0.195947	0.000025
H125	H	0.630237	0.228018	0.000011
H126	H	0.537645	-0.013510	0.000118
N127	N	1.101454	-0.477191	0.000105
N128	N	1.117301	-0.450370	0.058066
H129	H	1.167383	-0.436395	0.058080
N130	N	0.788511	0.131637	0.805333
N131	N	0.742209	0.161016	0.766685
H132	H	0.704802	0.184761	0.797891
H133	H	1.024151	-0.092213	0.000142
N134	N	0.684388	-0.441932	0.000025
N135	N	0.638091	-0.443649	-0.057937
H136	H	0.588583	-0.421257	-0.057948
N137	N	1.036927	-0.190098	0.000115
N138	N	1.098897	-0.172788	0.000130
H139	H	1.148410	-0.195173	0.000134
H140	H	1.089484	-0.329971	0.000117
H141	H	1.088028	-0.421424	0.000103
H142	H	0.701006	-0.297108	0.000029
N143	N	0.748086	-0.781601	0.000062
N144	N	0.701959	-0.772066	0.058015
H145	H	0.651874	-0.786036	0.058021
H146	H	0.772252	-0.162502	0.000108
H147	H	0.763920	-0.686128	0.000040
H148	H	0.699545	-0.388565	0.000024
