data_functionalizedCrystal
_audit_creation_method	'MofGen! by Chris Wilmer'
_symmetry_space_group_name_H-M	'P1'
_symmetry_Int_Tables_number	1
_symmetry_cell_setting	triclinic
loop_
_symmetry_equiv_pos_as_xyz
  x,y,z
_cell_length_a	11.169417
_cell_length_b	12.759394
_cell_length_c	11.169417
_cell_angle_alpha	90.005934
_cell_angle_beta	90.003400
_cell_angle_gamma	90.015105
loop_
_atom_site_label
_atom_site_type_symbol
_atom_site_fract_x
_atom_site_fract_y
_atom_site_fract_z
Zn1	Zn	1.834742	-0.418425	0.678528
Zn2	Zn	1.834676	-0.594069	0.477843
Zn3	Zn	1.634084	-0.418408	0.477864
Zn4	Zn	1.634023	-0.594067	0.678489
O5	O	1.734381	-0.506242	0.578181
O6	O	2.002683	-0.441733	0.651915
O7	O	1.808065	-0.570760	0.309896
O8	O	1.660756	-0.271389	0.504507
O9	O	2.002634	-0.570777	0.504472
O10	O	1.808178	-0.271402	0.651934
O11	O	1.660691	-0.441703	0.309911
O12	O	1.466127	-0.441701	0.504469
O13	O	1.660651	-0.570774	0.846444
O14	O	1.466082	-0.570757	0.651868
O15	O	1.808118	-0.441731	0.846473
O16	O	1.808005	-0.741089	0.504435
O17	O	1.660587	-0.741088	0.651848
C18	C	1.422557	-0.506228	0.578167
C19	C	1.289157	-0.506247	0.578190
C20	C	1.734315	-0.779210	0.578161
C21	C	1.734396	-0.895986	0.578193
C22	C	1.887792	-0.895841	0.731824
C23	C	1.964528	-0.950630	0.808649
C24	C	1.964599	-1.060351	0.808675
C25	C	1.887924	-1.115287	0.731870
C26	C	1.811188	-1.060499	0.655046
C27	C	1.811127	-0.950775	0.655025
C28	C	1.657788	-1.060644	0.501422
C29	C	1.657721	-0.950922	0.501388
C30	C	1.581112	-1.115579	0.424618
C31	C	1.504381	-1.060791	0.347785
C32	C	1.504314	-0.951063	0.347762
C33	C	1.580985	-0.896134	0.424564
C34	C	2.047424	-0.506257	0.578196
C35	C	2.180824	-0.506263	0.578202
C36	C	1.734385	-0.506254	0.891223
C37	C	1.734387	-0.506259	1.024623
C38	C	1.734481	-0.232209	0.578227
C39	C	1.734523	-0.115432	0.578247
C40	C	1.734372	-0.506257	1.266356
C41	C	1.734383	-0.506263	1.132956
H42	H	1.887753	-0.806500	0.731799
H43	H	2.026954	-0.905891	0.871185
F44	F	2.046265	-1.118663	0.890443
H45	H	1.580943	-0.806793	0.424547
H46	H	1.887978	-1.204628	0.731908
H47	H	1.441821	-0.906460	0.285207
F48	F	1.581318	-1.232355	0.424520
H49	H	1.441952	-1.105528	0.285263
