data_functionalizedCrystal
_audit_creation_method	'MofGen! by Chris Wilmer'
_symmetry_space_group_name_H-M	'P1'
_symmetry_Int_Tables_number	1
_symmetry_cell_setting	triclinic
loop_
_symmetry_equiv_pos_as_xyz
  x,y,z
_cell_length_a	14.044220
_cell_length_b	14.044220
_cell_length_c	16.053802
_cell_angle_alpha	92.799619
_cell_angle_beta	87.189254
_cell_angle_gamma	93.188878
loop_
_atom_site_label
_atom_site_type_symbol
_atom_site_fract_x
_atom_site_fract_y
_atom_site_fract_z
O1	O	1.280851	0.226493	-0.069343
O2	O	1.004181	0.218186	-0.069364
O3	O	1.138363	0.084004	-0.069346
O4	O	1.146669	0.360675	-0.069362
O5	O	1.130974	0.091357	0.069512
O6	O	0.996792	0.225539	0.069493
O7	O	1.273463	0.233845	0.069514
Zn8	Zn	1.133954	0.230859	0.091551
Zn9	Zn	1.143689	0.221172	-0.091401
O10	O	1.139281	0.368027	0.069496
C11	C	0.964865	0.218227	0.000062
C12	C	0.858723	0.207382	0.000054
C13	C	1.131033	0.052059	0.000083
C14	C	1.120188	-0.054084	0.000083
C15	C	1.100363	-0.248422	0.000070
C16	C	1.177277	-0.299552	0.000073
C17	C	1.166246	-0.407689	0.000065
C18	C	1.111392	-0.140276	0.000077
C19	C	0.664384	0.187556	0.000072
C20	C	0.613254	0.264471	0.000071
C21	C	0.505117	0.253440	0.000081
C22	C	0.772530	0.198586	0.000062
C23	C	1.312779	0.233805	0.000086
C24	C	1.418921	0.244650	0.000089
C25	C	1.146611	0.399973	0.000065
C26	C	1.157456	0.506115	0.000059
N27	N	1.127318	0.237471	0.216410
N28	N	1.150333	0.214554	-0.216260
C29	C	1.184437	0.180400	0.260112
C30	C	1.179804	0.185035	0.347518
C31	C	1.118056	0.246745	0.391221
C32	C	1.060931	0.303818	0.347513
C33	C	1.065559	0.299178	0.260108
C34	C	1.097836	0.266987	0.652628
C35	C	1.093214	0.271625	0.740038
C36	C	1.212086	0.152839	0.740037
C37	C	1.216713	0.148209	0.652631
C38	C	1.159584	0.205278	0.608931
N39	N	1.113321	0.251486	0.480564
N40	N	1.164315	0.200532	0.519589
H41	H	1.026236	-0.285860	0.000062
H42	H	1.010649	0.354061	0.383101
N43	N	1.279969	0.085344	0.608006
N44	N	1.331082	0.034509	0.647036
H45	H	1.375826	-0.009822	0.615520
H46	H	0.650694	0.338604	0.000063
N47	N	0.617410	0.094568	0.000083
N48	N	0.528358	0.085628	0.000090
H49	H	0.495171	0.019956	0.000096
N50	N	1.039486	0.325301	0.608014
N51	N	1.047737	0.414174	0.617770
H52	H	1.006524	0.455364	0.586260
N53	N	1.270285	-0.252607	0.000100
N54	N	1.342604	-0.300617	0.000112
H55	H	1.408289	-0.267460	0.000135
N56	N	1.270432	0.094555	0.784689
N57	N	1.266295	0.098703	0.862728
H58	H	1.307502	0.057536	0.894265
N59	N	1.247462	0.117303	0.215487
N60	N	1.298413	0.066310	0.254522
H61	H	1.342902	0.021720	0.223009
N62	N	1.030124	0.334662	0.784668
N63	N	0.979116	0.385606	0.745642
H64	H	0.934558	0.430122	0.777161
N65	N	1.007217	0.357491	0.215478
N66	N	1.015464	0.446365	0.225227
H67	H	0.974256	0.487549	0.193708
N68	N	1.238153	0.126728	0.392145
N69	N	1.293283	0.071636	0.353115
H70	H	1.334494	0.030452	0.384632
