data_functionalizedCrystal
_audit_creation_method	'MofGen! by Chris Wilmer'
_symmetry_space_group_name_H-M	'P1'
_symmetry_Int_Tables_number	1
_symmetry_cell_setting	triclinic
loop_
_symmetry_equiv_pos_as_xyz
  x,y,z
_cell_length_a	12.759400
_cell_length_b	12.594517
_cell_length_c	12.759393
_cell_angle_alpha	89.985022
_cell_angle_beta	89.968436
_cell_angle_gamma	90.014642
loop_
_atom_site_label
_atom_site_type_symbol
_atom_site_fract_x
_atom_site_fract_y
_atom_site_fract_z
Zn1	Zn	-0.418206	1.627284	-0.593883
Zn2	Zn	-0.593924	1.627177	-0.418203
Zn3	Zn	-0.418260	1.449286	-0.418233
Zn4	Zn	-0.593843	1.449274	-0.593855
O5	O	-0.506058	1.538255	-0.506043
O6	O	-0.441526	1.776216	-0.570577
O7	O	-0.570679	1.603539	-0.271186
O8	O	-0.271232	1.472947	-0.441557
O9	O	-0.570626	1.776137	-0.441506
O10	O	-0.271192	1.603722	-0.570607
O11	O	-0.441619	1.472844	-0.271208
O12	O	-0.441540	1.300339	-0.441531
O13	O	-0.570487	1.472928	-0.740880
O14	O	-0.570540	1.300330	-0.570559
O15	O	-0.441447	1.603711	-0.740900
O16	O	-0.740935	1.603528	-0.441479
O17	O	-0.740875	1.472824	-0.570530
C18	C	-0.506038	1.261714	-0.506046
C19	C	-0.506055	1.143409	-0.506072
C20	C	-0.576345	1.003419	-0.576121
C21	C	-0.601923	1.074189	-0.480234
C22	C	-0.480523	1.074211	-0.601948
C23	C	-0.531716	1.003393	-0.410103
C24	C	-0.410272	1.003409	-0.531882
C25	C	-0.435814	1.074147	-0.435929
C26	C	-0.779026	1.538192	-0.506021
C27	C	-0.895802	1.538263	-0.506047
C28	C	-0.950661	1.606396	-0.438925
C29	C	-1.060385	1.606461	-0.438957
C30	C	-1.060382	1.470251	-0.573238
C31	C	-0.950660	1.470192	-0.573210
C32	C	-0.950663	1.685033	-0.361396
C33	C	-1.060387	1.685098	-0.361428
C34	C	-0.232025	1.538348	-0.506088
C35	C	-0.115248	1.538387	-0.506108
C36	C	-0.505952	1.538330	-0.780077
C37	C	-0.505907	1.538362	-0.896854
C38	C	-0.506079	1.815876	-0.506041
C39	C	-0.506088	1.934182	-0.506041
C40	C	-0.438710	1.606470	-0.951728
C41	C	-0.438672	1.606495	-1.061452
C42	C	-0.573038	1.470301	-1.061418
C43	C	-0.573070	1.470271	-0.951696
C44	C	-0.361137	1.685103	-0.951748
C45	C	-0.361099	1.685129	-1.061473
C46	C	-0.506088	1.538242	-0.233076
C47	C	-0.505837	1.538417	-0.116300
H48	H	-0.553423	0.972417	-0.328987
H49	H	-1.094332	1.763414	-0.390635
H50	H	-0.382892	1.767565	-1.091246
C51	C	-0.646955	1.395330	-0.891319
C52	C	-0.729464	1.441367	-0.815843
C53	C	-0.803340	1.366414	-0.755460
C54	C	-0.794708	1.245426	-0.770552
C55	C	-0.712196	1.199383	-0.846032
C56	C	-0.638319	1.274335	-0.906415
H57	H	-0.735857	1.530936	-0.804668
H58	H	-0.864421	1.400499	-0.699585
H59	H	-0.849395	1.189941	-0.725853
H60	H	-0.705802	1.109814	-0.857207
H61	H	-0.577239	1.240250	-0.962290
C62	C	-0.300860	0.961364	-0.561436
C63	C	-0.287244	0.889832	-0.658352
C64	C	-0.177832	0.847784	-0.687921
C65	C	-0.082036	0.877268	-0.620575
C66	C	-0.095649	0.948804	-0.523653
C67	C	-0.205061	0.990852	-0.494084
H68	H	-0.358161	0.868003	-0.708211
H69	H	-0.167756	0.794828	-0.759670
H70	H	-0.001043	0.846142	-0.642464
H71	H	-0.024733	0.970633	-0.473794
H72	H	-0.215138	1.043807	-0.422336
H73	H	-0.376386	1.105007	-0.376610
H74	H	-0.458915	1.105318	-0.683042
C75	C	-1.120729	1.395373	-0.647110
C76	C	-1.241419	1.395437	-0.647149
C77	C	-1.301763	1.320557	-0.721023
C78	C	-1.241416	1.245612	-0.794858
C79	C	-1.120720	1.245544	-0.794822
C80	C	-1.060376	1.320425	-0.720948
H81	H	-1.286097	1.450918	-0.592489
H82	H	-1.391110	1.320607	-0.721049
H83	H	-1.286086	1.190181	-0.849544
H84	H	-1.076042	1.190063	-0.849482
H85	H	-0.971028	1.320374	-0.720922
C86	C	-0.656682	0.961452	-0.656063
C87	C	-0.670786	0.841017	-0.671383
C88	C	-0.751125	0.799048	-0.751319
C89	C	-0.817360	0.877514	-0.815936
C90	C	-0.803259	0.997957	-0.800618
C91	C	-0.722920	1.039925	-0.720682
H92	H	-0.621753	0.782924	-0.623548
H93	H	-0.761563	0.709888	-0.762657
H94	H	-0.876832	0.846447	-0.875109
H95	H	-0.852292	1.056049	-0.848454
H96	H	-0.712481	1.129085	-0.709344
C97	C	-0.711367	1.116192	-0.450713
C98	C	-0.760315	1.086662	-0.344277
C99	C	-0.869762	1.128656	-0.314764
C100	C	-0.930261	1.200180	-0.391687
C101	C	-0.881314	1.229713	-0.498130
C102	C	-0.771867	1.187719	-0.527643
H103	H	-0.715529	1.033713	-0.287327
H104	H	-0.905996	1.106794	-0.235967
H105	H	-1.011281	1.231266	-0.369839
H106	H	-0.926100	1.282662	-0.555079
H107	H	-0.735633	1.209581	-0.606440
H108	H	-0.920805	1.767441	-0.383242
C109	C	-0.904790	1.645178	-0.256938
C110	C	-0.978529	1.611087	-0.167460
C111	C	-0.932655	1.571229	-0.063003
C112	C	-0.813043	1.565462	-0.048026
C113	C	-0.739297	1.599555	-0.137507
C114	C	-0.785171	1.639413	-0.241963
H115	H	-1.067079	1.615354	-0.178544
H116	H	-0.987248	1.545991	0.003237
H117	H	-0.779085	1.535957	0.029299
H118	H	-0.650747	1.595287	-0.126423
H119	H	-0.730579	1.664650	-0.308203
H120	H	-0.905996	1.414722	-0.627875
H121	H	-1.090249	1.663076	-0.280049
H122	H	-0.627717	1.414862	-1.106084
C123	C	-0.251227	1.655303	-0.911541
C124	C	-0.156016	1.724438	-0.940721
C125	C	-0.046110	1.694637	-0.900513
C126	C	-0.031414	1.595700	-0.831125
C127	C	-0.126627	1.526559	-0.801941
C128	C	-0.236534	1.556360	-0.842149
H129	H	-0.166892	1.797682	-0.992089
H130	H	0.024374	1.745821	-0.922117
H131	H	0.049946	1.573640	-0.801361
H132	H	-0.115751	1.453315	-0.750572
H133	H	-0.307017	1.505177	-0.820545
H134	H	-0.390306	1.763387	-0.917708
H135	H	-0.283790	1.655634	-1.095522
