data_functionalizedCrystal
_audit_creation_method	'MofGen! by Chris Wilmer'
_symmetry_space_group_name_H-M	'P1'
_symmetry_Int_Tables_number	1
_symmetry_cell_setting	triclinic
loop_
_symmetry_equiv_pos_as_xyz
  x,y,z
_cell_length_a	27.732064
_cell_length_b	14.519709
_cell_length_c	13.596369
_cell_angle_alpha	89.999709
_cell_angle_beta	89.998103
_cell_angle_gamma	96.835216
loop_
_atom_site_label
_atom_site_type_symbol
_atom_site_fract_x
_atom_site_fract_y
_atom_site_fract_z
O1	O	0.063362	-1.222773	-0.081654
O2	O	0.563362	-0.722773	0.418346
O3	O	0.070823	-0.954167	-0.081683
O4	O	0.570823	-0.454167	0.418317
O5	O	-0.003264	-1.096805	-0.081672
O6	O	0.496736	-0.596805	0.418328
O7	O	0.137449	-1.080136	-0.081666
O8	O	0.637449	-0.580136	0.418334
O9	O	-0.003268	-1.096791	0.081911
O10	O	0.496732	-0.596791	0.581911
O11	O	0.070819	-0.954153	0.081900
O12	O	0.570819	-0.454153	0.581900
O13	O	0.063358	-1.222759	0.081929
O14	O	0.563358	-0.722759	0.581929
Zn15	Zn	0.067088	-1.088454	0.107887
Zn16	Zn	0.567088	-0.588454	0.607887
Zn17	Zn	0.067093	-1.088473	-0.107641
Zn18	Zn	0.567093	-0.588473	0.392359
O19	O	0.137445	-1.080122	0.081917
O20	O	0.637445	-0.580122	0.581917
C21	C	0.070473	-0.919807	0.000104
C22	C	0.570473	-0.419807	0.500104
C23	C	0.069431	-0.817443	0.000093
C24	C	0.569431	-0.317443	0.500093
C25	C	-0.021274	-1.096445	0.000117
C26	C	0.478726	-0.596445	0.500117
C27	C	-0.074934	-1.095385	0.000107
C28	C	0.425066	-0.595385	0.500107
C29	C	0.063707	-1.257120	0.000139
C30	C	0.563707	-0.757120	0.500139
C31	C	0.064749	-1.359483	0.000144
C32	C	0.564749	-0.859483	0.500144
C33	C	-0.452444	-1.003873	0.000094
C34	C	0.047556	-0.503873	0.500094
C35	C	-0.250765	-1.007776	0.000093
C36	C	0.249235	-0.507776	0.500093
O37	O	-0.219852	-0.936766	0.000046
O38	O	0.280148	-0.436766	0.500046
N39	N	-0.231233	-1.092358	0.000102
N40	N	0.268767	-0.592358	0.500102
C41	C	-0.262125	-1.175969	0.000105
C42	C	0.237875	-0.675969	0.500105
O43	O	-0.240884	-1.248000	0.000102
O44	O	0.259116	-0.748000	0.500102
C45	C	-0.463803	-1.172064	0.000099
C46	C	0.036197	-0.672064	0.500099
C47	C	-0.483331	-1.087477	0.000099
C48	C	0.016669	-0.587477	0.500099
C49	C	-0.471973	-0.919293	0.000094
C50	C	0.028027	-0.419293	0.500094
C51	C	-0.522390	-0.918318	0.000099
C52	C	-0.022390	-0.418318	0.500099
C53	C	-0.553278	-1.001922	0.000105
C54	C	-0.053278	-0.501922	0.500105
C55	C	-0.533748	-1.086502	0.000105
C56	C	-0.033748	-0.586502	0.500105
C57	C	-0.494693	-1.255675	0.000094
C58	C	0.005307	-0.755675	0.500094
C59	C	-0.545115	-1.254691	0.000090
C60	C	-0.045115	-0.754691	0.500090
C61	C	-0.564644	-1.170104	0.000091
C62	C	-0.064644	-0.670104	0.500091
C63	C	-0.615053	-1.169132	0.000116
C64	C	-0.115053	-0.669132	0.500116
N65	N	-0.634584	-1.084551	0.000107
N66	N	-0.134584	-0.584551	0.500107
C67	C	-0.603697	-1.000946	0.000102
C68	C	-0.103697	-0.500946	0.500102
C69	C	-0.156241	-1.178013	0.000110
C70	C	0.343759	-0.678013	0.500110
C71	C	-0.105821	-1.178990	0.000113
C72	C	0.394179	-0.678990	0.500113
C73	C	-0.094465	-1.010797	0.000100
C74	C	0.405535	-0.510797	0.500100
C75	C	-0.144885	-1.009821	0.000103
C76	C	0.355115	-0.509821	0.500103
C77	C	-0.175772	-1.093432	0.000101
C78	C	0.324228	-0.593432	0.500101
C79	C	-0.709576	-0.998905	0.000114
C80	C	-0.209576	-0.498905	0.500114
C81	C	-0.759998	-0.997937	0.000124
C82	C	-0.259998	-0.497937	0.500124
C83	C	-0.771350	-1.166130	0.000132
C84	C	-0.271350	-0.666130	0.500132
C85	C	-0.720932	-1.167098	0.000128
C86	C	-0.220932	-0.667098	0.500128
C87	C	-0.690046	-1.083478	0.000115
C88	C	-0.190046	-0.583478	0.500115
O89	O	-0.645994	-1.240105	0.000152
O90	O	-0.145994	-0.740105	0.500152
O91	O	-0.624947	-0.928925	0.000082
O92	O	-0.124947	-0.428925	0.500082
C93	C	-0.402027	-1.004848	0.000088
C94	C	0.097973	-0.504848	0.500088
C95	C	-0.382498	-1.089428	0.000088
C96	C	0.117502	-0.589428	0.500088
C97	C	-0.413385	-1.173032	0.000094
C98	C	0.086615	-0.673032	0.500094
C99	C	-0.332079	-1.090404	0.000092
C100	C	0.167921	-0.590404	0.500092
C101	C	-0.301191	-1.006799	0.000086
C102	C	0.198809	-0.506799	0.500086
C103	C	-0.320723	-0.922218	0.000077
C104	C	0.179277	-0.422218	0.500077
C105	C	-0.371140	-0.921243	0.000082
C106	C	0.128860	-0.421243	0.500082
C107	C	-0.393854	-1.257614	0.000103
C108	C	0.106146	-0.757614	0.500103
C109	C	-0.343436	-1.258582	0.000099
C110	C	0.156564	-0.758582	0.500099
C111	C	-0.312549	-1.174977	0.000093
C112	C	0.187451	-0.674977	0.500093
C113	C	0.155455	-1.080481	0.000127
C114	C	0.655455	-0.580481	0.500127
C115	C	0.209115	-1.081542	0.000130
C116	C	0.709115	-0.581542	0.500130
N117	N	0.067084	-1.088448	0.254978
N118	N	0.567084	-0.588448	0.754978
C119	C	0.065595	-0.442614	0.000138
C120	C	0.565595	0.057386	0.500138
C121	C	0.066661	-0.546903	0.000125
C122	C	0.566661	-0.046903	0.500125
C123	C	0.067513	-0.630025	0.000114
C124	C	0.567513	-0.130025	0.500114
C125	C	0.068579	-0.734321	0.000104
C126	C	0.568579	-0.234321	0.500104
N127	N	0.067093	-1.088486	-0.254733
N128	N	0.567093	-0.588486	0.245267
C129	C	0.067094	-1.088471	0.656269
C130	C	0.567094	-0.588471	1.156269
C131	C	0.067093	-1.088462	0.544618
C132	C	0.567093	-0.588462	1.044618
C133	C	0.067089	-1.088460	0.455627
C134	C	0.567089	-0.588460	0.955627
C135	C	0.067087	-1.088450	0.343969
C136	C	0.567087	-0.588450	0.843969
H137	H	-0.775895	-0.929053	0.000129
H138	H	-0.275895	-0.429053	0.500129
F139	F	-0.322659	-1.348617	0.000099
F140	F	0.177341	-0.848617	0.500099
H141	H	-0.684434	-0.930813	0.000104
H142	H	-0.184434	-0.430813	0.500104
H143	H	-0.478802	-1.324554	0.000093
H144	H	0.021198	-0.824554	0.500093
H145	H	-0.418998	-1.325697	0.000107
H146	H	0.081002	-0.825697	0.500107
H147	H	-0.387035	-0.852364	0.000084
H148	H	0.112965	-0.352364	0.500084
F149	F	-0.085043	-1.269018	0.000127
F150	F	0.414957	-0.769018	0.500127
H151	H	-0.295565	-0.854144	0.000078
H152	H	0.204435	-0.354144	0.500078
H153	H	-0.570262	-1.322779	0.000083
H154	H	-0.070262	-0.822779	0.500083
H155	H	-0.538285	-0.849438	0.000091
H156	H	-0.038285	-0.349438	0.500091
H157	H	-0.160782	-0.940943	0.000108
H158	H	0.339218	-0.440943	0.500108
F159	F	-0.189108	-1.267009	0.000112
F160	F	0.310892	-0.767009	0.500112
F161	F	-0.700148	-1.257124	0.000158
F162	F	-0.200148	-0.757124	0.500158
H163	H	-0.796507	-1.234198	0.000142
H164	H	-0.296507	-0.734198	0.500142
H165	H	-0.446829	-0.851208	0.000086
H166	H	0.053171	-0.351208	0.500086
H167	H	-0.069308	-0.942722	0.000099
H168	H	0.430692	-0.442722	0.500099
