data_functionalizedCrystal
_audit_creation_method	'MofGen! by Chris Wilmer'
_symmetry_space_group_name_H-M	'P1'
_symmetry_Int_Tables_number	1
_symmetry_cell_setting	triclinic
loop_
_symmetry_equiv_pos_as_xyz
  x,y,z
_cell_length_a	14.628931
_cell_length_b	17.917603
_cell_length_c	14.628931
_cell_angle_alpha	90.000302
_cell_angle_beta	59.999972
_cell_angle_gamma	57.011537
loop_
_atom_site_label
_atom_site_type_symbol
_atom_site_fract_x
_atom_site_fract_y
_atom_site_fract_z
Zr1	Zr	0.916420	0.754907	-0.077880
O2	O	1.121075	0.629783	-0.230816
O3	O	0.721439	0.793264	-0.030997
O4	O	0.912144	0.793264	-0.221703
O5	O	0.930369	0.629783	0.110322
O6	O	0.897768	0.922222	-0.214514
O7	O	0.930369	0.629783	-0.040110
O8	O	0.556630	0.922222	0.126624
O9	O	1.271507	0.629783	-0.230816
O10	O	0.787326	0.905863	-0.005637
O11	O	0.798055	0.809624	0.101264
O12	O	1.022586	0.809624	-0.123268
O13	O	1.033315	0.713384	-0.016367
Zr14	Zr	0.893492	0.960580	0.173507
Zr15	Zr	0.893492	0.960579	-0.066415
Zr16	Zr	0.916420	0.754908	0.162042
Zr17	Zr	1.156342	0.754908	-0.077880
Zr18	Zr	0.653570	0.960579	0.173507
O19	O	1.088473	0.922222	0.126623
O20	O	1.088473	0.922222	-0.214514
O21	O	1.121075	0.629784	0.110321
O22	O	0.688837	1.085704	0.326443
O23	O	0.688837	1.085703	-0.014695
O24	O	0.721438	0.793265	0.310141
O25	O	0.879543	1.085704	-0.014695
O26	O	0.897768	0.922222	0.317329
O27	O	0.912144	0.793265	0.310141
O28	O	0.879543	1.085704	0.135737
O29	O	1.253282	0.793265	-0.221703
O30	O	0.556630	0.922222	0.317330
O31	O	0.538405	1.085704	0.326443
O32	O	0.538405	1.085703	0.135737
O33	O	1.271507	0.629783	-0.040111
O34	O	1.253282	0.793265	-0.030997
O35	O	0.787326	0.905863	0.218894
O36	O	0.776597	1.002102	0.111994
O37	O	1.011857	0.905863	-0.005637
O38	O	1.022586	0.809624	0.101264
C39	C	0.604851	0.857743	0.047814
C40	C	0.502998	0.857743	0.047814
C41	C	0.933636	0.600479	0.033472
C42	C	0.943370	0.513166	0.028605
C43	C	0.452266	0.905484	-0.005216
C44	C	0.346996	0.905485	-0.005217
C45	C	0.961150	0.353322	0.019716
C46	C	0.848768	0.362158	0.075908
C47	C	0.858661	0.273215	0.070962
C48	C	0.951260	0.442271	0.024661
C49	C	1.205061	0.857744	0.047813
C50	C	1.306914	0.857744	0.047813
C51	C	0.904956	0.857743	-0.252292
C52	C	0.904956	0.857743	-0.354145
C53	C	0.876276	1.115007	0.062154
C54	C	0.866542	1.202321	0.067022
C55	C	0.897429	0.925259	-0.395790
C56	C	0.897429	0.925260	-0.501061
C57	C	0.904956	0.857744	0.347919
C58	C	0.904956	0.857744	0.449772
C59	C	0.576171	1.115007	0.062155
C60	C	0.464584	1.202320	0.067022
C61	C	0.604851	0.857744	0.347919
C62	C	0.502998	0.857744	0.449772
C63	C	0.576171	1.115008	0.362260
C64	C	0.464584	1.202321	0.468981
C65	C	1.233741	0.600479	-0.266634
C66	C	1.345328	0.513166	-0.373354
C67	C	1.233741	0.600480	0.033472
C68	C	1.345328	0.513167	0.028604
C69	C	1.205061	0.857743	-0.252292
C70	C	1.306914	0.857743	-0.354145
C71	C	0.417782	1.193087	0.007896
C72	C	0.312948	1.275119	0.012447
C73	C	0.254912	1.366383	0.076131
C74	C	0.301724	1.375614	0.135258
C75	C	0.406562	1.293583	0.130701
C76	C	0.406580	1.293568	0.463297
C77	C	0.301745	1.375616	0.563563
C78	C	0.254909	1.366414	0.669512
C79	C	0.312923	1.275157	0.675193
C80	C	0.417763	1.193111	0.574928
C81	C	1.403343	0.421918	-0.367670
C82	C	1.508208	0.339871	-0.467937
C83	C	1.555049	0.349072	-0.573885
C84	C	1.497029	0.440330	-0.579566
C85	C	1.392173	0.522375	-0.479301
C86	C	1.392140	0.522400	0.087721
C87	C	1.497000	0.440368	0.083144
C88	C	1.555040	0.349104	0.019456
C89	C	1.508223	0.339873	-0.039667
C90	C	1.403372	0.421904	-0.035096
C91	C	0.452266	0.905485	0.553534
C92	C	0.346996	0.905486	0.658806
H93	H	0.486760	0.946361	-0.050612
H94	H	0.911408	0.799935	-0.514410
H95	H	0.444654	1.301114	0.178856
C96	C	1.351847	0.411773	-0.251136
N97	N	1.313074	0.404123	-0.163366
H98	H	0.745124	0.436520	0.127729
C99	C	0.261377	1.265051	0.791749
N100	N	0.222541	1.257442	0.879541
C101	C	1.101159	0.252867	-0.050302
N102	N	1.206612	0.177197	-0.103044
C103	C	0.365798	0.802538	0.525615
N104	N	0.410151	0.760960	0.435041
C105	C	0.888689	1.003364	-0.338659
N106	N	0.882096	1.062199	-0.295623
H107	H	1.640415	0.282317	0.015744
C108	C	0.481610	1.092704	-0.062172
N109	N	0.529686	1.017098	-0.114958
C110	C	0.888722	1.003353	-0.549460
N111	N	0.882161	1.062176	-0.585916
C112	C	1.548467	0.450543	0.148198
N113	N	1.587226	0.458211	0.197199
C114	C	0.913655	0.779655	-0.411256
N115	N	0.920206	0.720836	-0.454271
H116	H	0.169546	1.433170	0.079833
C117	C	1.572010	0.239497	-0.461662
N118	N	1.620062	0.163898	-0.456933
H119	H	1.640431	0.282258	-0.655519
C120	C	0.237859	1.476014	0.205316
N121	N	0.189746	1.551637	0.258091
H122	H	0.303395	0.946354	-0.050624
C123	C	1.328351	0.622746	-0.485572
N124	N	1.280284	0.698345	-0.490304
C125	C	0.458086	1.303714	0.346763
N126	N	0.496881	1.311364	0.258992
C127	C	0.237936	1.475990	0.557289
N128	N	0.189875	1.551589	0.552559
H129	H	0.274848	1.267584	-0.035703
H130	H	0.350522	0.816864	0.093210
H131	H	0.464977	1.118816	0.579571
C132	C	1.328322	0.622783	0.157779
N133	N	1.280266	0.698389	0.210545
H134	H	0.169541	1.433229	0.751146
C135	C	1.572064	0.239473	-0.109701
N136	N	1.620142	0.163849	-0.162440
H137	H	1.535181	0.447811	-0.665842
H138	H	1.365262	0.414373	-0.083233
H139	H	0.303387	0.946360	0.747815
H140	H	0.486773	0.946353	0.564432
H141	H	0.468493	0.816873	0.093217
H142	H	0.468501	0.816867	0.438873
