data_functionalizedCrystal
_audit_creation_method	'MofGen! by Chris Wilmer'
_symmetry_space_group_name_H-M	'P1'
_symmetry_Int_Tables_number	1
_symmetry_cell_setting	triclinic
loop_
_symmetry_equiv_pos_as_xyz
  x,y,z
_cell_length_a	27.732048
_cell_length_b	14.421503
_cell_length_c	15.944493
_cell_angle_alpha	90.010165
_cell_angle_beta	83.058849
_cell_angle_gamma	89.997938
loop_
_atom_site_label
_atom_site_type_symbol
_atom_site_fract_x
_atom_site_fract_y
_atom_site_fract_z
O1	O	0.641351	-0.076981	0.099936
O2	O	0.891351	0.173019	0.349936
O3	O	1.141351	0.423019	0.599936
O4	O	1.391351	0.673019	0.849936
O5	O	0.500621	-0.077007	0.115133
O6	O	0.750621	0.172993	0.365133
O7	O	1.000621	0.422993	0.615133
O8	O	1.250621	0.672993	0.865133
O9	O	0.574844	-0.077001	-0.014794
O10	O	0.824844	0.172999	0.235206
O11	O	1.074844	0.422999	0.485206
O12	O	1.324844	0.672999	0.735206
O13	O	0.567129	-0.076987	0.229863
O14	O	0.817129	0.173013	0.479863
O15	O	1.067129	0.423013	0.729863
O16	O	1.317129	0.673013	0.979863
O17	O	0.574832	0.077222	-0.014775
O18	O	0.824832	0.327222	0.235225
O19	O	1.074832	0.577222	0.485225
O20	O	1.324832	0.827222	0.735225
O21	O	0.500609	0.077216	0.115152
O22	O	0.750609	0.327216	0.365152
O23	O	1.000609	0.577216	0.615152
O24	O	1.250609	0.827216	0.865152
O25	O	0.641339	0.077242	0.099955
O26	O	0.891339	0.327242	0.349955
O27	O	1.141339	0.577242	0.599955
O28	O	1.391339	0.827242	0.849955
Cu29	Cu	0.570973	0.091311	0.107555
Cu30	Cu	0.820973	0.341311	0.357555
Cu31	Cu	1.070973	0.591311	0.607555
Cu32	Cu	1.320973	0.841311	0.857555
Cu33	Cu	0.570987	-0.091076	0.107533
Cu34	Cu	0.820987	0.158924	0.357533
Cu35	Cu	1.070987	0.408924	0.607533
Cu36	Cu	1.320987	0.658924	0.857533
O37	O	0.567116	0.077236	0.229882
O38	O	0.817116	0.327236	0.479882
O39	O	1.067116	0.577236	0.729882
O40	O	1.317116	0.827236	0.979882
C41	C	0.482607	0.000101	0.114824
C42	C	0.732607	0.250101	0.364824
C43	C	0.982607	0.500101	0.614824
C44	C	1.232607	0.750101	0.864824
C45	C	0.428948	0.000090	0.113863
C46	C	0.678948	0.250090	0.363863
C47	C	0.928948	0.500090	0.613863
C48	C	1.178948	0.750090	0.863863
N49	N	0.570966	0.219592	0.107571
N50	N	0.820966	0.469592	0.357571
N51	N	1.070966	0.719592	0.607571
N52	N	1.320966	0.969592	0.857571
N53	N	0.570998	-0.219357	0.107510
N54	N	0.820998	0.030643	0.357510
N55	N	1.070998	0.280643	0.607510
N56	N	1.320998	0.530643	0.857510
C57	C	0.090431	0.000134	0.184594
C58	C	0.340431	0.250134	0.434594
C59	C	0.590431	0.500134	0.684594
C60	C	0.840431	0.750134	0.934594
C61	C	-0.111244	0.000142	0.181030
C62	C	0.138756	0.250142	0.431030
C63	C	0.388756	0.500142	0.681030
C64	C	0.638756	0.750142	0.931030
O65	O	-0.142227	0.000186	0.245709
O66	O	0.107773	0.250186	0.495709
O67	O	0.357773	0.500186	0.745709
O68	O	0.607773	0.750186	0.995709
N69	N	-0.130692	0.000136	0.103989
N70	N	0.119308	0.250136	0.353989
N71	N	0.369308	0.500136	0.603989
N72	N	0.619308	0.750136	0.853989
C73	C	-0.099718	0.000134	0.027833
C74	C	0.150282	0.250134	0.277833
C75	C	0.400282	0.500134	0.527833
C76	C	0.650282	0.750134	0.777833
O77	O	-0.120887	0.000139	-0.037777
O78	O	0.129113	0.250139	0.212223
O79	O	0.379113	0.500139	0.462223
O80	O	0.629113	0.750139	0.712223
C81	C	0.101956	0.000133	0.031398
C82	C	0.351956	0.250133	0.281398
C83	C	0.601956	0.500133	0.531398
C84	C	0.851956	0.750133	0.781398
C85	C	0.121401	0.000129	0.108444
C86	C	0.371401	0.250129	0.358444
C87	C	0.621401	0.500129	0.608444
C88	C	0.871401	0.750129	0.858444
C89	C	0.109877	0.000132	0.261634
C90	C	0.359877	0.250132	0.511634
C91	C	0.609877	0.500132	0.761634
C92	C	0.859877	0.750132	1.011634
C93	C	0.160292	0.000125	0.262524
C94	C	0.410292	0.250125	0.512524
C95	C	0.660292	0.500125	0.762524
C96	C	0.910292	0.750125	1.012524
C97	C	0.191262	0.000120	0.186374
C98	C	0.441262	0.250120	0.436374
C99	C	0.691262	0.500120	0.686374
C100	C	0.941262	0.750120	0.936374
C101	C	0.171817	0.000122	0.109334
C102	C	0.421817	0.250122	0.359334
C103	C	0.671817	0.500122	0.609334
C104	C	0.921817	0.750122	0.859334
C105	C	0.132929	0.000137	-0.044757
C106	C	0.382929	0.250137	0.205243
C107	C	0.632929	0.500137	0.455243
C108	C	0.882929	0.750137	0.705243
C109	C	0.183350	0.000139	-0.043859
C110	C	0.433350	0.250139	0.206141
C111	C	0.683350	0.500139	0.456141
C112	C	0.933350	0.750139	0.706141
C113	C	0.202795	0.000136	0.033187
C114	C	0.452795	0.250136	0.283187
C115	C	0.702795	0.500136	0.533187
C116	C	0.952795	0.750136	0.783187
C117	C	0.253202	0.000111	0.034074
C118	C	0.503202	0.250111	0.284074
C119	C	0.753202	0.500111	0.534074
C120	C	1.003202	0.750111	0.784074
N121	N	0.272650	0.000117	0.111116
N122	N	0.522650	0.250117	0.361116
N123	N	0.772650	0.500117	0.611116
N124	N	1.022650	0.750117	0.861116
C125	C	0.241680	0.000121	0.187266
C126	C	0.491680	0.250121	0.437266
C127	C	0.741680	0.500121	0.687266
C128	C	0.991680	0.750121	0.937266
C129	C	-0.205600	0.000133	0.025967
C130	C	0.044400	0.250133	0.275967
C131	C	0.294400	0.500133	0.525967
C132	C	0.544400	0.750133	0.775967
C133	C	-0.256018	0.000132	0.025075
C134	C	-0.006018	0.250132	0.275075
C135	C	0.243982	0.500132	0.525075
C136	C	0.493982	0.750132	0.775075
C137	C	-0.267540	0.000142	0.178273
C138	C	-0.017540	0.250142	0.428273
C139	C	0.232460	0.500142	0.678273
C140	C	0.482460	0.750142	0.928273
C141	C	-0.217121	0.000136	0.179163
C142	C	0.032879	0.250136	0.429163
C143	C	0.282879	0.500136	0.679163
C144	C	0.532879	0.750136	0.929163
C145	C	-0.186152	0.000139	0.103008
C146	C	0.063848	0.250139	0.353008
C147	C	0.313848	0.500139	0.603008
C148	C	0.563848	0.750139	0.853008
C149	C	0.347558	0.000106	0.189129
C150	C	0.597558	0.250106	0.439129
C151	C	0.847558	0.500106	0.689129
C152	C	1.097558	0.750106	0.939129
C153	C	0.397978	0.000095	0.190013
C154	C	0.647978	0.250095	0.440013
C155	C	0.897978	0.500095	0.690013
C156	C	1.147978	0.750095	0.940013
C157	C	0.409496	0.000090	0.036816
C158	C	0.659496	0.250090	0.286816
C159	C	0.909496	0.500090	0.536816
C160	C	1.159496	0.750090	0.786816
C161	C	0.359080	0.000096	0.035932
C162	C	0.609080	0.250096	0.285932
C163	C	0.859080	0.500096	0.535932
C164	C	1.109080	0.750096	0.785932
C165	C	0.328111	0.000107	0.112096
C166	C	0.578111	0.250107	0.362096
C167	C	0.828111	0.500107	0.612096
C168	C	1.078111	0.750107	0.862096
O169	O	0.284214	0.000077	-0.030569
O170	O	0.534214	0.250077	0.219431
O171	O	0.784214	0.500077	0.469431
O172	O	1.034214	0.750077	0.719431
O173	O	0.262859	0.000137	0.252866
O174	O	0.512859	0.250137	0.502866
O175	O	0.762859	0.500137	0.752866
O176	O	1.012859	0.750137	1.002866
C177	C	0.040015	0.000141	0.183704
C178	C	0.290015	0.250141	0.433704
C179	C	0.540015	0.500141	0.683704
C180	C	0.790015	0.750141	0.933704
C181	C	0.020570	0.000144	0.106664
C182	C	0.270570	0.250144	0.356664
C183	C	0.520570	0.500144	0.606664
C184	C	0.770570	0.750144	0.856664
C185	C	0.051540	0.000139	0.030514
C186	C	0.301540	0.250139	0.280514
C187	C	0.551540	0.500139	0.530514
C188	C	0.801540	0.750139	0.780514
C189	C	-0.029849	0.000142	0.105772
C190	C	0.220151	0.250142	0.355772
C191	C	0.470151	0.500142	0.605772
C192	C	0.720151	0.750142	0.855772
C193	C	-0.060819	0.000147	0.181922
C194	C	0.189181	0.250147	0.431922
C195	C	0.439181	0.500147	0.681922
C196	C	0.689181	0.750147	0.931922
C197	C	-0.041370	0.000153	0.258964
C198	C	0.208630	0.250153	0.508964
C199	C	0.458630	0.500153	0.758964
C200	C	0.708630	0.750153	1.008964
C201	C	0.009045	0.000146	0.259854
C202	C	0.259045	0.250146	0.509854
C203	C	0.509045	0.500146	0.759854
C204	C	0.759045	0.750146	1.009854
C205	C	0.032091	0.000133	-0.046528
C206	C	0.282091	0.250133	0.203472
C207	C	0.532091	0.500133	0.453472
C208	C	0.782091	0.750133	0.703472
C209	C	-0.018325	0.000139	-0.047412
C210	C	0.231675	0.250139	0.202588
C211	C	0.481675	0.500139	0.452588
C212	C	0.731675	0.750139	0.702588
C213	C	-0.049295	0.000144	0.028738
C214	C	0.200705	0.250144	0.278738
C215	C	0.450705	0.500144	0.528738
C216	C	0.700705	0.750144	0.778738
C217	C	0.659353	0.000132	0.100264
C218	C	0.909353	0.250132	0.350264
C219	C	1.159353	0.500132	0.600264
C220	C	1.409353	0.750132	0.850264
C221	C	0.713012	0.000137	0.101225
C222	C	0.963012	0.250137	0.351225
C223	C	1.213012	0.500137	0.601225
C224	C	1.463012	0.750137	0.851225
C225	C	0.574522	0.000106	-0.046075
C226	C	0.824522	0.250106	0.203925
C227	C	1.074522	0.500106	0.453925
C228	C	1.324522	0.750106	0.703925
C229	C	0.573577	0.000094	-0.139311
C230	C	0.823577	0.250094	0.110689
C231	C	1.073577	0.500094	0.360689
C232	C	1.323577	0.750094	0.610689
C233	C	0.536640	0.469243	0.167623
C234	C	0.786640	0.719243	0.417623
C235	C	1.036640	0.969243	0.667623
C236	C	1.286640	1.219243	0.917623
C237	C	0.580315	0.531055	0.183359
C238	C	0.830315	0.781055	0.433359
C239	C	1.080315	1.031055	0.683359
C240	C	1.330315	1.281055	0.933359
C241	C	0.570978	0.408754	0.107551
C242	C	0.820978	0.658754	0.357551
C243	C	1.070978	0.908754	0.607551
C244	C	1.320978	1.158754	0.857551
C245	C	0.527314	0.531035	0.091834
C246	C	0.777314	0.781035	0.341834
C247	C	1.027314	1.031035	0.591834
C248	C	1.277314	1.281035	0.841834
C249	C	0.570985	0.591475	0.107533
C250	C	0.820985	0.841475	0.357533
C251	C	1.070985	1.091475	0.607533
C252	C	1.320985	1.341475	0.857533
C253	C	0.614675	0.469205	0.123325
C254	C	0.864675	0.719205	0.373325
C255	C	1.114675	0.969205	0.623325
C256	C	1.364675	1.219205	0.873325
C257	C	0.561645	0.469180	0.031767
C258	C	0.811645	0.719180	0.281767
C259	C	1.061645	0.969180	0.531767
C260	C	1.311645	1.219180	0.781767
C261	C	0.605352	0.530964	0.047471
C262	C	0.855352	0.780964	0.297471
C263	C	1.105352	1.030964	0.547471
C264	C	1.355352	1.280964	0.797471
C265	C	0.570973	0.303492	0.107563
C266	C	0.820973	0.553492	0.357563
C267	C	1.070973	0.803492	0.607563
C268	C	1.320973	1.053492	0.857563
C269	C	0.570995	0.696734	0.107520
C270	C	0.820995	0.946734	0.357520
C271	C	1.070995	1.196734	0.607520
C272	C	1.320995	1.446734	0.857520
C273	C	0.617266	0.000120	-0.375643
C274	C	0.867266	0.250120	-0.125643
C275	C	1.117266	0.500120	0.124357
C276	C	1.367266	0.750120	0.374357
C277	C	0.593712	-0.075924	-0.425912
C278	C	0.843712	0.174076	-0.175912
C279	C	1.093712	0.424076	0.074088
C280	C	1.343712	0.674076	0.324088
C281	C	0.571825	0.000105	-0.310010
C282	C	0.821825	0.250105	-0.060010
C283	C	1.071825	0.500105	0.189990
C284	C	1.321825	0.750105	0.439990
C285	C	0.593689	0.076128	-0.425869
C286	C	0.843689	0.326128	-0.175869
C287	C	1.093689	0.576128	0.074131
C288	C	1.343689	0.826128	0.324131
C289	C	0.570137	0.000120	-0.474897
C290	C	0.820137	0.250120	-0.224897
C291	C	1.070137	0.500120	0.025103
C292	C	1.320137	0.750120	0.275103
C293	C	0.548284	-0.076001	-0.359051
C294	C	0.798284	0.173999	-0.109051
C295	C	1.048284	0.423999	0.140949
C296	C	1.298284	0.673999	0.390949
C297	C	0.548268	0.076119	-0.359005
C298	C	0.798268	0.326119	-0.109005
C299	C	1.048268	0.576119	0.140995
C300	C	1.298268	0.826119	0.390995
C301	C	0.524681	0.000056	-0.409241
C302	C	0.774681	0.250056	-0.159241
C303	C	1.024681	0.500056	0.090759
C304	C	1.274681	0.750056	0.340759
C305	C	0.572799	0.000096	-0.215022
C306	C	0.822799	0.250096	0.034978
C307	C	1.072799	0.500096	0.284978
C308	C	1.322799	0.750096	0.534978
C309	C	0.569159	0.000123	-0.569881
C310	C	0.819159	0.250123	-0.319881
C311	C	1.069159	0.500123	-0.069881
C312	C	1.319159	0.750123	0.180119
C313	C	0.567438	0.000126	0.261163
C314	C	0.817438	0.250126	0.511163
C315	C	1.067438	0.500126	0.761163
C316	C	1.317438	0.750126	1.011163
C317	C	0.568383	0.000132	0.354400
C318	C	0.818383	0.250132	0.604400
C319	C	1.068383	0.500132	0.854400
C320	C	1.318383	0.750132	1.104400
H321	H	0.413807	0.000092	0.252756
H322	H	0.663807	0.250092	0.502756
H323	H	0.913807	0.500092	0.752756
H324	H	1.163807	0.750092	1.002756
Cl325	Cl	0.448439	0.000088	-0.058910
Cl326	Cl	0.698439	0.250088	0.191090
Cl327	Cl	0.948439	0.500088	0.441090
Cl328	Cl	1.198439	0.750088	0.691090
H329	H	0.084665	0.000139	0.323648
H330	H	0.334665	0.250139	0.573648
H331	H	0.584665	0.500139	0.823648
H332	H	0.834665	0.750139	1.073648
H333	H	0.529110	-0.140359	-0.329989
H334	H	0.779110	0.109641	-0.079989
H335	H	1.029110	0.359641	0.170011
H336	H	1.279110	0.609641	0.420011
H337	H	0.588215	0.558233	0.247440
H338	H	0.838215	0.808233	0.497440
H339	H	1.088215	1.058233	0.747440
H340	H	1.338215	1.308233	0.997440
H341	H	0.024872	0.000145	0.322593
H342	H	0.274872	0.250145	0.572593
H343	H	0.524872	0.500145	0.822593
H344	H	0.774872	0.750145	1.072593
H345	H	0.485509	0.000007	-0.424194
H346	H	0.735509	0.250007	-0.174194
H347	H	0.985509	0.500007	0.075806
H348	H	1.235509	0.750007	0.325806
Cl349	Cl	-0.192681	0.000135	0.276025
Cl350	Cl	0.057319	0.250135	0.526025
Cl351	Cl	0.307319	0.500135	0.776025
Cl352	Cl	0.557319	0.750135	1.026025
Cl353	Cl	0.518667	0.175373	-0.313869
Cl354	Cl	0.768667	0.425373	-0.063869
Cl355	Cl	1.018667	0.675373	0.186131
Cl356	Cl	1.268667	0.925373	0.436131
H357	H	-0.271845	0.000120	-0.037664
H358	H	-0.021845	0.250120	0.212336
H359	H	0.228155	0.500120	0.462336
H360	H	0.478155	0.750120	0.712336
Cl361	Cl	-0.166673	0.000134	-0.069782
Cl362	Cl	0.083327	0.250134	0.180218
Cl363	Cl	0.333327	0.500134	0.430218
Cl364	Cl	0.583327	0.750134	0.680218
H365	H	0.490385	0.558197	0.078548
H366	H	0.740385	0.808197	0.328548
H367	H	0.990385	1.058197	0.578548
H368	H	1.240385	1.308197	0.828548
H369	H	0.651612	0.442160	0.136688
H370	H	0.901612	0.692160	0.386688
H371	H	1.151612	0.942160	0.636688
H372	H	1.401612	1.192160	0.886688
H373	H	0.656407	0.000051	-0.360526
H374	H	0.906407	0.250051	-0.110526
H375	H	1.156407	0.500051	0.139474
H376	H	1.406407	0.750051	0.389474
Cl377	Cl	0.108496	0.000126	-0.141622
Cl378	Cl	0.358496	0.250126	0.108378
Cl379	Cl	0.608496	0.500126	0.358378
Cl380	Cl	0.858496	0.750126	0.608378
Cl381	Cl	0.623347	-0.175171	-0.471006
Cl382	Cl	0.873347	0.074829	-0.221006
Cl383	Cl	1.123347	0.324829	0.028994
Cl384	Cl	1.373347	0.574829	0.278994
Cl385	Cl	-0.306483	0.000151	0.274003
Cl386	Cl	-0.056483	0.250151	0.524003
Cl387	Cl	0.193517	0.500151	0.774003
Cl388	Cl	0.443517	0.750151	1.024003
Cl389	Cl	0.623323	0.175381	-0.470910
Cl390	Cl	0.873323	0.425381	-0.220910
Cl391	Cl	1.123323	0.675381	0.029090
Cl392	Cl	1.373323	0.925381	0.279090
Cl393	Cl	-0.080314	0.000155	0.354694
Cl394	Cl	0.169686	0.250155	0.604694
Cl395	Cl	0.419686	0.500155	0.854694
Cl396	Cl	0.669686	0.750155	1.104694
Cl397	Cl	0.549427	0.427181	-0.067138
Cl398	Cl	0.799427	0.677181	0.182862
Cl399	Cl	1.049427	0.927181	0.432862
Cl400	Cl	1.299427	1.177181	0.682862
Cl401	Cl	-0.042763	0.000131	-0.144280
Cl402	Cl	0.207237	0.250131	0.105720
Cl403	Cl	0.457237	0.500131	0.355720
Cl404	Cl	0.707237	0.750131	0.605720
H405	H	0.507630	0.442143	0.218463
H406	H	0.757630	0.692143	0.468463
H407	H	1.007630	0.942143	0.718463
H408	H	1.257630	1.192143	0.968463
Cl409	Cl	0.650238	0.572551	-0.030977
Cl410	Cl	0.900238	0.822551	0.219023
Cl411	Cl	1.150238	1.072551	0.469023
Cl412	Cl	1.400238	1.322551	0.719023
Cl413	Cl	0.184730	0.000127	0.359388
Cl414	Cl	0.434730	0.250127	0.609388
Cl415	Cl	0.684730	0.500127	0.859388
Cl416	Cl	0.934730	0.750127	1.109388
Cl417	Cl	0.308633	0.000118	0.284880
Cl418	Cl	0.558633	0.250118	0.534880
Cl419	Cl	0.808633	0.500118	0.784880
Cl420	Cl	1.058633	0.750118	1.034880
H421	H	0.208563	0.000143	-0.105876
H422	H	0.458563	0.250143	0.144124
H423	H	0.708563	0.500143	0.394124
H424	H	0.958563	0.750143	0.644124
H425	H	0.343247	0.000085	-0.026806
H426	H	0.593247	0.250085	0.223194
H427	H	0.843247	0.500085	0.473194
H428	H	1.093247	0.750085	0.723194
H429	H	0.057303	0.000131	-0.108540
H430	H	0.307303	0.250131	0.141460
H431	H	0.557303	0.500131	0.391460
H432	H	0.807303	0.750131	0.641460
