data_functionalizedCrystal
_audit_creation_method	'MofGen! by Chris Wilmer'
_symmetry_space_group_name_H-M	'P1'
_symmetry_Int_Tables_number	1
_symmetry_cell_setting	triclinic
loop_
_symmetry_equiv_pos_as_xyz
  x,y,z
_cell_length_a	16.109301
_cell_length_b	19.288864
_cell_length_c	18.366186
_cell_angle_alpha	90.022894
_cell_angle_beta	89.992337
_cell_angle_gamma	96.701137
loop_
_atom_site_label
_atom_site_type_symbol
_atom_site_fract_x
_atom_site_fract_y
_atom_site_fract_z
O1	O	0.103716	-0.921600	-0.060785
O2	O	0.117707	-0.719373	-0.060736
O3	O	-0.010339	-0.826042	-0.060755
O4	O	0.231761	-0.814931	-0.060767
O5	O	-0.010345	-0.826024	0.060345
O6	O	0.117701	-0.719355	0.060363
O7	O	0.103710	-0.921582	0.060314
Zn8	Zn	0.110704	-0.820466	0.079566
Zn9	Zn	0.110712	-0.820490	-0.079988
O10	O	0.231755	-0.814913	0.060333
C11	C	0.117254	-0.693487	-0.000180
C12	C	0.115902	-0.616380	-0.000161
C13	C	-0.041315	-0.825583	-0.000205
C14	C	-0.133606	-0.824234	-0.000203
C15	C	0.104163	-0.947469	-0.000244
C16	C	0.105514	-1.024576	-0.000268
C17	C	-0.356084	-0.884391	-0.000229
C18	C	-0.442800	-0.883118	-0.000235
C19	C	-0.422493	-0.756559	-0.000201
C20	C	-0.335778	-0.757833	-0.000201
C21	C	-0.302577	-0.821751	-0.000211
C22	C	-0.476007	-0.819204	-0.000217
C23	C	-0.570028	-0.817823	-0.000223
C24	C	-0.208549	-0.823133	-0.000206
C25	C	0.262732	-0.815372	-0.000219
C26	C	0.355022	-0.816722	-0.000225
N27	N	0.110698	-0.820455	0.188457
C28	C	0.191034	-0.571863	-0.000176
C29	C	0.189764	-0.499413	-0.000184
C30	C	0.113359	-0.471483	-0.000191
C31	C	0.038218	-0.516009	-0.000172
C32	C	0.039489	-0.588458	-0.000157
C33	C	0.053298	-0.363084	-0.042639
C34	C	0.052029	-0.290636	-0.042659
C35	C	0.109433	-0.248028	-0.000235
C36	C	0.168120	-0.277874	0.042199
C37	C	0.169391	-0.350323	0.042214
C38	C	0.111971	-0.392925	-0.000207
C39	C	0.183193	-0.124952	-0.000258
C40	C	0.181920	-0.052501	-0.000262
C41	C	0.030372	-0.069099	-0.000257
C42	C	0.031647	-0.141548	-0.000246
C43	C	0.108060	-0.169470	-0.000250
N44	N	0.110712	-0.820506	-0.188879
C45	C	0.054027	-0.867703	0.226549
C46	C	0.054023	-0.867707	0.302777
C47	C	0.110705	-0.820470	0.340910
C48	C	0.167380	-0.773213	0.302808
C49	C	0.167377	-0.773205	0.226582
C50	C	0.186459	-0.811353	0.461668
C51	C	0.186463	-0.811365	0.537893
C52	C	0.110715	-0.820490	0.576017
C53	C	0.034960	-0.829616	0.537908
C54	C	0.034956	-0.829609	0.461681
C55	C	0.110715	-0.820473	0.423564
C56	C	0.054036	-0.867746	0.696764
C57	C	0.054031	-0.867745	0.772993
C58	C	0.167395	-0.773254	0.773023
C59	C	0.167392	-0.773251	0.696796
C60	C	0.110714	-0.820500	0.658671
H61	H	-0.329054	-0.936438	-0.000239
O62	O	0.265606	-0.155073	-0.000254
H63	H	0.269800	-0.187663	0.049107
O64	O	-0.046796	-0.839317	0.420648
H65	H	-0.051916	-0.792867	0.386010
O66	O	-0.046740	-0.839467	0.579028
H67	H	-0.081481	-0.890675	0.564383
H68	H	-0.449537	-0.704519	-0.000191
H69	H	-0.023992	-0.493264	-0.000188
O70	O	-0.007102	-0.918695	0.655635
H71	H	-0.046521	-0.951544	0.694933
H72	H	0.004247	-0.266341	-0.077214
O73	O	-0.500515	-0.950679	-0.000245
H74	H	-0.462856	-0.995336	-0.000246
H75	H	0.007874	-0.906184	0.333797
H76	H	-0.292210	-0.706821	-0.000188
H77	H	0.248146	-0.803910	0.430633
H78	H	0.253255	-0.594592	-0.000181
H79	H	0.007874	-0.906175	0.195510
H80	H	-0.021694	-0.624704	-0.000145
H81	H	0.250947	-0.463160	-0.000194
O82	O	0.232652	-0.382522	0.088009
H83	H	0.272346	-0.340729	0.117522
H84	H	0.214863	-0.243184	0.076745
H85	H	-0.029534	-0.177795	-0.000238
H86	H	0.007878	-0.906218	0.804009
O87	O	0.262958	-0.004480	-0.000275
H88	H	0.316302	-0.036071	-0.000281
O89	O	0.268165	-0.801525	0.578995
H90	H	0.273363	-0.847924	0.613689
H91	H	0.213542	-0.734789	0.804071
H92	H	0.006551	-0.397770	-0.077190
H93	H	0.213542	-0.734779	0.665779
H94	H	-0.031839	-0.046359	-0.000308
H95	H	0.213530	-0.734750	0.333860
O96	O	0.228508	-0.722248	0.185489
H97	H	0.267927	-0.689402	0.224808
