data_functionalizedCrystal
_audit_creation_method	'MofGen! by Chris Wilmer'
_symmetry_space_group_name_H-M	'P1'
_symmetry_Int_Tables_number	1
_symmetry_cell_setting	triclinic
loop_
_symmetry_equiv_pos_as_xyz
  x,y,z
_cell_length_a	15.995363
_cell_length_b	15.072220
_cell_length_c	15.995350
_cell_angle_alpha	90.001101
_cell_angle_beta	83.494885
_cell_angle_gamma	89.990650
loop_
_atom_site_label
_atom_site_type_symbol
_atom_site_fract_x
_atom_site_fract_y
_atom_site_fract_z
O1	O	-1.110989	0.073713	-0.107970
O2	O	-0.867216	0.073729	-0.121287
O3	O	-0.995766	0.073720	0.007259
O4	O	-0.982439	0.073722	-0.236516
O5	O	-0.995734	-0.073845	0.007252
O6	O	-0.867184	-0.073836	-0.121294
O7	O	-1.110958	-0.073852	-0.107977
Zn8	Zn	-0.989066	-0.097273	-0.114637
Zn9	Zn	-0.989108	0.097150	-0.114627
O10	O	-0.982407	-0.073843	-0.236523
C11	C	-0.836005	-0.000052	-0.120738
C12	C	-0.743055	-0.000046	-0.119082
N13	N	-0.989043	-0.229962	-0.114643
C14	C	-0.405310	-0.000068	-0.113135
C15	C	-0.452743	-0.000397	-0.021585
C16	C	-0.549433	-0.000058	-0.023242
C17	C	-0.572869	-0.000057	-0.116085
C18	C	-0.531801	0.084206	-0.161235
C19	C	-0.435165	0.084270	-0.158931
C20	C	-0.434790	-0.083539	-0.160831
C21	C	-0.531735	-0.084646	-0.160814
C22	C	-0.667566	-0.000049	-0.117757
C23	C	-0.310612	-0.000070	-0.111466
C24	C	-0.989106	-0.589164	-0.114624
C25	C	-0.920090	-0.551552	-0.183176
C26	C	-0.920248	-0.448726	-0.183426
C27	C	-0.989074	-0.410960	-0.114633
C28	C	-1.076438	-0.448256	-0.133719
C29	C	-1.076052	-0.551114	-0.134206
C30	C	-0.971536	-0.551263	-0.026784
C31	C	-0.969532	-0.448400	-0.027370
C32	C	-0.989062	-0.310246	-0.114637
C33	C	-0.989124	-0.689877	-0.114622
C34	C	-0.142170	-0.000072	-0.108515
C35	C	-0.235124	-0.000079	-0.110138
C36	C	-0.995199	-0.000061	0.038450
C37	C	-0.993548	-0.000056	0.131401
N38	N	-0.989137	0.229839	-0.114615
C39	C	-0.982974	-0.000060	-0.267714
C40	C	-0.984626	-0.000059	-0.360665
C41	C	-0.987615	-0.000059	0.469148
C42	C	-0.896064	0.000278	0.421718
C43	C	-0.897716	-0.000055	0.325028
C44	C	-0.990558	-0.000057	0.301588
C45	C	-1.035696	-0.084325	0.342659
C46	C	-1.033396	-0.084395	0.439295
C47	C	-1.035324	0.083414	0.439661
C48	C	-1.035302	0.084527	0.342716
C49	C	-0.992226	-0.000059	0.206890
C50	C	-0.985950	-0.000063	0.563846
H51	H	-0.434208	-0.060826	0.015008
O52	O	-0.392712	-0.084299	-0.250238
H53	H	-0.441436	-0.082126	-0.294391
H54	H	-0.402918	0.088094	-0.226146
O55	O	-0.569393	0.167277	-0.119684
H56	H	-0.539852	0.226406	-0.152164
O57	O	-1.096558	-0.582885	-0.219062
H58	H	-1.096491	-0.656516	-0.220250
O59	O	-1.122424	-0.089495	0.482016
H60	H	-1.135885	-0.030106	0.522334
H61	H	-1.002300	0.146866	0.315472
O62	O	-0.550512	0.088374	-0.251586
H63	H	-0.589378	0.030294	-0.265299
H64	H	-1.016534	-0.422695	0.026034
H65	H	-0.577849	-0.060461	0.012250
H66	H	-0.905266	-0.424024	-0.012886
H67	H	-0.854941	-0.576309	-0.171991
H68	H	-0.414241	-0.147410	-0.130903
O69	O	-1.038169	-0.583488	0.040820
H70	H	-1.100915	-0.560584	0.026404
H71	H	-0.862233	0.060352	0.296611
H72	H	-1.005405	0.147284	0.460205
H73	H	-0.559038	-0.146984	-0.127854
H74	H	-0.931467	-0.424113	-0.248611
H75	H	-0.433163	0.059698	0.014846
H76	H	-1.129012	-0.575993	-0.086245
O77	O	-0.934741	-0.585764	-0.269040
H78	H	-0.990965	-0.629439	-0.263105
O79	O	-0.994138	-0.167391	0.305063
H80	H	-0.969685	-0.207049	0.355479
O81	O	-1.146100	-0.415855	-0.069348
H82	H	-1.119129	-0.372717	-0.022961
O83	O	-0.552090	-0.091396	-0.250495
H84	H	-0.527757	-0.031839	-0.286127
O85	O	-1.124988	0.091269	0.322368
H86	H	-1.168380	0.090441	0.381652
O87	O	-1.124737	0.084176	0.481722
H88	H	-1.124309	0.086715	0.551022
O89	O	-0.847592	0.080310	0.446282
H90	H	-0.888231	0.120703	0.492561
O91	O	-0.586362	0.080093	0.024090
H92	H	-0.558901	0.141302	-0.006292
O93	O	-0.410923	0.167693	-0.115291
H94	H	-0.468195	0.207609	-0.096026
O95	O	-0.847786	-0.079322	0.447652
H96	H	-0.888714	-0.119124	0.494174
H97	H	-1.000455	-0.147386	0.457595
O98	O	-0.850384	-0.080210	0.288106
H99	H	-0.826230	-0.118891	0.339324
H100	H	-0.855309	-0.423511	-0.172054
H101	H	-1.092290	-0.422488	-0.197050
H102	H	-0.909214	-0.577250	-0.008432
H103	H	-1.103904	-0.087461	0.328530
