data_functionalizedCrystal
_audit_creation_method	'MofGen! by Chris Wilmer'
_symmetry_space_group_name_H-M	'P1'
_symmetry_Int_Tables_number	1
_symmetry_cell_setting	triclinic
loop_
_symmetry_equiv_pos_as_xyz
  x,y,z
_cell_length_a	18.101398
_cell_length_b	21.295417
_cell_length_c	18.101389
_cell_angle_alpha	89.978482
_cell_angle_beta	89.990255
_cell_angle_gamma	90.025259
loop_
_atom_site_label
_atom_site_type_symbol
_atom_site_fract_x
_atom_site_fract_y
_atom_site_fract_z
Zn1	Zn	1.132128	-0.250750	-0.418535
Zn2	Zn	1.465461	0.082583	-0.085201
Zn3	Zn	1.798795	0.415917	0.248132
Zn4	Zn	1.132027	-0.356003	-0.294686
Zn5	Zn	1.465360	-0.022670	0.038647
Zn6	Zn	1.798694	0.310663	0.371980
Zn7	Zn	1.008287	-0.250744	-0.294727
Zn8	Zn	1.341620	0.082589	0.038606
Zn9	Zn	1.674954	0.415923	0.371939
Zn10	Zn	1.008241	-0.355977	-0.418506
Zn11	Zn	1.341574	-0.022644	-0.085173
Zn12	Zn	1.674907	0.310690	0.248160
O13	O	1.070171	-0.303369	-0.356614
O14	O	1.403504	0.029965	-0.023280
O15	O	1.736837	0.363298	0.310053
O16	O	1.235748	-0.264726	-0.402101
O17	O	1.569081	0.068608	-0.068767
O18	O	1.902414	0.401941	0.264566
O19	O	1.115590	-0.342049	-0.191059
O20	O	1.448923	-0.008716	0.142274
O21	O	1.782256	0.324618	0.475608
O22	O	1.024776	-0.162655	-0.311179
O23	O	1.358110	0.170678	0.022154
O24	O	1.691443	0.504011	0.355487
O25	O	1.235673	-0.342055	-0.311110
O26	O	1.569007	-0.008722	0.022224
O27	O	1.902340	0.324612	0.355557
O28	O	1.115762	-0.162660	-0.402140
O29	O	1.449095	0.170674	-0.068807
O30	O	1.782429	0.504007	0.264526
O31	O	1.024678	-0.264715	-0.191089
O32	O	1.358012	0.068618	0.142244
O33	O	1.691345	0.401951	0.475578
O34	O	0.904648	-0.264690	-0.311152
O35	O	1.237981	0.068644	0.022181
O36	O	1.571315	0.401977	0.355514
O37	O	1.024698	-0.342010	-0.522143
O38	O	1.358031	-0.008677	-0.188810
O39	O	1.691364	0.324657	0.144524
O40	O	0.904614	-0.342004	-0.402092
O41	O	1.237947	-0.008671	-0.068759
O42	O	1.571281	0.324663	0.264574
O43	O	1.115717	-0.264700	-0.522164
O44	O	1.449050	0.068633	-0.188830
O45	O	1.782384	0.401967	0.144503
O46	O	1.115545	-0.444089	-0.311083
O47	O	1.448878	-0.110756	0.022251
O48	O	1.782212	0.222577	0.355584
O49	O	1.024600	-0.444070	-0.402053
O50	O	1.357933	-0.110737	-0.068719
O51	O	1.691266	0.222597	0.264614
C52	C	0.877760	-0.303344	-0.356624
C53	C	1.211094	0.029990	-0.023291
C54	C	1.544427	0.363323	0.310043
C55	C	0.795446	-0.303348	-0.356646
C56	C	1.128779	0.029985	-0.023313
C57	C	1.462113	0.363318	0.310021
C58	C	0.496355	-0.303385	-0.356615
C59	C	0.829688	0.029948	-0.023282
C60	C	1.163022	0.363281	0.310052
C61	C	0.527684	-0.352265	-0.413550
C62	C	0.861017	-0.018931	-0.080216
C63	C	1.194350	0.314402	0.253117
C64	C	0.613302	-0.352112	-0.413784
C65	C	0.946635	-0.018778	-0.080450
C66	C	1.279969	0.314555	0.252883
C67	C	0.644738	-0.303368	-0.356630
C68	C	0.978071	0.029966	-0.023297
C69	C	1.311404	0.363299	0.310036
C70	C	0.613681	-0.237068	-0.377962
C71	C	0.947015	0.096266	-0.044629
C72	C	1.280348	0.429599	0.288704
C73	C	0.528036	-0.237361	-0.378367
C74	C	0.861370	0.095972	-0.045034
C75	C	1.194703	0.429305	0.288299
C76	C	0.527903	-0.320222	-0.278211
C77	C	0.861236	0.013112	0.055122
C78	C	1.194570	0.346445	0.388455
C79	C	0.613553	-0.321676	-0.278630
C80	C	0.946886	0.011657	0.054703
C81	C	1.280220	0.344990	0.388037
C82	C	0.728597	-0.303353	-0.356638
C83	C	1.061931	0.029980	-0.023305
C84	C	1.395264	0.363313	0.310029
C85	C	0.412496	-0.303395	-0.356609
C86	C	0.745829	0.029938	-0.023276
C87	C	1.079162	0.363272	0.310057
C88	C	1.070076	-0.466920	-0.356576
C89	C	1.403410	-0.133587	-0.023243
C90	C	1.736743	0.199746	0.310090
C91	C	1.070104	-0.536888	-0.356585
C92	C	1.403437	-0.203555	-0.023252
C93	C	1.736770	0.129778	0.310082
C94	C	1.117453	-0.569700	-0.403982
C95	C	1.450786	-0.236367	-0.070649
C96	C	1.784119	0.096967	0.262685
C97	C	1.117479	-0.635443	-0.404000
C98	C	1.450812	-0.302109	-0.070667
C99	C	1.784146	0.031224	0.262666
C100	C	1.070164	-0.668371	-0.356608
C101	C	1.403497	-0.335037	-0.023275
C102	C	1.736830	-0.001704	0.310058
C103	C	1.022806	-0.635551	-0.309208
C104	C	1.356139	-0.302218	0.024125
C105	C	1.689472	0.031116	0.357459
C106	C	1.022776	-0.569810	-0.309196
C107	C	1.356109	-0.236476	0.024137
C108	C	1.689442	0.096857	0.357470
N109	N	1.064571	-0.771624	-0.291797
N110	N	1.397904	-0.438290	0.041536
N111	N	1.731237	-0.104957	0.374869
N112	N	1.064604	-0.834075	-0.291810
N113	N	1.397937	-0.500742	0.041523
N114	N	1.731270	-0.167408	0.374856
C115	C	1.070250	-0.866445	-0.356642
C116	C	1.403584	-0.533112	-0.023308
C117	C	1.736917	-0.199779	0.310025
N118	N	1.075877	-0.834005	-0.421461
N119	N	1.409211	-0.500672	-0.088127
N120	N	1.742544	-0.167339	0.245206
N121	N	1.075848	-0.771548	-0.421447
N122	N	1.409182	-0.438215	-0.088113
N123	N	1.742515	-0.104881	0.245220
C124	C	1.070191	-0.739656	-0.356616
C125	C	1.403524	-0.406323	-0.023283
C126	C	1.736857	-0.072989	0.310051
C127	C	1.117630	-0.970543	-0.404063
C128	C	1.450964	-0.637209	-0.070729
C129	C	1.784297	-0.303876	0.262604
C130	C	1.117651	-1.036286	-0.404082
C131	C	1.450984	-0.702953	-0.070749
C132	C	1.784318	-0.369620	0.262585
C133	C	1.022982	-1.036394	-0.309283
C134	C	1.356315	-0.703060	0.024050
C135	C	1.689648	-0.369727	0.357384
C136	C	1.022957	-0.970651	-0.309270
C137	C	1.356290	-0.637318	0.024063
C138	C	1.689623	-0.303985	0.357397
C139	C	1.070285	-0.937730	-0.356659
C140	C	1.403618	-0.604396	-0.023326
C141	C	1.736952	-0.271063	0.310008
C142	C	1.263333	-0.303394	-0.356604
C143	C	1.596666	0.029939	-0.023270
C144	C	1.929999	0.363273	0.310063
C145	C	1.345647	-0.303405	-0.356600
C146	C	1.678980	0.029929	-0.023266
C147	C	2.012313	0.363262	0.310067
C148	C	1.070214	-0.303353	-0.549776
C149	C	1.403547	0.029981	-0.216442
C150	C	1.736880	0.363314	0.116891
C151	C	1.070232	-0.303346	-0.632090
C152	C	1.403565	0.029987	-0.298756
C153	C	1.736898	0.363321	0.034577
C154	C	1.070286	-0.139178	-0.356668
C155	C	1.403619	0.194155	-0.023334
C156	C	1.736952	0.527488	0.309999
C157	C	1.070335	-0.069210	-0.356690
C158	C	1.403668	0.264123	-0.023357
C159	C	1.737001	0.597457	0.309976
C160	C	1.070275	-0.303228	-0.931181
C161	C	1.403608	0.030105	-0.597848
C162	C	1.736942	0.363439	-0.264514
C163	C	1.012811	-0.351714	-0.899843
C164	C	1.346144	-0.018381	-0.566509
C165	C	1.679477	0.314952	-0.233176
C166	C	1.012966	-0.351939	-0.814224
C167	C	1.346299	-0.018606	-0.480891
C168	C	1.679633	0.314727	-0.147558
C169	C	1.070253	-0.303286	-0.782798
C170	C	1.403586	0.030047	-0.449465
C171	C	1.736920	0.363380	-0.116132
C172	C	1.148279	-0.321298	-0.813883
C173	C	1.481612	0.012035	-0.480550
C174	C	1.814945	0.345368	-0.147216
C175	C	1.147959	-0.321617	-0.899528
C176	C	1.481292	0.011717	-0.566195
C177	C	1.814625	0.345050	-0.232861
C178	C	1.050392	-0.236622	-0.899615
C179	C	1.383725	0.096712	-0.566281
C180	C	1.717058	0.430045	-0.232948
C181	C	1.048656	-0.237006	-0.813964
C182	C	1.381989	0.096327	-0.480631
C183	C	1.715322	0.429660	-0.147297
C184	C	1.070245	-0.303318	-0.698939
C185	C	1.403579	0.030015	-0.365605
C186	C	1.736912	0.363348	-0.032272
C187	C	1.070288	-0.303197	-1.015041
C188	C	1.403621	0.030136	-0.681707
C189	C	1.736954	0.363469	-0.348374
C190	C	1.070171	-0.303339	-0.164203
C191	C	1.403504	0.029994	0.169130
C192	C	1.736837	0.363328	0.502463
C193	C	1.070296	-0.303168	-0.081890
C194	C	1.403629	0.030165	0.251444
C195	C	1.736963	0.363498	0.584777
H196	H	0.507313	-0.199638	-0.338801
H197	H	0.840647	0.133695	-0.005467
H198	H	1.173980	0.467028	0.327866
H199	H	1.156030	-0.662163	-0.442605
H200	H	1.489363	-0.328830	-0.109272
H201	H	1.822697	0.004504	0.224061
H202	H	0.507070	-0.401591	-0.400329
H203	H	0.840403	-0.068257	-0.066995
H204	H	1.173736	0.265076	0.266338
H205	H	0.984280	-0.662365	-0.270623
H206	H	1.317613	-0.329032	0.062711
H207	H	1.650946	0.004301	0.396044
H208	H	0.984217	-0.543094	-0.270599
H209	H	1.317551	-0.209761	0.062734
H210	H	1.650884	0.123573	0.396068
Br211	Br	0.916078	-0.333117	-0.934169
Br212	Br	1.249411	0.000216	-0.600836
Br213	Br	1.582745	0.333549	-0.267503
H214	H	1.192244	-0.287093	-0.793528
H215	H	1.525577	0.046241	-0.460195
H216	H	1.858910	0.379574	-0.126861
Br217	Br	1.034421	-0.433491	-0.935770
Br218	Br	1.367754	-0.100158	-0.602437
Br219	Br	1.701088	0.233176	-0.269103
H220	H	1.192225	-0.287834	-0.920259
H221	H	1.525558	0.045499	-0.586926
H222	H	1.858892	0.378832	-0.253593
Br223	Br	1.176863	-0.401589	-0.778134
Br224	Br	1.510197	-0.068256	-0.444801
Br225	Br	1.843530	0.265078	-0.111468
Br226	Br	0.916531	-0.333147	-0.779190
Br227	Br	1.249865	0.000186	-0.445857
Br228	Br	1.583198	0.333519	-0.112523
Br229	Br	0.957207	-0.209272	-0.935615
Br230	Br	1.290540	0.124062	-0.602281
Br231	Br	1.623874	0.457395	-0.268948
Br232	Br	0.494761	-0.213559	-0.473898
Br233	Br	0.828094	0.119774	-0.140565
Br234	Br	1.161428	0.453108	0.192768
H235	H	1.156208	-1.063001	-0.442682
H236	H	1.489542	-0.729667	-0.109349
H237	H	1.822875	-0.396334	0.223985
Br238	Br	1.120151	-0.176411	-0.933392
Br239	Br	1.453485	0.156923	-0.600058
Br240	Br	1.786818	0.490256	-0.266725
Br241	Br	1.181858	-0.925860	-0.468376
Br242	Br	1.515191	-0.592526	-0.135042
Br243	Br	1.848524	-0.259193	0.198291
Br244	Br	1.034889	-0.434219	-0.780068
Br245	Br	1.368223	-0.100886	-0.446735
Br246	Br	1.701556	0.232448	-0.113401
H247	H	0.633859	-0.370463	-0.262542
H248	H	0.967192	-0.037130	0.070792
H249	H	1.300525	0.296203	0.404125
Br250	Br	0.648302	-0.434064	-0.391532
Br251	Br	0.981635	-0.100730	-0.058199
Br252	Br	1.314969	0.232603	0.275134
Br253	Br	0.647481	-0.333547	-0.510608
Br254	Br	0.980814	-0.000214	-0.177275
Br255	Br	1.314147	0.333119	0.156058
H256	H	1.164814	-0.370307	-0.919504
H257	H	1.498148	-0.036973	-0.586171
H258	H	1.831481	0.296360	-0.252837
Br259	Br	0.958692	-0.926118	-0.244944
Br260	Br	1.292025	-0.592784	0.088390
Br261	Br	1.625359	-0.259451	0.421723
H262	H	0.991235	-0.223423	-0.793648
H263	H	1.324569	0.109910	-0.460314
H264	H	1.657902	0.443243	-0.126981
H265	H	0.984452	-1.063203	-0.270700
H266	H	1.317785	-0.729870	0.062633
H267	H	1.651119	-0.396537	0.395967
Br268	Br	0.647620	-0.174719	-0.311007
Br269	Br	0.980954	0.158615	0.022327
Br270	Br	1.314287	0.491948	0.355660
H271	H	1.087456	-0.198963	-0.792572
H272	H	1.420789	0.134370	-0.459239
H273	H	1.754122	0.467704	-0.125906
H274	H	0.635146	-0.222528	-0.434656
H275	H	0.968479	0.110805	-0.101323
H276	H	1.301812	0.444138	0.232011
H277	H	0.506173	-0.341268	-0.471306
H278	H	0.839506	-0.007934	-0.137972
H279	H	1.172840	0.325399	0.195361
H280	H	0.506291	-0.367740	-0.258826
H281	H	0.839624	-0.034407	0.074507
H282	H	1.172958	0.298927	0.407840
H283	H	0.634952	-0.288659	-0.233931
H284	H	0.968286	0.044674	0.099402
H285	H	1.301619	0.378007	0.432736
H286	H	0.507644	-0.284618	-0.235790
H287	H	0.840977	0.048715	0.097544
H288	H	1.174310	0.382049	0.430877
Br289	Br	1.181680	-0.525024	-0.468299
Br290	Br	1.515013	-0.191690	-0.134965
Br291	Br	1.848346	0.141643	0.198368
