data_functionalizedCrystal
_audit_creation_method	'MofGen! by Chris Wilmer'
_symmetry_space_group_name_H-M	'P1'
_symmetry_Int_Tables_number	1
_symmetry_cell_setting	triclinic
loop_
_symmetry_equiv_pos_as_xyz
  x,y,z
_cell_length_a	16.625547
_cell_length_b	13.897447
_cell_length_c	13.897441
_cell_angle_alpha	89.970673
_cell_angle_beta	89.973876
_cell_angle_gamma	90.019467
loop_
_atom_site_label
_atom_site_type_symbol
_atom_site_fract_x
_atom_site_fract_y
_atom_site_fract_z
Zn1	Zn	1.232707	-0.383986	-0.545528
Zn2	Zn	1.566041	-0.050652	-0.212195
Zn3	Zn	1.899374	0.282681	0.121138
Zn4	Zn	1.232614	-0.545307	-0.384233
Zn5	Zn	1.565948	-0.211974	-0.050900
Zn6	Zn	1.899281	0.121359	0.282433
Zn7	Zn	1.097866	-0.384028	-0.384232
Zn8	Zn	1.431199	-0.050695	-0.050898
Zn9	Zn	1.764533	0.282639	0.282435
Zn10	Zn	1.097846	-0.545240	-0.545471
Zn11	Zn	1.431180	-0.211907	-0.212138
Zn12	Zn	1.764513	0.121426	0.121196
O13	O	1.165259	-0.464640	-0.464866
O14	O	1.498592	-0.131307	-0.131533
O15	O	1.831925	0.202026	0.201801
O16	O	1.345527	-0.405396	-0.524157
O17	O	1.678861	-0.072062	-0.190824
O18	O	2.012194	0.261271	0.142510
O19	O	1.214709	-0.523959	-0.249251
O20	O	1.548042	-0.190626	0.084082
O21	O	1.881376	0.142708	0.417415
O22	O	1.115800	-0.249041	-0.405651
O23	O	1.449133	0.084293	-0.072318
O24	O	1.782467	0.417626	0.261015
O25	O	1.345459	-0.523918	-0.405654
O26	O	1.678792	-0.190585	-0.072321
O27	O	2.012126	0.142748	0.261012
O28	O	1.214867	-0.249010	-0.524155
O29	O	1.548201	0.084324	-0.190822
O30	O	1.881534	0.417657	0.142511
O31	O	1.115710	-0.405468	-0.249250
O32	O	1.449043	-0.072134	0.084083
O33	O	1.782377	0.261199	0.417417
O34	O	0.985031	-0.405403	-0.405596
O35	O	1.318364	-0.072069	-0.072262
O36	O	1.651698	0.261264	0.261071
O37	O	1.115767	-0.523804	-0.680460
O38	O	1.449100	-0.190470	-0.347127
O39	O	1.782433	0.142863	-0.013794
O40	O	0.985017	-0.523845	-0.524057
O41	O	1.318350	-0.190511	-0.190724
O42	O	1.651683	0.142822	0.142609
O43	O	1.214848	-0.405331	-0.680503
O44	O	1.548182	-0.071997	-0.347169
O45	O	1.881515	0.261336	-0.013836
O46	O	1.214690	-0.680280	-0.405599
O47	O	1.548023	-0.346947	-0.072265
O48	O	1.881357	-0.013613	0.261068
O49	O	1.115677	-0.680231	-0.524059
O50	O	1.449010	-0.346897	-0.190726
O51	O	1.782343	-0.013564	0.142608
C52	C	1.165193	-0.715255	-0.464844
C53	C	1.498526	-0.381921	-0.131510
C54	C	1.831860	-0.048588	0.201823
C55	C	1.165239	-0.822469	-0.464866
C56	C	1.498572	-0.489135	-0.131533
C57	C	1.831905	-0.155802	0.201800
C58	C	0.955768	-0.464622	-0.464821
C59	C	1.289101	-0.131288	-0.131487
C60	C	1.622434	0.202045	0.201846
C61	C	0.866147	-0.464637	-0.464824
C62	C	1.199480	-0.131303	-0.131491
C63	C	1.532813	0.202030	0.201843
C64	C	1.165278	-0.909538	-0.464888
C65	C	1.498611	-0.576205	-0.131555
C66	C	1.831944	-0.242872	0.201778
C67	C	1.165334	-1.018771	-0.464913
C68	C	1.498668	-0.685437	-0.131580
C69	C	1.832001	-0.352104	0.201753
C70	C	0.793364	-0.464639	-0.464836
C71	C	1.126698	-0.131305	-0.131502
C72	C	1.460031	0.202028	0.201831
C73	C	0.702056	-0.464644	-0.464860
C74	C	1.035389	-0.131310	-0.131527
C75	C	1.368722	0.202023	0.201807
C76	C	0.629279	-0.464653	-0.464884
C77	C	0.962613	-0.131319	-0.131551
C78	C	1.295946	0.202014	0.201782
C79	C	0.537965	-0.464659	-0.464908
C80	C	0.871298	-0.131326	-0.131574
C81	C	1.204632	0.202007	0.201759
C82	C	1.375567	-0.464660	-0.464912
C83	C	1.708901	-0.131326	-0.131579
C84	C	2.042234	0.202007	0.201754
C85	C	1.465189	-0.464668	-0.464932
C86	C	1.798522	-0.131335	-0.131599
C87	C	2.131855	0.201999	0.201735
C88	C	1.165316	-0.464555	-0.716459
C89	C	1.498649	-0.131222	-0.383126
C90	C	1.831982	0.202112	-0.049793
C91	C	1.165340	-0.464519	-0.823673
C92	C	1.498673	-0.131185	-0.490340
C93	C	1.832007	0.202148	-0.157007
C94	C	1.165346	-0.213047	-0.464910
C95	C	1.498680	0.120286	-0.131576
C96	C	1.832013	0.453619	0.201757
C97	C	1.165384	-0.105833	-0.464928
C98	C	1.498717	0.227500	-0.131595
C99	C	1.832050	0.560833	0.201738
C100	C	1.165362	-0.464453	-1.019968
C101	C	1.498695	-0.131120	-0.686635
C102	C	1.832029	0.202213	-0.353302
C103	C	1.165347	-0.464492	-0.910736
C104	C	1.498681	-0.131159	-0.577403
C105	C	1.832014	0.202174	-0.244069
C106	C	1.165248	-0.464656	-0.214252
C107	C	1.498581	-0.131322	0.119082
C108	C	1.831915	0.202011	0.452415
C109	C	1.165380	-0.464420	-0.107038
C110	C	1.498713	-0.131087	0.226295
C111	C	1.832047	0.202246	0.559628
