data_functionalizedCrystal
_audit_creation_method	'MofGen! by Chris Wilmer'
_symmetry_space_group_name_H-M	'P1'
_symmetry_Int_Tables_number	1
_symmetry_cell_setting	triclinic
loop_
_symmetry_equiv_pos_as_xyz
  x,y,z
_cell_length_a	13.339070
_cell_length_b	11.026607
_cell_length_c	9.483334
_cell_angle_alpha	101.356618
_cell_angle_beta	101.887650
_cell_angle_gamma	67.892344
loop_
_atom_site_label
_atom_site_type_symbol
_atom_site_fract_x
_atom_site_fract_y
_atom_site_fract_z
O1	O	0.464487	-1.747643	0.120881
O2	O	0.413099	-1.377034	0.120884
O3	O	0.283783	-1.519805	0.120879
O4	O	0.593803	-1.604872	0.120887
O5	O	0.257376	-1.548727	-0.120898
O6	O	0.386692	-1.405956	-0.120892
O7	O	0.438080	-1.776565	-0.120895
Cu8	Cu	0.409975	-1.593901	-0.142970
Cu9	Cu	0.441204	-1.559698	0.142959
O10	O	0.567396	-1.633794	-0.120890
C11	C	0.390415	-1.343092	-0.000004
C12	C	0.362155	-1.198863	-0.000003
C13	C	0.230274	-1.519896	-0.000007
C14	C	0.110173	-1.477063	-0.000001
N15	N	0.388011	-1.617967	-0.344077
C16	C	-0.193971	-1.810106	-0.000004
C17	C	-0.081131	-1.850354	-0.000018
C18	C	-0.033299	-1.757035	-0.000014
C19	C	-0.098320	-1.623460	0.000004
C20	C	-0.211172	-1.583208	0.000007
C21	C	-0.050500	-1.530138	-0.000002
C22	C	-0.115521	-1.396563	0.000015
C23	C	-0.228362	-1.356318	0.000019
C24	C	-0.276194	-1.449637	0.000014
C25	C	0.062353	-1.570389	-0.000005
C26	C	0.045152	-1.343492	0.000006
C27	C	-0.067689	-1.303243	0.000020
C28	C	0.620905	-1.633702	-0.000000
C29	C	0.741008	-1.676534	0.000003
C30	C	0.460764	-1.810506	-0.000004
C31	C	0.489026	-1.954735	0.000004
C32	C	0.440188	-1.151330	0.000000
C33	C	0.410981	-1.002262	0.000002
C34	C	0.434723	-1.566781	-0.416304
C35	C	0.416443	-1.586833	-0.583710
N36	N	0.463162	-1.535639	0.344066
H37	H	0.058581	-1.789814	-0.000025
H38	H	-0.368076	-1.416872	0.000031
H39	H	-0.232928	-1.886073	-0.000020
H40	H	-0.120644	-1.194484	0.000034
H41	H	0.322550	-0.932596	0.000036
H42	H	0.488253	-1.508119	-0.354208
H43	H	0.115281	-1.679147	-0.000020
H44	H	0.362919	-1.645511	-0.645803
C45	C	0.539555	-1.451904	-0.422510
C46	C	0.535429	-1.456439	-0.572126
H47	H	0.584166	-1.403005	-0.370774
H48	H	0.569520	-1.539158	-0.397633
H49	H	0.467775	-1.410452	-0.397653
H50	H	0.607209	-1.497900	-0.596985
H51	H	0.505468	-1.369169	-0.597014
H52	H	0.528617	-1.220997	-0.000006
C53	C	-0.075473	-2.070581	-0.000031
C54	C	-0.009664	-1.997171	-0.000033
H55	H	-0.031347	-2.161223	-0.000032
H56	H	-0.129055	-2.060243	-0.084335
H57	H	-0.110632	-2.040074	0.084292
H58	H	0.025490	-2.027672	-0.084362
H59	H	0.043938	-2.007517	0.084279
H60	H	0.273729	-1.129193	0.000032
C61	C	-0.234027	-1.136080	0.000036
C62	C	-0.299835	-1.209493	0.000028
H63	H	-0.278152	-1.045437	0.000050
H64	H	-0.198868	-1.166577	-0.084272
H65	H	-0.180441	-1.146423	0.084354
H66	H	-0.353417	-1.199157	-0.084296
H67	H	-0.335012	-1.178986	0.084345
C68	C	0.210498	-1.304435	0.000030
C69	C	0.097717	-1.240901	0.000023
H70	H	0.242953	-1.241103	0.000047
H71	H	0.223308	-1.367714	-0.084281
H72	H	0.241721	-1.347560	0.084345
H73	H	0.066493	-1.197785	-0.084299
H74	H	0.084900	-1.177599	0.084342
H75	H	0.577460	-1.024396	-0.000003
C76	C	0.311625	-1.701697	-0.577509
C77	C	0.315749	-1.697166	-0.427893
H78	H	0.267006	-1.750586	-0.629247
H79	H	0.383395	-1.743145	-0.602365
H80	H	0.281658	-1.614431	-0.602383
H81	H	0.345723	-1.784433	-0.403017
H82	H	0.243965	-1.655721	-0.403027
