data_functionalizedCrystal
_audit_creation_method	'MofGen! by Chris Wilmer'
_symmetry_space_group_name_H-M	'P1'
_symmetry_Int_Tables_number	1
_symmetry_cell_setting	triclinic
loop_
_symmetry_equiv_pos_as_xyz
  x,y,z
_cell_length_a	14.519709
_cell_length_b	11.792241
_cell_length_c	10.268362
_cell_angle_alpha	90.003760
_cell_angle_beta	90.002293
_cell_angle_gamma	83.936780
loop_
_atom_site_label
_atom_site_type_symbol
_atom_site_fract_x
_atom_site_fract_y
_atom_site_fract_z
O1	O	0.126399	1.506209	0.108277
O2	O	0.376399	1.756209	0.358277
O3	O	0.626399	2.006209	0.608277
O4	O	0.876399	2.256209	0.858277
O5	O	0.139427	1.175796	0.108286
O6	O	0.389427	1.425796	0.358286
O7	O	0.639427	1.675796	0.608286
O8	O	0.889427	1.925796	0.858286
O9	O	-0.001293	1.349763	0.108270
O10	O	0.248707	1.599763	0.358270
O11	O	0.498707	1.849763	0.608270
O12	O	0.748707	2.099763	0.858270
O13	O	0.267119	1.332242	0.108294
O14	O	0.517119	1.582242	0.358294
O15	O	0.767119	1.832242	0.608294
O16	O	1.017119	2.082242	0.858294
O17	O	-0.001289	1.349746	-0.108331
O18	O	0.248711	1.599746	0.141669
O19	O	0.498711	1.849746	0.391669
O20	O	0.748711	2.099746	0.641669
O21	O	0.139431	1.175779	-0.108315
O22	O	0.389431	1.425779	0.141685
O23	O	0.639431	1.675779	0.391685
O24	O	0.889431	1.925779	0.641685
O25	O	0.126404	1.506192	-0.108323
O26	O	0.376404	1.756192	0.141677
O27	O	0.626404	2.006192	0.391677
O28	O	0.876404	2.256192	0.641677
Cu29	Cu	0.132918	1.340984	-0.128096
Cu30	Cu	0.382918	1.590984	0.121904
Cu31	Cu	0.632918	1.840984	0.371904
Cu32	Cu	0.882918	2.090984	0.621904
Cu33	Cu	0.132912	1.341004	0.128059
Cu34	Cu	0.382912	1.591004	0.378059
Cu35	Cu	0.632912	1.841004	0.628059
Cu36	Cu	0.882912	2.091004	0.878059
O37	O	0.267124	1.332225	-0.108307
O38	O	0.517124	1.582225	0.141693
O39	O	0.767124	1.832225	0.391693
O40	O	1.017124	2.082225	0.641693
C41	C	-0.035654	1.348938	-0.000031
C42	C	0.214346	1.598938	0.249969
C43	C	0.464346	1.848938	0.499969
C44	C	0.714346	2.098938	0.749969
C45	C	-0.138044	1.346491	-0.000031
C46	C	0.111956	1.596491	0.249969
C47	C	0.361956	1.846491	0.499969
C48	C	0.611956	2.096491	0.749969
C49	C	0.127220	1.548487	-0.000021
C50	C	0.377220	1.798487	0.249979
C51	C	0.627220	2.048487	0.499979
C52	C	0.877220	2.298487	0.749979
C53	C	0.129669	1.674487	-0.000015
C54	C	0.379669	1.924487	0.249985
C55	C	0.629669	2.174487	0.499985
C56	C	0.879669	2.424487	0.749985
C57	C	0.138611	1.133501	-0.000013
C58	C	0.388611	1.383501	0.249987
C59	C	0.638611	1.633501	0.499987
C60	C	0.888611	1.883501	0.749987
C61	C	0.136161	1.007501	-0.000010
C62	C	0.386161	1.257501	0.249990
C63	C	0.636161	1.507501	0.499990
C64	C	0.886161	1.757501	0.749990
C65	C	-0.512973	1.337483	0.000003
C66	C	-0.262973	1.587483	0.250003
C67	C	-0.012973	1.837483	0.500003
C68	C	0.237027	2.087483	0.750003
C69	C	-0.408656	1.339984	-0.000007
C70	C	-0.158656	1.589984	0.249993
C71	C	0.091344	1.839984	0.499993
C72	C	0.341344	2.089984	0.749993
C73	C	-0.325512	1.341987	-0.000016
C74	C	-0.075512	1.591987	0.249984
C75	C	0.174488	1.841987	0.499984
C76	C	0.424488	2.091987	0.749984
C77	C	-0.221188	1.344489	-0.000023
C78	C	0.028812	1.594489	0.249977
C79	C	0.278812	1.844489	0.499977
C80	C	0.528812	2.094489	0.749977
C81	C	0.301484	1.333050	-0.000004
C82	C	0.551484	1.583050	0.249996
C83	C	0.801484	1.833050	0.499996
C84	C	1.051484	2.083050	0.749996
C85	C	0.403875	1.335497	0.000006
C86	C	0.653875	1.585497	0.250006
C87	C	0.903875	1.835497	0.500006
C88	C	1.153875	2.085497	0.750006
N89	N	0.132922	1.340978	-0.308262
N90	N	0.382922	1.590978	-0.058262
N91	N	0.632922	1.840978	0.191738
N92	N	0.882922	2.090978	0.441738
C93	C	0.134173	1.905174	-0.000015
C94	C	0.384173	2.155174	0.249985
C95	C	0.634173	2.405174	0.499985
C96	C	0.884173	2.655174	0.749985
C97	C	0.131671	1.776803	-0.000016
C98	C	0.381671	2.026803	0.249984
C99	C	0.631671	2.276803	0.499984
C100	C	0.881671	2.526803	0.749984
C101	C	0.132922	1.340987	-0.426104
C102	C	0.382922	1.590987	-0.176104
C103	C	0.632922	1.840987	0.073896
C104	C	0.882922	2.090987	0.323896
C105	C	0.132914	1.341001	-0.573942
C106	C	0.382914	1.591001	-0.323942
C107	C	0.632914	1.841001	-0.073942
C108	C	0.882914	2.091001	0.176058
N109	N	0.132902	1.341018	0.308225
N110	N	0.382902	1.591018	0.558225
N111	N	0.632902	1.841018	0.808225
N112	N	0.882902	2.091018	1.058225
