data_functionalizedCrystal
_audit_creation_method	'MofGen! by Chris Wilmer'
_symmetry_space_group_name_H-M	'P1'
_symmetry_Int_Tables_number	1
_symmetry_cell_setting	triclinic
loop_
_symmetry_equiv_pos_as_xyz
  x,y,z
_cell_length_a	23.204063
_cell_length_b	23.204065
_cell_length_c	23.204116
_cell_angle_alpha	59.997987
_cell_angle_beta	89.998953
_cell_angle_gamma	60.000253
loop_
_atom_site_label
_atom_site_type_symbol
_atom_site_fract_x
_atom_site_fract_y
_atom_site_fract_z
O1	O	-0.491197	-0.412484	0.017135
O2	O	-0.407392	-0.294473	-0.017070
O3	O	-0.407389	-0.412483	0.100940
O4	O	-0.491200	-0.294474	-0.100875
O5	O	-0.311538	-0.508333	0.100940
O6	O	-0.311541	-0.390323	-0.017071
O7	O	-0.395346	-0.508335	0.017135
Zn8	Zn	-0.338225	-0.464547	0.000032
Zn9	Zn	-0.464513	-0.338260	0.000033
O10	O	-0.395349	-0.390324	-0.100876
C11	C	-0.310652	-0.181456	-0.024838
C12	C	-0.346214	-0.110333	-0.019942
C13	C	-0.241294	-0.215971	-0.025323
C14	C	-0.310655	-0.285810	-0.024846
C15	C	-0.346219	-0.326263	-0.019957
C16	C	-0.241297	-0.320167	-0.025331
C17	C	-0.206293	-0.285815	-0.024838
C18	C	-0.130274	-0.326273	-0.019941
C19	C	-0.345497	-0.215967	-0.025331
C20	C	-0.658540	-0.590043	0.035860
C21	C	-0.734559	-0.549588	0.030967
C22	C	-0.623539	-0.659889	0.036349
C23	C	-0.554183	-0.590040	0.035855
C24	C	-0.518621	-0.549582	0.030958
C25	C	-0.519339	-0.659886	0.036344
C26	C	-0.554182	-0.694402	0.035859
C27	C	-0.518619	-0.765527	0.030967
C28	C	-0.623539	-0.555686	0.036345
C29	C	-0.489889	-0.822989	0.027012
C30	C	-0.795974	-0.516903	0.027013
C31	C	-0.489891	-0.516895	0.027000
C32	C	-0.453845	-0.895077	0.022052
C33	C	-0.873022	-0.475899	0.022054
C34	C	-0.453848	-0.475888	0.022036
C35	C	-0.554187	-0.212776	-0.445775
C36	C	-0.518624	-0.253233	-0.481336
C37	C	-0.623545	-0.142931	-0.480619
C38	C	-0.554188	-0.212775	-0.341416
C39	C	-0.518626	-0.253231	-0.265397
C40	C	-0.623546	-0.142930	-0.376419
C41	C	-0.658547	-0.108416	-0.445777
C42	C	-0.734566	-0.037291	-0.481340
C43	C	-0.519344	-0.247131	-0.376417
C44	C	-0.795982	0.020169	-0.510072
C45	C	-0.489893	-0.285920	-0.510065
C46	C	-0.489896	-0.285917	-0.203980
C47	C	-0.873032	0.092257	-0.546117
C48	C	-0.453848	-0.326925	-0.546108
C49	C	-0.453852	-0.326922	-0.126930
O50	O	0.100922	-0.508345	0.017151
O51	O	-0.100892	-0.390333	-0.017055
O52	O	0.017109	-0.508348	0.100956
O53	O	-0.017080	-0.390330	-0.100860
O54	O	0.017112	-0.412502	0.100963
O55	O	-0.100890	-0.294486	-0.017048
O56	O	0.100924	-0.412499	0.017158
Zn57	Zn	0.000018	-0.338275	0.000056
Zn58	Zn	0.000014	-0.464556	0.000047
O59	O	-0.017077	-0.294483	-0.100853
O60	O	-0.395342	0.083766	0.017156
O61	O	-0.311534	-0.083842	-0.017048
O62	O	-0.311538	-0.083852	0.100962
O63	O	-0.395338	0.083777	-0.100854
O64	O	-0.407391	-0.083849	0.100954
O65	O	-0.407387	-0.083839	-0.017056
O66	O	-0.491195	0.083770	0.017149
Zn67	Zn	-0.464510	-0.000034	0.000045
Zn68	Zn	-0.338219	-0.000039	0.000055
O69	O	-0.491191	0.083780	-0.100861
O70	O	-1.100901	0.281028	-0.592582
O71	O	-0.899087	0.113413	-0.508770
O72	O	-1.017091	0.113409	-0.508767
O73	O	-0.982897	0.281032	-0.592584
O74	O	-1.017088	0.113407	-0.604617
O75	O	-0.899085	0.113411	-0.604619
O76	O	-1.100898	0.281026	-0.688432
Zn77	Zn	-0.999991	0.197218	-0.661744
Zn78	Zn	-0.999994	0.197221	-0.535458
O79	O	-0.982895	0.281030	-0.688434
O80	O	-0.407389	-0.412483	-0.688416
O81	O	-0.491197	-0.294477	-0.604610
O82	O	-0.491195	-0.412486	-0.604605
O83	O	-0.407390	-0.294474	-0.688421
O84	O	-0.395343	-0.508338	-0.508754
O85	O	-0.395345	-0.390329	-0.508759
O86	O	-0.311537	-0.508334	-0.592565
Zn87	Zn	-0.338222	-0.464550	-0.535443
Zn88	Zn	-0.464511	-0.338262	-0.661732
O89	O	-0.311539	-0.390326	-0.592570
C90	C	-0.206294	-0.621360	0.310702
C91	C	-0.130275	-0.692485	0.346265
C92	C	-0.241296	-0.586846	0.345545
C93	C	-0.310654	-0.517001	0.206342
C94	C	-0.346216	-0.476544	0.130323
C95	C	-0.345497	-0.482645	0.241343
C96	C	-0.310653	-0.517001	0.310701
C97	C	-0.346216	-0.476544	0.346263
C98	C	-0.241296	-0.586846	0.241345
C99	C	0.024887	-0.517030	0.310724
C100	C	0.019993	-0.476577	0.346290
C101	C	0.025371	-0.586874	0.345565
C102	C	0.024889	-0.517022	0.206362
C103	C	0.019998	-0.476562	0.130342
C104	C	0.025374	-0.586867	0.241361
C105	C	0.024884	-0.621384	0.310718
C106	C	0.019987	-0.692509	0.346278
C107	C	0.025377	-0.482671	0.241366
C108	C	-0.310656	-0.285855	0.310709
C109	C	-0.346220	-0.326314	0.346266
C110	C	-0.241298	-0.320218	0.345555
C111	C	-0.310655	-0.181484	0.206357
C112	C	-0.346217	-0.110348	0.130340
C113	C	-0.241296	-0.216005	0.241362
C114	C	-0.206295	-0.285860	0.310717
C115	C	-0.130275	-0.326323	0.346282
C116	C	-0.345499	-0.216001	0.241354
C117	C	-0.035774	-0.108410	-0.445754
C118	C	-0.030877	-0.037285	-0.481314
C119	C	-0.036262	-0.142920	-0.480600
C120	C	-0.035780	-0.212771	-0.341397
C121	C	-0.030889	-0.253231	-0.265377
C122	C	-0.036268	-0.247124	-0.376401
C123	C	-0.035777	-0.212765	-0.445759
C124	C	-0.030883	-0.253218	-0.481324
C125	C	-0.036265	-0.142927	-0.376396
C126	C	-0.026928	-0.285901	-0.510056
C127	C	-0.026920	0.020175	-0.510042
C128	C	-0.026936	-0.285920	-0.203961
C129	C	-0.021967	-0.326903	-0.546103
C130	C	-0.021955	0.092262	-0.546083
C131	C	-0.021978	-0.326928	-0.126911
O132	O	-0.017120	-0.390358	0.491266
O133	O	0.017098	-0.508368	0.407461
O134	O	-0.100916	-0.390357	0.407446
O135	O	0.100893	-0.508369	0.491281
O136	O	-0.100904	-0.294507	0.311599
O137	O	0.017110	-0.412518	0.311614
O138	O	-0.017109	-0.294509	0.395420
Zn139	Zn	0.000002	-0.338295	0.338299
Zn140	Zn	-0.000013	-0.464581	0.464581
O141	O	0.100905	-0.412519	0.395435
C142	C	-0.658539	0.410016	-0.445751
C143	C	-0.734559	0.450479	-0.481316
C144	C	-0.623536	0.444375	-0.480590
C145	C	-0.554179	0.305641	-0.341392
C146	C	-0.518616	0.234505	-0.265374
C147	C	-0.519335	0.340158	-0.376388
C148	C	-0.554178	0.410013	-0.445743
C149	C	-0.518614	0.450471	-0.481300
C150	C	-0.623537	0.340162	-0.376396
C151	C	-0.489883	0.483159	-0.510025
C152	C	-0.795975	0.483170	-0.510049
C153	C	-0.489886	0.177036	-0.203959
C154	C	-0.453838	0.524167	-0.546063
C155	C	-0.873025	0.524182	-0.546095
C156	C	-0.453842	0.104937	-0.126912
H157	H	-0.402486	-0.187075	-0.026121
H158	H	-0.213196	-0.187082	-0.026109
O159	O	-0.657195	-0.108399	-0.342984
C160	C	-0.764063	-0.000151	-0.350811
C161	C	-0.726039	-0.039174	-0.388755
H162	H	-0.819725	0.055834	-0.387805
H163	H	-0.767008	-0.046095	-0.301631
H164	H	-0.733579	0.018727	-0.334917
H165	H	-0.756491	-0.058051	-0.404696
H166	H	-0.723085	0.006795	-0.437904
O167	O	-0.207857	-0.621302	0.207791
C168	C	-0.207557	-0.683796	0.150305
C169	C	-0.245517	-0.644771	0.188268
H170	H	-0.237981	-0.702797	0.134523
H171	H	-0.204689	-0.637832	0.101065
H172	H	-0.151860	-0.739707	0.187271
H173	H	-0.301231	-0.588868	0.151358
H174	H	-0.248328	-0.690788	0.237516
H175	H	0.026169	-0.615754	0.213258
H176	H	-0.402481	-0.426435	0.213235
O177	O	-0.657163	0.305831	-0.342911
C178	C	-0.755960	0.323727	-0.301348
C179	C	-0.717964	0.362712	-0.339299
H180	H	-0.805117	0.369691	-0.298402
H181	H	-0.771880	0.304850	-0.331817
H182	H	-0.718976	0.267748	-0.245679
H183	H	-0.754909	0.418716	-0.394968
H184	H	-0.702033	0.381530	-0.308777
H185	H	-0.037054	-0.303326	-0.348299
H186	H	-0.651638	0.500582	-0.537577
O187	O	-0.656959	-0.488700	0.037373
C188	C	-0.657199	-0.430958	0.099591
C189	C	-0.619272	-0.506869	0.098507
H190	H	-0.626753	-0.445626	0.149020
H191	H	-0.660060	-0.378853	0.050763
H192	H	-0.712897	-0.412211	0.099812
H193	H	-0.563557	-0.525690	0.098310
H194	H	-0.616467	-0.558927	0.147331
H195	H	-0.037046	-0.114028	-0.537588
O196	O	-0.451341	-0.694275	0.037324
C197	C	-0.350915	-0.687836	0.038683
C198	C	-0.427915	-0.648813	0.037581
H199	H	-0.331956	-0.651086	0.038876
H200	H	-0.316116	-0.753058	0.088093
H201	H	-0.347684	-0.688223	-0.010159
H202	H	-0.431213	-0.648367	0.086388
H203	H	-0.462679	-0.583611	-0.011861
O204	O	0.026173	-0.621228	0.413507
C205	C	-0.033257	-0.603290	0.494410
C206	C	-0.034257	-0.564292	0.417441
H207	H	-0.082102	-0.557270	0.497619
H208	H	-0.033040	-0.659218	0.513421
H209	H	0.016145	-0.622243	0.529185
H210	H	-0.083652	-0.545289	0.382612
H211	H	-0.034437	-0.508399	0.398488
O212	O	0.026219	-0.415557	0.207880
C213	C	-0.033241	-0.275198	0.166321
C214	C	-0.034272	-0.351146	0.204273
H215	H	-0.082149	-0.223097	0.163380
H216	H	0.016107	-0.289747	0.196786
H217	H	-0.032937	-0.256509	0.110651
H218	H	-0.034601	-0.369875	0.259944
H219	H	-0.083615	-0.336555	0.173754
O220	O	-0.656960	-0.108554	-0.548612
C221	C	-0.649095	-0.114868	-0.649099
C222	C	-0.611188	-0.153917	-0.572085
H223	H	-0.612100	-0.151516	-0.668106
H224	H	-0.698308	-0.114501	-0.652425
H225	H	-0.664928	-0.049632	-0.683801
H226	H	-0.595308	-0.219167	-0.537337
H227	H	-0.562006	-0.154220	-0.568816
O228	O	-0.207839	-0.181434	0.207863
C229	C	-0.207644	-0.061679	0.150301
C230	C	-0.245597	-0.100733	0.188234
H231	H	-0.238164	0.003579	0.134407
H232	H	-0.151967	-0.098316	0.187249
H233	H	-0.204726	-0.061375	0.101115
H234	H	-0.248568	-0.101045	0.237418
H235	H	-0.301253	-0.064085	0.151238
O236	O	-0.207844	-0.621377	0.413576
C237	C	-0.207664	-0.683778	0.533520
C238	C	-0.245607	-0.644696	0.456507
H239	H	-0.238188	-0.702626	0.568249
H240	H	-0.151985	-0.739766	0.552564
H241	H	-0.204751	-0.637815	0.536749
H242	H	-0.248573	-0.690597	0.453219
H243	H	-0.301265	-0.588693	0.437497
H244	H	-0.213198	-0.376369	-0.026116
O245	O	-0.657023	-0.694361	0.037199
C246	C	-0.698566	-0.733734	-0.022234
C247	C	-0.660619	-0.694698	-0.023280
H248	H	-0.701498	-0.734004	-0.071133
H249	H	-0.668104	-0.798993	0.027126
H250	H	-0.754239	-0.697047	-0.021941
H251	H	-0.604946	-0.731320	-0.023598
H252	H	-0.691134	-0.629432	-0.072635
H253	H	-0.462356	-0.303332	-0.348318
O254	O	-0.207875	-0.387209	0.413569
C255	C	-0.207634	-0.444968	0.533533
C256	C	-0.245566	-0.369053	0.456537
H257	H	-0.238083	-0.430311	0.568297
H258	H	-0.204759	-0.497077	0.536809
H259	H	-0.151940	-0.463704	0.552502
H260	H	-0.301276	-0.350244	0.437520
H261	H	-0.248384	-0.316992	0.453306
H262	H	-0.402486	-0.187114	0.213252
O263	O	-0.037239	-0.108344	-0.342983
C264	C	-0.038582	-0.000131	-0.350772
C265	C	-0.037491	-0.039200	-0.388700
H266	H	-0.038772	0.055769	-0.387713
H267	H	-0.087989	0.018856	-0.334956
H268	H	0.010261	-0.046139	-0.301543
H269	H	-0.086301	0.006764	-0.437953
H270	H	0.011947	-0.058205	-0.404463
H271	H	-0.462348	0.311266	-0.348281
