data_functionalizedCrystal
_audit_creation_method	'MofGen! by Chris Wilmer'
_symmetry_space_group_name_H-M	'P1'
_symmetry_Int_Tables_number	1
_symmetry_cell_setting	triclinic
loop_
_symmetry_equiv_pos_as_xyz
  x,y,z
_cell_length_a	10.868271
_cell_length_b	11.792241
_cell_length_c	11.792241
_cell_angle_alpha	84.193416
_cell_angle_beta	89.994719
_cell_angle_gamma	89.996558
loop_
_atom_site_label
_atom_site_type_symbol
_atom_site_fract_x
_atom_site_fract_y
_atom_site_fract_z
O1	O	-0.102298	1.506908	0.155568
O2	O	0.231035	1.840242	0.488902
O3	O	0.564368	2.173575	0.822235
O4	O	-0.102306	1.176567	0.171601
O5	O	0.231027	1.509901	0.504935
O6	O	0.564360	1.843234	0.838268
O7	O	-0.102294	1.349754	-0.001586
O8	O	0.231040	1.683088	0.331748
O9	O	0.564373	2.016421	0.665081
O10	O	-0.102311	1.333721	0.328755
O11	O	0.231022	1.667055	0.662089
O12	O	0.564355	2.000388	0.995422
O13	O	0.102351	1.349740	-0.001592
O14	O	0.435684	1.683073	0.331741
O15	O	0.769018	2.016407	0.665074
O16	O	0.102338	1.176553	0.171595
O17	O	0.435672	1.509886	0.504928
O18	O	0.769005	1.843220	0.838261
O19	O	0.102346	1.506894	0.155562
O20	O	0.435680	1.840227	0.488895
O21	O	0.769013	2.173561	0.822228
Zn22	Zn	0.134834	1.341721	0.163577
Zn23	Zn	0.468167	1.675055	0.496910
Zn24	Zn	0.801501	2.008388	0.830244
Zn25	Zn	-0.134794	1.341740	0.163586
Zn26	Zn	0.198539	1.675073	0.496919
Zn27	Zn	0.531873	2.008407	0.830253
O28	O	0.102333	1.333707	0.328749
O29	O	0.435667	1.667040	0.662082
O30	O	0.769000	2.000374	0.995415
C31	C	0.000015	1.134269	0.170591
C32	C	0.333348	1.467603	0.503924
C33	C	0.666682	1.800936	0.837258
C34	C	0.000012	1.008255	0.167576
C35	C	0.333346	1.341589	0.500910
C36	C	0.666679	1.674922	0.834243
N37	N	0.318848	1.341717	0.163570
N38	N	0.652181	1.675050	0.496904
N39	N	0.985515	2.008383	0.830237
C40	C	0.000028	1.348740	-0.043880
C41	C	0.333362	1.682073	0.289453
C42	C	0.666695	2.015407	0.622787
C43	C	0.000027	1.345726	-0.169894
C44	C	0.333360	1.679059	0.163440
C45	C	0.666694	2.012392	0.496773
N46	N	-0.318808	1.341754	0.163584
N47	N	0.014525	1.675087	0.496917
N48	N	0.347858	2.008420	0.830251
C49	C	0.569854	1.341734	0.163584
C50	C	0.903187	1.675068	0.496917
C51	C	1.236521	2.008401	0.830250
C52	C	0.430177	1.341721	0.163580
C53	C	0.763510	1.675054	0.496913
C54	C	1.096843	2.008387	0.830246
C55	C	0.000022	1.549192	0.156572
C56	C	0.333355	1.882525	0.489905
C57	C	0.666689	2.215859	0.823239
C58	C	0.000017	1.675206	0.159587
C59	C	0.333350	2.008539	0.492920
C60	C	0.666684	2.341873	0.826253
C61	C	0.000017	1.905918	0.165130
C62	C	0.333350	2.239251	0.498463
C63	C	0.666684	2.572585	0.831796
C64	C	0.000017	1.777533	0.162050
C65	C	0.333351	2.110866	0.495383
C66	C	0.666684	2.444200	0.828716
C67	C	0.000006	1.340183	-0.400606
C68	C	0.333340	1.673516	-0.067272
C69	C	0.666673	2.006849	0.266061
C70	C	0.000018	1.343262	-0.272221
C71	C	0.333351	1.676596	0.061113
C72	C	0.666684	2.009929	0.394446
C73	C	0.000009	1.334721	0.371043
C74	C	0.333342	1.668055	0.704376
C75	C	0.666676	2.001388	1.037710
C76	C	0.000002	1.337736	0.497057
C77	C	0.333335	1.671069	0.830390
C78	C	0.666669	2.004402	1.163723
