data_functionalizedCrystal
_audit_creation_method	'MofGen! by Chris Wilmer'
_symmetry_space_group_name_H-M	'P1'
_symmetry_Int_Tables_number	1
_symmetry_cell_setting	triclinic
loop_
_symmetry_equiv_pos_as_xyz
  x,y,z
_cell_length_a	14.853558
_cell_length_b	13.339070
_cell_length_c	11.804365
_cell_angle_alpha	74.887832
_cell_angle_beta	78.135926
_cell_angle_gamma	80.369786
loop_
_atom_site_label
_atom_site_type_symbol
_atom_site_fract_x
_atom_site_fract_y
_atom_site_fract_z
O1	O	1.242367	-0.111673	-0.099008
O2	O	1.742367	0.388327	0.400992
O3	O	0.983828	-0.127420	-0.099013
O4	O	1.483828	0.372580	0.400987
O5	O	1.083425	0.027757	-0.099008
O6	O	1.583425	0.527757	0.400992
O7	O	1.142770	-0.266850	-0.099014
O8	O	1.642770	0.233150	0.400986
O9	O	1.057195	-0.013054	0.099047
O10	O	1.557195	0.486946	0.599047
O11	O	0.957598	-0.168231	0.099041
O12	O	1.457598	0.331769	0.599041
O13	O	1.216136	-0.152484	0.099046
O14	O	1.716136	0.347516	0.599046
Cu15	Cu	1.084472	-0.164084	0.117128
Cu16	Cu	1.584472	0.335916	0.617128
Cu17	Cu	1.115493	-0.115820	-0.117095
Cu18	Cu	1.615493	0.384180	0.382905
O19	O	1.116540	-0.307661	0.099041
O20	O	1.616540	0.192339	0.599041
C21	C	0.936947	-0.147114	0.000013
C22	C	1.436947	0.352886	0.500013
C23	C	0.836332	-0.144980	0.000011
C24	C	1.336332	0.355020	0.500011
C25	C	0.803362	-0.121733	-0.107953
C26	C	1.303362	0.378267	0.392047
C27	C	0.774760	-0.166214	0.107974
C28	C	1.274760	0.333786	0.607974
C29	C	0.680225	-0.164205	0.107976
C30	C	1.180225	0.335795	0.607976
C31	C	0.647255	-0.140958	0.000012
C32	C	1.147255	0.359042	0.500012
C33	C	0.708818	-0.119719	-0.107954
C34	C	1.208818	0.380281	0.392046
C35	C	0.618653	-0.185432	0.215940
C36	C	1.118653	0.314568	0.715940
C37	C	0.524112	-0.183423	0.215946
C38	C	1.024112	0.316577	0.715946
C39	C	0.491141	-0.160182	0.107981
C40	C	0.991141	0.339818	0.607981
C41	C	0.552711	-0.138944	0.000011
C42	C	1.052711	0.361056	0.500011
C43	C	0.519741	-0.115697	-0.107953
C44	C	1.019741	0.384303	0.392047
C45	C	0.581311	-0.094466	-0.215925
C46	C	1.081311	0.405534	0.284075
C47	C	0.675847	-0.096479	-0.215919
C48	C	1.175847	0.403521	0.284081
C49	C	0.396605	-0.158169	0.107975
C50	C	0.896605	0.341831	0.607975
C51	C	0.425198	-0.113684	-0.107955
C52	C	0.925198	0.386316	0.392045
C53	C	1.060286	0.045055	0.000018
C54	C	1.560286	0.545055	0.500018
C55	C	1.030407	0.157398	0.000012
C56	C	1.530407	0.657398	0.500012
C57	C	1.263018	-0.132790	0.000017
C58	C	1.763018	0.367210	0.500017
C59	C	1.363634	-0.134922	0.000011
C60	C	1.863634	0.365078	0.500011
C61	C	1.139679	-0.324958	0.000013
C62	C	1.639679	0.175042	0.500013
C63	C	1.169560	-0.437301	0.000010
C64	C	1.669560	0.062699	0.500010
N65	N	1.062661	-0.198030	0.281867
N66	N	1.562661	0.301970	0.781867
C67	C	1.262738	0.521873	0.000018
C68	C	1.762738	1.021873	0.500018
C69	C	1.290813	0.416319	0.000029
C70	C	1.790813	0.916319	0.500029
C71	C	1.225714	0.351584	0.000025
C72	C	1.725714	0.851584	0.500025
C73	C	1.132535	0.392412	0.000009
C74	C	1.632535	0.892412	0.500009
C75	C	1.104456	0.497974	0.000007
C76	C	1.604456	0.997974	0.500007
C77	C	1.067431	0.327686	0.000014
C78	C	1.567431	0.827686	0.500014
C79	C	0.974252	0.368514	-0.000002
C80	C	1.474252	0.868514	0.499998
C81	C	0.946178	0.474066	-0.000005
C82	C	1.446178	0.974066	0.499995
C83	C	1.011277	0.538801	-0.000000
C84	C	1.511277	1.038801	0.500000
C85	C	1.095511	0.222124	0.000016
C86	C	1.595511	0.722124	0.500016
C87	C	0.937228	0.198225	0.000005
C88	C	1.437228	0.698225	0.500005
C89	C	0.909153	0.303779	-0.000007
C90	C	1.409153	0.803779	0.499993
N91	N	1.137309	-0.081867	-0.281834
N92	N	1.637309	0.418133	0.218166
C93	C	1.189682	-0.000332	0.655823
C94	C	1.689682	0.499668	1.155823
C95	C	1.206181	0.025352	0.531162
C96	C	1.706181	0.525352	1.031162
C97	C	1.170302	-0.030491	0.468832
C98	C	1.670302	0.469509	0.968832
C99	C	1.117922	-0.112023	0.531175
C100	C	1.617922	0.387977	1.031175
C101	C	1.101428	-0.137715	0.655848
C102	C	1.601428	0.362285	1.155848
C103	C	1.082048	-0.167874	0.468858
C104	C	1.582048	0.332126	0.968858
C105	C	1.029668	-0.249406	0.531201
C106	C	1.529668	0.250594	1.031201
C107	C	1.013176	-0.275093	0.655862
C108	C	1.513176	0.224907	1.155862
C109	C	1.049055	-0.219250	0.718192
C110	C	1.549055	0.280750	1.218192
C111	C	1.098542	-0.142182	0.344185
C112	C	1.598542	0.357818	0.844185
C113	C	1.010288	-0.279565	0.344210
C114	C	1.510288	0.220435	0.844210
C115	C	0.993789	-0.305249	0.468871
C116	C	1.493789	0.194751	0.968871
H117	H	0.473989	-0.200709	0.303863
H118	H	0.973989	0.299291	0.803863
H119	H	0.970535	-0.341488	0.706622
H120	H	1.470535	0.158512	1.206622
O121	O	1.155007	-0.054225	0.276957
O122	O	1.655007	0.445775	0.776957
H123	H	1.160449	-0.045735	0.179797
H124	H	1.660449	0.454265	0.679797
O125	O	1.391311	0.372296	0.000022
O126	O	1.891311	0.872296	0.500022
H127	H	1.413185	0.381666	0.080737
H128	H	1.913185	0.881666	0.580737
H129	H	1.315730	0.574586	0.000031
H130	H	1.815730	1.074586	0.500031
H131	H	0.554453	-0.075532	-0.303829
H132	H	1.054453	0.424468	0.196171
H133	H	0.884218	0.145516	0.000007
H134	H	1.384218	0.645516	0.500007
O135	O	0.980988	0.652649	0.000002
O136	O	1.480988	1.152649	0.500002
H137	H	1.041911	0.690797	0.000014
H138	H	1.541911	1.190797	0.500014
H139	H	0.346480	-0.175465	0.195884
H140	H	0.846480	0.324535	0.695884
H141	H	0.870304	0.507303	-0.000009
H142	H	1.370304	1.007303	0.499991
H143	H	0.833285	0.337036	-0.000019
H144	H	1.333285	0.837036	0.499981
H145	H	0.951141	-0.371634	0.519646
H146	H	1.451141	0.128366	1.019646
H147	H	0.853496	-0.104451	-0.195860
H148	H	1.353496	0.395549	0.304140
H149	H	1.183737	-0.009575	0.367328
H150	H	1.683737	0.490425	0.867328
H151	H	1.248828	0.091734	0.480407
H152	H	1.748828	0.591734	0.980407
H153	H	1.218896	0.045124	0.706580
H154	H	1.718896	0.545124	1.206580
O155	O	1.031267	-0.246965	0.852652
O156	O	1.531267	0.253035	1.352652
H157	H	1.065019	-0.194437	0.885514
H158	H	1.565019	0.305563	1.385514
H159	H	0.725985	-0.079192	-0.303824
H160	H	1.225985	0.420808	0.196176
O161	O	0.971573	-0.339787	0.276990
O162	O	1.471573	0.160213	0.776990
H163	H	1.029352	-0.377332	0.220165
H164	H	1.529352	0.122668	0.720165
O165	O	0.389633	-0.088585	-0.224403
O166	O	0.889633	0.411415	0.275597
H167	H	0.448327	-0.074146	-0.299474
H168	H	0.948327	0.425854	0.200526
H169	H	0.801610	-0.185134	0.195873
H170	H	1.301610	0.314866	0.695873
H171	H	0.645504	-0.204350	0.303838
H172	H	1.145504	0.295650	0.803838
O173	O	1.196008	0.178101	0.000011
O174	O	1.696008	0.678101	0.500011
H175	H	1.217880	0.187469	0.080728
H176	H	1.717880	0.687469	0.580728
O177	O	1.255989	0.237738	0.000026
O178	O	1.755989	0.737738	0.500026
H179	H	1.331720	0.220224	0.000026
H180	H	1.831720	0.720224	0.500026
