data_functionalizedCrystal
_audit_creation_method	'MofGen! by Chris Wilmer'
_symmetry_space_group_name_H-M	'P1'
_symmetry_Int_Tables_number	1
_symmetry_cell_setting	triclinic
loop_
_symmetry_equiv_pos_as_xyz
  x,y,z
_cell_length_a	13.032721
_cell_length_b	13.897449
_cell_length_c	13.033429
_cell_angle_alpha	97.161691
_cell_angle_beta	89.068252
_cell_angle_gamma	97.205670
loop_
_atom_site_label
_atom_site_type_symbol
_atom_site_fract_x
_atom_site_fract_y
_atom_site_fract_z
Zn1	Zn	-0.335473	1.361109	-0.633452
Zn2	Zn	-0.002140	1.694442	-0.300119
Zn3	Zn	0.331193	2.027776	0.033214
Zn4	Zn	-0.529327	1.355866	-0.483314
Zn5	Zn	-0.195994	1.689200	-0.149981
Zn6	Zn	0.137339	2.022533	0.183353
Zn7	Zn	-0.357374	1.217385	-0.461502
Zn8	Zn	-0.024041	1.550718	-0.128168
Zn9	Zn	0.309293	1.884052	0.205165
Zn10	Zn	-0.507412	1.177062	-0.655231
Zn11	Zn	-0.174079	1.510396	-0.321898
Zn12	Zn	0.159255	1.843729	0.011435
O13	O	-0.432397	1.277856	-0.558375
O14	O	-0.099063	1.611189	-0.225042
O15	O	0.234270	1.944522	0.108292
O16	O	-0.361195	1.495393	-0.613550
O17	O	-0.027861	1.828726	-0.280217
O18	O	0.305472	2.162060	0.053117
O19	O	-0.524855	1.352178	-0.336511
O20	O	-0.191521	1.685511	-0.003177
O21	O	0.141812	2.018844	0.330156
O22	O	-0.210549	1.255519	-0.466068
O23	O	0.122785	1.588853	-0.132735
O24	O	0.456118	1.922186	0.200599
O25	O	-0.503618	1.491541	-0.503244
O26	O	-0.170285	1.824875	-0.169911
O27	O	0.163048	2.158208	0.163422
O28	O	-0.194458	1.361113	-0.592399
O29	O	0.138875	1.694446	-0.259066
O30	O	0.472208	2.027780	0.074267
O31	O	-0.398521	1.250436	-0.320485
O32	O	-0.065188	1.583769	0.012848
O33	O	0.268145	1.917102	0.346181
O34	O	-0.377271	1.077057	-0.487186
O35	O	-0.043937	1.410390	-0.153853
O36	O	0.289396	1.743723	0.179480
O37	O	-0.466267	1.186796	-0.796252
O38	O	-0.132933	1.520129	-0.462919
O39	O	0.200400	1.853462	-0.129586
O40	O	-0.487503	1.047432	-0.629519
O41	O	-0.154170	1.380765	-0.296185
O42	O	0.179164	1.714099	0.037148
O43	O	-0.339944	1.322014	-0.780251
O44	O	-0.006611	1.655347	-0.446918
O45	O	0.326723	1.988681	-0.113585
O46	O	-0.670340	1.313079	-0.524363
O47	O	-0.337007	1.646412	-0.191029
O48	O	-0.003674	1.979745	0.142304
O49	O	-0.654239	1.181712	-0.650670
O50	O	-0.320906	1.515045	-0.317336
O51	O	0.012428	1.848379	0.015997
C52	C	-0.699604	1.242475	-0.592269
C53	C	-0.366270	1.575808	-0.258935
C54	C	-0.032937	1.909141	0.074398
C55	C	-0.813912	1.227423	-0.606803
C56	C	-0.480578	1.560757	-0.273470
C57	C	-0.147245	1.894090	0.059864
C58	C	-0.432386	1.027246	-0.558350
C59	C	-0.099053	1.360579	-0.225016
C60	C	0.234281	1.693912	0.108317
C61	C	-0.432403	0.920028	-0.558366
C62	C	-0.099070	1.253361	-0.225033
C63	C	0.234264	1.586694	0.108300
C64	C	-0.872800	1.285758	-0.550836
C65	C	-0.539466	1.619091	-0.217502
C66	C	-0.206133	1.952424	0.115831
C67	C	-0.990943	1.270203	-0.565856
C68	C	-0.657610	1.603536	-0.232523
C69	C	-0.324277	1.936869	0.100811
C70	C	-0.432403	0.723729	-0.558394
C71	C	-0.099070	1.057063	-0.225061
C72	C	0.234264	1.390396	0.108273
C73	C	-0.432400	0.832964	-0.558375
C74	C	-0.099067	1.166298	-0.225042
C75	C	0.234266	1.499631	0.108291
C76	C	-0.164143	1.313399	-0.524371
C77	C	0.169190	1.646732	-0.191038
C78	C	0.502523	1.980065	0.142296
C79	C	-0.049830	1.328545	-0.509881
C80	C	0.283504	1.661878	-0.176547
C81	C	0.616837	1.995212	0.156786
C82	C	-0.432408	1.529444	-0.558401
C83	C	-0.099075	1.862778	-0.225068
C84	C	0.234259	2.196111	0.108266
C85	C	-0.432413	1.636656	-0.558412
C86	C	-0.099080	1.969990	-0.225079
C87	C	0.234254	2.303323	0.108255
C88	C	-0.398218	1.250492	-0.826609
C89	C	-0.064884	1.583825	-0.493276
C90	C	0.268449	1.917158	-0.159943
C91	C	-0.383653	1.238831	-0.940915
C92	C	-0.050319	1.572164	-0.607582
C93	C	0.283014	1.905497	-0.274248
C94	C	-0.424628	1.271924	-1.117944
C95	C	-0.091295	1.605258	-0.784610
C96	C	0.242039	1.938591	-0.451277
C97	C	-0.439676	1.283977	-0.999802
C98	C	-0.106343	1.617311	-0.666469
C99	C	0.226991	1.950644	-0.333136
C100	C	-0.466368	1.305179	-0.291175
C101	C	-0.133035	1.638512	0.042159
C102	C	0.200298	1.971845	0.375492
C103	C	-0.480644	1.317065	-0.176833
C104	C	-0.147310	1.650398	0.156501
C105	C	0.186023	1.983731	0.489834
H106	H	-0.835753	1.347219	-0.491803
H107	H	-0.502420	1.680553	-0.158469
H108	H	-0.169086	2.013886	0.174864
F109	F	-0.557885	1.379249	-1.128416
F110	F	-0.224552	1.712582	-0.795082
F111	F	0.108781	2.045915	-0.461749
F112	F	-1.039358	1.189871	-0.643032
F113	F	-0.706024	1.523204	-0.309698
F114	F	-0.372691	1.856538	0.023635
F115	F	-1.001416	1.408886	-0.432714
F116	F	-0.668083	1.742219	-0.099381
F117	F	-0.334750	2.075552	0.233953
F118	F	-0.306396	1.176654	-0.989324
F119	F	0.026938	1.509988	-0.655991
F120	F	0.360271	1.843321	-0.322657
H121	H	-0.850960	1.165969	-0.665843
H122	H	-0.517627	1.499302	-0.332510
H123	H	-0.184293	1.832636	0.000824
F124	F	-0.347376	1.209751	-1.166360
F125	F	-0.014043	1.543085	-0.833026
F126	F	0.319291	1.876418	-0.499693
F127	F	-0.516922	1.346165	-0.951390
F128	F	-0.183589	1.679498	-0.618056
F129	F	0.149745	2.012831	-0.284723
