data_functionalizedCrystal
_audit_creation_method	'MofGen! by Chris Wilmer'
_symmetry_space_group_name_H-M	'P1'
_symmetry_Int_Tables_number	1
_symmetry_cell_setting	triclinic
loop_
_symmetry_equiv_pos_as_xyz
  x,y,z
_cell_length_a	14.519731
_cell_length_b	12.996460
_cell_length_c	10.654550
_cell_angle_alpha	89.994020
_cell_angle_beta	95.913108
_cell_angle_gamma	90.005673
loop_
_atom_site_label
_atom_site_type_symbol
_atom_site_fract_x
_atom_site_fract_y
_atom_site_fract_z
O1	O	1.224711	0.085569	-0.164753
O2	O	1.474711	0.335569	0.085247
O3	O	1.724711	0.585569	0.335247
O4	O	1.974711	0.835569	0.585247
O5	O	0.956337	0.085570	-0.184111
O6	O	1.206337	0.335570	0.065889
O7	O	1.456337	0.585570	0.315889
O8	O	1.706337	0.835570	0.565889
O9	O	1.096694	0.085563	0.008366
O10	O	1.346694	0.335563	0.258366
O11	O	1.596694	0.585563	0.508366
O12	O	1.846694	0.835563	0.758366
O13	O	1.084354	0.085576	-0.357230
O14	O	1.334354	0.335576	-0.107230
O15	O	1.584354	0.585576	0.142770
O16	O	1.834354	0.835576	0.392770
O17	O	1.096680	-0.085571	0.008376
O18	O	1.346680	0.164429	0.258376
O19	O	1.596680	0.414429	0.508376
O20	O	1.846680	0.664429	0.758376
O21	O	0.956322	-0.085563	-0.184101
O22	O	1.206322	0.164437	0.065899
O23	O	1.456322	0.414437	0.315899
O24	O	1.706322	0.664437	0.565899
O25	O	1.224696	-0.085565	-0.164742
O26	O	1.474696	0.164435	0.085258
O27	O	1.724696	0.414435	0.335258
O28	O	1.974696	0.664435	0.585258
Cu29	Cu	1.090508	-0.101190	-0.174421
Cu30	Cu	1.340508	0.148810	0.075579
Cu31	Cu	1.590508	0.398810	0.325579
Cu32	Cu	1.840508	0.648810	0.575579
Cu33	Cu	1.090525	0.101195	-0.174433
Cu34	Cu	1.340525	0.351195	0.075567
Cu35	Cu	1.590525	0.601195	0.325567
Cu36	Cu	1.840525	0.851195	0.575567
O37	O	1.084339	-0.085558	-0.357219
O38	O	1.334339	0.164442	-0.107219
O39	O	1.584339	0.414442	0.142781
O40	O	1.834339	0.664442	0.392781
C41	C	0.921965	0.000004	-0.183199
C42	C	1.171965	0.250004	0.066801
C43	C	1.421965	0.500004	0.316801
C44	C	1.671965	0.750004	0.566801
C45	C	0.819571	0.000004	-0.180481
C46	C	1.069571	0.250004	0.069519
C47	C	1.319571	0.500004	0.319519
C48	C	1.569571	0.750004	0.569519
C49	C	0.736416	0.000008	-0.178272
C50	C	0.986416	0.250008	0.071728
C51	C	1.236416	0.500008	0.321728
C52	C	1.486416	0.750008	0.571728
C53	C	0.632093	0.000008	-0.175513
C54	C	0.882093	0.250008	0.074487
C55	C	1.132093	0.500008	0.324487
C56	C	1.382093	0.750008	0.574487
C57	C	0.548942	0.000008	-0.173322
C58	C	0.798942	0.250008	0.076678
C59	C	1.048942	0.500008	0.326678
C60	C	1.298942	0.750008	0.576678
C61	C	0.444612	0.000010	-0.170563
C62	C	0.694612	0.250010	0.079437
C63	C	0.944612	0.500010	0.329437
C64	C	1.194612	0.750010	0.579437
N65	N	1.090502	-0.243537	-0.174411
N66	N	1.340502	0.006463	0.075589
N67	N	1.590502	0.256463	0.325589
N68	N	1.840502	0.506463	0.575589
C69	C	1.090524	-0.663352	-0.174434
C70	C	1.340524	-0.413352	0.075566
C71	C	1.590524	-0.163352	0.325566
C72	C	1.840524	0.086648	0.575566
C73	C	1.090515	-0.546546	-0.174432
C74	C	1.340515	-0.296546	0.075568
C75	C	1.590515	-0.046546	0.325568
C76	C	1.840515	0.203454	0.575568
C77	C	1.090514	-0.453448	-0.174424
C78	C	1.340514	-0.203448	0.075576
C79	C	1.590514	0.046552	0.325576
C80	C	1.840514	0.296552	0.575576
C81	C	1.090504	-0.336636	-0.174419
C82	C	1.340504	-0.086636	0.075581
C83	C	1.590504	0.163364	0.325581
C84	C	1.840504	0.413364	0.575581
C85	C	1.259068	0.000004	-0.165655
C86	C	1.509068	0.250004	0.084345
C87	C	1.759068	0.500004	0.334345
C88	C	2.009068	0.750004	0.584345
C89	C	1.361462	0.000010	-0.168373
C90	C	1.611462	0.250010	0.081627
C91	C	1.861462	0.500010	0.331627
C92	C	2.111462	0.750010	0.581627
C93	C	1.095781	-0.000003	0.055160
C94	C	1.345781	0.249997	0.305160
C95	C	1.595781	0.499997	0.555160
C96	C	1.845781	0.749997	0.805160
C97	C	1.093070	-0.000002	0.194578
C98	C	1.343070	0.249998	0.444578
C99	C	1.593070	0.499998	0.694578
C100	C	1.843070	0.749998	0.944578
N101	N	1.090538	0.243543	-0.174433
N102	N	1.340538	0.493543	0.075567
N103	N	1.590538	0.743543	0.325567
N104	N	1.840538	0.993543	0.575567
C105	C	1.085252	0.000011	-0.404014
C106	C	1.335252	0.250011	-0.154014
C107	C	1.585252	0.500011	0.095986
C108	C	1.835252	0.750011	0.345986
C109	C	1.087963	0.000016	-0.543432
C110	C	1.337963	0.250016	-0.293432
C111	C	1.587963	0.500016	-0.043432
C112	C	1.837963	0.750016	0.206568
C113	C	1.175710	-0.000002	0.274850
C114	C	1.425710	0.249998	0.524850
C115	C	1.675710	0.499998	0.774850
C116	C	1.925710	0.749998	1.024850
C117	C	1.173157	0.000011	0.405846
C118	C	1.423157	0.250011	0.655846
C119	C	1.673157	0.500011	0.905846
C120	C	1.923157	0.750011	1.155846
C121	C	1.005317	0.000019	0.376286
C122	C	1.255317	0.250019	0.626286
C123	C	1.505317	0.500019	0.876286
C124	C	1.755317	0.750019	1.126286
C125	C	1.007871	0.000014	0.245293
C126	C	1.257871	0.250014	0.495293
C127	C	1.507871	0.500014	0.745293
C128	C	1.757871	0.750014	0.995293
H129	H	1.245085	-0.000012	0.233562
H130	H	1.495085	0.249988	0.483562
H131	H	1.745085	0.499988	0.733562
H132	H	1.995085	0.749988	0.983562
H133	H	0.940571	0.000017	0.179931
H134	H	1.190571	0.250017	0.429931
H135	H	1.440571	0.500017	0.679931
H136	H	1.690571	0.750017	0.929931
F137	F	1.261115	0.000013	0.491272
F138	F	1.511115	0.250013	0.741272
F139	F	1.761115	0.500013	0.991272
F140	F	2.011115	0.750013	1.241272
F141	F	0.914647	0.000036	0.430272
F142	F	1.164647	0.250036	0.680272
F143	F	1.414647	0.500036	0.930272
F144	F	1.664647	0.750036	1.180272
