data_functionalizedCrystal
_audit_creation_method	'MofGen! by Chris Wilmer'
_symmetry_space_group_name_H-M	'P1'
_symmetry_Int_Tables_number	1
_symmetry_cell_setting	triclinic
loop_
_symmetry_equiv_pos_as_xyz
  x,y,z
_cell_length_a	8.597340
_cell_length_b	8.597249
_cell_length_c	7.088929
_cell_angle_alpha	91.318776
_cell_angle_beta	103.954719
_cell_angle_gamma	84.294846
loop_
_atom_site_label
_atom_site_type_symbol
_atom_site_fract_x
_atom_site_fract_y
_atom_site_fract_z
O1	O	2.108273	0.211988	0.223237
O2	O	1.644411	0.237186	0.150973
O3	O	1.881725	-0.000131	0.150978
O4	O	1.870959	0.449304	0.223231
O5	O	1.913437	-0.031917	0.468942
O6	O	1.676123	0.205399	0.468937
O7	O	2.139985	0.180201	0.541201
Cu8	Cu	1.910950	0.189898	0.534101
Cu9	Cu	1.873446	0.227489	0.158072
O10	O	1.902671	0.417518	0.541195
C11	C	1.600773	0.220357	0.300000
C12	C	1.423501	0.217552	0.270334
C13	C	1.894657	-0.073530	0.300003
C14	C	1.885926	-0.244879	0.270329
C15	C	2.183622	0.197030	0.392170
C16	C	2.360894	0.199837	0.421823
C17	C	1.889738	0.490917	0.392167
C18	C	1.898468	0.662267	0.421827
N19	N	1.937339	0.163457	0.798582
N20	N	1.847069	0.253918	-0.106408
H21	H	1.442914	0.186805	0.574220
H22	H	1.868525	-0.296480	0.117928
O23	O	1.735650	0.365836	0.796072
C24	C	1.812893	0.472378	0.710578
H25	H	1.932747	0.413599	0.690823
H26	H	1.733146	0.510908	0.562960
H27	H	1.835245	0.578776	0.808812
O28	O	1.325560	0.233362	0.088586
C29	C	1.214435	0.366463	0.081993
H30	H	1.264941	0.450826	0.202501
H31	H	1.192497	0.426611	-0.065015
H32	H	1.096011	0.329583	0.103159
O33	O	2.048868	0.051426	0.895694
C34	C	2.012868	-0.096462	0.816676
H35	H	1.936943	-0.081716	0.661225
H36	H	2.129597	-0.172069	0.816783
H37	H	1.942957	-0.155186	0.908121
H38	H	1.915884	-0.286140	0.574221
