data_functionalizedCrystal
_audit_creation_method	'MofGen! by Chris Wilmer'
_symmetry_space_group_name_H-M	'P1'
_symmetry_Int_Tables_number	1
_symmetry_cell_setting	triclinic
loop_
_symmetry_equiv_pos_as_xyz
  x,y,z
_cell_length_a	8.597187
_cell_length_b	8.559649
_cell_length_c	7.088929
_cell_angle_alpha	84.655815
_cell_angle_beta	88.663715
_cell_angle_gamma	77.625088
loop_
_atom_site_label
_atom_site_type_symbol
_atom_site_fract_x
_atom_site_fract_y
_atom_site_fract_z
O1	O	1.998341	0.287625	-0.488148
O2	O	1.547630	0.298344	-0.413909
O3	O	1.812694	0.061679	-0.457567
O4	O	1.733277	0.524290	-0.444490
O5	O	1.848126	0.029977	-0.145428
O6	O	1.583062	0.266642	-0.101770
O7	O	2.033773	0.255923	-0.176009
Cu8	Cu	1.811653	0.258388	-0.110389
Cu9	Cu	1.769750	0.295879	-0.479530
O10	O	1.768709	0.492589	-0.132351
C11	C	1.508179	0.279575	-0.248423
C12	C	1.337842	0.270862	-0.220367
C13	C	1.836428	-0.013505	-0.302493
C14	C	1.854341	-0.190299	-0.305454
C15	C	2.073223	0.274692	-0.341499
C16	C	2.243559	0.283407	-0.369568
C17	C	1.744975	0.567773	-0.287430
C18	C	1.727060	0.744568	-0.284481
N19	N	1.841136	0.232018	0.149243
N20	N	1.740281	0.322237	-0.739164
H21	H	1.293159	0.300814	-0.518769
H22	H	1.288245	0.253475	-0.071175
C23	C	2.134107	-0.202431	-0.351532
C24	C	2.019969	-0.297607	-0.332723
H25	H	2.236356	-0.268682	-0.368355
H26	H	2.109345	-0.126000	-0.458339
H27	H	2.134043	-0.148083	-0.240636
H28	H	2.020025	-0.351946	-0.443625
H29	H	2.044738	-0.374067	-0.225905
C30	C	1.610800	0.601018	0.220187
C31	C	1.599169	0.448448	0.173869
H32	H	1.523686	0.678936	0.166477
H33	H	1.608787	0.602813	0.353997
H34	H	1.707807	0.624784	0.171467
H35	H	1.502167	0.424677	0.222601
H36	H	1.601167	0.446649	0.040032
C37	C	2.125222	0.140884	0.164388
C38	C	1.982256	0.105801	0.236215
H39	H	2.212339	0.062967	0.218092
H40	H	2.127215	0.139073	0.030580
H41	H	2.133080	0.244399	0.195812
H42	H	1.974393	0.002291	0.204778
H43	H	1.980263	0.107596	0.370053
H44	H	1.604384	-0.175940	-0.264268
