data_functionalizedCrystal
_audit_creation_method	'MofGen! by Chris Wilmer'
_symmetry_space_group_name_H-M	'P1'
_symmetry_Int_Tables_number	1
_symmetry_cell_setting	triclinic
loop_
_symmetry_equiv_pos_as_xyz
  x,y,z
_cell_length_a	19.805407
_cell_length_b	15.297327
_cell_length_c	19.805399
_cell_angle_alpha	80.350583
_cell_angle_beta	90.019573
_cell_angle_gamma	99.707092
loop_
_atom_site_label
_atom_site_type_symbol
_atom_site_fract_x
_atom_site_fract_y
_atom_site_fract_z
Zn1	Zn	0.988098	-0.359189	0.429336
Zn2	Zn	0.968423	-0.510058	0.335728
Zn3	Zn	0.874909	-0.359214	0.316164
Zn4	Zn	0.855293	-0.510010	0.448869
O5	O	0.921681	-0.434618	0.382524
O6	O	1.080203	-0.379212	0.416932
O7	O	0.955994	-0.490079	0.238420
O8	O	0.906367	-0.232963	0.314814
O9	O	1.065749	-0.490055	0.348159
O10	O	0.989526	-0.232945	0.397962
O11	O	0.887290	-0.379254	0.224047
O12	O	0.777592	-0.379208	0.333754
O13	O	0.872934	-0.489973	0.540990
O14	O	0.763180	-0.489997	0.431252
O15	O	0.970505	-0.379166	0.526640
O16	O	0.936973	-0.636300	0.367099
O17	O	0.853857	-0.636265	0.450222
C18	C	0.745827	-0.434601	0.382500
C19	C	0.670593	-0.434615	0.382509
C20	C	0.627751	-0.492390	0.433217
C21	C	0.557063	-0.492392	0.433227
C22	C	0.529217	-0.434622	0.382525
C23	C	0.572065	-0.376841	0.331814
C24	C	0.642752	-0.376835	0.331808
C25	C	0.286989	-0.376861	0.331839
C26	C	0.216295	-0.376873	0.331848
C27	C	0.201299	-0.492417	0.433258
C28	C	0.271987	-0.492412	0.433252
C29	C	0.314829	-0.434627	0.382543
C30	C	0.391477	-0.434625	0.382534
C31	C	0.452569	-0.434628	0.382531
C32	C	0.891170	-0.669017	0.412918
C33	C	0.878179	-0.769294	0.425943
C34	C	1.014807	-1.051906	0.289663
C35	C	1.027012	-0.957691	0.277422
C36	C	0.989805	-0.910587	0.314551
C37	C	0.940391	-0.957708	0.363923
C38	C	0.928180	-1.051932	0.376162
C39	C	0.903178	-0.910613	0.401050
C40	C	0.853764	-0.957734	0.450423
C41	C	0.841556	-1.051949	0.462659
C42	C	0.878763	-1.099053	0.425530
C43	C	0.915389	-0.816389	0.388812
C44	C	0.828762	-0.816415	0.475311
C45	C	0.816557	-0.910630	0.487552
C46	C	1.098221	-0.434636	0.382549
C47	C	1.173452	-0.434644	0.382559
C48	C	0.921726	-0.434561	0.559060
C49	C	0.921746	-0.434537	0.634289
C50	C	0.952329	-0.199304	0.352027
C51	C	0.965390	-0.099027	0.339031
C52	C	0.921683	-0.434610	0.206667
C53	C	0.921828	-0.434380	0.131406
C54	C	0.972552	-0.376837	0.662161
C55	C	0.972562	-0.376810	0.732846
C56	C	0.921768	-0.434490	0.775658
C57	C	0.870957	-0.492193	0.747781
C58	C	0.870944	-0.492214	0.677096
C59	C	0.871006	-0.492109	1.032843
C60	C	0.871024	-0.492085	1.103533
C61	C	0.972624	-0.376705	1.088593
C62	C	0.972612	-0.376726	1.017909
C63	C	0.921798	-0.434426	0.990037
C64	C	0.921787	-0.434452	0.913392
C65	C	0.921782	-0.434469	0.852303
H66	H	0.549387	-0.329800	0.290534
H67	H	0.321862	-0.329816	0.290545
O68	O	0.821536	-0.548142	0.649977
C69	C	0.784510	-0.496792	0.602412
H70	H	0.789587	-0.425728	0.614501
H71	H	0.805828	-0.493708	0.548443
C72	C	0.702171	-0.628146	0.592183
C73	C	0.708402	-0.540866	0.607034
H74	H	0.655225	-0.655334	0.595031
H75	H	0.727117	-0.662742	0.624226
H76	H	0.719940	-0.625563	0.547209
H77	H	0.690641	-0.543451	0.652010
H78	H	0.683451	-0.506271	0.574999
O79	O	1.021831	-0.320656	0.759933
C80	C	0.990889	-0.262379	0.793266
H81	H	0.938301	-0.256819	0.771233
H82	H	0.984939	-0.290242	0.850453
C83	C	1.100756	-0.175419	0.809251
C84	C	1.036169	-0.168584	0.782186
H85	H	1.128687	-0.117563	0.802420
H86	H	1.121603	-0.214683	0.786797
H87	H	1.095788	-0.198642	0.856906
H88	H	1.041137	-0.145372	0.734531
H89	H	1.015324	-0.129314	0.804632
H90	H	1.013916	-0.329870	0.627308
O91	O	0.159667	-0.548413	0.482578
C92	C	0.125461	-0.497130	0.519702
H93	H	0.156013	-0.426081	0.514757
H94	H	0.072288	-0.493987	0.498378
C95	C	0.081130	-0.628594	0.601816
C96	C	0.118658	-0.541333	0.595747
H97	H	0.076930	-0.655862	0.648723
H98	H	0.104172	-0.663146	0.576803
H99	H	0.036823	-0.625963	0.584041
H100	H	0.162966	-0.543965	0.613513
H101	H	0.095622	-0.506782	0.620764
O102	O	0.684412	-0.320619	0.282631
C103	C	0.732902	-0.262427	0.313688
H104	H	0.712336	-0.256950	0.366295
H105	H	0.782846	-0.290319	0.319597
C106	C	0.771445	-0.175309	0.203954
C107	C	0.746182	-0.168576	0.268565
H108	H	0.779640	-0.117418	0.176120
H109	H	0.738778	-0.214516	0.183030
H110	H	0.813062	-0.198556	0.208887
H111	H	0.704562	-0.145341	0.263632
H112	H	0.778842	-0.129363	0.289488
H113	H	0.798463	-0.778063	0.505543
H114	H	0.829639	-0.539104	1.010161
O115	O	1.021914	-0.320675	1.115776
C116	C	1.011045	-0.333032	1.187345
H117	H	0.954964	-0.362568	1.200819
H118	H	1.044938	-0.381073	1.213641
C119	C	1.098025	-0.205459	1.195254
C120	C	1.029144	-0.241729	1.211802
H121	H	1.109192	-0.149141	1.210341
H122	H	1.105350	-0.197135	1.147037
H123	H	1.126260	-0.245502	1.217168
H124	H	1.000910	-0.201692	1.189881
H125	H	1.021815	-0.250044	1.260016
O126	O	0.515528	-0.548481	0.482569
C127	C	0.535370	-0.528882	0.547513
H128	H	0.591206	-0.494192	0.544459
H129	H	0.501623	-0.482554	0.564373
C130	C	0.458628	-0.659522	0.603556
C131	C	0.527208	-0.616922	0.599806
H132	H	0.453590	-0.713828	0.635815
H133	H	0.445257	-0.672725	0.559803
H134	H	0.430513	-0.620906	0.617604
H135	H	0.555321	-0.655533	0.585751
H136	H	0.540583	-0.603727	0.643559
H137	H	0.294654	-0.539456	0.474536
H138	H	1.013975	-0.329761	0.983054
H139	H	0.829658	-0.539057	1.138389
O140	O	0.866846	-1.190576	0.437532
C141	C	0.815240	-1.222069	0.489056
H142	H	0.812769	-1.167745	0.521531
H143	H	0.763727	-1.238879	0.464356
C144	C	0.834828	-1.373867	0.494950
C145	C	0.831797	-1.307148	0.534840
H146	H	0.845038	-1.426350	0.523190
H147	H	0.869594	-1.352651	0.460236
H148	H	0.791898	-1.387864	0.474369
H149	H	0.874728	-1.293144	0.555413
H150	H	0.797038	-1.328364	0.569559
O151	O	0.963343	-0.770721	0.340776
C152	C	0.945585	-0.793801	0.276301
H153	H	0.910697	-0.862238	0.283765
H154	H	0.917665	-0.740829	0.246590
C155	C	1.053884	-0.714067	0.226754
C156	C	1.011037	-0.798126	0.235922
H157	H	1.094257	-0.716731	0.201845
H158	H	1.065846	-0.698514	0.270191
H159	H	1.030609	-0.669932	0.201998
H160	H	1.034309	-0.842257	0.260685
H161	H	0.999080	-0.813687	0.192488
O162	O	1.001662	-0.819067	0.302788
C163	C	1.023115	-0.787516	0.363570
H164	H	1.004500	-0.841794	0.409597
H165	H	1.081449	-0.770733	0.362873
C166	C	1.015758	-0.635737	0.312203
C167	C	0.992889	-0.702399	0.368734
H168	H	0.997116	-0.583231	0.315387
H169	H	1.001307	-0.656993	0.271251
H170	H	1.064369	-0.621762	0.311627
H171	H	0.944280	-0.716381	0.369303
H172	H	1.007332	-0.681144	0.409685
H173	H	0.829597	-0.539153	0.782644
H174	H	0.193626	-0.329824	0.290560
H175	H	1.067245	-0.919329	0.237222
O176	O	0.793629	-1.097680	0.510707
C177	C	0.811367	-1.074568	0.575177
H178	H	0.868802	-1.048608	0.575272
H179	H	0.782153	-1.019901	0.585736
C180	C	0.722079	-1.190121	0.631094
C181	C	0.792623	-1.158243	0.631212
H182	H	0.710515	-1.241733	0.665660
H183	H	0.710127	-1.205690	0.587660
H184	H	0.697743	-1.144557	0.639891
H185	H	0.816957	-1.203802	0.622407
H186	H	0.804579	-1.142683	0.674647
O187	O	0.768551	-0.956268	0.535554
C188	C	0.738313	-0.894499	0.565692
H189	H	0.774738	-0.827301	0.559334
H190	H	0.688208	-0.884559	0.539569
C191	C	0.679022	-1.013759	0.650299
C192	C	0.723763	-0.931228	0.642495
H193	H	0.670044	-1.036416	0.697674
H194	H	0.699391	-1.055375	0.629993
H195	H	0.637273	-1.005465	0.628525
H196	H	0.765513	-0.939526	0.664261
H197	H	0.703400	-0.889614	0.662806
H198	H	1.045092	-1.090267	0.259433
H199	H	0.650417	-0.539436	0.474502
