data_functionalizedCrystal
_audit_creation_method	'MofGen! by Chris Wilmer'
_symmetry_space_group_name_H-M	'P1'
_symmetry_Int_Tables_number	1
_symmetry_cell_setting	triclinic
loop_
_symmetry_equiv_pos_as_xyz
  x,y,z
_cell_length_a	18.215407
_cell_length_b	19.077068
_cell_length_c	18.215399
_cell_angle_alpha	87.731836
_cell_angle_beta	90.019833
_cell_angle_gamma	92.327501
loop_
_atom_site_label
_atom_site_type_symbol
_atom_site_fract_x
_atom_site_fract_y
_atom_site_fract_z
Zn1	Zn	1.113288	-0.280200	0.427869
Zn2	Zn	1.613288	0.219800	0.927869
Zn3	Zn	1.108246	-0.397902	0.309739
Zn4	Zn	1.608246	0.102098	0.809739
Zn5	Zn	0.990220	-0.280223	0.304817
Zn6	Zn	1.490220	0.219777	0.804817
Zn7	Zn	0.985238	-0.397863	0.432763
Zn8	Zn	1.485238	0.102137	0.932763
O9	O	1.049248	-0.339047	0.368797
O10	O	1.549248	0.160953	0.868797
O11	O	1.215603	-0.295821	0.412210
O12	O	1.715603	0.204179	0.912210
O13	O	1.092565	-0.382318	0.206103
O14	O	1.592565	0.117682	0.706103
O15	O	1.010740	-0.181729	0.317032
O16	O	1.510740	0.318271	0.817032
O17	O	1.211899	-0.382295	0.325421
O18	O	1.711899	0.117705	0.825421
O19	O	1.101157	-0.181712	0.407437
O20	O	1.601157	0.318288	0.907437
O21	O	1.005851	-0.295860	0.202487
O22	O	1.505851	0.204140	0.702487
O23	O	0.886575	-0.295822	0.321777
O24	O	1.386575	0.204178	0.821777
O25	O	1.002249	-0.382229	0.535097
O26	O	1.502249	0.117771	1.035097
O27	O	0.882915	-0.382251	0.415778
O28	O	1.382915	0.117749	0.915778
O29	O	1.096327	-0.295783	0.531501
O30	O	1.596327	0.204217	1.031501
O31	O	1.087734	-0.496388	0.330167
O32	O	1.587734	0.003612	0.830167
O33	O	0.997361	-0.496359	0.420551
O34	O	1.497361	0.003641	0.920551
C35	C	0.858042	-0.339035	0.368775
C36	C	1.358042	0.160965	0.868775
C37	C	0.776243	-0.339047	0.368784
C38	C	1.276243	0.160953	0.868784
C39	C	1.041480	-0.521911	0.376440
C40	C	1.541480	-0.021911	0.876440
C41	C	1.038224	-0.600141	0.379735
C42	C	1.538224	-0.100141	0.879735
C43	C	0.586159	-0.384121	0.417674
C44	C	1.086159	0.115879	0.917674
C45	C	0.509301	-0.384124	0.417684
C46	C	1.009301	0.115876	0.917684
C47	C	0.513088	-0.293986	0.319936
C48	C	1.013088	0.206014	0.819936
C49	C	0.589945	-0.293980	0.319931
C50	C	1.089945	0.206020	0.819931
C51	C	0.626479	-0.339052	0.368799
C52	C	1.126479	0.160948	0.868799
C53	C	0.472763	-0.339060	0.368814
C54	C	0.972763	0.160940	0.868814
C55	C	0.389429	-0.339062	0.368823
C56	C	0.889429	0.160938	0.868823
C57	C	0.709818	-0.339050	0.368791
C58	C	1.209818	0.160950	0.868791
C59	C	1.083783	-0.636886	0.334263
C60	C	1.583783	-0.136886	0.834263
C61	C	1.080725	-0.710391	0.337366
C62	C	1.580725	-0.210391	0.837366
C63	C	1.032104	-0.747151	0.385937
C64	C	1.532104	-0.247151	0.885937
C65	C	0.986542	-0.710401	0.431414
C66	C	1.486542	-0.210401	0.931414
C67	C	0.989604	-0.636897	0.428314
C68	C	1.489604	-0.136897	0.928314
C69	C	1.017899	-0.966985	0.400254
C70	C	1.517899	-0.466985	0.900254
C71	C	1.014839	-1.040495	0.403348
C72	C	1.514839	-0.540495	0.903348
C73	C	1.109023	-1.040479	0.309301
C74	C	1.609023	-0.540479	0.809301
C75	C	1.112078	-0.966974	0.306202
C76	C	1.612078	-0.466974	0.806202
C77	C	1.066520	-0.930231	0.351682
C78	C	1.566520	-0.430231	0.851682
N79	N	1.028975	-0.822285	0.389109
N80	N	1.528975	-0.322285	0.889109
N81	N	1.069652	-0.855098	0.348514
N82	N	1.569652	-0.355098	0.848514
C83	C	1.241200	-0.339060	0.368819
C84	C	1.741200	0.160940	0.868819
C85	C	1.322999	-0.339065	0.368828
C86	C	1.822999	0.160935	0.868828
C87	C	1.049295	-0.338999	0.560748
C88	C	1.549295	0.161001	1.060748
C89	C	1.049315	-0.338978	0.642546
C90	C	1.549315	0.161022	1.142546
C91	C	1.057067	-0.155469	0.361140
C92	C	1.557067	0.344531	0.861140
C93	C	1.060398	-0.077239	0.357877
C94	C	1.560398	0.422761	0.857877
C95	C	1.049246	-0.339045	0.177591
C96	C	1.549246	0.160955	0.677591
C97	C	1.049377	-0.338867	0.095785
C98	C	1.549377	0.161133	0.595785
C99	C	1.098320	-0.293923	0.828867
C100	C	1.598320	0.206077	1.328867
C101	C	1.098329	-0.293903	0.905725
C102	C	1.598329	0.206097	1.405725
C103	C	1.000366	-0.383924	0.909458
C104	C	1.500366	0.116076	1.409458
C105	C	1.000354	-0.383940	0.832601
C106	C	1.500354	0.116060	1.332601
C107	C	1.049335	-0.338941	0.792308
C108	C	1.549335	0.161059	1.292308
C109	C	1.049357	-0.338904	0.946023
C110	C	1.549357	0.161096	1.446023
C111	C	1.049367	-0.338882	1.029355
C112	C	1.549367	0.161118	1.529355
C113	C	1.049324	-0.338962	0.708970
C114	C	1.549324	0.161038	1.208970
H115	H	0.615903	-0.420820	0.457468
H116	H	1.115903	0.079180	0.957468
Cl117	Cl	1.159920	-0.237313	0.951682
Cl118	Cl	1.659920	0.262687	1.451682
H119	H	0.476476	-0.420822	0.457484
H120	H	0.976476	0.079178	0.957484
H121	H	0.483333	-0.257291	0.280148
H122	H	0.983333	0.242709	0.780148
H123	H	0.975254	-1.070422	0.442914
H124	H	1.475254	-0.570422	0.942914
Cl125	Cl	0.640637	-0.237313	0.258487
Cl126	Cl	1.140637	0.262687	0.758487
Cl127	Cl	0.938798	-0.440495	0.960118
Cl128	Cl	1.438798	0.059505	1.460118
Cl129	Cl	1.144907	-0.590681	0.273194
Cl130	Cl	1.644907	-0.090681	0.773194
H131	H	1.117824	-0.740305	0.300338
H132	H	1.617824	-0.240305	0.800338
H133	H	1.151670	-0.937045	0.266652
H134	H	1.651670	-0.437045	0.766652
Cl135	Cl	1.166298	-1.086674	0.252136
Cl136	Cl	1.666298	-0.586674	0.752136
H137	H	0.980802	-0.937075	0.437283
H138	H	1.480802	-0.437075	0.937283
H139	H	0.946956	-0.740337	0.470965
H140	H	1.446956	-0.240337	0.970965
Cl141	Cl	0.932329	-0.590704	0.485484
Cl142	Cl	1.432329	-0.090704	0.985484
Cl143	Cl	1.159893	-0.237350	0.778215
Cl144	Cl	1.659893	0.262650	1.278215
Cl145	Cl	0.938763	-0.440535	0.786637
Cl146	Cl	1.438763	0.059465	1.286637
