data_functionalizedCrystal
_audit_creation_method	'MofGen! by Chris Wilmer'
_symmetry_space_group_name_H-M	'P1'
_symmetry_Int_Tables_number	1
_symmetry_cell_setting	triclinic
loop_
_symmetry_equiv_pos_as_xyz
  x,y,z
_cell_length_a	19.077105
_cell_length_b	29.839131
_cell_length_c	19.076919
_cell_angle_alpha	87.732541
_cell_angle_beta	89.923776
_cell_angle_gamma	87.737628
loop_
_atom_site_label
_atom_site_type_symbol
_atom_site_fract_x
_atom_site_fract_y
_atom_site_fract_z
Zn1	Zn	1.058171	-0.217337	0.440392
Zn2	Zn	1.308171	0.032663	0.690392
Zn3	Zn	1.558171	0.282663	0.940392
Zn4	Zn	1.808171	0.532663	1.190392
Zn5	Zn	1.062777	-0.289569	0.322877
Zn6	Zn	1.312777	-0.039569	0.572877
Zn7	Zn	1.562777	0.210431	0.822877
Zn8	Zn	1.812777	0.460431	1.072877
Zn9	Zn	0.945391	-0.211319	0.318186
Zn10	Zn	1.195391	0.038681	0.568186
Zn11	Zn	1.445391	0.288681	0.818186
Zn12	Zn	1.695391	0.538681	1.068186
Zn13	Zn	0.940599	-0.289298	0.435629
Zn14	Zn	1.190599	-0.039298	0.685629
Zn15	Zn	1.440599	0.210702	0.935629
Zn16	Zn	1.690599	0.460702	1.185629
O17	O	1.001735	-0.251881	0.379271
O18	O	1.251735	-0.001881	0.629271
O19	O	1.501735	0.248119	0.879271
O20	O	1.751735	0.498119	1.129271
O21	O	1.157112	-0.229551	0.428760
O22	O	1.407112	0.020449	0.678760
O23	O	1.657112	0.270449	0.928760
O24	O	1.907112	0.520449	1.178760
O25	O	1.051139	-0.276784	0.223924
O26	O	1.301139	-0.026784	0.473924
O27	O	1.551139	0.223216	0.723924
O28	O	1.801139	0.473216	0.973924
O29	O	0.960429	-0.149253	0.334427
O30	O	1.210429	0.100747	0.584427
O31	O	1.460429	0.350747	0.834427
O32	O	1.710429	0.600747	1.084427
O33	O	1.160497	-0.282620	0.342422
O34	O	1.410497	-0.032620	0.592422
O35	O	1.660497	0.217380	0.842422
O36	O	1.910497	0.467380	1.092422
O37	O	1.043288	-0.153674	0.424211
O38	O	1.293288	0.096326	0.674211
O39	O	1.543288	0.346326	0.924211
O40	O	1.793288	0.596326	1.174211
O41	O	0.964896	-0.219294	0.220477
O42	O	1.214896	0.030706	0.470477
O43	O	1.464896	0.280706	0.720477
O44	O	1.714896	0.530706	0.970477
O45	O	0.846425	-0.219031	0.329809
O46	O	1.096425	0.030969	0.579809
O47	O	1.346425	0.280969	0.829809
O48	O	1.596425	0.530969	1.079809
O49	O	0.952262	-0.282158	0.534592
O50	O	1.202262	-0.032158	0.784592
O51	O	1.452262	0.217842	1.034592
O52	O	1.702262	0.467842	1.284592
O53	O	0.842904	-0.276322	0.416094
O54	O	1.092904	-0.026322	0.666094
O55	O	1.342904	0.223678	0.916094
O56	O	1.592904	0.473678	1.166094
O57	O	1.038641	-0.229288	0.538091
O58	O	1.288641	0.020712	0.788091
O59	O	1.538641	0.270712	1.038091
O60	O	1.788641	0.520712	1.288091
O61	O	1.046493	-0.352398	0.337803
O62	O	1.296493	-0.102398	0.587803
O63	O	1.546493	0.147602	0.837803
O64	O	1.796493	0.397602	1.087803
O65	O	0.956729	-0.352199	0.420642
O66	O	1.206729	-0.102199	0.670642
O67	O	1.456729	0.147801	0.920642
O68	O	1.706729	0.397801	1.170642
C69	C	0.819169	-0.246995	0.371926
C70	C	1.069169	0.003005	0.621926
C71	C	1.319169	0.253005	0.871926
C72	C	1.569169	0.503005	1.121926
C73	C	0.741065	-0.244915	0.368801
C74	C	0.991065	0.005085	0.618801
C75	C	1.241065	0.255085	0.868801
C76	C	1.491065	0.505085	1.118801
C77	C	1.001609	-0.368599	0.379231
C78	C	1.251609	-0.118599	0.629231
C79	C	1.501609	0.131401	0.879231
C80	C	1.751609	0.381401	1.129231
C81	C	1.001619	-0.418534	0.379240
C82	C	1.251619	-0.168534	0.629240
C83	C	1.501619	0.081466	0.879240
C84	C	1.751619	0.331466	1.129240
C85	C	0.702560	-0.273809	0.412186
C86	C	0.952560	-0.023809	0.662186
C87	C	1.202560	0.226191	0.912186
C88	C	1.452560	0.476191	1.162186
C89	C	0.629174	-0.271849	0.409252
C90	C	0.879174	-0.021849	0.659252
C91	C	1.129174	0.228151	0.909252
C92	C	1.379174	0.478151	1.159252
C93	C	0.594294	-0.240998	0.362930
C94	C	0.844294	0.009002	0.612930
C95	C	1.094294	0.259002	0.862930
C96	C	1.344294	0.509002	1.112930
C97	C	0.632804	-0.212102	0.319543
C98	C	0.882804	0.037898	0.569543
C99	C	1.132804	0.287898	0.819543
C100	C	1.382804	0.537898	1.069543
C101	C	0.706189	-0.214059	0.322481
C102	C	0.956189	0.035941	0.572481
C103	C	1.206189	0.285941	0.822481
C104	C	1.456189	0.535941	1.072481
C105	C	0.375011	-0.231938	0.349338
C106	C	0.625011	0.018062	0.599338
C107	C	0.875011	0.268062	0.849338
C108	C	1.125011	0.518062	1.099338
C109	C	0.301621	-0.229984	0.346403
C110	C	0.551621	0.020016	0.596403
C111	C	0.801621	0.270016	0.846403
C112	C	1.051621	0.520016	1.096403
C113	C	0.297996	-0.289731	0.436113
C114	C	0.547996	-0.039731	0.686113
C115	C	0.797996	0.210269	0.936113
C116	C	1.047996	0.460269	1.186113
C117	C	0.371382	-0.291688	0.439043
C118	C	0.621382	-0.041688	0.689043
C119	C	0.871382	0.208312	0.939043
C120	C	1.121382	0.458312	1.189043
C121	C	0.409886	-0.262790	0.395659
C122	C	0.659886	-0.012790	0.645659
C123	C	0.909886	0.237210	0.895659
C124	C	1.159886	0.487210	1.145659
N125	N	0.519281	-0.238996	0.359929
N126	N	0.769281	0.011004	0.609929
N127	N	1.019281	0.261004	0.859929
N128	N	1.269281	0.511004	1.109929
N129	N	0.484897	-0.264790	0.398664
N130	N	0.734897	-0.014790	0.648664
N131	N	0.984897	0.235210	0.898664
N132	N	1.234897	0.485210	1.148664
C133	C	1.048554	-0.728276	0.336206
C134	C	1.298554	-0.478276	0.586206
C135	C	1.548554	-0.228276	0.836206
C136	C	1.798554	0.021724	1.086206
C137	C	1.048639	-0.915952	0.336237
C138	C	1.298639	-0.665952	0.586237
C139	C	1.548639	-0.415952	0.836237
C140	C	1.798639	-0.165952	1.086237
O141	O	1.088445	-0.940297	0.299616
O142	O	1.338445	-0.690297	0.549616
O143	O	1.588445	-0.440297	0.799616
O144	O	1.838445	-0.190297	1.049616
N145	N	1.001878	-0.939328	0.379330
N146	N	1.251878	-0.689328	0.629330
N147	N	1.501878	-0.439328	0.879330
N148	N	1.751878	-0.189328	1.129330
C149	C	0.955095	-0.915782	0.422422
C150	C	1.205095	-0.665782	0.672422
C151	C	1.455095	-0.415782	0.922422
C152	C	1.705095	-0.165782	1.172422
O153	O	0.915329	-0.939972	0.459082
O154	O	1.165329	-0.689972	0.709082
O155	O	1.415329	-0.439972	0.959082
O156	O	1.665329	-0.189972	1.209082
C157	C	0.955014	-0.728107	0.422395
C158	C	1.205014	-0.478107	0.672395
C159	C	1.455014	-0.228107	0.922395
C160	C	1.705014	0.021893	1.172395
C161	C	1.001773	-0.704734	0.379293
C162	C	1.251773	-0.454734	0.629293
C163	C	1.501773	-0.204734	0.879293
C164	C	1.751773	0.045266	1.129293
C165	C	1.095310	-0.704902	0.293109
C166	C	1.345310	-0.454902	0.543109
C167	C	1.595310	-0.204902	0.793109
C168	C	1.845310	0.045098	1.043109
C169	C	1.095285	-0.657986	0.293099
C170	C	1.345285	-0.407986	0.543099
C171	C	1.595285	-0.157986	0.793099
C172	C	1.845285	0.092014	1.043099
C173	C	1.048505	-0.634443	0.336186
C174	C	1.298505	-0.384443	0.586186
C175	C	1.548505	-0.134443	0.836186
C176	C	1.798505	0.115557	1.086186
C177	C	1.001749	-0.657817	0.379283
C178	C	1.251749	-0.407817	0.629283
C179	C	1.501749	-0.157817	0.879283
C180	C	1.751749	0.092183	1.129283
C181	C	0.908235	-0.704563	0.465490
C182	C	1.158235	-0.454563	0.715490
C183	C	1.408235	-0.204563	0.965490
C184	C	1.658235	0.045437	1.215490
C185	C	0.908220	-0.657641	0.465480
C186	C	1.158220	-0.407641	0.715480
C187	C	1.408220	-0.157641	0.965480
C188	C	1.658220	0.092359	1.215480
C189	C	0.954979	-0.634267	0.422379
C190	C	1.204979	-0.384267	0.672379
C191	C	1.454979	-0.134267	0.922379
C192	C	1.704979	0.115733	1.172379
C193	C	0.954944	-0.587358	0.422360
C194	C	1.204944	-0.337358	0.672360
C195	C	1.454944	-0.087358	0.922360
C196	C	1.704944	0.162642	1.172360
N197	N	1.001705	-0.563982	0.379267
N198	N	1.251705	-0.313982	0.629267
N199	N	1.501705	-0.063982	0.879267
N200	N	1.751705	0.186018	1.129267
C201	C	1.048485	-0.587525	0.336180
C202	C	1.298485	-0.337525	0.586180
C203	C	1.548485	-0.087525	0.836180
C204	C	1.798485	0.162475	1.086180
C205	C	0.955141	-1.014314	0.422432
C206	C	1.205141	-0.764314	0.672432
C207	C	1.455141	-0.514314	0.922432
C208	C	1.705141	-0.264314	1.172432
C209	C	0.955160	-1.061233	0.422439
C210	C	1.205160	-0.811233	0.672439
C211	C	1.455160	-0.561233	0.922439
C212	C	1.705160	-0.311233	1.172439
C213	C	1.048705	-1.061399	0.336254
C214	C	1.298705	-0.811399	0.586254
C215	C	1.548705	-0.561399	0.836254
C216	C	1.798705	-0.311399	1.086254
C217	C	1.048682	-1.014480	0.336245
C218	C	1.298682	-0.764480	0.586245
C219	C	1.548682	-0.514480	0.836245
C220	C	1.798682	-0.264480	1.086245
C221	C	1.001902	-0.990938	0.379339
C222	C	1.251902	-0.740938	0.629339
C223	C	1.501902	-0.490938	0.879339
C224	C	1.751902	-0.240938	1.129339
C225	C	1.048430	-0.488997	0.336161
C226	C	1.298430	-0.238997	0.586161
C227	C	1.548430	0.011003	0.836161
C228	C	1.798430	0.261003	1.086161
C229	C	1.048399	-0.442077	0.336153
C230	C	1.298399	-0.192077	0.586153
C231	C	1.548399	0.057923	0.836153
C232	C	1.798399	0.307923	1.086153
C233	C	0.954857	-0.441914	0.422340
C234	C	1.204857	-0.191914	0.672340
C235	C	1.454857	0.058086	0.922340
C236	C	1.704857	0.308086	1.172340
C237	C	0.954885	-0.488831	0.422346
C238	C	1.204885	-0.238831	0.672346
C239	C	1.454885	0.011169	0.922346
C240	C	1.704885	0.261169	1.172346
C241	C	1.001677	-0.512371	0.379255
C242	C	1.251677	-0.262371	0.629255
C243	C	1.501677	-0.012371	0.879255
C244	C	1.751677	0.237629	1.129255
O245	O	0.915164	-0.562985	0.458967
O246	O	1.165164	-0.312985	0.708967
O247	O	1.415164	-0.062985	0.958967
O248	O	1.665164	0.187015	1.208967
O249	O	1.088256	-0.563328	0.299537
O250	O	1.338256	-0.313328	0.549537
O251	O	1.588256	-0.063328	0.799537
O252	O	1.838256	0.186672	1.049537
C253	C	1.048578	-0.775192	0.336216
C254	C	1.298578	-0.525192	0.586216
C255	C	1.548578	-0.275192	0.836216
C256	C	1.798578	-0.025192	1.086216
C257	C	1.001822	-0.798566	0.379313
C258	C	1.251822	-0.548566	0.629313
C259	C	1.501822	-0.298566	0.879313
C260	C	1.751822	-0.048566	1.129313
C261	C	0.955041	-0.775024	0.422401
C262	C	1.205041	-0.525024	0.672401
C263	C	1.455041	-0.275024	0.922401
C264	C	1.705041	-0.025024	1.172401
C265	C	1.001841	-0.845485	0.379319
C266	C	1.251841	-0.595485	0.629319
C267	C	1.501841	-0.345485	0.879319
C268	C	1.751841	-0.095485	1.129319
C269	C	1.048622	-0.869027	0.336232
C270	C	1.298622	-0.619027	0.586232
C271	C	1.548622	-0.369027	0.836232
C272	C	1.798622	-0.119027	1.086232
C273	C	1.095383	-0.845651	0.293139
C274	C	1.345383	-0.595651	0.543139
C275	C	1.595383	-0.345651	0.793139
C276	C	1.845383	-0.095651	1.043139
C277	C	1.095359	-0.798735	0.293129
C278	C	1.345359	-0.548735	0.543129
C279	C	1.595359	-0.298735	0.793129
C280	C	1.845359	-0.048735	1.043129
C281	C	0.908280	-0.798400	0.465494
C282	C	1.158280	-0.548400	0.715494
C283	C	1.408280	-0.298400	0.965494
C284	C	1.658280	-0.048400	1.215494
C285	C	0.908308	-0.845316	0.465500
C286	C	1.158308	-0.595316	0.715500
C287	C	1.408308	-0.345316	0.965500
C288	C	1.658308	-0.095316	1.215500
C289	C	0.955089	-0.868859	0.422413
C290	C	1.205089	-0.618859	0.672413
C291	C	1.455089	-0.368859	0.922413
C292	C	1.705089	-0.118859	1.172413
C293	C	1.185013	-0.256787	0.386645
C294	C	1.435013	-0.006787	0.636645
C295	C	1.685013	0.243213	0.886645
C296	C	1.935013	0.493213	1.136645
C297	C	1.263116	-0.258877	0.389788
C298	C	1.513116	-0.008877	0.639788
C299	C	1.763116	0.241123	0.889788
C300	C	2.013116	0.491123	1.139788
C301	C	0.994403	-0.256364	0.562551
C302	C	1.244403	-0.006364	0.812551
C303	C	1.494403	0.243636	1.062551
C304	C	1.744403	0.493636	1.312551
C305	C	0.991279	-0.258274	0.640654
C306	C	1.241279	-0.008274	0.890654
C307	C	1.491279	0.241726	1.140654
C308	C	1.741279	0.491726	1.390654
C309	C	1.001879	-0.134708	0.379327
C310	C	1.251879	0.115292	0.629327
C311	C	1.501879	0.365292	0.879327
C312	C	1.751879	0.615292	1.129327
C313	C	1.001941	-0.084775	0.379351
C314	C	1.251941	0.165225	0.629351
C315	C	1.501941	0.415225	0.879351
C316	C	1.751941	0.665225	1.129351
C317	C	1.009078	-0.247384	0.196706
C318	C	1.259078	0.002616	0.446706
C319	C	1.509078	0.252616	0.696706
C320	C	1.759078	0.502616	0.946706
C321	C	1.012338	-0.245351	0.118609
C322	C	1.262338	0.004649	0.368609
C323	C	1.512338	0.254649	0.618609
C324	C	1.762338	0.504649	0.868609
C325	C	1.034782	-0.231647	0.679169
C326	C	1.284782	0.018353	0.929169
C327	C	1.534782	0.268353	1.179169
C328	C	1.784782	0.518353	1.429169
C329	C	1.031838	-0.233440	0.752555
C330	C	1.281838	0.016560	1.002555
C331	C	1.531838	0.266560	1.252555
C332	C	1.781838	0.516560	1.502555
C333	C	0.985394	-0.261863	0.787424
C334	C	1.235394	-0.011863	1.037424
C335	C	1.485394	0.238137	1.287424
C336	C	1.735394	0.488137	1.537424
C337	C	0.941886	-0.288492	0.748903
C338	C	1.191886	-0.038492	0.998903
C339	C	1.441886	0.211508	1.248903
C340	C	1.691886	0.461508	1.498903
C341	C	0.944827	-0.286696	0.675518
C342	C	1.194827	-0.036696	0.925518
C343	C	1.444827	0.213304	1.175518
C344	C	1.694827	0.463304	1.425518
C345	C	0.971772	-0.270184	1.006704
C346	C	1.221772	-0.020184	1.256704
C347	C	1.471772	0.229816	1.506704
C348	C	1.721772	0.479816	1.756704
C349	C	0.968835	-0.271978	1.080093
C350	C	1.218835	-0.021978	1.330093
C351	C	1.468835	0.228022	1.580093
C352	C	1.718835	0.478022	1.830093
C353	C	1.058787	-0.216925	1.083741
C354	C	1.308787	0.033075	1.333741
C355	C	1.558787	0.283075	1.583741
C356	C	1.808787	0.533075	1.833741
C357	C	1.061727	-0.215134	1.010355
C358	C	1.311727	0.034866	1.260355
C359	C	1.561727	0.284866	1.510355
C360	C	1.811727	0.534866	1.760355
C361	C	1.018216	-0.241761	0.971840
C362	C	1.268216	0.008239	1.221840
C363	C	1.518216	0.258239	1.471840
C364	C	1.768216	0.508239	1.721840
N365	N	0.982385	-0.263698	0.862436
N366	N	1.232385	-0.013698	1.112436
N367	N	1.482385	0.236302	1.362436
N368	N	1.732385	0.486302	1.612436
N369	N	1.021222	-0.239924	0.896830
N370	N	1.271222	0.010076	1.146830
N371	N	1.521222	0.260076	1.396830
N372	N	1.771222	0.510076	1.646830
H373	H	0.730954	-0.298932	0.449904
H374	H	0.980954	-0.048932	0.699904
H375	H	1.230954	0.201068	0.949904
H376	H	1.480954	0.451068	1.199904
H377	H	0.916812	-0.507863	0.457445
H378	H	1.166812	-0.257863	0.707445
H379	H	1.416812	-0.007863	0.957445
H380	H	1.666812	0.242137	1.207445
F381	F	0.595680	-0.179265	0.270247
F382	F	0.845680	0.070735	0.520247
F383	F	1.095680	0.320735	0.770247
F384	F	1.345680	0.570735	1.020247
F385	F	0.858472	-0.729429	0.511371
F386	F	1.108472	-0.479429	0.761371
F387	F	1.358472	-0.229429	1.011371
F388	F	1.608472	0.020571	1.261371
F389	F	1.145106	-0.729951	0.247246
F390	F	1.395106	-0.479951	0.497246
F391	F	1.645106	-0.229951	0.747246
F392	F	1.895106	0.020049	0.997246
H393	H	1.094209	-0.195246	1.115107
H394	H	1.344209	0.054754	1.365107
H395	H	1.594209	0.304754	1.615107
H396	H	1.844209	0.554754	1.865107
H397	H	1.086757	-0.995452	0.301148
H398	H	1.336757	-0.745452	0.551148
H399	H	1.586757	-0.495452	0.801148
H400	H	1.836757	-0.245452	1.051148
F401	F	0.905385	-1.086104	0.468305
F402	F	1.155385	-0.836104	0.718305
F403	F	1.405385	-0.586104	0.968305
F404	F	1.655385	-0.336104	1.218305
H405	H	0.904068	-0.311633	0.777298
H406	H	1.154068	-0.061633	1.027298
H407	H	1.404068	0.188367	1.277298
H408	H	1.654068	0.438367	1.527298
F409	F	0.747168	-0.183306	0.276306
F410	F	0.997168	0.066694	0.526306
F411	F	1.247168	0.316694	0.776306
F412	F	1.497168	0.566694	1.026306
F413	F	0.898523	-0.315036	0.634527
F414	F	1.148523	-0.065036	0.884527
F415	F	1.398523	0.184964	1.134527
F416	F	1.648523	0.434964	1.384527
F417	F	0.858535	-0.870187	0.511376
F418	F	1.108535	-0.620187	0.761376
F419	F	1.358535	-0.370187	1.011376
F420	F	1.608535	-0.120187	1.261376
H421	H	0.870187	-0.779235	0.500582
H422	H	1.120187	-0.529235	0.750582
H423	H	1.370187	-0.279235	1.000582
H424	H	1.620187	-0.029235	1.250582
H425	H	1.086796	-1.080576	0.301171
H426	H	1.336796	-0.830576	0.551171
H427	H	1.586796	-0.580576	0.801171
H428	H	1.836796	-0.330576	1.051171
F429	F	1.084218	-0.201397	0.642066
F430	F	1.334218	0.048603	0.892066
F431	F	1.584218	0.298603	1.142066
F432	F	1.834218	0.548603	1.392066
H433	H	0.916767	-0.422739	0.457419
H434	H	1.166767	-0.172739	0.707419
H435	H	1.416767	0.077261	0.957419
H436	H	1.666767	0.327261	1.207419
F437	F	1.078164	-0.205115	0.793544
F438	F	1.328164	0.044885	1.043544
F439	F	1.578164	0.294885	1.293544
F440	F	1.828164	0.544885	1.543544
H441	H	0.870127	-0.638476	0.500576
H442	H	1.120127	-0.388476	0.750576
H443	H	1.370127	-0.138476	1.000576
H444	H	1.620127	0.111524	1.250576
H445	H	1.099548	-0.191990	0.981970
H446	H	1.349548	0.058010	1.231970
H447	H	1.599548	0.308010	1.481970
H448	H	1.849548	0.558010	1.731970
H449	H	0.597826	-0.295378	0.444580
H450	H	0.847826	-0.045378	0.694580
H451	H	1.097826	0.204622	0.944580
H452	H	1.347826	0.454622	1.194580
H453	H	0.931013	-0.295125	1.108481
H454	H	1.181013	-0.045125	1.358481
H455	H	1.431013	0.204875	1.608481
H456	H	1.681013	0.454875	1.858481
F457	F	0.925464	-0.298523	0.965723
F458	F	1.175464	-0.048523	1.215723
F459	F	1.425464	0.201477	1.465723
F460	F	1.675464	0.451477	1.715723
H461	H	0.399777	-0.316811	0.476762
H462	H	0.649777	-0.066811	0.726762
H463	H	0.899777	0.183189	0.976762
H464	H	1.149777	0.433189	1.226762
F465	F	0.905347	-0.989265	0.468302
F466	F	1.155347	-0.739265	0.718302
F467	F	1.405347	-0.489265	0.968302
F468	F	1.655347	-0.239265	1.218302
H469	H	0.406352	-0.208411	0.314006
H470	H	0.656352	0.041589	0.564006
H471	H	0.906352	0.291589	0.814006
H472	H	1.156352	0.541589	1.064006
H473	H	0.273224	-0.204856	0.308686
H474	H	0.523224	0.045144	0.558686
H475	H	0.773224	0.295144	0.808686
H476	H	1.023224	0.545144	1.058686
F477	F	0.257013	-0.320485	0.482281
F478	F	0.507013	-0.070485	0.732281
F479	F	0.757013	0.179515	0.982281
F480	F	1.007013	0.429515	1.232281
H481	H	1.086476	-0.423047	0.301052
H482	H	1.336476	-0.173047	0.551052
H483	H	1.586476	0.076953	0.801052
H484	H	1.836476	0.326953	1.051052
H485	H	1.086534	-0.508158	0.301074
H486	H	1.336534	-0.258158	0.551074
H487	H	1.586534	-0.008158	0.801074
H488	H	1.836534	0.241842	1.051074
F489	F	1.145129	-0.773865	0.247256
F490	F	1.395129	-0.523865	0.497256
F491	F	1.645129	-0.273865	0.747256
F492	F	1.895129	-0.023865	0.997256
H493	H	1.133472	-0.864828	0.258053
H494	H	1.383472	-0.614828	0.508053
H495	H	1.633472	-0.364828	0.758053
H496	H	1.883472	-0.114828	1.008053
F497	F	1.145061	-0.633116	0.247232
F498	F	1.395061	-0.383116	0.497232
F499	F	1.645061	-0.133116	0.747232
F500	F	1.895061	0.116884	0.997232
