data_functionalizedCrystal
_audit_creation_method	'MofGen! by Chris Wilmer'
_symmetry_space_group_name_H-M	'P1'
_symmetry_Int_Tables_number	1
_symmetry_cell_setting	triclinic
loop_
_symmetry_equiv_pos_as_xyz
  x,y,z
_cell_length_a	11.792241
_cell_length_b	10.654550
_cell_length_c	9.730223
_cell_angle_alpha	89.995869
_cell_angle_beta	89.996478
_cell_angle_gamma	95.660841
loop_
_atom_site_label
_atom_site_type_symbol
_atom_site_fract_x
_atom_site_fract_y
_atom_site_fract_z
O1	O	1.507300	-0.172137	0.114153
O2	O	1.177000	-0.189877	0.114184
O3	O	1.349744	0.001753	0.114163
O4	O	1.334556	-0.363768	0.114174
O5	O	1.349742	0.001763	-0.114417
O6	O	1.176998	-0.189868	-0.114396
O7	O	1.507298	-0.172128	-0.114427
Zn8	Zn	1.342147	-0.180996	-0.150703
Zn9	Zn	1.342150	-0.181009	0.150460
O10	O	1.334553	-0.363758	-0.114406
C11	C	1.134705	-0.188758	-0.000102
C12	C	1.008684	-0.185423	-0.000090
N13	N	1.342153	-0.181008	0.355997
C14	C	1.348628	0.048553	-0.000126
C15	C	1.345291	0.187987	-0.000120
C16	C	0.777958	-0.179290	-0.000129
C17	C	0.906351	-0.182697	-0.000107
C18	C	1.549592	-0.173247	-0.000138
C19	C	1.675614	-0.176582	-0.000141
C20	C	1.335670	-0.410558	-0.000114
C21	C	1.339006	-0.549992	-0.000111
C22	C	1.447000	0.267760	-0.000134
C23	C	1.443858	0.398772	-0.000124
C24	C	1.237290	0.370224	-0.000092
C25	C	1.240433	0.239215	-0.000093
C26	C	1.566261	0.284243	-0.000159
C27	C	1.563120	0.415255	-0.000149
N28	N	1.342154	-0.180987	-0.356240
C29	C	1.418788	-0.096320	0.427913
C30	C	1.418791	-0.096312	0.571796
C31	C	1.265515	-0.265684	0.571834
C32	C	1.265518	-0.265697	0.427953
C33	C	1.507278	0.001470	0.427893
C34	C	1.507281	0.001478	0.571776
H35	H	1.151917	0.411951	-0.000069
C36	C	1.628641	0.245205	0.127214
C37	C	1.724039	0.185441	0.087666
C38	C	1.781533	0.149475	0.204961
H39	H	1.579100	0.188725	0.180449
H40	H	1.652492	0.317840	0.180365
H41	H	1.700187	0.112816	0.034538
H42	H	1.773607	0.241897	0.034447
H43	H	1.805383	0.222110	0.258112
H44	H	1.731983	0.093000	0.258188
H45	H	1.846272	0.108932	0.178144
H46	H	1.604238	0.248728	-0.098859
H47	H	1.488059	0.098016	0.610809
C48	C	1.610953	0.476293	0.131527
C49	C	1.526570	0.538517	0.196570
C50	C	1.570583	0.594744	0.317880
H51	H	1.674219	0.535324	0.110280
H52	H	1.634767	0.413183	0.190958
H53	H	1.502772	0.601620	0.137151
H54	H	1.463299	0.479514	0.217850
H55	H	1.594397	0.531634	0.377311
H56	H	1.633849	0.653769	0.296620
H57	H	1.513334	0.636959	0.362033
C58	C	1.182261	-0.357765	0.649713
C59	C	1.115166	-0.431954	0.555930
C60	C	1.038468	-0.516805	0.627618
H61	H	1.134639	-0.312272	0.705844
H62	H	1.223376	-0.410510	0.705814
H63	H	1.074053	-0.379216	0.499852
H64	H	1.162756	-0.477474	0.499796
H65	H	1.079583	-0.569550	0.683720
H66	H	0.990854	-0.471302	0.683746
H67	H	0.992942	-0.567160	0.563998
H68	H	1.589630	-0.029038	0.616402
H69	H	1.608054	0.457146	-0.095812
H70	H	1.203126	-0.334668	0.369400
C71	C	1.623564	-0.027215	0.376087
C72	C	1.694694	-0.044748	0.488241
C73	C	1.801817	-0.071191	0.440570
H74	H	1.656112	0.041240	0.321869
H75	H	1.615430	-0.101736	0.321904
H76	H	1.702831	0.029764	0.542400
H77	H	1.662183	-0.113207	0.542470
H78	H	1.793683	-0.145712	0.386387
H79	H	1.834354	-0.002731	0.386352
H80	H	1.850089	-0.083101	0.516658
H81	H	1.479853	0.092672	0.383249
H82	H	1.157611	0.174267	-0.000062
