data_functionalizedCrystal
_audit_creation_method	'MofGen! by Chris Wilmer'
_symmetry_space_group_name_H-M	'P1'
_symmetry_Int_Tables_number	1
_symmetry_cell_setting	triclinic
loop_
_symmetry_equiv_pos_as_xyz
  x,y,z
_cell_length_a	18.215405
_cell_length_b	11.169417
_cell_length_c	18.215385
_cell_angle_alpha	90.061455
_cell_angle_beta	89.904210
_cell_angle_gamma	89.974236
loop_
_atom_site_label
_atom_site_type_symbol
_atom_site_fract_x
_atom_site_fract_y
_atom_site_fract_z
Zn1	Zn	-0.292501	-1.835334	-0.416035
Zn2	Zn	0.207499	-1.335334	0.083965
Zn3	Zn	-0.415712	-1.835027	-0.292963
Zn4	Zn	0.084288	-1.335027	0.207037
Zn5	Zn	-0.292666	-1.634474	-0.292990
Zn6	Zn	0.207334	-1.134474	0.207010
Zn7	Zn	-0.415532	-1.634577	-0.415996
Zn8	Zn	0.084468	-1.134577	0.084004
O9	O	-0.354103	-1.734853	-0.354496
O10	O	0.145897	-1.234853	0.145504
O11	O	-0.308851	-2.003243	-0.399715
O12	O	0.191149	-1.503243	0.100285
O13	O	-0.399534	-1.808251	-0.189982
O14	O	0.100466	-1.308251	0.310018
O15	O	-0.189660	-1.661205	-0.309340
O16	O	0.310340	-1.161205	0.190660
O17	O	-0.399374	-2.003017	-0.309294
O18	O	0.100626	-1.503017	0.190706
O19	O	-0.189538	-1.808776	-0.399741
O20	O	0.310462	-1.308776	0.100259
O21	O	-0.309133	-1.660906	-0.190001
O22	O	0.190867	-1.160906	0.309999
O23	O	-0.308958	-1.466538	-0.309301
O24	O	0.191042	-0.966538	0.190699
O25	O	-0.399067	-1.661379	-0.518985
O26	O	0.100933	-1.161379	-0.018985
O27	O	-0.399227	-1.466613	-0.399673
O28	O	0.100773	-0.966613	0.100327
O29	O	-0.308677	-1.808875	-0.519014
O30	O	0.191323	-1.308875	-0.019014
O31	O	-0.518673	-1.808351	-0.309256
O32	O	-0.018673	-1.308351	0.190744
O33	O	-0.518540	-1.661081	-0.399647
O34	O	-0.018540	-1.161081	0.100353
C35	C	-0.545309	-1.734726	-0.354460
C36	C	-0.045309	-1.234726	0.145540
C37	C	-0.627108	-1.734782	-0.354470
C38	C	-0.127108	-1.234782	0.145530
C39	C	-0.354092	-1.423028	-0.354486
C40	C	0.145908	-0.923028	0.145514
C41	C	-0.354105	-1.289628	-0.354500
C42	C	0.145895	-0.789628	0.145500
C43	C	-0.353833	-1.735173	-0.546449
C44	C	0.146167	-1.235173	-0.046449
C45	C	-0.353719	-1.735309	-0.628248
C46	C	0.146281	-1.235309	-0.128248
C47	C	-0.815346	-1.811646	-0.307490
C48	C	-0.315346	-1.311646	0.192510
C49	C	-0.892205	-1.811699	-0.307507
C50	C	-0.392205	-1.311699	0.192493
C51	C	-0.892107	-1.658214	-0.401555
C52	C	-0.392107	-1.158214	0.098445
C53	C	-0.815250	-1.658167	-0.401540
C54	C	-0.315250	-1.158167	0.098460
C55	C	-0.776871	-1.734881	-0.354503
C56	C	-0.276871	-1.234881	0.145497
C57	C	-0.930587	-1.734982	-0.354536
C58	C	-0.430587	-1.234982	0.145464
C59	C	-1.013921	-1.735039	-0.354556
C60	C	-0.513921	-1.235039	0.145444
C61	C	-0.693532	-1.734826	-0.354485
C62	C	-0.193532	-1.234826	0.145515
C63	C	-0.162150	-1.735013	-0.354547
C64	C	0.337850	-1.235013	0.145453
C65	C	-0.080351	-1.735081	-0.354569
C66	C	0.419649	-1.235081	0.145431
C67	C	-0.354114	-2.047895	-0.354506
C68	C	0.145886	-1.547895	0.145494
C69	C	-0.354119	-2.181295	-0.354510
C70	C	0.145881	-1.681295	0.145490
C71	C	-0.354318	-1.734604	-0.163289
C72	C	0.145682	-1.234604	0.336711
C73	C	-0.354225	-1.734700	-0.081490
C74	C	0.145775	-1.234700	0.418510
C75	C	-0.307290	-1.657686	0.106658
C76	C	0.192710	-1.157686	0.606658
C77	C	-0.307202	-1.657791	0.183517
C78	C	0.192798	-1.157791	0.683517
C79	C	-0.400656	-1.812332	0.183598
C80	C	0.099344	-1.312332	0.683598
C81	C	-0.400740	-1.812232	0.106740
C82	C	0.099260	-1.312232	0.606740
C83	C	-0.354058	-1.734902	0.068273
C84	C	0.145942	-1.234902	0.568273
C85	C	-0.353886	-1.735107	0.221988
C86	C	0.146114	-1.235107	0.721988
C87	C	-0.353792	-1.735221	0.305322
C88	C	0.146208	-1.235221	0.805322
C89	C	-0.354151	-1.734789	-0.015066
C90	C	0.145849	-1.234789	0.484934
H91	H	-0.784100	-1.874112	-0.269190
H92	H	-0.284100	-1.374112	0.230810
H93	H	-0.269118	-1.594915	0.214767
H94	H	0.230882	-1.094915	0.714767
H95	H	-0.783921	-1.595657	-0.439828
H96	H	-0.283921	-1.095657	0.060172
H97	H	-0.923528	-1.874210	-0.269225
H98	H	-0.423528	-1.374210	0.230775
C99	C	-0.451315	-1.896146	0.225497
C100	C	0.048685	-1.396146	0.725497
C101	C	-0.441249	-1.879684	0.301022
C102	C	0.058751	-1.379684	0.801022
C103	C	-0.487914	-1.956860	0.339640
C104	C	0.012086	-1.456860	0.839640
H105	H	-0.440253	-1.976700	0.212869
H106	H	0.059747	-1.476700	0.712869
H107	H	-0.500867	-1.879093	0.213098
H108	H	-0.000867	-1.379093	0.713098
H109	H	-0.391709	-1.896746	0.313416
H110	H	0.108291	-1.396746	0.813416
H111	H	-0.452317	-1.799146	0.313672
H112	H	0.047683	-1.299146	0.813672
H113	H	-0.537465	-1.939807	0.327241
H114	H	-0.037465	-1.439807	0.827241
H115	H	-0.476847	-2.037409	0.327006
H116	H	0.023153	-1.537409	0.827006
H117	H	-0.481095	-1.945693	0.390888
H118	H	0.018905	-1.445693	0.890888
C119	C	-0.451600	-1.896118	0.065192
C120	C	0.048400	-1.396118	0.565192
C121	C	-0.492483	-1.963832	0.115328
C122	C	0.007517	-1.463832	0.615328
C123	C	-0.539344	-2.041108	0.077080
C124	C	-0.039344	-1.541108	0.577080
H125	H	-0.423331	-1.948168	0.035070
H126	H	0.076669	-1.448168	0.535070
H127	H	-0.483937	-1.850546	0.035366
H128	H	0.016063	-1.350546	0.535366
H129	H	-0.460149	-2.009401	0.145141
H130	H	0.039851	-1.509401	0.645141
H131	H	-0.520766	-1.911814	0.145452
H132	H	-0.020766	-1.411814	0.645452
H133	H	-0.571681	-1.995537	0.047254
H134	H	-0.071681	-1.495537	0.547254
H135	H	-0.511070	-2.093150	0.046960
H136	H	-0.011070	-1.593150	0.546960
H137	H	-0.567093	-2.087054	0.111092
H138	H	-0.067093	-1.587054	0.611092
H139	H	-0.923364	-1.595755	-0.439850
H140	H	-0.423364	-1.095755	0.060150
H141	H	-0.269276	-1.594723	0.075340
H142	H	0.230724	-1.094723	0.575340
