data_functionalizedCrystal
_audit_creation_method	'MofGen! by Chris Wilmer'
_symmetry_space_group_name_H-M	'P1'
_symmetry_Int_Tables_number	1
_symmetry_cell_setting	triclinic
loop_
_symmetry_equiv_pos_as_xyz
  x,y,z
_cell_length_a	19.288867
_cell_length_b	10.967829
_cell_length_c	18.366186
_cell_angle_alpha	77.865925
_cell_angle_beta	89.992441
_cell_angle_gamma	83.941601
loop_
_atom_site_label
_atom_site_type_symbol
_atom_site_fract_x
_atom_site_fract_y
_atom_site_fract_z
O1	O	0.922367	0.155674	-0.080055
O2	O	0.720244	0.176669	-0.082697
O3	O	0.825965	-0.015506	-0.058577
O4	O	0.816647	0.347849	-0.104175
O5	O	0.825947	-0.015515	0.062523
O6	O	0.720226	0.176660	0.038404
O7	O	0.922349	0.155664	0.041045
Zn8	Zn	0.821285	0.166161	0.058952
Zn9	Zn	0.821309	0.166173	-0.100603
O10	O	0.816628	0.347839	0.016926
C11	C	0.694354	0.175989	-0.022063
C12	C	0.617237	0.173959	-0.021811
C13	C	0.825276	-0.061997	0.007805
C14	C	0.823244	-0.200511	0.025182
C15	C	0.061586	0.159348	-0.085980
C16	C	0.134046	0.161247	-0.086221
C17	C	0.170271	0.162198	-0.020329
C18	C	0.134032	0.161216	0.045813
C19	C	0.061575	0.159305	0.046054
C20	C	0.280088	0.238306	0.020693
C21	C	0.352543	0.240225	0.020449
C22	C	0.393755	0.168088	-0.021068
C23	C	0.362501	0.094048	-0.062355
C24	C	0.290044	0.092136	-0.062114
C25	C	0.248840	0.164270	-0.020583
C26	C	0.508555	0.171120	-0.087466
C27	C	0.581017	0.173011	-0.087703
C28	C	0.581001	0.172993	0.044331
C29	C	0.508541	0.171089	0.044568
C30	C	0.472323	0.170158	-0.021333
C31	C	0.822347	-0.262254	-0.029805
C32	C	0.820246	-0.405416	-0.011846
C33	C	0.948239	0.156345	-0.019591
C34	C	1.025356	0.158374	-0.019848
C35	C	0.817317	0.394330	-0.049458
C36	C	0.819349	0.532845	-0.066840
N37	N	0.821273	0.166151	0.167844
N38	N	0.821325	0.166172	-0.209494
C39	C	0.868102	0.081098	0.216619
C40	C	0.868107	0.081092	0.292848
C41	C	0.821289	0.166162	0.320296
C42	C	0.774451	0.251222	0.271510
C43	C	0.774443	0.251217	0.195285
C44	C	0.812732	0.279856	0.426788
C45	C	0.812745	0.279863	0.503012
C46	C	0.821309	0.166177	0.555401
C47	C	0.829874	0.052480	0.531557
C48	C	0.829867	0.052475	0.455331
C49	C	0.821292	0.166176	0.402948
C50	C	0.868145	0.081111	0.686833
C51	C	0.868144	0.081103	0.763063
C52	C	0.774492	0.251244	0.741723
C53	C	0.774489	0.251240	0.665495
C54	C	0.821319	0.166175	0.638055
H55	H	0.032102	0.158585	-0.139641
H56	H	0.264600	0.031848	-0.095729
Cl57	Cl	0.715620	0.358176	0.604172
Cl58	Cl	0.715591	0.358162	0.306015
Cl59	Cl	0.819025	-0.487422	0.081371
Cl60	Cl	0.462991	0.169885	0.127708
Cl61	Cl	0.414302	0.003360	-0.114554
Cl62	Cl	0.820538	-0.385145	-0.160059
Cl63	Cl	0.391826	0.333314	0.072344
H64	H	0.246539	0.297042	0.054510
Cl65	Cl	0.179572	0.162406	0.128649
Cl66	Cl	0.927016	-0.025837	0.824386
H67	H	0.163551	0.162047	-0.140076
H68	H	0.822452	-0.253636	0.085554
Cl69	Cl	0.840627	-0.090452	0.425358
Cl70	Cl	0.802031	0.422793	0.360933
Cl71	Cl	0.463020	0.169940	-0.170310
H72	H	0.610516	0.173795	-0.141557
Cl73	Cl	0.823579	-0.180246	-0.123017
Cl74	Cl	0.626535	0.174168	0.127170
H75	H	0.906232	0.011830	0.194281
Cl76	Cl	0.016025	0.158086	0.129198
Cl77	Cl	0.926983	-0.025841	0.354174
Cl78	Cl	0.840646	-0.090450	0.597410
Cl79	Cl	0.927013	-0.025834	0.652336
H80	H	0.736370	0.320504	0.764070
H81	H	0.805775	0.372442	0.522419
Cl82	Cl	0.715569	0.358151	0.133963
