data_functionalizedCrystal
_audit_creation_method	'MofGen! by Chris Wilmer'
_symmetry_space_group_name_H-M	'P1'
_symmetry_Int_Tables_number	1
_symmetry_cell_setting	triclinic
loop_
_symmetry_equiv_pos_as_xyz
  x,y,z
_cell_length_a	14.908571
_cell_length_b	17.640280
_cell_length_c	14.908308
_cell_angle_alpha	82.669722
_cell_angle_beta	90.175053
_cell_angle_gamma	74.921313
loop_
_atom_site_label
_atom_site_type_symbol
_atom_site_fract_x
_atom_site_fract_y
_atom_site_fract_z
Zn1	Zn	1.445833	-0.413045	-0.498174
Zn2	Zn	1.484886	-0.538235	-0.320716
Zn3	Zn	1.300448	-0.397842	-0.342463
Zn4	Zn	1.325685	-0.537295	-0.462571
O5	O	1.389213	-0.471604	-0.405981
O6	O	1.578484	-0.436407	-0.480433
O7	O	1.466202	-0.513643	-0.199068
O8	O	1.292829	-0.289105	-0.387120
O9	O	1.607176	-0.528384	-0.350055
O10	O	1.399643	-0.300274	-0.501520
O11	O	1.330696	-0.410497	-0.215045
O12	O	1.176326	-0.409585	-0.352597
O13	O	1.335841	-0.526782	-0.591827
O14	O	1.194867	-0.512041	-0.440840
O15	O	1.424113	-0.435496	-0.617984
O16	O	1.490673	-0.648865	-0.315532
O17	O	1.373708	-0.648174	-0.419752
C18	C	1.152545	-0.459062	-0.395215
C19	C	1.051300	-0.453716	-0.390626
C20	C	0.880453	-0.550508	-0.473704
C21	C	0.785325	-0.545487	-0.469395
C22	C	0.765915	-0.438653	-0.377705
C23	C	0.861043	-0.443673	-0.382014
C24	C	0.918309	-0.499603	-0.430014
C25	C	1.013439	-0.504626	-0.434317
C26	C	0.994026	-0.397788	-0.342633
C27	C	0.898899	-0.392768	-0.338324
C28	C	1.439191	-0.677239	-0.361439
C29	C	1.460653	-0.765216	-0.342418
C30	C	1.226523	-1.052872	-0.550826
C31	C	1.246694	-1.135539	-0.532924
C32	C	1.368555	-1.136202	-0.424518
C33	C	1.348398	-1.053534	-0.442414
C34	C	1.277380	-1.011876	-0.505568
C35	C	1.399256	-1.012538	-0.397156
C36	C	1.379096	-0.929876	-0.415047
C37	C	1.308080	-0.888212	-0.478197
C38	C	1.257221	-0.929214	-0.523460
C39	C	1.470269	-1.054197	-0.333997
C40	C	1.521126	-1.013201	-0.288739
C41	C	1.500972	-0.930538	-0.306635
C42	C	1.429955	-0.888874	-0.369784
C43	C	1.551830	-0.889536	-0.261372
C44	C	1.531671	-0.806875	-0.279264
C45	C	1.409796	-0.806213	-0.387676
C46	C	1.626806	-0.484197	-0.416790
C47	C	1.728054	-0.489563	-0.421396
C48	C	1.378436	-0.482730	-0.638098
C49	C	1.373843	-0.487470	-0.737013
C50	C	1.339064	-0.265169	-0.450717
C51	C	1.317694	-0.177199	-0.469781
C52	C	1.457124	-0.401304	-0.950127
C53	C	1.452812	-0.405756	-1.043067
C54	C	1.360899	-0.500821	-1.015834
C55	C	1.365212	-0.496369	-0.922895
C56	C	1.413328	-0.446610	-0.890045
C57	C	1.417646	-0.442163	-0.797102
C58	C	1.325728	-0.537224	-0.769872
C59	C	1.321415	-0.541675	-0.862812
C60	C	1.399987	-0.460468	-0.174782
C61	C	1.404702	-0.455514	-0.075924
H62	H	1.024859	-0.356339	-0.307055
H63	H	1.609647	-0.923466	-0.209946
H64	H	1.351972	-0.772293	-0.439109
C65	C	0.734098	-0.391106	-0.234161
C66	C	0.702941	-0.377173	-0.324966
H67	H	0.695216	-0.353146	-0.201610
H68	H	0.732039	-0.442808	-0.208825
H69	H	0.796165	-0.386798	-0.230466
H70	H	0.640875	-0.381486	-0.328661
H71	H	0.704990	-0.325458	-0.350309
C72	C	1.487003	-0.370363	-1.197627
C73	C	1.500951	-0.355953	-1.109112
H74	H	1.516718	-0.339609	-1.238400
H75	H	1.512554	-0.424969	-1.201942
H76	H	1.422276	-0.356270	-1.212574
H77	H	1.565678	-0.370051	-1.094163
H78	H	1.475404	-0.301335	-1.104794
C79	C	1.329782	-0.652473	-0.943689
C80	C	1.268532	-0.596371	-0.898926
H81	H	1.297133	-0.686244	-0.965976
H82	H	1.355236	-0.626125	-0.992771
H83	H	1.378507	-0.683108	-0.902670
H84	H	1.219810	-0.565733	-0.939947
H85	H	1.243063	-0.622722	-0.849838
H86	H	1.456825	-0.401647	-0.770358
C87	C	1.138789	-0.936855	-0.628852
C88	C	1.179168	-0.883416	-0.592894
H89	H	1.090604	-0.908579	-0.671714
H90	H	1.184724	-0.972797	-0.657748
H91	H	1.113638	-0.965421	-0.581480
H92	H	1.204325	-0.854854	-0.640265
H93	H	1.133224	-0.847460	-0.563998
H94	H	1.573084	-0.773495	-0.242409
C95	C	1.369239	-0.611602	-1.096736
C96	C	1.308002	-0.555501	-1.051962
H97	H	1.336578	-0.645358	-1.119037
H98	H	1.394703	-0.585253	-1.145810
H99	H	1.417958	-0.642252	-1.055720
H100	H	1.259286	-0.524847	-1.092980
H101	H	1.282523	-0.581853	-1.002882
H102	H	1.291662	-0.820903	-0.492756
C103	C	1.291527	-0.572615	-0.615311
C104	C	1.277581	-0.587028	-0.703826
H105	H	1.261801	-0.603361	-0.574540
H106	H	1.356244	-0.586711	-0.600361
H107	H	1.265977	-0.518001	-0.611002
H108	H	1.303137	-0.641641	-0.708138
H109	H	1.212851	-0.572938	-0.718781
C110	C	0.867137	-0.345248	-0.194767
C111	C	0.835947	-0.331293	-0.285564
H112	H	0.828276	-0.307292	-0.162197
H113	H	0.865074	-0.396951	-0.169439
H114	H	0.929210	-0.340952	-0.191090
H115	H	0.773876	-0.335595	-0.289241
H116	H	0.838001	-0.279577	-0.310899
H117	H	1.168699	-1.018953	-0.602260
C118	C	1.639570	-1.005552	-0.183377
C119	C	1.599188	-1.058995	-0.219322
H120	H	1.687760	-1.033824	-0.140519
H121	H	1.664706	-0.976987	-0.230750
H122	H	1.593631	-0.969607	-0.154472
H123	H	1.645126	-1.094936	-0.248234
H124	H	1.574053	-1.087573	-0.171942
C125	C	1.023063	-0.609714	-0.524527
C126	C	1.076387	-0.566099	-0.487083
H127	H	1.061924	-0.647660	-0.557110
H128	H	0.995108	-0.636120	-0.477475
H129	H	0.976005	-0.574940	-0.564403
H130	H	1.123442	-0.600872	-0.447202
H131	H	1.104358	-0.539692	-0.534141
C132	C	1.470269	-0.268267	-0.952555
C133	C	1.510013	-0.346615	-0.914007
H134	H	1.502919	-0.234505	-0.930251
H135	H	1.473977	-0.264438	-1.016496
H136	H	1.406959	-0.252720	-0.937046
H137	H	1.573322	-0.362164	-0.929522
H138	H	1.506315	-0.350447	-0.850051
H139	H	0.927081	-0.596052	-0.512781
H140	H	0.754507	-0.586938	-0.504973
H141	H	1.426376	-1.170132	-0.373095
C142	C	1.124206	-1.126579	-0.641896
C143	C	1.190792	-1.180604	-0.582686
H144	H	1.089701	-1.154402	-0.672619
H145	H	1.083342	-1.090670	-0.608482
H146	H	1.154422	-1.098035	-0.684755
H147	H	1.160576	-1.209144	-0.539823
H148	H	1.231663	-1.216527	-0.616102
H149	H	1.486682	-1.121505	-0.319435
