data_functionalizedCrystal
_audit_creation_method	'MofGen! by Chris Wilmer'
_symmetry_space_group_name_H-M	'P1'
_symmetry_Int_Tables_number	1
_symmetry_cell_setting	triclinic
loop_
_symmetry_equiv_pos_as_xyz
  x,y,z
_cell_length_a	27.731993
_cell_length_b	27.732048
_cell_length_c	26.809956
_cell_angle_alpha	89.999364
_cell_angle_beta	90.002784
_cell_angle_gamma	82.631525
loop_
_atom_site_label
_atom_site_type_symbol
_atom_site_fract_x
_atom_site_fract_y
_atom_site_fract_z
O1	O	0.640948	0.057385	-0.041351
O2	O	0.974282	0.390718	0.291983
O3	O	1.307615	0.724051	0.625316
O4	O	0.500151	0.066158	-0.041382
O5	O	0.833484	0.399491	0.291951
O6	O	1.166818	0.732824	0.625285
O7	O	0.574923	-0.008626	-0.041356
O8	O	0.908256	0.324707	0.291977
O9	O	1.241589	0.658040	0.625311
O10	O	0.566177	0.132169	-0.041377
O11	O	0.899510	0.465502	0.291957
O12	O	1.232844	0.798835	0.625290
O13	O	0.574908	-0.008615	0.041603
O14	O	0.908242	0.324718	0.374937
O15	O	1.241575	0.658052	0.708270
O16	O	0.500137	0.066169	0.041577
O17	O	0.833470	0.399502	0.374911
O18	O	1.166804	0.732836	0.708244
O19	O	0.640934	0.057396	0.041609
O20	O	0.974268	0.390729	0.374942
O21	O	1.307601	0.724063	0.708275
Zn22	Zn	0.570533	0.061784	0.054764
Zn23	Zn	0.903867	0.395118	0.388098
Zn24	Zn	1.237200	0.728451	0.721431
Zn25	Zn	0.570552	0.061769	-0.054538
Zn26	Zn	0.903885	0.395103	0.278795
Zn27	Zn	1.237219	0.728436	0.612129
O28	O	0.566163	0.132180	0.041582
O29	O	0.899496	0.465513	0.374916
O30	O	1.232829	0.798847	0.708249
C31	C	0.482137	0.065983	0.000094
C32	C	0.815470	0.399317	0.333427
C33	C	1.148803	0.732650	0.666761
C34	C	0.428480	0.065441	0.000082
C35	C	0.761814	0.398774	0.333416
C36	C	1.095147	0.732108	0.666749
C37	C	0.574732	-0.026628	0.000125
C38	C	0.908065	0.306706	0.333458
C39	C	1.241399	0.640039	0.666792
C40	C	0.574179	-0.080282	0.000129
C41	C	0.907512	0.253051	0.333462
C42	C	1.240846	0.586384	0.666796
C43	C	0.045328	0.061504	-0.045114
C44	C	0.378661	0.394838	0.288219
C45	C	0.711994	0.728171	0.621553
C46	C	0.246985	0.063571	-0.045128
C47	C	0.580319	0.396905	0.288206
C48	C	0.913652	0.730238	0.621539
O49	O	0.273065	0.063814	-0.083588
O50	O	0.606398	0.397147	0.249746
O51	O	0.939732	0.730480	0.583079
N52	N	0.272198	0.063836	0.000092
N53	N	0.605531	0.397169	0.333426
N54	N	0.938864	0.730503	0.666759
C55	C	0.246993	0.063581	0.045319
C56	C	0.580327	0.396914	0.378652
C57	C	0.913660	0.730248	0.711986
O58	O	0.273066	0.063849	0.083781
O59	O	0.606399	0.397182	0.417114
O60	O	0.939733	0.730515	0.750448
C61	C	0.045337	0.061510	0.045332
C62	C	0.378671	0.394844	0.378666
C63	C	0.712004	0.728177	0.711999
C64	C	0.020127	0.061251	0.000109
C65	C	0.353460	0.394584	0.333443
C66	C	0.686793	0.727917	0.666776
C67	C	0.020117	0.061244	-0.090333
C68	C	0.353451	0.394577	0.243000
C69	C	0.686784	0.727910	0.576333
C70	C	-0.030295	0.060730	-0.090329
C71	C	0.303039	0.394063	0.243004
C72	C	0.636372	0.727396	0.576337
C73	C	-0.055496	0.060476	-0.045106
C74	C	0.277838	0.393809	0.288227
C75	C	0.611171	0.727143	0.621561
C76	C	-0.030285	0.060736	0.000113
C77	C	0.303048	0.394070	0.333447
C78	C	0.636382	0.727403	0.666780
C79	C	0.020134	0.061252	0.090558
C80	C	0.353468	0.394585	0.423892
C81	C	0.686801	0.727919	0.757225
C82	C	-0.030283	0.060733	0.090558
C83	C	0.303051	0.394066	0.423891
C84	C	0.636384	0.727400	0.757224
C85	C	-0.055493	0.060473	0.045335
C86	C	0.277840	0.393806	0.378668
C87	C	0.611173	0.727140	0.712001
C88	C	-0.105898	0.059969	0.045340
C89	C	0.227436	0.393302	0.378674
C90	C	0.560769	0.726635	0.712007
N91	N	-0.131110	0.059704	0.000120
N92	N	0.202223	0.393037	0.333454
N93	N	0.535556	0.726371	0.666787
C94	C	-0.105909	0.059958	-0.045103
C95	C	0.227424	0.393291	0.288230
C96	C	0.560757	0.726624	0.621564
C97	C	0.352866	0.064669	0.045309
C98	C	0.686199	0.398002	0.378642
C99	C	1.019532	0.731336	0.711975
C100	C	0.403279	0.065187	0.045306
C101	C	0.736613	0.398521	0.378639
C102	C	1.069946	0.731854	0.711972
C103	C	0.403268	0.065177	-0.045141
C104	C	0.736601	0.398510	0.288192
C105	C	1.069934	0.731843	0.621525
C106	C	0.352853	0.064662	-0.045138
C107	C	0.686186	0.397995	0.288196
C108	C	1.019519	0.731328	0.621529
C109	C	0.327653	0.064404	0.000089
C110	C	0.660986	0.397737	0.333422
C111	C	0.994320	0.731071	0.666755
C112	C	-0.211777	0.058878	-0.045091
C113	C	0.121556	0.392212	0.288242
C114	C	0.454889	0.725545	0.621575
C115	C	-0.262194	0.058366	-0.045083
C116	C	0.071139	0.391700	0.288250
C117	C	0.404473	0.725033	0.621583
C118	C	-0.262178	0.058374	0.045363
C119	C	0.071156	0.391708	0.378697
C120	C	0.404489	0.725041	0.712030
C121	C	-0.211766	0.058889	0.045356
C122	C	0.121567	0.392222	0.378689
C123	C	0.454901	0.725556	0.712022
C124	C	-0.186567	0.059139	0.000124
C125	C	0.146766	0.392473	0.333458
C126	C	0.480100	0.725806	0.666791
O127	O	-0.132008	0.059720	0.083780
O128	O	0.201326	0.393054	0.417113
O129	O	0.534659	0.726387	0.750447
O130	O	-0.131989	0.059679	-0.083559
O131	O	0.201344	0.393012	0.249774
O132	O	0.534678	0.726346	0.583107
C133	C	0.095740	0.062018	-0.045118
C134	C	0.429073	0.395352	0.288215
C135	C	0.762406	0.728685	0.621549
C136	C	0.120950	0.062279	0.000101
C137	C	0.454283	0.395612	0.333435
C138	C	0.787617	0.728945	0.666768
C139	C	0.095749	0.062025	0.045325
C140	C	0.429082	0.395358	0.378658
C141	C	0.762416	0.728692	0.711991
C142	C	0.171364	0.062797	0.000098
C143	C	0.504697	0.396131	0.333432
C144	C	0.838030	0.729464	0.666765
C145	C	0.196565	0.063051	-0.045125
C146	C	0.529898	0.396384	0.288208
C147	C	0.863232	0.729717	0.621542
C148	C	0.171352	0.062786	-0.090345
C149	C	0.504686	0.396119	0.242988
C150	C	0.838019	0.729453	0.576322
C151	C	0.120941	0.062272	-0.090341
C152	C	0.454274	0.395605	0.242992
C153	C	0.787607	0.728939	0.576326
C154	C	0.120962	0.062290	0.090545
C155	C	0.454295	0.395623	0.423878
C156	C	0.787628	0.728957	0.757211
C157	C	0.171373	0.062805	0.090537
C158	C	0.504707	0.396138	0.423870
C159	C	0.838040	0.729471	0.757204
C160	C	0.196574	0.063058	0.045314
C161	C	0.529908	0.396392	0.378647
C162	C	0.863241	0.729725	0.711981
C163	C	0.614884	-0.419105	0.000113
C164	C	0.948217	-0.085772	0.333446
C165	C	1.281551	0.247561	0.666779
C166	C	0.612833	-0.620765	0.000105
C167	C	0.946166	-0.287431	0.333438
C168	C	1.279500	0.045902	0.666772
O169	O	0.650055	-0.652028	0.000092
O170	O	0.983388	-0.318694	0.333425
O171	O	1.316721	0.014639	0.666758
N172	N	0.568497	-0.639880	0.000096
N173	N	0.901830	-0.306546	0.333429
N174	N	1.235163	0.026787	0.666762
C175	C	0.524670	-0.608576	0.000085
C176	C	0.858003	-0.275243	0.333418
C177	C	1.191336	0.058090	0.666752
O178	O	0.486912	-0.629462	0.000072
O179	O	0.820245	-0.296129	0.333405
O180	O	1.153579	0.037204	0.666738
C181	C	0.526721	-0.406918	0.000089
C182	C	0.860055	-0.073585	0.333422
C183	C	1.193388	0.259748	0.666755
C184	C	0.571061	-0.387806	0.000103
C185	C	0.904394	-0.054473	0.333437
C186	C	1.237727	0.278860	0.666770
C187	C	0.659220	-0.399993	0.000126
C188	C	0.992553	-0.066660	0.333460
C189	C	1.325886	0.266674	0.666793
C190	C	0.659732	-0.349581	0.000131
C191	C	0.993065	-0.016248	0.333464
C192	C	1.326399	0.317086	0.666798
C193	C	0.615909	-0.318282	0.000122
C194	C	0.949242	0.015052	0.333455
C195	C	1.282575	0.348385	0.666788
C196	C	0.571573	-0.337394	0.000108
C197	C	0.904906	-0.004061	0.333441
C198	C	1.238240	0.329272	0.666774
C199	C	0.482895	-0.375616	0.000074
C200	C	0.816228	-0.042283	0.333408
C201	C	1.149562	0.291051	0.666741
C202	C	0.483412	-0.325199	0.000074
C203	C	0.816745	0.008135	0.333407
C204	C	1.150079	0.341468	0.666741
C205	C	0.527751	-0.306087	0.000089
C206	C	0.861085	0.027247	0.333422
C207	C	1.194418	0.360580	0.666755
C208	C	0.528262	-0.255683	0.000103
C209	C	0.861595	0.077650	0.333436
C210	C	1.194928	0.410983	0.666770
N211	N	0.572598	-0.236568	0.000112
N212	N	0.905932	0.096765	0.333446
N213	N	1.239265	0.430098	0.666779
C214	C	0.616422	-0.267867	0.000122
C215	C	0.949755	0.065466	0.333455
C216	C	1.283088	0.398799	0.666788
C217	C	0.523596	-0.714450	0.000084
C218	C	0.856929	-0.381117	0.333417
C219	C	1.190262	-0.047784	0.666751
C220	C	0.523083	-0.764865	0.000084
C221	C	0.856416	-0.431531	0.333417
C222	C	1.189749	-0.098198	0.666751
C223	C	0.611246	-0.777049	0.000103
C224	C	0.944579	-0.443716	0.333436
C225	C	1.277913	-0.110383	0.666770
C226	C	0.611759	-0.726634	0.000107
C227	C	0.945092	-0.393301	0.333440
C228	C	1.278425	-0.059967	0.666773
C229	C	0.567932	-0.695335	0.000093
C230	C	0.901266	-0.362002	0.333427
C231	C	1.234599	-0.028669	0.666760
C232	C	0.617494	-0.161998	0.000132
C233	C	0.950827	0.171335	0.333465
C234	C	1.284161	0.504668	0.666798
C235	C	0.618003	-0.111582	0.000138
C236	C	0.951336	0.221752	0.333472
C237	C	1.284669	0.555085	0.666805
C238	C	0.529839	-0.099401	0.000117
C239	C	0.863173	0.233932	0.333450
C240	C	1.196506	0.567265	0.666783
C241	C	0.529331	-0.149814	0.000113
C242	C	0.862664	0.183520	0.333446
C243	C	1.195997	0.516853	0.666779
C244	C	0.573162	-0.181112	0.000118
C245	C	0.906495	0.152222	0.333452
C246	C	1.239829	0.485555	0.666785
O247	O	0.491060	-0.224392	0.000111
O248	O	0.824393	0.108941	0.333444
O249	O	1.157727	0.442275	0.666778
O250	O	0.654174	-0.246972	0.000124
O251	O	0.987507	0.086361	0.333457
O252	O	1.320841	0.419694	0.666791
C253	C	0.614372	-0.469517	0.000108
C254	C	0.947705	-0.136184	0.333441
C255	C	1.281038	0.197149	0.666775
C256	C	0.570036	-0.488630	0.000094
C257	C	0.903369	-0.155297	0.333427
C258	C	1.236703	0.178037	0.666761
C259	C	0.526213	-0.457331	0.000085
C260	C	0.859546	-0.123997	0.333418
C261	C	1.192879	0.209336	0.666751
C262	C	0.569523	-0.539044	0.000094
C263	C	0.902856	-0.205711	0.333427
C264	C	1.236190	0.127622	0.666761
C265	C	0.613346	-0.570343	0.000103
C266	C	0.946680	-0.237010	0.333437
C267	C	1.280013	0.096323	0.666770
C268	C	0.657683	-0.551228	0.000113
C269	C	0.991016	-0.217895	0.333446
C270	C	1.324349	0.115438	0.666779
C271	C	0.658195	-0.500817	0.000117
C272	C	0.991528	-0.167483	0.333451
C273	C	1.324862	0.165850	0.666784
C274	C	0.481876	-0.476446	0.000075
C275	C	0.815210	-0.143112	0.333409
C276	C	1.148543	0.190221	0.666742
C277	C	0.481368	-0.526858	0.000071
C278	C	0.814701	-0.193525	0.333405
C279	C	1.148034	0.139809	0.666738
C280	C	0.525191	-0.558157	0.000081
C281	C	0.858524	-0.224824	0.333414
C282	C	1.191858	0.108509	0.666747
C283	C	0.658949	0.057570	0.000132
C284	C	0.992282	0.390904	0.333465
C285	C	1.325615	0.724237	0.666798
C286	C	0.712605	0.058113	0.000140
C287	C	1.045938	0.391446	0.333473
C288	C	1.379272	0.724779	0.666807
C289	C	0.566353	0.150181	0.000100
C290	C	0.899687	0.483515	0.333434
C291	C	1.233020	0.816848	0.666767
C292	C	0.566906	0.203836	0.000093
C293	C	0.900239	0.537169	0.333426
C294	C	1.233573	0.870503	0.666760
N295	N	0.570524	0.061794	0.129360
N296	N	0.903858	0.395128	0.462694
N297	N	1.237191	0.728461	0.796027
N298	N	0.570565	0.061756	-0.129134
N299	N	0.903898	0.395089	0.204199
N300	N	1.237232	0.728422	0.537533
C301	C	0.603656	0.028663	0.473998
C302	C	0.936990	0.361996	0.807331
C303	C	1.270323	0.695330	1.140665
C304	C	0.603668	0.028656	0.682876
C305	C	0.937001	0.361989	1.016209
C306	C	1.270335	0.695322	1.349542
O307	O	0.631819	0.000489	0.709889
O308	O	0.965152	0.333823	1.043223
O309	O	1.298485	0.667156	1.376556
N310	N	0.570555	0.061759	0.708988
N311	N	0.903888	0.395092	1.042321
N312	N	1.237221	0.728425	1.375654
C313	C	0.537434	0.094864	0.682877
C314	C	0.870767	0.428197	1.016210
C315	C	1.204101	0.761530	1.349543
O316	O	0.509266	0.123016	0.709879
O317	O	0.842599	0.456350	1.043213
O318	O	1.175933	0.789683	1.376546
C319	C	0.537421	0.094869	0.474000
C320	C	0.870754	0.428202	0.807333
C321	C	1.204087	0.761535	1.140667
C322	C	0.570539	0.061767	0.447891
C323	C	0.903873	0.395100	0.781224
C324	C	1.237206	0.728433	1.114558
C325	C	0.636772	-0.004437	0.447889
C326	C	0.970106	0.328897	0.781222
C327	C	1.303439	0.662230	1.114556
C328	C	0.636771	-0.004433	0.395673
C329	C	0.970104	0.328901	0.729006
C330	C	1.303437	0.662234	1.062339
C331	C	0.603654	0.028671	0.369565
C332	C	0.936987	0.362004	0.702899
C333	C	1.270320	0.695338	1.036232
C334	C	0.570538	0.061771	0.395675
C335	C	0.903871	0.395104	0.729008
C336	C	1.237205	0.728437	1.062341
C337	C	0.504298	0.127971	0.447890
C338	C	0.837631	0.461304	0.781223
C339	C	1.170965	0.794638	1.114557
C340	C	0.504297	0.127968	0.395668
C341	C	0.837630	0.461302	0.729001
C342	C	1.170963	0.794635	1.062334
C343	C	0.537415	0.094867	0.369559
C344	C	0.870749	0.428200	0.702892
C345	C	1.204082	0.761533	1.036225
C346	C	0.537419	0.094878	0.317351
C347	C	0.870753	0.428211	0.650685
C348	C	1.204086	0.761545	0.984018
N349	N	0.570533	0.061775	0.291239
N350	N	0.903866	0.395108	0.624573
N351	N	1.237199	0.728442	0.957906
C352	C	0.603650	0.028671	0.317347
C353	C	0.936983	0.362005	0.650680
C354	C	1.270316	0.695338	0.984013
C355	C	0.537444	0.094860	0.792540
C356	C	0.870777	0.428193	1.125873
C357	C	1.204111	0.761526	1.459207
C358	C	0.537448	0.094859	0.844759
C359	C	0.870781	0.428192	1.178092
C360	C	1.204114	0.761526	1.511426
C361	C	0.603681	0.028650	0.844754
C362	C	0.937015	0.361983	1.178088
C363	C	1.270348	0.695317	1.511421
C364	C	0.603679	0.028653	0.792534
C365	C	0.937013	0.361987	1.125868
C366	C	1.270346	0.695320	1.459201
C367	C	0.570557	0.061757	0.766428
C368	C	0.903891	0.395090	1.099762
C369	C	1.237224	0.728423	1.433095
C370	C	0.603644	0.028683	0.207689
C371	C	0.936978	0.362016	0.541022
C372	C	1.270311	0.695349	0.874355
C373	C	0.603641	0.028691	0.155468
C374	C	0.936975	0.362024	0.488801
C375	C	1.270308	0.695357	0.822134
C376	C	0.537406	0.094898	0.155477
C377	C	0.870740	0.428231	0.488810
C378	C	1.204073	0.761564	0.822143
C379	C	0.537411	0.094891	0.207693
C380	C	0.870744	0.428225	0.541026
C381	C	1.204078	0.761558	0.874360
C382	C	0.570532	0.061780	0.233798
C383	C	0.903865	0.395113	0.567131
C384	C	1.237198	0.728446	0.900464
O385	O	0.509280	0.123026	0.290305
O386	O	0.842613	0.456359	0.623639
O387	O	1.175946	0.789693	0.956972
O388	O	0.631806	0.000516	0.290335
O389	O	0.965140	0.333849	0.623668
O390	O	1.298473	0.667183	0.957002
C391	C	0.603658	0.028659	0.526214
C392	C	0.936991	0.361992	0.859548
C393	C	1.270325	0.695326	1.192881
C394	C	0.570542	0.061759	0.552324
C395	C	0.903876	0.395092	0.885657
C396	C	1.237209	0.728425	1.218990
C397	C	0.537425	0.094862	0.526216
C398	C	0.870758	0.428196	0.859550
C399	C	1.204092	0.761529	1.192883
C400	C	0.570546	0.061758	0.604542
C401	C	0.903879	0.395092	0.937876
C402	C	1.237213	0.728425	1.271209
C403	C	0.603663	0.028655	0.630650
C404	C	0.936997	0.361988	0.963983
C405	C	1.270330	0.695321	1.297316
C406	C	0.636777	-0.004448	0.604538
C407	C	0.970110	0.328885	0.937871
C408	C	1.303443	0.662218	1.271204
C409	C	0.636775	-0.004444	0.552322
C410	C	0.970108	0.328889	0.885655
C411	C	1.303442	0.662222	1.218988
C412	C	0.504312	0.127965	0.552328
C413	C	0.837645	0.461299	0.885661
C414	C	1.170978	0.794632	1.218995
C415	C	0.504316	0.127959	0.604545
C416	C	0.837650	0.461292	0.937878
C417	C	1.170983	0.794626	1.271211
C418	C	0.537433	0.094855	0.630652
C419	C	0.870767	0.428189	0.963985
C420	C	1.204100	0.761522	1.297318
H421	H	-0.282718	0.058156	-0.081911
H422	H	0.050615	0.391489	0.251422
H423	H	0.383948	0.724823	0.584756
H424	H	-0.282706	0.058170	0.082183
H425	H	0.050628	0.391503	0.415516
H426	H	0.383961	0.724837	0.748850
H427	H	0.477329	0.154925	0.469141
H428	H	0.810663	0.488259	0.802474
H429	H	1.143996	0.821592	1.135808
H430	H	0.493226	-0.165375	0.000115
H431	H	0.826559	0.167958	0.333448
H432	H	1.159893	0.501291	0.666781
H433	H	0.663744	-0.031401	0.625803
H434	H	0.997077	0.301932	0.959136
H435	H	1.330410	0.635266	1.292469
H436	H	0.663743	-0.031399	0.531067
H437	H	0.997077	0.301934	0.864401
H438	H	1.330410	0.635267	1.197734
H439	H	0.477348	0.154919	0.625799
H440	H	0.810681	0.488252	0.959132
H441	H	1.144014	0.821585	1.292466
H442	H	0.494160	-0.073909	0.000111
H443	H	0.827493	0.259425	0.333444
H444	H	1.160826	0.592758	0.666777
H445	H	-0.050798	0.060527	0.127387
H446	H	0.282535	0.393861	0.460721
H447	H	0.615869	0.727194	0.794054
H448	H	0.445259	-0.542414	0.000064
H449	H	0.778592	-0.209080	0.333397
H450	H	1.111925	0.124253	0.666731
H451	H	0.654110	-0.096024	0.000151
H452	H	0.987444	0.237310	0.333485
H453	H	1.320777	0.570643	0.666818
H454	H	0.447722	-0.299717	0.000062
H455	H	0.781056	0.033616	0.333396
H456	H	1.114389	0.366950	0.666729
H457	H	0.040631	0.061449	-0.127161
H458	H	0.373964	0.394782	0.206172
H459	H	0.707297	0.728115	0.539505
H460	H	0.510484	0.121819	0.866013
H461	H	0.843818	0.455152	1.199347
H462	H	1.177151	0.788485	1.532680
H463	H	0.100419	0.062060	-0.127166
H464	H	0.433752	0.395394	0.206167
H465	H	0.767085	0.728727	0.539500
H466	H	0.191895	0.063020	0.127366
H467	H	0.525228	0.396353	0.460699
H468	H	0.858562	0.729687	0.794033
H469	H	0.332329	0.064450	-0.081962
H470	H	0.665663	0.397783	0.251371
H471	H	0.998996	0.731117	0.584704
H472	H	-0.050816	0.060516	-0.127155
H473	H	0.282517	0.393849	0.206179
H474	H	0.615850	0.727182	0.539512
H475	H	-0.191240	0.059110	0.082180
H476	H	0.142094	0.392444	0.415513
H477	H	0.475427	0.725777	0.748847
H478	H	0.510471	0.121817	0.771288
H479	H	0.843805	0.455151	1.104621
H480	H	1.177138	0.788484	1.437954
H481	H	0.423795	0.065385	-0.081964
H482	H	0.757128	0.398718	0.251369
H483	H	1.090461	0.732052	0.584703
H484	H	0.647864	-0.711077	0.000118
H485	H	0.981197	-0.377744	0.333451
H486	H	1.314530	-0.044410	0.666785
H487	H	-0.191266	0.059083	-0.081923
H488	H	0.142067	0.392416	0.251410
H489	H	0.475400	0.725750	0.584744
H490	H	0.694301	-0.485261	0.000129
H491	H	1.027634	-0.151927	0.333462
H492	H	1.360967	0.181406	0.666795
H493	H	0.693365	-0.576721	0.000122
H494	H	1.026699	-0.243388	0.333456
H495	H	1.360032	0.089945	0.666789
H496	H	0.191879	0.062995	-0.127167
H497	H	0.525213	0.396329	0.206166
H498	H	0.858546	0.729662	0.539499
H499	H	0.100448	0.062081	0.127372
H500	H	0.433782	0.395414	0.460705
H501	H	0.767115	0.728748	0.794038
H502	H	0.423800	0.065407	0.082131
H503	H	0.757134	0.398740	0.415464
H504	H	1.090467	0.732074	0.748797
H505	H	0.653186	-0.187476	0.000135
H506	H	0.986519	0.145857	0.333468
H507	H	1.319852	0.479191	0.666801
H508	H	0.695838	-0.334025	0.000141
H509	H	1.029171	-0.000692	0.333474
H510	H	1.362504	0.332642	0.666807
H511	H	0.486977	-0.780421	0.000081
H512	H	0.820311	-0.447088	0.333414
H513	H	1.153644	-0.113754	0.666747
H514	H	0.663740	-0.031396	0.469141
H515	H	0.997074	0.301938	0.802474
H516	H	1.330407	0.635271	1.135807
H517	H	0.694908	-0.425472	0.000132
H518	H	1.028241	-0.092139	0.333465
H519	H	1.361575	0.241194	0.666799
H520	H	0.446189	-0.450966	0.000067
H521	H	0.779522	-0.117633	0.333400
H522	H	1.112856	0.215701	0.666733
H523	H	0.332353	0.064458	0.082140
H524	H	0.665686	0.397791	0.415473
H525	H	0.999020	0.731124	0.748806
H526	H	0.477323	0.154925	0.374414
H527	H	0.810656	0.488258	0.707748
H528	H	1.143990	0.821591	1.041081
H529	H	0.510447	0.121851	0.228952
H530	H	0.843781	0.455184	0.562285
H531	H	1.177114	0.788517	0.895618
H532	H	0.630612	0.001735	0.134211
H533	H	0.963946	0.335068	0.467544
H534	H	1.297279	0.668402	0.800878
H535	H	0.646929	-0.802542	0.000111
H536	H	0.980262	-0.469209	0.333444
H537	H	1.313596	-0.135875	0.666778
H538	H	0.040652	0.061462	0.127384
H539	H	0.373986	0.394795	0.460717
H540	H	0.707319	0.728129	0.794051
H541	H	0.487905	-0.688970	0.000073
H542	H	0.821238	-0.355637	0.333406
H543	H	1.154572	-0.022304	0.666740
H544	H	0.446789	-0.391168	0.000060
H545	H	0.780123	-0.057834	0.333393
H546	H	1.113456	0.275499	0.666726
H547	H	0.630614	0.001719	0.228937
H548	H	0.963947	0.335053	0.562270
H549	H	1.297281	0.668386	0.895604
H550	H	0.510444	0.121852	0.134212
H551	H	0.843777	0.455185	0.467546
H552	H	1.177111	0.788518	0.800879
H553	H	0.663737	-0.031388	0.374418
H554	H	0.997071	0.301945	0.707751
H555	H	1.330404	0.635278	1.041084
H556	H	0.630647	0.001699	0.771280
H557	H	0.963981	0.335032	1.104613
H558	H	1.297314	0.668365	1.437946
H559	H	0.630647	0.001697	0.866020
H560	H	0.963981	0.335030	1.199353
H561	H	1.297314	0.668363	1.532686
H562	H	0.477343	0.154922	0.531076
H563	H	0.810676	0.488255	0.864409
H564	H	1.144010	0.821588	1.197742
