data_functionalizedCrystal
_audit_creation_method	'MofGen! by Chris Wilmer'
_symmetry_space_group_name_H-M	'P1'
_symmetry_Int_Tables_number	1
_symmetry_cell_setting	triclinic
loop_
_symmetry_equiv_pos_as_xyz
  x,y,z
_cell_length_a	19.188905
_cell_length_b	17.666332
_cell_length_c	17.038272
_cell_angle_alpha	89.993620
_cell_angle_beta	92.876944
_cell_angle_gamma	90.016479
loop_
_atom_site_label
_atom_site_type_symbol
_atom_site_fract_x
_atom_site_fract_y
_atom_site_fract_z
O1	O	0.932218	0.063075	-0.097499
O2	O	1.265551	0.396408	0.235835
O3	O	1.598885	0.729741	0.569168
O4	O	0.729722	0.063049	-0.110656
O5	O	1.063055	0.396382	0.222677
O6	O	1.396388	0.729716	0.556010
O7	O	0.829766	0.063056	0.009734
O8	O	1.163100	0.396389	0.343067
O9	O	1.496433	0.729722	0.676401
O10	O	0.832173	0.063068	-0.217889
O11	O	1.165507	0.396401	0.115444
O12	O	1.498840	0.729735	0.448778
O13	O	0.829747	-0.062841	0.009740
O14	O	1.163080	0.270492	0.343074
O15	O	1.496414	0.603826	0.676407
O16	O	0.729702	-0.062848	-0.110650
O17	O	1.063036	0.270486	0.222683
O18	O	1.396369	0.603819	0.556017
O19	O	0.932199	-0.062822	-0.097492
O20	O	1.265532	0.270511	0.235841
O21	O	1.598865	0.603845	0.569174
Cu22	Cu	0.830949	-0.074330	-0.104071
Cu23	Cu	1.164282	0.259003	0.229263
Cu24	Cu	1.497616	0.592336	0.562596
Cu25	Cu	0.830972	0.074557	-0.104078
Cu26	Cu	1.164305	0.407891	0.229255
Cu27	Cu	1.497638	0.741224	0.562589
O28	O	0.832154	-0.062829	-0.217883
O29	O	1.165487	0.270505	0.115451
O30	O	1.498821	0.603838	0.448784
C31	C	0.703674	0.000097	-0.110230
C32	C	1.037008	0.333431	0.223103
C33	C	1.370341	0.666764	0.556436
C34	C	0.626090	0.000087	-0.108961
C35	C	0.959423	0.333421	0.224372
C36	C	1.292757	0.666754	0.557706
N37	N	0.830938	-0.179050	-0.104065
N38	N	1.164271	0.154284	0.229268
N39	N	1.497605	0.487617	0.562602
C40	C	0.589671	0.068716	-0.108355
C41	C	0.923004	0.402049	0.224978
C42	C	1.256338	0.735382	0.558312
C43	C	0.516773	0.068725	-0.107154
C44	C	0.850106	0.402058	0.226180
C45	C	1.183439	0.735392	0.559513
C46	C	0.480297	0.000102	-0.106543
C47	C	0.813631	0.333435	0.226791
C48	C	1.146964	0.666769	0.560124
C49	C	0.516725	-0.068535	-0.107154
C50	C	0.850058	0.264798	0.226180
C51	C	1.183392	0.598131	0.559513
C52	C	0.589621	-0.068543	-0.108363
C53	C	0.922955	0.264791	0.224971
C54	C	1.256288	0.598124	0.558304
N55	N	0.368388	-0.050970	-0.060158
N56	N	0.701721	0.282364	0.273175
N57	N	1.035054	0.615697	0.606509
N58	N	0.299139	-0.050958	-0.059008
N59	N	0.632473	0.282375	0.274326
N60	N	0.965806	0.615709	0.607659
C61	C	0.260664	0.000120	-0.102901
C62	C	0.593998	0.333454	0.230432
C63	C	0.927331	0.666787	0.563765
N64	N	0.294055	0.051198	-0.147979
N65	N	0.627388	0.384531	0.185354
N66	N	0.960721	0.717865	0.518688
N67	N	0.363310	0.051188	-0.149126
N68	N	0.696643	0.384522	0.184207
N69	N	1.029976	0.717855	0.517541
C70	C	0.401253	0.000102	-0.105232
C71	C	0.734587	0.333436	0.228101
C72	C	1.067920	0.666769	0.561435
C73	C	0.145201	0.068763	-0.100994
C74	C	0.478534	0.402097	0.232340
C75	C	0.811867	0.735430	0.565673
C76	C	0.072301	0.068770	-0.099797
C77	C	0.405634	0.402103	0.233536
C78	C	0.738967	0.735437	0.566870
C79	C	0.072255	-0.068492	-0.099789
C80	C	0.405588	0.264841	0.233544
C81	C	0.738922	0.598174	0.566878
C82	C	0.145153	-0.068497	-0.100993
C83	C	0.478486	0.264836	0.232340
C84	C	0.811820	0.598170	0.565673
C85	C	0.181622	0.000133	-0.101592
C86	C	0.514955	0.333466	0.231741
C87	C	0.848288	0.666800	0.565075
C88	C	0.875255	-0.218656	-0.050782
C89	C	1.208588	0.114677	0.282551
C90	C	1.541921	0.448010	0.615885
C91	C	0.875259	-0.297904	-0.050778
C92	C	1.208592	0.035429	0.282555
C93	C	1.541925	0.368763	0.615889
C94	C	0.830953	-0.337542	-0.104071
C95	C	1.164286	-0.004209	0.229263
C96	C	1.497620	0.329125	0.562596
C97	C	0.786628	-0.297926	-0.157358
C98	C	1.119961	0.035408	0.175976
C99	C	1.453294	0.368741	0.509309
C100	C	0.786620	-0.218679	-0.157355
C101	C	1.119953	0.114654	0.175979
C102	C	1.453287	0.447987	0.509312
N103	N	0.826176	-0.461957	-0.173269
N104	N	1.159509	-0.128624	0.160064
N105	N	1.492842	0.204709	0.493397
N106	N	0.826187	-0.537238	-0.173270
N107	N	1.159520	-0.203905	0.160064
N108	N	1.492854	0.129429	0.493397
C109	C	0.830972	-0.576306	-0.104082
C110	C	1.164305	-0.242973	0.229252
C111	C	1.497639	0.090361	0.562585
N112	N	0.835759	-0.537249	-0.034891
N113	N	1.169093	-0.203916	0.298442
N114	N	1.502426	0.129417	0.631776
N115	N	0.835752	-0.461962	-0.034891
N116	N	1.169085	-0.128629	0.298442
N117	N	1.502418	0.204705	0.631775
C118	C	0.830956	-0.423471	-0.104080
C119	C	1.164289	-0.090138	0.229254
C120	C	1.497623	0.243196	0.562587
C121	C	0.875295	-0.701842	-0.050790
C122	C	1.208629	-0.368509	0.282543
C123	C	1.541962	-0.035175	0.615876
C124	C	0.875294	-0.781091	-0.050785
C125	C	1.208628	-0.447758	0.282548
C126	C	1.541961	-0.114424	0.615881
C127	C	0.786667	-0.781111	-0.157372
C128	C	1.120001	-0.447778	0.175962
C129	C	1.453334	-0.114444	0.509295
C130	C	0.786665	-0.701863	-0.157370
C131	C	1.119998	-0.368530	0.175964
C132	C	1.453331	-0.035197	0.509297
C133	C	0.830982	-0.662234	-0.104080
C134	C	1.164316	-0.328900	0.229253
C135	C	1.497649	0.004433	0.562587
C136	C	0.958246	0.000131	-0.097918
C137	C	1.291579	0.333465	0.235415
C138	C	1.624913	0.666798	0.568748
C139	C	1.035830	0.000146	-0.099188
C140	C	1.369164	0.333480	0.234146
C141	C	1.702497	0.666813	0.567479
C142	C	0.827568	0.000107	0.038858
C143	C	1.160901	0.333440	0.372192
C144	C	1.494234	0.666774	0.705525
C145	C	0.821036	0.000107	0.125630
C146	C	1.154369	0.333440	0.458963
C147	C	1.487703	0.666773	0.792297
N148	N	0.830988	0.179277	-0.104078
N149	N	1.164321	0.512610	0.229256
N150	N	1.497654	0.845943	0.562589
C151	C	0.834353	0.000122	-0.247007
C152	C	1.167686	0.333455	0.086326
C153	C	1.501020	0.666788	0.419660
C154	C	0.840884	0.000127	-0.333779
C155	C	1.174218	0.333460	-0.000446
C156	C	1.507551	0.666794	0.332888
C157	C	0.881003	0.000113	0.175938
C158	C	1.214336	0.333447	0.509271
C159	C	1.547670	0.666780	0.842604
C160	C	0.874862	0.000120	0.257469
C161	C	1.208195	0.333453	0.590802
C162	C	1.541528	0.666786	0.924135
C163	C	0.808753	0.000114	0.288690
C164	C	1.142086	0.333447	0.622023
C165	C	1.475420	0.666781	0.955357
C166	C	0.748782	0.000109	0.238376
C167	C	1.082115	0.333443	0.571709
C168	C	1.415448	0.666776	0.905043
C169	C	0.754924	0.000108	0.156847
C170	C	1.088257	0.333442	0.490180
C171	C	1.421590	0.666775	0.823513
C172	C	0.787055	0.000122	0.534378
C173	C	1.120388	0.333455	0.867711
C174	C	1.453722	0.666788	1.201045
C175	C	0.780918	0.000120	0.615913
C176	C	1.114251	0.333454	0.949247
C177	C	1.447584	0.666787	1.282580
C178	C	0.906998	0.000132	0.635001
C179	C	1.240332	0.333465	0.968334
C180	C	1.573665	0.666799	1.301667
C181	C	0.913134	0.000127	0.553469
C182	C	1.246468	0.333460	0.886802
C183	C	1.579801	0.666793	1.220136
C184	C	0.853163	0.000126	0.503162
C185	C	1.186496	0.333459	0.836495
C186	C	1.519830	0.666793	1.169829
C187	C	0.802474	0.000118	0.372027
C188	C	1.135807	0.333451	0.705361
C189	C	1.469141	0.666785	1.038694
C190	C	0.859442	0.000127	0.419826
C191	C	1.192776	0.333461	0.753160
C192	C	1.526109	0.666794	1.086493
H193	H	0.619359	0.124600	-0.108842
H194	H	0.952693	0.457933	0.224491
H195	H	1.286026	0.791266	0.557824
Br196	Br	0.988383	0.000133	0.703277
Br197	Br	1.321717	0.333466	1.036611
Br198	Br	1.655050	0.666799	1.369944
H199	H	0.911380	-0.669574	-0.007396
H200	H	1.244713	-0.336241	0.325937
H201	H	1.578046	-0.002907	0.659271
Br202	Br	0.726520	-0.648105	-0.229688
Br203	Br	1.059853	-0.314772	0.103645
Br204	Br	1.393187	0.018562	0.436979
Br205	Br	0.639051	-0.161688	-0.109187
Br206	Br	0.972384	0.171645	0.224146
Br207	Br	1.305718	0.504978	0.557479
H208	H	0.694954	0.000109	0.263803
H209	H	1.028288	0.333443	0.597136
H210	H	1.361621	0.666776	0.930469
Br211	Br	0.022872	0.161917	-0.098984
Br212	Br	0.356206	0.495250	0.234349
Br213	Br	0.689539	0.828583	0.567682
Br214	Br	0.935396	-0.164873	0.021540
Br215	Br	1.268729	0.168461	0.354874
Br216	Br	1.602063	0.501794	0.688207
Br217	Br	0.194583	-0.161641	-0.101814
Br218	Br	0.527916	0.171693	0.231519
Br219	Br	0.861250	0.505026	0.564853
Br220	Br	0.935407	-0.351666	0.021542
Br221	Br	1.268740	-0.018333	0.354875
Br222	Br	1.602073	0.315001	0.688208
Br223	Br	0.726493	-0.351716	-0.229679
Br224	Br	1.059826	-0.018383	0.103654
Br225	Br	1.393159	0.314950	0.436988
Br226	Br	0.673537	0.000105	0.088570
Br227	Br	1.006870	0.333439	0.421904
Br228	Br	1.340203	0.666772	0.755237
Br229	Br	0.726471	-0.164923	-0.229672
Br230	Br	1.059804	0.168411	0.103661
Br231	Br	1.393137	0.501744	0.436995
Br232	Br	0.935437	-0.834848	0.021539
Br233	Br	1.268770	-0.501514	0.354873
Br234	Br	1.602103	-0.168181	0.688206
H235	H	0.738222	0.000121	0.493427
H236	H	1.071555	0.333454	0.826761
H237	H	1.404888	0.666788	1.160094
Br238	Br	0.726530	-0.834898	-0.229690
Br239	Br	1.059863	-0.501565	0.103644
Br240	Br	1.393197	-0.168232	0.436977
Br241	Br	0.970726	0.000110	0.133574
Br242	Br	1.304059	0.333444	0.466908
Br243	Br	1.637393	0.666777	0.800241
H244	H	0.174894	0.124646	-0.101489
H245	H	0.508228	0.457979	0.231844
H246	H	0.841561	0.791313	0.565178
H247	H	0.923693	0.000124	0.298426
H248	H	1.257027	0.333457	0.631760
H249	H	1.590360	0.666790	0.965093
Br250	Br	0.691193	0.000105	0.658285
Br251	Br	1.024526	0.333438	0.991618
Br252	Br	1.357859	0.666771	1.324951
Br253	Br	1.002856	0.000159	0.511103
Br254	Br	1.336190	0.333492	0.844436
Br255	Br	1.669523	0.666825	1.177770
H256	H	0.042557	-0.124366	-0.099297
H257	H	0.375890	0.208967	0.234037
H258	H	0.709224	0.542300	0.567370
H259	H	0.913268	0.000149	0.394402
H260	H	1.246601	0.333482	0.727736
H261	H	1.579934	0.666815	1.061069
H262	H	0.487114	0.124612	-0.106661
H263	H	0.820448	0.457945	0.226672
H264	H	1.153781	0.791279	0.560006
Br265	Br	0.467224	-0.161667	-0.106333
Br266	Br	0.800558	0.171666	0.227000
Br267	Br	1.133891	0.505000	0.560333
Br268	Br	0.712757	0.000118	0.414406
Br269	Br	1.046091	0.333451	0.747739
Br270	Br	1.379424	0.666784	1.081073
