data_functionalizedCrystal
_audit_creation_method	'MofGen! by Chris Wilmer'
_symmetry_space_group_name_H-M	'P1'
_symmetry_Int_Tables_number	1
_symmetry_cell_setting	triclinic
loop_
_symmetry_equiv_pos_as_xyz
  x,y,z
_cell_length_a	19.288864
_cell_length_b	15.944551
_cell_length_c	18.366186
_cell_angle_alpha	89.992809
_cell_angle_beta	89.977106
_cell_angle_gamma	83.317492
loop_
_atom_site_label
_atom_site_type_symbol
_atom_site_fract_x
_atom_site_fract_y
_atom_site_fract_z
O1	O	0.921629	0.104784	-0.060785
O2	O	0.719405	0.118919	-0.060735
O3	O	0.826039	-0.010445	-0.060755
O4	O	0.814995	0.234147	-0.060765
O5	O	0.826021	-0.010451	0.060345
O6	O	0.719387	0.118912	0.060364
O7	O	0.921611	0.104777	0.060315
Zn8	Zn	0.820496	0.111844	0.079567
Zn9	Zn	0.820520	0.111852	-0.079987
O10	O	0.814977	0.234141	0.060334
C11	C	0.693519	0.118461	-0.000179
C12	C	0.616411	0.117095	-0.000160
C13	C	0.571915	0.193000	-0.000175
C14	C	0.499465	0.191717	-0.000183
C15	C	0.471514	0.114526	-0.000191
C16	C	0.516020	0.038611	-0.000172
C17	C	0.588469	0.039896	-0.000156
C18	C	0.363098	0.053847	-0.042639
C19	C	0.290650	0.052565	-0.042659
C20	C	0.248058	0.110560	-0.000234
C21	C	0.277920	0.169850	0.042200
C22	C	0.350369	0.171135	0.042216
C23	C	0.392956	0.113124	-0.000207
C24	C	0.125002	0.185079	-0.000257
C25	C	0.052550	0.183793	-0.000260
C26	C	0.069107	0.030684	-0.000257
C27	C	0.141557	0.031972	-0.000246
C28	C	0.169500	0.109172	-0.000249
C29	C	0.825572	-0.041740	-0.000205
C30	C	0.824197	-0.134981	-0.000204
C31	C	0.754815	-0.349571	-0.000197
C32	C	0.787025	-0.410715	0.059504
C33	C	0.821710	-0.305697	-0.000209
C34	C	0.787058	-0.410692	-0.059890
C35	C	0.819303	-0.470601	-0.000217
C36	C	0.853939	-0.365614	0.059542
C37	C	0.853963	-0.365585	-0.059906
C38	C	0.886222	-0.426712	-0.000190
C39	C	0.823095	-0.210700	-0.000204
C40	C	0.817924	-0.565597	-0.000217
C41	C	0.947497	0.105235	-0.000243
C42	C	1.024605	0.106600	-0.000267
C43	C	0.815444	0.265436	-0.000217
C44	C	0.816819	0.358677	-0.000223
N45	N	0.820485	0.111838	0.188458
N46	N	0.820537	0.111852	-0.188878
C47	C	0.867718	0.054583	0.226549
C48	C	0.867722	0.054580	0.302777
C49	C	0.820500	0.111844	0.340910
C50	C	0.773258	0.169103	0.302810
C51	C	0.773251	0.169100	0.226583
C52	C	0.811404	0.188378	0.461669
C53	C	0.811416	0.188383	0.537894
C54	C	0.820520	0.111855	0.576018
C55	C	0.829626	0.035320	0.537908
C56	C	0.829618	0.035316	0.461681
C57	C	0.820503	0.111854	0.423565
C58	C	0.867760	0.054592	0.696765
C59	C	0.867760	0.054587	0.772994
C60	C	0.773299	0.169118	0.773025
C61	C	0.773296	0.169115	0.696797
C62	C	0.820531	0.111853	0.658671
H63	H	0.397772	0.006619	-0.077190
H64	H	0.493258	-0.024239	-0.000188
H65	H	0.941797	-0.460084	-0.000170
H66	H	0.266342	0.004290	-0.077214
C67	C	0.679804	-0.304277	-0.000097
N68	N	0.623308	-0.270160	-0.000017
C69	C	0.721386	0.232161	0.654894
N70	N	0.682300	0.279669	0.623334
H71	H	0.882201	-0.345735	0.110070
C72	C	0.383216	0.236346	0.088900
N73	N	0.407957	0.285460	0.124068
C74	C	0.801388	0.272570	0.419740
N75	N	0.793845	0.335981	0.388160
H76	H	0.906186	0.007955	0.333797
C77	C	0.748790	-0.437741	0.127707
N78	N	0.719987	-0.458095	0.179075
C79	C	0.892164	-0.338529	-0.128116
N80	N	0.920932	-0.318148	-0.179497
C81	C	0.919712	-0.008404	0.654824
N82	N	0.958841	-0.055855	0.623236
C83	C	0.637417	-0.043609	-0.000145
N84	N	0.674286	-0.106506	-0.000139
C85	C	0.721311	0.232091	0.344758
N86	N	0.682180	0.279532	0.376353
C87	C	0.748830	-0.437677	-0.128075
N88	N	0.720032	-0.457997	-0.179429
H89	H	0.906177	0.007955	0.195510
H90	H	0.837031	-0.027002	0.430655
H91	H	0.837039	-0.026997	0.568947
C92	C	0.721318	0.232123	0.184681
N93	N	0.682214	0.279607	0.153119
H94	H	0.594661	0.255862	-0.000179
C95	C	0.721355	0.232111	0.814967
N96	N	0.682228	0.279559	0.846561
H97	H	0.906221	0.007959	0.804009
H98	H	0.046351	-0.032167	-0.000308
H99	H	0.463229	0.253530	-0.000193
C100	C	0.231074	0.233647	0.088874
N101	N	0.195786	0.281698	0.124026
C102	C	0.155741	0.269999	-0.000251
N103	N	0.178892	0.333962	-0.000246
C104	C	0.801393	0.272572	0.579808
N105	N	0.793839	0.335986	0.611376
H106	H	0.177787	-0.029838	-0.000238
C107	C	0.003603	0.267299	-0.000266
N108	N	-0.033264	0.330197	-0.000268
