data_functionalizedCrystal
_audit_creation_method	'MofGen! by Chris Wilmer'
_symmetry_space_group_name_H-M	'P1'
_symmetry_Int_Tables_number	1
_symmetry_cell_setting	triclinic
loop_
_symmetry_equiv_pos_as_xyz
  x,y,z
_cell_length_a	15.944551
_cell_length_b	10.723024
_cell_length_c	9.798715
_cell_angle_alpha	90.003391
_cell_angle_beta	90.004100
_cell_angle_gamma	83.983304
loop_
_atom_site_label
_atom_site_type_symbol
_atom_site_fract_x
_atom_site_fract_y
_atom_site_fract_z
O1	O	0.117808	1.655699	0.113485
O2	O	0.617808	2.155699	0.613485
O3	O	0.129085	1.292404	0.113490
O4	O	0.629085	1.792404	0.613490
O5	O	0.001228	1.483972	0.113475
O6	O	0.501228	1.983972	0.613475
O7	O	0.245664	1.464131	0.113500
O8	O	0.745664	1.964131	0.613500
O9	O	0.001228	1.483958	-0.113507
O10	O	0.501228	1.983958	0.386493
O11	O	0.129084	1.292390	-0.113492
O12	O	0.629084	1.792390	0.386508
O13	O	0.117808	1.655685	-0.113497
O14	O	0.617808	2.155685	0.386503
Zn15	Zn	0.123446	1.474035	-0.149533
Zn16	Zn	0.623446	1.974035	0.350467
Zn17	Zn	0.123446	1.474054	0.149526
Zn18	Zn	0.623446	1.974054	0.649526
O19	O	0.245664	1.464116	-0.113482
O20	O	0.745664	1.964116	0.386518
C21	C	0.128264	1.245908	-0.000000
C22	C	0.628264	1.745908	0.500000
C23	C	0.125809	1.107384	0.000001
C24	C	0.625809	1.607384	0.500001
C25	C	0.049542	0.916591	-0.000004
C26	C	0.549542	1.416591	0.499996
C27	C	0.052078	1.059762	-0.000005
C28	C	0.552078	1.559762	0.499995
C29	C	-0.030070	1.483141	-0.000016
C30	C	0.469930	1.983141	0.499984
C31	C	-0.123331	1.480672	-0.000017
C32	C	0.376669	1.980672	0.499983
C33	C	-0.338901	1.356026	0.000004
C34	C	0.161099	1.856026	0.500004
C35	C	-0.399587	1.413901	-0.111913
C36	C	0.100413	1.913901	0.388087
C37	C	-0.294082	1.476205	-0.000006
C38	C	0.205918	1.976205	0.499994
C39	C	-0.399570	1.413943	0.111874
C40	C	0.100430	1.913943	0.611874
C41	C	-0.459020	1.471880	0.000010
C42	C	0.040980	1.971880	0.500010
C43	C	-0.353540	1.534112	-0.112015
C44	C	0.146460	2.034112	0.387985
C45	C	-0.353517	1.534137	0.111872
C46	C	0.146483	2.034137	0.611872
C47	C	-0.414184	1.592099	-0.000072
C48	C	0.085816	2.092099	0.499928
C49	C	-0.199066	1.478692	-0.000016
C50	C	0.300934	1.978692	0.499984
C51	C	-0.554035	1.469402	0.000011
C52	C	-0.054035	1.969402	0.500011
C53	C	0.276963	1.464947	0.000012
C54	C	0.776963	1.964947	0.500012
C55	C	0.370223	1.467417	0.000022
C56	C	0.870223	1.967417	0.500022
C57	C	0.118629	1.702181	-0.000003
C58	C	0.618629	2.202181	0.499997
C59	C	0.121084	1.840704	0.000004
C60	C	0.621084	2.340704	0.500004
N61	N	0.123445	1.474031	-0.353632
N62	N	0.623445	1.974031	0.146368
C63	C	0.069525	1.554469	-0.421415
C64	C	0.569525	2.054469	0.078585
C65	C	0.069522	1.554489	-0.578578
C66	C	0.569522	2.054489	-0.078578
N67	N	0.123441	1.474067	0.353626
N68	N	0.623441	1.974067	0.853626
H69	H	0.184211	0.881729	0.000002
H70	H	0.684211	1.381729	0.500002
O71	O	0.008371	1.645723	-0.655770
O72	O	0.508371	2.145723	-0.155770
H73	H	-0.032636	1.592969	-0.720880
H74	H	0.467364	2.092969	-0.220880
H75	H	0.169603	1.405176	-0.411951
H76	H	0.669603	1.905176	0.088049
O77	O	0.184582	1.382825	-0.569171
O78	O	0.684582	1.882825	-0.069171
H79	H	0.225579	1.435576	-0.504039
H80	H	0.725579	1.935576	-0.004039
H81	H	-0.013585	0.875566	-0.000031
H82	H	0.486415	1.375566	0.499969
O83	O	-0.326677	1.601378	-0.237483
O84	O	0.173323	2.101378	0.262517
H85	H	-0.357607	1.699055	-0.237764
H86	H	0.142393	2.199055	0.262236
O87	O	0.206942	1.021024	0.000011
O88	O	0.706942	1.521024	0.500011
H89	H	0.261337	1.077695	0.000024
H90	H	0.761337	1.577695	0.500024
O91	O	-0.029056	1.146120	-0.000025
O92	O	0.470944	1.646120	0.499975
H93	H	-0.014333	1.245020	-0.000038
H94	H	0.485667	1.745020	0.499962
O95	O	-0.326452	1.601420	0.237198
O96	O	0.173548	2.101420	0.737198
H97	H	-0.344684	1.551345	0.329968
H98	H	0.155316	2.051345	0.829968
O99	O	-0.295525	1.223901	-0.000132
O100	O	0.204475	1.723901	0.499868
H101	H	-0.313857	1.174307	-0.093177
H102	H	0.186143	1.674307	0.406823
H103	H	0.023361	1.623316	-0.363098
H104	H	0.523361	2.123316	0.136902
O105	O	-0.426610	1.346579	-0.237250
O106	O	0.073390	1.846579	0.262750
H107	H	-0.396182	1.248617	-0.237024
H108	H	0.103818	1.748617	0.262976
O109	O	-0.457364	1.724340	-0.000149
O110	O	0.042636	2.224340	0.499851
H111	H	-0.438927	1.773905	-0.093138
H112	H	0.061073	2.273905	0.406862
O113	O	-0.426565	1.346608	0.237208
O114	O	0.073435	1.846608	0.737208
H115	H	-0.396123	1.248654	0.236963
H116	H	0.103877	1.748654	0.736963
