data_functionalizedCrystal
_audit_creation_method	'MofGen! by Chris Wilmer'
_symmetry_space_group_name_H-M	'P1'
_symmetry_Int_Tables_number	1
_symmetry_cell_setting	triclinic
loop_
_symmetry_equiv_pos_as_xyz
  x,y,z
_cell_length_a	31.640172
_cell_length_b	31.640171
_cell_length_c	17.052862
_cell_angle_alpha	70.255565
_cell_angle_beta	90.004527
_cell_angle_gamma	59.979319
loop_
_atom_site_label
_atom_site_type_symbol
_atom_site_fract_x
_atom_site_fract_y
_atom_site_fract_z
Zr1	Zr	0.414398	0.447883	-0.091360
O2	O	0.355904	0.518034	-0.202429
O3	O	0.432356	0.365217	-0.057284
O4	O	0.444120	0.429826	-0.202369
O5	O	0.334830	0.472033	0.057071
O6	O	0.513676	0.429820	-0.202354
O7	O	0.344140	0.453425	-0.057343
O8	O	0.492632	0.314245	0.057178
O9	O	0.355874	0.587608	-0.202460
O10	O	0.491891	0.403850	-0.042773
O11	O	0.433034	0.417742	0.042602
O12	O	0.446885	0.493811	-0.128218
O13	O	0.388029	0.507703	-0.042843
Zr14	Zr	0.510483	0.477552	0.091142
Zr15	Zr	0.525331	0.447873	-0.091336
Zr16	Zr	0.399549	0.477562	0.091118
Zr17	Zr	0.414350	0.558845	-0.091410
Zr18	Zr	0.510531	0.366590	0.091193
O19	O	0.492525	0.560219	0.057066
O20	O	0.513637	0.518020	-0.202394
O21	O	0.334792	0.560233	0.057031
O22	O	0.568976	0.407401	0.202211
O23	O	0.590089	0.365202	-0.057249
O24	O	0.411243	0.407416	0.202176
O25	O	0.590050	0.453402	-0.057289
O26	O	0.480761	0.495609	0.202151
O27	O	0.411205	0.495615	0.202136
O28	O	0.580740	0.472011	0.057125
O29	O	0.444051	0.587600	-0.202441
O30	O	0.480829	0.337836	0.202223
O31	O	0.569006	0.337828	0.202242
O32	O	0.580809	0.314237	0.057197
O33	O	0.344071	0.611198	-0.057415
O34	O	0.432249	0.611190	-0.057396
O35	O	0.477995	0.431624	0.128000
O36	O	0.536852	0.417732	0.042625
O37	O	0.491846	0.507694	-0.042820
O38	O	0.432989	0.521586	0.042555
C39	C	0.462501	0.323921	-0.000046
C40	C	0.462521	0.276815	-0.000024
C41	C	0.495652	-0.087515	0.062944
C42	C	0.495694	0.089446	0.062991
O43	O	0.523953	0.088429	0.116605
N44	N	0.462491	0.139671	-0.000063
C45	C	0.429278	0.145655	-0.063136
O46	O	0.401042	0.192434	-0.116770
C47	C	0.429239	-0.031306	-0.063185
C48	C	0.462440	-0.081530	-0.000123
C49	C	0.528850	-0.137736	0.126000
C50	C	0.528838	-0.181973	0.125991
C51	C	0.495626	-0.175988	0.062924
C52	C	0.462428	-0.125767	-0.000133
C53	C	0.396029	-0.025323	-0.126261
C54	C	0.396023	-0.069569	-0.126269
C55	C	0.429224	-0.119792	-0.063207
C56	C	0.429204	-0.164019	-0.063209
N57	N	0.462406	-0.214244	-0.000155
C58	C	0.495617	-0.220228	0.062911
C59	C	0.429301	0.238560	-0.063104
C60	C	0.429310	0.282800	-0.063091
C61	C	0.495726	0.226588	0.063035
C62	C	0.495714	0.182348	0.063024
C63	C	0.462503	0.188335	-0.000051
C64	C	0.495588	-0.313127	0.062886
C65	C	0.495571	-0.357365	0.062873
C66	C	0.429157	-0.301150	-0.063255
C67	C	0.429172	-0.256915	-0.063239
C68	C	0.462391	-0.262907	-0.000165
O69	O	0.400963	-0.163043	-0.116800
O70	O	0.523857	-0.267013	0.116527
C71	C	0.495664	-0.043278	0.062953
C72	C	0.462466	0.006944	-0.000104
C73	C	0.429254	0.012928	-0.063170
C74	C	0.462475	0.051184	-0.000090
C75	C	0.495686	0.045199	0.062976
C76	C	0.528888	-0.005026	0.126029
C77	C	0.528876	-0.049262	0.126020
C78	C	0.396052	0.063153	-0.126223
C79	C	0.396067	0.107388	-0.126208
C80	C	0.429278	0.101403	-0.063141
C81	C	0.323679	0.462730	-0.000139
C82	C	0.276585	0.462734	-0.000150
C83	C	0.008067	0.415756	0.044510
C84	C	-0.168919	0.415748	0.044526
O85	O	-0.171828	0.375816	0.082489
N86	N	-0.214542	0.462707	-0.000076
C87	C	-0.215917	0.509671	-0.044681
O88	O	-0.258783	0.549613	-0.082611
C89	C	-0.038931	0.509679	-0.044693
C90	C	0.006691	0.462716	-0.000094
C91	C	0.053687	0.368797	0.089105
C92	C	0.097931	0.368799	0.089097
C93	C	0.096555	0.415759	0.044493
C94	C	0.050935	0.462718	-0.000103
C95	C	-0.040307	0.556643	-0.089292
C96	C	0.003944	0.556641	-0.089289
C97	C	0.049566	0.509679	-0.044691
C98	C	0.093803	0.509680	-0.044715
N99	N	0.139425	0.462722	-0.000113
C100	C	0.140801	0.415762	0.044491
C101	C	-0.308835	0.509663	-0.044674
C102	C	-0.353081	0.509661	-0.044672
C103	C	-0.306081	0.415739	0.044537
C104	C	-0.261833	0.415740	0.044530
C105	C	-0.263212	0.462705	-0.000071
C106	C	0.233715	0.415769	0.044469
C107	C	0.277961	0.415774	0.044454
C108	C	0.230957	0.509697	-0.044751
C109	C	0.186715	0.509691	-0.044740
C110	C	0.188097	0.462723	-0.000123
O111	O	0.096749	0.549593	-0.082650
O112	O	0.183671	0.375828	0.082430
C113	C	-0.036177	0.415754	0.044518
C114	C	-0.081797	0.462713	-0.000077
C115	C	-0.083173	0.509673	-0.044681
C116	C	-0.126043	0.462711	-0.000076
C117	C	-0.124667	0.415750	0.044528
C118	C	-0.079045	0.368792	0.089130
C119	C	-0.034801	0.368794	0.089122
C120	C	-0.128795	0.556631	-0.089284
C121	C	-0.173037	0.556626	-0.089272
C122	C	-0.171661	0.509665	-0.044669
C123	C	0.601201	0.462705	-0.000079
C124	C	0.648295	0.462701	-0.000068
C125	C	0.481013	0.425595	-0.228361
C126	C	0.487317	0.412995	-0.305827
C127	C	0.462380	0.601514	-0.000172
C128	C	0.462359	0.648620	-0.000193
C129	C	0.411107	0.565320	-0.702603
C130	C	0.405182	0.577160	-0.629820
C131	C	0.425715	0.536120	-0.548819
C132	C	0.452175	0.483238	-0.540606
C133	C	0.458098	0.471398	-0.613395
C134	C	0.472706	0.442197	-0.459612
C135	C	0.499165	0.389316	-0.451399
C136	C	0.505087	0.377477	-0.524182
C137	C	0.484554	0.418517	-0.605183
C138	C	0.466783	0.454038	-0.386823
C139	C	0.513773	0.360115	-0.297615
C140	C	0.519699	0.348276	-0.370398
C141	C	0.443867	0.499841	0.228143
C142	C	0.437564	0.512440	0.305609
C143	C	0.601261	0.323909	-0.000015
C144	C	0.648376	0.276798	0.000016
C145	C	0.443927	0.361044	0.228206
C146	C	0.437644	0.326538	0.305694
C147	C	0.582688	0.361032	0.228236
C148	C	0.623499	0.326521	0.305735
C149	C	0.342192	0.564403	-0.228454
C150	C	0.301381	0.598915	-0.305953
C151	C	0.323619	0.601526	-0.000202
C152	C	0.276504	0.648637	-0.000234
C153	C	0.480953	0.564391	-0.228424
C154	C	0.487236	0.598898	-0.305912
C155	C	0.647033	0.247427	-0.044553
C156	C	0.691300	0.203165	-0.044540
C157	C	0.736908	0.188273	0.000047
C158	C	0.738250	0.217649	0.044618
C159	C	0.693984	0.261912	0.044600
C160	C	0.458162	0.317581	0.386668
C161	C	0.452256	0.285165	0.459483
C162	C	0.425835	0.261704	0.451323
C163	C	0.405314	0.270664	0.370341
C164	C	0.411218	0.303082	0.297527
C165	C	0.673392	0.303062	0.297564
C166	C	0.711743	0.270641	0.370375
C167	C	0.700201	0.261675	0.451356
C168	C	0.650303	0.285137	0.459525
C169	C	0.611953	0.317561	0.386715
C170	C	0.251489	0.622378	-0.297782
C171	C	0.213137	0.654814	-0.370593
C172	C	0.224680	0.663782	-0.451574
C173	C	0.274577	0.640317	-0.459743
C174	C	0.312928	0.607885	-0.386933
C175	C	0.277848	0.678012	0.044328
C176	C	0.233583	0.722283	0.044295
C177	C	0.187975	0.737175	-0.000296
C178	C	0.186633	0.707798	-0.044863
C179	C	0.230898	0.663530	-0.044834
C180	C	0.513660	0.622349	-0.297724
C181	C	0.519573	0.654768	-0.370526
C182	C	0.499059	0.663737	-0.451514
C183	C	0.472634	0.640281	-0.459699
C184	C	0.466724	0.607860	-0.386899
H185	H	0.555898	-0.142618	0.177358
C186	C	0.788424	0.201258	0.093668
N187	N	0.826215	0.188908	0.130618
H188	H	-0.077447	0.594885	-0.125608
H189	H	0.503875	0.690137	-0.510785
H190	H	0.314980	0.665891	0.080644
H191	H	-0.224689	0.377501	0.080854
H192	H	0.690197	0.179252	-0.080835
C193	C	0.182488	0.699455	-0.531659
N194	N	0.150706	0.726322	-0.591977
C195	C	0.392783	0.338044	-0.132460
N196	N	0.365271	0.379653	-0.184714
H197	H	0.229797	0.639614	-0.081120
H198	H	0.368997	0.015564	-0.177619
H199	H	0.530367	0.615053	-0.231787
C200	C	0.565375	-0.237219	0.195346
N201	N	0.592902	-0.278830	0.247581
H202	H	0.054816	0.330555	0.125431
C203	C	0.238780	0.612524	-0.208709
N204	N	0.229203	0.605108	-0.141622
C205	C	0.695469	0.294213	0.093642
N206	N	0.696591	0.318539	0.130585
H207	H	0.172512	0.673915	-0.363925
H208	H	0.383802	0.251557	0.363709
H209	H	0.541090	0.673863	-0.363844
C210	C	0.450092	0.650131	-0.548794
N211	N	0.433120	0.657545	-0.615903
H212	H	0.479676	0.336680	0.393328
H213	H	-0.309965	0.547909	-0.080999
H214	H	0.283970	0.647623	-0.525686
H215	H	0.752369	0.251539	0.363708
H216	H	0.731433	0.235271	0.510636
H217	H	0.555911	-0.090154	0.177372
H218	H	0.002343	0.330552	0.125440
C219	C	0.235070	0.754587	0.093332
N220	N	0.236191	0.778916	0.130269
H221	H	0.571329	0.336657	0.393379
C222	C	0.367810	0.582070	-0.395935
N223	N	0.409147	0.562627	-0.402722
H224	H	0.421032	0.235308	0.510619
H225	H	0.522607	-0.398259	0.114230
H226	H	0.682800	0.310356	0.231632
C227	C	-0.403261	0.561322	-0.093743
N228	N	-0.441057	0.600236	-0.130701
H229	H	0.151936	0.773222	-0.000312
H230	H	0.402115	-0.296285	-0.114599
H231	H	0.149493	0.719931	-0.081167
H232	H	0.445205	0.588769	-0.393577
C233	C	0.359541	0.162633	-0.195588
N234	N	0.332034	0.204241	-0.247848
H235	H	0.394511	0.310369	0.231598
H236	H	0.772948	0.152230	0.000056
C237	C	0.474838	0.275310	0.548555
N238	N	0.491849	0.267887	0.615642
C239	C	0.002422	0.608307	-0.138359
N240	N	0.001275	0.647221	-0.175322
H241	H	0.394389	0.598729	-0.768556
C242	C	0.532128	-0.319726	0.132275
N243	N	0.559648	-0.324696	0.184543
H244	H	0.315108	0.377530	0.080774
H245	H	0.522749	0.141456	0.114375
H246	H	0.402254	0.243443	-0.114470
C247	C	0.532261	0.220012	0.132404
N248	N	0.559781	0.215062	0.184646
H249	H	0.368980	-0.064688	-0.177636
C250	C	0.136529	0.561351	-0.093803
N251	N	0.098731	0.600264	-0.130751
H252	H	0.555928	-0.009891	0.177383
C253	C	0.392646	-0.201666	-0.132606
N254	N	0.365138	-0.160056	-0.184860
H255	H	-0.077931	0.330554	0.125443
C256	C	0.637614	0.275264	0.548612
N257	N	0.628058	0.267824	0.615715
H258	H	0.369007	0.068034	-0.177582
H259	H	0.234848	0.377523	0.080801
H260	H	-0.304966	0.377501	0.080850
C261	C	-0.223220	0.608292	-0.138339
N262	N	-0.261016	0.647206	-0.175289
C263	C	-0.130318	0.608293	-0.138364
N264	N	-0.131467	0.647207	-0.175340
C265	C	0.148111	0.317137	0.138167
N266	N	0.185905	0.278224	0.175132
H267	H	0.229846	0.547930	-0.081069
H268	H	0.420889	0.545762	-0.489559
C269	C	0.376081	0.635328	-0.638860
N270	N	0.354162	0.679143	-0.645670
H271	H	0.489378	0.408881	-0.664452
C272	C	0.534187	0.319306	-0.515144
N273	N	0.556104	0.275491	-0.508334
C274	C	0.596869	0.263801	-0.093612
N275	N	0.559087	0.276133	-0.130571
C276	C	0.548799	0.290107	-0.361375
N277	N	0.570717	0.246295	-0.354581
H278	H	0.530491	0.326697	-0.231661
H279	H	0.445238	0.497094	-0.393519
