data_functionalizedCrystal
_audit_creation_method	'MofGen! by Chris Wilmer'
_symmetry_space_group_name_H-M	'P1'
_symmetry_Int_Tables_number	1
_symmetry_cell_setting	triclinic
loop_
_symmetry_equiv_pos_as_xyz
  x,y,z
_cell_length_a	14.908571
_cell_length_b	21.295417
_cell_length_c	14.908308
_cell_angle_alpha	93.260635
_cell_angle_beta	90.175053
_cell_angle_gamma	86.726349
loop_
_atom_site_label
_atom_site_type_symbol
_atom_site_fract_x
_atom_site_fract_y
_atom_site_fract_z
Zn1	Zn	1.345216	-0.328502	-0.587528
Zn2	Zn	1.845216	0.171498	-0.087528
Zn3	Zn	1.353772	-0.428068	-0.437153
Zn4	Zn	1.853772	0.071932	0.062847
Zn5	Zn	1.203534	-0.316411	-0.428528
Zn6	Zn	1.703534	0.183589	0.071472
Zn7	Zn	1.194800	-0.427320	-0.578804
Zn8	Zn	1.694800	0.072680	-0.078804
O9	O	1.274330	-0.375075	-0.508003
O10	O	1.774330	0.124925	-0.008003
O11	O	1.472175	-0.347082	-0.574841
O12	O	1.972175	0.152918	-0.074841
O13	O	1.341079	-0.408509	-0.310185
O14	O	1.841079	0.091491	0.189815
O15	O	1.222403	-0.229930	-0.449662
O16	O	1.722403	0.270070	0.050338
O17	O	1.478462	-0.420233	-0.464361
O18	O	1.978462	0.079767	0.035639
O19	O	1.326496	-0.238813	-0.566479
O20	O	1.826496	0.261187	-0.066479
O21	O	1.230699	-0.326476	-0.303848
O22	O	1.730699	0.173524	0.196152
O23	O	1.076551	-0.325750	-0.441202
O24	O	1.576551	0.174250	0.058798
O25	O	1.207517	-0.418959	-0.705785
O26	O	1.707517	0.081041	-0.205785
O27	O	1.070134	-0.407235	-0.551609
O28	O	1.570134	0.092765	-0.051609
O29	O	1.318027	-0.346357	-0.712195
O30	O	1.818027	0.153643	-0.212195
O31	O	1.332609	-0.516054	-0.455901
O32	O	1.832609	-0.016054	0.044099
O33	O	1.215813	-0.515504	-0.559972
O34	O	1.715813	-0.015504	-0.059972
C35	C	1.040717	-0.365100	-0.494524
C36	C	1.540717	0.134900	0.005476
C37	C	0.940775	-0.360848	-0.488779
C38	C	1.440775	0.139152	0.011221
C39	C	0.746349	-0.437828	-0.592795
C40	C	1.246349	0.062172	-0.092795
C41	C	0.652444	-0.433836	-0.587400
C42	C	1.152444	0.066164	-0.087400
C43	C	0.659060	-0.348868	-0.472599
C44	C	1.159060	0.151132	0.027401
C45	C	0.752964	-0.352861	-0.477994
C46	C	1.252964	0.147139	0.022006
C47	C	0.796605	-0.397343	-0.538093
C48	C	1.296605	0.102657	-0.038093
C49	C	0.890512	-0.401338	-0.543483
C50	C	1.390512	0.098662	-0.043483
C51	C	0.897125	-0.316368	-0.428687
C52	C	1.397125	0.183632	0.071313
C53	C	0.803221	-0.312375	-0.423292
C54	C	1.303221	0.187625	0.076708
C55	C	1.274215	-0.538620	-0.507947
C56	C	1.774215	-0.038620	-0.007947
C57	C	1.274247	-0.608590	-0.507957
C58	C	1.774247	-0.108590	-0.007957
C59	C	1.335110	-0.641726	-0.453830
C60	C	1.835110	-0.141726	0.046170
C61	C	1.335151	-0.707471	-0.453852
C62	C	1.835151	-0.207471	0.046148
C63	C	1.274313	-0.740076	-0.507992
C64	C	1.774313	-0.240076	-0.007992
C65	C	1.213445	-0.706932	-0.562131
C66	C	1.713445	-0.206932	-0.062131
C67	C	1.213412	-0.641189	-0.562114
C68	C	1.713412	-0.141189	-0.062114
N69	N	1.195260	-0.840247	-0.510308
N70	N	1.695260	-0.340247	-0.010308
N71	N	1.195295	-0.902701	-0.510320
N72	N	1.695295	-0.402701	-0.010320
C73	C	1.274411	-0.938157	-0.508050
C74	C	1.774411	-0.438157	-0.008050
N75	N	1.353494	-0.908801	-0.505750
N76	N	1.853494	-0.408801	-0.005750
N77	N	1.353459	-0.846341	-0.505734
N78	N	1.853459	-0.346341	-0.005734
C79	C	1.274343	-0.811364	-0.508018
C80	C	1.774343	-0.311364	-0.008018
C81	C	1.335324	-1.042582	-0.453944
C82	C	1.835324	-0.542582	0.046056
C83	C	1.335366	-1.108328	-0.453973
C84	C	1.835366	-0.608328	0.046027
C85	C	1.213652	-1.107788	-0.562246
C86	C	1.713652	-0.607788	-0.062246
C87	C	1.213618	-1.042043	-0.562223
C88	C	1.713618	-0.542043	-0.062223
C89	C	1.274453	-1.009444	-0.508066
C90	C	1.774453	-0.509444	-0.008066
C91	C	1.508856	-0.385090	-0.521536
C92	C	2.008856	0.114910	-0.021536
C93	C	1.608796	-0.389358	-0.527303
C94	C	2.108796	0.110642	-0.027303
C95	C	1.260843	-0.383923	-0.742527
C96	C	1.760843	0.116077	-0.242527
C97	C	1.255096	-0.387694	-0.842467
C98	C	1.755096	0.112306	-0.342467
C99	C	1.274469	-0.210894	-0.508081
C100	C	1.774469	0.289106	-0.008081
C101	C	1.274528	-0.140929	-0.508114
C102	C	1.774528	0.359071	-0.008114
C103	C	1.359367	-0.319164	-1.036941
C104	C	1.859367	0.180836	-0.536941
C105	C	1.353969	-0.322705	-1.130844
C106	C	1.853969	0.177295	-0.630844
C107	C	1.238899	-0.398312	-1.124177
C108	C	1.738899	0.101688	-0.624177
C109	C	1.244297	-0.394771	-1.030274
C110	C	1.744297	0.105229	-0.530274
C111	C	1.304533	-0.355197	-0.986660
C112	C	1.804533	0.144803	-0.486660
C113	C	1.309935	-0.351660	-0.892756
C114	C	1.809935	0.148340	-0.392756
C115	C	1.194861	-0.427263	-0.886090
C116	C	1.694861	0.072737	-0.386090
C117	C	1.189463	-0.430804	-0.979993
C118	C	1.689463	0.069196	-0.479993
C119	C	1.287817	-0.366218	-0.274395
C120	C	1.787817	0.133782	0.225605
C121	C	1.293739	-0.362278	-0.174465
C122	C	1.793739	0.137722	0.325535
H123	H	0.767675	-0.276158	-0.374363
H124	H	1.267675	0.223842	0.125637
F125	F	1.423483	-0.277053	-0.990522
F126	F	1.923483	0.222947	-0.490522
H127	H	0.781883	-0.474051	-0.641725
H128	H	1.281883	0.025949	-0.141725
H129	H	1.164120	-1.134335	-0.606333
H130	H	1.664120	-0.634335	-0.106333
H131	H	1.384934	-1.135307	-0.409897
H132	H	1.884934	-0.635307	0.090103
F133	F	1.412329	-0.284353	-1.184354
F134	F	1.912329	0.215647	-0.684354
F135	F	0.598961	-0.476924	-0.645623
F136	F	1.098961	0.023076	-0.145623
H137	H	1.164053	-1.015062	-0.606295
H138	H	1.664053	-0.515062	-0.106295
H139	H	0.623510	-0.312649	-0.423674
H140	H	1.123510	0.187351	0.076326
H141	H	0.938054	-0.283403	-0.384142
H142	H	1.438054	0.216597	0.115858
F143	F	1.148700	-0.741634	-0.619754
F144	F	1.648700	-0.241634	-0.119754
F145	F	1.399866	-0.607036	-0.396202
F146	F	1.899866	-0.107036	0.103798
F147	F	1.174791	-0.440422	-1.170610
F148	F	1.674791	0.059578	-0.670610
F149	F	1.399932	-0.742744	-0.396239
F150	F	1.899932	-0.242744	0.103761
F151	F	1.148630	-0.605922	-0.619727
F152	F	1.648630	-0.105922	-0.119727
F153	F	1.400068	-1.007885	-0.396306
F154	F	1.900068	-0.507885	0.103694
H155	H	1.150214	-0.456605	-0.845141
H156	H	1.650214	0.043395	-0.345141
H157	H	1.358984	-0.319437	-0.857246
H158	H	1.858984	0.180563	-0.357246
H159	H	0.926043	-0.437559	-0.592417
H160	H	1.426043	0.062441	-0.092417
F161	F	1.125357	-0.472918	-1.026420
F162	F	1.625357	0.027082	-0.526420
