data_functionalizedCrystal
_audit_creation_method	'MofGen! by Chris Wilmer'
_symmetry_space_group_name_H-M	'P1'
_symmetry_Int_Tables_number	1
_symmetry_cell_setting	triclinic
loop_
_symmetry_equiv_pos_as_xyz
  x,y,z
_cell_length_a	13.897449
_cell_length_b	21.295417
_cell_length_c	13.897441
_cell_angle_alpha	90.036423
_cell_angle_beta	90.020733
_cell_angle_gamma	90.031786
loop_
_atom_site_label
_atom_site_type_symbol
_atom_site_fract_x
_atom_site_fract_y
_atom_site_fract_z
Zn1	Zn	1.474617	-0.250568	0.545342
Zn2	Zn	1.724617	-0.000568	0.795342
Zn3	Zn	1.974617	0.249432	1.045342
Zn4	Zn	2.224617	0.499432	1.295342
Zn5	Zn	1.474475	-0.355847	0.384027
Zn6	Zn	1.724475	-0.105847	0.634027
Zn7	Zn	1.974475	0.144153	0.884027
Zn8	Zn	2.224475	0.394153	1.134027
Zn9	Zn	1.313306	-0.250598	0.384060
Zn10	Zn	1.563306	-0.000598	0.634060
Zn11	Zn	1.813306	0.249402	0.884060
Zn12	Zn	2.063306	0.499402	1.134060
Zn13	Zn	1.313252	-0.355805	0.545280
Zn14	Zn	1.563252	-0.105805	0.795280
Zn15	Zn	1.813252	0.144195	1.045280
Zn16	Zn	2.063252	0.394195	1.295280
O17	O	1.393912	-0.303204	0.464677
O18	O	1.643912	-0.053204	0.714677
O19	O	1.893912	0.196796	0.964677
O20	O	2.143912	0.446796	1.214677
O21	O	1.609579	-0.264538	0.523955
O22	O	1.859579	-0.014538	0.773955
O23	O	2.109579	0.235462	1.023955
O24	O	2.359579	0.485462	1.273955
O25	O	1.453059	-0.341915	0.249050
O26	O	1.703059	-0.091915	0.499050
O27	O	1.953059	0.158085	0.749050
O28	O	2.203059	0.408085	0.999050
O29	O	1.334786	-0.162504	0.405495
O30	O	1.584786	0.087496	0.655495
O31	O	1.834786	0.337496	0.905495
O32	O	2.084786	0.587496	1.155495
O33	O	1.609475	-0.341886	0.405438
O34	O	1.859475	-0.091886	0.655438
O35	O	2.109475	0.158114	0.905438
O36	O	2.359475	0.408114	1.155438
O37	O	1.453301	-0.162482	0.523988
O38	O	1.703301	0.087518	0.773988
O39	O	1.953301	0.337518	1.023988
O40	O	2.203301	0.587518	1.273988
O41	O	1.334649	-0.264589	0.249074
O42	O	1.584649	-0.014589	0.499074
O43	O	1.834649	0.235411	0.749074
O44	O	2.084649	0.485411	0.999074
O45	O	1.178317	-0.264549	0.405434
O46	O	1.428317	-0.014549	0.655434
O47	O	1.678317	0.235451	0.905434
O48	O	1.928317	0.485451	1.155434
O49	O	1.334694	-0.341815	0.680270
O50	O	1.584694	-0.091815	0.930270
O51	O	1.834694	0.158185	1.180270
O52	O	2.084694	0.408185	1.430270
O53	O	1.178277	-0.341844	0.523881
O54	O	1.428277	-0.091844	0.773881
O55	O	1.678277	0.158156	1.023881
O56	O	1.928277	0.408156	1.273881
O57	O	1.453248	-0.264498	0.680316
O58	O	1.703248	-0.014498	0.930316
O59	O	1.953248	0.235502	1.180316
O60	O	2.203248	0.485502	1.430316
O61	O	1.453006	-0.443931	0.405378
O62	O	1.703006	-0.193931	0.655378
O63	O	1.953006	0.056069	0.905378
O64	O	2.203006	0.306069	1.155378
O65	O	1.334556	-0.443900	0.523849
O66	O	1.584556	-0.193900	0.773849
O67	O	1.834556	0.056100	1.023849
O68	O	2.084556	0.306100	1.273849
C69	C	1.143298	-0.303196	0.464655
C70	C	1.393298	-0.053196	0.714655
C71	C	1.643298	0.196804	0.964655
C72	C	1.893298	0.446804	1.214655
C73	C	1.036084	-0.303207	0.464669
C74	C	1.286084	-0.053207	0.714669
C75	C	1.536084	0.196793	0.964669
C76	C	1.786084	0.446793	1.214669
C77	C	0.839789	-0.303210	0.464694
C78	C	1.089789	-0.053210	0.714694
C79	C	1.339789	0.196790	0.964694
C80	C	1.589789	0.446790	1.214694
C81	C	0.949021	-0.303207	0.464677
C82	C	1.199021	-0.053207	0.714677
C83	C	1.449021	0.196793	0.964677
C84	C	1.699021	0.446793	1.214677
C85	C	1.393786	-0.466756	0.464624
C86	C	1.643786	-0.216756	0.714624
C87	C	1.893786	0.033244	0.964624
C88	C	2.143786	0.283244	1.214624
C89	C	1.393820	-0.536724	0.464633
C90	C	1.643820	-0.286724	0.714633
C91	C	1.893820	-0.036724	0.964633
C92	C	2.143820	0.213276	1.214633
C93	C	1.455552	-0.569586	0.403008
C94	C	1.705552	-0.319586	0.653008
C95	C	1.955552	-0.069586	0.903008
C96	C	2.205552	0.180414	1.153008
C97	C	1.455597	-0.635328	0.403030
C98	C	1.705597	-0.385328	0.653030
C99	C	1.955597	-0.135328	0.903030
C100	C	2.205597	0.114672	1.153030
C101	C	1.393893	-0.668207	0.464667
C102	C	1.643893	-0.418207	0.714667
C103	C	1.893893	-0.168207	0.964667
C104	C	2.143893	0.081793	1.214667
C105	C	1.332157	-0.635337	0.526304
C106	C	1.582157	-0.385337	0.776304
C107	C	1.832157	-0.135337	1.026304
C108	C	2.082157	0.114663	1.276304
C109	C	1.332120	-0.569596	0.526287
C110	C	1.582120	-0.319596	0.776287
C111	C	1.832120	-0.069596	1.026287
C112	C	2.082120	0.180404	1.276287
N113	N	1.309512	-0.771473	0.472013
N114	N	1.559512	-0.521473	0.722013
N115	N	1.809512	-0.271473	0.972013
N116	N	2.059512	-0.021473	1.222013
N117	N	1.309550	-0.833925	0.472023
N118	N	1.559550	-0.583925	0.722023
N119	N	1.809550	-0.333925	0.972023
N120	N	2.059550	-0.083925	1.222023
C121	C	1.394001	-0.866281	0.464722
C122	C	1.644001	-0.616281	0.714722
C123	C	1.894001	-0.366281	0.964722
C124	C	2.144001	-0.116281	1.214722
N125	N	1.478416	-0.833827	0.457392
N126	N	1.728416	-0.583827	0.707392
N127	N	1.978416	-0.333827	0.957392
N128	N	2.228416	-0.083827	1.207392
N129	N	1.478377	-0.771370	0.457376
N130	N	1.728377	-0.521370	0.707376
N131	N	1.978377	-0.271370	0.957376
N132	N	2.228377	-0.021370	1.207376
C133	C	1.393926	-0.739492	0.464692
C134	C	1.643926	-0.489492	0.714692
C135	C	1.893926	-0.239492	0.964692
C136	C	2.143926	0.010508	1.214692
C137	C	1.455787	-0.970428	0.403117
C138	C	1.705787	-0.720428	0.653117
C139	C	1.955787	-0.470428	0.903117
C140	C	2.205787	-0.220428	1.153117
C141	C	1.455834	-1.036172	0.403146
C142	C	1.705834	-0.786172	0.653146
C143	C	1.955834	-0.536172	0.903146
C144	C	2.205834	-0.286172	1.153146
C145	C	1.332386	-1.036180	0.526414
C146	C	1.582386	-0.786180	0.776414
C147	C	1.832386	-0.536180	1.026414
C148	C	2.082386	-0.286180	1.276414
C149	C	1.332347	-0.970437	0.526391
C150	C	1.582347	-0.720437	0.776391
C151	C	1.832347	-0.470437	1.026391
C152	C	2.082347	-0.220437	1.276391
C153	C	1.394047	-0.937565	0.464737
C154	C	1.644047	-0.687565	0.714737
C155	C	1.894047	-0.437565	0.964737
C156	C	2.144047	-0.187565	1.214737
C157	C	1.645505	-0.303213	0.464700
C158	C	1.895505	-0.053213	0.714700
C159	C	2.145505	0.196787	0.964700
C160	C	2.395505	0.446787	1.214700
C161	C	1.752719	-0.303217	0.464710
C162	C	2.002719	-0.053217	0.714710
C163	C	2.252719	0.196783	0.964710
C164	C	2.502719	0.446783	1.214710
C165	C	1.393981	-0.303149	0.716270
C166	C	1.643981	-0.053149	0.966270
C167	C	1.893981	0.196851	1.216270
C168	C	2.143981	0.446851	1.466270
C169	C	1.394010	-0.303125	0.823484
C170	C	1.644010	-0.053125	1.073484
C171	C	1.894010	0.196875	1.323484
C172	C	2.144010	0.446875	1.573484
C173	C	1.394065	-0.139014	0.464752
C174	C	1.644065	0.110986	0.714752
C175	C	1.894065	0.360986	0.964752
C176	C	2.144065	0.610986	1.214752
C177	C	1.394131	-0.069046	0.464784
C178	C	1.644131	0.180954	0.714784
C179	C	1.894131	0.430954	0.964784
C180	C	2.144131	0.680954	1.214784
C181	C	1.393900	-0.303214	0.214063
C182	C	1.643900	-0.053214	0.464063
C183	C	1.893900	0.196786	0.714063
C184	C	2.143900	0.446786	0.964063
C185	C	1.394057	-0.303061	0.106850
C186	C	1.644057	-0.053061	0.356850
C187	C	1.894057	0.196939	0.606850
C188	C	2.144057	0.446939	0.856850
C189	C	1.394036	-0.303082	1.019780
C190	C	1.644036	-0.053082	1.269780
C191	C	1.894036	0.196918	1.519780
C192	C	2.144036	0.446918	1.769780
C193	C	1.394018	-0.303108	0.910547
C194	C	1.644018	-0.053108	1.160547
C195	C	1.894018	0.196892	1.410547
C196	C	2.144018	0.446892	1.660547
H197	H	1.505793	-0.542823	0.352809
H198	H	1.755793	-0.292823	0.602809
H199	H	2.005793	-0.042823	0.852809
H200	H	2.255793	0.207177	1.102809
F201	F	1.521451	-0.935441	0.337501
F202	F	1.771451	-0.685441	0.587501
F203	F	2.021451	-0.435441	0.837501
F204	F	2.271451	-0.185441	1.087501
H205	H	1.282075	-0.943680	0.576567
H206	H	1.532075	-0.693680	0.826567
H207	H	1.782075	-0.443680	1.076567
H208	H	2.032075	-0.193680	1.326567
F209	F	1.521302	-0.670309	0.337437
F210	F	1.771302	-0.420309	0.587437
F211	F	2.021302	-0.170309	0.837437
F212	F	2.271302	0.079691	1.087437
F213	F	1.266414	-0.534621	0.591880
F214	F	1.516414	-0.284621	0.841880
F215	F	1.766414	-0.034621	1.091880
F216	F	2.016414	0.215379	1.341880
H217	H	1.281919	-0.662111	0.576490
H218	H	1.531919	-0.412111	0.826490
H219	H	1.781919	-0.162111	1.076490
H220	H	2.031919	0.087889	1.326490
H221	H	1.506109	-1.062927	0.352965
H222	H	1.756109	-0.812927	0.602965
H223	H	2.006109	-0.562927	0.852965
H224	H	2.256109	-0.312927	1.102965
H225	H	1.282149	-1.062949	0.576604
H226	H	1.532149	-0.812949	0.826604
H227	H	1.782149	-0.562949	1.076604
H228	H	2.032149	-0.312949	1.326604
