data_functionalizedCrystal
_audit_creation_method	'MofGen! by Chris Wilmer'
_symmetry_space_group_name_H-M	'P1'
_symmetry_Int_Tables_number	1
_symmetry_cell_setting	triclinic
loop_
_symmetry_equiv_pos_as_xyz
  x,y,z
_cell_length_a	8.597340
_cell_length_b	11.792241
_cell_length_c	7.088929
_cell_angle_alpha	83.733449
_cell_angle_beta	103.954719
_cell_angle_gamma	84.766049
loop_
_atom_site_label
_atom_site_type_symbol
_atom_site_fract_x
_atom_site_fract_y
_atom_site_fract_z
O1	O	2.102716	0.155872	0.187392
O2	O	1.638193	0.174400	0.110867
O3	O	1.881728	-0.000096	0.151001
O4	O	1.859180	0.330368	0.147259
O5	O	1.914274	-0.023469	0.474339
O6	O	1.670739	0.151027	0.434206
O7	O	2.135261	0.132500	0.510731
Cu8	Cu	1.905972	0.139629	0.501992
Cu9	Cu	1.867483	0.167270	0.119607
O10	O	1.891726	0.306996	0.470598
C11	C	1.594997	0.162026	0.262740
C12	C	1.417798	0.159963	0.233549
C13	C	1.896585	-0.054066	0.312436
C14	C	1.892346	-0.180056	0.311736
C15	C	1.884548	-0.410724	0.310419
C16	C	1.888881	-0.282364	0.311150
C17	C	2.178457	0.144874	0.358854
C18	C	2.355655	0.146938	0.388033
C19	C	1.876869	0.360965	0.309158
C20	C	1.881107	0.486957	0.309846
N21	N	1.933054	0.120188	0.770943
N22	N	1.840413	0.186702	-0.149342
H23	H	1.438017	0.137355	0.542633
O24	O	2.047823	0.038069	0.887167
C25	C	2.330918	-0.033406	0.995266
C26	C	2.201119	0.059679	0.863591
H27	H	2.454884	-0.015982	0.976219
H28	H	2.328857	-0.031817	1.155160
H29	H	2.305078	-0.121392	0.951796
H30	H	2.226871	0.147710	0.906886
H31	H	2.203210	0.057988	0.703729
O32	O	1.319442	0.171588	0.049127
C33	C	1.093409	0.282414	-0.188987
C34	C	1.204701	0.269399	0.019896
H35	H	1.000593	0.361476	-0.212673
H36	H	1.168599	0.292631	-0.300689
H37	H	1.028573	0.202706	-0.208192
H38	H	1.269561	0.349080	0.039292
H39	H	1.129426	0.259128	0.131494
H40	H	1.744400	0.255631	0.753189
