data_functionalizedCrystal
_audit_creation_method	'MofGen! by Chris Wilmer'
_symmetry_space_group_name_H-M	'P1'
_symmetry_Int_Tables_number	1
_symmetry_cell_setting	triclinic
loop_
_symmetry_equiv_pos_as_xyz
  x,y,z
_cell_length_a	16.109301
_cell_length_b	12.811415
_cell_length_c	14.586319
_cell_angle_alpha	84.565349
_cell_angle_beta	89.999213
_cell_angle_gamma	83.754001
loop_
_atom_site_label
_atom_site_type_symbol
_atom_site_fract_x
_atom_site_fract_y
_atom_site_fract_z
O1	O	1.103627	0.134912	-0.087397
O2	O	0.861626	0.151702	-0.088808
O3	O	0.988715	-0.009488	-0.075395
O4	O	0.976539	0.296102	-0.100810
O5	O	0.988706	-0.009490	0.077086
O6	O	0.861618	0.151699	0.063673
O7	O	1.103618	0.134910	0.065084
Cu8	Cu	0.982617	0.143304	0.078301
Cu9	Cu	0.982627	0.143307	-0.102025
O10	O	0.976530	0.296099	0.051671
C11	C	0.830645	0.151021	-0.012512
C12	C	0.738342	0.148982	-0.012348
C13	C	0.516404	0.239887	-0.019898
C14	C	0.429676	0.237963	-0.019732
C15	C	0.448847	0.046717	-0.003830
C16	C	0.535573	0.048642	-0.003990
C17	C	0.569349	0.145230	-0.012029
C18	C	0.395895	0.141381	-0.011703
C19	C	0.301862	0.139294	-0.011523
C20	C	0.663388	0.147318	-0.012207
C21	C	0.988028	-0.048593	0.004096
C22	C	0.985984	-0.165110	0.013781
C23	C	0.982139	-0.384045	-0.134275
C24	C	0.980219	-0.493523	-0.125180
C25	C	0.980218	-0.493547	0.041065
C26	C	0.982138	-0.384068	0.031970
C27	C	0.983100	-0.329321	-0.055703
C28	C	0.985026	-0.219842	-0.064797
C29	C	0.985019	-0.219866	0.101447
C30	C	0.983099	-0.329345	0.110542
C31	C	1.134600	0.135591	-0.011214
C32	C	1.226902	0.137630	-0.011384
C33	C	0.977217	0.335204	-0.027822
C34	C	0.979260	0.451722	-0.037513
N35	N	0.982616	0.143302	0.205133
N36	N	0.982635	0.143302	-0.228856
C37	C	1.038909	0.071951	0.446077
C38	C	1.038911	0.071948	0.542058
C39	C	0.926336	0.214656	0.530193
C40	C	0.926330	0.214652	0.434214
C41	C	0.982621	0.143301	0.392158
C42	C	0.982629	0.143302	0.584119
C43	C	0.982632	0.143300	0.688186
C44	C	0.982618	0.143302	0.288084
H45	H	0.543900	0.318535	-0.026437
C46	C	1.150193	-0.069099	0.544139
C47	C	1.100788	-0.006478	0.601326
H48	H	1.188397	-0.117514	0.580730
H49	H	1.115457	-0.106867	0.509850
H50	H	1.180242	-0.025383	0.503063
H51	H	1.070734	-0.050194	0.642398
H52	H	1.135529	0.031293	0.635630
H53	H	0.985811	-0.175269	-0.136185
H54	H	0.982313	-0.373934	0.181923
C55	C	0.987962	-0.052056	0.161328
C56	C	0.986072	-0.159711	0.187821
H57	H	0.988609	-0.014921	0.214652
H58	H	1.036699	-0.042138	0.126358
H59	H	0.939849	-0.026097	0.125019
H60	H	1.034189	-0.185672	0.224126
H61	H	0.937330	-0.169636	0.222806
C62	C	0.438492	-0.116877	-0.068615
C63	C	0.411719	-0.059450	0.004994
H64	H	0.415575	-0.182423	-0.063165
H65	H	0.420339	-0.077898	-0.125018
H66	H	0.497721	-0.129269	-0.067572
H67	H	0.352490	-0.047050	0.003947
H68	H	0.429868	-0.098436	0.061412
C69	C	0.876365	0.278035	0.672054
C70	C	0.864471	0.293092	0.576423
H71	H	0.838175	0.326467	0.700590
H72	H	0.867091	0.207992	0.693610
H73	H	0.931894	0.289454	0.686816
H74	H	0.808943	0.281666	0.561661
H75	H	0.873738	0.363152	0.554859
H76	H	1.084744	0.013851	0.411838
C77	C	0.878135	0.396347	0.389537
C78	C	0.864456	0.293090	0.374937
H79	H	0.839941	0.444765	0.352938
H80	H	0.870079	0.406556	0.452709
H81	H	0.933662	0.407750	0.372849
H82	H	0.808932	0.281685	0.391632
H83	H	0.872506	0.282876	0.311751
C84	C	0.419443	0.427191	-0.035481
C85	C	0.371479	0.342013	-0.028390
H86	H	0.383513	0.491429	-0.040831
H87	H	0.453666	0.423965	0.017957
H88	H	0.453671	0.423954	-0.088390
H89	H	0.337256	0.345246	0.024523
H90	H	0.337241	0.345241	-0.081833
H91	H	0.982929	-0.339470	-0.205661
C92	C	0.644235	-0.060133	-0.073330
C93	C	0.593780	-0.055411	0.004659
H94	H	0.680172	-0.124366	-0.067984
H95	H	0.610005	-0.056915	-0.126761
H96	H	0.676756	-0.002329	-0.078125
H97	H	0.561254	-0.113212	0.009450
H98	H	0.628014	-0.058640	0.058105
H99	H	0.979434	-0.538074	-0.189162
H100	H	0.979429	-0.538140	0.112444
