data_functionalizedCrystal
_audit_creation_method	'MofGen! by Chris Wilmer'
_symmetry_space_group_name_H-M	'P1'
_symmetry_Int_Tables_number	1
_symmetry_cell_setting	triclinic
loop_
_symmetry_equiv_pos_as_xyz
  x,y,z
_cell_length_a	14.519731
_cell_length_b	13.596369
_cell_length_c	14.519731
_cell_angle_alpha	89.998627
_cell_angle_beta	96.311147
_cell_angle_gamma	90.006024
loop_
_atom_site_label
_atom_site_type_symbol
_atom_site_fract_x
_atom_site_fract_y
_atom_site_fract_z
O1	O	1.223867	0.081796	-0.120977
O2	O	1.557201	0.415129	0.212356
O3	O	1.890534	0.748462	0.545689
O4	O	0.955394	0.081798	-0.135193
O5	O	1.288727	0.415131	0.198140
O6	O	1.622061	0.748464	0.531473
O7	O	1.096739	0.081788	0.006151
O8	O	1.430072	0.415121	0.339485
O9	O	1.763405	0.748454	0.672818
O10	O	1.082523	0.081806	-0.262322
O11	O	1.415856	0.415139	0.071011
O12	O	1.749189	0.748472	0.404345
O13	O	1.096721	-0.081795	0.006143
O14	O	1.430055	0.251538	0.339477
O15	O	1.763388	0.584871	0.672810
O16	O	0.955377	-0.081785	-0.135201
O17	O	1.288710	0.251548	0.198132
O18	O	1.622043	0.584881	0.531465
O19	O	1.223850	-0.081787	-0.120985
O20	O	1.557183	0.251546	0.212348
O21	O	1.890516	0.584880	0.545681
Zn22	Zn	1.089610	-0.107759	-0.128094
Zn23	Zn	1.422944	0.225575	0.205239
Zn24	Zn	1.756277	0.558908	0.538572
Zn25	Zn	1.089633	0.107769	-0.128084
Zn26	Zn	1.422967	0.441102	0.205249
Zn27	Zn	1.756300	0.774436	0.538583
O28	O	1.082505	-0.081777	-0.262330
O29	O	1.415839	0.251556	0.071004
O30	O	1.749172	0.584889	0.404337
C31	C	0.921026	0.000006	-0.134531
C32	C	1.254359	0.333340	0.198802
C33	C	1.587693	0.666673	0.532136
C34	C	0.818645	0.000007	-0.132535
C35	C	1.151979	0.333340	0.200798
C36	C	1.485312	0.666673	0.534132
N37	N	1.089602	-0.254850	-0.128101
N38	N	1.422935	0.078483	0.205232
N39	N	1.756268	0.411816	0.538566
C40	C	0.735501	0.000010	-0.130913
C41	C	1.068835	0.333344	0.202420
C42	C	1.402168	0.666677	0.535753
C43	C	0.631192	0.000011	-0.128887
C44	C	0.964526	0.333344	0.204447
C45	C	1.297859	0.666677	0.537780
C46	C	0.548053	0.000011	-0.127278
C47	C	0.881386	0.333344	0.206055
C48	C	1.214720	0.666677	0.539388
C49	C	0.443738	0.000013	-0.125252
C50	C	0.777071	0.333346	0.208081
C51	C	1.110404	0.666679	0.541415
C52	C	1.089606	-0.343848	-0.128103
C53	C	1.422940	-0.010515	0.205230
C54	C	1.756273	0.322818	0.538564
C55	C	1.089615	-0.455500	-0.128097
C56	C	1.422949	-0.122166	0.205237
C57	C	1.756282	0.211167	0.538570
C58	C	1.089627	-0.544490	-0.128086
C59	C	1.422961	-0.211157	0.205247
C60	C	1.756294	0.122176	0.538580
C61	C	1.089638	-0.656149	-0.128081
C62	C	1.422971	-0.322815	0.205253
C63	C	1.756304	0.010518	0.538586
C64	C	1.258218	0.000006	-0.121648
C65	C	1.591551	0.333340	0.211686
C66	C	1.924885	0.666673	0.545019
C67	C	1.360598	0.000012	-0.123643
C68	C	1.693932	0.333346	0.209690
C69	C	2.027265	0.666679	0.543023
C70	C	1.096064	-0.000004	0.040507
C71	C	1.429397	0.333329	0.373840
C72	C	1.762730	0.666663	0.707173
C73	C	1.094068	-0.000005	0.142887
C74	C	1.427401	0.333329	0.476220
C75	C	1.760734	0.666662	0.809554
N76	N	1.089650	0.254861	-0.128070
N77	N	1.422983	0.588194	0.205263
N78	N	1.756316	0.921527	0.538596
C79	C	1.083180	0.000017	-0.296685
C80	C	1.416513	0.333350	0.036648
C81	C	1.749847	0.666683	0.369981
C82	C	1.085176	0.000024	-0.399066
C83	C	1.418509	0.333357	-0.065732
C84	C	1.751843	0.666690	0.267601
C85	C	1.092446	-0.000002	0.226031
C86	C	1.425779	0.333331	0.559365
C87	C	1.759113	0.666664	0.892698
C88	C	1.090419	0.000005	0.330340
C89	C	1.423753	0.333339	0.663674
C90	C	1.757086	0.666672	0.997007
C91	C	1.088811	0.000012	0.413479
C92	C	1.422144	0.333345	0.746813
C93	C	1.755478	0.666678	1.080146
C94	C	1.086785	0.000017	0.517795
C95	C	1.420118	0.333351	0.851128
C96	C	1.753451	0.666684	1.184462
