data_functionalizedCrystal
_audit_creation_method	'MofGen! by Chris Wilmer'
_symmetry_space_group_name_H-M	'P1'
_symmetry_Int_Tables_number	1
_symmetry_cell_setting	triclinic
loop_
_symmetry_equiv_pos_as_xyz
  x,y,z
_cell_length_a	10.540539
_cell_length_b	14.519731
_cell_length_c	13.596369
_cell_angle_alpha	89.994584
_cell_angle_beta	89.996161
_cell_angle_gamma	84.107172
loop_
_atom_site_label
_atom_site_type_symbol
_atom_site_fract_x
_atom_site_fract_y
_atom_site_fract_z
O1	O	0.166529	1.224754	-0.081789
O2	O	0.186096	0.956385	-0.081790
O3	O	-0.008456	1.096692	-0.081788
O4	O	0.361081	1.084446	-0.081791
O5	O	-0.008466	1.096678	0.081795
O6	O	0.186086	0.956371	0.081793
O7	O	0.166518	1.224739	0.081794
Zn8	Zn	0.176300	1.090553	0.107766
Zn9	Zn	0.176314	1.090571	-0.107762
O10	O	0.361070	1.084432	0.081792
C11	C	0.185174	0.922013	0.000002
C12	C	0.182426	0.819618	0.000001
C13	C	0.180194	0.736462	-0.000003
C14	C	0.177405	0.632138	-0.000003
C15	C	0.175191	0.548987	-0.000003
C16	C	0.172402	0.444657	-0.000005
C17	C	-0.055755	1.095766	0.000002
C18	C	-0.196675	1.093019	-0.000004
C19	C	-0.379038	0.987741	-0.000371
C20	C	-0.232449	0.990526	-0.000003
C21	C	-0.258837	1.142335	0.093410
C22	C	-0.405346	1.138837	0.093489
C23	C	-0.405874	1.140938	-0.092535
C24	C	-0.258902	1.141882	-0.093770
C25	C	0.408369	1.085358	0.000001
C26	C	0.549289	1.088105	-0.000001
C27	C	0.167440	1.259111	0.000001
C28	C	0.170188	1.361506	-0.000005
N29	N	0.176290	1.090547	0.254858
N30	N	0.176314	1.090585	-0.254853
C31	C	0.176315	1.090570	0.656149
C32	C	0.176313	1.090561	0.544497
C33	C	0.176304	1.090559	0.455507
C34	C	0.176299	1.090549	0.343848
H35	H	-0.189449	0.951720	-0.066966
H36	H	-0.408843	0.947412	0.066242
H37	H	-0.407225	0.947259	-0.067360
H38	H	-0.215896	1.108066	0.162926
H39	H	-0.237244	1.217603	0.096884
H40	H	-0.217674	1.105798	-0.162875
C41	C	-0.448028	1.096133	-0.188183
H42	H	-0.493371	1.044780	-0.172574
H43	H	-0.501701	1.140277	-0.224659
H44	H	-0.375005	1.075675	-0.226316
H45	H	-0.235435	1.216608	-0.099411
H46	H	-0.453848	1.214969	-0.093163
H47	H	-0.190302	0.951437	0.067071
C48	C	-0.471167	1.238407	0.099241
H49	H	-0.561069	1.236945	0.099325
H50	H	-0.445937	1.266975	0.157935
H51	H	-0.447110	1.272723	0.044001
H52	H	-0.433182	1.102378	0.163318
