data_functionalizedCrystal
_audit_creation_method	'MofGen! by Chris Wilmer'
_symmetry_space_group_name_H-M	'P1'
_symmetry_Int_Tables_number	1
_symmetry_cell_setting	triclinic
loop_
_symmetry_equiv_pos_as_xyz
  x,y,z
_cell_length_a	15.944551
_cell_length_b	17.038272
_cell_length_c	15.021413
_cell_angle_alpha	90.004029
_cell_angle_beta	89.997174
_cell_angle_gamma	87.305147
loop_
_atom_site_label
_atom_site_type_symbol
_atom_site_fract_x
_atom_site_fract_y
_atom_site_fract_z
O1	O	1.121728	0.100827	-0.073940
O2	O	0.878066	0.113259	-0.073962
O3	O	0.998449	-0.006773	-0.073944
O4	O	1.001345	0.220859	-0.073958
O5	O	0.998429	-0.006755	0.074120
O6	O	0.878046	0.113277	0.074102
O7	O	1.121708	0.100844	0.074125
Zn8	Zn	0.999874	0.107063	0.097622
Zn9	Zn	0.999900	0.107041	-0.097459
O10	O	1.001326	0.220876	0.074107
C11	C	0.846725	0.112752	0.000067
C12	C	0.753369	0.111205	0.000059
C13	C	0.995805	-0.035893	0.000088
C14	C	0.987945	-0.122688	0.000087
C15	C	0.532936	0.033105	0.000081
C16	C	0.474515	0.069363	-0.072924
C17	C	0.582443	0.108405	0.000070
C18	C	0.474519	0.069398	0.073055
C19	C	0.417337	0.105696	0.000084
C20	C	0.525252	0.144684	-0.072996
C21	C	0.525262	0.144709	0.073049
C22	C	0.466862	0.181022	0.000026
C23	C	0.677557	0.109964	0.000061
C24	C	0.322225	0.104143	0.000087
C25	C	1.060103	-0.172781	0.000094
C26	C	1.052713	-0.254334	0.000085
C27	C	0.973165	-0.285792	0.000075
C28	C	0.901002	-0.235693	0.000065
C29	C	0.908393	-0.154142	0.000068
C30	C	0.947056	-0.531558	0.000061
C31	C	0.939671	-0.613115	0.000060
C32	C	1.091383	-0.631751	0.000079
C33	C	1.098766	-0.550197	0.000087
C34	C	1.026603	-0.500105	0.000072
C35	C	0.965610	-0.369152	0.000069
C36	C	1.034159	-0.416747	0.000073
C37	C	1.153049	0.101352	0.000093
C38	C	1.246405	0.102899	0.000096
C39	C	1.003969	0.249997	0.000073
C40	C	1.011829	0.336792	0.000068
N41	N	0.999863	0.107078	0.230759
N42	N	0.999917	0.107019	-0.230597
C43	C	0.944187	0.162555	0.470434
C44	C	1.021171	0.177734	0.529775
C45	C	0.999883	0.107059	0.412366
C46	C	0.922921	0.091897	0.529768
C47	C	0.999896	0.107041	0.587790
C48	C	1.076908	0.122273	0.470400
C49	C	0.978606	0.036405	0.470388
C50	C	1.055643	0.051554	0.529702
C51	C	0.999875	0.107070	0.311309
C52	C	0.999913	0.107029	0.688846
H53	H	0.452139	0.037507	-0.134642
H54	H	0.547520	0.176503	-0.134784
C55	C	0.453799	0.304690	-0.076535
C56	C	0.428118	0.265468	-0.000032
H57	H	0.429874	0.356821	-0.076574
H58	H	0.513276	0.306122	-0.077020
H59	H	0.435650	0.277732	-0.127895
H60	H	0.446273	0.292423	0.051329
H61	H	0.368628	0.264041	0.000462
C62	C	0.643221	0.189276	0.155022
C63	C	0.555508	0.187679	0.156364
H64	H	0.661893	0.215804	0.206460
H65	H	0.666779	0.137029	0.154507
H66	H	0.660475	0.216091	0.103193
H67	H	0.538254	0.160859	0.208190
H68	H	0.531941	0.239935	0.156888
H69	H	1.150134	-0.672544	0.000090
H70	H	0.857830	0.079081	0.555848
H71	H	1.111472	-0.295117	0.000093
C72	C	1.223179	0.081915	0.465914
C73	C	1.164792	0.139686	0.435323
H74	H	1.277427	0.092671	0.444243
H75	H	1.223747	0.082000	0.529142
H76	H	1.207967	0.031897	0.445089
H77	H	1.180001	0.189705	0.456153
H78	H	1.164227	0.139610	0.372081
C79	C	0.796356	-0.521341	0.000063
C80	C	0.867735	-0.476504	0.000061
H81	H	0.747386	-0.487349	0.000071
H82	H	0.796633	-0.553535	-0.051570
H83	H	0.796636	-0.553538	0.051697
H84	H	0.867458	-0.444310	-0.051577
H85	H	0.867458	-0.444296	0.051699
H86	H	0.452150	0.037542	0.134774
C87	C	0.659552	-0.048948	0.000781
C88	C	0.571888	-0.051267	-0.000002
H89	H	0.683599	-0.101034	0.000733
H90	H	0.677651	-0.021943	-0.050555
H91	H	0.676858	-0.022303	0.052708
H92	H	0.554581	-0.077906	-0.051932
H93	H	0.553781	-0.078283	0.051339
C94	C	0.822310	-0.352429	0.000063
C95	C	0.813561	-0.270270	0.000057
H96	H	0.768325	-0.373772	0.000066
H97	H	0.852266	-0.369623	-0.051565
H98	H	0.852262	-0.369611	0.051702
H99	H	0.783614	-0.253088	-0.051586
H100	H	0.783592	-0.253069	0.051690
C101	C	1.138798	-0.056046	0.000113
C102	C	1.147545	-0.138205	0.000108
H103	H	1.192784	-0.034704	0.000124
H104	H	1.108855	-0.038859	-0.051519
H105	H	1.108834	-0.038857	0.051748
H106	H	1.177504	-0.155395	-0.051531
H107	H	1.177501	-0.155400	0.051745
H108	H	1.163543	-0.524590	0.000096
H109	H	0.874891	-0.638725	0.000067
H110	H	0.849634	-0.113356	0.000061
C111	C	0.800300	0.210805	0.466553
C112	C	0.880678	0.225957	0.435294
H113	H	0.761098	0.249951	0.444860
H114	H	0.785052	0.160652	0.446213
H115	H	0.800238	0.211549	0.529787
H116	H	0.880742	0.225207	0.372059
H117	H	0.895930	0.276123	0.455628
C118	C	1.130485	-0.335848	-0.076026
C119	C	1.121596	-0.382167	0.000085
H120	H	1.184464	-0.314491	-0.076011
H121	H	1.124469	-0.367280	-0.127650
H122	H	1.088557	-0.294350	-0.076024
H123	H	1.163520	-0.423669	0.000079
H124	H	1.127620	-0.350733	0.051723
C125	C	0.987070	0.316419	0.535090
C126	C	1.045482	0.258379	0.564999
H127	H	1.002073	0.366206	0.556840
H128	H	0.986745	0.317153	0.471865
H129	H	0.932778	0.305265	0.556296
H130	H	1.099773	0.269531	0.543788
H131	H	1.045815	0.257647	0.628237
H132	H	0.900842	-0.394774	0.000062
C133	C	1.097691	-0.085589	0.533303
C134	C	1.119304	-0.011815	0.564617
H135	H	1.136998	-0.124706	0.554855
H136	H	1.043076	-0.096472	0.553747
H137	H	1.098355	-0.085624	0.470067
H138	H	1.118634	-0.011779	0.627852
H139	H	1.173933	-0.000930	0.544177
H140	H	0.960575	-0.023318	0.444282
