data_functionalizedCrystal
_audit_creation_method	'MofGen! by Chris Wilmer'
_symmetry_space_group_name_H-M	'P1'
_symmetry_Int_Tables_number	1
_symmetry_cell_setting	triclinic
loop_
_symmetry_equiv_pos_as_xyz
  x,y,z
_cell_length_a	17.640112
_cell_length_b	21.295417
_cell_length_c	17.640968
_cell_angle_alpha	78.765192
_cell_angle_beta	92.139080
_cell_angle_gamma	101.256239
loop_
_atom_site_label
_atom_site_type_symbol
_atom_site_fract_x
_atom_site_fract_y
_atom_site_fract_z
Zn1	Zn	1.247775	-0.018088	-0.195079
Zn2	Zn	1.747775	0.481912	0.304921
Zn3	Zn	1.221981	-0.147966	-0.068087
Zn4	Zn	1.721981	0.352034	0.431913
Zn5	Zn	1.095099	-0.059037	-0.093722
Zn6	Zn	1.595099	0.440963	0.406278
Zn7	Zn	1.120723	-0.139680	-0.220669
Zn8	Zn	1.620723	0.360320	0.279331
O9	O	1.171395	-0.091193	-0.144389
O10	O	1.671395	0.408807	0.355611
O11	O	1.350625	-0.021647	-0.156795
O12	O	1.850625	0.478353	0.343205
O13	O	1.183631	-0.156775	0.034787
O14	O	1.683631	0.343225	0.534787
O15	O	1.115423	0.034499	-0.107185
O16	O	1.615423	0.534499	0.392815
O17	O	1.331674	-0.117068	-0.063494
O18	O	1.831674	0.382932	0.436506
O19	O	1.227593	0.064584	-0.181652
O20	O	1.727593	0.564584	0.318348
O21	O	1.090412	-0.091439	0.015953
O22	O	1.590412	0.408561	0.515953
O23	O	0.992227	-0.083404	-0.132000
O24	O	1.492227	0.416596	0.368000
O25	O	1.159096	-0.102945	-0.323549
O26	O	1.659096	0.397055	0.176451
O27	O	1.011052	-0.142652	-0.225268
O28	O	1.511052	0.357348	0.274732
O29	O	1.252440	-0.013612	-0.304748
O30	O	1.752440	0.486388	0.195252
O31	O	1.208478	-0.234971	-0.088309
O32	O	1.708478	0.265029	0.411691
O33	O	1.134084	-0.228883	-0.200410
O34	O	1.634084	0.271117	0.299590
C35	C	0.974084	-0.116573	-0.184193
C36	C	1.474084	0.383427	0.315807
C37	C	0.889678	-0.127442	-0.201239
C38	C	1.389678	0.372558	0.298761
C39	C	0.563037	-0.008607	-0.014897
C40	C	1.063037	0.491393	0.485103
C41	C	0.483727	-0.018831	-0.030925
C42	C	0.983727	0.481169	0.469075
C43	C	0.503351	-0.080669	-0.127878
C44	C	1.003351	0.419331	0.372122
C45	C	0.582665	-0.070447	-0.111861
C46	C	1.082665	0.429553	0.388139
C47	C	0.612502	-0.034416	-0.055369
C48	C	1.112502	0.465584	0.444631
C49	C	0.632129	-0.096257	-0.152332
C50	C	1.132129	0.403743	0.347668
C51	C	0.711436	-0.086038	-0.136313
C52	C	1.211436	0.413962	0.363687
C53	C	0.741279	-0.050011	-0.079823
C54	C	1.241279	0.449989	0.420177
C55	C	0.691809	-0.024198	-0.039350
C56	C	1.191809	0.475802	0.460650
C57	C	0.602290	-0.132291	-0.208820
C58	C	1.102290	0.367709	0.291180
C59	C	0.651755	-0.158101	-0.249291
C60	C	1.151755	0.341899	0.250709
C61	C	0.731064	-0.147879	-0.233277
C62	C	1.231064	0.352121	0.266723
C63	C	0.760907	-0.111851	-0.176786
C64	C	1.260907	0.388149	0.323214
C65	C	0.780534	-0.173691	-0.273749
C66	C	1.280534	0.326309	0.226251
C67	C	0.859841	-0.163473	-0.257730
C68	C	1.359841	0.336527	0.242270
C69	C	0.840214	-0.101633	-0.160767
C70	C	1.340214	0.398367	0.339233
C71	C	1.171287	-0.254765	-0.144367
C72	C	1.671287	0.245235	0.355633
C73	C	1.171315	-0.324729	-0.144369
C74	C	1.671315	0.175271	0.355631
C75	C	1.210105	-0.360729	-0.086039
C76	C	1.710105	0.139271	0.413961
C77	C	1.210144	-0.426464	-0.086049
C78	C	1.710144	0.073536	0.413951
C79	C	1.171378	-0.456199	-0.144384
C80	C	1.671378	0.043801	0.355616
C81	C	1.132586	-0.420189	-0.202724
C82	C	1.632586	0.079811	0.297276
C83	C	1.132555	-0.354454	-0.202717
C84	C	1.632555	0.145546	0.297283
N85	N	1.106115	-0.566893	-0.163575
N86	N	1.606115	-0.066893	0.336425
N87	N	1.106146	-0.629339	-0.163577
N88	N	1.606146	-0.129339	0.336423
C89	C	1.171472	-0.654254	-0.144410
C90	C	1.671472	-0.154254	0.355590
N91	N	1.236764	-0.614366	-0.125225
N92	N	1.736764	-0.114366	0.374775
N93	N	1.236731	-0.551916	-0.125220
N94	N	1.736731	-0.051916	0.374780
C95	C	1.171408	-0.527477	-0.144398
C96	C	1.671408	-0.027477	0.355602
C97	C	1.210308	-0.761531	-0.086087
C98	C	1.710308	-0.261531	0.413913
C99	C	1.210349	-0.827266	-0.086102
C100	C	1.710349	-0.327266	0.413898
C101	C	1.132784	-0.820991	-0.202775
C102	C	1.632784	-0.320991	0.297225
C103	C	1.132750	-0.755256	-0.202763
C104	C	1.632750	-0.255256	0.297237
C105	C	1.171510	-0.725531	-0.144415
C106	C	1.671510	-0.225531	0.355585
C107	C	1.369475	-0.065714	-0.104431
C108	C	1.869475	0.434286	0.395569
C109	C	1.453885	-0.054856	-0.087403
C110	C	1.953885	0.445144	0.412597
C111	C	1.211503	-0.052786	-0.342475
C112	C	1.711503	0.447214	0.157525
C113	C	1.228595	-0.036419	-0.426887
C114	C	1.728595	0.463581	0.073113
C115	C	1.171527	0.073024	-0.144424
C116	C	1.671527	0.573024	0.355576
C117	C	1.171584	0.143004	-0.144438
C118	C	1.671584	0.643004	0.355562
C119	C	1.041841	-0.215148	-0.753447
C120	C	1.541841	0.284852	-0.253447
C121	C	1.057917	-0.199759	-0.832762
C122	C	1.557917	0.300241	-0.332762
C123	C	1.155108	-0.106745	-0.813176
C124	C	1.655108	0.393255	-0.313176
C125	C	1.139037	-0.122124	-0.733858
C126	C	1.639037	0.377876	-0.233858
C127	C	1.082403	-0.176327	-0.704000
C128	C	1.582403	0.323673	-0.204000
C129	C	1.179600	-0.083303	-0.684411
C130	C	1.679600	0.416697	-0.184411
C131	C	1.163533	-0.098683	-0.605099
C132	C	1.663533	0.401317	-0.105099
C133	C	1.106903	-0.152885	-0.575235
C134	C	1.606903	0.347115	-0.075235
C135	C	1.066336	-0.191707	-0.624689
C136	C	1.566336	0.308293	-0.124689
C137	C	1.236237	-0.029103	-0.714269
C138	C	1.736237	0.470897	-0.214269
C139	C	1.276800	0.009719	-0.664822
C140	C	1.776800	0.509719	-0.164822
C141	C	1.260729	-0.005659	-0.585510
C142	C	1.760729	0.494341	-0.085510
C143	C	1.204100	-0.059860	-0.555646
C144	C	1.704100	0.440140	-0.055646
C145	C	1.301296	0.033164	-0.536056
C146	C	1.801296	0.533164	-0.036056
C147	C	1.285229	0.017784	-0.456745
C148	C	1.785229	0.517784	0.043255
C149	C	1.188033	-0.075241	-0.476334
C150	C	1.688033	0.424759	0.023666
C151	C	1.131486	-0.129399	0.052935
C152	C	1.631486	0.370601	0.552935
C153	C	1.114541	-0.145569	0.137376
C154	C	1.614541	0.354431	0.637376
H155	H	0.756228	-0.203033	-0.319739
H156	H	1.256228	0.296967	0.180261
C157	C	1.252950	-0.728828	-0.021915
C158	C	1.752950	-0.228828	0.478085
H159	H	1.276069	-0.759684	0.012817
H160	H	1.776069	-0.259684	0.512817
H161	H	1.217211	-0.713376	0.005349
H162	H	1.717211	-0.213376	0.505349
H163	H	1.291893	-0.693255	-0.044326
H164	H	1.791893	-0.193255	0.455674
C165	C	1.253019	-0.866867	-0.021935
C166	C	1.753019	-0.366867	0.478065
H167	H	1.276091	-0.839748	0.012817
H168	H	1.776091	-0.339748	0.512817
H169	H	1.291988	-0.882581	-0.044340
H170	H	1.791988	-0.382581	0.455660
H171	H	1.217295	-0.902701	0.005318
H172	H	1.717295	-0.402701	0.505318
H173	H	1.318258	0.049397	-0.416484
H174	H	1.818258	0.549397	0.083516
C175	C	1.125732	-0.134859	-0.443483
C176	C	1.625732	0.365141	0.056517
H177	H	1.121971	-0.138454	-0.389167
H178	H	1.621971	0.361546	0.110833
H179	H	1.139438	-0.173214	-0.454228
H180	H	1.639438	0.326786	0.045772
H181	H	1.077345	-0.129680	-0.466779
H182	H	1.577345	0.370320	0.033221
C183	C	0.515053	-0.143541	-0.226436
C184	C	1.015053	0.356459	0.273564
H185	H	0.504366	-0.168705	-0.265866
H186	H	1.004366	0.331295	0.234134
H187	H	0.499798	-0.102686	-0.243282
H188	H	0.999798	0.397314	0.256718
H189	H	0.487176	-0.166188	-0.181023
H190	H	0.987176	0.333812	0.318977
H191	H	1.249319	-0.016583	-0.778850
H192	H	1.749319	0.483417	-0.278850
H193	H	0.805856	-0.041693	-0.066780
H194	H	1.305856	0.458307	0.433220
H195	H	1.201222	-0.062614	-0.837497
H196	H	1.701222	0.437386	-0.337497
H197	H	1.322913	0.053849	-0.689143
H198	H	1.822913	0.553849	-0.189143
C199	C	0.724636	0.015446	0.022780
C200	C	1.224636	0.515446	0.522780
H201	H	0.683820	0.029356	0.044591
H202	H	1.183820	0.529356	0.544591
H203	H	0.761486	0.052465	-0.000089
H204	H	1.261486	0.552465	0.499911
H205	H	0.748847	-0.011034	0.062174
H206	H	1.248847	0.488966	0.562174
H207	H	1.101160	-0.725943	-0.250258
H208	H	1.601160	-0.225943	0.249742
H209	H	1.347413	0.077292	-0.560378
H210	H	1.847413	0.577292	-0.060378
H211	H	0.864510	-0.072281	-0.114778
H212	H	1.364510	0.427719	0.385222
C213	C	0.914255	-0.191860	-0.302250
C214	C	1.414255	0.308140	0.197750
H215	H	0.885129	-0.214776	-0.338194
H216	H	1.385129	0.285224	0.161806
H217	H	0.939282	-0.220910	-0.266893
H218	H	1.439282	0.279090	0.233107
H219	H	0.951920	-0.157401	-0.329142
H220	H	1.451920	0.342599	0.170858
H221	H	1.093825	-0.165408	-0.510654
H222	H	1.593825	0.334592	-0.010654
H223	H	0.627450	-0.187439	-0.295284
H224	H	1.127450	0.312561	0.204716
H225	H	1.101025	-0.444402	-0.250222
H226	H	1.601025	0.055598	0.249778
H227	H	0.587334	0.020745	0.031092
H228	H	1.087334	0.520745	0.531092
C229	C	0.429318	0.009566	0.013593
C230	C	0.929318	0.509566	0.513593
H231	H	0.458450	0.032492	0.049526
H232	H	0.958450	0.532492	0.549526
H233	H	0.391651	-0.024884	0.040483
H234	H	0.891651	0.475116	0.540483
H235	H	0.404296	0.038622	-0.021769
H236	H	0.904296	0.538622	0.478231
H237	H	0.479046	-0.110007	-0.173871
H238	H	0.979046	0.389993	0.326129
C239	C	1.252749	-0.328032	-0.021866
C240	C	1.752749	0.171968	0.478134
H241	H	1.275863	-0.358890	0.012868
H242	H	1.775863	0.141110	0.512868
H243	H	1.217013	-0.312575	0.005396
H244	H	1.717013	0.187425	0.505396
H245	H	1.291696	-0.292462	-0.044277
H246	H	1.791696	0.207538	0.455723
H247	H	1.241734	-0.455781	-0.038549
H248	H	1.741734	0.044219	0.461451
C249	C	1.089883	-0.314849	-0.266879
C250	C	1.589883	0.185151	0.233121
H251	H	1.095419	-0.271441	-0.258521
H252	H	1.595419	0.228559	0.241479
H253	H	1.036613	-0.334393	-0.266020
H254	H	1.536613	0.165607	0.233980
H255	H	1.111303	-0.314270	-0.315684
H256	H	1.611303	0.185730	0.184316
C257	C	1.090146	-0.853690	-0.266945
C258	C	1.590146	-0.353690	0.233055
H259	H	1.095718	-0.897997	-0.258595
H260	H	1.595718	-0.397997	0.241405
H261	H	1.111548	-0.831567	-0.315744
H262	H	1.611548	-0.331567	0.184256
H263	H	1.036861	-0.851691	-0.266077
H264	H	1.536861	-0.351691	0.233923
H265	H	1.020201	-0.235832	-0.600381
H266	H	1.520201	0.264168	-0.100381
C267	C	0.979572	-0.274791	-0.720593
C268	C	1.479572	0.225209	-0.220593
H269	H	0.957723	-0.295718	-0.761398
H270	H	1.457723	0.204282	-0.261398
H271	H	0.940225	-0.260989	-0.696319
H272	H	1.440225	0.239011	-0.196319
H273	H	1.002371	-0.304472	-0.683797
H274	H	1.502371	0.195528	-0.183797
C275	C	1.013292	-0.242465	-0.887153
C276	C	1.513292	0.257535	-0.387153
H277	H	0.977261	-0.276946	-0.858009
H278	H	1.477261	0.223054	-0.358009
H279	H	1.048588	-0.260160	-0.912225
H280	H	1.548588	0.239840	-0.412225
H281	H	0.986486	-0.216635	-0.924774
H282	H	1.486486	0.283365	-0.424774
