data_functionalizedCrystal
_audit_creation_method	'MofGen! by Chris Wilmer'
_symmetry_space_group_name_H-M	'P1'
_symmetry_Int_Tables_number	1
_symmetry_cell_setting	triclinic
loop_
_symmetry_equiv_pos_as_xyz
  x,y,z
_cell_length_a	19.902436
_cell_length_b	27.440280
_cell_length_c	19.902436
_cell_angle_alpha	60.003557
_cell_angle_beta	90.000557
_cell_angle_gamma	60.008170
loop_
_atom_site_label
_atom_site_type_symbol
_atom_site_fract_x
_atom_site_fract_y
_atom_site_fract_z
Zr1	Zr	0.647337	0.533440	-0.088239
O2	O	0.540073	0.635085	-0.195506
O3	O	0.680207	0.431783	-0.055357
O4	O	0.680221	0.533436	-0.195524
O5	O	0.540061	0.533439	0.055229
O6	O	0.790787	0.533445	-0.195537
O7	O	0.540058	0.533432	-0.055338
O8	O	0.790761	0.351607	0.055197
O9	O	0.540087	0.715278	-0.195504
O10	O	0.776754	0.473607	-0.041341
O11	O	0.694242	0.473605	0.041184
O12	O	0.694259	0.593288	-0.123845
O13	O	0.611748	0.593286	-0.041320
Zr14	Zr	0.823681	0.533466	0.088083
Zr15	Zr	0.823677	0.533455	-0.088259
Zr16	Zr	0.647341	0.533451	0.088104
Zr17	Zr	0.647360	0.661337	-0.088236
Zr18	Zr	0.823658	0.405568	0.088081
O19	O	0.790811	0.635122	0.055201
O20	O	0.790805	0.635107	-0.195535
O21	O	0.540079	0.635101	0.055231
O22	O	0.930945	0.431820	0.195350
O23	O	0.930939	0.431804	-0.055386
O24	O	0.680213	0.431798	0.195380
O25	O	0.930957	0.533466	-0.055384
O26	O	0.790797	0.533470	0.195368
O27	O	0.680231	0.533460	0.195381
O28	O	0.930960	0.533473	0.055183
O29	O	0.680253	0.715290	-0.195521
O30	O	0.790764	0.351615	0.195365
O31	O	0.930931	0.351627	0.195349
O32	O	0.930927	0.351619	0.055180
O33	O	0.540090	0.715286	-0.055336
O34	O	0.680257	0.715298	-0.055352
O35	O	0.776758	0.473617	0.123689
O36	O	0.859270	0.473619	0.041165
O37	O	0.776775	0.593300	-0.041339
O38	O	0.694264	0.593298	0.041186
C39	C	0.514935	0.533434	-0.000052
C40	C	0.440074	0.533427	-0.000043
C41	C	0.735480	0.373472	-0.000080
C42	C	0.735471	0.319176	-0.000081
C43	C	0.168025	0.533461	-0.000089
C44	C	0.248555	0.457964	0.051708
C45	C	0.326458	0.457917	0.052000
C46	C	0.302992	0.533444	-0.000066
C47	C	0.248880	0.570941	0.037896
C48	C	0.171318	0.570459	0.038275
C49	C	0.170176	0.572001	-0.089871
C50	C	0.249053	0.570582	-0.089729
C51	C	0.379267	0.533438	-0.000054
C52	C	0.091749	0.533469	-0.000098
C53	C	0.778602	-0.017565	-0.043148
C54	C	0.778610	-0.068589	-0.043145
O55	O	0.815264	-0.094994	-0.079756
N56	N	0.735539	-0.094106	-0.000070
C57	C	0.692464	-0.068601	0.043013
O58	O	0.655830	-0.094991	0.079653
C59	C	0.692462	-0.017582	0.043015
C60	C	0.735529	0.007938	-0.000070
C61	C	0.821666	0.007954	-0.086229
C62	C	0.821658	0.058975	-0.086232
C63	C	0.778584	0.084478	-0.043154
C64	C	0.735520	0.058959	-0.000073
C65	C	0.649393	0.007918	0.086102
C66	C	0.649395	0.058941	0.086101
C67	C	0.692462	0.084460	0.043016
C68	C	0.692438	0.135482	0.043001
N69	N	0.735509	0.161000	-0.000075
C70	C	0.778582	0.135497	-0.043152
C71	C	0.692473	-0.175747	0.043007
C72	C	0.692470	-0.226762	0.043000
C73	C	0.778617	-0.226746	-0.043157
C74	C	0.778615	-0.175727	-0.043155
C75	C	0.735544	-0.150229	-0.000069
C76	C	0.778560	0.242646	-0.043156
C77	C	0.778544	0.293674	-0.043159
C78	C	0.692401	0.293651	0.043002
C79	C	0.692412	0.242631	0.043001
C80	C	0.735498	0.217128	-0.000080
O81	O	0.655804	0.161918	0.079595
O82	O	0.815219	0.161887	-0.079777
C83	C	0.956083	0.533471	-0.000104
C84	C	1.030944	0.533478	-0.000112
C85	C	0.735503	0.533439	-0.220655
C86	C	0.735501	0.533434	-0.295517
C87	C	0.735537	0.693433	-0.000075
C88	C	0.735547	0.747729	-0.000074
C89	C	0.735507	0.533447	-0.432596
C90	C	0.787542	0.457955	-0.409072
C91	C	0.787823	0.457925	-0.486921
C92	C	0.735511	0.533458	-0.567559
C93	C	0.773204	0.571171	-0.565277
C94	C	0.773595	0.570672	-0.487038
C95	C	0.645749	0.571773	-0.487721
C96	C	0.645887	0.570368	-0.564653
C97	C	0.735513	0.533469	-0.643837
C98	C	0.735507	0.533438	-0.356320
C99	C	0.735514	0.533466	0.220500
C100	C	0.735516	0.533471	0.295362
C101	C	0.956054	0.373491	-0.000106
C102	C	1.030906	0.319201	-0.000116
C103	C	0.735486	0.373486	0.220497
C104	C	0.735478	0.319195	0.295358
C105	C	0.956060	0.373505	0.220471
C106	C	1.030913	0.319220	0.295324
C107	C	0.514958	0.693400	-0.220627
C108	C	0.440105	0.747685	-0.295479
C109	C	0.514963	0.693414	-0.000049
C110	C	0.440112	0.747704	-0.000040
C111	C	0.735532	0.693419	-0.220653
C112	C	0.735540	0.747711	-0.295514
C113	C	1.022984	0.293700	-0.043195
C114	C	1.093308	0.242696	-0.043220
C115	C	1.171553	0.217191	-0.000162
C116	C	1.179473	0.242698	0.042919
C117	C	1.109150	0.293704	0.042939
C118	C	0.778547	0.293705	0.373588
C119	C	0.778537	0.242700	0.443935
C120	C	0.735462	0.217182	0.436050
C121	C	0.692387	0.242676	0.357812
C122	C	0.692394	0.293684	0.287467
C123	C	1.109143	0.293728	0.287398
C124	C	1.179482	0.242729	0.357723
C125	C	1.171589	0.217219	0.435973
C126	C	1.093352	0.242716	0.443897
C127	C	1.023014	0.293717	0.373573
C128	C	0.361875	0.773183	-0.287553
C129	C	0.291536	0.824198	-0.357878
C130	C	0.299428	0.849711	-0.436128
C131	C	0.377666	0.824211	-0.444052
C132	C	0.448003	0.773200	-0.373728
C133	C	0.448034	0.773210	0.043032
C134	C	0.377710	0.824228	0.043038
C135	C	0.299465	0.849735	-0.000023
C136	C	0.291545	0.824226	-0.043100
C137	C	0.361868	0.773213	-0.043110
C138	C	0.778623	0.773213	-0.287602
C139	C	0.778646	0.824218	-0.357935
C140	C	0.735581	0.849724	-0.436179
C141	C	0.692496	0.824217	-0.444089
C142	C	0.692478	0.773209	-0.373757
H143	H	0.365840	0.428507	0.026524
H144	H	0.242210	0.891273	-0.000008
C145	C	1.117877	0.321743	0.090342
N146	N	1.124457	0.342859	0.126049
H147	H	0.606801	0.627384	-0.507614
H148	H	0.657317	0.221891	0.351404
H149	H	0.229124	0.626474	0.001987
C150	C	0.825931	0.321770	0.382282
N151	N	0.861619	0.342909	0.388837
H152	H	0.813692	0.752454	-0.223898
C153	C	0.534055	0.745150	-0.382460
N154	N	0.598868	0.724024	-0.389044
C155	C	0.645022	0.321709	0.201415
N156	N	0.609340	0.342814	0.136602
C157	C	0.589133	0.644797	-0.642229
N158	N	0.546389	0.700861	-0.700661
H159	H	1.115584	0.314491	0.223689
H160	H	0.384175	0.844989	0.078120
H161	H	0.959280	0.314466	-0.078268
H162	H	0.813730	0.844981	-0.351479
C163	C	0.735472	0.161065	0.513440
N164	N	0.735487	0.118794	0.571733
C165	C	0.205468	0.852282	-0.090451
N166	N	0.140632	0.873409	-0.126108
C167	C	1.265535	0.214686	0.348988
N168	N	1.330349	0.193563	0.342406
H169	H	0.355407	0.752447	-0.078182
C170	C	0.603176	0.538891	-0.438526
N171	N	0.571118	0.514117	-0.401467
C172	C	0.249739	0.418228	0.140739
N173	N	0.250691	0.388336	0.207832
H174	H	1.228869	0.175690	0.493229
H175	H	0.355433	0.752414	-0.223845
H176	H	0.286332	0.544905	0.103337
H177	H	1.086938	0.221938	0.507617
H178	H	0.737108	0.626716	-0.622069
C179	C	1.084577	0.214643	-0.090605
N180	N	1.077999	0.193513	-0.126294
C181	C	0.861570	0.536224	-0.567540
N182	N	0.928128	0.509898	-0.569240
C183	C	0.645162	0.852257	-0.530166
N184	N	0.609518	0.873371	-0.595000
C185	C	0.171579	0.534461	0.127530
N186	N	0.171782	0.507345	0.194760
H187	H	0.959319	0.314466	0.380038
H188	H	0.250245	0.428326	0.026378
H189	H	0.365549	0.428234	0.118236
H190	H	0.114291	0.625850	0.002987
H191	H	0.735602	0.891259	-0.493442
H192	H	0.227839	0.844952	-0.351410
H193	H	0.230538	0.625684	-0.131569
C194	C	0.222047	0.905819	-0.513479
N195	N	0.163760	0.948077	-0.571738
C196	C	0.825933	0.214659	0.529989
N197	N	0.861634	0.193538	0.594803
C198	C	0.386334	0.852276	-0.530135
N199	N	0.392860	0.873412	-0.594975
H200	H	0.511738	0.752447	0.078103
H201	H	0.167181	0.547837	-0.121582
H202	H	0.657391	0.752451	-0.380210
H203	H	0.113414	0.627618	-0.128644
C204	C	0.299467	0.533644	-0.128042
N205	N	0.337444	0.505820	-0.156897
C206	C	0.607786	0.533291	-0.564164
N207	N	0.579071	0.505390	-0.563853
C208	C	0.825948	0.214605	-0.090555
N209	N	0.861636	0.193490	-0.126261
C210	C	0.869045	0.087033	-0.133620
N211	N	0.904743	0.108160	-0.169311
C212	C	0.825926	0.321740	-0.090555
N213	N	0.861616	0.342876	-0.126250
H214	H	0.856746	-0.012807	-0.121307
H215	H	0.813691	-0.247521	-0.078232
C216	C	0.645110	-0.254840	0.090415
N217	N	0.609451	-0.275997	0.126143
C218	C	0.825998	-0.147665	-0.090545
N219	N	0.861691	-0.126533	-0.126239
H220	H	1.243189	0.221924	0.077975
C221	C	0.645087	-0.147703	0.090407
N222	N	0.609400	-0.126585	0.126111
H223	H	0.614324	-0.012852	0.121188
H224	H	0.657333	0.221860	0.078073
C225	C	0.753702	0.417968	-0.485211
N226	N	0.728004	0.387867	-0.483916
C227	C	0.602011	0.086985	0.133500
N228	N	0.566320	0.108109	0.169199
H229	H	0.657329	0.314427	0.078072
C230	C	0.876466	0.418337	-0.355337
N231	N	0.943445	0.388501	-0.314870
C232	C	0.877274	0.418150	-0.484686
N233	N	0.944653	0.388188	-0.482998
C234	C	0.753594	0.417697	-0.356030
N235	N	0.728020	0.387375	-0.316077
C236	C	1.248903	0.161078	-0.000186
N237	N	1.307160	0.118811	-0.000203
C238	C	0.725684	0.645510	-0.513140
N239	N	0.689604	0.701877	-0.532802
C240	C	0.862814	0.534895	-0.437833
N241	N	0.930016	0.507943	-0.400773
