data_functionalizedCrystal
_audit_creation_method	'MofGen! by Chris Wilmer'
_symmetry_space_group_name_H-M	'P1'
_symmetry_Int_Tables_number	1
_symmetry_cell_setting	triclinic
loop_
_symmetry_equiv_pos_as_xyz
  x,y,z
_cell_length_a	12.759395
_cell_length_b	17.639929
_cell_length_c	12.759387
_cell_angle_alpha	78.762190
_cell_angle_beta	89.982006
_cell_angle_gamma	78.803098
loop_
_atom_site_label
_atom_site_type_symbol
_atom_site_fract_x
_atom_site_fract_y
_atom_site_fract_z
Zn1	Zn	1.690802	-0.314645	-0.509451
Zn2	Zn	1.726220	-0.446844	-0.298258
Zn3	Zn	1.515115	-0.314684	-0.333780
Zn4	Zn	1.550600	-0.446785	-0.473916
O5	O	1.620684	-0.380740	-0.403851
O6	O	1.842524	-0.332191	-0.481440
O7	O	1.698189	-0.429354	-0.155938
O8	O	1.508747	-0.204068	-0.386821
O9	O	1.868545	-0.429317	-0.326278
O10	O	1.637824	-0.204040	-0.515885
O11	O	1.543091	-0.332256	-0.182036
O12	O	1.372799	-0.332198	-0.352365
O13	O	1.569226	-0.429216	-0.625662
O14	O	1.398869	-0.429253	-0.455322
O15	O	1.672232	-0.332133	-0.651769
O16	O	1.732597	-0.557447	-0.291822
O17	O	1.603569	-0.557404	-0.420877
C18	C	1.347713	-0.380724	-0.403842
C19	C	1.230939	-0.380736	-0.403859
C20	C	1.203867	-0.279762	-0.565602
C21	C	1.135473	-0.229285	-0.646480
C22	C	1.025756	-0.229299	-0.646489
C23	C	0.984430	-0.279794	-0.565611
C24	C	1.052824	-0.330271	-0.484733
C25	C	1.162544	-0.330254	-0.484734
C26	C	1.079895	-0.431240	-0.322987
C27	C	1.189614	-0.431232	-0.322980
C28	C	1.038569	-0.481736	-0.242108
C29	C	1.106965	-0.532218	-0.161232
C30	C	1.216689	-0.532203	-0.161227
C31	C	1.258008	-0.481709	-0.242102
C32	C	1.675806	-0.586106	-0.348662
C33	C	1.699483	-0.673962	-0.325086
C34	C	1.800075	-0.797788	-0.224735
C35	C	1.777818	-0.715234	-0.246895
C36	C	1.643377	-0.715235	-0.381153
C37	C	1.665626	-0.797792	-0.359008
C38	C	1.743975	-0.839062	-0.280797
C39	C	1.609526	-0.839065	-0.415070
C40	C	1.631769	-0.921614	-0.392922
C41	C	1.710113	-0.962890	-0.314713
C42	C	1.766219	-0.921610	-0.258650
C43	C	1.531171	-0.797794	-0.493275
C44	C	1.475072	-0.839067	-0.549336
C45	C	1.497320	-0.921617	-0.527194
C46	C	1.575664	-0.962893	-0.448985
C47	C	1.441214	-0.962896	-0.583258
C48	C	1.463458	-1.045445	-0.561110
C49	C	1.597907	-1.045442	-0.426838
C50	C	1.894722	-0.380756	-0.403860
C51	C	2.011501	-0.380763	-0.403864
C52	C	1.620736	-0.380663	-0.677905
C53	C	1.620758	-0.380631	-0.794691
C54	C	1.565376	-0.174572	-0.459279
C55	C	1.541807	-0.086715	-0.482899
C56	C	1.728070	-0.279483	-1.041334
C57	C	1.781691	-0.228952	-1.000061
C58	C	1.781668	-0.228978	-0.890332
C59	C	1.728022	-0.279543	-0.821873
C60	C	1.674401	-0.330074	-0.863146
C61	C	1.674427	-0.330040	-0.972879
C62	C	1.567138	-0.431162	-0.835964
C63	C	1.567153	-0.431133	-0.945694
C64	C	1.513492	-0.481726	-0.767505
C65	C	1.459864	-0.532254	-0.808779
C66	C	1.459888	-0.532225	-0.918515
C67	C	1.513533	-0.481664	-0.986967
C68	C	1.620678	-0.380759	-0.130879
C69	C	1.620799	-0.380568	-0.014154
H70	H	1.347343	-0.481688	-0.242101
C71	C	1.400899	-0.587815	-0.963906
N72	N	1.356466	-0.629684	-0.998090
C73	C	1.684101	-1.090843	-0.340807
N74	N	1.749018	-1.125040	-0.276010
H75	H	1.513549	-0.481630	-1.076318
C76	C	1.400859	-0.587868	-0.733469
N77	N	1.356412	-0.629756	-0.676741
C78	C	1.324560	-0.279748	-0.565606
N79	N	1.415467	-0.279735	-0.565610
H80	H	1.272370	-0.573305	-0.095363
H81	H	1.830028	-0.955215	-0.194973
C82	C	1.180939	-0.173741	-0.735441
N83	N	1.215181	-0.131905	-0.802446
H84	H	0.970067	-0.188191	-0.712342
C85	C	1.886269	-0.843190	-0.138705
N86	N	1.951186	-0.877386	-0.073908
H87	H	1.825333	-0.187833	-0.856728
C88	C	0.863735	-0.279800	-0.565619
N89	N	0.772826	-0.279805	-0.565625
C90	C	1.728090	-0.279443	-1.162042
N91	N	1.728108	-0.279413	-1.252961
C92	C	1.557198	-0.669829	-0.467185
N93	N	1.492290	-0.635630	-0.531990
H94	H	1.728222	-1.030106	-0.296682
C95	C	1.839553	-0.669836	-0.185229
N96	N	1.886053	-0.635642	-0.138787
H97	H	1.073307	-0.573324	-0.095384
C98	C	0.917876	-0.481749	-0.242119
N99	N	0.826969	-0.481762	-0.242129
C100	C	1.840688	-0.173327	-1.075375
N101	N	1.885122	-0.131429	-1.132100
H102	H	1.411276	-0.805455	-0.613013
C103	C	1.355029	-0.917488	-0.669282
N104	N	1.290113	-0.883287	-0.734078
C105	C	1.401749	-1.090849	-0.622785
N106	N	1.355267	-1.125046	-0.669239
H107	H	1.513483	-0.481747	-0.678158
H108	H	1.728019	-0.279566	-0.732525
H109	H	1.513054	-0.730577	-0.511294
