data_functionalizedCrystal
_audit_creation_method	'MofGen! by Chris Wilmer'
_symmetry_space_group_name_H-M	'P1'
_symmetry_Int_Tables_number	1
_symmetry_cell_setting	triclinic
loop_
_symmetry_equiv_pos_as_xyz
  x,y,z
_cell_length_a	13.897449
_cell_length_b	16.120444
_cell_length_c	13.897441
_cell_angle_alpha	92.867240
_cell_angle_beta	89.981404
_cell_angle_gamma	92.927816
loop_
_atom_site_label
_atom_site_type_symbol
_atom_site_fract_x
_atom_site_fract_y
_atom_site_fract_z
Zn1	Zn	1.455154	-0.331861	-0.564829
Zn2	Zn	1.788487	0.001472	-0.231496
Zn3	Zn	2.121820	0.334805	0.101838
Zn4	Zn	1.446849	-0.471291	-0.411701
Zn5	Zn	1.780182	-0.137958	-0.078368
Zn6	Zn	2.113515	0.195375	0.254965
Zn7	Zn	1.293847	-0.331899	-0.403550
Zn8	Zn	1.627180	0.001435	-0.070216
Zn9	Zn	1.960513	0.334768	0.263117
Zn10	Zn	1.285623	-0.471239	-0.572951
Zn11	Zn	1.618956	-0.137906	-0.239618
Zn12	Zn	1.952289	0.195428	0.093716
O13	O	1.370368	-0.401573	-0.488258
O14	O	1.703701	-0.068239	-0.154924
O15	O	2.037035	0.265094	0.178409
O16	O	1.589033	-0.350363	-0.544529
O17	O	1.922366	-0.017030	-0.211196
O18	O	2.255700	0.316303	0.122138
O19	O	1.426519	-0.452838	-0.275641
O20	O	1.759852	-0.119505	0.057693
O21	O	2.093185	0.213829	0.391026
O22	O	1.322162	-0.215228	-0.418133
O23	O	1.655495	0.118106	-0.084800
O24	O	1.988828	0.451439	0.248534
O25	O	1.582932	-0.452802	-0.432027
O26	O	1.916265	-0.119469	-0.098693
O27	O	2.249598	0.213865	0.234640
O28	O	1.440673	-0.215200	-0.536624
O29	O	1.774007	0.118133	-0.203291
O30	O	2.107340	0.451466	0.130042
O31	O	1.314109	-0.350427	-0.269651
O32	O	1.647442	-0.017094	0.063682
O33	O	1.980775	0.316240	0.397015
O34	O	1.157774	-0.350376	-0.426009
O35	O	1.491108	-0.017043	-0.092675
O36	O	1.824441	0.316290	0.240658
O37	O	1.308145	-0.452713	-0.706853
O38	O	1.641478	-0.119379	-0.373520
O39	O	1.974812	0.213954	-0.040186
O40	O	1.151732	-0.452749	-0.550467
O41	O	1.485066	-0.119415	-0.217134
O42	O	1.818399	0.213918	0.116200
O43	O	1.432699	-0.350313	-0.700886
O44	O	1.766032	-0.016979	-0.367553
O45	O	2.099365	0.316354	-0.034219
O46	O	1.418544	-0.587951	-0.439902
O47	O	1.751878	-0.254617	-0.106569
O48	O	2.085211	0.078716	0.226765
O49	O	1.300092	-0.587912	-0.558371
O50	O	1.633426	-0.254579	-0.225038
O51	O	1.966759	0.078755	0.108295
C52	C	1.119754	-0.401562	-0.488235
C53	C	1.453088	-0.068228	-0.154902
C54	C	1.786421	0.265105	0.178432
C55	C	1.012539	-0.401577	-0.488249
C56	C	1.345873	-0.068243	-0.154916
C57	C	1.679206	0.265090	0.178417
C58	C	0.816244	-0.401580	-0.488275
C59	C	1.149577	-0.068246	-0.154942
C60	C	1.482911	0.265087	0.178392
C61	C	0.925477	-0.401576	-0.488258
C62	C	1.258810	-0.068242	-0.154925
C63	C	1.592143	0.265091	0.178409
C64	C	1.357551	-0.618182	-0.500924
C65	C	1.690884	-0.284848	-0.167590
C66	C	2.024218	0.048485	0.165743
C67	C	1.352156	-0.710848	-0.506374
C68	C	1.685489	-0.377514	-0.173041
C69	C	2.018823	-0.044181	0.160292
C70	C	1.398590	-0.921789	-0.460189
C71	C	1.731924	-0.588456	-0.126856
C72	C	2.065257	-0.255123	0.206478
C73	C	1.342324	-0.880505	-0.516336
C74	C	1.675657	-0.547171	-0.183003
C75	C	2.008991	-0.213838	0.150330
C76	C	1.347796	-0.786099	-0.510792
C77	C	1.681130	-0.452765	-0.177459
C78	C	2.014463	-0.119432	0.155875
C79	C	1.393119	-1.016204	-0.465732
C80	C	1.726453	-0.682870	-0.132399
C81	C	2.059786	-0.349537	0.200934
C82	C	1.621960	-0.401584	-0.488281
C83	C	1.955293	-0.068251	-0.154948
C84	C	2.288627	0.265082	0.178386
C85	C	1.729174	-0.401589	-0.488291
C86	C	2.062507	-0.068256	-0.154958
C87	C	2.395840	0.265077	0.178376
C88	C	1.370431	-0.401503	-0.739847
C89	C	1.703764	-0.068169	-0.406513
C90	C	2.037098	0.265164	-0.073180
C91	C	1.370458	-0.401473	-0.847059
C92	C	1.703791	-0.068139	-0.513726
C93	C	2.037125	0.265194	-0.180392
C94	C	1.383261	-0.184118	-0.475564
C95	C	1.716594	0.149215	-0.142230
C96	C	2.049928	0.482549	0.191103
C97	C	1.388755	-0.091452	-0.470154
C98	C	1.722089	0.241882	-0.136821
C99	C	2.055422	0.575215	0.196513
C100	C	1.370479	-0.401449	-0.934127
C101	C	1.703812	-0.068116	-0.600794
C102	C	2.037146	0.265217	-0.267461
C103	C	1.370509	-0.401412	-1.043358
C104	C	1.703842	-0.068078	-0.710025
C105	C	2.037176	0.265255	-0.376691
C106	C	1.370364	-0.401582	-0.237644
C107	C	1.703697	-0.068249	0.095689
C108	C	2.037031	0.265084	0.429023
C109	C	1.370538	-0.401377	-0.130419
C110	C	1.703871	-0.068044	0.202915
C111	C	2.037204	0.265290	0.536248
H112	H	1.450867	-0.886237	-0.407959
H113	H	1.784200	-0.552904	-0.074625
H114	H	2.117533	-0.219571	0.258708
H115	H	1.290043	-0.916061	-0.568569
H116	H	1.623377	-0.582727	-0.235236
H117	H	1.956710	-0.249394	0.098097
