data_functionalizedCrystal
_audit_creation_method	'MofGen! by Chris Wilmer'
_symmetry_space_group_name_H-M	'P1'
_symmetry_Int_Tables_number	1
_symmetry_cell_setting	triclinic
loop_
_symmetry_equiv_pos_as_xyz
  x,y,z
_cell_length_a	6.817900
_cell_length_b	19.453172
_cell_length_c	19.453114
_cell_angle_alpha	96.317064
_cell_angle_beta	101.709288
_cell_angle_gamma	101.710488
loop_
_atom_site_label
_atom_site_type_symbol
_atom_site_fract_x
_atom_site_fract_y
_atom_site_fract_z
V1	V	-3.998005	-0.097914	-0.219330
O2	O	-3.995098	0.003953	-0.214817
O3	O	-3.941032	-0.193423	-0.218154
O4	O	-3.941025	-0.096738	-0.314839
O5	O	-3.995104	-0.093402	-0.117463
V6	V	-4.483855	-0.085691	-0.207106
O7	O	-4.254158	-0.124727	-0.246143
O8	O	-4.677900	-0.058877	-0.180293
O9	O	-4.317622	0.009819	-0.208281
O10	O	-4.604159	-0.187557	-0.211619
O11	O	-4.604153	-0.090203	-0.308973
O12	O	-4.317628	-0.086867	-0.111597
C13	C	-3.784225	-0.216696	-0.214778
C14	C	-3.818872	-0.294778	-0.214454
C15	C	-3.784216	-0.093364	-0.338108
C16	C	-3.818856	-0.093034	-0.416189
C17	C	-4.247899	-0.855852	-0.216325
C18	C	-4.215361	-0.782485	-0.216625
C19	C	-4.017282	-0.742102	-0.212598
C20	C	-3.851722	-0.775088	-0.208253
C21	C	-3.884261	-0.848452	-0.207947
N22	N	-3.850595	-0.630535	-0.250130
N23	N	-3.819697	-0.560842	-0.250423
C24	C	-3.919231	-0.521058	-0.213521
N25	N	-4.050866	-0.553601	-0.176325
N26	N	-4.081774	-0.623301	-0.176035
C27	C	-3.981978	-0.662549	-0.212930
C28	C	-4.049499	-0.408526	-0.218186
C29	C	-4.016951	-0.335157	-0.218482
C30	C	-3.653311	-0.327762	-0.210117
C31	C	-3.685861	-0.401129	-0.209815
C32	C	-3.883960	-0.441507	-0.213853
C33	C	-4.016595	-0.096405	-0.456457
C34	C	-4.049143	-0.096096	-0.529823
C35	C	-3.883948	-0.092429	-0.562920
C36	C	-3.686179	-0.089054	-0.522641
C37	C	-3.653632	-0.089356	-0.449276
N38	N	-3.820875	-0.129523	-0.681834
N39	N	-3.851806	-0.129238	-0.751529
C40	C	-3.981996	-0.091516	-0.783965
N41	N	-4.080122	-0.054100	-0.744076
N42	N	-4.049196	-0.054389	-0.674375
C43	C	-3.919218	-0.092100	-0.642472
C44	C	-4.215040	-0.094551	-0.903785
C45	C	-4.247579	-0.094237	-0.977151
C46	C	-3.884612	-0.087202	-0.969969
C47	C	-3.852075	-0.087509	-0.896603
C48	C	-4.017299	-0.091187	-0.863516
C49	C	-4.137771	0.033088	-0.211656
C50	C	-4.082361	0.111169	-0.211984
C51	C	-4.137780	-0.090243	-0.088324
C52	C	-4.082379	-0.090569	-0.010242
H53	H	-4.350164	-0.755628	-0.220155
H54	H	-3.551676	-0.086067	-0.549593
H55	H	-4.210174	-0.098844	-0.562617
H56	H	-3.551061	-0.427980	-0.206283
H57	H	-4.408603	-0.096977	-1.009936
H58	H	-4.151135	-0.099397	-0.429523
H59	H	-3.691060	-0.084772	-0.863817
H60	H	-3.492031	-0.294882	-0.206836
O61	O	-3.461681	-0.086207	-0.410111
C62	C	-3.246136	-0.143712	-0.332932
C63	C	-3.463629	-0.147343	-0.377235
H64	H	-3.247630	-0.193141	-0.306351
H65	H	-3.196005	-0.094311	-0.290483
H66	H	-3.133714	-0.141012	-0.369209
H67	H	-3.576201	-0.150070	-0.341015
H68	H	-3.513588	-0.196736	-0.419690
H69	H	-3.690442	-0.742202	-0.204974
H70	H	-3.749455	-0.875303	-0.204414
O71	O	-4.375518	-0.098239	-0.871624
C72	C	-4.581157	-0.163807	-0.802659
C73	C	-4.399404	-0.159727	-0.839062
H74	H	-4.600499	-0.213508	-0.776311
H75	H	-4.728173	-0.166203	-0.844021
H76	H	-4.549257	-0.114692	-0.760651
H77	H	-4.431104	-0.208830	-0.881066
H78	H	-4.252447	-0.157296	-0.797659
H79	H	-4.210802	-0.441404	-0.221470
O80	O	-4.177646	-0.303054	-0.222789
C81	C	-4.382029	-0.234250	-0.289143
C82	C	-4.199965	-0.270563	-0.284342
H83	H	-4.400159	-0.207985	-0.338913
H84	H	-4.351664	-0.192211	-0.240148
H85	H	-4.529154	-0.275721	-0.291942
H86	H	-4.052761	-0.229145	-0.281566
H87	H	-4.230507	-0.312616	-0.333336
O88	O	-4.440184	-0.895125	-0.220130
C89	C	-4.657941	-0.972483	-0.163460
C90	C	-4.440074	-0.928051	-0.159078
H91	H	-4.657934	-0.999103	-0.114098
H92	H	-4.706606	-1.014903	-0.212866
H93	H	-4.770620	-0.936288	-0.166641
H94	H	-4.327246	-0.964190	-0.155869
H95	H	-4.391581	-0.885625	-0.109679
O96	O	-3.724244	-0.083546	-1.002173
C97	C	-3.518442	-0.017926	-1.071059
C98	C	-3.700141	-0.021993	-1.034630
H99	H	-3.498869	0.031843	-1.097297
H100	H	-3.550272	-0.066983	-1.113135
H101	H	-3.371564	-0.015607	-1.029664
H102	H	-3.847097	-0.024289	-1.075973
H103	H	-3.668134	0.027063	-0.992541
