data_functionalizedCrystal
_audit_creation_method	'MofGen! by Chris Wilmer'
_symmetry_space_group_name_H-M	'P1'
_symmetry_Int_Tables_number	1
_symmetry_cell_setting	triclinic
loop_
_symmetry_equiv_pos_as_xyz
  x,y,z
_cell_length_a	15.297327
_cell_length_b	13.033286
_cell_length_c	13.032328
_cell_angle_alpha	105.163687
_cell_angle_beta	105.379702
_cell_angle_gamma	91.357096
loop_
_atom_site_label
_atom_site_type_symbol
_atom_site_fract_x
_atom_site_fract_y
_atom_site_fract_z
Zn1	Zn	-0.571802	1.416069	-0.525160
Zn2	Zn	-0.071802	1.916069	-0.025160
Zn3	Zn	-0.705675	1.407762	-0.378295
Zn4	Zn	-0.205675	1.907762	0.121705
Zn5	Zn	-0.537871	1.268818	-0.362381
Zn6	Zn	-0.037871	1.768818	0.137619
Zn7	Zn	-0.705637	1.207684	-0.578439
Zn8	Zn	-0.205637	1.707684	-0.078439
O9	O	-0.630246	1.325083	-0.461069
O10	O	-0.130246	1.825083	0.038931
O11	O	-0.603778	1.560326	-0.490040
O12	O	-0.103778	2.060326	0.009960
O13	O	-0.669231	1.411439	-0.224300
O14	O	-0.169231	1.911439	0.275700
O15	O	-0.416135	1.317413	-0.355016
O16	O	0.083865	1.817413	0.144984
O17	O	-0.702134	1.554222	-0.382140
O18	O	-0.202134	2.054222	0.117860
O19	O	-0.441064	1.425598	-0.474609
O20	O	0.058936	1.925598	0.025391
O21	O	-0.545946	1.309357	-0.212608
O22	O	-0.045946	1.809357	0.287392
O23	O	-0.545908	1.115350	-0.406679
O24	O	-0.045908	1.615350	0.093321
O25	O	-0.702068	1.213219	-0.723256
O26	O	-0.202068	1.713219	-0.223256
O27	O	-0.669165	1.070435	-0.565416
O28	O	-0.169165	1.570435	-0.065416
O29	O	-0.603740	1.366319	-0.684112
O30	O	-0.103740	1.866319	-0.184112
O31	O	-0.831907	1.352160	-0.433803
O32	O	-0.331907	1.852160	0.066197
O33	O	-0.831879	1.205163	-0.580848
O34	O	-0.331879	1.705163	-0.080848
C35	C	-0.603851	1.055202	-0.490103
C36	C	-0.103851	1.555202	0.009897
C37	C	-0.592583	0.939737	-0.502555
C38	C	-0.092583	1.439737	-0.002555
C39	C	-0.636130	0.885274	-0.454597
C40	C	-0.136130	1.385274	0.045403
C41	C	-0.624485	0.765935	-0.467466
C42	C	-0.124485	1.265935	0.032534
C43	C	-0.864630	1.271151	-0.514855
C44	C	-0.364630	1.771151	-0.014855
C45	C	-0.964913	1.248168	-0.537890
C46	C	-0.464913	1.748168	-0.037890
C47	C	-1.247568	1.489719	-0.296753
C48	C	-0.747568	1.989719	0.203247
C49	C	-1.153346	1.511313	-0.275105
C50	C	-0.653346	2.011313	0.224895
C51	C	-1.106233	1.445529	-0.340799
C52	C	-0.606233	1.945529	0.159201
C53	C	-1.153351	1.358147	-0.428146
C54	C	-0.653351	1.858147	0.071854
C55	C	-1.247580	1.336546	-0.449791
C56	C	-0.747580	1.836546	0.050209
C57	C	-1.106246	1.292356	-0.493837
C58	C	-0.606246	1.792356	0.006163
C59	C	-1.153364	1.204974	-0.581184
C60	C	-0.653364	1.704974	-0.081184
C61	C	-1.247584	1.183377	-0.602826
C62	C	-0.747584	1.683377	-0.102826
C63	C	-1.294697	1.249161	-0.537132
C64	C	-0.794697	1.749161	-0.037132
C65	C	-1.012017	1.313956	-0.472192
C66	C	-0.512017	1.813956	0.027808
C67	C	-1.012029	1.160783	-0.625230
C68	C	-0.512029	1.660783	-0.125230
C69	C	-1.106251	1.139190	-0.646879
C70	C	-0.606251	1.639190	-0.146879
C71	C	-0.394952	1.379251	-0.407094
C72	C	0.105048	1.879251	0.092906
C73	C	-0.294684	1.402334	-0.384093
C74	C	0.205316	1.902334	0.115907
C75	C	-0.656685	1.283876	-0.744167
C76	C	-0.156685	1.783876	-0.244167
C77	C	-0.667951	1.266316	-0.864807
C78	C	-0.167951	1.766316	-0.364807
C79	C	-0.656745	1.596018	-0.431922
C80	C	-0.156745	2.096018	0.068078
C81	C	-0.668037	1.711474	-0.419502
C82	C	-0.168037	2.211474	0.080498
C83	C	-0.635974	1.316102	-1.023911
C84	C	-0.135974	1.816102	-0.523911
C85	C	-0.624322	1.334248	-0.899223
C86	C	-0.124322	1.834248	-0.399223
C87	C	-0.603852	1.366205	-0.179051
C88	C	-0.103852	1.866205	0.320949
C89	C	-0.592351	1.384025	-0.058332
C90	C	-0.092351	1.884025	0.441668
H91	H	-0.973662	1.385103	-0.401073
H92	H	-0.473662	1.885103	0.098927
H93	H	-0.578582	0.724216	-0.518058
H94	H	-0.078582	1.224216	-0.018058
N95	N	-0.728860	1.171487	-0.948027
N96	N	-0.228860	1.671487	-0.448027
H97	H	-0.705766	1.103337	-0.933133
H98	H	-0.205766	1.603337	-0.433133
H99	H	-0.728533	1.172059	-1.025269
H100	H	-0.228533	1.672059	-0.525269
H101	H	-0.681945	1.244516	-1.086752
H102	H	-0.181945	1.744516	-0.586752
N103	N	-1.004609	1.468814	-0.317453
N104	N	-0.504609	1.968814	0.182547
H105	H	-0.981909	1.534151	-0.252153
H106	H	-0.481909	2.034151	0.247847
H107	H	-0.990764	1.482173	-0.384710
H108	H	-0.490764	1.982173	0.115290
N109	N	-1.102531	1.605562	-0.180913
N110	N	-0.602531	2.105562	0.319087
H111	H	-1.146672	1.643963	-0.142586
H112	H	-0.646672	2.143963	0.357414
H113	H	-1.072219	1.656127	-0.210988
H114	H	-0.572219	2.156127	0.289012
H115	H	-1.285942	1.112215	-0.673939
H116	H	-0.785942	1.612215	-0.173939
H117	H	-0.546372	1.455605	-0.995490
H118	H	-0.046372	1.955605	-0.495490
H119	H	-0.682036	0.926995	-0.404017
H120	H	-0.182036	1.426995	0.095983
N121	N	-0.728850	0.766711	-0.352489
N122	N	-0.228850	1.266711	0.147511
H123	H	-0.779189	0.795704	-0.401299
H124	H	-0.279189	1.295704	0.098701
H125	H	-0.691728	0.827430	-0.289021
H126	H	-0.191728	1.327430	0.210979
N127	N	-0.531783	0.884483	-0.569571
N128	N	-0.031783	1.384483	-0.069571
H129	H	-0.532085	0.807063	-0.569266
H130	H	-0.032085	1.307063	-0.069266
H131	H	-0.467598	0.920651	-0.535992
H132	H	0.032402	1.420651	-0.035992
H133	H	-1.285935	1.543265	-0.243268
H134	H	-0.785935	2.043265	0.256732
H135	H	-1.371420	1.231586	-0.554756
H136	H	-0.871420	1.731586	-0.054756
H137	H	-1.144627	1.068042	-0.717997
H138	H	-0.644627	1.568042	-0.217997
H139	H	-0.973670	1.107214	-0.678723
H140	H	-0.473670	1.607214	-0.178723
H141	H	-0.578340	1.405833	-0.836383
H142	H	-0.078340	1.905833	-0.336383
