data_functionalizedCrystal
_audit_creation_method	'MofGen! by Chris Wilmer'
_symmetry_space_group_name_H-M	'P1'
_symmetry_Int_Tables_number	1
_symmetry_cell_setting	triclinic
loop_
_symmetry_equiv_pos_as_xyz
  x,y,z
_cell_length_a	16.120484
_cell_length_b	13.033293
_cell_length_c	13.032268
_cell_angle_alpha	89.079182
_cell_angle_beta	99.642751
_cell_angle_gamma	100.430752
loop_
_atom_site_label
_atom_site_type_symbol
_atom_site_fract_x
_atom_site_fract_y
_atom_site_fract_z
Zn1	Zn	-0.262705	1.479900	-0.795792
Zn2	Zn	-0.384050	1.493069	-0.630429
Zn3	Zn	-0.258246	1.330075	-0.601725
Zn4	Zn	-0.419251	1.296833	-0.782387
O5	O	-0.331063	1.399969	-0.702583
O6	O	-0.265936	1.626475	-0.791480
O7	O	-0.350765	1.490871	-0.481809
O8	O	-0.140673	1.358351	-0.621066
O9	O	-0.355088	1.636150	-0.669988
O10	O	-0.143949	1.468427	-0.763647
O11	O	-0.258337	1.371120	-0.460720
O12	O	-0.292469	1.180838	-0.608067
O13	O	-0.415082	1.301693	-0.928978
O14	O	-0.410758	1.156415	-0.740799
O15	O	-0.300069	1.436192	-0.938827
O16	O	-0.506884	1.458637	-0.656989
O17	O	-0.532746	1.314463	-0.768632
C18	C	-0.354950	1.131074	-0.669864
C19	C	-0.365192	1.016035	-0.655892
C20	C	-0.325739	0.959940	-0.709877
C21	C	-0.336324	0.841041	-0.695437
C22	C	-0.550454	1.384397	-0.714497
C23	C	-0.644306	1.377825	-0.719639
C24	C	-0.816134	1.365829	-0.729050
C25	C	-0.845136	1.434293	-0.676156
C26	C	-0.940748	1.427618	-0.681393
C27	C	-0.720515	1.372502	-0.723815
C28	C	-0.110816	1.415628	-0.690650
C29	C	-0.016959	1.422301	-0.685564
C30	C	-0.361999	1.363766	-0.972500
C31	C	-0.375183	1.348338	-1.087523
C32	C	-0.307083	1.669915	-0.735431
C33	C	-0.296865	1.784949	-0.749429
C34	C	-0.324154	1.408007	-1.143677
C35	C	-0.337778	1.392063	-1.262558
C36	C	-0.300181	1.436096	-0.433721
C37	C	-0.286742	1.451741	-0.318710
H38	H	-0.377938	0.801046	-0.638523
O39	O	-0.782915	1.518576	-0.610961
H40	H	-0.792088	1.510631	-0.528487
H41	H	-0.391551	1.329164	-1.302489
O42	O	-0.878360	1.281545	-0.794225
H43	H	-0.869210	1.289481	-0.876709
O44	O	-0.215507	1.535058	-1.265833
H45	H	-0.215987	1.534516	-1.180758
O46	O	-0.252925	1.491322	-1.090794
H47	H	-0.253407	1.490779	-1.005719
H48	H	-0.255243	0.824945	-0.806336
O49	O	-0.446412	1.265024	-1.140407
H50	H	-0.490867	1.301729	-1.197616
O51	O	-0.270612	1.012910	-0.785260
H52	H	-0.270953	1.097985	-0.784776
O53	O	-0.420317	0.963066	-0.580506
H54	H	-0.419984	0.877989	-0.580999
