data_functionalizedCrystal
_audit_creation_method	'MofGen! by Chris Wilmer'
_symmetry_space_group_name_H-M	'P1'
_symmetry_Int_Tables_number	1
_symmetry_cell_setting	triclinic
loop_
_symmetry_equiv_pos_as_xyz
  x,y,z
_cell_length_a	19.077105
_cell_length_b	17.637651
_cell_length_c	19.077271
_cell_angle_alpha	103.948043
_cell_angle_beta	90.107074
_cell_angle_gamma	98.499620
loop_
_atom_site_label
_atom_site_type_symbol
_atom_site_fract_x
_atom_site_fract_y
_atom_site_fract_z
Zn1	Zn	0.999175	-0.342956	0.376255
Zn2	Zn	0.980064	-0.480778	0.232957
Zn3	Zn	0.886316	-0.343398	0.253963
Zn4	Zn	0.859724	-0.470115	0.347707
O5	O	0.931320	-0.409312	0.302721
O6	O	1.094235	-0.365516	0.360402
O7	O	0.970759	-0.467202	0.136541
O8	O	0.920413	-0.232629	0.290923
O9	O	1.080194	-0.466774	0.255122
O10	O	1.003330	-0.232305	0.380771
O11	O	0.901882	-0.366270	0.151974
O12	O	0.785194	-0.355930	0.263242
O13	O	0.875092	-0.448600	0.450697
O14	O	0.765657	-0.449028	0.332116
O15	O	0.977546	-0.355177	0.471671
O16	O	0.944974	-0.590074	0.227441
O17	O	0.856561	-0.582240	0.311747
C18	C	0.750120	-0.401370	0.296861
C19	C	0.672598	-0.397991	0.294367
C20	C	0.895827	-0.614863	0.264233
C21	C	0.880706	-0.702800	0.247794
C22	C	0.626014	-0.444955	0.328969
C23	C	0.553176	-0.441769	0.326631
C24	C	0.526922	-0.391624	0.289687
C25	C	0.573512	-0.344655	0.255085
C26	C	0.646350	-0.347837	0.257427
C27	C	0.310173	-0.376896	0.278850
C28	C	0.237329	-0.373720	0.276509
C29	C	0.216997	-0.470833	0.348057
C30	C	0.289837	-0.474014	0.350392
C31	C	0.336421	-0.427042	0.315793
N32	N	0.452470	-0.388368	0.287295
N33	N	0.410873	-0.430294	0.318190
C34	C	1.046638	-0.990857	0.427847
C35	C	1.032408	-1.073487	0.412386
C36	C	0.946128	-1.073939	0.318743
C37	C	0.960354	-0.991307	0.334193
C38	C	1.010609	-0.949773	0.388746
C39	C	0.924324	-0.950223	0.295092
C40	C	0.938546	-0.867599	0.310544
C41	C	0.988798	-0.826058	0.365096
C42	C	1.024831	-0.867148	0.404198
C43	C	0.874066	-0.991759	0.240543
C44	C	0.838037	-0.950675	0.201442
C45	C	0.852262	-0.868050	0.216890
C46	C	0.902513	-0.826509	0.271442
C47	C	0.816229	-0.826960	0.177789
C48	C	0.830451	-0.744335	0.193240
C49	C	0.916735	-0.743884	0.286894
C50	C	1.113227	-0.417285	0.308603
C51	C	1.190745	-0.420683	0.311110
C52	C	0.925485	-0.400649	0.487625
C53	C	0.922998	-0.396958	0.566421
C54	C	0.966970	-0.202958	0.341375
C55	C	0.982162	-0.115023	0.357847
C56	C	0.937182	-0.417886	0.118547
C57	C	0.939842	-0.421360	0.039798
C58	C	0.905153	-0.370544	1.010817
C59	C	0.907493	-0.374009	0.936781
C60	C	0.944519	-0.428296	0.891727
C61	C	0.979213	-0.479115	0.920712
C62	C	0.976876	-0.475645	0.994748
C63	C	0.955355	-0.444307	0.669442
C64	C	0.957688	-0.447775	0.595402
C65	C	0.885968	-0.342667	0.611476
C66	C	0.883632	-0.339205	0.685512
C67	C	0.918329	-0.390021	0.714492
N68	N	0.946910	-0.431842	0.816049
N69	N	0.915941	-0.386471	0.790168
H70	H	0.647383	-0.485791	0.359050
H71	H	1.087566	-0.957038	0.472265
H72	H	0.515249	-0.480012	0.354807
H73	H	0.775307	-0.860789	0.133376
C74	C	1.019347	-0.538029	0.871673
C75	C	1.013952	-0.530209	0.800629
C76	C	1.050905	-0.584477	0.755434
H77	H	1.067846	-0.527995	0.887395
H78	H	0.999562	-0.590187	0.873478
H79	H	1.033739	-0.478063	0.798827
H80	H	0.965462	-0.540251	0.784885
H81	H	1.031120	-0.636635	0.757238
H82	H	1.099402	-0.574438	0.771162
H83	H	1.047244	-0.579184	0.707225
H84	H	0.179061	-0.509073	0.376227
H85	H	0.552132	-0.303822	0.225008
C86	C	1.014554	-0.530913	1.026072
C87	C	1.047465	-0.579213	0.970768
C88	C	1.082176	-0.630141	0.999594
H89	H	1.049306	-0.500719	1.061592
H90	H	0.981017	-0.562904	1.047613
H91	H	1.080999	-0.547227	0.949238
H92	H	1.012729	-0.609425	0.935244
H93	H	1.048639	-0.662132	1.021135
H94	H	1.116925	-0.599940	1.035114
H95	H	1.104505	-0.662924	0.962074
C96	C	0.791466	-0.699632	0.150769
C97	C	0.840593	-0.656023	0.115533
C98	C	0.804702	-0.614826	0.076411
H99	H	0.759503	-0.736116	0.116015
H100	H	0.765765	-0.664771	0.182893
H101	H	0.866281	-0.690881	0.083412
H102	H	0.872557	-0.619525	0.150270
H103	H	0.779002	-0.579964	0.108535
H104	H	0.772741	-0.651315	0.041661
H105	H	0.838030	-0.585226	0.052504
H106	H	0.684279	-0.309590	0.229255
H107	H	0.215958	-0.332876	0.246430
H108	H	0.957663	-0.710066	0.331312
H109	H	1.000376	-0.758780	0.377676
C110	C	0.891630	-1.118942	0.259419
C111	C	0.912540	-1.102795	0.193546
C112	C	0.862350	-1.144227	0.138881
H113	H	0.888274	-1.174050	0.255716
H114	H	0.846754	-1.102881	0.270723
H115	H	0.957403	-1.118861	0.182244
H116	H	0.915891	-1.047695	0.197226
H117	H	0.817473	-1.128165	0.150184
H118	H	0.858998	-1.199333	0.135184
H119	H	0.876526	-1.133271	0.094180
C120	C	0.318205	-0.528479	0.390572
C121	C	0.261819	-0.568913	0.420390
C122	C	0.287926	-0.619088	0.457413
H123	H	0.341515	-0.565482	0.357935
H124	H	0.350846	-0.498078	0.428109
H125	H	0.229190	-0.599312	0.382858
H126	H	0.238504	-0.531930	0.453038
H127	H	0.320567	-0.588687	0.494951
H128	H	0.311235	-0.656087	0.424771
H129	H	0.249673	-0.646523	0.477655
C130	C	0.869764	-0.318969	0.905203
C131	C	0.818678	-0.363796	0.852849
C132	C	0.783914	-0.313117	0.823739
H133	H	0.847315	-0.286129	0.942560
H134	H	0.903288	-0.287031	0.883599
H135	H	0.785160	-0.395721	0.874453
H136	H	0.841109	-0.396634	0.815478
H137	H	0.817437	-0.281179	0.802135
H138	H	0.761469	-0.280279	0.861101
H139	H	0.749253	-0.343525	0.788209
C140	C	0.997827	-0.506687	0.546359
C141	C	0.992426	-0.498863	0.475316
C142	C	1.029382	-0.553125	0.430117
H143	H	1.046327	-0.496649	0.562078
H144	H	0.978047	-0.558847	0.548161
H145	H	1.012209	-0.446715	0.473517
H146	H	0.943935	-0.508909	0.459575
H147	H	1.009602	-0.605285	0.431919
H148	H	1.077880	-0.543082	0.445842
H149	H	1.025717	-0.547829	0.381908
H150	H	0.348092	-0.338655	0.250670
H151	H	1.061741	-1.106933	0.444241
C152	C	1.079391	-0.822185	0.463482
C153	C	1.107892	-0.875845	0.494433
C154	C	1.158142	-0.834453	0.549053
H155	H	1.116265	-0.792531	0.443489
H156	H	1.057264	-0.787367	0.499543
H157	H	1.130019	-0.910649	0.458378
H158	H	1.071036	-0.905501	0.514441
H159	H	1.136015	-0.799636	0.585114
H160	H	1.195011	-0.804801	0.529054
H161	H	1.177482	-0.870855	0.570064
H162	H	0.857721	-0.301294	0.587872
C163	C	0.783417	-0.995869	0.142308
C164	C	0.729255	-1.039502	0.172081
C165	C	0.678934	-1.081151	0.117624
H166	H	0.763916	-0.959655	0.121196
H167	H	0.805525	-1.030751	0.106285
H168	H	0.707150	-1.004623	0.208090
H169	H	0.748735	-1.075730	0.193187
H170	H	0.701041	-1.116033	0.081601
H171	H	0.659438	-1.044931	0.096516
H172	H	0.642183	-1.110766	0.137815
H173	H	0.862482	-1.059037	0.227970
H174	H	0.875000	-0.326339	1.047496
H175	H	0.853478	-0.295002	0.722190
H176	H	0.983606	-0.485687	0.693028
