data_functionalizedCrystal
_audit_creation_method	'MofGen! by Chris Wilmer'
_symmetry_space_group_name_H-M	'P1'
_symmetry_Int_Tables_number	1
_symmetry_cell_setting	triclinic
loop_
_symmetry_equiv_pos_as_xyz
  x,y,z
_cell_length_a	25.639242
_cell_length_b	25.639240
_cell_length_c	25.639234
_cell_angle_alpha	89.968234
_cell_angle_beta	89.980822
_cell_angle_gamma	90.025061
loop_
_atom_site_label
_atom_site_type_symbol
_atom_site_fract_x
_atom_site_fract_y
_atom_site_fract_z
Zn1	Zn	0.799271	-0.208292	-0.295607
Zn2	Zn	0.799197	-0.295719	-0.208160
Zn3	Zn	0.711840	-0.208288	-0.208183
Zn4	Zn	0.711802	-0.295686	-0.295562
O5	O	0.755528	-0.251996	-0.251878
O6	O	0.872427	-0.219905	-0.284016
O7	O	0.787593	-0.284134	-0.134998
O8	O	0.723486	-0.135123	-0.219808
O9	O	0.872372	-0.284137	-0.219770
O10	O	0.787721	-0.135126	-0.284038
O11	O	0.723413	-0.219898	-0.135015
O12	O	0.638670	-0.219866	-0.219765
O13	O	0.723420	-0.284081	-0.368733
O14	O	0.638642	-0.284077	-0.283962
O15	O	0.787684	-0.219872	-0.368766
O16	O	0.787556	-0.368880	-0.219726
O17	O	0.723348	-0.368856	-0.283940
C18	C	0.619685	-0.251968	-0.251861
C19	C	0.561571	-0.251969	-0.251867
C20	C	0.310414	-0.218610	-0.285392
C21	C	0.365019	-0.218605	-0.285390
O22	O	0.393286	-0.190219	-0.313891
N23	N	0.392297	-0.251990	-0.251884
C24	C	0.364969	-0.285387	-0.218383
O25	O	0.393185	-0.313784	-0.189885
C26	C	0.310365	-0.285394	-0.218389
C27	C	0.283089	-0.252003	-0.251893
C28	C	0.283138	-0.185221	-0.318894
C29	C	0.228538	-0.185226	-0.318896
C30	C	0.201213	-0.218619	-0.285397
C31	C	0.228489	-0.252007	-0.251895
C32	C	0.283038	-0.318793	-0.184892
C33	C	0.228431	-0.318798	-0.184901
C34	C	0.201155	-0.285407	-0.218405
C35	C	0.146564	-0.285405	-0.218398
N36	N	0.119285	-0.252019	-0.251904
C37	C	0.146610	-0.218626	-0.285403
C38	C	0.479639	-0.285370	-0.218374
C39	C	0.534241	-0.285360	-0.218365
C40	C	0.534288	-0.218578	-0.285372
C41	C	0.479684	-0.218585	-0.285378
C42	C	0.452361	-0.251984	-0.251879
C43	C	0.031945	-0.218638	-0.285404
C44	C	-0.022661	-0.218644	-0.285402
C45	C	-0.022702	-0.285428	-0.218397
C46	C	0.031898	-0.285420	-0.218398
C47	C	0.059221	-0.252023	-0.251905
O48	O	0.118261	-0.313778	-0.189913
O49	O	0.118387	-0.190239	-0.313902
C50	C	0.755454	-0.387839	-0.251837
C51	C	0.755470	-0.445953	-0.251837
C52	C	0.788991	-0.806279	-0.285383
C53	C	0.789007	-0.860883	-0.285394
O54	O	0.817420	-0.889088	-0.313874
N55	N	0.755600	-0.888235	-0.251929
C56	C	0.722172	-0.860980	-0.218455
O57	O	0.693758	-0.889259	-0.189991
C58	C	0.722154	-0.806377	-0.218447
C59	C	0.755567	-0.779028	-0.251911
C60	C	0.822401	-0.778929	-0.318844
C61	C	0.822386	-0.724329	-0.318833
C62	C	0.788962	-0.697078	-0.285360
C63	C	0.755552	-0.724427	-0.251899
C64	C	0.688724	-0.779123	-0.184976
C65	C	0.688709	-0.724516	-0.184972
C66	C	0.722122	-0.697167	-0.218435
C67	C	0.722113	-0.642575	-0.218415
N68	N	0.755520	-0.615223	-0.251880
C69	C	0.788944	-0.642474	-0.285353
C70	C	0.722211	-0.975651	-0.218474
C71	C	0.722231	-1.030253	-0.218478
C72	C	0.789065	-1.030152	-0.285418
C73	C	0.789048	-0.975549	-0.285411
C74	C	0.755618	-0.948299	-0.251939
C75	C	0.788911	-0.527809	-0.285326
C76	C	0.788894	-0.473204	-0.285310
C77	C	0.722058	-0.473310	-0.218372
C78	C	0.722076	-0.527910	-0.218386
C79	C	0.755504	-0.555159	-0.251867
O80	O	0.693713	-0.614336	-0.189951
O81	O	0.817348	-0.614189	-0.313816
C82	C	0.891901	-0.252025	-0.251896
C83	C	0.950015	-0.252037	-0.251903
C84	C	0.755556	-0.251973	-0.388251
C85	C	0.755568	-0.251963	-0.446365
C86	C	0.755616	-0.115623	-0.251931
C87	C	0.755654	-0.057509	-0.251953
C88	C	0.789000	-0.285368	-0.697543
C89	C	0.788995	-0.285379	-0.642938
O90	O	0.817396	-0.313838	-0.614688
N91	N	0.755579	-0.251938	-0.615639
C92	C	0.722163	-0.218488	-0.642947
O93	O	0.693740	-0.190045	-0.614714
C94	C	0.722167	-0.218480	-0.697551
C95	C	0.755588	-0.251919	-0.724847
C96	C	0.822419	-0.318805	-0.724839
C97	C	0.822425	-0.318793	-0.779440
C98	C	0.789013	-0.285344	-0.806744
C99	C	0.755594	-0.251907	-0.779448
C100	C	0.688748	-0.185033	-0.724858
C101	C	0.688754	-0.185028	-0.779465
C102	C	0.722176	-0.218467	-0.806761
C103	C	0.722188	-0.218447	-0.861352
N104	N	0.755604	-0.251888	-0.888651
C105	C	0.789016	-0.285336	-0.861347
C106	C	0.722158	-0.218508	-0.528277
C107	C	0.722157	-0.218513	-0.473674
C108	C	0.788988	-0.285404	-0.473669
C109	C	0.788992	-0.285396	-0.528272
C110	C	0.755574	-0.251948	-0.555576
C111	C	0.789026	-0.285309	-0.976012
C112	C	0.789031	-0.285293	-1.030618
C113	C	0.722198	-0.218403	-1.030618
C114	C	0.722195	-0.218417	-0.976018
C115	C	0.755611	-0.251874	-0.948716
O116	O	0.693800	-0.190004	-0.889638
O117	O	0.817430	-0.313779	-0.889588
C118	C	0.755529	-0.251982	-0.116036
C119	C	0.755619	-0.251844	-0.057922
H120	H	0.206335	-0.158037	-0.346181
H121	H	0.695029	-1.052517	-0.191223
O122	O	0.686172	-0.182316	-1.060072
H123	H	0.691794	-0.187929	-1.102626
H124	H	0.661541	-0.157790	-0.801693
O125	O	-0.052081	-0.182629	-0.321541
H126	H	-0.023903	-0.159413	-0.344837
O127	O	0.061317	-0.321432	-0.182257
H128	H	0.086191	-0.297994	-0.155697
H129	H	0.816127	-0.549989	-0.312593
H130	H	0.457480	-0.191394	-0.312659
O131	O	0.686151	-0.182351	-0.946571
H132	H	0.662917	-0.159092	-0.974734
O133	O	0.198959	-0.354817	-0.148765
H134	H	0.227102	-0.378029	-0.125467
O135	O	0.652657	-0.695124	-0.148864
H136	H	0.629432	-0.723319	-0.125596
H137	H	0.054184	-0.191443	-0.312689
H138	H	0.849628	-0.346045	-0.702614
O139	O	0.686011	-0.443909	-0.182271
H140	H	0.662781	-0.472097	-0.158999
O141	O	0.312606	-0.149195	-0.355022
H142	H	0.284458	-0.125980	-0.378311
O143	O	0.563764	-0.182563	-0.321510
H144	H	0.606314	-0.188176	-0.315879
O145	O	0.825024	-0.321481	-0.444208
H146	H	0.866067	-0.312518	-0.454694
H147	H	0.305236	-0.345985	-0.157609
O148	O	0.563658	-0.321367	-0.182221
H149	H	0.553169	-0.362416	-0.191110
O150	O	0.450169	-0.321385	-0.182232
H151	H	0.478315	-0.344591	-0.158931
H152	H	0.816105	-0.450938	-0.312560
O153	O	-0.052178	-0.321444	-0.182266
H154	H	-0.094729	-0.315838	-0.187904
H155	H	0.694948	-0.191265	-0.550504
O156	O	0.858432	-0.694833	-0.354918
H157	H	0.881674	-0.722963	-0.378191
H158	H	0.694873	-0.550179	-0.191133
H159	H	0.849619	-0.801112	-0.346105
H160	H	0.816249	-0.312523	-1.052840
H161	H	0.694990	-0.953466	-0.191213
O162	O	0.825087	-0.946051	-0.321501
H163	H	0.848330	-0.974180	-0.344775
O164	O	0.825112	-1.059549	-0.321530
H165	H	0.819502	-1.102112	-0.315915
H166	H	0.849638	-0.346024	-0.801659
O167	O	0.652682	-0.808614	-0.148887
H168	H	0.629435	-0.780483	-0.125619
H169	H	0.816206	-0.312626	-0.550493
H170	H	0.816240	-0.312550	-0.953790
H171	H	0.694948	-0.191277	-0.451454
O172	O	0.652706	-0.148961	-0.695424
H173	H	0.629474	-0.125707	-0.723593
