data_functionalizedCrystal
_audit_creation_method	'MofGen! by Chris Wilmer'
_symmetry_space_group_name_H-M	'P1'
_symmetry_Int_Tables_number	1
_symmetry_cell_setting	triclinic
loop_
_symmetry_equiv_pos_as_xyz
  x,y,z
_cell_length_a	19.077367
_cell_length_b	19.077263
_cell_length_c	19.076919
_cell_angle_alpha	89.924196
_cell_angle_beta	94.478002
_cell_angle_gamma	89.904527
loop_
_atom_site_label
_atom_site_type_symbol
_atom_site_fract_x
_atom_site_fract_y
_atom_site_fract_z
Zn1	Zn	-1.072266	-0.251019	0.344962
Zn2	Zn	-0.572266	0.248981	0.844962
Zn3	Zn	-1.081663	-0.363417	0.222397
Zn4	Zn	-0.581663	0.136583	0.722397
Zn5	Zn	-0.959122	-0.251036	0.231812
Zn6	Zn	-0.459122	0.248964	0.731812
Zn7	Zn	-0.959504	-0.373192	0.344555
Zn8	Zn	-0.459504	0.126808	0.844555
O9	O	-1.018139	-0.309666	0.285932
O10	O	-0.518139	0.190334	0.785932
O11	O	-1.171988	-0.261831	0.324933
O12	O	-0.671988	0.238169	0.824933
O13	O	-1.069181	-0.344426	0.125169
O14	O	-0.569181	0.155574	0.625169
O15	O	-0.970038	-0.152873	0.250932
O16	O	-0.470038	0.347127	0.750932
O17	O	-1.178892	-0.344409	0.234886
O18	O	-0.678892	0.155591	0.734886
O19	O	-1.053164	-0.152860	0.334062
O20	O	-0.553164	0.347140	0.834062
O21	O	-0.979150	-0.261860	0.132086
O22	O	-0.479150	0.238140	0.632086
O23	O	-0.860697	-0.271339	0.250538
O24	O	-0.360697	0.228661	0.750538
O25	O	-0.970690	-0.361070	0.443086
O26	O	-0.470690	0.138930	0.943086
O27	O	-0.860978	-0.361086	0.333370
O28	O	-0.360978	0.138914	0.833370
O29	O	-1.053535	-0.271310	0.443385
O30	O	-0.553535	0.228690	0.943385
O31	O	-1.069551	-0.462876	0.234492
O32	O	-0.569551	0.037124	0.734492
O33	O	-0.979802	-0.470057	0.324240
O34	O	-0.479802	0.029943	0.824240
C35	C	-0.835304	-0.317276	0.292932
C36	C	-0.335304	0.182724	0.792932
C37	C	-0.757087	-0.320549	0.295942
C38	C	-0.257087	0.179451	0.795942
C39	C	-1.025756	-0.491918	0.278315
C40	C	-0.525756	0.008082	0.778315
C41	C	-1.029079	-0.569885	0.275077
C42	C	-0.529079	-0.069885	0.775077
C43	C	-1.011107	-0.317278	0.469483
C44	C	-0.511107	0.182722	0.969483
C45	C	-1.008110	-0.320522	0.547702
C46	C	-0.508110	0.179478	1.047702
C47	C	-0.720168	-0.275295	0.254307
C48	C	-0.220168	0.224705	0.754307
C49	C	-0.646674	-0.278376	0.257136
C50	C	-0.146674	0.221624	0.757136
C51	C	-0.610102	-0.326708	0.301603
C52	C	-0.110102	0.173292	0.801603
C53	C	-0.647026	-0.371967	0.343240
C54	C	-0.147026	0.128033	0.843240
C55	C	-0.720518	-0.368888	0.340407
C56	C	-0.220518	0.131112	0.840407
C57	C	-0.390322	-0.340936	0.314687
C58	C	0.109678	0.159064	0.814687
C59	C	-0.316825	-0.344010	0.317518
C60	C	0.183175	0.155990	0.817518
C61	C	-0.316478	-0.250420	0.231413
C62	C	0.183522	0.249580	0.731413
C63	C	-0.389971	-0.247343	0.228588
C64	C	0.110029	0.252657	0.728588
C65	C	-0.426890	-0.292603	0.270221
C66	C	0.073110	0.207397	0.770221
N67	N	-0.534979	-0.329858	0.304497
N68	N	-0.034979	0.170142	0.804497
N69	N	-0.502011	-0.289457	0.267324
N70	N	-0.002011	0.210543	0.767324
C71	C	-0.201688	-0.302024	0.278898
C72	C	0.298312	0.197976	0.778898
C73	C	-0.279905	-0.298756	0.275884
C74	C	0.220095	0.201244	0.775884
C75	C	-1.010510	-0.126702	0.293593
C76	C	-0.510510	0.373298	0.793593
C77	C	-1.007259	-0.048734	0.296858
C78	C	-0.507259	0.451266	0.796858
C79	C	-0.983883	0.389740	0.320267
C80	C	-0.483883	0.889740	0.820267
C81	C	-0.986946	0.316481	0.317193
C82	C	-0.486946	0.816481	0.817193
C83	C	-1.035209	0.283599	0.268932
C84	C	-0.535209	0.783599	0.768932
C85	C	-1.080406	0.323979	0.223738
C86	C	-0.580406	0.823979	0.723738
C87	C	-1.077339	0.397236	0.226809
C88	C	-0.577339	0.897236	0.726809
C89	C	-1.049390	0.064904	0.254734
C90	C	-0.549390	0.564904	0.754734
C91	C	-1.052455	-0.008359	0.251668
C92	C	-0.552455	0.491641	0.751668
C93	C	-0.958994	-0.015852	0.345122
C94	C	-0.458994	0.484148	0.845122
C95	C	-0.955934	0.057408	0.348192
C96	C	-0.455934	0.557408	0.848192
C97	C	-1.001128	0.097781	0.302995
C98	C	-0.501128	0.597781	0.802995
N99	N	-1.038343	0.208716	0.265791
N100	N	-0.538343	0.708716	0.765791
N101	N	-0.997991	0.172662	0.306134
N102	N	-0.497991	0.672662	0.806134
C103	C	-1.025182	-0.302032	0.103095
C104	C	-0.525182	0.197968	0.603095
C105	C	-1.028306	-0.298585	0.024879
C106	C	-0.528306	0.201415	0.524879
C107	C	-1.049834	-0.275315	0.584606
C108	C	-0.549834	0.224685	1.084606
C109	C	-1.047009	-0.278360	0.658101
C110	C	-0.547009	0.221640	1.158101
C111	C	-1.002465	-0.326617	0.694691
C112	C	-0.502465	0.173383	1.194691
C113	C	-0.960737	-0.371826	0.657782
C114	C	-0.460737	0.128174	1.157782
C115	C	-0.963558	-0.368777	0.584288
C116	C	-0.463558	0.131223	1.084288
C117	C	-0.989399	-0.340745	0.914477
C118	C	-0.489399	0.159255	1.414477
C119	C	-0.986583	-0.343792	0.987975
C120	C	-0.486583	0.156208	1.487975
C121	C	-1.072855	-0.250325	0.988290
C122	C	-0.572855	0.249675	1.488290
C123	C	-1.075675	-0.247283	0.914794
C124	C	-0.575675	0.252717	1.414794
C125	C	-1.033944	-0.292489	0.877892
C126	C	-0.533944	0.207511	1.377892
N127	N	-0.999579	-0.329732	0.769815
N128	N	-0.499579	0.170268	1.269815
N129	N	-1.036827	-0.289370	0.802770
N130	N	-0.536827	0.210630	1.302770
H131	H	-0.749939	-0.235933	0.218103
H132	H	-0.249939	0.264067	0.718103
H133	H	-1.106828	-0.213519	1.018344
H134	H	-0.606828	0.286481	1.518344
H135	H	-0.287049	-0.383367	0.353734
H136	H	0.212951	0.116633	0.853734
H137	H	-0.944586	0.416508	0.359568
H138	H	-0.444586	0.916508	0.859568
H139	H	-0.916634	0.084179	0.387489
H140	H	-0.416634	0.584179	0.887489
H141	H	-0.929575	-0.405582	0.554242
H142	H	-0.429575	0.094418	1.054242
H143	H	-1.080987	-0.241549	0.688145
H144	H	-0.580987	0.258451	1.188145
H145	H	-0.750577	-0.405739	0.374311
H146	H	-0.250577	0.094261	0.874311
H147	H	-0.950137	0.283611	0.353985
H148	H	-0.450137	0.783611	0.853985
H149	H	-0.950308	-0.383090	1.017765
H150	H	-0.450308	0.116910	1.517765
H151	H	-0.955430	-0.377565	0.884439
H152	H	-0.455430	0.122435	1.384439
H153	H	-0.616618	-0.241530	0.223228
H154	H	-0.116618	0.258470	0.723228
H155	H	-1.086109	-0.236021	0.554820
H156	H	-0.586109	0.263979	1.054820
H157	H	-1.119700	0.297200	0.184441
H158	H	-0.619700	0.797200	0.684441
H159	H	-1.111950	-0.207989	0.885008
H160	H	-0.611950	0.292011	1.385008
H161	H	-0.924466	-0.411115	0.687579
H162	H	-0.424466	0.088885	1.187579
H163	H	-0.419744	-0.207990	0.192372
H164	H	0.080256	0.292010	0.692372
H165	H	-0.286411	-0.213571	0.197517
H166	H	0.213589	0.286429	0.697517
H167	H	-0.420372	-0.377791	0.348589
H168	H	0.079628	0.122209	0.848589
H169	H	-0.922198	-0.048732	0.381918
H170	H	-0.422198	0.451268	0.881918
H171	H	-0.617243	-0.411323	0.379443
H172	H	-0.117243	0.088677	0.879443
H173	H	-1.091760	-0.035130	0.212369
H174	H	-0.591760	0.464870	0.712369
H175	H	-1.086190	0.097771	0.217935
H176	H	-0.586190	0.597771	0.717935
H177	H	-1.114141	0.430109	0.190011
H178	H	-0.614141	0.930109	0.690011
