data_functionalizedCrystal
_audit_creation_method	'MofGen! by Chris Wilmer'
_symmetry_space_group_name_H-M	'P1'
_symmetry_Int_Tables_number	1
_symmetry_cell_setting	triclinic
loop_
_symmetry_equiv_pos_as_xyz
  x,y,z
_cell_length_a	10.654545
_cell_length_b	17.699092
_cell_length_c	9.130313
_cell_angle_alpha	90.001312
_cell_angle_beta	90.003278
_cell_angle_gamma	83.884723
loop_
_atom_site_label
_atom_site_type_symbol
_atom_site_fract_x
_atom_site_fract_y
_atom_site_fract_z
O1	O	1.665988	0.106284	0.121779
O2	O	1.300332	0.116416	0.121784
O3	O	1.493485	0.001227	0.121778
O4	O	1.472835	0.221473	0.121785
O5	O	1.493471	0.001227	-0.121821
O6	O	1.300318	0.116416	-0.121815
O7	O	1.665974	0.106284	-0.121820
Cu8	Cu	1.483144	0.111350	-0.144060
Cu9	Cu	1.483161	0.111350	0.144024
O10	O	1.472820	0.221473	-0.121814
C11	C	1.253540	0.115672	-0.000014
C12	C	1.114135	0.113449	-0.000012
C13	C	1.048641	0.112402	-0.132799
C14	C	0.917658	0.110301	-0.132799
C15	C	0.917675	0.110295	0.132786
C16	C	1.048656	0.112392	0.132785
C17	C	1.492736	-0.026975	-0.000019
C18	C	1.490511	-0.111007	-0.000012
C19	C	1.489477	-0.150481	0.132775
C20	C	1.487378	-0.229437	0.132777
C21	C	1.486323	-0.268919	-0.000010
C22	C	1.487354	-0.229439	-0.132808
C23	C	1.489443	-0.150483	-0.132808
C24	C	1.478924	-0.547857	-0.132810
C25	C	1.476838	-0.626819	-0.132800
C26	C	1.476859	-0.626811	0.132775
C27	C	1.478948	-0.547856	0.132775
C28	C	1.479973	-0.508382	-0.000022
C29	C	1.482246	-0.422769	-0.000022
C30	C	1.484058	-0.354531	-0.000012
C31	C	1.712766	0.107027	-0.000018
C32	C	1.852171	0.109251	-0.000011
C33	C	1.473569	0.249675	-0.000013
C34	C	1.475794	0.333707	-0.000011
N35	N	1.483141	0.111350	-0.346682
C36	C	1.559164	0.157680	-0.423329
C37	C	1.559184	0.157675	-0.576665
C38	C	1.407149	0.065009	-0.576696
C39	C	1.407136	0.065010	-0.423362
N40	N	1.483174	0.111344	0.346647
H41	H	1.101983	0.113242	0.240922
H42	H	1.486541	-0.261574	0.240906
C43	C	1.599683	-0.069630	-0.286901
C44	C	1.490578	-0.107092	-0.278775
H45	H	1.600371	-0.042841	-0.377015
H46	H	1.672060	-0.105816	-0.281392
H47	H	1.600597	-0.034818	-0.207815
H48	H	1.489668	-0.141909	-0.357855
H49	H	1.418182	-0.070902	-0.284298
H50	H	1.621091	0.195401	-0.639064
H51	H	1.479814	-0.515714	0.240904
H52	H	1.345266	0.027281	-0.639148
C53	C	1.377095	-0.310302	-0.286877
C54	C	1.486200	-0.272839	-0.278769
H55	H	1.376394	-0.337098	-0.376985
H56	H	1.304718	-0.274116	-0.281370
H57	H	1.376193	-0.345109	-0.207783
H58	H	1.487098	-0.238027	-0.357857
H59	H	1.558596	-0.309029	-0.284290
H60	H	1.490343	-0.118341	0.240906
C61	C	1.196855	0.034115	-0.376189
C62	C	1.323556	0.014082	-0.339107
H63	H	1.145262	0.002677	-0.324167
H64	H	1.185994	0.027481	-0.478471
H65	H	1.173378	0.085771	-0.351053
H66	H	1.347036	-0.037573	-0.364253
H67	H	1.334423	0.020710	-0.236802
C68	C	1.368289	-0.643169	0.359138
C69	C	1.475693	-0.670205	0.278747
H70	H	1.367571	-0.669957	0.449252
H71	H	1.294758	-0.650718	0.304563
H72	H	1.369710	-0.590497	0.378138
H73	H	1.474268	-0.722876	0.259737
H74	H	1.549242	-0.662663	0.333333
C75	C	0.756015	0.172883	-0.286859
C76	C	0.845660	0.109148	-0.278757
H77	H	0.711563	0.172165	-0.376968
H78	H	0.797394	0.217752	-0.281348
H79	H	0.698280	0.171947	-0.207766
H80	H	0.903401	0.110086	-0.357845
H81	H	0.804279	0.064267	-0.284283
C82	C	1.476995	-0.618897	-0.395332
C83	C	1.475663	-0.670217	-0.278771
H84	H	1.476262	-0.645691	-0.485441
H85	H	1.551008	-0.593489	-0.389828
H86	H	1.404601	-0.582713	-0.389790
H87	H	1.548062	-0.706399	-0.284307
H88	H	1.401642	-0.695638	-0.284278
H89	H	1.479783	-0.515729	-0.240941
H90	H	1.101950	0.113263	-0.240930
H91	H	0.864345	0.109435	0.240904
H92	H	1.621053	0.195413	-0.360900
