data_functionalizedCrystal
_audit_creation_method	'MofGen! by Chris Wilmer'
_symmetry_space_group_name_H-M	'P1'
_symmetry_Int_Tables_number	1
_symmetry_cell_setting	triclinic
loop_
_symmetry_equiv_pos_as_xyz
  x,y,z
_cell_length_a	11.792241
_cell_length_b	11.792254
_cell_length_c	16.776229
_cell_angle_alpha	89.993192
_cell_angle_beta	89.997077
_cell_angle_gamma	84.196007
loop_
_atom_site_label
_atom_site_type_symbol
_atom_site_fract_x
_atom_site_fract_y
_atom_site_fract_z
O1	O	1.506920	0.155570	-0.066211
O2	O	1.176580	0.171602	-0.066230
O3	O	1.349759	-0.001584	-0.066214
O4	O	1.333741	0.328756	-0.066227
O5	O	1.349735	-0.001594	0.066362
O6	O	1.176556	0.171592	0.066347
O7	O	1.506897	0.155559	0.066365
Zn8	Zn	1.341723	0.163573	0.087405
Zn9	Zn	1.341753	0.163588	-0.087270
O10	O	1.333718	0.328745	0.066350
C11	C	1.134277	0.170590	0.000056
C12	C	1.008263	0.167576	0.000049
C13	C	0.777551	0.162033	0.000072
C14	C	0.905936	0.165112	0.000060
C15	C	1.348738	-0.043880	0.000074
C16	C	1.345718	-0.169893	0.000073
C17	C	1.343264	-0.272229	0.000070
C18	C	1.340196	-0.400616	0.000062
C19	C	1.549199	0.156571	0.000078
C20	C	1.675213	0.159586	0.000079
C21	C	1.334738	0.371041	0.000060
C22	C	1.337758	0.497054	0.000056
N23	N	1.341710	0.163563	0.206617
N24	N	1.341775	0.163589	-0.206481
C25	C	1.418418	0.086908	0.248341
C26	C	1.418424	0.086907	0.331793
C27	C	1.341727	0.163568	0.373520
C28	C	1.265012	0.240226	0.331790
C29	C	1.265001	0.240221	0.248339
C30	C	1.265053	0.240249	0.668337
C31	C	1.265072	0.240251	0.751793
C32	C	1.418476	0.086935	0.751791
C33	C	1.418465	0.086930	0.668340
C34	C	1.341746	0.163584	0.626617
C35	C	1.341739	0.163582	0.536129
C36	C	1.341739	0.163575	0.464006
H37	H	1.480877	0.024487	0.214372
H38	H	1.202612	0.302679	0.785766
C39	C	1.502799	0.002588	0.377689
H40	H	1.491813	0.013557	0.433366
H41	H	1.578620	0.015424	0.364007
H42	H	1.489999	-0.073250	0.364019
H43	H	1.202558	0.302641	0.365769
C44	C	1.502827	0.002600	0.622445
H45	H	1.548506	-0.043062	0.659247
H46	H	1.550319	0.043742	0.589878
H47	H	1.461693	-0.044927	0.589904
C48	C	1.502855	0.002604	0.797687
H49	H	1.491873	0.013573	0.853364
H50	H	1.578676	0.015441	0.784003
H51	H	1.490055	-0.073234	0.784017
C52	C	1.180675	0.324574	0.622453
H53	H	1.135011	0.370238	0.659258
H54	H	1.133170	0.283430	0.589908
H55	H	1.221796	0.372100	0.589890
H56	H	1.202537	0.302639	0.214368
