data_functionalizedCrystal
_audit_creation_method	'MofGen! by Chris Wilmer'
_symmetry_space_group_name_H-M	'P1'
_symmetry_Int_Tables_number	1
_symmetry_cell_setting	triclinic
loop_
_symmetry_equiv_pos_as_xyz
  x,y,z
_cell_length_a	8.559649
_cell_length_b	12.996460
_cell_length_c	8.597304
_cell_angle_alpha	97.700122
_cell_angle_beta	77.624695
_cell_angle_gamma	90.005408
loop_
_atom_site_label
_atom_site_type_symbol
_atom_site_fract_x
_atom_site_fract_y
_atom_site_fract_z
O1	O	2.119302	0.080838	-0.053153
O2	O	2.452636	0.414172	0.280180
O3	O	2.785969	0.747505	0.613513
O4	O	1.655363	0.088015	0.027746
O5	O	1.988696	0.421348	0.361079
O6	O	2.322030	0.754681	0.694413
O7	O	1.896461	0.064073	-0.242269
O8	O	2.229794	0.397406	0.091065
O9	O	2.563127	0.730739	0.424398
O10	O	1.878205	0.104780	0.216861
O11	O	2.211538	0.438114	0.550195
O12	O	2.544871	0.771447	0.883528
O13	O	1.896429	-0.107060	-0.242251
O14	O	2.229763	0.226274	0.091082
O15	O	2.563096	0.559607	0.424416
O16	O	1.655332	-0.083118	0.027764
O17	O	1.988665	0.250216	0.361097
O18	O	2.321998	0.583549	0.694431
O19	O	2.119271	-0.090294	-0.053136
O20	O	2.452604	0.243039	0.280198
O21	O	2.785938	0.576373	0.613531
Cu22	Cu	1.887298	-0.102332	-0.012684
Cu23	Cu	2.220632	0.231002	0.320649
Cu24	Cu	2.553965	0.564335	0.653982
Cu25	Cu	1.887336	0.100052	-0.012705
Cu26	Cu	2.220669	0.433385	0.320628
Cu27	Cu	2.554002	0.766719	0.653961
O28	O	1.878173	-0.066352	0.216879
O29	O	2.211507	0.266981	0.550212
O30	O	2.544840	0.600315	0.883546
C31	C	1.595913	0.002993	0.033886
C32	C	1.929247	0.336326	0.367219
C33	C	2.262580	0.669659	0.700552
C34	C	1.418819	0.004612	0.052135
C35	C	1.752152	0.337945	0.385468
C36	C	2.085485	0.671279	0.718801
N37	N	1.887284	-0.244678	-0.012672
N38	N	2.220617	0.088656	0.320661
N39	N	2.553951	0.421989	0.653995
C40	C	1.887291	-0.337783	-0.012669
C41	C	2.220625	-0.004450	0.320664
C42	C	2.553958	0.328883	0.653998
C43	C	1.887306	-0.454589	-0.012681
C44	C	2.220639	-0.121256	0.320652
C45	C	2.553973	0.212077	0.653986
C46	C	1.887326	-0.547689	-0.012701
C47	C	2.220659	-0.214356	0.320632
C48	C	2.553992	0.118977	0.653966
C49	C	1.887343	-0.664503	-0.012712
C50	C	2.220676	-0.331170	0.320622
C51	C	2.554009	0.002164	0.653955
C52	C	2.178721	-0.005270	-0.059275
C53	C	2.512054	0.328064	0.274058
C54	C	2.845387	0.661397	0.607391
C55	C	2.355816	-0.006882	-0.077524
C56	C	2.689149	0.326451	0.255809
C57	C	3.022482	0.659784	0.589142
C58	C	1.894483	-0.026655	-0.300494
C59	C	2.227817	0.306679	0.032839
C60	C	2.561150	0.640012	0.366172
C61	C	1.888619	-0.042032	-0.474013
C62	C	2.221952	0.291301	-0.140679
C63	C	2.555285	0.624634	0.192654
N64	N	1.887362	0.242397	-0.012732
N65	N	2.220696	0.575730	0.320602
N66	N	2.554029	0.909064	0.653935
C67	C	1.880151	0.024377	0.275105
C68	C	2.213484	0.357711	0.608438
C69	C	2.546817	0.691044	0.941771
C70	C	1.886015	0.039762	0.448623
C71	C	2.219349	0.373095	0.781956
C72	C	2.552682	0.706429	1.115290
H73	H	1.337266	0.015698	0.177111
H74	H	1.670600	0.349032	0.510444
H75	H	2.003933	0.682365	0.843778
Br76	Br	1.889774	0.176105	-0.440524
Br77	Br	2.223107	0.509438	-0.107191
Br78	Br	2.556440	0.842772	0.226142
Br79	Br	1.884822	-0.178381	-0.584861
Br80	Br	2.218155	0.154953	-0.251528
Br81	Br	2.551489	0.488286	0.081805
H82	H	1.437359	-0.017957	-0.202492
H83	H	1.770692	0.315376	0.130841
H84	H	2.104025	0.648709	0.464174
