data_functionalizedCrystal
_audit_creation_method	'MofGen! by Chris Wilmer'
_symmetry_space_group_name_H-M	'P1'
_symmetry_Int_Tables_number	1
_symmetry_cell_setting	triclinic
loop_
_symmetry_equiv_pos_as_xyz
  x,y,z
_cell_length_a	12.594517
_cell_length_b	12.594516
_cell_length_c	11.169409
_cell_angle_alpha	90.031354
_cell_angle_beta	90.023484
_cell_angle_gamma	90.015853
loop_
_atom_site_label
_atom_site_type_symbol
_atom_site_fract_x
_atom_site_fract_y
_atom_site_fract_z
Zn1	Zn	1.627290	-0.423662	0.678668
Zn2	Zn	1.627174	-0.601688	0.477988
Zn3	Zn	1.449287	-0.423723	0.477990
Zn4	Zn	1.449276	-0.601598	0.678621
O5	O	1.538256	-0.512668	0.578317
O6	O	1.776220	-0.447289	0.652067
O7	O	1.603533	-0.578144	0.310039
O8	O	1.472952	-0.274769	0.504631
O9	O	1.776135	-0.578084	0.504628
O10	O	1.603730	-0.274724	0.652068
O11	O	1.472840	-0.447394	0.310040
O12	O	1.300340	-0.447307	0.504584
O13	O	1.472933	-0.577931	0.846577
O14	O	1.300331	-0.577990	0.651987
O15	O	1.603720	-0.447202	0.846612
O16	O	1.603522	-0.750622	0.504582
O17	O	1.472821	-0.750556	0.651986
C18	C	1.261716	-0.512646	0.578281
C19	C	1.143410	-0.512663	0.578295
C20	C	1.074130	-0.441487	0.498275
C21	C	1.003319	-0.538578	0.468759
C22	C	1.003423	-0.415619	0.607832
C23	C	1.074156	-0.609805	0.548721
C24	C	1.074267	-0.486781	0.687845
C25	C	1.003487	-0.583939	0.658370
C26	C	1.538187	-0.789209	0.578305
C27	C	1.538254	-0.907514	0.578340
C28	C	1.467159	-0.976770	0.658456
C29	C	1.441222	-1.047644	0.548941
C30	C	1.564288	-1.047439	0.687874
C31	C	1.512266	-0.976830	0.468767
C32	C	1.635377	-0.976619	0.607773
C33	C	1.609477	-1.047461	0.498183
C34	C	1.815877	-0.512690	0.578353
C35	C	1.934183	-0.512699	0.578368
C36	C	1.538338	-0.512549	0.891359
C37	C	1.538373	-0.512499	1.024759
C38	C	1.538356	-0.235047	0.578355
C39	C	1.538398	-0.116741	0.578371
C40	C	1.538236	-0.512708	0.266492
C41	C	1.538408	-0.512459	0.133093
H42	H	1.105455	-0.464837	0.780429
O43	O	1.332511	-1.088972	0.515969
H44	H	1.310458	-1.059461	0.425705
H45	H	1.586250	-1.078455	0.780493
O46	O	1.483056	-0.935929	0.346042
H47	H	1.402755	-0.965081	0.321541
H48	H	1.717427	-0.945401	0.632695
O49	O	1.115242	-0.361839	0.408539
H50	H	1.086827	-0.383600	0.317701
H51	H	1.406929	-0.945730	0.726110
H52	H	0.972297	-0.333546	0.632742
O53	O	1.689204	-1.088327	0.408365
H54	H	1.667404	-1.059895	0.317583
O55	O	0.962651	-0.663778	0.748047
H56	H	0.914199	-0.622358	0.816662
O57	O	0.962025	-0.567611	0.346092
H58	H	0.990307	-0.508401	0.279795
H59	H	1.105097	-0.691913	0.523667
