data_functionalizedCrystal
_audit_creation_method	'MofGen! by Chris Wilmer'
_symmetry_space_group_name_H-M	'P1'
_symmetry_Int_Tables_number	1
_symmetry_cell_setting	triclinic
loop_
_symmetry_equiv_pos_as_xyz
  x,y,z
_cell_length_a	25.639242
_cell_length_b	16.994731
_cell_length_c	25.639233
_cell_angle_alpha	89.941183
_cell_angle_beta	90.022166
_cell_angle_gamma	89.943069
loop_
_atom_site_label
_atom_site_type_symbol
_atom_site_fract_x
_atom_site_fract_y
_atom_site_fract_z
Zn1	Zn	0.799556	-0.314219	0.296024
Zn2	Zn	0.799619	-0.446104	0.208707
Zn3	Zn	0.712133	-0.314207	0.208588
Zn4	Zn	0.712217	-0.446075	0.296097
O5	O	0.755881	-0.380151	0.252354
O6	O	0.872730	-0.331731	0.284461
O7	O	0.788005	-0.428615	0.135526
O8	O	0.723668	-0.203827	0.220107
O9	O	0.872776	-0.428626	0.220309
O10	O	0.787898	-0.203836	0.284346
O11	O	0.723729	-0.331711	0.135439
O12	O	0.638979	-0.331683	0.220177
O13	O	0.723812	-0.428576	0.369253
O14	O	0.639041	-0.428565	0.284469
O15	O	0.787980	-0.331702	0.369199
O16	O	0.788086	-0.556481	0.220380
O17	O	0.723872	-0.556460	0.284585
C18	C	0.620039	-0.380120	0.252319
C19	C	0.561925	-0.380126	0.252316
C20	C	0.755910	-0.674411	0.252392
C21	C	0.755956	-0.585089	0.252462
Zn22	Zn	0.799462	-0.814187	0.208521
Zn23	Zn	0.799546	-0.946353	0.295832
Zn24	Zn	0.711977	-0.945825	0.208541
Zn25	Zn	0.712205	-0.814238	0.296056
O26	O	0.755797	-0.880151	0.252237
O27	O	0.872638	-0.831919	0.220001
O28	O	0.787870	-1.056664	0.284167
O29	O	0.723452	-0.928120	0.135373
O30	O	0.872700	-0.929021	0.284148
O31	O	0.787726	-0.831407	0.135358
O32	O	0.723533	-1.056276	0.220035
O33	O	0.638842	-0.928170	0.220252
O34	O	0.723839	-0.703851	0.284529
O35	O	0.639009	-0.831494	0.284549
O36	O	0.787947	-0.703813	0.220218
O37	O	0.788090	-0.929070	0.369027
O38	O	0.723921	-0.832006	0.369191
C39	C	0.201603	-0.430682	0.285799
C40	C	0.146999	-0.430687	0.285808
O41	O	0.118797	-0.473633	0.314247
N42	N	0.119642	-0.380173	0.252388
C43	C	0.146893	-0.329645	0.218962
O44	O	0.118611	-0.286679	0.190537
C45	C	0.201496	-0.329637	0.218957
C46	C	0.228850	-0.380160	0.252375
C47	C	0.228956	-0.481200	0.319215
C48	C	0.283557	-0.481196	0.319206
C49	C	0.310804	-0.430674	0.285781
C50	C	0.283450	-0.380156	0.252366
C51	C	0.228746	-0.279106	0.185534
C52	C	0.283353	-0.279101	0.185532
C53	C	0.310707	-0.329624	0.218950
C54	C	0.365298	-0.329630	0.218932
N55	N	0.392654	-0.380144	0.252351
C56	C	0.365407	-0.430666	0.285776
C57	C	0.032223	-0.329665	0.218976
C58	C	-0.022380	-0.329677	0.218979
C59	C	-0.022271	-0.430718	0.285825
C60	C	0.032333	-0.430710	0.285820
C61	C	0.059579	-0.380179	0.252396
C62	C	0.480072	-0.430654	0.285754
C63	C	0.534678	-0.430648	0.285741
C64	C	0.534564	-0.329604	0.218896
C65	C	0.479963	-0.329613	0.218908
C66	C	0.452719	-0.380141	0.252341
O67	O	0.393534	-0.286703	0.190509
O68	O	0.393696	-0.473618	0.314201
C69	C	0.892254	-0.380183	0.252390
C70	C	0.950368	-0.380196	0.252405
C71	C	0.755898	-0.380137	0.388727
C72	C	0.755905	-0.380131	0.446841
C73	C	0.755763	-0.174411	0.252204
C74	C	0.755714	-0.085088	0.252139
C75	C	0.755895	-0.380108	0.116512
C76	C	0.755988	-0.379892	0.058398
C77	C	0.789360	-0.329539	0.807182
C78	C	0.789366	-0.329517	0.861787
O79	O	0.817768	-0.286595	0.890004
N80	N	0.755963	-0.379946	0.889124
C81	C	0.722547	-0.430395	0.861854
O82	O	0.694135	-0.473286	0.890120
C83	C	0.722538	-0.430412	0.807251
C84	C	0.755948	-0.379985	0.779916
C85	C	0.822766	-0.279116	0.779848
C86	C	0.822760	-0.279139	0.725247
C87	C	0.789348	-0.329585	0.697981
C88	C	0.755942	-0.380009	0.725316
C89	C	0.689120	-0.480856	0.779982
C90	C	0.689114	-0.480869	0.725375
C91	C	0.722523	-0.430442	0.698040
C92	C	0.722524	-0.430478	0.643449
N93	N	0.755927	-0.380049	0.616112
C94	C	0.789339	-0.329603	0.643378
C95	C	0.722567	-0.430354	0.976525
C96	C	0.722578	-0.430341	1.031127
C97	C	0.789397	-0.329462	1.031056
C98	C	0.789388	-0.329480	0.976452
C99	C	0.755971	-0.379925	0.949187
C100	C	0.789325	-0.329655	0.528713
C101	C	0.789318	-0.329685	0.474107
C102	C	0.722497	-0.430561	0.474183
C103	C	0.722506	-0.430534	0.528784
C104	C	0.755922	-0.380075	0.556047
O105	O	0.694135	-0.473376	0.615196
O106	O	0.817742	-0.286711	0.615105
C107	C	0.619955	-0.879779	0.252427
C108	C	0.561841	-0.879601	0.252520
C109	C	0.756041	-0.880603	0.388080
C110	C	0.756160	-0.880819	0.446194
C111	C	0.892170	-0.880523	0.252047
C112	C	0.950284	-0.880682	0.251966
C113	C	0.755554	-0.879699	0.115864
C114	C	0.755451	-0.879506	0.057750
C115	C	0.534649	-0.829256	0.286092
C116	C	0.480045	-0.829074	0.286180
C117	C	0.452634	-0.879241	0.252699
C118	C	0.479830	-0.929588	0.219123
C119	C	0.534433	-0.929766	0.219033
C120	C	0.789657	-0.931416	0.473384
C121	C	0.789779	-0.931619	0.527988
C122	C	0.756402	-0.881229	0.555401
C123	C	0.722904	-0.830627	0.528207
C124	C	0.722784	-0.830420	0.473604
C125	C	0.977546	-0.830195	0.218530
C126	C	1.032150	-0.830328	0.218454
C127	C	1.059492	-0.880952	0.251812
C128	C	1.032226	-0.931442	0.285252
C129	C	0.977623	-0.931304	0.285330
C130	C	0.721934	-0.929770	0.030464
C131	C	0.721826	-0.929589	-0.024140
C132	C	0.755239	-0.879148	-0.051457
C133	C	0.788757	-0.828879	-0.024167
C134	C	0.788862	-0.829057	0.030436
H135	H	0.457896	-0.471797	0.312980
H136	H	1.054342	-0.789212	0.191222
H137	H	0.694530	-0.970524	-0.046352
N138	N	0.686656	-0.775842	0.444280
H139	H	0.665532	-0.743955	0.469936
H140	H	0.662407	-0.807823	0.421637
N141	N	0.393740	-0.879055	0.252801
H142	H	0.380520	-0.864311	0.216985
H143	H	0.380717	-0.839557	0.279176
H144	H	0.556758	-0.288473	0.191681
H145	H	0.695306	-0.471603	0.551041
N146	N	1.118385	-0.881105	0.251724
H147	H	1.131582	-0.827060	0.261355
H148	H	1.131418	-0.895552	0.215817
N149	N	0.755110	-0.878963	-0.110351
H150	H	0.764662	-0.933059	-0.123557
H151	H	0.781354	-0.839348	-0.123484
H152	H	0.694725	-0.970847	0.052699
H153	H	0.955291	-0.788965	0.191367
H154	H	0.457503	-0.970431	0.191863
N155	N	0.948222	-0.985770	0.321389
H156	H	0.973832	-1.017862	0.342504
H157	H	0.925516	-1.022146	0.300105
H158	H	0.816533	-0.288564	0.550904
N159	N	0.825424	-0.275095	0.946973
H160	H	0.804158	-0.238539	0.924280
H161	H	0.849659	-0.307227	0.924382
H162	H	0.849965	-0.238075	0.702996
N163	N	0.563759	-0.984071	0.182822
H164	H	0.538105	-1.015822	0.161629
H165	H	0.586428	-1.020771	0.204001
N166	N	0.686524	-0.484780	0.947127
H167	H	0.707785	-0.521351	0.924508
H168	H	0.662274	-0.452678	0.924471
H169	H	1.054496	-0.972659	0.312410
H170	H	0.815960	-0.787812	-0.046417
H171	H	0.661914	-0.521919	0.802228
N172	N	0.825012	-0.774838	0.059864
H173	H	0.846160	-0.742860	0.034269
H174	H	0.849236	-0.807080	0.082458
N175	N	0.564205	-0.775149	0.322212
H176	H	0.602923	-0.782898	0.317069
H177	H	0.554719	-0.787615	0.359543
H178	H	0.817058	-0.972828	0.550121
N179	N	0.825659	-0.985771	0.443825
H180	H	0.846842	-1.017927	0.469344
H181	H	0.849857	-0.953610	0.421215
H182	H	0.756505	-0.881405	0.599863
H183	H	0.457909	-0.788075	0.313523
N184	N	0.686462	-0.484971	0.444770
H185	H	0.691529	-0.477326	0.406032
H186	H	0.649116	-0.472677	0.454292
H187	H	0.816602	-0.288384	1.053266
H188	H	0.305823	-0.522336	0.346419
N189	N	0.564177	-0.485147	0.321785
H190	H	0.554685	-0.472980	0.359147
H191	H	0.602893	-0.477460	0.316666
N192	N	0.199574	-0.535701	0.355266
H193	H	0.225195	-0.567700	0.376429
H194	H	0.176939	-0.572162	0.333971
N195	N	0.061833	-0.485202	0.321862
H196	H	0.036282	-0.517208	0.343034
H197	H	0.084476	-0.453148	0.346069
H198	H	-0.044465	-0.471853	0.313043
H199	H	0.849975	-0.238032	0.802042
H200	H	-0.044646	-0.288544	0.191761
H201	H	0.661895	-0.521940	0.703178
H202	H	0.695729	-0.789601	0.550535
H203	H	0.206484	-0.237966	0.158320
N204	N	0.061608	-0.275161	0.182924
H205	H	0.035988	-0.243165	0.161757
H206	H	0.084275	-0.307205	0.158713
H207	H	0.457691	-0.288475	0.191695
N208	N	0.312740	-0.224594	0.149484
H209	H	0.287123	-0.192592	0.128318
H210	H	0.335406	-0.256640	0.125272
H211	H	0.695378	-0.471412	1.053378
N212	N	0.825355	-0.275297	0.444625
H213	H	0.846521	-0.243336	0.470187
H214	H	0.804052	-0.238797	0.421932
