data_functionalizedCrystal
_audit_creation_method	'MofGen! by Chris Wilmer'
_symmetry_space_group_name_H-M	'P1'
_symmetry_Int_Tables_number	1
_symmetry_cell_setting	triclinic
loop_
_symmetry_equiv_pos_as_xyz
  x,y,z
_cell_length_a	15.995292
_cell_length_b	15.995292
_cell_length_c	13.448316
_cell_angle_alpha	89.996588
_cell_angle_beta	89.992066
_cell_angle_gamma	83.468616
loop_
_atom_site_label
_atom_site_type_symbol
_atom_site_fract_x
_atom_site_fract_y
_atom_site_fract_z
O1	O	1.110996	0.107700	-0.082712
O2	O	0.867211	0.121078	-0.082707
O3	O	0.995793	-0.007503	-0.082711
O4	O	0.982414	0.236281	-0.082708
O5	O	0.995777	-0.007511	0.082673
O6	O	0.867195	0.121071	0.082677
O7	O	1.110980	0.107692	0.082672
Cu8	Cu	0.989086	0.114380	0.097775
Cu9	Cu	0.989105	0.114390	-0.097810
O10	O	0.982398	0.236273	0.082676
C11	C	0.836008	0.120530	-0.000014
C12	C	0.743055	0.118898	-0.000013
C13	C	0.995240	-0.038703	-0.000021
C14	C	0.993608	-0.131655	-0.000029
C15	C	0.405318	0.112896	-0.000024
C16	C	0.428611	0.205703	-0.000392
C17	C	0.525286	0.207467	-0.000015
C18	C	0.572873	0.115874	-0.000019
C19	C	0.543772	0.069471	0.094419
C20	C	0.446981	0.068353	0.094494
C21	C	0.447145	0.066467	-0.093578
C22	C	0.543637	0.069906	-0.094822
C23	C	0.667569	0.117552	-0.000013
C24	C	0.310622	0.111215	-0.000024
C25	C	0.987607	-0.469393	-0.000020
C26	C	1.080413	-0.446100	0.000348
C27	C	1.082177	-0.349424	-0.000028
C28	C	0.990584	-0.301837	-0.000024
C29	C	0.944195	-0.330924	-0.094462
C30	C	0.943077	-0.427714	-0.094537
C31	C	0.941164	-0.427580	0.093535
C32	C	0.944603	-0.331088	0.094779
C33	C	0.992263	-0.207141	-0.000029
C34	C	0.985926	-0.564088	-0.000021
C35	C	1.142183	0.108240	-0.000022
C36	C	1.235136	0.109873	-0.000030
C37	C	0.982951	0.267473	-0.000015
C38	C	0.984583	0.360426	-0.000014
N39	N	0.989079	0.114373	0.235340
N40	N	0.989119	0.114390	-0.235374
C41	C	1.046032	0.057461	0.287378
C42	C	1.046038	0.057460	0.391482
C43	C	0.989092	0.114377	0.443544
C44	C	0.932133	0.171292	0.391498
C45	C	0.932124	0.171288	0.287397
C46	C	0.932156	0.171298	0.608479
C47	C	0.932165	0.171303	0.712587
C48	C	1.046069	0.057470	0.712563
C49	C	1.046061	0.057466	0.608462
C50	C	0.989102	0.114382	0.556423
H51	H	0.544312	0.243803	-0.067715
H52	H	0.420151	0.100484	0.165091
H53	H	0.975218	-0.454534	-0.165135
H54	H	0.976422	-0.310867	-0.164746
N55	N	0.390168	0.252827	0.088817
H56	H	0.326942	0.253897	0.086492
H57	H	0.412430	0.223742	0.151668
H58	H	0.576621	0.003053	-0.100529
H59	H	1.092434	0.011124	0.566072
H60	H	1.092447	0.011126	0.754939
H61	H	0.432445	0.000307	0.098781
N62	N	0.854914	-0.288701	-0.099117
H63	H	0.843653	-0.250218	-0.039912
H64	H	0.846783	-0.254765	-0.162411
H65	H	0.575654	0.002070	0.097928
H66	H	0.400614	0.241478	-0.068119
N67	N	1.127800	-0.483213	0.090045
H68	H	1.187196	-0.467521	0.088839
H69	H	1.098573	-0.460472	0.152608
H70	H	0.543675	0.244021	0.067798
H71	H	1.092413	0.011117	0.433851
N72	N	0.428637	-0.024021	-0.094433
H73	H	0.393337	-0.034924	-0.034548
H74	H	0.396975	-0.035187	-0.157129
N75	N	0.870756	0.232697	0.768744
H76	H	0.834669	0.268751	0.719984
H77	H	0.833757	0.200631	0.811960
N78	N	1.130577	-0.325025	-0.089870
H79	H	1.180540	-0.296503	-0.067530
H80	H	1.150796	-0.377135	-0.129356
N81	N	0.989336	-0.306508	0.187329
H82	H	1.039179	-0.276548	0.167939
H83	H	0.949274	-0.267866	0.229229
H84	H	0.563817	0.101688	0.164703
N85	N	0.870700	0.232678	0.231268
H86	H	0.879333	0.224038	0.157421
H87	H	0.811308	0.222981	0.249485
H88	H	1.118509	-0.330410	0.067667
N89	N	0.852949	-0.446979	-0.100224
H90	H	0.814119	-0.392616	-0.102675
H91	H	0.845027	-0.480944	-0.162128
N92	N	0.870717	0.232680	0.447656
H93	H	0.880341	0.292111	0.429526
H94	H	0.811319	0.222940	0.429541
N95	N	0.979657	-0.465020	0.188356
H96	H	1.027596	-0.509472	0.171624
H97	H	1.001537	-0.419272	0.229334
H98	H	0.562206	0.103693	-0.164687
N99	N	1.127542	-0.484542	-0.088860
H100	H	1.098497	-0.462337	-0.151761
H101	H	1.187091	-0.469268	-0.087972
H102	H	0.885771	0.217643	0.566112
H103	H	0.418819	0.095479	-0.165157
H104	H	0.877749	-0.298105	0.100486
N105	N	0.850676	-0.446088	0.094390
H106	H	0.839781	-0.481379	0.034504
H107	H	0.839501	-0.477760	0.157086
H108	H	1.092407	0.011116	0.244996
