data_functionalizedCrystal
_audit_creation_method	'MofGen! by Chris Wilmer'
_symmetry_space_group_name_H-M	'P1'
_symmetry_Int_Tables_number	1
_symmetry_cell_setting	triclinic
loop_
_symmetry_equiv_pos_as_xyz
  x,y,z
_cell_length_a	19.805407
_cell_length_b	13.031981
_cell_length_c	19.805399
_cell_angle_alpha	82.788388
_cell_angle_beta	89.983114
_cell_angle_gamma	97.191459
loop_
_atom_site_label
_atom_site_type_symbol
_atom_site_fract_x
_atom_site_fract_y
_atom_site_fract_z
Zn1	Zn	1.000555	-0.416121	-0.348474
Zn2	Zn	0.986125	-0.590913	-0.220900
Zn3	Zn	0.887372	-0.416154	-0.235295
Zn4	Zn	0.872988	-0.590853	-0.334052
O5	O	0.936760	-0.503510	-0.284680
O6	O	1.093357	-0.439318	-0.331562
O7	O	0.973006	-0.567770	-0.128090
O8	O	0.914445	-0.269886	-0.262369
O9	O	1.082755	-0.567738	-0.237834
O10	O	0.997600	-0.269862	-0.345520
O11	O	0.900453	-0.439375	-0.138666
O12	O	0.790749	-0.439317	-0.248385
O13	O	0.889929	-0.567636	-0.430685
O14	O	0.780181	-0.567668	-0.320941
O15	O	0.983652	-0.439260	-0.441280
O16	O	0.959058	-0.737169	-0.223850
O17	O	0.875937	-0.737125	-0.306982
C18	C	0.760906	-0.503490	-0.284660
C19	C	0.685672	-0.503507	-0.284665
C20	C	0.644835	-0.570440	-0.322367
C21	C	0.574146	-0.570442	-0.322376
C22	C	0.544296	-0.503515	-0.284680
C23	C	0.585139	-0.436575	-0.246977
C24	C	0.655827	-0.436568	-0.246972
C25	C	0.300064	-0.436598	-0.246998
C26	C	0.229371	-0.436612	-0.247004
C27	C	0.218384	-0.570471	-0.322402
C28	C	0.289071	-0.570465	-0.322397
C29	C	0.329908	-0.503521	-0.284697
C30	C	0.406557	-0.503518	-0.284688
C31	C	0.467648	-0.503522	-0.284684
C32	C	0.914389	-0.775071	-0.262304
C33	C	0.904881	-0.891246	-0.252754
C34	C	0.941759	-0.942945	-0.289678
C35	C	0.931932	-1.063018	-0.279809
C36	C	1.113301	-0.503531	-0.284701
C37	C	1.188532	-0.503540	-0.284710
C38	C	0.936796	-0.503438	-0.461229
C39	C	0.936811	-0.503407	-0.536464
C40	C	0.959237	-0.230889	-0.307159
C41	C	0.968815	-0.114714	-0.316738
C42	C	0.899045	-0.436545	-0.577315
C43	C	0.899056	-0.436525	-0.648005
C44	C	0.936837	-0.503362	-0.677843
C45	C	0.974604	-0.570230	-0.636986
C46	C	0.974589	-0.570255	-0.566297
C47	C	0.974666	-0.570133	-0.922068
C48	C	0.974680	-0.570100	-0.992763
C49	C	0.899133	-0.436402	-1.003776
C50	C	0.899118	-0.436427	-0.933086
C51	C	0.936882	-0.503299	-0.892236
C52	C	0.936869	-0.503322	-0.815585
C53	C	0.936855	-0.503334	-0.754492
C54	C	0.936770	-0.503507	-0.108825
C55	C	0.936910	-0.503243	-0.033615
H56	H	0.669133	-0.624943	-0.353061
H57	H	0.893079	-1.107646	-0.240890
N58	N	0.552946	-0.364407	-0.206304
H59	H	0.501968	-0.374577	-0.212019
H60	H	0.563961	-0.380603	-0.156617
N61	N	1.020273	-1.055614	-0.368300
H62	H	1.019999	-0.978216	-0.368045
H63	H	1.067079	-1.074587	-0.356263
H64	H	0.689077	-0.382059	-0.216276
N65	N	1.015352	-0.642314	-0.669174
H66	H	1.065048	-0.626094	-0.658215
H67	H	0.998625	-0.716970	-0.650702
N68	N	0.853420	-0.950352	-0.201200
H69	H	0.853695	-1.027750	-0.201457
H70	H	0.865532	-0.931360	-0.154421
N71	N	0.858390	-0.364288	-1.047836
H72	H	0.808691	-0.380523	-1.034181
H73	H	0.875112	-0.289643	-1.041677
N74	N	0.858303	-0.364446	-0.545136
H75	H	0.834381	-0.322087	-0.581744
H76	H	0.823465	-0.406993	-0.512292
H77	H	0.540899	-0.624946	-0.353076
H78	H	0.205070	-0.382105	-0.216307
H79	H	0.333305	-0.382096	-0.216294
H80	H	1.005347	-0.624693	-0.533037
N81	N	1.015430	-0.642192	-1.024947
H82	H	1.039350	-0.684562	-0.988343
H83	H	0.983894	-0.690540	-1.050287
H84	H	0.185125	-0.624976	-0.353102
N85	N	1.015395	-0.642253	-0.878011
H86	H	1.039334	-0.684586	-0.907640
H87	H	1.050219	-0.599722	-0.852192
N88	N	0.321266	-0.642655	-0.363050
H89	H	0.284669	-0.685058	-0.386936
H90	H	0.354106	-0.600169	-0.397916
N91	N	0.993211	-0.883839	-0.341240
H92	H	0.992935	-0.806441	-0.340984
H93	H	1.040018	-0.902808	-0.329206
N94	N	0.858321	-0.364414	-0.692066
H95	H	0.834388	-0.322074	-0.662438
H96	H	0.889866	-0.316040	-0.725390
N97	N	0.858379	-0.364326	-0.900905
H98	H	0.834457	-0.321963	-0.937511
H99	H	0.823542	-0.406871	-0.868061
