data_functionalizedCrystal
_audit_creation_method	'MofGen! by Chris Wilmer'
_symmetry_space_group_name_H-M	'P1'
_symmetry_Int_Tables_number	1
_symmetry_cell_setting	triclinic
loop_
_symmetry_equiv_pos_as_xyz
  x,y,z
_cell_length_a	21.395362
_cell_length_b	18.215405
_cell_length_c	21.395356
_cell_angle_alpha	89.973989
_cell_angle_beta	89.957023
_cell_angle_gamma	90.038610
loop_
_atom_site_label
_atom_site_type_symbol
_atom_site_fract_x
_atom_site_fract_y
_atom_site_fract_z
Zn1	Zn	0.957888	-0.292691	-0.354593
Zn2	Zn	1.457888	0.207309	0.145407
Zn3	Zn	0.957807	-0.415759	-0.249818
Zn4	Zn	1.457807	0.084241	0.250182
Zn5	Zn	0.853105	-0.292745	-0.249794
Zn6	Zn	1.353105	0.207255	0.250206
Zn7	Zn	0.853087	-0.415754	-0.354523
Zn8	Zn	1.353087	0.084246	0.145477
O9	O	0.905472	-0.354237	-0.302182
O10	O	1.405472	0.145763	0.197818
O11	O	1.045555	-0.308995	-0.340734
O12	O	1.545555	0.191005	0.159266
O13	O	0.943892	-0.399465	-0.162137
O14	O	1.443892	0.100535	0.337863
O15	O	0.867046	-0.189753	-0.263715
O16	O	1.367046	0.310247	0.236285
O17	O	1.045496	-0.399413	-0.263756
O18	O	1.545496	0.100587	0.236244
O19	O	0.944030	-0.189714	-0.340710
O20	O	1.444030	0.310286	0.159290
O21	O	0.866967	-0.309087	-0.162119
O22	O	1.366967	0.190913	0.337881
O23	O	0.765425	-0.309083	-0.263647
O24	O	1.265425	0.190917	0.236353
O25	O	0.867016	-0.399405	-0.442210
O26	O	1.367016	0.100595	0.057790
O27	O	0.765411	-0.399458	-0.340591
O28	O	1.265411	0.100542	0.159409
O29	O	0.944013	-0.308991	-0.442262
O30	O	1.444013	0.191009	0.057738
O31	O	0.943874	-0.518743	-0.263689
O32	O	1.443874	-0.018743	0.236311
O33	O	0.866937	-0.518739	-0.340615
O34	O	1.366937	-0.018739	0.159385
C35	C	0.742684	-0.354276	-0.302110
C36	C	1.242684	0.145724	0.197890
C37	C	0.673043	-0.354311	-0.302093
C38	C	1.173043	0.145689	0.197907
C39	C	0.905412	-0.545444	-0.302161
C40	C	1.405412	-0.045444	0.197839
C41	C	0.905443	-0.627242	-0.302172
C42	C	1.405443	-0.127242	0.197828
C43	C	0.640339	-0.401431	-0.342098
C44	C	1.140339	0.098569	0.157902
C45	C	0.574904	-0.401413	-0.342126
C46	C	1.074904	0.098587	0.157874
C47	C	0.542175	-0.354282	-0.302138
C48	C	1.042175	0.145718	0.197862
C49	C	0.574886	-0.307153	-0.262130
C50	C	1.074886	0.192847	0.237870
C51	C	0.640320	-0.307167	-0.262108
C52	C	1.140320	0.192833	0.237892
C53	C	0.438450	-0.348364	-0.245733
C54	C	0.938450	0.151636	0.254267
C55	C	0.373017	-0.348355	-0.245754
C56	C	0.873017	0.151645	0.254246
C57	C	0.340354	-0.354234	-0.302207
C58	C	0.840354	0.145766	0.197793
C59	C	0.373132	-0.360138	-0.358641
C60	C	0.873132	0.139862	0.141359
C61	C	0.438566	-0.360152	-0.358619
C62	C	0.938566	0.139848	0.141381
C63	C	0.471222	-0.354261	-0.302158
C64	C	0.971222	0.145739	0.197842
C65	C	0.236698	-0.401338	-0.342245
C66	C	0.736698	0.098662	0.157755
C67	C	0.171261	-0.401314	-0.342274
C68	C	0.671261	0.098686	0.157726
C69	C	0.171245	-0.307058	-0.262273
C70	C	0.671245	0.192942	0.237727
C71	C	0.236680	-0.307077	-0.262250
C72	C	0.736680	0.192923	0.237750
C73	C	0.269403	-0.354221	-0.302235
C74	C	0.769403	0.145779	0.197765
C75	C	0.945548	-0.815355	-0.342318
C76	C	1.445548	-0.315355	0.157682
C77	C	0.945571	-0.892213	-0.342330
C78	C	1.445571	-0.392213	0.157670
C79	C	0.865473	-0.892368	-0.262085
C80	C	1.365473	-0.392368	0.237915
C81	C	0.865448	-0.815510	-0.262077
C82	C	1.365448	-0.315510	0.237923
C83	C	0.905489	-0.777006	-0.302193
C84	C	1.405489	-0.277006	0.197807
C85	C	0.905537	-0.930722	-0.302212
C86	C	1.405537	-0.430722	0.197788
C87	C	0.905561	-1.014056	-0.302225
C88	C	1.405561	-0.514056	0.197775
C89	C	0.905464	-0.693667	-0.302181
C90	C	1.405464	-0.193667	0.197819
C91	C	1.068895	-0.354199	-0.302256
C92	C	1.568895	0.145801	0.197744
C93	C	1.138536	-0.354182	-0.302287
C94	C	1.638536	0.145818	0.197713
C95	C	0.905521	-0.354192	-0.465606
C96	C	1.405521	0.145808	0.034394
C97	C	0.905542	-0.354172	-0.535247
C98	C	1.405542	0.145828	-0.035247
C99	C	0.905549	-0.162284	-0.302218
C100	C	1.405549	0.337716	0.197782
C101	C	0.905582	-0.080485	-0.302233
C102	C	1.405582	0.419515	0.197767
C103	C	0.865498	-0.307107	-0.567941
C104	C	1.365498	0.192893	-0.067941
C105	C	0.865496	-0.307094	-0.633376
C106	C	1.365496	0.192906	-0.133376
C107	C	0.905549	-0.354137	-0.666115
C108	C	1.405549	0.145863	-0.166115
C109	C	0.945596	-0.401211	-0.633413
C110	C	1.445596	0.098789	-0.133413
C111	C	0.945592	-0.401229	-0.567979
C112	C	1.445592	0.098771	-0.067979
C113	C	0.962002	-0.359905	-0.769821
C114	C	1.462002	0.140095	-0.269821
C115	C	0.962006	-0.359882	-0.835254
C116	C	1.462006	0.140118	-0.335254
C117	C	0.905559	-0.354088	-0.867936
C118	C	1.405559	0.145912	-0.367936
C119	C	0.849106	-0.348300	-0.835177
C120	C	1.349106	0.151700	-0.335177
C121	C	0.849103	-0.348318	-0.769743
C122	C	1.349103	0.151682	-0.269743
C123	C	0.905557	-0.354124	-0.737068
C124	C	1.405557	0.145876	-0.237068
C125	C	0.865510	-0.307005	-0.971583
C126	C	1.365510	0.192995	-0.471583
C127	C	0.865507	-0.306997	-1.037019
C128	C	1.365507	0.193003	-0.537019
C129	C	0.945612	-0.401111	-1.037055
C130	C	1.445612	0.098889	-0.537055
C131	C	0.945609	-0.401123	-0.971620
C132	C	1.445609	0.098877	-0.471620
C133	C	0.905559	-0.354066	-0.938887
C134	C	1.405559	0.145934	-0.438887
C135	C	0.905459	-0.354230	-0.139395
C136	C	1.405459	0.145770	0.360605
C137	C	0.905559	-0.354042	-0.069754
C138	C	1.405559	0.145958	0.430246
H139	H	0.548271	-0.439784	-0.374705
H140	H	1.048271	0.060216	0.125295
C141	C	0.474622	-0.366642	-0.420688
C142	C	0.974622	0.133358	0.079312
H143	H	0.518269	-0.365814	-0.412586
H144	H	1.018269	0.134186	0.087414
H145	H	0.463959	-0.326649	-0.447110
H146	H	0.963959	0.173351	0.052890
H147	H	0.463889	-0.411479	-0.440656
H148	H	0.963889	0.088521	0.059344
C149	C	0.989639	-0.934394	-0.386465
C150	C	1.489639	-0.434394	0.113535
H151	H	1.013484	-0.900452	-0.410349
H152	H	1.513484	-0.400452	0.089651
H153	H	0.965669	-0.964387	-0.413738
H154	H	1.465669	-0.464387	0.086262
H155	H	1.016963	-0.964358	-0.362530
H156	H	1.516963	-0.464358	0.137470
C157	C	0.337214	-0.366598	-0.420745
C158	C	0.837214	0.133402	0.079255
H159	H	0.366106	-0.370118	-0.454349
H160	H	0.866106	0.129882	0.045651
H161	H	0.311729	-0.324421	-0.426323
H162	H	0.811729	0.175579	0.073677
H163	H	0.311653	-0.409252	-0.419879
H164	H	0.811653	0.090748	0.080121
H165	H	0.832874	-0.923728	-0.229424
H166	H	1.332874	-0.423728	0.270576
C167	C	0.821457	-0.255222	-1.072983
C168	C	1.321457	0.244778	-0.572983
H169	H	0.797610	-0.227196	-1.044115
H170	H	1.297610	0.272804	-0.544115
H171	H	0.794144	-0.283369	-1.098484
H172	H	1.294144	0.216631	-0.598484
H173	H	0.845446	-0.223145	-1.098532
H174	H	1.345446	0.276855	-0.598532
H175	H	0.832824	-0.784285	-0.229402
H176	H	1.332824	-0.284285	0.270598
H177	H	0.978225	-0.439413	-1.063711
H178	H	1.478225	0.060587	-0.563711
C179	C	1.024098	-0.366274	-0.733876
C180	C	1.524098	0.133726	-0.233876
H181	H	1.057719	-0.369706	-0.762756
H182	H	1.557719	0.130294	-0.262756
H183	H	1.023270	-0.408938	-0.708339
H184	H	1.523270	0.091062	-0.208339
H185	H	1.029616	-0.324096	-0.708365
H186	H	1.529616	0.175904	-0.208365
C187	C	0.135250	-0.255206	-0.218295
C188	C	0.635250	0.244794	0.281705
H189	H	0.091596	-0.261945	-0.224037
H190	H	0.591596	0.238055	0.275963
H191	H	0.146025	-0.205779	-0.227541
H192	H	0.646025	0.294221	0.272459
H193	H	0.145916	-0.265911	-0.176173
H194	H	0.645916	0.234089	0.323827
C195	C	1.024099	-0.366249	-0.871285
C196	C	1.524099	0.133751	-0.371285
H197	H	1.016018	-0.365400	-0.914936
H198	H	1.516018	0.134600	-0.414936
H199	H	1.044111	-0.411052	-0.860568
H200	H	1.544111	0.088948	-0.360568
H201	H	1.050473	-0.326211	-0.860587
H202	H	1.550473	0.173789	-0.360587
C203	C	0.989666	-0.452886	-0.935655
C204	C	1.489666	0.047114	-0.435655
H205	H	1.013524	-0.480898	-0.964523
H206	H	1.513524	0.019102	-0.464523
H207	H	0.965687	-0.484964	-0.910104
H208	H	1.465687	0.015036	-0.410104
H209	H	1.016977	-0.424727	-0.910156
H210	H	1.516977	0.075273	-0.410156
H211	H	0.803142	-0.343577	-0.861786
H212	H	1.303142	0.156423	-0.361786
C213	C	0.538887	-0.255310	-0.218145
C214	C	1.038887	0.244690	0.281855
H215	H	0.495232	-0.262055	-0.223883
H216	H	0.995232	0.237945	0.276117
H217	H	0.549656	-0.205880	-0.227386
H218	H	1.049656	0.294120	0.272614
H219	H	0.549558	-0.266021	-0.176025
H220	H	1.049558	0.233979	0.323975
H221	H	0.803137	-0.343607	-0.743074
H222	H	1.303137	0.156393	-0.243074
H223	H	0.978151	-0.784006	-0.374983
H224	H	1.478151	-0.284006	0.125017
H225	H	0.978203	-0.439554	-0.541360
H226	H	1.478203	0.060446	-0.041360
H227	H	0.978207	-0.439515	-0.660074
H228	H	1.478207	0.060485	-0.160074
C229	C	0.821442	-0.255350	-0.531939
C230	C	1.321442	0.244650	-0.031939
H231	H	0.797590	-0.227322	-0.560786
H232	H	1.297590	0.272678	-0.060786
H233	H	0.845422	-0.223288	-0.506435
H234	H	1.345422	0.276712	-0.006435
H235	H	0.794125	-0.283517	-0.506390
H236	H	1.294125	0.216483	-0.006390
H237	H	0.832889	-0.268764	-0.660001
H238	H	1.332889	0.231236	-0.160001
C239	C	0.676296	-0.255336	-0.218098
C240	C	1.176296	0.244664	0.281902
H241	H	0.647434	-0.227265	-0.194283
H242	H	1.147434	0.272735	0.305717
H243	H	0.701874	-0.223316	-0.242103
H244	H	1.201874	0.276684	0.257897
H245	H	0.701768	-0.283458	-0.190743
H246	H	1.201768	0.216542	0.309257
C247	C	0.272698	-0.453182	-0.386233
C248	C	0.772698	0.046818	0.113767
H249	H	0.316353	-0.446448	-0.380485
H250	H	0.816353	0.053552	0.119515
H251	H	0.262030	-0.442471	-0.428350
H252	H	0.762030	0.057529	0.071650
H253	H	0.261927	-0.502615	-0.376992
H254	H	0.761927	-0.002615	0.123008
H255	H	0.666978	-0.439818	-0.374658
H256	H	1.166978	0.060182	0.125342
C257	C	0.821443	-0.255263	-0.935574
C258	C	1.321443	0.244737	-0.435574
H259	H	0.797584	-0.227241	-0.964420
H260	H	1.297584	0.272759	-0.464420
H261	H	0.845414	-0.223194	-0.910068
H262	H	1.345414	0.276806	-0.410068
H263	H	0.794133	-0.283443	-0.910028
H264	H	1.294133	0.216557	-0.410028
C265	C	0.135284	-0.453146	-0.386282
C266	C	0.635284	0.046854	0.113718
H267	H	0.091627	-0.446381	-0.380576
H268	H	0.591627	0.053619	0.119424
H269	H	0.145959	-0.502581	-0.377032
H270	H	0.645959	-0.002581	0.122968
H271	H	0.146064	-0.442442	-0.428395
H272	H	0.646064	0.057558	0.071605
C273	C	0.272656	-0.255254	-0.218236
C274	C	0.772656	0.244746	0.281764
H275	H	0.243793	-0.227185	-0.194420
H276	H	0.743793	0.272815	0.305580
H277	H	0.298234	-0.223230	-0.242240
H278	H	0.798234	0.276770	0.257760
H279	H	0.298128	-0.283377	-0.190884
H280	H	0.798128	0.216623	0.309116
H281	H	0.465039	-0.343574	-0.199758
H282	H	0.965039	0.156426	0.300242
C283	C	0.336965	-0.341914	-0.183678
C284	C	0.836965	0.158086	0.316322
H285	H	0.293317	-0.342772	-0.191774
H286	H	0.793317	0.157228	0.308226
H287	H	0.347682	-0.297094	-0.163682
H288	H	0.847682	0.202906	0.336318
H289	H	0.347648	-0.381929	-0.157283
H290	H	0.847648	0.118071	0.342717
