data_functionalizedCrystal
_audit_creation_method	'MofGen! by Chris Wilmer'
_symmetry_space_group_name_H-M	'P1'
_symmetry_Int_Tables_number	1
_symmetry_cell_setting	triclinic
loop_
_symmetry_equiv_pos_as_xyz
  x,y,z
_cell_length_a	21.395364
_cell_length_b	25.639240
_cell_length_c	21.395356
_cell_angle_alpha	89.963811
_cell_angle_beta	89.983542
_cell_angle_gamma	90.028522
loop_
_atom_site_label
_atom_site_type_symbol
_atom_site_fract_x
_atom_site_fract_y
_atom_site_fract_z
Zn1	Zn	0.957800	-0.208221	-0.354226
Zn2	Zn	0.957714	-0.295655	-0.249434
Zn3	Zn	0.853030	-0.208229	-0.249463
Zn4	Zn	0.852981	-0.295620	-0.354174
O5	O	0.905381	-0.251931	-0.301824
O6	O	1.045467	-0.219830	-0.340335
O7	O	0.943812	-0.284076	-0.161760
O8	O	0.866985	-0.135063	-0.263394
O9	O	1.045403	-0.284068	-0.263344
O10	O	0.943959	-0.135056	-0.340363
O11	O	0.866901	-0.219844	-0.161781
O12	O	0.765346	-0.219811	-0.263343
O13	O	0.866901	-0.284009	-0.441859
O14	O	0.765309	-0.284017	-0.340274
O15	O	0.943911	-0.219796	-0.441897
O16	O	0.943764	-0.368816	-0.263294
O17	O	0.866817	-0.368790	-0.340246
C18	C	0.742594	-0.251911	-0.301807
C19	C	0.672952	-0.251915	-0.301814
C20	C	0.171189	-0.218562	-0.341987
C21	C	0.236624	-0.218558	-0.341987
C22	C	0.269314	-0.251947	-0.301838
C23	C	0.236563	-0.285353	-0.261698
C24	C	0.171129	-0.285359	-0.261704
C25	C	0.372958	-0.256004	-0.245370
C26	C	0.438391	-0.255994	-0.245364
C27	C	0.471135	-0.251930	-0.301821
C28	C	0.438437	-0.247865	-0.358287
C29	C	0.373003	-0.247872	-0.358293
C30	C	0.340266	-0.251944	-0.301828
C31	C	0.574830	-0.218525	-0.341962
C32	C	0.640267	-0.218525	-0.341962
C33	C	0.640205	-0.285317	-0.261668
C34	C	0.574769	-0.285320	-0.261673
C35	C	0.542086	-0.251921	-0.301819
C36	C	0.905293	-0.387774	-0.301775
C37	C	0.905312	-0.445888	-0.301775
C38	C	0.945482	-0.806209	-0.341974
C39	C	0.945500	-0.860813	-0.341987
O40	O	0.979548	-0.889015	-0.376115
N41	N	0.905468	-0.888170	-0.301885
C42	C	0.865411	-0.860920	-0.261772
O43	O	0.831362	-0.889203	-0.227663
C44	C	0.865389	-0.806317	-0.261762
C45	C	0.905428	-0.778963	-0.301863
C46	C	0.985517	-0.778855	-0.382072
C47	C	0.985499	-0.724255	-0.382058
C48	C	0.945446	-0.697008	-0.341947
C49	C	0.905411	-0.724362	-0.301849
C50	C	0.825329	-0.779067	-0.221653
C51	C	0.825311	-0.724460	-0.221648
C52	C	0.865350	-0.697106	-0.261748
C53	C	0.865340	-0.642515	-0.261724
N54	N	0.905372	-0.615158	-0.301826
C55	C	0.945425	-0.642405	-0.341938
C56	C	0.865457	-0.975590	-0.261795
C57	C	0.865481	-1.030193	-0.261800
C58	C	0.945570	-1.030083	-0.342016
C59	C	0.945549	-0.975479	-0.342007
C60	C	0.905489	-0.948234	-0.301897
C61	C	0.945385	-0.527740	-0.341905
C62	C	0.945365	-0.473134	-0.341886
C63	C	0.865274	-0.473249	-0.261673
C64	C	0.865296	-0.527850	-0.261689
C65	C	0.905353	-0.555094	-0.301811
O66	O	0.831307	-0.614279	-0.227615
O67	O	0.979462	-0.614115	-0.376046
C68	C	1.068804	-0.251952	-0.301842
C69	C	1.138446	-0.251960	-0.301850
C70	C	0.905410	-0.251898	-0.465247
C71	C	0.905423	-0.251883	-0.534889
C72	C	0.905487	-0.115558	-0.301887
C73	C	0.905532	-0.057444	-0.301914
C74	C	0.945581	-0.218365	-1.036706
C75	C	0.945576	-0.218377	-0.971271
C76	C	0.905476	-0.251814	-0.938527
C77	C	0.865390	-0.285249	-0.971225
C78	C	0.865401	-0.285240	-1.036659
C79	C	0.849007	-0.255951	-0.834851
C80	C	0.848996	-0.255957	-0.769418
C81	C	0.905444	-0.251847	-0.736706
C82	C	0.961906	-0.247720	-0.769436
C83	C	0.961917	-0.247710	-0.834870
C84	C	0.905461	-0.251828	-0.867575
C85	C	0.945526	-0.218430	-0.633064
C86	C	0.945522	-0.218446	-0.567628
C87	C	0.865330	-0.285315	-0.567583
C88	C	0.865340	-0.285302	-0.633018
C89	C	0.905437	-0.251856	-0.665755
C90	C	0.905388	-0.251927	-0.139037
C91	C	0.905497	-0.251794	-0.069396
H92	H	0.263288	-0.191358	-0.374671
H93	H	0.465008	-0.259300	-0.199386
Cl94	Cl	0.331802	-0.261121	-0.174389
H95	H	0.978216	-0.191153	-0.944649
H96	H	0.832683	-0.312542	-0.540924
H97	H	0.792725	-0.801329	-0.188999
Cl98	Cl	0.479593	-0.242749	-0.429266
Cl99	Cl	0.277658	-0.327330	-0.211228
H100	H	0.832884	-1.052460	-0.229139
Cl101	Cl	0.331900	-0.242767	-0.429275
H102	H	0.792688	-0.702279	-0.188985
H103	H	0.978182	-1.052277	-0.374678
H104	H	0.977999	-0.549915	-0.374581
Cl105	Cl	0.129964	-0.327347	-0.211238
Cl106	Cl	0.681295	-0.327297	-0.211200
H107	H	0.832698	-0.550123	-0.229031
H108	H	0.832697	-0.312521	-0.659635
H109	H	0.548110	-0.312515	-0.228985
H110	H	1.018100	-0.701986	-0.414713
H111	H	1.007890	-0.244351	-0.861516
H112	H	0.144582	-0.191368	-0.374680
H113	H	0.977972	-0.450864	-0.374541
H114	H	0.832838	-0.953410	-0.229127
Cl115	Cl	0.815005	-0.327269	-1.077757
Cl116	Cl	1.032876	-0.242563	-0.728321
H117	H	0.803021	-0.259317	-0.742774
H118	H	0.832665	-0.451057	-0.229012
H119	H	1.018133	-0.801034	-0.414739
H120	H	0.978152	-0.953211	-0.374661
Cl121	Cl	0.996013	-0.176340	-1.077857
H122	H	0.978175	-0.191196	-0.659720
Cl123	Cl	0.995921	-0.176420	-0.526531
Cl124	Cl	0.778035	-0.261110	-0.875966
H125	H	0.832742	-0.312474	-0.944561
H126	H	0.548218	-0.191330	-0.374651
H127	H	0.666925	-0.191329	-0.374652
