data_functionalizedCrystal
_audit_creation_method	'MofGen! by Chris Wilmer'
_symmetry_space_group_name_H-M	'P1'
_symmetry_Int_Tables_number	1
_symmetry_cell_setting	triclinic
loop_
_symmetry_equiv_pos_as_xyz
  x,y,z
_cell_length_a	21.295418
_cell_length_b	18.050589
_cell_length_c	18.050582
_cell_angle_alpha	90.018205
_cell_angle_beta	90.034107
_cell_angle_gamma	90.044036
loop_
_atom_site_label
_atom_site_type_symbol
_atom_site_fract_x
_atom_site_fract_y
_atom_site_fract_z
Zn1	Zn	-0.962306	0.295393	-0.420315
Zn2	Zn	-0.962230	0.419576	-0.296135
Zn3	Zn	-0.857047	0.295439	-0.296098
Zn4	Zn	-0.857003	0.419580	-0.420242
O5	O	-0.909646	0.357497	-0.358197
O6	O	-1.050385	0.311846	-0.403889
O7	O	-0.948264	0.403127	-0.192205
O8	O	-0.871060	0.191508	-0.312591
O9	O	-1.050330	0.403083	-0.312654
O10	O	-0.948393	0.191475	-0.403853
O11	O	-0.870986	0.311924	-0.192178
O12	O	-0.768952	0.311927	-0.312520
O13	O	-0.870985	0.403089	-0.524176
O14	O	-0.768919	0.403133	-0.403727
O15	O	-0.948350	0.311849	-0.524230
O16	O	-0.948221	0.523502	-0.312582
O17	O	-0.870911	0.523504	-0.403763
C18	C	-0.746095	0.357536	-0.358112
C19	C	-0.676127	0.357571	-0.358093
C20	C	-0.909570	0.550449	-0.358185
C21	C	-0.909596	0.632995	-0.358205
C22	C	-1.073837	0.357459	-0.358284
C23	C	-1.143805	0.357442	-0.358320
C24	C	-0.643260	0.405125	-0.405514
C25	C	-0.577517	0.405106	-0.405547
C26	C	-0.544644	0.357542	-0.358146
C27	C	-0.577519	0.309979	-0.310722
C28	C	-0.643260	0.309993	-0.310695
N29	N	-0.441377	0.351735	-0.293191
N30	N	-0.378926	0.351726	-0.293218
C31	C	-0.346570	0.357495	-0.358225
N32	N	-0.379024	0.363288	-0.423205
N33	N	-0.441481	0.363301	-0.423177
C34	C	-0.473359	0.357521	-0.358170
C35	C	-0.242417	0.405031	-0.405686
C36	C	-0.176673	0.405008	-0.405721
C37	C	-0.176677	0.309884	-0.310889
C38	C	-0.242419	0.309904	-0.310861
C39	C	-0.275285	0.357481	-0.358259
C40	C	-0.909671	0.357464	-0.551903
C41	C	-0.909682	0.357450	-0.634449
C42	C	-0.909740	0.163792	-0.358226
C43	C	-0.909780	0.081246	-0.358238
C44	C	-0.867596	0.832474	-0.407771
C45	C	-0.852255	0.881913	-0.339998
C46	C	-0.909657	0.784125	-0.358214
C47	C	-0.925029	0.881768	-0.425995
C48	C	-0.909716	0.930111	-0.358230
C49	C	-0.894287	0.832477	-0.290405
C50	C	-0.967087	0.832328	-0.376448
C51	C	-0.951768	0.881745	-0.308628
C52	C	-0.909622	0.700027	-0.358206
C53	C	-0.909751	1.014207	-0.358230
C54	C	-0.867642	0.406999	-0.833870
C55	C	-0.925074	0.425133	-0.883286
C56	C	-0.909713	0.357394	-0.785579
C57	C	-0.852313	0.339238	-0.883246
C58	C	-0.909738	0.357340	-0.931565
C59	C	-0.967174	0.375564	-0.833908
C60	C	-0.894375	0.289637	-0.833863
C61	C	-0.951846	0.307746	-0.883256
C62	C	-0.909697	0.357426	-0.701481
C63	C	-0.909759	0.357307	-1.015661
C64	C	-0.909658	0.357476	-0.165245
C65	C	-0.909770	0.357281	-0.082700
H66	H	-0.670015	0.443865	-0.444110
H67	H	-0.670020	0.271267	-0.272079
H68	H	-0.832098	0.449003	-0.812187
H69	H	-0.987364	0.903243	-0.266677
O70	O	-1.025158	0.393921	-0.808292
C71	C	-1.065727	0.406745	-0.868691
H72	H	-1.047156	0.376660	-0.919701
H73	H	-1.114659	0.385214	-0.854785
H74	H	-1.068173	0.468731	-0.880427
O75	O	-0.940480	0.493456	-0.909280
C76	C	-0.891013	0.520961	-0.953298
H77	H	-0.861742	0.472743	-0.974937
H78	H	-0.911214	0.553299	-1.002024
H79	H	-0.860086	0.559083	-0.918530
O80	O	-0.144829	0.263716	-0.264732
C81	C	-0.160820	0.279870	-0.190685
H82	H	-0.208525	0.308436	-0.189091
H83	H	-0.163099	0.226231	-0.157469
H84	H	-0.123768	0.318005	-0.165617
O85	O	-0.940441	0.907511	-0.494426
C86	C	-0.895930	0.882423	-0.546482
H87	H	-0.871943	0.830467	-0.524436
H88	H	-0.920574	0.869053	-0.600957
H89	H	-0.859282	0.927461	-0.556146
H90	H	-0.550752	0.443830	-0.444166
H91	H	-0.987475	0.265774	-0.904804
O92	O	-0.274375	0.451319	-0.451626
C93	C	-0.312338	0.499227	-0.409250
H94	H	-0.292475	0.503730	-0.350759
H95	H	-0.313057	0.556416	-0.436015
H96	H	-0.362180	0.476276	-0.406708
H97	H	-0.550750	0.271251	-0.272129
H98	H	-0.149914	0.443730	-0.444341
H99	H	-0.881370	0.232376	-0.812138
H100	H	-0.881253	0.810915	-0.233074
O101	O	-0.274418	0.263819	-0.264752
C102	C	-0.312360	0.306045	-0.216686
H103	H	-0.322184	0.362363	-0.242780
H104	H	-0.358606	0.275792	-0.206764
H105	H	-0.286972	0.314124	-0.161648
O106	O	-0.825016	0.806692	-0.457614
C107	C	-0.764562	0.831978	-0.438124
H108	H	-0.763415	0.845859	-0.376523
H109	H	-0.728626	0.786855	-0.450453
H110	H	-0.752760	0.883664	-0.471637
H111	H	-1.015615	0.810534	-0.391889
O112	O	-0.794344	0.321027	-0.909015
C113	C	-0.750133	0.373514	-0.883867
H114	H	-0.768761	0.401816	-0.831875
H115	H	-0.703998	0.344415	-0.870537
H116	H	-0.741889	0.416752	-0.928853
O117	O	-0.794353	0.907989	-0.321703
C118	C	-0.771017	0.952039	-0.380022
H119	H	-0.811875	0.973620	-0.414651
H120	H	-0.743621	1.000803	-0.356143
H121	H	-0.738685	0.917315	-0.416427
