data_functionalizedCrystal
_audit_creation_method	'MofGen! by Chris Wilmer'
_symmetry_space_group_name_H-M	'P1'
_symmetry_Int_Tables_number	1
_symmetry_cell_setting	triclinic
loop_
_symmetry_equiv_pos_as_xyz
  x,y,z
_cell_length_a	14.971486
_cell_length_b	10.654550
_cell_length_c	14.048226
_cell_angle_alpha	89.994756
_cell_angle_beta	89.998499
_cell_angle_gamma	84.049516
loop_
_atom_site_label
_atom_site_type_symbol
_atom_site_fract_x
_atom_site_fract_y
_atom_site_fract_z
O1	O	1.187838	0.163659	-0.079049
O2	O	0.927544	0.183257	-0.079074
O3	O	1.063675	-0.009345	-0.079057
O4	O	1.051706	0.356262	-0.079066
O5	O	1.063659	-0.009357	0.079264
O6	O	0.927527	0.183246	0.079247
O7	O	1.187821	0.163648	0.079273
Zn8	Zn	1.057672	0.173445	0.104397
Zn9	Zn	1.057693	0.173460	-0.104198
O10	O	1.051690	0.356250	0.079256
C11	C	0.894206	0.182375	0.000083
C12	C	0.794895	0.179749	0.000073
C13	C	0.738285	0.292898	0.000072
C14	C	0.644972	0.290422	0.000086
C15	C	0.608271	0.174797	0.000095
C16	C	0.664888	0.061639	0.000099
C17	C	0.758199	0.064116	0.000092
C18	C	0.470397	0.056485	0.000112
C19	C	0.377080	0.054007	0.000118
C20	C	0.357171	0.282791	0.000107
C21	C	0.450482	0.285268	0.000100
C22	C	0.507092	0.172110	0.000102
C23	C	1.062788	-0.056139	0.000102
C24	C	1.060159	-0.195555	0.000099
C25	C	1.140311	-0.275900	0.000109
C26	C	1.137835	-0.406894	0.000102
C27	C	0.975048	-0.377185	0.000078
C28	C	0.977525	-0.246193	0.000078
C29	C	1.222945	-0.225262	0.000130
C30	C	1.303104	-0.305609	0.000142
C31	C	1.300628	-0.436603	0.000135
C32	C	1.217993	-0.487250	0.000116
C33	C	1.221159	0.164530	0.000113
C34	C	1.320470	0.167156	0.000117
C35	C	1.052577	0.403044	0.000094
C36	C	1.055206	0.542460	0.000092
N37	N	1.057663	0.173434	0.246758
N38	N	1.057709	0.173461	-0.246559
C39	C	1.117962	0.088185	0.296583
C40	C	1.117968	0.088184	0.396241
C41	C	1.057679	0.173440	0.446071
C42	C	0.997374	0.258693	0.396238
C43	C	0.997365	0.258687	0.296583
C44	C	0.997400	0.258702	0.603953
C45	C	0.997411	0.258710	0.703615
C46	C	1.118003	0.088200	0.703611
C47	C	1.117993	0.088193	0.603955
C48	C	1.057690	0.173448	0.554129
H49	H	0.768160	0.387053	0.000064
F50	F	1.391044	-0.251704	0.000151
H51	H	0.948281	0.328105	0.436816
F52	F	0.933241	0.349450	0.756642
F53	F	0.625825	-0.061419	0.000114
F54	F	1.182142	-0.002549	0.449269
F55	F	1.385938	-0.522110	0.000137
H56	H	1.215983	-0.593916	0.000100
F57	F	1.225587	-0.085848	0.000140
F58	F	0.530645	-0.063952	0.000118
H59	H	0.804290	-0.028022	0.000092
H60	H	1.167059	0.018765	0.256018
F61	F	0.887109	-0.431092	0.000059
F62	F	0.892218	-0.160679	0.000066
F63	F	1.182163	-0.002537	0.550921
F64	F	1.182183	-0.002533	0.756643
F65	F	0.933184	0.349417	0.243556
F66	F	0.584728	0.410851	0.000081
F67	F	0.489540	0.408329	0.000081
F68	F	0.933214	0.349438	0.550929
F69	F	0.338021	-0.069054	0.000152
F70	F	0.296921	0.403223	0.000106
