data_functionalizedCrystal
_audit_creation_method	'MofGen! by Chris Wilmer'
_symmetry_space_group_name_H-M	'P1'
_symmetry_Int_Tables_number	1
_symmetry_cell_setting	triclinic
loop_
_symmetry_equiv_pos_as_xyz
  x,y,z
_cell_length_a	17.639054
_cell_length_b	17.640280
_cell_length_c	17.639197
_cell_angle_alpha	87.831537
_cell_angle_beta	92.182570
_cell_angle_gamma	87.823438
loop_
_atom_site_label
_atom_site_type_symbol
_atom_site_fract_x
_atom_site_fract_y
_atom_site_fract_z
Zn1	Zn	1.124313	-0.215459	0.631167
Zn2	Zn	1.624313	0.284541	1.131167
Zn3	Zn	1.171899	-0.309382	0.489670
Zn4	Zn	1.671899	0.190618	0.989670
Zn5	Zn	1.020783	-0.205779	0.479990
Zn6	Zn	1.520783	0.294221	0.979990
Zn7	Zn	1.030360	-0.356916	0.583530
Zn8	Zn	1.530360	0.143084	1.083530
O9	O	1.086839	-0.271884	0.546089
O10	O	1.586839	0.228116	1.046089
O11	O	1.233187	-0.212076	0.636385
O12	O	1.733187	0.287924	1.136385
O13	O	1.167760	-0.271695	0.385838
O14	O	1.667760	0.228305	0.885838
O15	O	1.010594	-0.104505	0.515929
O16	O	1.510594	0.395495	1.015929
O17	O	1.268148	-0.281081	0.532428
O18	O	1.768148	0.218919	1.032428
O19	O	1.086657	-0.111617	0.626998
O20	O	1.586657	0.388383	1.126998
O21	O	1.056736	-0.195578	0.378726
O22	O	1.556736	0.304422	0.878726
O23	O	0.919492	-0.241670	0.469737
O24	O	1.419492	0.258330	0.969737
O25	O	1.026916	-0.362095	0.692397
O26	O	1.526916	0.137905	1.192397
O27	O	0.926528	-0.352709	0.545807
O28	O	1.426528	0.147291	1.045807
O29	O	1.095943	-0.258168	0.727396
O30	O	1.595943	0.241832	1.227396
O31	O	1.177046	-0.418246	0.486236
O32	O	1.677046	0.081754	0.986236
O33	O	1.073058	-0.453169	0.555194
O34	O	1.573058	0.046831	1.055194
C35	C	0.896417	-0.301298	0.501553
C36	C	1.396417	0.198702	1.001553
C37	C	0.814955	-0.313903	0.482515
C38	C	1.314955	0.186097	0.982515
C39	C	0.718332	-0.367504	0.401500
C40	C	1.218332	0.132496	0.901500
C41	C	0.794875	-0.355655	0.419396
C42	C	1.294875	0.144345	0.919396
C43	C	0.758491	-0.283986	0.527765
C44	C	1.258491	0.216014	1.027765
C45	C	0.681943	-0.295832	0.509881
C46	C	1.181943	0.204168	1.009881
C47	C	0.661870	-0.337591	0.446747
C48	C	1.161870	0.162409	0.946747
C49	C	0.625481	-0.265919	0.555128
C50	C	1.125481	0.234081	1.055128
C51	C	0.548940	-0.277761	0.537243
C52	C	1.048940	0.222239	1.037243
C53	C	0.528860	-0.319516	0.474110
C54	C	1.028860	0.180484	0.974110
C55	C	0.585328	-0.349433	0.428862
C56	C	1.085328	0.150567	0.928862
C57	C	0.645556	-0.224156	0.618259
C58	C	1.145556	0.275844	1.118259
C59	C	0.589094	-0.194243	0.663506
C60	C	1.089094	0.305757	1.163506
C61	C	0.512551	-0.206089	0.645624
C62	C	1.012551	0.293911	1.145624
C63	C	0.492471	-0.247844	0.582491
C64	C	0.992471	0.252156	1.082491
C65	C	0.456082	-0.176172	0.690872
C66	C	0.956082	0.323828	1.190872
C67	C	0.379541	-0.188014	0.672987
C68	C	0.879541	0.311986	1.172987
C69	C	0.415929	-0.259686	0.564606
C70	C	0.915929	0.240314	1.064606
C71	C	1.131272	-0.462300	0.516616
C72	C	1.631272	0.037700	1.016616
C73	C	1.150344	-0.543756	0.504048
C74	C	1.650344	-0.043756	1.004048
C75	C	0.942209	-0.902672	0.641907
C76	C	1.442209	-0.402672	1.141907
C77	C	0.960135	-0.979207	0.630074
C78	C	1.460135	-0.479207	1.130074
C79	C	1.068461	-0.942789	0.558376
C80	C	1.568461	-0.442789	1.058376
C81	C	1.050546	-0.866250	0.570206
C82	C	1.550546	-0.366250	1.070206
C83	C	0.987419	-0.846198	0.611971
C84	C	1.487419	-0.346198	1.111971
C85	C	1.095756	-0.809776	0.540271
C86	C	1.595756	-0.309776	1.040271
C87	C	1.077840	-0.733243	0.552097
C88	C	1.577840	-0.233243	1.052097
C89	C	1.014714	-0.713185	0.593858
C90	C	1.514714	-0.213185	1.093858
C91	C	0.969502	-0.769665	0.623797
C92	C	1.469502	-0.269665	1.123797
C93	C	1.158880	-0.829829	0.498501
C94	C	1.658880	-0.329829	0.998501
C95	C	1.204089	-0.773355	0.468566
C96	C	1.704089	-0.273355	0.968566
C97	C	1.186177	-0.696821	0.480396
C98	C	1.686177	-0.196821	0.980396
C99	C	1.123051	-0.676763	0.522158
C100	C	1.623051	-0.176763	1.022158
C101	C	1.231388	-0.640341	0.450457
C102	C	1.731388	-0.140341	0.950457
C103	C	1.213472	-0.563808	0.462283
C104	C	1.713472	-0.063808	0.962283
C105	C	1.105135	-0.600230	0.533983
C106	C	1.605135	-0.100230	1.033983
C107	C	1.278004	-0.242356	0.590800
C108	C	1.778004	0.257644	1.090800
C109	C	1.359468	-0.229773	0.609853
C110	C	1.859468	0.270227	1.109853
C111	C	1.057190	-0.316514	0.737230
C112	C	1.557190	0.183486	1.237230
C113	C	1.044555	-0.335532	0.818683
C114	C	1.544555	0.164468	1.318683
C115	C	1.042249	-0.080725	0.575698
C116	C	1.542249	0.419275	1.075698
C117	C	1.023247	0.000735	0.588315
C118	C	1.523247	0.500735	1.088315
C119	C	0.990813	-0.416443	0.915268
C120	C	1.490813	0.083557	1.415268
C121	C	1.002689	-0.398566	0.838733
C122	C	1.502689	0.101434	1.338733
C123	C	1.074566	-0.290353	0.875168
C124	C	1.574566	0.209647	1.375168
C125	C	1.062699	-0.308223	0.951708
C126	C	1.562699	0.191777	1.451708
C127	C	1.020821	-0.371268	0.971751
C128	C	1.520821	0.128732	1.471751
C129	C	1.092707	-0.263049	1.008191
C130	C	1.592707	0.236951	1.508191
C131	C	1.080837	-0.280915	1.084724
C132	C	1.580837	0.219085	1.584724
C133	C	1.038960	-0.343957	1.104774
C134	C	1.538960	0.156043	1.604774
C135	C	1.008951	-0.389135	1.048284
C136	C	1.508951	0.110865	1.548284
C137	C	1.134580	-0.200000	0.988146
C138	C	1.634580	0.300000	1.488146
C139	C	1.164588	-0.154826	1.044629
C140	C	1.664588	0.345174	1.544629
C141	C	1.152723	-0.172696	1.121164
C142	C	1.652723	0.327304	1.621164
C143	C	1.110846	-0.235737	1.141214
C144	C	1.610846	0.264263	1.641214
C145	C	1.182732	-0.127517	1.177654
C146	C	1.682732	0.372483	1.677654
C147	C	1.170862	-0.145384	1.254187
C148	C	1.670862	0.354616	1.754187
C149	C	1.098976	-0.253604	1.217747
C150	C	1.598976	0.246396	1.717747
C151	C	1.116365	-0.227446	1.355687
C152	C	1.616365	0.272554	1.855687
C153	C	1.128984	-0.208429	1.274231
C154	C	1.628984	0.291571	1.774231
H155	H	0.707882	-0.214512	0.632816
H156	H	1.207882	0.285488	1.132816
C157	C	0.780582	-0.238052	0.597210
C158	C	1.280582	0.261948	1.097210
N159	N	0.797219	-0.203455	0.649519
N160	N	1.297219	0.296545	1.149519
C161	C	0.995006	-0.628996	0.606867
C162	C	1.495006	-0.128996	1.106867
N163	N	0.980163	-0.565585	0.616667
N164	N	1.480163	-0.065585	1.116667
H165	H	0.466533	-0.329143	0.459540
H166	H	0.966533	0.170857	0.959540
C167	C	0.563245	-0.395376	0.359415
C168	C	1.063245	0.104624	0.859415
N169	N	0.546610	-0.429979	0.307110
N170	N	1.046610	0.070021	0.807110
C171	C	1.120629	-0.221004	0.853110
C172	C	1.620629	0.278996	1.353110
N173	N	1.155328	-0.168772	0.836498
N174	N	1.655328	0.331228	1.336498
H175	H	0.472438	-0.142166	0.742272
H176	H	0.972438	0.357834	1.242272
H177	H	0.956718	-0.467785	0.931588
H178	H	1.456718	0.032215	1.431588
H179	H	0.918102	-0.753340	0.657814
H180	H	1.418102	-0.253340	1.157814
C181	C	0.696248	-0.413448	0.332054
C182	C	1.196248	0.086552	0.832054
N183	N	0.679614	-0.448050	0.279748
N184	N	1.179614	0.051950	0.779748
H185	H	0.890809	-0.886347	0.675923
H186	H	1.390809	-0.386347	1.175923
C187	C	0.856984	-0.388570	0.369618
C188	C	1.356984	0.111430	0.869618
N189	N	0.903763	-0.413361	0.332126
N190	N	1.403763	0.086639	0.832126
H191	H	0.923323	-1.025189	0.654465
H192	H	1.423323	-0.525189	1.154465
H193	H	0.605449	-0.160241	0.714908
H194	H	1.105449	0.339759	1.214908
C195	C	1.052913	-0.322960	1.239799
C196	C	1.552913	0.177040	1.739799
N197	N	1.018218	-0.375196	1.256408
N198	N	1.518218	0.124804	1.756408
C199	C	1.210652	-0.085478	1.022572
C200	C	1.710652	0.414522	1.522572
N201	N	1.245350	-0.033245	1.005959
N202	N	1.745350	0.466755	1.505959
H203	H	1.029290	-0.358498	1.167093
H204	H	1.529290	0.141502	1.667093
H205	H	1.250286	-0.517825	0.437905
H206	H	1.750286	-0.017825	0.937905
H207	H	1.119858	-0.959127	0.524368
H208	H	1.619858	-0.459127	1.024368
C209	C	1.300819	-0.662409	0.404507
C210	C	1.800819	-0.162409	0.904507
N211	N	1.353115	-0.679030	0.369896
N212	N	1.853115	-0.179030	0.869896
C213	C	0.317430	-0.155111	0.722763
C214	C	0.817430	0.344889	1.222763
N215	N	0.270647	-0.130326	0.760255
N216	N	0.770647	0.369674	1.260255
C217	C	0.962888	-0.458492	1.070336
C218	C	1.462888	0.041508	1.570336
N219	N	0.928193	-0.510728	1.086945
N220	N	1.428193	-0.010728	1.586945
C221	C	1.228789	-0.058165	1.155594
C222	C	1.728789	0.441835	1.655594
N223	N	1.263480	-0.005928	1.138979
N224	N	1.763480	0.494072	1.638979
H225	H	1.173466	-0.892148	0.488877
H226	H	1.673466	-0.392148	0.988877
C227	C	1.273525	-0.795422	0.422622
C228	C	1.773525	-0.295422	0.922622
N229	N	1.325826	-0.812042	0.388017
N230	N	1.825826	-0.312042	0.888017
H231	H	0.978232	-0.435345	0.792743
H232	H	1.478232	0.064655	1.292743
H233	H	1.053734	-0.583905	0.568000
H234	H	1.553734	-0.083905	1.068000
H235	H	1.144245	-0.185457	0.925827
H236	H	1.644245	0.314543	1.425827
H237	H	1.195293	-0.108595	1.300178
H238	H	1.695293	0.391405	1.800178
H239	H	0.399586	-0.293698	0.513201
H240	H	0.899586	0.206302	1.013201
