data_functionalizedCrystal
_audit_creation_method	'MofGen! by Chris Wilmer'
_symmetry_space_group_name_H-M	'P1'
_symmetry_Int_Tables_number	1
_symmetry_cell_setting	triclinic
loop_
_symmetry_equiv_pos_as_xyz
  x,y,z
_cell_length_a	19.077105
_cell_length_b	16.959454
_cell_length_c	16.959455
_cell_angle_alpha	90.010582
_cell_angle_beta	92.299293
_cell_angle_gamma	87.716588
loop_
_atom_site_label
_atom_site_type_symbol
_atom_site_fract_x
_atom_site_fract_y
_atom_site_fract_z
Zn1	Zn	1.075880	-0.363425	0.495439
Zn2	Zn	1.075837	-0.495578	0.363267
Zn3	Zn	0.958218	-0.358101	0.357972
Zn4	Zn	0.958160	-0.490244	0.490100
O5	O	1.017024	-0.426837	0.426695
O6	O	1.174364	-0.385415	0.482357
O7	O	1.060241	-0.477345	0.251954
O8	O	0.973868	-0.248198	0.376225
O9	O	1.174333	-0.482508	0.385251
O10	O	1.060314	-0.252109	0.477222
O11	O	0.973826	-0.376341	0.248064
O12	O	0.859720	-0.371169	0.371048
O13	O	0.973770	-0.473417	0.601419
O14	O	0.859678	-0.468254	0.468122
O15	O	1.060258	-0.380243	0.605342
O16	O	1.060185	-0.605479	0.380073
O17	O	0.973728	-0.601560	0.473257
C18	C	0.834162	-0.418556	0.418431
C19	C	0.755932	-0.415032	0.414915
C20	C	1.016965	-0.632200	0.426678
C21	C	1.017004	-0.720059	0.426701
C22	C	0.719176	-0.464000	0.463725
C23	C	0.645672	-0.460679	0.460424
C24	C	0.608924	-0.408393	0.408310
C25	C	0.645685	-0.359420	0.359498
C26	C	0.719189	-0.362738	0.362803
C27	C	0.389093	-0.393038	0.393019
C28	C	0.315585	-0.389726	0.389716
C29	C	0.315576	-0.490984	0.490644
C30	C	0.389081	-0.494300	0.493941
C31	C	0.425836	-0.445324	0.445132
N32	N	0.533791	-0.404999	0.404934
N33	N	0.500968	-0.448715	0.448513
C34	C	0.972071	-1.089527	0.475213
C35	C	1.062172	-1.093552	0.378266
C36	C	1.062148	-1.011005	0.378257
C37	C	1.017083	-0.967715	0.426726
C38	C	0.972044	-1.006973	0.475204
C39	C	1.107182	-0.971741	0.329775
C40	C	1.107158	-0.889189	0.329764
C41	C	1.062097	-0.845898	0.378238
C42	C	1.017056	-0.885160	0.426718
C43	C	0.971991	-0.841871	0.475187
C44	C	0.926953	-0.881132	0.523672
C45	C	0.926982	-0.963682	0.523678
C46	C	1.062068	-0.763348	0.378232
C47	C	0.971964	-0.759316	0.475178
C48	C	1.200600	-0.435151	0.434991
C49	C	1.278829	-0.438693	0.438526
C50	C	1.017012	-0.426829	0.632862
C51	C	1.017007	-0.426826	0.720719
C52	C	1.017102	-0.220672	0.426729
C53	C	1.017135	-0.132817	0.426743
C54	C	0.971987	-0.475359	1.090155
C55	C	1.062048	-0.378336	1.094235
C56	C	1.062046	-0.378330	1.011689
C57	C	1.017014	-0.426839	0.968372
C58	C	0.971985	-0.475355	1.007601
C59	C	1.107079	-0.329820	0.972454
C60	C	1.107079	-0.329812	0.889903
C61	C	1.062043	-0.378318	0.846584
C62	C	1.017012	-0.426836	0.885818
C63	C	0.971980	-0.475345	0.842501
C64	C	0.926945	-0.523859	0.881734
C65	C	0.926949	-0.523861	0.964282
C66	C	1.062039	-0.378316	0.764035
C67	C	0.971978	-0.475342	0.759948
C68	C	1.017026	-0.426858	1.221328
C69	C	1.017019	-0.426849	1.133471
H70	H	0.749091	-0.506579	0.506159
H71	H	0.418996	-0.536878	0.536376
O72	O	0.878343	-0.834433	0.575938
H73	H	0.847024	-0.875596	0.609649
O74	O	0.606056	-0.303044	0.303267
H75	H	0.548769	-0.308976	0.309154
O76	O	0.878394	-1.006024	0.575953
H77	H	0.885976	-1.070698	0.567803
O78	O	0.275936	-0.543798	0.543295
H79	H	0.218651	-0.532704	0.532250
O80	O	0.758829	-0.309924	0.310150
H81	H	0.792327	-0.271267	0.347101
O82	O	0.923350	-0.712625	0.527447
H83	H	0.892034	-0.753795	0.561152
O84	O	0.923402	-0.527662	0.713233
H85	H	0.930962	-0.519509	0.649240
O86	O	1.155783	-1.018449	0.277515
H87	H	1.143758	-1.002113	0.214915
H88	H	0.935404	-1.121498	0.514690
H89	H	1.098734	-0.731385	0.338752
H90	H	0.419010	-0.353164	0.353269
O91	O	0.275936	-0.333353	0.333489
H92	H	0.242443	-0.291690	0.367418
H93	H	1.098857	-1.128803	0.338800
O94	O	0.878373	-0.576178	0.835012
H95	H	0.885939	-0.568019	0.771021
H96	H	0.890286	-0.563361	0.996233
O97	O	1.155740	-0.846844	0.277483
H98	H	1.187084	-0.890815	0.243787
H99	H	0.935318	-0.514855	1.122101
H100	H	1.098714	-0.338847	1.129508
H101	H	0.615748	-0.500554	0.500170
H102	H	1.143746	-0.290332	1.007728
H103	H	1.143749	-0.290309	0.857967
O104	O	1.110605	-0.325998	0.721717
H105	H	1.141918	-0.292266	0.765706
