data_functionalizedCrystal
_audit_creation_method	'MofGen! by Chris Wilmer'
_symmetry_space_group_name_H-M	'P1'
_symmetry_Int_Tables_number	1
_symmetry_cell_setting	triclinic
loop_
_symmetry_equiv_pos_as_xyz
  x,y,z
_cell_length_a	12.759395
_cell_length_b	12.759394
_cell_length_c	12.759393
_cell_angle_alpha	89.970474
_cell_angle_beta	89.979644
_cell_angle_gamma	90.015393
loop_
_atom_site_label
_atom_site_type_symbol
_atom_site_fract_x
_atom_site_fract_y
_atom_site_fract_z
Zn1	Zn	1.606273	-0.418173	-0.594011
Zn2	Zn	1.606167	-0.593888	-0.418334
Zn3	Zn	1.430572	-0.418228	-0.418348
Zn4	Zn	1.430566	-0.593815	-0.593973
O5	O	1.518395	-0.506026	-0.506166
O6	O	1.753280	-0.441489	-0.570717
O7	O	1.582832	-0.570641	-0.271315
O8	O	1.453926	-0.271200	-0.441672
O9	O	1.753202	-0.570586	-0.441648
O10	O	1.583013	-0.271159	-0.570730
O11	O	1.453823	-0.441584	-0.271325
O12	O	1.283550	-0.441513	-0.441635
O13	O	1.453916	-0.570461	-0.740999
O14	O	1.283546	-0.570516	-0.570666
O15	O	1.583008	-0.441418	-0.741027
O16	O	1.582826	-0.740900	-0.441611
O17	O	1.453813	-0.740846	-0.570652
C18	C	1.245427	-0.506013	-0.506148
C19	C	1.128650	-0.506033	-0.506166
C20	C	1.128685	-0.640581	-0.640308
C21	C	1.073841	-0.707863	-0.707383
C22	C	0.964120	-0.707876	-0.707395
C23	C	0.909239	-0.640597	-0.640329
C24	C	0.964083	-0.573315	-0.573255
C25	C	1.073807	-0.573311	-0.573247
C26	C	0.964048	-0.438763	-0.439119
C27	C	1.073770	-0.438754	-0.439099
C28	C	0.909168	-0.371485	-0.372052
C29	C	0.964011	-0.304206	-0.304971
C30	C	1.073740	-0.304197	-0.304960
C31	C	1.128614	-0.371472	-0.372025
C32	C	1.518336	-0.778994	-0.506149
C33	C	1.518407	-0.895770	-0.506177
C34	C	1.652725	-0.895569	-0.640667
C35	C	1.719917	-0.950330	-0.707919
C36	C	1.719979	-1.060051	-0.707942
C37	C	1.652840	-1.115015	-0.640707
C38	C	1.585649	-1.060255	-0.573454
C39	C	1.585596	-0.950531	-0.573437
C40	C	1.451327	-1.060456	-0.438971
C41	C	1.451268	-0.950734	-0.438942
C42	C	1.384188	-1.115419	-0.371736
C43	C	1.317000	-1.060659	-0.304476
C44	C	1.316941	-0.950931	-0.304456
C45	C	1.384076	-0.895974	-0.371689
C46	C	1.792428	-0.506040	-0.506185
C47	C	1.909205	-0.506045	-0.506193
C48	C	1.518473	-0.505925	-0.780200
C49	C	1.518507	-0.505882	-0.896977
C50	C	1.518482	-0.231993	-0.506207
C51	C	1.518519	-0.115216	-0.506224
C52	C	1.585729	-0.438678	-0.951855
C53	C	1.585747	-0.438633	-1.061579
C54	C	1.451317	-0.573004	-1.061537
C55	C	1.451294	-0.573044	-0.951815
C56	C	1.518377	-0.506051	-0.233199
C57	C	1.518547	-0.505798	-0.116423
H58	H	1.118537	-0.762638	-0.761988
C59	C	1.243158	-1.121119	-0.230528
H60	H	1.252819	-1.194307	-0.240174
H61	H	1.172551	-1.103180	-0.245838
H62	H	1.258565	-1.103182	-0.159941
H63	H	1.396597	-0.627687	-1.106200
C64	C	0.903789	-0.781837	-0.781221
H65	H	0.952184	-0.821894	-0.821172
H66	H	0.861036	-0.741666	-0.827054
H67	H	0.860939	-0.827585	-0.740986
H68	H	1.640455	-0.383988	-0.907209
C69	C	1.134060	-0.230182	-0.231180
H70	H	1.085657	-0.190124	-0.191241
H71	H	1.176891	-0.184456	-0.271447
H72	H	1.176831	-0.270312	-0.185317
C73	C	1.249304	-0.371462	-0.372012
H74	H	1.274110	-0.321761	-0.322457
H75	H	1.274158	-0.353384	-0.439841
H76	H	1.274102	-0.439239	-0.353710
C77	C	1.377353	-0.646978	-0.891445
H78	H	1.337339	-0.686984	-0.939817
H79	H	1.331581	-0.606804	-0.848638
H80	H	1.417531	-0.692774	-0.848645
H81	H	1.384039	-0.806633	-0.371674
C82	C	1.652665	-0.774879	-0.640632
H83	H	1.603038	-0.750138	-0.590944
H84	H	1.634461	-0.750016	-0.708409
H85	H	1.720463	-0.750024	-0.622499
C86	C	0.903648	-0.230205	-0.231210
H87	H	0.952023	-0.190130	-0.191261
H88	H	0.860809	-0.270336	-0.185371
H89	H	0.860882	-0.184478	-0.271499
H90	H	1.640485	-0.383907	-1.106256
H91	H	0.819898	-0.640604	-0.640354
C92	C	0.788477	-0.371502	-0.372061
H93	H	0.763672	-0.421216	-0.421604
H94	H	0.763669	-0.303732	-0.390352
H95	H	0.763632	-0.389591	-0.304225
C96	C	1.793768	-0.889869	-0.781869
H97	H	1.784118	-0.816679	-0.772219
H98	H	1.778377	-0.907812	-0.852452
H99	H	1.864377	-0.907807	-0.766540
C100	C	1.249375	-0.640565	-0.640301
H101	H	1.274205	-0.690261	-0.689854
H102	H	1.274171	-0.658637	-0.572470
H103	H	1.274208	-0.572783	-0.658602
H104	H	1.652888	-1.204356	-0.640740
C105	C	1.793892	-1.120290	-0.781914
H106	H	1.833873	-1.071846	-0.821948
H107	H	1.753709	-1.163098	-0.827664
H108	H	1.839710	-1.163078	-0.741754
H109	H	1.384240	-1.204760	-0.371763
H110	H	1.262221	-0.906351	-0.249694
