data_functionalizedCrystal
_audit_creation_method	'MofGen! by Chris Wilmer'
_symmetry_space_group_name_H-M	'P1'
_symmetry_Int_Tables_number	1
_symmetry_cell_setting	triclinic
loop_
_symmetry_equiv_pos_as_xyz
  x,y,z
_cell_length_a	10.489741
_cell_length_b	11.792241
_cell_length_c	10.868271
_cell_angle_alpha	90.001559
_cell_angle_beta	90.001675
_cell_angle_gamma	84.366295
loop_
_atom_site_label
_atom_site_type_symbol
_atom_site_fract_x
_atom_site_fract_y
_atom_site_fract_z
O1	O	-1.693508	-0.160131	-0.102247
O2	O	-1.322262	-0.175163	-0.102266
O3	O	-1.516894	-0.002501	-0.102247
O4	O	-1.498876	-0.332793	-0.102265
O5	O	-1.516876	-0.002506	0.102397
O6	O	-1.322244	-0.175168	0.102379
O7	O	-1.693491	-0.160137	0.102398
Zn8	Zn	-1.507864	-0.167653	0.134880
Zn9	Zn	-1.507888	-0.167646	-0.134748
O10	O	-1.498858	-0.332799	0.102379
C11	C	-1.274725	-0.174030	0.000054
C12	C	-1.133107	-0.170633	0.000047
C13	C	-1.515753	0.039791	0.000075
C14	C	-1.512366	0.165813	0.000073
C15	C	-1.741027	-0.161269	0.000075
C16	C	-1.882645	-0.164666	0.000074
C17	C	-1.065341	-0.060774	0.000065
C18	C	-0.973046	-0.112668	-0.100836
C19	C	-0.973063	-0.112699	0.100927
C20	C	-1.042677	-0.222573	-0.100937
C21	C	-1.042703	-0.222589	0.100917
C22	C	-0.950436	-0.274563	-0.000008
C23	C	-1.499999	-0.375090	0.000055
C24	C	-1.503387	-0.501113	0.000048
N25	N	-1.507858	-0.167658	0.318894
C26	C	-1.506136	0.396542	0.000052
C27	C	-1.509598	0.268148	0.000064
N28	N	-1.507904	-0.167633	-0.318762
C29	C	-1.507868	-0.167658	0.430232
C30	C	-1.507884	-0.167648	0.569909
H31	H	-0.942198	-0.066181	-0.186137
H32	H	-1.115339	0.029538	-0.000057
C33	C	-0.883236	-0.396691	-0.000084
C34	C	-0.793581	-0.437319	0.106661
C35	C	-0.726379	-0.559445	0.106579
C36	C	-0.748832	-0.640942	-0.000247
C37	C	-0.838492	-0.600316	-0.106999
C38	C	-0.905694	-0.478190	-0.106917
H39	H	-0.776956	-0.376988	0.185747
H40	H	-0.660007	-0.589519	0.185604
H41	H	-0.699085	-0.731347	-0.000308
H42	H	-0.855117	-0.660647	-0.186085
H43	H	-0.972066	-0.448116	-0.185943
C44	C	-0.931416	-0.049888	0.216172
C45	C	-0.838684	-0.112324	0.309268
C46	C	-0.797042	-0.049504	0.424505
C47	C	-0.848132	0.075753	0.446645
C48	C	-0.940869	0.138197	0.353547
C49	C	-0.982511	0.075376	0.238310
H50	H	-0.800860	-0.205053	0.292881
H51	H	-0.728392	-0.095729	0.493423
H52	H	-0.817306	0.122257	0.531951
H53	H	-0.978693	0.230926	0.369934
H54	H	-1.051161	0.121601	0.169392
C55	C	-1.084105	-0.285308	-0.216318
C56	C	-1.055792	-0.239734	-0.345231
C57	C	-1.097221	-0.302463	-0.460613
C58	C	-1.166963	-0.410767	-0.447082
C59	C	-1.195280	-0.456347	-0.318164
C60	C	-1.153851	-0.393618	-0.202782
H61	H	-1.004161	-0.159556	-0.355252
H62	H	-1.076259	-0.268721	-0.556046
H63	H	-1.197632	-0.457203	-0.532494
H64	H	-1.246910	-0.536525	-0.308143
H65	H	-1.174813	-0.427360	-0.107349
H66	H	-1.073584	-0.269037	0.186222
