data_functionalizedCrystal
_audit_creation_method	'MofGen! by Chris Wilmer'
_symmetry_space_group_name_H-M	'P1'
_symmetry_Int_Tables_number	1
_symmetry_cell_setting	triclinic
loop_
_symmetry_equiv_pos_as_xyz
  x,y,z
_cell_length_a	10.967971
_cell_length_b	15.944493
_cell_length_c	9.482944
_cell_angle_alpha	100.474165
_cell_angle_beta	88.380923
_cell_angle_gamma	84.106124
loop_
_atom_site_label
_atom_site_type_symbol
_atom_site_fract_x
_atom_site_fract_y
_atom_site_fract_z
O1	O	0.171752	1.123096	0.077844
O2	O	0.190979	0.878182	0.073034
O3	O	0.006021	1.010582	0.119362
O4	O	0.356710	0.990696	0.031516
O5	O	-0.027465	0.987710	-0.114041
O6	O	0.157493	0.855310	-0.160369
O7	O	0.138266	1.100224	-0.155559
Cu8	Cu	0.144822	0.975679	-0.179276
Cu9	Cu	0.184423	1.002728	0.096751
O10	O	0.323224	0.967824	-0.201888
C11	C	0.173450	0.835466	-0.043470
C12	C	0.171095	0.742262	-0.042877
C13	C	0.279965	0.504475	-0.070148
C14	C	0.204745	0.443732	-0.170527
C15	C	0.166729	0.571622	-0.041786
C16	C	0.237732	0.466287	0.059597
C17	C	0.162522	0.406791	-0.040729
C18	C	0.091525	0.512097	-0.142269
C19	C	0.124545	0.534666	0.087955
C20	C	0.049237	0.473954	-0.012432
C21	C	0.169156	0.666576	-0.042398
C22	C	0.160084	0.311838	-0.040125
C23	C	-0.055597	0.999428	0.013905
C24	C	-0.189311	1.000256	0.047409
C25	C	-0.266277	0.988777	-0.058562
C26	C	-0.404477	0.989632	-0.023936
C27	C	0.384843	0.978979	-0.096427
C28	C	0.518558	0.978152	-0.129922
C29	C	0.155795	1.142940	-0.039052
C30	C	0.158152	1.236146	-0.039636
N31	N	0.116968	0.956660	-0.373418
C32	C	0.176207	0.997112	-0.460458
C33	C	0.153020	0.981295	-0.622066
N34	N	0.212268	1.021753	0.290895
H35	H	-0.048387	0.460299	0.011954
H36	H	-0.440892	1.000099	0.092432
H37	H	0.049082	0.910320	-0.418542
H38	H	-0.225731	1.010721	0.163769
O39	O	0.302204	1.083138	-0.649364
H40	H	0.253890	1.135779	-0.567888
O41	O	0.319585	0.439400	0.172588
H42	H	0.287169	0.477182	0.279572
O43	O	0.409136	0.522774	-0.102650
H44	H	0.442141	0.485858	-0.210036
O45	O	0.249597	0.391587	-0.315269
H46	H	0.189793	0.410680	-0.399140
O47	O	-0.218055	0.974925	-0.212701
H48	H	-0.150927	0.916565	-0.235746
O49	O	0.009724	0.538804	-0.255441
H50	H	0.012186	0.608265	-0.255040
H51	H	0.090719	0.574036	0.197225
H52	H	-0.445031	0.967694	-0.246290
H53	H	0.244084	1.043458	-0.415332
H54	H	0.085130	0.934952	-0.667184
