data_functionalizedCrystal
_audit_creation_method	'MofGen! by Chris Wilmer'
_symmetry_space_group_name_H-M	'P1'
_symmetry_Int_Tables_number	1
_symmetry_cell_setting	triclinic
loop_
_symmetry_equiv_pos_as_xyz
  x,y,z
_cell_length_a	19.077105
_cell_length_b	16.959454
_cell_length_c	16.959447
_cell_angle_alpha	90.025463
_cell_angle_beta	92.316278
_cell_angle_gamma	87.716588
loop_
_atom_site_label
_atom_site_type_symbol
_atom_site_fract_x
_atom_site_fract_y
_atom_site_fract_z
Zn1	Zn	1.076006	-0.363302	0.495445
Zn2	Zn	1.075930	-0.495488	0.363272
Zn3	Zn	0.958309	-0.358012	0.357976
Zn4	Zn	0.958285	-0.490122	0.490106
O5	O	1.017132	-0.426731	0.426700
O6	O	1.174487	-0.385296	0.482363
O7	O	1.060305	-0.477283	0.251957
O8	O	0.973964	-0.248104	0.376230
O9	O	1.174431	-0.482412	0.385256
O10	O	1.060435	-0.251991	0.477228
O11	O	0.973890	-0.376280	0.248067
O12	O	0.859815	-0.371077	0.371052
O13	O	0.973923	-0.473267	0.601426
O14	O	0.859797	-0.468138	0.468127
O15	O	1.060412	-0.380093	0.605349
O16	O	1.060282	-0.605385	0.380078
O17	O	0.973849	-0.601443	0.473262
C18	C	0.834268	-0.418452	0.418436
C19	C	0.756038	-0.414929	0.414920
C20	C	0.719295	-0.463885	0.463730
C21	C	0.645789	-0.460564	0.460430
C22	C	0.609028	-0.408292	0.408315
C23	C	0.645777	-0.359331	0.359503
C24	C	0.719281	-0.362648	0.362807
C25	C	0.389194	-0.392940	0.393024
C26	C	0.315684	-0.389629	0.389721
C27	C	0.315701	-0.490862	0.490650
C28	C	0.389207	-0.494178	0.493947
C29	C	0.425949	-0.445214	0.445137
N30	N	0.533894	-0.404898	0.404938
N31	N	0.501082	-0.448604	0.448518
C32	C	1.017073	-0.632094	0.426684
C33	C	1.017113	-0.719953	0.426706
C34	C	0.972192	-1.089409	0.475218
C35	C	1.062269	-1.093458	0.378270
C36	C	1.062244	-1.010911	0.378262
C37	C	1.017192	-0.967609	0.426732
C38	C	0.972165	-1.006855	0.475210
C39	C	1.107266	-0.971659	0.329779
C40	C	1.107242	-0.889107	0.329768
C41	C	1.062193	-0.845804	0.378242
C42	C	1.017165	-0.885054	0.426723
C43	C	0.972113	-0.841753	0.475193
C44	C	0.927087	-0.881002	0.523678
C45	C	0.927116	-0.963552	0.523684
C46	C	1.062165	-0.763254	0.378236
C47	C	0.972085	-0.759198	0.475184
C48	C	1.200711	-0.435043	0.434996
C49	C	1.278941	-0.438585	0.438531
C50	C	1.017173	-0.426672	0.632870
C51	C	1.017191	-0.426647	0.720727
C52	C	1.017211	-0.220566	0.426734
C53	C	1.017244	-0.132711	0.426749
C54	C	1.017132	-0.426734	0.221333
C55	C	1.017251	-0.426543	0.133483
C56	C	1.062192	-0.479221	0.764029
C57	C	0.972201	-0.374052	0.759980
C58	C	0.972214	-0.374030	0.842526
C59	C	1.017215	-0.426604	0.885828
C60	C	1.062204	-0.479202	0.846583
C61	C	0.927220	-0.321439	0.881777
C62	C	0.927230	-0.321414	0.964328
C63	C	0.972235	-0.373986	1.007632
C64	C	1.017227	-0.426585	0.968382
C65	C	1.062228	-0.479160	1.011684
C66	C	1.107224	-0.531756	0.972436
C67	C	1.107210	-0.531774	0.889887
C68	C	0.972250	-0.373968	1.090181
C69	C	1.062240	-0.479140	1.094238
H70	H	0.419133	-0.536745	0.536382
H71	H	1.143862	-0.574564	1.007703
H72	H	0.890578	-0.278640	0.846514
H73	H	0.615841	-0.316766	0.317073
C74	C	0.878495	-0.264275	1.007047
C75	C	0.918367	-0.215415	1.056269
C76	C	0.873496	-0.162778	1.095645
H77	H	0.851672	-0.232891	0.969528
H78	H	0.847838	-0.293101	1.037902
H79	H	0.949011	-0.186591	1.025416
H80	H	0.945188	-0.246778	1.093803
H81	H	0.842840	-0.191604	1.126500
H82	H	0.846676	-0.131399	1.058120
H83	H	0.900542	-0.129625	1.129052
H84	H	0.935614	-0.331147	1.122133
C85	C	1.111084	-0.720543	0.325729
C86	C	1.156149	-0.675115	0.372552
C87	C	1.201220	-0.635752	0.324207
H88	H	1.137982	-0.758068	0.296846
H89	H	1.084185	-0.687119	0.290061
H90	H	1.183046	-0.708536	0.408206
H91	H	1.129270	-0.637576	0.401434
H92	H	1.174321	-0.602328	0.288539
H93	H	1.228114	-0.673283	0.295326
H94	H	1.231798	-0.604919	0.355968
H95	H	0.749220	-0.506453	0.506165
H96	H	1.143842	-0.574595	0.857923
H97	H	1.098889	-0.521951	1.129489
H98	H	0.615876	-0.500430	0.500176
C99	C	0.759212	-0.309401	0.309942
C100	C	0.801426	-0.260684	0.356682
C101	C	0.838212	-0.211612	0.308012
H102	H	0.787923	-0.340796	0.276726
H103	H	0.726813	-0.277751	0.278446
H104	H	0.833821	-0.292331	0.388166
H105	H	0.772733	-0.229273	0.389898
H106	H	0.805813	-0.179962	0.276515
H107	H	0.866919	-0.243014	0.274797
H108	H	0.866853	-0.178547	0.339718
C109	C	0.275723	-0.332987	0.333060
C110	C	0.233497	-0.375759	0.280405
C111	C	0.196677	-0.323607	0.228203
H112	H	0.247016	-0.297290	0.361997
H113	H	0.308101	-0.304301	0.304416
H114	H	0.201123	-0.404432	0.309046
H115	H	0.262186	-0.411452	0.251450
H116	H	0.229055	-0.294921	0.199559
H117	H	0.167975	-0.287913	0.257147
H118	H	0.168028	-0.352620	0.192467
H119	H	0.419100	-0.353077	0.353274
H120	H	0.890457	-0.995516	0.563157
H121	H	1.143939	-1.006921	0.290312
C122	C	1.111115	-0.536362	0.721568
C123	C	1.150535	-0.582388	0.777162
C124	C	1.195615	-0.635029	0.738077
H125	H	1.084253	-0.569664	0.688140
H126	H	1.141828	-0.507543	0.690780
H127	H	1.119826	-0.611205	0.807938
H128	H	1.177411	-0.549107	0.810593
H129	H	1.226328	-0.606210	0.707288
H130	H	1.168747	-0.668326	0.704650
H131	H	1.222371	-0.666259	0.775792
C132	C	0.923095	-0.712327	0.527840
C133	C	0.883663	-0.764370	0.570285
C134	C	0.838520	-0.721221	0.618792
H135	H	0.949913	-0.681292	0.563580
H136	H	0.892393	-0.678797	0.496204
H137	H	0.914361	-0.797886	0.601918
H138	H	0.856831	-0.795406	0.534565
H139	H	0.807818	-0.687691	0.587157
H140	H	0.865344	-0.690188	0.654528
H141	H	0.811756	-0.756525	0.647592
C142	C	0.923421	-0.317008	0.712830
C143	C	0.933051	-0.328271	0.632137
C144	C	0.888133	-0.275725	0.588677
H145	H	0.876101	-0.326380	0.724120
H146	H	0.933751	-0.264345	0.726789
H147	H	0.922717	-0.380921	0.618184
H148	H	0.980362	-0.318893	0.620823
H149	H	0.898462	-0.223062	0.602635
H150	H	0.840815	-0.285101	0.599973
H151	H	0.894665	-0.283355	0.533922
H152	H	0.890402	-0.845736	0.563139
H153	H	0.285778	-0.530724	0.530389
C154	C	0.923282	-1.131873	0.527943
C155	C	0.883836	-1.076280	0.570401
C156	C	0.838781	-1.115369	0.618988
H157	H	0.892580	-1.162736	0.496387
H158	H	0.950185	-1.165230	0.563671
H159	H	0.856936	-1.042937	0.534678
H160	H	0.914521	-1.045415	0.601973
H161	H	0.865683	-1.148726	0.654715
H162	H	0.808083	-1.146230	0.587425
H163	H	0.812016	-1.077656	0.647806
H164	H	1.143905	-0.857155	0.290290
C165	C	1.111279	-1.140389	0.325697
C166	C	1.180909	-1.123402	0.346088
C167	C	1.226072	-1.166624	0.297665
H168	H	1.104926	-1.195186	0.332607
H169	H	1.101041	-1.126422	0.272101
H170	H	1.191143	-1.137374	0.399671
H171	H	1.187283	-1.068613	0.339174
H172	H	1.215835	-1.152656	0.244070
H173	H	1.219713	-1.221418	0.304580
H174	H	1.273320	-1.155098	0.311489
