data_functionalizedCrystal
_audit_creation_method	'MofGen! by Chris Wilmer'
_symmetry_space_group_name_H-M	'P1'
_symmetry_Int_Tables_number	1
_symmetry_cell_setting	triclinic
loop_
_symmetry_equiv_pos_as_xyz
  x,y,z
_cell_length_a	13.033808
_cell_length_b	13.897448
_cell_length_c	13.897441
_cell_angle_alpha	90.028012
_cell_angle_beta	97.153135
_cell_angle_gamma	82.786240
loop_
_atom_site_label
_atom_site_type_symbol
_atom_site_fract_x
_atom_site_fract_y
_atom_site_fract_z
Zn1	Zn	1.597572	0.196436	-0.358386
Zn2	Zn	2.097572	0.696436	0.141614
Zn3	Zn	1.597452	0.357772	-0.197109
Zn4	Zn	2.097452	0.857772	0.302891
Zn5	Zn	1.422820	0.216994	-0.217561
Zn6	Zn	1.922820	0.716994	0.282439
Zn7	Zn	1.422794	0.378209	-0.378807
Zn8	Zn	1.922794	0.878209	0.121193
O9	O	1.510160	0.287353	-0.287966
O10	O	2.010160	0.787353	0.212034
O11	O	1.743786	0.200682	-0.319887
O12	O	2.243786	0.700682	0.180113
O13	O	1.574247	0.339148	-0.064845
O14	O	2.074247	0.839148	0.435155
O15	O	1.446062	0.079278	-0.236255
O16	O	1.946062	0.579278	0.263745
O17	O	1.743697	0.319214	-0.201398
O18	O	2.243697	0.819214	0.298602
O19	O	1.574452	0.064175	-0.339719
O20	O	2.074452	0.564175	0.160281
O21	O	1.445945	0.235719	-0.079871
O22	O	1.945945	0.735719	0.420129
O23	O	1.276587	0.255536	-0.256056
O24	O	1.776587	0.755536	0.243944
O25	O	1.446019	0.354046	-0.511075
O26	O	1.946019	0.854046	-0.011075
O27	O	1.276568	0.373980	-0.374523
O28	O	1.776568	0.873980	0.125477
O29	O	1.574427	0.220498	-0.496072
O30	O	2.074427	0.720498	0.003928
O31	O	1.574222	0.495472	-0.221199
O32	O	2.074222	0.995472	0.278801
O33	O	1.445902	0.510487	-0.354692
O34	O	1.945902	1.010487	0.145308
C35	C	1.238662	0.319207	-0.319726
C36	C	1.738662	0.819207	0.180274
C37	C	1.122514	0.332858	-0.333335
C38	C	1.622514	0.832858	0.166665
C39	C	0.950669	0.294353	-0.294947
C40	C	1.450669	0.794353	0.205053
C41	C	1.070713	0.280245	-0.280877
C42	C	1.570713	0.780245	0.219123
C43	C	1.510074	0.537977	-0.287959
C44	C	2.010074	1.037977	0.212041
C45	C	1.510134	0.645184	-0.287978
C46	C	2.010134	1.145184	0.212022
C47	C	1.510236	0.841467	-0.288035
C48	C	2.010236	1.341467	0.211965
C49	C	1.510176	0.732242	-0.288006
C50	C	2.010176	1.232242	0.211994
C51	C	1.782717	0.255375	-0.256083
C52	C	2.282717	0.755375	0.243917
C53	C	1.898865	0.241748	-0.242496
C54	C	2.398865	0.741748	0.257504
C55	C	1.510234	0.287259	-0.539551
C56	C	2.010234	0.787259	-0.039551
C57	C	1.510265	0.287219	-0.646761
C58	C	2.010265	0.787219	-0.146761
C59	C	1.510265	1.035748	-0.288003
C60	C	2.010265	1.535748	0.211997
C61	C	1.510287	0.928531	-0.288050
C62	C	2.010287	1.428531	0.211950
C63	C	1.510294	0.287150	-0.843053
C64	C	2.010294	0.787150	-0.343053
C65	C	1.510275	0.287192	-0.733822
C66	C	2.010275	0.787192	-0.233822
C67	C	1.510146	0.287370	-0.037353
C68	C	2.010146	0.787370	0.462647
C69	C	1.510317	0.287114	0.069880
C70	C	2.010317	0.787114	0.569880
H71	H	1.077998	0.388345	-0.388659
H72	H	1.577998	0.888345	0.111341
C73	C	0.890536	0.369309	-0.369686
C74	C	1.390536	0.869309	0.130314
C75	C	0.905506	0.359825	-0.477613
C76	C	1.405506	0.859825	0.022387
C77	C	0.845378	0.434784	-0.552354
C78	C	1.345378	0.934784	-0.052354
C79	C	0.770280	0.519227	-0.519168
C80	C	1.270280	1.019227	-0.019168
C81	C	0.755307	0.528715	-0.411236
C82	C	1.255307	1.028715	0.088764
C83	C	0.815435	0.453756	-0.336495
C84	C	1.315435	0.953756	0.163505
H85	H	0.961101	0.297312	-0.502184
H86	H	1.461101	0.797312	-0.002184
H87	H	0.856462	0.427760	-0.632252
H88	H	1.356462	0.927760	-0.132252
H89	H	0.725770	0.574716	-0.574495
H90	H	1.225770	1.074716	-0.074495
H91	H	0.699712	0.591228	-0.386665
H92	H	1.199712	1.091228	0.113335
H93	H	0.804351	0.460780	-0.256596
H94	H	1.304351	0.960780	0.243404
C95	C	0.958999	0.166793	-0.167758
C96	C	1.458999	0.666793	0.332242
C97	C	1.034098	0.082351	-0.200944
C98	C	1.534098	0.582351	0.299056
C99	C	1.094229	0.007394	-0.126203
C100	C	1.594229	0.507394	0.373797
C101	C	1.079261	0.016878	-0.018276
C102	C	1.579261	0.516878	0.481724
C103	C	1.004159	0.101324	0.014915
C104	C	1.504159	0.601324	0.514915
C105	C	0.944028	0.176281	-0.059825
C106	C	1.444028	0.676281	0.440175
H107	H	1.045181	0.075327	-0.280843
H108	H	1.545181	0.575327	0.219157
H109	H	1.149825	-0.055118	-0.150775
H110	H	1.649825	0.444882	0.349225
H111	H	1.123774	-0.038610	0.037051
H112	H	1.623774	0.461390	0.537051
H113	H	0.993076	0.108348	0.094814
H114	H	1.493076	0.608348	0.594814
H115	H	0.888432	0.238793	-0.035254
H116	H	1.388432	0.738793	0.464746
H117	H	1.115231	0.224763	-0.225549
H118	H	1.615231	0.724763	0.274451
