data_functionalizedCrystal
_audit_creation_method	'MofGen! by Chris Wilmer'
_symmetry_space_group_name_H-M	'P1'
_symmetry_Int_Tables_number	1
_symmetry_cell_setting	triclinic
loop_
_symmetry_equiv_pos_as_xyz
  x,y,z
_cell_length_a	27.732048
_cell_length_b	15.944551
_cell_length_c	14.421503
_cell_angle_alpha	89.996660
_cell_angle_beta	90.002062
_cell_angle_gamma	83.070697
loop_
_atom_site_label
_atom_site_type_symbol
_atom_site_fract_x
_atom_site_fract_y
_atom_site_fract_z
O1	O	-0.641363	-0.099933	-0.076994
O2	O	-0.500635	-0.115130	-0.077023
O3	O	-0.574842	0.014794	-0.076999
O4	O	-0.567156	-0.229856	-0.077018
O5	O	-0.574830	0.014774	0.077224
O6	O	-0.500623	-0.115149	0.077201
O7	O	-0.641351	-0.099952	0.077229
Cu8	Cu	-0.570986	-0.107552	0.091297
Cu9	Cu	-0.571000	-0.107529	-0.091090
O10	O	-0.567144	-0.229876	0.077206
C11	C	-0.574517	0.046074	0.000112
C12	C	-0.573560	0.139307	0.000113
C13	C	-0.482621	-0.114820	0.000086
C14	C	-0.428962	-0.113860	0.000075
C15	C	-0.659365	-0.100262	0.000119
C16	C	-0.713024	-0.101222	0.000123
C17	C	-0.090453	-0.184589	0.000110
C18	C	0.111222	-0.181025	0.000118
O19	O	0.142198	-0.245701	0.000154
N20	N	0.130679	-0.103986	0.000123
C21	C	0.099715	-0.027832	0.000131
O22	O	0.120892	0.037776	0.000144
C23	C	-0.101959	-0.031397	0.000129
C24	C	-0.121414	-0.108441	0.000115
C25	C	-0.109908	-0.261627	0.000097
C26	C	-0.160324	-0.262517	0.000090
C27	C	-0.191285	-0.186369	0.000096
C28	C	-0.171830	-0.109331	0.000108
C29	C	-0.132923	0.044756	0.000143
C30	C	-0.183345	0.043858	0.000145
C31	C	-0.202799	-0.033186	0.000132
C32	C	-0.253206	-0.034073	0.000106
N33	N	-0.272664	-0.111113	0.000102
C34	C	-0.241703	-0.187260	0.000097
C35	C	0.205597	-0.025966	0.000130
C36	C	0.256015	-0.025074	0.000129
C37	C	0.267519	-0.178268	0.000118
C38	C	0.217100	-0.179158	0.000113
C39	C	0.186139	-0.103005	0.000126
C40	C	-0.347580	-0.189124	0.000081
C41	C	-0.398001	-0.190007	0.000070
C42	C	-0.409500	-0.036815	0.000085
C43	C	-0.359084	-0.035931	0.000091
C44	C	-0.328125	-0.112092	0.000092
O45	O	-0.284210	0.030569	0.000081
O46	O	-0.262890	-0.252859	0.000104
C47	C	-0.040037	-0.183699	0.000117
C48	C	-0.020582	-0.106661	0.000130
C49	C	-0.051543	-0.030513	0.000135
C50	C	0.029836	-0.105769	0.000128
C51	C	0.060797	-0.181917	0.000123
C52	C	0.041339	-0.258956	0.000119
C53	C	-0.009076	-0.259846	0.000112
C54	C	-0.032086	0.046526	0.000139
C55	C	0.018331	0.047410	0.000145
C56	C	0.049291	-0.028738	0.000140
C57	C	-0.567469	-0.261156	0.000092
C58	C	-0.568426	-0.354389	0.000086
N59	N	-0.570979	-0.107568	0.219578
C60	C	-0.525277	0.353533	0.000090
C61	C	-0.547692	0.414834	0.076136
C62	C	-0.571830	0.310011	0.000105
C63	C	-0.547715	0.414836	-0.075916
C64	C	-0.570155	0.474902	0.000094
C65	C	-0.594258	0.370084	0.076214
C66	C	-0.594274	0.370080	-0.075906
C67	C	-0.616723	0.431364	0.000158
C68	C	-0.572793	0.215021	0.000113
C69	C	-0.569195	0.569890	0.000093
N70	N	-0.571011	-0.107507	-0.219372
C71	C	-0.536660	-0.167618	0.469221
C72	C	-0.580337	-0.183354	0.531031
C73	C	-0.570991	-0.107548	0.408739
C74	C	-0.527325	-0.091831	0.531023
C75	C	-0.570998	-0.107530	0.591461
C76	C	-0.614690	-0.123321	0.469189
C77	C	-0.561649	-0.031766	0.469175
C78	C	-0.605358	-0.047469	0.530958
C79	C	-0.570986	-0.107560	0.303478
C80	C	-0.571008	-0.107517	0.696720
H81	H	-0.413838	-0.252749	0.000058
H82	H	-0.651629	-0.136684	0.442142
Br83	Br	-0.681183	0.487476	0.000236
Br84	Br	-0.593520	-0.290155	0.576315
H85	H	-0.634425	0.003341	0.557895
H86	H	-0.486636	0.319720	0.000158
H87	H	-0.613952	0.350215	-0.140193
H88	H	-0.507657	-0.218457	0.442114
H89	H	-0.553727	0.032293	0.441984
Br90	Br	-0.465773	-0.069686	0.576300
H91	H	-0.528024	0.434664	-0.140211
H92	H	-0.322378	-0.251142	0.000085
Br93	Br	-0.186718	-0.367082	0.000076
H94	H	0.201264	-0.241894	0.000107
Br95	Br	-0.067898	-0.364985	0.000090
Br96	Br	-0.514868	0.447906	0.183281
Br97	Br	0.044726	0.151980	0.000148
H98	H	-0.057290	0.108537	0.000145
H99	H	0.271850	0.037663	0.000125
Br100	Br	0.309547	-0.281611	0.000112
Br101	Br	0.163586	0.077396	0.000147
H102	H	-0.434718	0.025183	0.000086
Br103	Br	-0.106534	0.149323	0.000141
H104	H	-0.208551	0.105873	0.000156
H105	H	-0.343244	0.026805	0.000089
H106	H	0.066557	-0.320958	0.000111
Br107	Br	-0.627042	0.337188	0.183486
H108	H	-0.024911	-0.322584	0.000102
