data_functionalizedCrystal
_audit_creation_method	'MofGen! by Chris Wilmer'
_symmetry_space_group_name_H-M	'P1'
_symmetry_Int_Tables_number	1
_symmetry_cell_setting	triclinic
loop_
_symmetry_equiv_pos_as_xyz
  x,y,z
_cell_length_a	18.050590
_cell_length_b	18.050591
_cell_length_c	16.625539
_cell_angle_alpha	89.976914
_cell_angle_beta	90.014297
_cell_angle_gamma	90.007285
loop_
_atom_site_label
_atom_site_type_symbol
_atom_site_fract_x
_atom_site_fract_y
_atom_site_fract_z
Zn1	Zn	0.295751	1.135471	-0.456107
Zn2	Zn	0.629084	1.468804	-0.122774
Zn3	Zn	0.962417	1.802138	0.210560
Zn4	Zn	0.419944	1.135445	-0.321303
Zn5	Zn	0.753278	1.468779	0.012030
Zn6	Zn	1.086611	1.802112	0.345364
Zn7	Zn	0.295764	1.011286	-0.321273
Zn8	Zn	0.629097	1.344619	0.012060
Zn9	Zn	0.962431	1.677952	0.345393
Zn10	Zn	0.419895	1.011307	-0.456079
Zn11	Zn	0.753228	1.344640	-0.122745
Zn12	Zn	1.086561	1.677973	0.210588
O13	O	0.357839	1.073377	-0.388691
O14	O	0.691172	1.406710	-0.055357
O15	O	1.024505	1.740044	0.277976
O16	O	0.312241	1.239392	-0.438249
O17	O	0.645574	1.572726	-0.104916
O18	O	0.978907	1.906059	0.228417
O19	O	0.403498	1.118956	-0.208467
O20	O	0.736831	1.452289	0.124867
O21	O	1.070165	1.785622	0.458200
O22	O	0.191838	1.027761	-0.339159
O23	O	0.525171	1.361094	-0.005826
O24	O	0.858504	1.694428	0.327508
O25	O	0.403485	1.239373	-0.339209
O26	O	0.736818	1.572707	-0.005876
O27	O	1.070152	1.906040	0.327457
O28	O	0.191828	1.119000	-0.438221
O29	O	0.525161	1.452333	-0.104887
O30	O	0.858495	1.785666	0.228446
O31	O	0.312263	1.027736	-0.208445
O32	O	0.645597	1.361069	0.124888
O33	O	0.978930	1.694403	0.458222
O34	O	0.312215	0.907364	-0.339131
O35	O	0.645548	1.240697	-0.005798
O36	O	0.978882	1.574030	0.327535
O37	O	0.403401	1.027797	-0.568915
O38	O	0.736734	1.361130	-0.235582
O39	O	1.070067	1.694463	0.097752
O40	O	0.403413	0.907379	-0.438172
O41	O	0.736747	1.240713	-0.104839
O42	O	1.070080	1.574046	0.228494
O43	O	0.312192	1.119020	-0.568936
O44	O	0.645526	1.452353	-0.235602
O45	O	0.978859	1.785687	0.097731
O46	O	0.523862	1.118976	-0.339182
O47	O	0.857196	1.452309	-0.005848
O48	O	1.190529	1.785643	0.327485
O49	O	0.523826	1.027772	-0.438201
O50	O	0.857159	1.361105	-0.104867
O51	O	1.190493	1.694439	0.228466
C52	C	0.357811	0.880425	-0.388646
C53	C	0.691144	1.213758	-0.055313
C54	C	1.024478	1.547092	0.278021
C55	C	0.357817	0.797879	-0.388646
C56	C	0.691150	1.131213	-0.055313
C57	C	1.024484	1.464546	0.278021
C58	C	0.308166	0.598399	-0.334912
C59	C	0.641499	0.931732	-0.001578
C60	C	0.974832	1.265065	0.331755
C61	C	0.375903	0.549016	-0.315086
C62	C	0.709236	0.882349	0.018248
C63	C	1.042570	1.215682	0.351581
C64	C	0.357839	0.646749	-0.388682
C65	C	0.691173	0.980082	-0.055349
C66	C	1.024506	1.313416	0.277984
C67	C	0.290126	0.549050	-0.408506
C68	C	0.623459	0.882384	-0.075173
C69	C	0.956792	1.215717	0.258160
C70	C	0.357855	0.500764	-0.388716
C71	C	0.691189	0.834097	-0.055383
C72	C	1.024522	1.167430	0.277951
C73	C	0.425612	0.598453	-0.368818
C74	C	0.758946	0.931786	-0.035485
C75	C	1.092279	1.265120	0.297848
C76	C	0.339789	0.598492	-0.462273
C77	C	0.673123	0.931825	-0.128940
C78	C	1.006456	1.265159	0.204394
C79	C	0.407573	0.549131	-0.442475
C80	C	0.740907	0.882465	-0.109142
C81	C	1.074240	1.215798	0.224192
C82	C	0.357829	0.730847	-0.388661
C83	C	0.691163	1.064180	-0.055328
C84	C	1.024496	1.397514	0.278006
C85	C	0.357873	0.416667	-0.388738
C86	C	0.691206	0.750001	-0.055404
C87	C	1.024540	1.083334	0.277929
C88	C	0.164133	1.073381	-0.388690
C89	C	0.497466	1.406714	-0.055356
C90	C	0.830800	1.740048	0.277977
C91	C	0.081587	1.073382	-0.388689
C92	C	0.414921	1.406716	-0.055356
C93	C	0.748254	1.740049	0.277977
C94	C	-0.117858	1.023798	-0.334835
C95	C	0.215475	1.357131	-0.001502
C96	C	0.548808	1.690464	0.331832
C97	C	-0.167263	1.005653	-0.408398
C98	C	0.166070	1.338986	-0.075065
C99	C	0.499404	1.672320	0.258268
C100	C	-0.069543	1.073411	-0.388710
C101	C	0.263790	1.406745	-0.055376
C102	C	0.597123	1.740078	0.277957
C103	C	-0.167220	1.091549	-0.315167
C104	C	0.166113	1.424883	0.018166
C105	C	0.499447	1.758216	0.351499
C106	C	-0.215528	1.073438	-0.388722
C107	C	0.117805	1.406771	-0.055389
C108	C	0.451138	1.740104	0.277944
C109	C	-0.117861	1.055231	-0.462312
C110	C	0.215473	1.388565	-0.128978
C111	C	0.548806	1.721898	0.204355
C112	C	-0.117814	1.141159	-0.369031
C113	C	0.215520	1.474492	-0.035698
C114	C	0.548853	1.807826	0.297636
C115	C	-0.167196	1.123040	-0.442645
C116	C	0.166137	1.456373	-0.109312
C117	C	0.499471	1.789707	0.224021
C118	C	0.014555	1.073394	-0.388701
C119	C	0.347888	1.406727	-0.055368
C120	C	0.681222	1.740061	0.277966
C121	C	-0.299625	1.073455	-0.388739
C122	C	0.033708	1.406788	-0.055406
C123	C	0.367042	1.740121	0.277927
C124	C	0.550791	1.073394	-0.388709
C125	C	0.884124	1.406727	-0.055376
C126	C	1.217457	1.740060	0.277958
C127	C	0.633336	1.073469	-0.388744
C128	C	0.966670	1.406802	-0.055410
C129	C	1.300003	1.740135	0.277923
C130	C	0.357790	1.073414	-0.599000
C131	C	0.691123	1.406747	-0.265666
C132	C	1.024456	1.740080	0.067667
C133	C	0.357769	1.073429	-0.688621
C134	C	0.691102	1.406762	-0.355287
C135	C	1.024435	1.740096	-0.021954
C136	C	0.357867	1.267083	-0.388736
C137	C	0.691200	1.600416	-0.055402
C138	C	1.024534	1.933749	0.277931
C139	C	0.357879	1.349629	-0.388755
C140	C	0.691212	1.682962	-0.055422
C141	C	1.024546	2.016295	0.277912
C142	C	0.357752	1.073441	-0.761403
C143	C	0.691086	1.406774	-0.428070
C144	C	1.024419	1.740108	-0.094737
C145	C	0.357725	1.073458	-0.852712
C146	C	0.691058	1.406792	-0.519378
C147	C	1.024391	1.740125	-0.186045
C148	C	0.357698	1.073476	-0.925488
C149	C	0.691032	1.406809	-0.592155
C150	C	1.024365	1.740143	-0.258822
C151	C	0.357672	1.073494	-1.016803
C152	C	0.691005	1.406828	-0.683469
C153	C	1.024338	1.740161	-0.350136
C154	C	0.357834	1.073384	-0.179200
C155	C	0.691167	1.406717	0.154134
C156	C	1.024500	1.740050	0.487467
C157	C	0.357645	1.073512	-0.089579
C158	C	0.690979	1.406845	0.243754
C159	C	1.024312	1.740179	0.577088
H160	H	0.449636	0.527635	-0.487962
H161	H	0.782969	0.860968	-0.154628
H162	H	1.116303	1.194301	0.178705
H163	H	-0.096270	1.039835	-0.524529
H164	H	0.237064	1.373169	-0.191195
H165	H	0.570397	1.706502	0.142138
H166	H	0.391182	0.527284	-0.252866
H167	H	0.724515	0.860617	0.080467
H168	H	1.057849	1.193951	0.413800
H169	H	-0.188983	0.948371	-0.425054
H170	H	0.144350	1.281705	-0.091720
H171	H	0.477684	1.615038	0.241613
H172	H	-0.188723	1.165008	-0.488263
H173	H	0.144611	1.498341	-0.154930
H174	H	0.477944	1.831674	0.178403
H175	H	0.482901	0.620062	-0.351996
H176	H	0.816234	0.953396	-0.018663
H177	H	1.149568	1.286729	0.314670
H178	H	0.232862	0.527312	-0.425231
H179	H	0.566195	0.860645	-0.091898
H180	H	0.899528	1.193978	0.241435
O181	O	-0.091909	1.209452	-0.348998
O182	O	0.241424	1.542785	-0.015664
O183	O	0.574757	1.876119	0.317669
C184	C	-0.117029	1.228357	-0.271381
C185	C	0.216305	1.561690	0.061953
C186	C	0.549638	1.895023	0.395286
H187	H	-0.130912	1.175727	-0.236583
H188	H	0.202421	1.509060	0.096750
H189	H	0.535754	1.842393	0.430084
H190	H	-0.071805	1.260233	-0.238312
H191	H	0.261528	1.593566	0.095021
H192	H	0.594862	1.926899	0.428355
H193	H	-0.168679	1.264396	-0.276482
H194	H	0.164654	1.597730	0.056851
H195	H	0.497987	1.931063	0.390184
O196	O	-0.192981	1.109769	-0.240902
O197	O	0.140352	1.443102	0.092432
O198	O	0.473685	1.776436	0.425765
C199	C	-0.167848	1.057294	-0.184294
C200	C	0.165485	1.390628	0.149040
C201	C	0.498818	1.723961	0.482373
H202	H	-0.115872	1.028987	-0.208186
H203	H	0.217461	1.362320	0.125147
H204	H	0.550794	1.695654	0.458480
H205	H	-0.154496	1.086406	-0.125203
H206	H	0.178837	1.419740	0.208130
H207	H	0.512170	1.753073	0.541463
H208	H	-0.212852	1.014059	-0.173715
H209	H	0.120481	1.347392	0.159618
H210	H	0.453815	1.680725	0.492951
H211	H	0.324490	0.620241	-0.524474
H212	H	0.657823	0.953575	-0.191140
H213	H	0.991156	1.286908	0.142193
O214	O	0.258188	0.624177	-0.280500
O215	O	0.591521	0.957511	0.052833
O216	O	0.924854	1.290844	0.386166
C217	C	0.277499	0.598947	-0.203012
C218	C	0.610832	0.932281	0.130321
C219	C	0.944166	1.265614	0.463655
H220	H	0.339100	0.585110	-0.201389
H221	H	0.672433	0.918443	0.131944
H222	H	1.005767	1.251777	0.465277
H223	H	0.265049	0.644087	-0.157024
H224	H	0.598382	0.977420	0.176310
H225	H	0.931716	1.310753	0.509643
H226	H	0.243964	0.547246	-0.187964
H227	H	0.577298	0.880579	0.145369
H228	H	0.910631	1.213912	0.478703
O229	O	-0.092040	0.973596	-0.280636
O230	O	0.241293	1.306929	0.052698
O231	O	0.574627	1.640262	0.386031
C232	C	-0.117254	0.902257	-0.301687
C233	C	0.216080	1.235591	0.031646
C234	C	0.549413	1.568924	0.364980
H235	H	-0.131120	0.900871	-0.368568
H236	H	0.202213	1.234205	-0.035235
H237	H	0.535547	1.567538	0.298098
H238	H	-0.072093	0.859881	-0.288227
H239	H	0.261240	1.193215	0.045107
H240	H	0.594573	1.526548	0.378440
H241	H	-0.168935	0.888333	-0.265289
H242	H	0.164399	1.221667	0.068044
H243	H	0.497732	1.555000	0.401377
