data_functionalizedCrystal
_audit_creation_method	'MofGen! by Chris Wilmer'
_symmetry_space_group_name_H-M	'P1'
_symmetry_Int_Tables_number	1
_symmetry_cell_setting	triclinic
loop_
_symmetry_equiv_pos_as_xyz
  x,y,z
_cell_length_a	12.827893
_cell_length_b	12.594510
_cell_length_c	12.827892
_cell_angle_alpha	89.965947
_cell_angle_beta	90.015362
_cell_angle_gamma	89.981177
loop_
_atom_site_label
_atom_site_type_symbol
_atom_site_fract_x
_atom_site_fract_y
_atom_site_fract_z
Zn1	Zn	1.597665	-0.601797	-0.415939
Zn2	Zn	1.597560	-0.423819	-0.590730
Zn3	Zn	1.422908	-0.423833	-0.416003
Zn4	Zn	1.422892	-0.601757	-0.590639
O5	O	1.510256	-0.512802	-0.503328
O6	O	1.743887	-0.578199	-0.439137
O7	O	1.574355	-0.274875	-0.567617
O8	O	1.446140	-0.447463	-0.269759
O9	O	1.743810	-0.447440	-0.567555
O10	O	1.574534	-0.578212	-0.269712
O11	O	1.446039	-0.274885	-0.439246
O12	O	1.276670	-0.447424	-0.439158
O13	O	1.446113	-0.750708	-0.567400
O14	O	1.276658	-0.578143	-0.567462
O15	O	1.574518	-0.750738	-0.439049
O16	O	1.574340	-0.447401	-0.736954
O17	O	1.446011	-0.578130	-0.736887
C18	C	1.238746	-0.512781	-0.503308
C19	C	1.122593	-0.512798	-0.503324
C20	C	1.070830	-0.577382	-0.566912
C21	C	0.950780	-0.577401	-0.566931
C22	C	1.510325	-0.790423	-0.503207
C23	C	1.510355	-0.908728	-0.503156
C24	C	1.580215	-0.977997	-0.433340
C25	C	1.484905	-1.048792	-0.407762
C26	C	1.605721	-1.048733	-0.528661
C27	C	1.414994	-0.977965	-0.477528
C28	C	1.535874	-0.977899	-0.598472
C29	C	1.440498	-1.048661	-0.572929
C30	C	1.782826	-0.512823	-0.503349
C31	C	1.898979	-0.512831	-0.503358
C32	C	1.510191	-0.512783	-0.774838
C33	C	1.510258	-0.512810	-0.890991
C34	C	1.510248	-0.236261	-0.503372
C35	C	1.510421	-0.117956	-0.503130
C36	C	1.573835	-0.448193	-0.942774
C37	C	1.573906	-0.448220	-1.062824
C38	C	1.510350	-0.512844	-0.230758
C39	C	1.510390	-0.512862	-0.114604
H40	H	1.115391	-0.632665	-0.621335
C41	C	0.959107	-0.438130	-0.429802
N42	N	1.004403	-0.381867	-0.374398
C43	C	1.714638	-1.090724	-0.557825
N44	N	1.796677	-1.122347	-0.579784
C45	C	1.659885	-0.936069	-0.353535
N46	N	1.719887	-0.904486	-0.293424
H47	H	0.906265	-0.632691	-0.621374
C48	C	1.306046	-0.936149	-0.448235
N49	N	1.223990	-0.904651	-0.426167
H50	H	1.557464	-0.946738	-0.679067
C51	C	1.455781	-1.090873	-0.298853
N52	N	1.433854	-1.122568	-0.216822
H53	H	1.381379	-1.079493	-0.631959
C54	C	1.647298	-0.373426	-0.882603
N55	N	1.702631	-0.317107	-0.837284
H56	H	1.078033	-0.457523	-0.448894
H57	H	1.455953	-0.568182	-1.070080
H58	H	1.455886	-0.568156	-0.935534
H59	H	1.628333	-0.392896	-1.107356
