data_functionalizedCrystal
_audit_creation_method	'MofGen! by Chris Wilmer'
_symmetry_space_group_name_H-M	'P1'
_symmetry_Int_Tables_number	1
_symmetry_cell_setting	triclinic
loop_
_symmetry_equiv_pos_as_xyz
  x,y,z
_cell_length_a	9.065218
_cell_length_b	11.026607
_cell_length_c	8.140239
_cell_angle_alpha	89.998310
_cell_angle_beta	89.997198
_cell_angle_gamma	96.800951
loop_
_atom_site_label
_atom_site_type_symbol
_atom_site_fract_x
_atom_site_fract_y
_atom_site_fract_z
O1	O	2.004900	0.178453	-0.136613
O2	O	1.579265	0.193091	-0.136615
O3	O	1.756806	0.008731	-0.136608
O4	O	1.827358	0.362813	-0.136620
O5	O	1.756793	0.008729	0.136619
O6	O	1.579252	0.193088	0.136612
O7	O	2.004886	0.178451	0.136614
Zn8	Zn	1.792067	0.185769	0.179994
Zn9	Zn	1.792084	0.185772	-0.179994
O10	O	1.827345	0.362810	0.136608
C11	C	1.523921	0.191683	-0.000001
C12	C	1.359029	0.187476	-0.000002
C13	C	1.743784	-0.036624	0.000004
C14	C	1.704984	-0.171765	-0.000002
C15	C	1.812117	-0.244393	-0.000004
C16	C	1.772018	-0.384068	-0.000011
C17	C	2.060230	0.179859	-0.000003
C18	C	2.225122	0.184065	-0.000013
C19	C	1.840368	0.408165	-0.000008
C20	C	1.879168	0.543306	-0.000012
N21	N	1.792066	0.185767	0.425677
N22	N	1.792095	0.185765	-0.425677
H23	H	1.933525	-0.203167	0.000006
C24	C	1.610209	-0.439252	0.000066
C25	C	1.602604	-0.566817	0.000099
C26	C	1.453575	-0.617695	0.000190
H27	H	1.562191	-0.413276	-0.095187
H28	H	1.562296	-0.413222	0.095386
H29	H	1.650497	-0.592837	-0.095212
H30	H	1.650591	-0.592828	0.095344
H31	H	1.405661	-0.591665	0.095510
H32	H	1.405569	-0.591710	-0.095065
H33	H	1.448395	-0.704253	0.000227
H34	H	2.000584	-0.415476	-0.000135
C35	C	1.543068	-0.226652	-0.000348
C36	C	1.472887	-0.188004	-0.140936
C37	C	1.323732	-0.238551	-0.141322
H38	H	1.494998	-0.200589	0.094822
H39	H	1.537570	-0.313231	-0.000442
H40	H	1.478375	-0.101444	-0.140827
H41	H	1.520912	-0.214067	-0.236129
H42	H	1.318234	-0.325130	-0.141417
H43	H	1.275677	-0.212484	-0.046147
H44	H	1.276099	-0.212345	-0.236717
