data_functionalizedCrystal
_audit_creation_method	'MofGen! by Chris Wilmer'
_symmetry_space_group_name_H-M	'P1'
_symmetry_Int_Tables_number	1
_symmetry_cell_setting	triclinic
loop_
_symmetry_equiv_pos_as_xyz
  x,y,z
_cell_length_a	14.519709
_cell_length_b	17.699083
_cell_length_c	16.776229
_cell_angle_alpha	89.992455
_cell_angle_beta	89.998478
_cell_angle_gamma	83.481580
loop_
_atom_site_label
_atom_site_type_symbol
_atom_site_fract_x
_atom_site_fract_y
_atom_site_fract_z
O1	O	1.223449	0.099215	-0.066186
O2	O	1.723449	0.599215	0.433814
O3	O	0.954923	0.110899	-0.066211
O4	O	1.454923	0.610899	0.433789
O5	O	1.096772	-0.005110	-0.066191
O6	O	1.596772	0.494890	0.433809
O7	O	1.081599	0.215225	-0.066206
O8	O	1.581599	0.715225	0.433794
O9	O	1.096754	-0.005117	0.066386
O10	O	1.596754	0.494883	0.566386
O11	O	0.954904	0.110892	0.066366
O12	O	1.454904	0.610892	0.566366
O13	O	1.223430	0.099208	0.066390
O14	O	1.723430	0.599208	0.566390
Zn15	Zn	1.089164	0.105049	0.087428
Zn16	Zn	1.589164	0.605049	0.587428
Zn17	Zn	1.089189	0.105058	-0.087248
Zn18	Zn	1.589189	0.605058	0.412752
O19	O	1.081580	0.215218	0.066370
O20	O	1.581580	0.715218	0.566370
C21	C	1.096219	-0.033312	0.000098
C22	C	1.596219	0.466688	0.500098
C23	C	1.094588	-0.117335	0.000098
C24	C	1.594588	0.382665	0.500098
C25	C	0.920556	0.110351	0.000075
C26	C	1.420556	0.610351	0.500075
C27	C	0.818181	0.108719	0.000065
C28	C	1.318181	0.608719	0.500065
C29	C	1.177851	-0.165718	0.000107
C30	C	1.677851	0.334282	0.500107
C31	C	1.176313	-0.244665	0.000099
C32	C	1.676313	0.255335	0.500099
C33	C	1.091511	-0.275229	0.000089
C34	C	1.591511	0.224771	0.500089
C35	C	1.008242	-0.226840	0.000078
C36	C	1.508242	0.273160	0.500078
C37	C	1.009781	-0.147894	0.000080
C38	C	1.509781	0.352106	0.500080
C39	C	1.002033	-0.545221	0.000071
C40	C	1.502033	-0.045221	0.500071
C41	C	1.000501	-0.624173	0.000072
C42	C	1.500501	-0.124173	0.500072
C43	C	1.168566	-0.641992	0.000091
C44	C	1.668566	-0.141992	0.500091
C45	C	1.170105	-0.563046	0.000092
C46	C	1.670105	-0.063046	0.500092
C47	C	1.086836	-0.514664	0.000077
C48	C	1.586836	-0.014664	0.500077
C49	C	1.088505	-0.429060	0.000083
C50	C	1.588505	0.070940	0.500083
C51	C	1.089841	-0.360831	0.000089
C52	C	1.589841	0.139169	0.500089
C53	C	0.443311	0.102712	0.000102
C54	C	0.943311	0.602712	0.500102
C55	C	0.547612	0.104380	0.000092
C56	C	1.047612	0.604380	0.500092
C57	C	0.630743	0.105716	0.000083
C58	C	1.130743	0.605716	0.500083
C59	C	0.735050	0.107384	0.000074
C60	C	1.235050	0.607384	0.500074
C61	C	1.257797	0.099756	0.000104
C62	C	1.757797	0.599756	0.500104
C63	C	1.360171	0.101388	0.000107
C64	C	1.860171	0.601388	0.500107
C65	C	1.082134	0.243420	0.000080
C66	C	1.582134	0.743420	0.500080
C67	C	1.083765	0.327442	0.000075
C68	C	1.583765	0.827442	0.500075
N69	N	1.089154	0.105042	0.206639
N70	N	1.589154	0.605042	0.706639
N71	N	1.089206	0.105059	-0.206459
N72	N	1.589206	0.605059	0.293541
C73	C	1.151984	0.053694	0.248365
C74	C	1.651984	0.553694	0.748365
C75	C	1.151989	0.053694	0.331817
C76	C	1.651989	0.553694	0.831817
C77	C	1.089168	0.105045	0.373542
C78	C	1.589168	0.605045	0.873542
C79	C	1.026331	0.156395	0.331810
C80	C	1.526331	0.656395	0.831810
C81	C	1.026322	0.156392	0.248359
C82	C	1.526322	0.656392	0.748359
C83	C	1.026364	0.156410	0.668357
C84	C	1.526364	0.656410	1.168357
C85	C	1.026380	0.156411	0.751814
C86	C	1.526380	0.656411	1.251814
C87	C	1.152031	0.053712	0.751815
C88	C	1.652031	0.553712	1.251815
C89	C	1.152022	0.053709	0.668364
C90	C	1.652022	0.553709	1.168364
C91	C	1.089183	0.105056	0.626640
C92	C	1.589183	0.605056	1.126640
C93	C	1.089177	0.105055	0.536151
C94	C	1.589177	0.605055	1.036151
C95	C	1.089177	0.105050	0.464028
C96	C	1.589177	0.605050	0.964028
H97	H	1.244114	-0.284056	0.000108
H98	H	1.744114	0.215944	0.500108
H99	H	1.239159	-0.538166	0.000105
H100	H	1.739159	-0.038166	0.500105
N101	N	1.216226	0.001254	0.794426
N102	N	1.716226	0.501254	1.294426
N103	N	1.301459	0.002450	0.785095
N104	N	1.801459	0.502450	1.285095
H105	H	1.346798	-0.034597	0.815187
H106	H	1.846798	0.465403	1.315187
N107	N	1.264477	-0.134503	0.000101
N108	N	1.764477	0.365497	0.500101
N109	N	1.284094	-0.092434	-0.055783
N110	N	1.784094	0.407566	0.444217
H111	H	1.345276	-0.070390	-0.055791
H112	H	1.845276	0.429610	0.444209
H113	H	1.236367	-0.681395	0.000099
H114	H	1.736367	-0.181395	0.500099
H115	H	0.931441	-0.649055	0.000065
H116	H	1.431441	-0.149055	0.500065
H117	H	1.203180	0.011896	0.634394
H118	H	1.703180	0.511896	1.134394
N119	N	0.962200	0.208874	0.794424
N120	N	1.462200	0.708874	1.294424
N121	N	0.906098	0.254715	0.757162
N122	N	1.406098	0.754715	1.257162
H123	H	0.860773	0.291765	0.787254
H124	H	1.360773	0.791765	1.287254
N125	N	0.962146	0.208837	0.374430
N126	N	1.462146	0.708837	0.874430
N127	N	0.904968	0.184715	0.421006
N128	N	1.404968	0.684715	0.921006
H129	H	0.859636	0.221754	0.451107
H130	H	1.359636	0.721754	0.951107
H131	H	0.975158	0.198203	0.214387
H132	H	1.475158	0.698203	0.714387
H133	H	0.934231	-0.505837	0.000059
H134	H	1.434231	-0.005837	0.500059
H135	H	0.941980	-0.108501	0.000072
H136	H	1.441980	0.391499	0.500072
N137	N	0.921626	-0.258070	0.000058
N138	N	1.421626	0.241930	0.500058
N139	N	0.920262	-0.328558	0.000057
N140	N	1.420262	0.171442	0.500057
H141	H	0.859087	-0.350614	0.000044
H142	H	1.359087	0.149386	0.500044
N143	N	1.216113	0.001193	0.205760
N144	N	1.716113	0.501193	0.705760
N145	N	1.272169	-0.044680	0.243030
N146	N	1.772169	0.455320	0.743030
H147	H	1.317440	-0.081779	0.212943
H148	H	1.817440	0.418221	0.712943
H149	H	1.203150	0.011882	0.365790
H150	H	1.703150	0.511882	0.865790
N151	N	0.962168	0.208860	0.625756
N152	N	1.462168	0.708860	1.125756
N153	N	0.906084	0.254704	0.663023
N154	N	1.406084	0.754704	1.163023
H155	H	0.860741	0.291749	0.632934
H156	H	1.360741	0.791749	1.132934
