data_functionalizedCrystal
_audit_creation_method	'MofGen! by Chris Wilmer'
_symmetry_space_group_name_H-M	'P1'
_symmetry_Int_Tables_number	1
_symmetry_cell_setting	triclinic
loop_
_symmetry_equiv_pos_as_xyz
  x,y,z
_cell_length_a	14.044191
_cell_length_b	16.109301
_cell_length_c	15.186229
_cell_angle_alpha	89.994299
_cell_angle_beta	90.001526
_cell_angle_gamma	91.673371
loop_
_atom_site_label
_atom_site_type_symbol
_atom_site_fract_x
_atom_site_fract_y
_atom_site_fract_z
O1	O	1.257646	-0.200464	0.073191
O2	O	1.757646	0.299536	0.573191
O3	O	0.981678	-0.193225	0.073202
O4	O	1.481678	0.306775	0.573202
O5	O	1.127243	-0.076378	0.073187
O6	O	1.627243	0.423622	0.573187
O7	O	1.112081	-0.317311	0.073206
O8	O	1.612081	0.182689	0.573206
O9	O	1.127232	-0.076374	-0.073270
O10	O	1.627232	0.423626	0.426730
O11	O	0.981667	-0.193221	-0.073255
O12	O	1.481667	0.306779	0.426745
O13	O	1.257635	-0.200460	-0.073266
O14	O	1.757635	0.299540	0.426734
Zn15	Zn	1.119649	-0.196840	-0.096514
Zn16	Zn	1.619649	0.303160	0.403486
Zn17	Zn	1.119664	-0.196845	0.096450
Zn18	Zn	1.619664	0.303155	0.596450
O19	O	1.112070	-0.317308	-0.073251
O20	O	1.612070	0.182692	0.426749
C21	C	0.946359	-0.190056	-0.000025
C22	C	1.446359	0.309944	0.499975
C23	C	0.841136	-0.180610	-0.000021
C24	C	1.341136	0.319390	0.499979
C25	C	0.590834	-0.230335	-0.000026
C26	C	1.090834	0.269665	0.499974
C27	C	0.648484	-0.163354	-0.000030
C28	C	1.148484	0.336646	0.499970
C29	C	0.755686	-0.172958	-0.000025
C30	C	1.255686	0.327042	0.499975
C31	C	0.483623	-0.220733	-0.000031
C32	C	0.983623	0.279267	0.499969
C33	C	1.126623	-0.045355	-0.000042
C34	C	1.626623	0.454645	0.499958
C35	C	1.124782	0.047077	-0.000043
C36	C	1.624782	0.547077	0.499957
C37	C	1.292954	-0.203629	-0.000037
C38	C	1.792954	0.296371	0.499963
C39	C	1.398177	-0.213075	-0.000035
C40	C	1.898177	0.286925	0.499965
C41	C	1.112690	-0.348330	-0.000020
C42	C	1.612690	0.151670	0.499980
C43	C	1.114531	-0.440762	-0.000013
C44	C	1.614531	0.059238	0.499987
C45	C	1.206876	0.263240	-0.000032
C46	C	1.706876	0.763240	0.499968
C47	C	1.205138	0.350089	-0.000025
C48	C	1.705138	0.850089	0.499975
C49	C	1.032431	0.343068	-0.000021
C50	C	1.532431	0.843068	0.499979
C51	C	1.034169	0.256220	-0.000022
C52	C	1.534169	0.756220	0.499978
C53	C	1.121395	0.216308	-0.000032
C54	C	1.621395	0.716308	0.499968
C55	C	1.117918	0.390006	-0.000024
C56	C	1.617918	0.890006	0.499976
C57	C	1.116034	0.484173	-0.000016
C58	C	1.616034	0.984173	0.499984
C59	C	1.123280	0.122136	-0.000039
C60	C	1.623280	0.622136	0.499961
N61	N	1.119646	-0.196837	-0.228207
N62	N	1.619646	0.303163	0.271793
C63	C	1.184128	-0.145118	-0.546131
C64	C	1.684128	0.354882	-0.046131
C65	C	1.184126	-0.145118	-0.453942
C66	C	1.684126	0.354882	0.046058
C67	C	1.055189	-0.248568	-0.453939
C68	C	1.555189	0.251432	0.046061
C69	C	1.055197	-0.248571	-0.546127
C70	C	1.555197	0.251429	-0.046127
C71	C	1.119666	-0.196841	-0.592221
C72	C	1.619666	0.303159	-0.092221
C73	C	1.119655	-0.196838	-0.407843
C74	C	1.619655	0.303162	0.092157
C75	C	1.119652	-0.196838	-0.307887
C76	C	1.619652	0.303162	0.192113
C77	C	1.119670	-0.196842	-0.692183
C78	C	1.619670	0.303158	-0.192183
N79	N	1.119675	-0.196843	0.228143
N80	N	1.619675	0.303157	0.728143
H81	H	1.277900	0.230746	-0.000038
H82	H	1.777900	0.730746	0.499962
N83	N	0.607229	-0.077838	-0.000026
N84	N	1.107229	0.422162	0.499974
H85	H	0.629326	-0.046600	-0.054317
H86	H	1.129326	0.453400	0.445683
H87	H	0.535392	-0.083075	0.000007
H88	H	1.035392	0.416925	0.500007
H89	H	1.002704	-0.290695	-0.583655
H90	H	1.502704	0.209305	-0.083655
N91	N	0.938360	0.386124	-0.000024
N92	N	1.438360	0.886124	0.499976
H93	H	0.900911	0.369478	-0.054315
H94	H	1.400911	0.869478	0.445685
H95	H	0.900986	0.369458	0.054304
H96	H	1.400986	0.869458	0.554304
H97	H	0.621988	-0.294886	-0.000019
H98	H	1.121988	0.205114	0.499981
N99	N	1.297334	0.400712	-0.000036
N100	N	1.797334	0.900712	0.499964
H101	H	1.300470	0.436894	0.054257
H102	H	1.800470	0.936894	0.554257
H103	H	1.352798	0.362193	-0.000077
H104	H	1.852798	0.862193	0.499923
H105	H	0.964556	0.218007	-0.000020
H106	H	1.464556	0.718007	0.499980
H107	H	1.236623	-0.102997	-0.583659
H108	H	1.736623	0.397003	-0.083659
H109	H	1.236618	-0.103001	-0.416418
H110	H	1.736618	0.396999	0.083582
H111	H	1.002699	-0.290684	-0.416400
H112	H	1.502699	0.209316	0.083600
