data_functionalizedCrystal
_audit_creation_method	'MofGen! by Chris Wilmer'
_symmetry_space_group_name_H-M	'P1'
_symmetry_Int_Tables_number	1
_symmetry_cell_setting	triclinic
loop_
_symmetry_equiv_pos_as_xyz
  x,y,z
_cell_length_a	15.538191
_cell_length_b	19.188930
_cell_length_c	14.750779
_cell_angle_alpha	77.396187
_cell_angle_beta	97.572172
_cell_angle_gamma	65.208438
loop_
_atom_site_label
_atom_site_type_symbol
_atom_site_fract_x
_atom_site_fract_y
_atom_site_fract_z
O1	O	1.230319	-0.206654	-0.079811
O2	O	0.955725	-0.125950	-0.079820
O3	O	1.100951	-0.269953	-0.079797
O4	O	1.085093	-0.062651	-0.079835
O5	O	1.142004	-0.310658	0.079860
O6	O	0.996778	-0.166654	0.079837
O7	O	1.271372	-0.247359	0.079846
Zn8	Zn	1.140594	-0.213470	0.105190
Zn9	Zn	1.086504	-0.159839	-0.105165
O10	O	1.126146	-0.103356	0.079822
C11	C	0.941121	-0.137858	0.000007
C12	C	0.836443	-0.112707	0.000004
C13	C	1.120965	-0.316188	0.000035
C14	C	1.119427	-0.393308	0.000043
C15	C	0.549690	-0.362580	0.000035
C16	C	0.451325	-0.338928	0.000030
C17	C	0.428328	-0.205893	0.000006
C18	C	0.526694	-0.229535	0.000016
C19	C	0.587367	-0.307879	0.000029
C20	C	0.564371	-0.174835	0.000010
C21	C	0.662727	-0.198474	0.000014
C22	C	0.723406	-0.276813	0.000025
C23	C	0.685723	-0.331518	0.000034
C24	C	0.503694	-0.096490	-0.000011
C25	C	0.541372	-0.041789	-0.000017
C26	C	0.639731	-0.065429	-0.000005
C27	C	0.700410	-0.143769	0.000006
C28	C	0.677414	-0.010724	-0.000014
C29	C	0.775770	-0.034363	-0.000009
C30	C	0.798766	-0.167408	0.000010
C31	C	1.204639	-0.459635	0.000050
C32	C	1.203187	-0.532092	0.000035
C33	C	1.116524	-0.538221	0.000031
C34	C	1.031299	-0.471879	0.000018
C35	C	1.032751	-0.399422	0.000024
N36	N	1.064252	-0.643440	0.054363
N37	N	1.062879	-0.712273	0.054360
C38	C	1.112146	-0.756526	0.000012
N39	N	1.162854	-0.729353	-0.054321
N40	N	1.164230	-0.660516	-0.054313
C41	C	1.114941	-0.616784	0.000024
C42	C	1.195790	-0.901421	0.000001
C43	C	1.194333	-0.973876	-0.000020
C44	C	1.022445	-0.913663	-0.000027
C45	C	1.023901	-0.841208	-0.000016
C46	C	1.110577	-0.835093	0.000003
C47	C	1.285976	-0.235450	0.000016
C48	C	1.390652	-0.260600	0.000013
C49	C	1.106132	-0.057120	-0.000011
C50	C	1.107668	0.020001	-0.000026
N51	N	1.177515	-0.250073	0.248752
N52	N	1.049589	-0.123244	-0.248726
C53	C	0.946472	-0.021047	0.600532
C54	C	0.972351	-0.046693	0.701036
C55	C	1.100975	-0.174180	0.701020
C56	C	1.075104	-0.148545	0.600514
C57	C	0.997852	-0.071978	0.550279
C58	C	1.126484	-0.199476	0.550260
C59	C	1.100617	-0.173842	0.449764
C60	C	1.023370	-0.097277	0.399521
C61	C	0.971985	-0.046344	0.449782
C62	C	1.203739	-0.276041	0.600498
C63	C	1.255119	-0.326973	0.550244
C64	C	1.229248	-0.301341	0.449745
C65	C	1.152002	-0.224776	0.399503
C66	C	1.280633	-0.352274	0.399484
C67	C	1.254767	-0.326640	0.298988
C68	C	1.126135	-0.199142	0.299006
H69	H	0.848172	-0.231204	0.000027
H70	H	0.378914	-0.142105	-0.000009
N71	N	0.410704	-0.397943	0.000050
H72	H	0.385629	-0.406191	0.059235
H73	H	0.355227	-0.375978	-0.059174
N74	N	0.829492	-0.302321	0.000030
H75	H	0.833457	-0.266811	-0.059157
H76	H	0.863828	-0.296997	0.059252
N77	N	0.611976	0.073771	-0.000025
H78	H	0.608853	0.113829	-0.059212
H79	H	0.543985	0.080377	0.000007
H80	H	0.491958	0.022000	-0.000032
H81	H	0.883560	0.041299	0.559629
H82	H	1.263725	-1.027882	-0.000019
H83	H	1.224800	-0.296908	0.682329
N84	N	0.615145	-0.447083	0.000064
H85	H	0.576356	-0.478154	0.000072
H86	H	0.641237	-0.444700	-0.059121
N87	N	0.931999	-0.769663	-0.000012
H88	H	0.878954	-0.754013	-0.059199
H89	H	0.909479	-0.784260	0.059210
N90	N	0.937822	-0.478479	0.000016
H91	H	0.918171	-0.492104	-0.059169
H92	H	0.948671	-0.522283	0.059240
N93	N	0.916938	0.008247	0.755241
H94	H	0.864079	0.060641	0.708164
H95	H	0.886096	-0.018598	0.796953
N96	N	1.310162	-0.381560	0.244759
H97	H	1.381552	-0.394906	0.262222
H98	H	1.303931	-0.432842	0.262268
H99	H	1.063223	-0.136796	0.258102
N100	N	0.816415	0.024632	-0.000020
H101	H	0.763056	0.077848	-0.000026
H102	H	0.871943	0.002630	0.059167
H103	H	0.735129	-0.395315	0.000051
N104	N	1.184298	-0.256758	0.755204
H105	H	1.192890	-0.265269	0.826495
H106	H	1.169090	-0.299106	0.737648
N107	N	0.397608	-0.070979	-0.000014
H108	H	0.363208	-0.076314	-0.059192
H109	H	0.393727	-0.106499	0.059217
N110	N	1.298120	-0.453038	0.000069
H111	H	1.351882	-0.506056	0.000071
H112	H	1.287251	-0.409191	-0.059116
H113	H	1.318021	-0.389314	0.591157
H114	H	1.343539	-0.414613	0.440399
H115	H	1.272579	-0.586105	0.000037
N116	N	0.940837	-0.327887	0.000031
H117	H	0.952830	-0.311586	0.059222
H118	H	0.922429	-0.281429	-0.059187
H119	H	0.951881	-0.918651	-0.000035
N120	N	1.289268	-0.894816	0.000017
H121	H	1.343030	-0.947831	0.000012
H122	H	1.278396	-0.850964	-0.059164
H123	H	1.002314	-0.076406	0.317690
H124	H	0.909073	0.016002	0.408878
