data_functionalizedCrystal
_audit_creation_method	'MofGen! by Chris Wilmer'
_symmetry_space_group_name_H-M	'P1'
_symmetry_Int_Tables_number	1
_symmetry_cell_setting	triclinic
loop_
_symmetry_equiv_pos_as_xyz
  x,y,z
_cell_length_a	12.827893
_cell_length_b	25.639240
_cell_length_c	12.827885
_cell_angle_alpha	89.956835
_cell_angle_beta	89.980728
_cell_angle_gamma	90.032919
loop_
_atom_site_label
_atom_site_type_symbol
_atom_site_fract_x
_atom_site_fract_y
_atom_site_fract_z
Zn1	Zn	1.597543	-0.208123	-0.590751
Zn2	Zn	2.097543	0.291877	-0.090751
Zn3	Zn	1.597385	-0.295568	-0.415971
Zn4	Zn	2.097385	0.204432	0.084029
Zn5	Zn	1.422785	-0.208149	-0.416025
Zn6	Zn	1.922785	0.291851	0.083975
Zn7	Zn	1.422717	-0.295530	-0.590671
Zn8	Zn	1.922717	0.204470	-0.090671
O9	O	1.510108	-0.251843	-0.503355
O10	O	2.010108	0.248157	-0.003355
O11	O	1.743758	-0.219728	-0.567578
O12	O	2.243758	0.280272	-0.067578
O13	O	1.574185	-0.283999	-0.269742
O14	O	2.074185	0.216001	0.230258
O15	O	1.446062	-0.134980	-0.439259
O16	O	1.946062	0.365020	0.060741
O17	O	1.743642	-0.283974	-0.439167
O18	O	2.243642	0.216026	0.060833
O19	O	1.574456	-0.134961	-0.567630
O20	O	2.074456	0.365039	-0.067630
O21	O	1.445908	-0.219772	-0.269782
O22	O	1.945908	0.280228	0.230218
O23	O	1.276540	-0.219735	-0.439181
O24	O	1.776540	0.280265	0.060819
O25	O	1.445946	-0.283908	-0.736918
O26	O	1.945946	0.216092	-0.236918
O27	O	1.276490	-0.283933	-0.567493
O28	O	1.776490	0.216067	-0.067493
O29	O	1.574391	-0.219691	-0.736977
O30	O	2.074391	0.280309	-0.236977
O31	O	1.574120	-0.368728	-0.439089
O32	O	2.074120	0.131272	0.060911
O33	O	1.445792	-0.368700	-0.567440
O34	O	1.945792	0.131300	-0.067440
C35	C	1.238598	-0.251833	-0.503335
C36	C	1.738598	0.248167	-0.003335
C37	C	1.122445	-0.251841	-0.503351
C38	C	1.622445	0.248159	-0.003351
C39	C	1.070717	-0.220107	-0.566992
C40	C	1.570717	0.279893	-0.066992
C41	C	0.950667	-0.220115	-0.567010
C42	C	1.450667	0.279885	-0.067010
C43	C	1.509960	-0.387685	-0.503273
C44	C	2.009960	0.112315	-0.003273
C45	C	1.509992	-0.445799	-0.503273
C46	C	2.009992	0.054201	-0.003273
C47	C	1.576996	-0.806114	-0.570318
C48	C	2.076996	-0.306114	-0.070318
C49	C	1.577027	-0.860718	-0.570339
C50	C	2.077027	-0.360718	-0.070339
O51	O	1.633820	-0.888914	-0.627259
O52	O	2.133820	-0.388914	-0.127259
N53	N	1.510253	-0.888082	-0.503456
N54	N	2.010253	-0.388082	-0.003456
C55	C	1.443436	-0.860838	-0.436554
C56	C	1.943436	-0.360838	0.063446
O57	O	1.386642	-0.889127	-0.379667
O58	O	1.886642	-0.389127	0.120333
C59	C	1.443401	-0.806235	-0.436539
C60	C	1.943401	-0.306235	0.063461
C61	C	1.510186	-0.778874	-0.503419
C62	C	2.010186	-0.278874	-0.003419
C63	C	1.643775	-0.778753	-0.637194
C64	C	2.143775	-0.278753	-0.137194
C65	C	1.643746	-0.724153	-0.637171
C66	C	2.143746	-0.224153	-0.137171
C67	C	1.576936	-0.696913	-0.570272
C68	C	2.076936	-0.196913	-0.070272
C69	C	1.510157	-0.724273	-0.503396
C70	C	2.010157	-0.224273	-0.003396
C71	C	1.376579	-0.778992	-0.369643
C72	C	1.876579	-0.278992	0.130357
C73	C	1.376549	-0.724385	-0.369634
C74	C	1.876549	-0.224385	0.130366
C75	C	1.443335	-0.697024	-0.436515
C76	C	1.943335	-0.197024	0.063485
C77	C	1.443318	-0.642433	-0.436475
C78	C	1.943318	-0.142433	0.063525
N79	N	1.510092	-0.615070	-0.503358
N80	N	2.010092	-0.115070	-0.003358
C81	C	1.576901	-0.642310	-0.570257
C82	C	2.076901	-0.142310	-0.070257
C83	C	1.443514	-0.975508	-0.436592
C84	C	1.943514	-0.475508	0.063408
C85	C	1.443554	-1.030111	-0.436601
C86	C	1.943554	-0.530111	0.063399
C87	C	1.577143	-1.029987	-0.570388
C88	C	2.077143	-0.529987	-0.070388
C89	C	1.577108	-0.975384	-0.570373
C90	C	2.077108	-0.475384	-0.070373
C91	C	1.510288	-0.948145	-0.503476
C92	C	2.010288	-0.448145	-0.003476
C93	C	1.576834	-0.527644	-0.570203
C94	C	2.076834	-0.027644	-0.070203
C95	C	1.576802	-0.473039	-0.570171
C96	C	2.076802	0.026961	-0.070171
C97	C	1.443209	-0.473167	-0.436389
C98	C	1.943209	0.026833	0.063611
C99	C	1.443245	-0.527768	-0.436417
C100	C	1.943245	-0.027768	0.063583
C101	C	1.510061	-0.555005	-0.503332
C102	C	2.010061	-0.055005	-0.003332
O103	O	1.386551	-0.614203	-0.379587
O104	O	1.886551	-0.114203	0.120413
O105	O	1.633676	-0.614014	-0.627144
O106	O	2.133676	-0.114014	-0.127144
C107	C	1.782678	-0.251853	-0.503375
C108	C	2.282678	0.248147	-0.003375
C109	C	1.898831	-0.251857	-0.503384
C110	C	2.398831	0.248143	-0.003384
C111	C	1.510179	-0.251792	-0.775925
C112	C	2.010179	0.248208	-0.275925
C113	C	1.510209	-0.251771	-0.892078
C114	C	2.010209	0.248229	-0.392078
C115	C	1.510284	-0.115470	-0.503460
C116	C	2.010284	0.384530	-0.003460
C117	C	1.510360	-0.057355	-0.503504
C118	C	2.010360	0.442645	-0.003504
C119	C	1.573774	-0.219988	-0.943892
C120	C	2.073774	0.280012	-0.443892
C121	C	1.573807	-0.219965	-1.063943
C122	C	2.073807	0.280035	-0.563943
C123	C	1.510097	-0.251855	-0.231845
C124	C	2.010097	0.248145	0.268155
C125	C	1.510269	-0.251729	-0.115692
C126	C	2.010269	0.248271	0.384308
H127	H	0.943308	-0.279030	-0.448902
H128	H	1.443308	0.220970	0.051098
H129	H	0.906183	-0.192948	-0.621498
H130	H	1.406183	0.307052	-0.121498
H131	H	1.631235	-0.549815	-0.624699
H132	H	2.131235	-0.049815	-0.124699
H133	H	1.077853	-0.279015	-0.448877
H134	H	1.577853	0.220985	0.051123
H135	H	1.322195	-0.801260	-0.315182
H136	H	1.822195	-0.301260	0.184818
H137	H	1.698125	-0.701879	-0.691633
H138	H	2.198125	-0.201879	-0.191633
H139	H	1.322133	-0.702209	-0.315160
H140	H	1.822133	-0.202209	0.184840
H141	H	1.698179	-0.800926	-0.691677
H142	H	2.198179	-0.300926	-0.191677
H143	H	1.628231	-0.192756	-1.108501
H144	H	2.128231	0.307244	-0.608501
H145	H	1.628166	-0.192793	-0.899375
H146	H	2.128166	0.307207	-0.399375
H147	H	1.389181	-1.052383	-0.382130
H148	H	1.889181	-0.552383	0.117870
H149	H	1.631490	-0.953110	-0.624833
H150	H	2.131490	-0.453110	-0.124833
H151	H	1.631541	-1.052176	-0.624863
H152	H	2.131541	-0.552176	-0.124863
H153	H	1.631190	-0.450764	-0.624633
H154	H	2.131190	0.049236	-0.124633
H155	H	1.389104	-0.953333	-0.382108
H156	H	1.889104	-0.453333	0.117892
H157	H	1.115308	-0.192930	-0.621459
H158	H	1.615308	0.307070	-0.121459
H159	H	1.388816	-0.450980	-0.381918
H160	H	1.888816	0.049020	0.118082
H161	H	1.388870	-0.550046	-0.381949
H162	H	1.888870	-0.050046	0.118051
H163	H	1.455850	-0.278943	-1.071140
H164	H	1.955850	0.221057	-0.571140
H165	H	1.455806	-0.278961	-0.936595
H166	H	1.955806	0.221039	-0.436595
