data_functionalizedCrystal
_audit_creation_method	'MofGen! by Chris Wilmer'
_symmetry_space_group_name_H-M	'P1'
_symmetry_Int_Tables_number	1
_symmetry_cell_setting	triclinic
loop_
_symmetry_equiv_pos_as_xyz
  x,y,z
_cell_length_a	12.594517
_cell_length_b	29.839131
_cell_length_c	12.594509
_cell_angle_alpha	90.042620
_cell_angle_beta	90.021327
_cell_angle_gamma	90.035028
loop_
_atom_site_label
_atom_site_type_symbol
_atom_site_fract_x
_atom_site_fract_y
_atom_site_fract_z
Zn1	Zn	1.627125	-0.178842	0.601754
Zn2	Zn	1.626956	-0.253977	0.423730
Zn3	Zn	1.449129	-0.178861	0.423782
Zn4	Zn	1.449052	-0.253946	0.601660
O5	O	1.538066	-0.216407	0.512732
O6	O	1.776048	-0.188814	0.578156
O7	O	1.603329	-0.244034	0.274791
O8	O	1.472844	-0.115992	0.447452
O9	O	1.775925	-0.244015	0.447363
O10	O	1.603617	-0.115978	0.578206
O11	O	1.472680	-0.188847	0.274830
O12	O	1.300173	-0.188816	0.447361
O13	O	1.472712	-0.243962	0.750619
O14	O	1.300116	-0.243981	0.578047
O15	O	1.603542	-0.188784	0.750687
O16	O	1.603254	-0.316840	0.447272
O17	O	1.472548	-0.316817	0.577997
C18	C	1.261525	-0.216398	0.512700
C19	C	1.143219	-0.216404	0.512712
C20	C	1.073966	-0.186360	0.441768
C21	C	1.003123	-0.227339	0.415563
C22	C	1.003264	-0.175445	0.538935
C23	C	1.073934	-0.257405	0.486457
C24	C	1.074081	-0.205484	0.609874
C25	C	1.003270	-0.246491	0.583706
C26	C	1.537903	-0.333129	0.512642
C27	C	1.537931	-0.383064	0.512639
C28	C	1.606144	-0.692665	0.580913
C29	C	1.606260	-0.880338	0.580977
O30	O	1.664098	-0.904567	0.638959
N31	N	1.538246	-0.903849	0.512850
C32	C	1.470194	-0.880438	0.444707
O33	O	1.412340	-0.904742	0.386770
C34	C	1.470074	-0.692766	0.444649
C35	C	1.538100	-0.669258	0.512773
C36	C	1.674163	-0.669156	0.649032
C37	C	1.674138	-0.622241	0.649011
C38	C	1.606093	-0.598834	0.580871
C39	C	1.538074	-0.622342	0.512752
C40	C	1.402017	-0.669357	0.376513
C41	C	1.401992	-0.622436	0.376506
C42	C	1.470017	-0.598927	0.444630
C43	C	1.470004	-0.552020	0.444592
N44	N	1.538017	-0.528509	0.512719
C45	C	1.606062	-0.551916	0.580858
C46	C	1.470264	-0.978969	0.444741
C47	C	1.470295	-1.025887	0.444754
C48	C	1.606359	-1.025783	0.581025
C49	C	1.606333	-0.978864	0.581006
C50	C	1.538277	-0.955458	0.512868
C51	C	1.606004	-0.453390	0.580809
C52	C	1.605976	-0.406471	0.580779
C53	C	1.469908	-0.406578	0.444512
C54	C	1.469940	-0.453494	0.444538
C55	C	1.537991	-0.476899	0.512695
O56	O	1.412188	-0.527762	0.386649
O57	O	1.663891	-0.527604	0.638803
C58	C	1.606170	-0.739580	0.580933
C59	C	1.538151	-0.763089	0.512814
C60	C	1.470106	-0.739682	0.444675
C61	C	1.538182	-0.810006	0.512827
C62	C	1.606226	-0.833413	0.580967
C63	C	1.674240	-0.809903	0.649094
C64	C	1.674214	-0.762987	0.649073
C65	C	1.402093	-0.763192	0.376548
C66	C	1.402124	-0.810108	0.376573
C67	C	1.470169	-0.833515	0.444713
C68	C	1.815686	-0.216416	0.512764
C69	C	1.933992	-0.216420	0.512777
C70	C	1.538137	-0.216367	0.790353
C71	C	1.538167	-0.216350	0.908658
C72	C	1.538257	-0.099228	0.512845
C73	C	1.538339	-0.049294	0.512893
C74	C	1.538056	-0.216413	0.236191
C75	C	1.538232	-0.216304	0.117886
C76	C	1.467031	-0.246345	0.977874
C77	C	1.564143	-0.257322	1.048658
C78	C	1.441131	-0.205346	1.048674
C79	C	1.635330	-0.227349	0.977884
C80	C	1.512252	-0.175355	0.977893
C81	C	1.609431	-0.186316	1.048645
H82	H	0.971956	-0.236586	0.333424
H83	H	1.104848	-0.292061	0.464214
C84	C	1.328082	-0.737761	0.302734
C85	C	1.259783	-0.710834	0.362910
C86	C	1.191581	-0.687406	0.294941
H87	H	1.368689	-0.719426	0.256363
H88	H	1.287524	-0.758472	0.262188
H89	H	1.300337	-0.690124	0.403439
H90	H	1.219152	-0.729157	0.409279
H91	H	1.151022	-0.708118	0.254395
H92	H	1.232196	-0.669075	0.248573
H93	H	1.145225	-0.669137	0.335760
H94	H	1.346731	-0.829245	0.321089
C95	C	1.115893	-0.193168	0.719302
C96	C	1.227045	-0.193738	0.718020
C97	C	1.265603	-0.182395	0.818807
H98	H	1.091855	-0.164037	0.737913
H99	H	1.090698	-0.214227	0.769930
H100	H	1.252230	-0.172681	0.667408
H101	H	1.251111	-0.222866	0.699427
H102	H	1.240408	-0.203453	0.869436
H103	H	1.241558	-0.153264	0.837410
H104	H	1.341023	-0.182784	0.817954
C105	C	1.115575	-0.152521	0.361770
C106	C	1.226731	-0.152661	0.363450
C107	C	1.265098	-0.121493	0.289779
H108	H	1.091388	-0.160321	0.292737
H109	H	1.090398	-0.123480	0.379704
H110	H	1.251898	-0.181696	0.345509
H111	H	1.250947	-0.144856	0.432465
H112	H	1.239921	-0.092452	0.307713
H113	H	1.240904	-0.129296	0.220752
H114	H	1.340521	-0.121581	0.290916
H115	H	1.586097	-0.291971	1.079742
C116	C	1.744731	-0.239804	0.936399
C117	C	1.743400	-0.239714	0.825237
C118	C	1.844153	-0.251193	0.786982
H119	H	1.795417	-0.218633	0.961082
H120	H	1.763285	-0.268831	0.961158
H121	H	1.724859	-0.210692	0.800487
H122	H	1.692736	-0.260885	0.800525
H123	H	1.862707	-0.280220	0.811742
H124	H	1.894831	-0.230021	0.811673
H125	H	1.843261	-0.251137	0.711556
H126	H	1.359042	-0.196059	1.079769
C127	C	0.961807	-0.129236	0.568263
C128	C	0.899109	-0.112712	0.485252
C129	C	0.860917	-0.070143	0.512215
H130	H	0.920285	-0.131244	0.631029
H131	H	1.019959	-0.109558	0.580080
H132	H	0.840965	-0.132385	0.473448
H133	H	0.940608	-0.110694	0.422478
H134	H	0.919069	-0.050465	0.524032
H135	H	0.819400	-0.072154	0.574982
H136	H	0.818380	-0.058924	0.455892
C137	C	1.679872	-0.381029	0.654866
C138	C	1.739443	-0.411573	0.714565
C139	C	1.807512	-0.388155	0.782834
H140	H	1.726359	-0.362723	0.614309
H141	H	1.639144	-0.362733	0.701255
H142	H	1.780168	-0.429862	0.668182
H143	H	1.692984	-0.429880	0.755144
H144	H	1.766783	-0.369859	0.829223
H145	H	1.853991	-0.369850	0.742269
H146	H	1.847931	-0.408876	0.823355
H147	H	0.972424	-0.271935	0.643730
H148	H	1.490270	-0.140715	0.946785
H149	H	1.661411	-0.472441	0.636316
H150	H	1.729527	-0.603103	0.704486
C151	C	1.689666	-0.152468	1.090030
C152	C	1.688224	-0.152535	1.201189
C153	C	1.762110	-0.121356	1.239348
H154	H	1.758614	-0.160298	1.065773
H155	H	1.671803	-0.123440	1.064779
H156	H	1.706093	-0.181557	1.226429
H157	H	1.619294	-0.144701	1.225474
H158	H	1.744247	-0.092328	1.214098
H159	H	1.831052	-0.129189	1.215084
H160	H	1.761134	-0.121394	1.314773
C161	C	1.328143	-0.596943	0.302637
C162	C	1.342651	-0.550822	0.317212
C163	C	1.274634	-0.527325	0.249192
H164	H	1.343693	-0.604601	0.231097
H165	H	1.256602	-0.604627	0.318167
H166	H	1.414176	-0.543141	0.301675
H167	H	1.327093	-0.543150	0.388738
H168	H	1.203093	-0.535009	0.264722
H169	H	1.290190	-0.534987	0.177656
H170	H	1.284462	-0.496030	0.259079
H171	H	1.729573	-0.688209	0.704525
H172	H	1.661724	-0.959726	0.636478
H173	H	1.661765	-1.044849	0.636506
H174	H	1.414843	-0.959915	0.389252
C175	C	1.396071	-0.381079	0.370653
C176	C	1.410593	-0.334959	0.385249
C177	C	1.342577	-0.311454	0.317245
H178	H	1.411614	-0.388732	0.299108
H179	H	1.324529	-0.388760	0.386184
H180	H	1.482118	-0.327280	0.369710
H181	H	1.395042	-0.327293	0.456780
H182	H	1.271035	-0.319136	0.332776
H183	H	1.358126	-0.319110	0.245704
H184	H	1.352413	-0.280160	0.327145
H185	H	1.414913	-1.045023	0.389269
C186	C	1.748106	-0.737548	0.723161
C187	C	1.807673	-0.768097	0.782851
C188	C	1.875745	-0.744683	0.851126
H189	H	1.794595	-0.719242	0.682609
H190	H	1.707379	-0.719254	0.769555
H191	H	1.848397	-0.786384	0.736463
H192	H	1.761213	-0.786405	0.823424
H193	H	1.835018	-0.726389	0.897520
H194	H	1.922226	-0.726378	0.810566
H195	H	1.916163	-0.765407	0.891641
H196	H	1.346624	-0.688489	0.321039
C197	C	1.748000	-0.835403	0.723037
C198	C	1.733433	-0.881522	0.708482
C199	C	1.801343	-0.905028	0.776589
H200	H	1.819566	-0.827751	0.707598
H201	H	1.732365	-0.827720	0.794558
H202	H	1.749076	-0.889201	0.636977
H203	H	1.661881	-0.889186	0.723928
H204	H	1.785708	-0.897345	0.848111
H205	H	1.872905	-0.897373	0.761145
H206	H	1.791462	-0.936322	0.766730
H207	H	1.414556	-0.472636	0.389057
H208	H	1.406921	-0.271749	0.946802
