data_functionalizedCrystal
_audit_creation_method	'MofGen! by Chris Wilmer'
_symmetry_space_group_name_H-M	'P1'
_symmetry_Int_Tables_number	1
_symmetry_cell_setting	triclinic
loop_
_symmetry_equiv_pos_as_xyz
  x,y,z
_cell_length_a	10.654559
_cell_length_b	12.811415
_cell_length_c	11.892295
_cell_angle_alpha	91.520901
_cell_angle_beta	93.942113
_cell_angle_gamma	84.264951
loop_
_atom_site_label
_atom_site_type_symbol
_atom_site_fract_x
_atom_site_fract_y
_atom_site_fract_z
O1	O	1.676291	0.139830	0.108345
O2	O	1.310862	0.153765	0.109773
O3	O	1.501449	-0.004832	0.093511
O4	O	1.485704	0.298426	0.124607
O5	O	1.485546	0.008330	-0.093142
O6	O	1.294959	0.166926	-0.076880
O7	O	1.660387	0.152991	-0.078307
Zn8	Zn	1.475148	0.162048	-0.107228
Zn9	Zn	1.496101	0.144707	0.138694
O10	O	1.469800	0.311587	-0.062045
C11	C	1.256109	0.159320	0.016341
C12	C	1.116656	0.156253	0.016027
C13	C	1.064779	0.059991	0.006155
C14	C	0.933748	0.057115	0.005870
C15	C	0.906479	0.246771	0.025325
C16	C	1.037509	0.249646	0.025618
C17	C	0.776631	-0.065350	0.059179
C18	C	0.724749	-0.161615	0.049287
C19	C	0.773739	-0.239792	-0.024611
C20	C	0.874606	-0.221704	-0.088645
C21	C	0.926480	-0.125437	-0.078763
C22	C	0.877495	-0.047266	-0.004839
C23	C	1.194629	0.372105	-0.027701
C24	C	1.246504	0.468374	-0.017827
C25	C	1.197515	0.546560	0.056065
C26	C	1.096641	0.528484	0.120083
C27	C	1.044765	0.432214	0.110209
C28	C	1.093763	0.354028	0.036319
C29	C	1.492128	-0.037082	-0.003795
C30	C	1.488032	-0.152786	-0.015652
C31	C	1.497652	-0.384546	0.165578
C32	C	1.493804	-0.493261	0.154443
C33	C	1.476478	-0.478932	-0.049058
C34	C	1.480326	-0.370217	-0.037923
C35	C	1.490915	-0.323029	0.069399
C36	C	1.494772	-0.214312	0.080534
C37	C	1.477438	-0.199985	-0.122966
C38	C	1.473589	-0.308700	-0.134102
C39	C	1.715140	0.147435	0.015127
C40	C	1.854595	0.150502	0.015449
C41	C	1.479122	0.343838	0.035263
C42	C	1.483219	0.459541	0.047128
N43	N	1.460857	0.173883	-0.275064
N44	N	1.510402	0.132865	0.306529
C45	C	1.361285	0.256413	0.555896
C46	C	1.371293	0.248110	0.673383
C47	C	1.540417	0.107952	0.658992
C48	C	1.530410	0.116255	0.541505
C49	C	1.440842	0.190489	0.489962
C50	C	1.430842	0.198796	0.372473
C51	C	1.599960	0.058633	0.358083
C52	C	1.609967	0.050330	0.475570
H53	H	0.736745	-0.001704	0.119369
H54	H	1.499284	-0.543345	0.232762
H55	H	1.664744	0.004956	0.304385
H56	H	0.842023	0.322808	0.033132
F57	F	1.286614	0.318273	0.743552
F58	F	1.705644	-0.028371	0.530469
F59	F	0.926725	-0.304908	-0.167311
H60	H	1.467846	-0.517372	-0.136434
F61	F	1.462310	-0.358932	-0.248315
F62	F	1.508938	-0.334324	0.279796
F63	F	1.470278	-0.134506	-0.225334
F64	F	0.718516	-0.342243	-0.035138
H65	H	1.613333	0.047505	0.700974
F66	F	1.149009	-0.039406	-0.004048
F67	F	1.335521	0.277804	0.317619
F68	F	1.265973	0.335427	0.501040
F69	F	0.617403	-0.180862	0.117439
F70	F	1.353874	0.487606	-0.085956
F71	F	0.937402	0.412979	0.178344
F72	F	1.252710	0.649029	0.066548
F73	F	1.033826	-0.106185	-0.146904
F74	F	1.246785	0.288887	-0.106340
F75	F	1.506047	-0.164093	0.194753
F76	F	1.044492	0.611700	0.198722
