data_functionalizedCrystal
_audit_creation_method	'MofGen! by Chris Wilmer'
_symmetry_space_group_name_H-M	'P1'
_symmetry_Int_Tables_number	1
_symmetry_cell_setting	triclinic
loop_
_symmetry_equiv_pos_as_xyz
  x,y,z
_cell_length_a	14.519731
_cell_length_b	17.038272
_cell_length_c	13.596369
_cell_angle_alpha	90.006163
_cell_angle_beta	90.005416
_cell_angle_gamma	87.400204
loop_
_atom_site_label
_atom_site_type_symbol
_atom_site_fract_x
_atom_site_fract_y
_atom_site_fract_z
O1	O	1.231705	0.102582	0.081795
O2	O	1.565038	0.435916	0.415128
O3	O	1.898372	0.769249	0.748461
O4	O	0.964153	0.114636	0.081796
O5	O	1.297486	0.447969	0.415130
O6	O	1.630820	0.781302	0.748463
O7	O	1.096339	-0.005209	0.081788
O8	O	1.429672	0.328124	0.415121
O9	O	1.763006	0.661458	0.748454
O10	O	1.099519	0.222427	0.081803
O11	O	1.432852	0.555760	0.415137
O12	O	1.766186	0.889094	0.748470
O13	O	1.096324	-0.005215	-0.081795
O14	O	1.429658	0.328118	0.251538
O15	O	1.762991	0.661451	0.584871
O16	O	0.964138	0.114629	-0.081787
O17	O	1.297472	0.447963	0.251547
O18	O	1.630805	0.781296	0.584880
O19	O	1.231690	0.102576	-0.081788
O20	O	1.565024	0.435909	0.251545
O21	O	1.898357	0.769243	0.584878
Zn22	Zn	1.097912	0.108602	-0.107760
Zn23	Zn	1.431245	0.441935	0.225574
Zn24	Zn	1.764579	0.775268	0.558907
Zn25	Zn	1.097931	0.108610	0.107768
Zn26	Zn	1.431265	0.441943	0.441101
Zn27	Zn	1.764598	0.775277	0.774434
O28	O	1.099505	0.222421	-0.081780
O29	O	1.432838	0.555754	0.251554
O30	O	1.766171	0.889087	0.584887
C31	C	0.929743	0.114068	0.000005
C32	C	1.263076	0.447401	0.333338
C33	C	1.596410	0.780734	0.666672
C34	C	0.827233	0.112375	0.000005
C35	C	1.160567	0.445709	0.333339
C36	C	1.493900	0.779042	0.666672
C37	C	0.743984	0.111000	0.000009
C38	C	1.077317	0.444334	0.333343
C39	C	1.410651	0.777667	0.666676
C40	C	0.639544	0.109282	0.000010
C41	C	0.972877	0.442615	0.333343
C42	C	1.306210	0.775949	0.666676
C43	C	0.556300	0.107918	0.000009
C44	C	0.889634	0.441251	0.333343
C45	C	1.222967	0.774585	0.666676
C46	C	0.451854	0.106200	0.000011
C47	C	0.785187	0.439533	0.333345
C48	C	1.118520	0.772867	0.666678
C49	C	1.093439	-0.034345	-0.000004
C50	C	1.426772	0.298988	0.333330
C51	C	1.760106	0.632321	0.666663
C52	C	1.084809	-0.121153	-0.000003
C53	C	1.418142	0.212181	0.333330
C54	C	1.751476	0.545514	0.666663
C55	C	1.164041	-0.171133	-0.000005
C56	C	1.497375	0.162200	0.333329
C57	C	1.830708	0.495533	0.666662
C58	C	1.155927	-0.252698	0.000005
C59	C	1.489261	0.080636	0.333338
C60	C	1.822594	0.413969	0.666671
C61	C	1.068580	-0.284280	0.000008
C62	C	1.401913	0.049054	0.333342
C63	C	1.735247	0.382387	0.666675
C64	C	0.989342	-0.234293	0.000013
C65	C	1.322675	0.099041	0.333346
C66	C	1.656008	0.432374	0.666680
C67	C	0.997457	-0.152730	0.000011
C68	C	1.330790	0.180603	0.333344
C69	C	1.664123	0.513937	0.666677
C70	C	1.039911	-0.530086	0.000022
C71	C	1.373244	-0.196753	0.333355
C72	C	1.706578	0.136581	0.666689
C73	C	1.031802	-0.611655	0.000021
C74	C	1.365135	-0.278322	0.333355
C75	C	1.698469	0.055012	0.666688
C76	C	1.198388	-0.630054	0.000015
C77	C	1.531722	-0.296721	0.333348
C78	C	1.865055	0.036612	0.666682
C79	C	1.206496	-0.548489	0.000007
C80	C	1.539829	-0.215156	0.333340
C81	C	1.873162	0.118177	0.666673
C82	C	1.127257	-0.498509	0.000016
C83	C	1.460591	-0.165176	0.333350
C84	C	1.793924	0.168157	0.666683
C85	C	1.060284	-0.367651	0.000015
C86	C	1.393617	-0.034318	0.333348
C87	C	1.726951	0.299016	0.666682
C88	C	1.135554	-0.415140	0.000017
C89	C	1.468888	-0.081806	0.333350
C90	C	1.802221	0.251527	0.666684
C91	C	1.266100	0.103144	0.000005
C92	C	1.599434	0.436477	0.333339
C93	C	1.932767	0.769811	0.666672
C94	C	1.368610	0.104836	0.000011
C95	C	1.701943	0.438170	0.333345
C96	C	2.035277	0.771503	0.666678
C97	C	1.102404	0.251557	0.000014
C98	C	1.435738	0.584890	0.333347
C99	C	1.769071	0.918224	0.666681
C100	C	1.111034	0.338364	0.000020
C101	C	1.444368	0.671698	0.333353
C102	C	1.777701	1.005031	0.666687
N103	N	1.097906	0.108595	-0.254852
N104	N	1.431239	0.441929	0.078482
N105	N	1.764572	0.775262	0.411815
C106	C	1.097930	0.108611	-0.656143
C107	C	1.431263	0.441944	-0.322809
C108	C	1.764597	0.775278	0.010524
C109	C	1.097921	0.108609	-0.544491
C110	C	1.431254	0.441943	-0.211158
C111	C	1.764587	0.775276	0.122176
C112	C	1.097918	0.108604	-0.455501
C113	C	1.431252	0.441937	-0.122167
C114	C	1.764585	0.775270	0.211166
C115	C	1.097908	0.108601	-0.343842
C116	C	1.431241	0.441934	-0.010509
C117	C	1.764575	0.775268	0.322825
N118	N	1.097945	0.108610	0.254860
N119	N	1.431278	0.441943	0.588193
N120	N	1.764611	0.775277	0.921526
H121	H	1.220447	-0.293389	0.000001
H122	H	1.553780	0.039944	0.333335
H123	H	1.887114	0.373277	0.666668
O124	O	1.220451	-0.384558	-0.000116
O125	O	1.553785	-0.051225	0.333217
O126	O	1.887118	0.282109	0.666551
C127	C	1.269121	-0.410073	-0.084853
C128	C	1.602455	-0.076739	0.248480
C129	C	1.935788	0.256594	0.581814
H130	H	1.239549	-0.466681	-0.113098
H131	H	1.572883	-0.133347	0.220236
H132	H	1.906216	0.199986	0.553569
H133	H	1.345044	-0.421274	-0.065804
H134	H	1.678378	-0.087940	0.267529
H135	H	2.011711	0.245393	0.600863
H136	H	1.262128	-0.362897	-0.144177
H137	H	1.595462	-0.029563	0.189157
H138	H	1.928795	0.303770	0.522490
O139	O	0.946877	-0.642205	0.000080
O140	O	1.280211	-0.308871	0.333413
O141	O	1.613544	0.024462	0.666746
C142	C	0.878679	-0.580602	0.000067
C143	C	1.212012	-0.247269	0.333401
C144	C	1.545345	0.086064	0.666734
H145	H	0.908883	-0.525154	0.031032
H146	H	1.242216	-0.191821	0.364365
H147	H	1.575549	0.141512	0.697698
H148	H	0.818094	-0.597733	0.047571
H149	H	1.151427	-0.264400	0.380904
H150	H	1.484761	0.068933	0.714237
H151	H	0.853911	-0.569106	-0.078407
H152	H	1.187245	-0.235773	0.254926
H153	H	1.520578	0.097560	0.588260
H154	H	0.989165	-0.393374	0.000016
H155	H	1.322499	-0.060041	0.333349
H156	H	1.655832	0.273292	0.666683
H157	H	0.932937	-0.112036	0.000012
H158	H	1.266270	0.221298	0.333345
H159	H	1.599604	0.554631	0.666679
H160	H	1.235169	-0.145426	-0.000014
H161	H	1.568502	0.187907	0.333319
H162	H	1.901836	0.521240	0.666653
H163	H	1.277623	-0.522782	0.000003
H164	H	1.610956	-0.189449	0.333337
H165	H	1.944290	0.143885	0.666670
H166	H	0.975389	-0.489401	0.000030
H167	H	1.308722	-0.156068	0.333363
H168	H	1.642056	0.177265	0.666696
O169	O	0.904543	-0.265062	0.000148
O170	O	1.237876	0.068271	0.333482
O171	O	1.571209	0.401604	0.666815
C172	C	0.894865	-0.311669	0.084881
C173	C	1.228198	0.021664	0.418214
C174	C	1.561531	0.354998	0.751548
H175	H	0.965969	-0.331874	0.113125
H176	H	1.299302	0.001459	0.446459
H177	H	1.632635	0.334792	0.779792
H178	H	0.853907	-0.365132	0.065826
H179	H	1.187240	-0.031798	0.399160
H180	H	1.520573	0.301535	0.732493
H181	H	0.856894	-0.275691	0.144207
H182	H	1.190227	0.057643	0.477540
H183	H	1.523561	0.390976	0.810874
H184	H	1.262899	-0.670756	0.000009
H185	H	1.596233	-0.337423	0.333342
H186	H	1.929566	-0.004090	0.666676
