data_functionalizedCrystal
_audit_creation_method	'MofGen! by Chris Wilmer'
_symmetry_space_group_name_H-M	'P1'
_symmetry_Int_Tables_number	1
_symmetry_cell_setting	triclinic
loop_
_symmetry_equiv_pos_as_xyz
  x,y,z
_cell_length_a	29.839134
_cell_length_b	17.077402
_cell_length_c	17.077396
_cell_angle_alpha	89.969358
_cell_angle_beta	89.973116
_cell_angle_gamma	90.020089
loop_
_atom_site_label
_atom_site_type_symbol
_atom_site_fract_x
_atom_site_fract_y
_atom_site_fract_z
Zn1	Zn	0.686792	-0.312603	-0.444045
Zn2	Zn	0.686739	-0.443882	-0.312778
Zn3	Zn	0.611668	-0.312622	-0.312771
Zn4	Zn	0.611644	-0.443819	-0.443979
O5	O	0.649211	-0.378232	-0.378393
O6	O	0.749652	-0.330036	-0.426663
O7	O	0.676769	-0.426504	-0.202930
O8	O	0.621666	-0.202773	-0.330209
O9	O	0.749613	-0.426486	-0.330222
O10	O	0.676859	-0.202759	-0.426656
O11	O	0.621615	-0.330068	-0.202925
O12	O	0.548798	-0.330008	-0.330145
O13	O	0.621624	-0.426379	-0.553835
O14	O	0.548780	-0.426397	-0.426543
O15	O	0.676835	-0.329975	-0.553884
O16	O	0.676745	-0.553720	-0.330158
O17	O	0.621573	-0.553674	-0.426550
C18	C	0.649163	-0.582180	-0.378365
C19	C	0.649183	-0.669429	-0.378379
C20	C	0.532488	-0.378198	-0.378337
C21	C	0.482554	-0.378203	-0.378331
C22	C	0.677999	-1.045173	-0.428705
C23	C	0.677979	-0.963192	-0.428686
C24	C	0.649254	-0.922278	-0.378425
C25	C	0.620551	-0.963349	-0.328174
C26	C	0.620574	-1.045328	-0.328189
C27	C	0.620505	-0.792479	-0.328147
C28	C	0.620481	-0.710494	-0.328133
C29	C	0.677910	-0.710343	-0.428644
C30	C	0.677933	-0.792322	-0.428660
C31	C	0.649229	-0.833387	-0.378409
C32	C	0.172910	-0.428496	-0.428526
C33	C	-0.014763	-0.428518	-0.428561
O34	O	-0.039027	-0.471242	-0.471206
N35	N	-0.038231	-0.378260	-0.378452
C36	C	-0.014779	-0.327990	-0.328335
O37	O	-0.039047	-0.285237	-0.285721
C38	C	0.172893	-0.327964	-0.328305
C39	C	0.196360	-0.378231	-0.378411
C40	C	0.196377	-0.478758	-0.478629
C41	C	0.243292	-0.478755	-0.478617
C42	C	0.266741	-0.428490	-0.428502
C43	C	0.243275	-0.378228	-0.378399
C44	C	0.196345	-0.277690	-0.278192
C45	C	0.243266	-0.277687	-0.278190
C46	C	0.266732	-0.327954	-0.328296
C47	C	0.313640	-0.327960	-0.328271
N48	N	0.337108	-0.378218	-0.378380
C49	C	0.313659	-0.428483	-0.428495
C50	C	-0.113310	-0.328008	-0.328353
C51	C	-0.160227	-0.328015	-0.328360
C52	C	-0.160208	-0.428543	-0.428587
C53	C	-0.113289	-0.428539	-0.428576
C54	C	-0.089841	-0.378266	-0.378462
C55	C	0.412185	-0.428473	-0.428465
C56	C	0.459105	-0.428468	-0.428446
C57	C	0.459081	-0.327938	-0.328222
C58	C	0.412165	-0.327946	-0.328238
C59	C	0.388719	-0.378216	-0.378366
O60	O	0.337933	-0.285252	-0.285656
O61	O	0.337935	-0.471217	-0.471115
C62	C	0.125995	-0.428499	-0.428539
C63	C	0.102529	-0.378237	-0.378436
C64	C	0.125978	-0.327972	-0.328320
C65	C	0.055611	-0.378244	-0.378442
C66	C	0.032162	-0.428509	-0.428557
C67	C	0.055630	-0.478767	-0.478666
C68	C	0.102546	-0.478764	-0.478654
C69	C	0.102509	-0.277714	-0.278212
C70	C	0.055594	-0.277722	-0.278227
C71	C	0.032144	-0.327987	-0.328343
C72	C	0.766389	-0.378266	-0.378451
C73	C	0.816323	-0.378280	-0.378475
C74	C	0.649233	-0.378168	-0.583138
C75	C	0.649242	-0.378141	-0.670388
C76	C	0.649271	-0.173487	-0.378439
C77	C	0.649297	-0.086238	-0.378459
C78	C	0.678002	-0.428264	-1.046207
C79	C	0.677991	-0.428287	-0.964227
C80	C	0.649271	-0.378086	-0.923237
C81	C	0.620558	-0.327864	-0.964231
C82	C	0.620568	-0.327846	-1.046210
C83	C	0.620541	-0.327904	-0.793361
C84	C	0.620533	-0.327922	-0.711376
C85	C	0.677964	-0.428345	-0.711378
C86	C	0.677974	-0.428327	-0.793357
C87	C	0.649261	-0.378104	-0.834346
C88	C	0.649214	-0.378238	-0.174446
C89	C	0.649292	-0.378044	-0.087196
H90	H	0.701350	-0.929758	-0.469600
O91	O	0.484375	-0.273724	-0.274169
H92	H	0.505766	-0.233828	-0.309376
O93	O	0.708883	-0.666063	-0.482827
H94	H	0.701166	-0.681754	-0.544428
H95	H	0.701386	-1.078479	-0.469641
H96	H	0.597161	-0.287008	-0.826732
O97	O	0.589505	-0.666360	-0.273918
H98	H	0.569554	-0.708686	-0.238968
H99	H	-0.179308	-0.469470	-0.469393
O100	O	0.589572	-0.919219	-0.273960
H101	H	0.569621	-0.961549	-0.239016
H102	H	0.701364	-0.469190	-0.930857
O103	O	0.030285	-0.223500	-0.224183
H104	H	0.054478	-0.188544	-0.189342
H105	H	0.121597	-0.236781	-0.237401
O106	O	0.589585	-0.273712	-0.920023
H107	H	0.566715	-0.308840	-0.882643
H108	H	0.701362	-0.469201	-0.826729
H109	H	-0.094222	-0.287069	-0.287541
H110	H	0.597190	-0.286951	-1.079582
O111	O	0.127854	-0.532972	-0.532705
H112	H	0.103660	-0.567914	-0.567557
O113	O	0.268558	-0.223464	-0.224137
H114	H	0.289916	-0.258545	-0.184135
O115	O	0.708931	-0.482523	-0.667176
H116	H	0.704096	-0.474112	-0.603284
H117	H	0.701322	-0.825632	-0.469589
O118	O	0.589544	-0.836775	-0.273953
H119	H	0.569562	-0.794554	-0.239008
H120	H	0.597202	-1.078761	-0.287273
H121	H	0.478209	-0.469404	-0.469250
O122	O	0.589551	-0.273790	-0.667160
H123	H	0.569581	-0.238875	-0.709433
H124	H	0.701391	-0.469140	-1.079576
O125	O	0.386917	-0.482751	-0.482497
H126	H	0.395948	-0.469410	-0.544135
O127	O	0.268598	-0.532960	-0.532675
H128	H	0.259574	-0.594553	-0.519114
O129	O	0.171088	-0.533067	-0.532596
H130	H	0.195296	-0.568046	-0.567392
H131	H	-0.094186	-0.469469	-0.469379
H132	H	0.177247	-0.236760	-0.237387
H133	H	-0.179330	-0.287091	-0.287550
O134	O	0.386862	-0.273744	-0.274169
H135	H	0.365473	-0.308838	-0.234170
H136	H	0.036530	-0.519697	-0.519470
