data_functionalizedCrystal
_audit_creation_method	'MofGen! by Chris Wilmer'
_symmetry_space_group_name_H-M	'P1'
_symmetry_Int_Tables_number	1
_symmetry_cell_setting	triclinic
loop_
_symmetry_equiv_pos_as_xyz
  x,y,z
_cell_length_a	11.169417
_cell_length_b	12.645330
_cell_length_c	11.169409
_cell_angle_alpha	90.034355
_cell_angle_beta	90.020564
_cell_angle_gamma	90.013525
loop_
_atom_site_label
_atom_site_type_symbol
_atom_site_fract_x
_atom_site_fract_y
_atom_site_fract_z
Zn1	Zn	1.834952	-0.421929	0.678525
Zn2	Zn	1.834831	-0.599240	0.477835
Zn3	Zn	1.634235	-0.421994	0.477860
Zn4	Zn	1.634237	-0.599154	0.678480
O5	O	1.734564	-0.510579	0.578175
O6	O	2.002885	-0.445459	0.651912
O7	O	1.808170	-0.575791	0.309889
O8	O	1.660911	-0.273638	0.504508
O9	O	2.002796	-0.575728	0.504466
O10	O	1.808376	-0.273591	0.651936
O11	O	1.660793	-0.445569	0.309907
O12	O	1.466286	-0.445485	0.504464
O13	O	1.660914	-0.575582	0.846436
O14	O	1.466287	-0.575644	0.651859
O15	O	1.808378	-0.445375	0.846469
O16	O	1.808171	-0.747576	0.504422
O17	O	1.660796	-0.747513	0.651835
C18	C	1.422739	-0.510563	0.578160
C19	C	1.289339	-0.510582	0.578181
C20	C	1.734504	-0.786009	0.578147
C21	C	1.734588	-0.903839	0.578175
C22	C	1.827152	-1.071399	0.485249
C23	C	1.827454	-0.948838	0.485476
C24	C	1.768895	-0.948206	0.704683
C25	C	1.769629	-1.070804	0.704190
C26	C	1.607680	-1.071172	0.545839
C27	C	1.608288	-0.948568	0.543001
C28	C	2.047606	-0.510596	0.578191
C29	C	2.181006	-0.510603	0.578198
C30	C	1.734660	-0.510462	0.891218
C31	C	1.734701	-0.510412	1.024618
C32	C	1.734657	-0.234074	0.578230
C33	C	1.734696	-0.116244	0.578253
C34	C	1.734537	-0.510620	0.266350
C35	C	1.734728	-0.510371	0.132951
H36	H	1.805989	-0.918846	0.391672
F37	F	1.517637	-1.109080	0.634375
F38	F	1.683550	-0.910114	0.797685
F39	F	1.799455	-1.110045	0.362279
H40	H	1.921531	-0.919427	0.506916
H41	H	1.705238	-1.100465	0.775872
F42	F	1.513386	-0.908546	0.625049
H43	H	1.862472	-1.099313	0.731648
H44	H	1.860689	-0.917414	0.732599
H45	H	1.576483	-1.102192	0.455196
H46	H	1.920725	-1.102125	0.506448
F47	F	1.574469	-0.910677	0.421316
