data_functionalizedCrystal
_audit_creation_method	'MofGen! by Chris Wilmer'
_symmetry_space_group_name_H-M	'P1'
_symmetry_Int_Tables_number	1
_symmetry_cell_setting	triclinic
loop_
_symmetry_equiv_pos_as_xyz
  x,y,z
_cell_length_a	12.784905
_cell_length_b	12.811439
_cell_length_c	11.892113
_cell_angle_alpha	91.067913
_cell_angle_beta	94.701714
_cell_angle_gamma	101.400417
loop_
_atom_site_label
_atom_site_type_symbol
_atom_site_fract_x
_atom_site_fract_y
_atom_site_fract_z
O1	O	0.140021	-1.376880	-0.047137
O2	O	0.157615	-1.071686	-0.015851
O3	O	-0.005959	-1.246616	-0.033786
O4	O	0.303595	-1.201950	-0.029201
O5	O	-0.018064	-1.235804	-0.220686
O6	O	0.145509	-1.060874	-0.202750
O7	O	0.127916	-1.366068	-0.234036
Zn8	Zn	0.134791	-1.211754	-0.248067
Zn9	Zn	0.150740	-1.225999	-0.001819
O10	O	0.291490	-1.191138	-0.216100
C11	C	0.150948	-1.027485	-0.105324
C12	C	0.149107	-0.911891	-0.093474
C13	C	-0.051618	-1.244115	-0.127532
C14	C	-0.169630	-1.252759	-0.128413
C15	C	0.132429	-0.682892	-0.274988
C16	C	0.130698	-0.574281	-0.263860
C17	C	0.143907	-0.586057	-0.060091
C18	C	0.145638	-0.694668	-0.071219
C19	C	0.139900	-0.743081	-0.178671
C20	C	0.141638	-0.851693	-0.189798
C21	C	0.154840	-0.863469	0.013970
C22	C	0.153109	-0.754858	0.025098
C23	C	-0.365625	-1.076657	-0.110372
C24	C	-0.476508	-1.084773	-0.111200
C25	C	-0.502280	-1.277108	-0.130904
C26	C	-0.391398	-1.268991	-0.130076
C27	C	-0.323074	-1.168762	-0.119808
C28	C	-0.212189	-1.160647	-0.118973
C29	C	-0.237963	-1.352980	-0.138685
C30	C	-0.348846	-1.361096	-0.139513
C31	C	0.337148	-1.193639	-0.122352
C32	C	0.455161	-1.184995	-0.121463
N33	N	0.123905	-1.202040	-0.416126
C34	C	0.134586	-0.410268	-0.144564
C35	C	0.136439	-0.525859	-0.156415
C36	C	0.237416	-1.303302	-0.663153
C37	C	0.229798	-1.296521	-0.780799
C38	C	0.101046	-1.181704	-0.769069
C39	C	0.108664	-1.188485	-0.651422
C40	C	0.176853	-1.249285	-0.598468
C41	C	0.184476	-1.256059	-0.480818
C42	C	0.055718	-1.141249	-0.469091
C43	C	0.048100	-1.134468	-0.586738
N44	N	0.161617	-1.235723	0.166238
H45	H	0.127771	-0.722308	-0.362479
H46	H	-0.557929	-1.358708	-0.139277
H47	H	-0.511149	-1.009771	-0.103522
H48	H	-0.156560	-1.079036	-0.110610
H49	H	-0.404490	-1.442699	-0.147877
C50	C	-0.191156	-1.454299	-0.149074
H51	H	-0.115333	-1.435113	-0.147119
H52	H	-0.210399	-1.498913	-0.088086
H53	H	-0.218847	-1.491369	-0.218445
H54	H	0.006408	-1.097258	-0.416412
H55	H	0.240003	-1.305560	-0.437705
H56	H	-0.007420	-1.084970	-0.629870
H57	H	0.136973	-0.891108	-0.277291
H58	H	0.160930	-0.912486	0.092399
C59	C	0.312423	-1.370167	-0.604893
H60	H	0.308292	-1.366462	-0.525562
H61	H	0.291314	-1.442205	-0.631653
H62	H	0.383951	-1.343067	-0.621510
H63	H	0.124620	-0.525277	-0.342291
C64	C	-0.290466	-0.966414	-0.099070
H65	H	-0.331691	-0.912720	-0.093571
H66	H	-0.242450	-0.963023	-0.033162
H67	H	-0.250902	-0.955480	-0.163522
H68	H	0.045519	-1.132216	-0.812206
C69	C	0.150212	-0.532792	0.058093
H70	H	0.148114	-0.459486	0.050920
H71	H	0.091238	-0.566583	0.096744
H72	H	0.215192	-0.539429	0.099521
C73	C	0.159426	-0.701596	0.143285
H74	H	0.157333	-0.628289	0.136120
H75	H	0.100456	-0.735386	0.181943
H76	H	0.224409	-0.708241	0.184703
H77	H	0.279115	-1.340508	-0.833462
