data_functionalizedCrystal
_audit_creation_method	'MofGen! by Chris Wilmer'
_symmetry_space_group_name_H-M	'P1'
_symmetry_Int_Tables_number	1
_symmetry_cell_setting	triclinic
loop_
_symmetry_equiv_pos_as_xyz
  x,y,z
_cell_length_a	11.026607
_cell_length_b	10.967962
_cell_length_c	9.483335
_cell_angle_alpha	92.523644
_cell_angle_beta	78.625300
_cell_angle_gamma	83.619301
loop_
_atom_site_label
_atom_site_type_symbol
_atom_site_fract_x
_atom_site_fract_y
_atom_site_fract_z
O1	O	1.616062	-0.522237	-0.009939
O2	O	2.116062	-0.022237	0.490061
O3	O	1.260006	-0.464455	0.004538
O4	O	1.760006	0.035545	0.504538
O5	O	1.439399	-0.319049	0.040957
O6	O	1.939399	0.180951	0.540957
O7	O	1.436668	-0.667644	-0.046357
O8	O	1.936668	-0.167644	0.453643
O9	O	1.475877	-0.289446	-0.193404
O10	O	1.975877	0.210554	0.306596
O11	O	1.296484	-0.434852	-0.229822
O12	O	1.796484	0.065148	0.270178
O13	O	1.652540	-0.492634	-0.244299
O14	O	2.152540	0.007366	0.255701
Cu15	Cu	1.477843	-0.461040	-0.258460
Cu16	Cu	1.977843	0.038960	0.241540
Cu17	Cu	1.434703	-0.496049	0.018699
Cu18	Cu	1.934703	0.003951	0.518699
O19	O	1.473147	-0.638040	-0.280718
O20	O	1.973147	-0.138040	0.219282
C21	C	1.232527	-0.438994	-0.109971
C22	C	1.732527	0.061006	0.390029
C23	C	1.096300	-0.407217	-0.102010
C24	C	1.596300	0.092783	0.397990
C25	C	1.454683	-0.258927	-0.064868
C26	C	1.954683	0.241073	0.435132
C27	C	1.445862	-0.123881	-0.031033
C28	C	1.945862	0.376119	0.468967
C29	C	1.026669	-0.494960	-0.123987
C30	C	1.526669	0.005040	0.376013
C31	C	0.885872	-0.462119	-0.115759
C32	C	1.385872	0.037881	0.384241
C33	C	1.680018	-0.518096	-0.129787
C34	C	2.180018	-0.018096	0.370213
C35	C	1.816243	-0.549874	-0.137739
C36	C	2.316243	-0.049874	0.362261
N37	N	1.508194	-0.436418	-0.453399
N38	N	2.008194	0.063582	0.046601
C39	C	1.460826	-0.048333	-0.137353
C40	C	1.960826	0.451667	0.362647
C41	C	1.451710	0.091244	-0.102386
C42	C	1.951710	0.591244	0.397614
C43	C	1.457861	0.301837	-0.174891
C44	C	1.957861	0.801837	0.325109
C45	C	1.466676	0.166791	-0.208721
C46	C	1.966676	0.666791	0.291279
C47	C	1.468914	-0.468299	-0.701015
C48	C	1.968914	0.031701	-0.201015
C49	C	1.443631	-0.488791	-0.538742
C50	C	1.943631	0.011209	-0.038742
N51	N	1.404361	-0.520664	0.213640
N52	N	1.904361	-0.020664	0.713640
H53	H	1.071293	-0.594391	-0.148900
H54	H	1.571293	-0.094391	0.351100
H55	H	0.841250	-0.362684	-0.090816
H56	H	1.341250	0.137316	0.409184
N57	N	1.486733	-0.099530	-0.292216
N58	N	1.986733	0.400470	0.207784
H59	H	1.418502	-0.063874	-0.340937
H60	H	1.918502	0.436126	0.159063
H61	H	1.569516	-0.077019	-0.344117
H62	H	2.069516	0.422981	0.155883
N63	N	0.875340	-0.681592	-0.170719
N64	N	1.375340	-0.181592	0.329281
H65	H	0.835508	-0.734291	-0.094289
H66	H	1.335508	-0.234291	0.405711
H67	H	0.862548	-0.712250	-0.268080
H68	H	1.362548	-0.212250	0.231920
N69	N	1.566909	-0.388806	-0.763346
N70	N	2.066909	0.111194	-0.263346
H71	H	1.606513	-0.356674	-0.684096
H72	H	2.106513	0.143326	-0.184096
H73	H	1.632836	-0.439212	-0.839110
H74	H	2.132836	0.060788	-0.339110
N75	N	1.425810	0.142420	0.052490
N76	N	1.925810	0.642420	0.552490
H77	H	1.422973	0.234874	0.055518
H78	H	1.922973	0.734874	0.555518
H79	H	1.343073	0.119828	0.104421
H80	H	1.843073	0.619828	0.604421
H81	H	1.369646	-0.548804	-0.491683
H82	H	1.869646	-0.048804	0.008317
H83	H	1.582187	-0.376415	-0.500460
H84	H	2.082187	0.123585	-0.000460
N85	N	1.306363	-0.600155	-0.724035
N86	N	1.806363	-0.100155	-0.224035
H87	H	1.302194	-0.603528	-0.616947
H88	H	1.802194	-0.103528	-0.116947
H89	H	1.222696	-0.564145	-0.741559
H90	H	1.722696	-0.064145	-0.241559
H91	H	1.051673	-0.307789	-0.077069
H92	H	1.551673	0.192211	0.422931
N93	N	1.492599	0.115617	-0.363598
N94	N	1.992599	0.615617	0.136402
H95	H	1.495440	0.023162	-0.366629
H96	H	1.995440	0.523162	0.133371
H97	H	1.424349	0.151363	-0.412231
H98	H	1.924349	0.651363	0.087769
N99	N	1.419964	-0.072700	0.123835
N100	N	1.919964	0.427300	0.623835
H101	H	1.417126	0.019754	0.126862
H102	H	1.917126	0.519754	0.626862
H103	H	1.337226	-0.095291	0.175765
H104	H	1.837226	0.404709	0.675765
