data_functionalizedCrystal
_audit_creation_method	'MofGen! by Chris Wilmer'
_symmetry_space_group_name_H-M	'P1'
_symmetry_Int_Tables_number	1
_symmetry_cell_setting	triclinic
loop_
_symmetry_equiv_pos_as_xyz
  x,y,z
_cell_length_a	19.805407
_cell_length_b	19.805405
_cell_length_c	19.805399
_cell_angle_alpha	89.970699
_cell_angle_beta	89.980803
_cell_angle_gamma	90.022560
loop_
_atom_site_label
_atom_site_type_symbol
_atom_site_fract_x
_atom_site_fract_y
_atom_site_fract_z
Zn1	Zn	-1.034736	0.269548	0.382705
Zn2	Zn	-0.784736	0.519548	0.632705
Zn3	Zn	-0.534736	0.769548	0.882705
Zn4	Zn	-0.284736	1.019548	1.132705
Zn5	Zn	-1.034650	0.382737	0.269513
Zn6	Zn	-0.784650	0.632737	0.519513
Zn7	Zn	-0.534650	0.882737	0.769513
Zn8	Zn	-0.284650	1.132737	1.019513
Zn9	Zn	-0.921550	0.269559	0.269530
Zn10	Zn	-0.671550	0.519559	0.519530
Zn11	Zn	-0.421550	0.769559	0.769530
Zn12	Zn	-0.171550	1.019559	1.019530
Zn13	Zn	-0.921514	0.382693	0.382661
Zn14	Zn	-0.671514	0.632693	0.632661
Zn15	Zn	-0.421514	0.882693	0.882661
Zn16	Zn	-0.171514	1.132693	1.132661
O17	O	-0.978113	0.326134	0.326102
O18	O	-0.728113	0.576134	0.576102
O19	O	-0.478113	0.826134	0.826102
O20	O	-0.228113	1.076134	1.076102
O21	O	-1.129441	0.284577	0.367701
O22	O	-0.879441	0.534577	0.617701
O23	O	-0.629441	0.784577	0.867701
O24	O	-0.379441	1.034577	1.117701
O25	O	-1.019627	0.367746	0.174799
O26	O	-0.769627	0.617746	0.424799
O27	O	-0.519627	0.867746	0.674799
O28	O	-0.269627	1.117746	0.924799
O29	O	-0.936615	0.174841	0.284569
O30	O	-0.686615	0.424841	0.534569
O31	O	-0.436615	0.674841	0.784569
O32	O	-0.186615	0.924841	1.034569
O33	O	-1.129378	0.367736	0.284540
O34	O	-0.879378	0.617736	0.534540
O35	O	-0.629378	0.867736	0.784540
O36	O	-0.379378	1.117736	1.034540
O37	O	-1.019772	0.174833	0.367717
O38	O	-0.769772	0.424833	0.617717
O39	O	-0.519772	0.674833	0.867717
O40	O	-0.269772	0.924833	1.117717
O41	O	-0.936533	0.284596	0.174811
O42	O	-0.686533	0.534596	0.424811
O43	O	-0.436533	0.784596	0.674811
O44	O	-0.186533	1.034596	0.924811
O45	O	-0.826829	0.284553	0.284526
O46	O	-0.576829	0.534553	0.534526
O47	O	-0.326829	0.784553	0.784526
O48	O	-0.076829	1.034553	1.034526
O49	O	-0.936553	0.367661	0.477383
O50	O	-0.686553	0.617661	0.727383
O51	O	-0.436553	0.867661	0.977383
O52	O	-0.186553	1.117661	1.227383
O53	O	-0.826802	0.367672	0.367642
O54	O	-0.576802	0.617672	0.617642
O55	O	-0.326802	0.867672	0.867642
O56	O	-0.076802	1.117672	1.117642
O57	O	-1.019737	0.284534	0.477415
O58	O	-0.769737	0.534534	0.727415
O59	O	-0.519737	0.784534	0.977415
O60	O	-0.269737	1.034534	1.227415
O61	O	-1.019592	0.477448	0.284497
O62	O	-0.769592	0.727448	0.534497
O63	O	-0.519592	0.977448	0.784497
O64	O	-0.269592	1.227448	1.034497
O65	O	-0.936471	0.477416	0.367626
O66	O	-0.686471	0.727416	0.617626
O67	O	-0.436471	0.977416	0.867626
O68	O	-0.186471	1.227416	1.117626
C69	C	-0.802257	0.326110	0.326081
C70	C	-0.552257	0.576110	0.576081
C71	C	-0.302257	0.826110	0.826081
C72	C	-0.052257	1.076110	1.076081
C73	C	-0.727025	0.326115	0.326089
C74	C	-0.477025	0.576115	0.576089
C75	C	-0.227025	0.826115	0.826089
C76	C	0.022975	1.076115	1.076089
C77	C	-0.691714	0.282890	0.369456
C78	C	-0.441714	0.532890	0.619456
C79	C	-0.191714	0.782890	0.869456
C80	C	0.058286	1.032890	1.119456
C81	C	-0.621025	0.282892	0.369457
C82	C	-0.371025	0.532892	0.619457
C83	C	-0.121025	0.782892	0.869457
C84	C	0.128975	1.032892	1.119457
C85	C	-0.585649	0.326124	0.326093
C86	C	-0.335649	0.576124	0.576093
C87	C	-0.085649	0.826124	0.826093
C88	C	0.164351	1.076124	1.076093
C89	C	-0.620965	0.369350	0.282721
C90	C	-0.370965	0.619350	0.532721
C91	C	-0.120965	0.869350	0.782721
C92	C	0.129035	1.119350	1.032721
C93	C	-0.691652	0.369344	0.282718
C94	C	-0.441652	0.619344	0.532718
C95	C	-0.191652	0.869344	0.782718
C96	C	0.058348	1.119344	1.032718
C97	C	-0.335892	0.369375	0.282735
C98	C	-0.085892	0.619375	0.532735
C99	C	0.164108	0.869375	0.782735
C100	C	0.414108	1.119375	1.032735
C101	C	-0.265199	0.369379	0.282744
C102	C	-0.015199	0.619379	0.532744
C103	C	0.234801	0.869379	0.782744
C104	C	0.484801	1.119379	1.032744
C105	C	-0.265265	0.282923	0.369474
C106	C	-0.015265	0.532923	0.619474
C107	C	0.234735	0.782923	0.869474
C108	C	0.484735	1.032923	1.119474
C109	C	-0.335952	0.282917	0.369470
C110	C	-0.085952	0.532917	0.619470
C111	C	0.164048	0.782917	0.869470
C112	C	0.414048	1.032917	1.119470
C113	C	-0.371262	0.326141	0.326096
C114	C	-0.121262	0.576141	0.576096
C115	C	0.128738	0.826141	0.826096
C116	C	0.378738	1.076141	1.076096
C117	C	-0.447910	0.326137	0.326095
C118	C	-0.197910	0.576137	0.576095
C119	C	0.052090	0.826137	0.826095
C120	C	0.302090	1.076137	1.076095
C121	C	-0.509002	0.326131	0.326098
C122	C	-0.259002	0.576131	0.576098
C123	C	-0.009002	0.826131	0.826098
C124	C	0.240998	1.076131	1.076098
C125	C	-0.978036	0.501991	0.326069
C126	C	-0.728036	0.751991	0.576069
C127	C	-0.478036	1.001991	0.826069
C128	C	-0.228036	1.251991	1.076069
C129	C	-0.978066	0.577222	0.326078
C130	C	-0.728066	0.827222	0.576078
C131	C	-0.478066	1.077222	0.826078
C132	C	-0.228066	1.327222	1.076078
C133	C	-0.978151	0.326092	0.502645
C134	C	-0.728151	0.576092	0.752645
C135	C	-0.478151	0.826092	1.002645
C136	C	-0.228151	1.076092	1.252645
C137	C	-0.978167	0.326074	0.577877
C138	C	-0.728167	0.576074	0.827877
C139	C	-0.478167	0.826074	1.077877
C140	C	-0.228167	1.076074	1.327877
C141	C	-0.154655	0.326155	0.326117
C142	C	0.095345	0.576155	0.576117
C143	C	0.345345	0.826155	0.826117
C144	C	0.595345	1.076155	1.076117
C145	C	-0.229887	0.326150	0.326108
C146	C	0.020113	0.576150	0.576108
C147	C	0.270113	0.826150	0.826108
C148	C	0.520113	1.076150	1.076108
C149	C	-0.978207	0.149592	0.326150
C150	C	-0.728207	0.399592	0.576150
C151	C	-0.478207	0.649592	0.826150
C152	C	-0.228207	0.899592	1.076150
C153	C	-0.978248	0.074360	0.326170
C154	C	-0.728248	0.324360	0.576170
C155	C	-0.478248	0.574360	0.826170
C156	C	-0.228248	0.824360	1.076170
C157	C	-1.021389	0.612561	0.282838
C158	C	-0.771389	0.862561	0.532838
C159	C	-0.521389	1.112561	0.782838
C160	C	-0.271389	1.362561	1.032838
C161	C	-1.021418	0.683249	0.282853
C162	C	-0.771418	0.933249	0.532853
C163	C	-0.521418	1.183249	0.782853
C164	C	-0.271418	1.433249	1.032853
C165	C	-0.978119	0.718598	0.326105
C166	C	-0.728119	0.968598	0.576105
C167	C	-0.478119	1.218598	0.826105
C168	C	-0.228119	1.468598	1.076105
C169	C	-0.934794	0.683255	0.369350
C170	C	-0.684794	0.933255	0.619350
C171	C	-0.434794	1.183255	0.869350
C172	C	-0.184794	1.433255	1.119350
C173	C	-0.934769	0.612568	0.369338
C174	C	-0.684769	0.862568	0.619338
C175	C	-0.434769	1.112568	0.869338
C176	C	-0.184769	1.362568	1.119338
C177	C	-0.934894	0.968328	0.369400
C178	C	-0.684894	1.218328	0.619400
C179	C	-0.434894	1.468328	0.869400
C180	C	-0.184894	1.718328	1.119400
C181	C	-0.934921	1.039020	0.369407
C182	C	-0.684921	1.289020	0.619407
C183	C	-0.434921	1.539020	0.869407
C184	C	-0.184921	1.789020	1.119407
C185	C	-1.021542	1.039010	0.282915
C186	C	-0.771542	1.289010	0.532915
C187	C	-0.521542	1.539010	0.782915
C188	C	-0.271542	1.789010	1.032915
C189	C	-1.021517	0.968322	0.282903
C190	C	-0.771517	1.218322	0.532903
C191	C	-0.521517	1.468322	0.782903
C192	C	-0.271517	1.718322	1.032903
C193	C	-0.978195	0.932985	0.326150
C194	C	-0.728195	1.182985	0.576150
C195	C	-0.478195	1.432985	0.826150
C196	C	-0.228195	1.682985	1.076150
C197	C	-0.978165	0.856337	0.326134
C198	C	-0.728165	1.106337	0.576134
C199	C	-0.478165	1.356337	0.826134
C200	C	-0.228165	1.606337	1.076134
C201	C	-0.978145	0.795245	0.326118
C202	C	-0.728145	1.045245	0.576118
C203	C	-0.478145	1.295245	0.826118
C204	C	-0.228145	1.545245	1.076118
C205	C	-0.978114	0.326128	0.150246
C206	C	-0.728114	0.576128	0.400246
C207	C	-0.478114	0.826128	0.650246
C208	C	-0.228114	1.076128	0.900246
C209	C	-0.978229	0.325956	0.075015
C210	C	-0.728229	0.575956	0.325015
C211	C	-0.478229	0.825956	0.575015
C212	C	-0.228229	1.075956	0.825015
C213	C	-1.021481	0.282787	0.613239
C214	C	-0.771481	0.532787	0.863239
C215	C	-0.521481	0.782787	1.113239
C216	C	-0.271481	1.032787	1.363239
C217	C	-1.021488	0.282768	0.683928
C218	C	-0.771488	0.532768	0.933928
C219	C	-0.521488	0.782768	1.183928
C220	C	-0.271488	1.032768	1.433928
C221	C	-0.978184	0.326038	0.719253
C222	C	-0.728184	0.576038	0.969253
C223	C	-0.478184	0.826038	1.219253
C224	C	-0.228184	1.076038	1.469253
C225	C	-0.934864	0.369327	0.683886
C226	C	-0.684864	0.619327	0.933886
C227	C	-0.434864	0.869327	1.183886
C228	C	-0.184864	1.119327	1.433886
C229	C	-0.934854	0.369342	0.613198
C230	C	-0.684854	0.619342	0.863198
C231	C	-0.434854	0.869342	1.113198
C232	C	-0.184854	1.119342	1.363198
C233	C	-0.934902	0.369264	0.968959
C234	C	-0.684902	0.619264	1.218959
C235	C	-0.434902	0.869264	1.468959
C236	C	-0.184902	1.119264	1.718959
C237	C	-0.934917	0.369246	1.039651
C238	C	-0.684917	0.619246	1.289651
C239	C	-0.434917	0.869246	1.539651
C240	C	-0.184917	1.119246	1.789651
C241	C	-1.021536	0.282689	1.039688
C242	C	-0.771536	0.532689	1.289688
C243	C	-0.521536	0.782689	1.539688
C244	C	-0.271536	1.032689	1.789688
C245	C	-1.021527	0.282705	0.969001
C246	C	-0.771527	0.532705	1.219001
C247	C	-0.521527	0.782705	1.469001
C248	C	-0.271527	1.032705	1.719001
C249	C	-0.978205	0.325990	0.933640
C250	C	-0.728205	0.575990	1.183640
C251	C	-0.478205	0.825990	1.433640
C252	C	-0.228205	1.075990	1.683640
C253	C	-0.978197	0.326010	0.856992
C254	C	-0.728197	0.576010	1.106992
C255	C	-0.478197	0.826010	1.356992
C256	C	-0.228197	1.076010	1.606992
C257	C	-0.978194	0.326022	0.795900
C258	C	-0.728194	0.576022	1.045900
C259	C	-0.478194	0.826022	1.295900
C260	C	-0.228194	1.076022	1.545900
H261	H	-0.364632	0.404571	0.247418
H262	H	-0.114632	0.654571	0.497418
H263	H	0.135368	0.904571	0.747418
H264	H	0.385368	1.154571	0.997418
H265	H	-1.056773	0.939544	0.247681
H266	H	-0.806773	1.189544	0.497681
H267	H	-0.556773	1.439544	0.747681
H268	H	-0.306773	1.689544	0.997681
F269	F	-0.227551	0.415393	0.236587
F270	F	0.022449	0.665393	0.486587
F271	F	0.272449	0.915393	0.736587
F272	F	0.522449	1.165393	0.986587
F273	F	-0.729357	0.236880	0.415613
F274	F	-0.479357	0.486880	0.665613
F275	F	-0.229357	0.736880	0.915613
F276	F	0.020643	0.986880	1.165613
F277	F	-0.583313	0.415357	0.236567
F278	F	-0.333313	0.665357	0.486567
F279	F	-0.083313	0.915357	0.736567
F280	F	0.166687	1.165357	0.986567
H281	H	-1.056820	1.067790	0.247704
H282	H	-0.806820	1.317790	0.497704
H283	H	-0.556820	1.567790	0.747704
H284	H	-0.306820	1.817790	0.997704
H285	H	-0.899543	0.712041	0.404569
H286	H	-0.649543	0.962041	0.654569
H287	H	-0.399543	1.212041	0.904569
H288	H	-0.149543	1.462041	1.154569
H289	H	-0.899576	0.404584	0.584407
H290	H	-0.649576	0.654584	0.834407
H291	H	-0.399576	0.904584	1.084407
H292	H	-0.149576	1.154584	1.334407
H293	H	-1.056695	0.712019	0.247642
H294	H	-0.806695	0.962019	0.497642
H295	H	-0.556695	1.212019	0.747642
H296	H	-0.306695	1.462019	0.997642
H297	H	-1.056747	0.247553	0.584482
H298	H	-0.806747	0.497553	0.834482
H299	H	-0.556747	0.747553	1.084482
H300	H	-0.306747	0.997553	1.334482
H301	H	-0.899618	0.939562	0.404612
H302	H	-0.649618	1.189562	0.654612
H303	H	-0.399618	1.439562	0.904612
H304	H	-0.149618	1.689562	1.154612
H305	H	-0.899663	1.067799	0.404633
H306	H	-0.649663	1.317799	0.654633
H307	H	-0.399663	1.567799	0.904633
H308	H	-0.149663	1.817799	1.154633
F309	F	-0.373598	0.236908	0.415626
F310	F	-0.123598	0.486908	0.665626
F311	F	0.126402	0.736908	0.915626
F312	F	0.376402	0.986908	1.165626
F313	F	-0.227680	0.236918	0.415636
F314	F	0.022320	0.486918	0.665636
F315	F	0.272320	0.736918	0.915636
F316	F	0.522320	0.986918	1.165636
H317	H	-1.056761	0.247521	0.712716
H318	H	-0.806761	0.497521	0.962716
H319	H	-0.556761	0.747521	1.212716
H320	H	-0.306761	0.997521	1.462716
H321	H	-0.720401	0.404542	0.247403
H322	H	-0.470401	0.654542	0.497403
H323	H	-0.220401	0.904542	0.747403
H324	H	0.029599	1.154542	0.997403
H325	H	-1.056809	0.247441	1.068488
H326	H	-0.806809	0.497441	1.318488
H327	H	-0.556809	0.747441	1.568488
H328	H	-0.306809	0.997441	1.818488
H329	H	-0.899492	0.583796	0.404549
H330	H	-0.649492	0.833796	0.654549
H331	H	-0.399492	1.083796	0.904549
H332	H	-0.149492	1.333796	1.154549
F333	F	-1.067470	0.574946	0.236798
F334	F	-0.817470	0.824946	0.486798
F335	F	-0.567470	1.074946	0.736798
F336	F	-0.317470	1.324946	0.986798
H337	H	-0.899650	0.404483	1.068411
H338	H	-0.649650	0.654483	1.318411
H339	H	-0.399650	0.904483	1.568411
H340	H	-0.149650	1.154483	1.818411
H341	H	-0.899637	0.404519	0.940177
H342	H	-0.649637	0.654519	1.190177
H343	H	-0.399637	0.904519	1.440177
H344	H	-0.149637	1.154519	1.690177
F345	F	-0.888773	0.415376	0.721483
F346	F	-0.638773	0.665376	0.971483
F347	F	-0.388773	0.915376	1.221483
F348	F	-0.138773	1.165376	1.471483
F349	F	-1.067620	0.236653	0.931409
F350	F	-0.817620	0.486653	1.181409
F351	F	-0.567620	0.736653	1.431409
F352	F	-0.317620	0.986653	1.681409
H353	H	-0.592278	0.247696	0.404772
H354	H	-0.342278	0.497696	0.654772
H355	H	-0.092278	0.747696	0.904772
H356	H	0.157722	0.997696	1.154772
