data_functionalizedCrystal
_audit_creation_method	'MofGen! by Chris Wilmer'
_symmetry_space_group_name_H-M	'P1'
_symmetry_Int_Tables_number	1
_symmetry_cell_setting	triclinic
loop_
_symmetry_equiv_pos_as_xyz
  x,y,z
_cell_length_a	10.654549
_cell_length_b	8.597304
_cell_length_c	7.088929
_cell_angle_alpha	76.027438
_cell_angle_beta	96.265142
_cell_angle_gamma	84.909817
loop_
_atom_site_label
_atom_site_type_symbol
_atom_site_fract_x
_atom_site_fract_y
_atom_site_fract_z
O1	O	1.653159	0.240437	-0.198541
O2	O	1.287510	0.261797	-0.202072
O3	O	1.480579	0.018879	-0.162048
O4	O	1.460090	0.483355	-0.238566
O5	O	1.506381	-0.013659	0.161289
O6	O	1.313312	0.229260	0.121264
O7	O	1.678961	0.207899	0.124795
Cu8	Cu	1.498492	0.215608	0.152553
Cu9	Cu	1.467979	0.254088	-0.229830
O10	O	1.485892	0.450818	0.084770
C11	C	1.253626	0.243960	-0.040148
C12	C	1.114219	0.239269	-0.039380
C13	C	0.902606	0.377874	-0.062206
C14	C	1.033590	0.382296	-0.062946
C15	C	1.063856	0.091813	-0.015092
C16	C	0.932872	0.087395	-0.014367
C17	C	1.492718	-0.056864	0.009414
C18	C	1.490430	-0.234077	0.038596
C19	C	1.712845	0.225737	-0.037134
C20	C	1.852251	0.230429	-0.037914
C21	C	1.473753	0.526561	-0.086695
C22	C	1.476040	0.703775	-0.115890
N23	N	1.519963	0.188543	0.421500
N24	N	1.446518	0.281141	-0.498775
H25	H	0.891874	-0.032679	0.005409
H26	H	0.836967	0.494342	-0.081382
O27	O	1.355679	0.395738	0.385248
C28	C	1.290845	0.477427	0.502861
H29	H	1.353844	0.465254	0.647595
H30	H	1.199259	0.422514	0.533145
C31	C	1.181263	0.672234	0.217148
C32	C	1.258644	0.657294	0.394906
H33	H	1.161394	0.783182	0.150555
H34	H	1.224939	0.617196	0.137908
H35	H	1.104950	0.626463	0.242410
H36	H	1.334961	0.703046	0.369640
H37	H	1.214980	0.712344	0.474139
H38	H	1.596095	0.092590	0.518966
O39	O	1.082329	0.525652	-0.086817
C40	C	1.027761	0.629760	-0.268672
H41	H	0.932510	0.590858	-0.317159
H42	H	1.094215	0.623924	-0.383034
C43	C	1.124045	0.851698	-0.187785
C44	C	1.007049	0.803925	-0.247330
H45	H	1.111273	0.959132	-0.174626
H46	H	1.160812	0.781557	-0.065269
H47	H	1.179411	0.846822	-0.283096
H48	H	0.951691	0.808782	-0.152009
H49	H	0.970272	0.874071	-0.369831
O50	O	1.463244	-0.197801	-0.300254
C51	C	1.354912	-0.083607	-0.329288
H52	H	1.331237	-0.068580	-0.181220
H53	H	1.271005	-0.127152	-0.407690
C54	C	1.410982	0.061197	-0.636970
C55	C	1.381910	0.079664	-0.455111
H56	H	1.427632	0.161909	-0.714591
H57	H	1.483965	-0.015740	-0.617415
H58	H	1.341054	0.024905	-0.702280
H59	H	1.451844	0.115935	-0.389794
H60	H	1.308940	0.156611	-0.474659
O61	O	1.503210	-0.332205	0.223145
C62	C	1.621023	-0.319345	0.326526
H63	H	1.654855	-0.199004	0.257605
H64	H	1.693970	-0.422383	0.319332
C65	C	1.563922	-0.476476	0.626922
C66	C	1.605470	-0.328664	0.542282
H67	H	1.554332	-0.482231	0.760012
H68	H	1.484551	-0.485145	0.557272
H69	H	1.624718	-0.562325	0.620908
H70	H	1.544667	-0.242819	0.548274
H71	H	1.684831	-0.319980	0.611938
H72	H	1.129513	-0.024640	0.004084
