data_functionalizedCrystal
_audit_creation_method	'MofGen! by Chris Wilmer'
_symmetry_space_group_name_H-M	'P1'
_symmetry_Int_Tables_number	1
_symmetry_cell_setting	triclinic
loop_
_symmetry_equiv_pos_as_xyz
  x,y,z
_cell_length_a	19.188905
_cell_length_b	19.188930
_cell_length_c	16.053802
_cell_angle_alpha	92.551696
_cell_angle_beta	87.420636
_cell_angle_gamma	83.139668
loop_
_atom_site_label
_atom_site_type_symbol
_atom_site_fract_x
_atom_site_fract_y
_atom_site_fract_z
O1	O	0.929117	0.084129	-0.069576
O2	O	0.725802	0.095883	-0.069549
O3	O	0.833326	-0.011649	-0.069547
O4	O	0.821593	0.191662	-0.069578
O5	O	0.827407	-0.005755	0.069312
O6	O	0.719883	0.101777	0.069310
O7	O	0.923198	0.090024	0.069283
Zn8	Zn	0.820601	0.096837	0.091343
Zn9	Zn	0.828399	0.089070	-0.091609
O10	O	0.815674	0.197556	0.069281
C11	C	0.696831	0.098453	-0.000116
C12	C	0.619325	0.097319	-0.000105
C13	C	0.586160	0.093562	-0.075799
C14	C	0.513336	0.092488	-0.075809
C15	C	0.473683	0.095159	-0.000121
C16	C	0.506857	0.098921	0.075583
C17	C	0.579678	0.100001	0.075591
N18	N	0.362262	0.056121	0.056213
N19	N	0.293086	0.055093	0.056200
C20	C	0.254278	0.091905	-0.000141
N21	N	0.287261	0.129775	-0.056480
N22	N	0.356444	0.130799	-0.056470
C23	C	0.394721	0.093988	-0.000121
C24	C	0.142149	0.086984	-0.075851
C25	C	0.069324	0.085915	-0.075858
C26	C	0.062846	0.092341	0.075536
C27	C	0.135669	0.093417	0.075541
C28	C	0.175317	0.090735	-0.000155
C29	C	0.829987	-0.034713	-0.000115
C30	C	0.828846	-0.112217	-0.000108
C31	C	0.891937	-0.157147	-0.000112
C32	C	0.890866	-0.229971	-0.000126
C33	C	0.826699	-0.257862	-0.000118
C34	C	0.763599	-0.212922	-0.000118
C35	C	0.764672	-0.140100	-0.000113
N36	N	0.775637	-0.363856	0.047145
N37	N	0.774621	-0.433035	0.047142
C38	C	0.823462	-0.477271	-0.000134
N39	N	0.873366	-0.449716	-0.047397
N40	N	0.874383	-0.380531	-0.047391
C41	C	0.825528	-0.336824	-0.000123
C42	C	0.885396	-0.601166	-0.000154
C43	C	0.884323	-0.673991	-0.000172
C44	C	0.757053	-0.656940	-0.000156
C45	C	0.758129	-0.584117	-0.000146
C46	C	0.822302	-0.556234	-0.000141
C47	C	0.952169	0.087454	-0.000152
C48	C	1.029675	0.088587	-0.000169
C49	C	0.819014	0.220620	-0.000153
C50	C	0.820155	0.298124	-0.000166
N51	N	0.815285	0.102136	0.216203
N52	N	0.833721	0.083765	-0.216470
C53	C	0.861053	0.056397	0.259898
C54	C	0.857340	0.060111	0.347305
C55	C	0.807862	0.109568	0.391015
C56	C	0.762089	0.155309	0.347314
C57	C	0.765799	0.151591	0.259909
C58	C	0.791658	0.125788	0.652424
C59	C	0.787953	0.129504	0.739836
C60	C	0.883203	0.034305	0.739820
C61	C	0.886912	0.030594	0.652413
C62	C	0.841136	0.076333	0.608720
N63	N	0.804068	0.113367	0.480359
N64	N	0.844928	0.072530	0.519378
H65	H	0.174431	0.084808	-0.137487
Cl66	Cl	0.685350	-0.083613	-0.000107
H67	H	0.728529	0.188836	0.224334
H68	H	0.754387	0.163031	0.616856
Cl69	Cl	0.027628	0.081197	-0.171025
Cl70	Cl	0.682932	-0.247984	-0.000114
Cl71	Cl	0.471633	0.087763	-0.170975
Cl72	Cl	0.914878	0.002609	0.402237
H73	H	0.704807	-0.679648	-0.000154
Cl74	Cl	0.678809	-0.527630	-0.000137
Cl75	Cl	0.013002	0.095705	0.170689
Cl76	Cl	0.966069	-0.566109	-0.000143
Cl77	Cl	0.963646	-0.730476	-0.000184
H78	H	0.474566	0.101097	0.137209
Cl79	Cl	0.923261	-0.005777	0.204957
H80	H	0.920471	-0.002934	0.775403
Cl81	Cl	0.699884	0.217481	0.402262
Cl82	Cl	0.725747	0.191685	0.794780
H83	H	0.944192	-0.134450	-0.000111
H84	H	0.606680	0.103062	0.137232
H85	H	0.162673	0.096472	0.137180
H86	H	0.942245	-0.266560	-0.000133
H87	H	0.618436	0.091378	-0.137436
Cl88	Cl	0.949114	-0.031580	0.597463
