data_functionalizedCrystal
_audit_creation_method	'MofGen! by Chris Wilmer'
_symmetry_space_group_name_H-M	'P1'
_symmetry_Int_Tables_number	1
_symmetry_cell_setting	triclinic
loop_
_symmetry_equiv_pos_as_xyz
  x,y,z
_cell_length_a	6.817900
_cell_length_b	11.102288
_cell_length_c	19.551833
_cell_angle_alpha	94.522507
_cell_angle_beta	101.663477
_cell_angle_gamma	108.605689
loop_
_atom_site_label
_atom_site_type_symbol
_atom_site_fract_x
_atom_site_fract_y
_atom_site_fract_z
V1	V	-4.032649	-0.177171	-0.217858
O2	O	-3.993183	0.007143	-0.213711
O3	O	-4.009966	-0.349983	-0.216368
O4	O	-3.975027	-0.175048	-0.312873
O5	O	-4.028363	-0.169003	-0.116537
V6	V	-4.514140	-0.155054	-0.205739
O7	O	-4.298366	-0.225687	-0.244442
O8	O	-4.698620	-0.106538	-0.179156
O9	O	-4.313617	0.017757	-0.207229
O10	O	-4.671003	-0.339369	-0.209886
O11	O	-4.635822	-0.163223	-0.307060
O12	O	-4.348555	-0.157178	-0.110724
C13	C	-3.861521	-0.392092	-0.212931
C14	C	-3.924200	-0.533371	-0.212347
C15	C	-4.136392	-0.606239	-0.215558
C16	C	-4.195277	-0.738987	-0.215014
C17	C	-3.829754	-0.725986	-0.208044
C18	C	-3.770876	-0.593242	-0.208593
C19	C	-3.816953	-0.168943	-0.336033
C20	C	-3.851294	-0.168350	-0.413708
C21	C	-4.050151	-0.174451	-0.453755
C22	C	-4.082419	-0.173894	-0.526740
C23	C	-3.915831	-0.167262	-0.559676
C24	C	-3.716943	-0.161153	-0.519619
C25	C	-3.684674	-0.161697	-0.446635
C26	C	-3.863312	-0.236365	-0.678988
C27	C	-3.895591	-0.235829	-0.751972
C28	C	-4.015348	-0.165577	-0.784783
C29	C	-4.102862	-0.095880	-0.744604
C30	C	-4.070594	-0.096424	-0.671620
C31	C	-3.950800	-0.166670	-0.638815
C32	C	-4.249205	-0.171073	-0.903969
C33	C	-4.281462	-0.170508	-0.976954
C34	C	-3.915986	-0.157779	-0.969832
C35	C	-3.883729	-0.158332	-0.896848
C36	C	-4.050348	-0.164985	-0.863921
C37	C	-4.125405	0.059859	-0.210664
C38	C	-4.041964	0.201137	-0.211253
C39	C	-4.169973	-0.163287	-0.087561
C40	C	-4.114869	-0.163873	-0.009885
H41	H	-4.185827	-0.179863	-0.426951
H42	H	-3.598079	-0.533911	-0.205981
O43	O	-4.285610	-0.548291	-0.219240
C44	C	-4.485513	-0.641074	-0.221939
H45	H	-4.486758	-0.740230	-0.242753
H46	H	-4.616034	-0.617139	-0.258614
H47	H	-4.515396	-0.640879	-0.166635
H48	H	-3.765770	-0.293564	-0.652279
H49	H	-3.581306	-0.155749	-0.546440
O50	O	-4.401277	-0.809870	-0.218028
C51	C	-4.411103	-0.869400	-0.157113
H52	H	-4.249528	-0.877782	-0.133743
H53	H	-4.537780	-0.969454	-0.171870
H54	H	-4.453948	-0.809106	-0.116468
H55	H	-4.244361	-0.178869	-0.559353
O56	O	-4.155651	-0.028600	-0.632688
C57	C	-4.268322	0.033499	-0.677294
H58	H	-4.205118	0.045776	-0.726954
H59	H	-4.245831	0.131973	-0.648339
H60	H	-4.445120	-0.027033	-0.692657
H61	H	-4.384874	-0.176486	-0.877158
O62	O	-4.474799	-0.176490	-1.015758
C63	C	-4.614910	-0.182444	-0.971038
H64	H	-4.557985	-0.221418	-0.921436
H65	H	-4.782154	-0.248757	-0.999931
H66	H	-4.617892	-0.081974	-0.955587
H67	H	-4.200384	-0.038678	-0.771317
O68	O	-3.754231	-0.151166	-1.001881
C69	C	-3.708191	-0.039811	-1.034391
H70	H	-3.853766	-0.008372	-1.045257
H71	H	-3.665620	-0.061612	-1.086337
H72	H	-3.567958	0.040592	-0.997868
H73	H	-3.704931	-0.774749	-0.204987
O74	O	-3.690547	-0.152267	-0.857881
C75	C	-3.607173	-0.041617	-0.805938
H76	H	-3.682880	0.032337	-0.823320
H77	H	-3.427135	0.001067	-0.798750
H78	H	-3.644083	-0.068778	-0.753741
O79	O	-3.810361	-0.303557	-0.790889
C80	C	-3.697761	-0.365690	-0.746283
H81	H	-3.649301	-0.313157	-0.689730
H82	H	-3.548975	-0.364776	-0.764660
H83	H	-3.803952	-0.469377	-0.748389
O84	O	-3.491564	-0.156017	-0.407792
C85	C	-3.442041	-0.262640	-0.432969
H86	H	-3.595409	-0.343530	-0.461734
H87	H	-3.355955	-0.297267	-0.386549
H88	H	-3.334715	-0.233341	-0.470980
