data_functionalizedCrystal
_audit_creation_method	'MofGen! by Chris Wilmer'
_symmetry_space_group_name_H-M	'P1'
_symmetry_Int_Tables_number	1
_symmetry_cell_setting	triclinic
loop_
_symmetry_equiv_pos_as_xyz
  x,y,z
_cell_length_a	18.050591
_cell_length_b	18.050582
_cell_length_c	18.050589
_cell_angle_alpha	90.018205
_cell_angle_beta	90.024227
_cell_angle_gamma	90.020922
loop_
_atom_site_label
_atom_site_type_symbol
_atom_site_fract_x
_atom_site_fract_y
_atom_site_fract_z
Zn1	Zn	1.135293	0.420054	-0.295786
Zn2	Zn	1.135203	0.295873	-0.419969
Zn3	Zn	1.011112	0.295865	-0.295789
Zn4	Zn	1.011060	0.420009	-0.419930
O5	O	1.073167	0.357950	-0.357868
O6	O	1.239205	0.403603	-0.312274
O7	O	1.118727	0.191948	-0.403514
O8	O	1.027644	0.312354	-0.191864
O9	O	1.239140	0.312369	-0.403511
O10	O	1.118879	0.403595	-0.191862
O11	O	1.027557	0.191942	-0.312279
O12	O	0.907180	0.312311	-0.312241
O13	O	1.027555	0.523940	-0.403444
O14	O	0.907142	0.403519	-0.403447
O15	O	1.118828	0.523973	-0.312236
O16	O	1.118676	0.312325	-0.523888
O17	O	1.027468	0.403527	-0.523860
C18	C	0.880215	0.357909	-0.357841
C19	C	0.797669	0.357909	-0.357847
C20	C	1.073077	0.357938	-0.550820
C21	C	1.073107	0.357958	-0.633366
C22	C	1.073196	0.551656	-0.357835
C23	C	1.073208	0.634202	-0.357821
C24	C	0.598217	0.308425	-0.308191
C25	C	0.548798	0.290154	-0.375927
C26	C	0.646539	0.357943	-0.357869
C27	C	0.548877	0.376212	-0.290157
C28	C	0.500553	0.357974	-0.357885
C29	C	0.598206	0.339637	-0.425641
C30	C	0.598289	0.425726	-0.339825
C31	C	0.548892	0.407481	-0.407607
C32	C	0.730637	0.357923	-0.357859
C33	C	0.416457	0.357994	-0.357903
C34	C	1.266872	0.357992	-0.357897
C35	C	1.349418	0.358010	-0.357909
C36	C	1.073181	0.164998	-0.357848
C37	C	1.073312	0.082453	-0.357652
C38	C	1.023612	0.833635	-0.407353
C39	C	1.091367	0.883034	-0.425511
C40	C	1.073245	0.785332	-0.357765
C41	C	1.005527	0.883014	-0.339586
C42	C	1.073274	0.931317	-0.357711
C43	C	1.141036	0.833645	-0.375958
C44	C	1.055150	0.833620	-0.290002
C45	C	1.122952	0.882998	-0.308134
C46	C	1.073227	0.701234	-0.357797
C47	C	1.073300	1.015414	-0.357679
C48	C	1.023557	0.407536	-0.832828
C49	C	1.005459	0.339767	-0.882261
C50	C	1.073180	0.357967	-0.784497
C51	C	1.091314	0.425744	-0.882146
C52	C	1.073249	0.357983	-0.930482
C53	C	1.055046	0.290162	-0.832842
C54	C	1.140933	0.376186	-0.832722
C55	C	1.122861	0.308370	-0.882133
C56	C	1.073138	0.357959	-0.700398
C57	C	1.073291	0.357983	-1.014578
C58	C	1.073277	0.357979	-0.164163
C59	C	1.073324	0.357991	-0.081617
H60	H	0.619875	0.266503	-0.266226
H61	H	0.527060	0.232844	-0.391202
H62	H	1.198184	0.391613	-0.810948
H63	H	0.527370	0.449370	-0.449673
O64	O	1.173152	0.908571	-0.258072
C65	C	1.208585	0.848143	-0.223542
H66	H	1.204657	0.797327	-0.260856
H67	H	1.180429	0.835954	-0.168351
C68	C	1.295455	0.929656	-0.164143
C69	C	1.290636	0.867245	-0.209976
H70	H	1.346067	0.941439	-0.155772
H71	H	1.271582	0.970368	-0.187404
H72	H	1.271987	0.919490	-0.118156
H73	H	1.314095	0.877414	-0.255966
H74	H	1.314515	0.826534	-0.186723
H75	H	0.527169	0.391625	-0.232894
H76	H	1.039807	0.811899	-0.232736
H77	H	0.948195	0.324371	-0.904037
O78	O	0.624067	0.321116	-0.493932
C79	C	0.702173	0.321313	-0.493096
H80	H	0.722631	0.313147	-0.433902
H81	H	0.723342	0.376546	-0.515225
C82	C	0.706130	0.267974	-0.614953
C83	C	0.731258	0.257938	-0.542251
H84	H	0.724072	0.228884	-0.645277
H85	H	0.653509	0.267844	-0.615518
H86	H	0.723773	0.314004	-0.633384
H87	H	0.713607	0.211913	-0.523818
H88	H	0.783877	0.258059	-0.541684
O89	O	1.109498	0.494171	-0.907895
C90	C	1.056985	0.546238	-0.882789
H91	H	1.028685	0.524199	-0.830823
H92	H	1.013748	0.555912	-0.927812
C93	C	1.131013	0.646887	-0.928568
C94	C	1.096260	0.619820	-0.864739
H95	H	1.155239	0.692277	-0.917437
H96	H	1.166391	0.611808	-0.945486
H97	H	1.094977	0.654942	-0.966081
H98	H	1.132297	0.611756	-0.827231
H99	H	1.060889	0.654899	-0.847815
O100	O	0.624214	0.494053	-0.321452
C101	C	0.599111	0.513093	-0.249985
H102	H	0.585218	0.460525	-0.217874
H103	H	0.547469	0.549126	-0.254727
C104	C	0.677279	0.620796	-0.248329
C105	C	0.660221	0.556229	-0.208887
H106	H	0.714973	0.647407	-0.222978
H107	H	0.694190	0.607970	-0.296479
H108	H	0.634239	0.650814	-0.252278
H109	H	0.703258	0.526208	-0.204947
H110	H	0.643319	0.569051	-0.160736
H111	H	0.948246	0.904701	-0.324232
H112	H	1.039669	0.232834	-0.811275
O113	O	0.973669	0.807806	-0.457542
C114	C	0.993035	0.833003	-0.528882
H115	H	1.054638	0.846865	-0.530288
H116	H	0.959514	0.884682	-0.542783
C117	C	0.900593	0.754963	-0.584407
C118	C	0.976256	0.771983	-0.586136
H119	H	0.890240	0.717326	-0.619725
H120	H	0.887543	0.737989	-0.536344
H121	H	0.872668	0.798034	-0.595989
H122	H	1.004179	0.728915	-0.574545
H123	H	0.989310	0.788948	-0.634198
H124	H	1.106690	0.904739	-0.482794
O125	O	1.209338	0.807764	-0.394380
C126	C	1.208494	0.729658	-0.394199
H127	H	1.149305	0.709205	-0.402456
H128	H	1.230580	0.708513	-0.338936
C129	C	1.330391	0.725655	-0.447357
C130	C	1.257694	0.700533	-0.457505
H131	H	1.360742	0.707688	-0.486404
H132	H	1.330962	0.778276	-0.447477
H133	H	1.348786	0.708032	-0.401302
H134	H	1.239297	0.718164	-0.503554
H135	H	1.257122	0.647914	-0.457394
O136	O	1.172866	0.258269	-0.907894
C137	C	1.136188	0.205125	-0.951894
H138	H	1.082170	0.229499	-0.973718
H139	H	1.123631	0.153976	-0.917052
C140	C	1.252401	0.153308	-0.990742
C141	C	1.186058	0.183246	-1.017550
H142	H	1.283163	0.139809	-1.031240
H143	H	1.277112	0.189110	-0.961096
H144	H	1.241927	0.110688	-0.961706
H145	H	1.196532	0.225871	-1.046577
H146	H	1.161350	0.147451	-1.047203
O147	O	0.973323	0.457390	-0.807028
C148	C	0.902002	0.437917	-0.832290
H149	H	0.900649	0.376316	-0.846171
H150	H	0.888079	0.471432	-0.883971
C151	C	0.846393	0.530243	-0.754270
C152	C	0.844729	0.454583	-0.771313
H153	H	0.811064	0.540526	-0.716659
H154	H	0.894444	0.543365	-0.737253
H155	H	0.834792	0.558164	-0.797343
H156	H	0.856339	0.426664	-0.728243
H157	H	0.796679	0.441457	-0.788322
