data_functionalizedCrystal
_audit_creation_method	'MofGen! by Chris Wilmer'
_symmetry_space_group_name_H-M	'P1'
_symmetry_Int_Tables_number	1
_symmetry_cell_setting	triclinic
loop_
_symmetry_equiv_pos_as_xyz
  x,y,z
_cell_length_a	33.592126
_cell_length_b	33.591377
_cell_length_c	33.588093
_cell_angle_alpha	60.004089
_cell_angle_beta	60.008299
_cell_angle_gamma	59.994549
loop_
_atom_site_label
_atom_site_type_symbol
_atom_site_fract_x
_atom_site_fract_y
_atom_site_fract_z
O1	O	0.055297	-0.581666	0.486338
O2	O	0.020882	-0.452873	0.391864
O3	O	0.102445	-0.534352	0.391775
O4	O	-0.026266	-0.500187	0.486427
O5	O	0.129510	-0.507292	0.418747
O6	O	0.047947	-0.425814	0.418835
O7	O	0.082362	-0.554606	0.513309
Cu8	Cu	0.067626	-0.487739	0.468535
Cu9	Cu	0.035618	-0.519740	0.436638
O10	O	0.000799	-0.473128	0.513398
N11	N	0.090139	-0.465235	0.490972
N12	N	0.013110	-0.542249	0.414202
C13	C	0.124394	-0.431229	0.734914
C14	C	0.334265	-0.431145	0.524799
C15	C	0.124204	-0.431200	0.524965
C16	C	0.124184	-0.221175	0.524955
C17	C	0.158017	-0.322536	0.558710
C18	C	0.158027	-0.397406	0.558711
C19	C	0.176763	-0.378688	0.577408
C20	C	0.258412	-0.364594	0.534386
C21	C	0.309454	-0.381596	0.517340
C22	C	0.309485	-0.464188	0.548836
C23	C	0.258444	-0.447186	0.565883
C24	C	0.170304	-0.297002	0.508532
C25	C	0.153260	-0.245956	0.491537
C26	C	0.111648	-0.245983	0.574901
C27	C	0.128691	-0.297029	0.591896
C28	C	0.107841	-0.385091	0.571080
C29	C	0.090813	-0.402108	0.554078
C30	C	0.174153	-0.443755	0.512351
C31	C	0.191183	-0.426739	0.529347
C32	C	0.107923	-0.385106	0.659111
C33	C	0.090955	-0.402138	0.710156
C34	C	0.174335	-0.443795	0.710087
C35	C	0.191302	-0.426764	0.659041
C36	C	0.158095	-0.397418	0.633555
C37	C	0.232909	-0.397388	0.558656
C38	C	0.105069	-0.449619	0.791057
C39	C	0.390406	-0.449193	0.505789
C40	C	0.104813	-0.449599	0.506607
C41	C	0.105125	-0.165028	0.506915
C42	C	-0.020560	-0.576246	0.169890
C43	C	-0.020889	-0.786183	0.379970
C44	C	-0.020859	-0.576235	0.380063
C45	C	-0.230772	-0.576015	0.379658
C46	C	-0.129417	-0.609898	0.346025
C47	C	-0.054587	-0.609979	0.346172
C48	C	-0.073269	-0.628671	0.327396
C49	C	-0.087401	-0.710299	0.370335
C50	C	-0.070424	-0.761345	0.387369
C51	C	0.012165	-0.761428	0.356003
C52	C	-0.004813	-0.710383	0.338967
C53	C	-0.155001	-0.622196	0.396191
C54	C	-0.206043	-0.605128	0.413125
C55	C	-0.205914	-0.563467	0.329724
C56	C	-0.154872	-0.580535	0.312790
C57	C	-0.066886	-0.559797	0.333828
C58	C	-0.049903	-0.542809	0.350903
C59	C	-0.008321	-0.626180	0.392654
C60	C	-0.025304	-0.643170	0.375585
C61	C	-0.066758	-0.559805	0.245702
C62	C	-0.049671	-0.542819	0.194658
C63	C	-0.008026	-0.626194	0.194706
C64	C	-0.025111	-0.643179	0.245752
C65	C	-0.054479	-0.609983	0.271248
C66	C	-0.054597	-0.684821	0.346135
C67	C	-0.002109	-0.556901	0.113746
C68	C	-0.002869	-0.842328	0.398966
C69	C	-0.002496	-0.556887	0.398501
C70	C	-0.286914	-0.556929	0.397631
N71	N	0.436349	-0.465146	0.490703
O72	O	0.592194	-0.469605	0.374236
O73	O	0.592389	-0.564393	0.502890
O74	O	0.592305	-0.564176	0.421300
O75	O	0.592277	-0.469822	0.455826
O76	O	0.511216	-0.537214	0.448415
O77	O	0.511300	-0.537431	0.530004
O78	O	0.511104	-0.442643	0.401350
Cu79	Cu	0.503798	-0.487575	0.468153
Cu80	Cu	0.599695	-0.519461	0.436087
O81	O	0.511188	-0.442860	0.482940
N82	N	0.667145	-0.541890	0.413532
N83	N	0.090108	-0.119085	0.490958
O84	O	-0.026275	0.036848	0.486394
O85	O	0.102381	0.036888	0.391584
O86	O	0.020751	0.036852	0.391854
O87	O	0.055356	0.036884	0.486124
O88	O	0.047821	-0.044242	0.418876
O89	O	0.129452	-0.044207	0.418606
O90	O	0.000796	-0.044246	0.513417
Cu91	Cu	0.067596	-0.051631	0.468479
Cu92	Cu	0.035582	0.044273	0.436522
O93	O	0.082426	-0.044211	0.513146
N94	N	0.013063	0.111726	0.414043
N95	N	0.090453	-0.465282	0.837001
O96	O	0.085913	-0.581648	0.992925
O97	O	-0.008857	-0.452947	0.992970
O98	O	-0.008635	-0.534562	0.992946
O99	O	0.085691	-0.500033	0.992949
O100	O	0.018365	-0.507512	0.911855
O101	O	0.018143	-0.425898	0.911878
O102	O	0.112912	-0.554598	0.911834
Cu103	Cu	0.067993	-0.487778	0.904452
Cu104	Cu	0.036063	-0.519767	1.000352
O105	O	0.112691	-0.472984	0.911857
N106	N	0.013602	-0.542269	1.067803
C107	C	0.031188	-0.423114	0.392334
C108	C	0.132194	-0.524016	0.392223
C109	C	0.072056	-0.584366	0.512840
C110	C	-0.028950	-0.483464	0.512950
C111	C	0.551868	-0.563965	0.532655
C112	C	0.551766	-0.563697	0.431617
C113	C	0.551623	-0.443070	0.371586
C114	C	0.551728	-0.443339	0.472623
C115	C	0.132090	-0.003555	0.392006
C116	C	0.031035	-0.003698	0.392374
C117	C	-0.028947	-0.003703	0.512961
C118	C	0.072143	-0.003661	0.512626
C119	C	-0.008408	-0.423209	0.952430
C120	C	-0.008128	-0.524272	0.952385
C121	C	0.112464	-0.584336	0.952374
C122	C	0.112190	-0.483267	0.952401
H123	H	0.080878	-0.361206	0.638363
C124	C	0.152226	-0.473288	0.952393
C125	C	0.142244	-0.423281	0.952405
C126	C	0.182280	-0.413302	0.952397
C127	C	0.232300	-0.453332	0.952379
C128	C	0.242284	-0.503343	0.952367
C129	C	0.202248	-0.513321	0.952374
H130	H	0.105214	-0.393646	0.952419
H131	H	0.174888	-0.376281	0.952406
H132	H	0.261937	-0.445945	0.952373
H133	H	0.279314	-0.532978	0.952353
H134	H	0.209640	-0.550343	0.952366
H135	H	0.079554	-0.003651	0.542242
H136	H	0.168963	-0.003318	0.362168
C137	C	0.021027	-0.003709	0.352361
C138	C	-0.028983	-0.003728	0.362370
C139	C	-0.038991	-0.003739	0.322357
C140	C	0.001011	-0.003730	0.272334
C141	C	0.051023	-0.003710	0.262322
C142	C	0.061031	-0.003700	0.302335
H143	H	-0.058597	-0.003735	0.399403
H144	H	-0.076014	-0.003753	0.329769
H145	H	-0.006398	-0.003737	0.242713
H146	H	0.080638	-0.003703	0.225289
H147	H	0.098054	-0.003685	0.294923
H148	H	0.551918	-0.593721	0.569607
H149	H	0.551722	-0.413701	0.480010
H150	H	-0.038161	-0.386246	0.952443
H151	H	-0.065895	-0.003715	0.542725
C152	C	-0.048146	-0.534232	0.952337
C153	C	-0.038154	-0.584231	0.952298
C154	C	-0.078172	-0.594191	0.952249
C155	C	-0.128182	-0.554152	0.952241
C156	C	-0.138176	-0.504150	0.952280
C157	C	-0.098158	-0.494190	0.952328
H158	H	-0.001132	-0.613873	0.952304
H159	H	-0.070773	-0.631205	0.952220
H160	H	-0.157806	-0.561525	0.952205
H161	H	-0.175199	-0.474508	0.952273
H162	H	-0.105557	-0.457175	0.952357
H163	H	0.142219	-0.621297	0.952354
H164	H	-0.065919	-0.476185	0.542670
H165	H	0.050098	-0.392105	0.730957
H166	H	0.201378	-0.467681	0.730833
H167	H	0.551560	-0.413310	0.334638
H168	H	0.232159	-0.436796	0.638236
H169	H	0.080840	-0.361208	0.594989
H170	H	0.049948	-0.392069	0.564138
C171	C	0.210629	-0.476020	0.480050
C172	C	0.247386	-0.525248	0.499546
C173	C	0.283864	-0.557511	0.467242
C174	C	0.283585	-0.540544	0.415443
C175	C	0.246827	-0.491313	0.395945
C176	C	0.210348	-0.459051	0.428249
H177	H	0.247593	-0.537810	0.537892
H178	H	0.311075	-0.593955	0.481676
H179	H	0.310588	-0.564427	0.391530
H180	H	0.246619	-0.478751	0.357599
H181	H	0.183138	-0.422607	0.413815
C182	C	0.246394	-0.440255	0.515682
C183	C	0.269490	-0.399862	0.487221
C184	C	0.324703	-0.413366	0.473526
C185	C	0.356821	-0.467264	0.488292
C186	C	0.333725	-0.507661	0.516754
C187	C	0.278512	-0.494157	0.530449
H188	H	0.245715	-0.359960	0.476289
H189	H	0.341800	-0.383461	0.452456
H190	H	0.397693	-0.477261	0.478154
H191	H	0.357501	-0.547563	0.527686
H192	H	0.261415	-0.524062	0.551519
C193	C	0.230389	-0.483261	0.592580
C194	C	0.258478	-0.538036	0.600525
C195	C	0.230424	-0.574112	0.627224
C196	C	0.174280	-0.555413	0.645979
C197	C	0.146187	-0.500635	0.638035
C198	C	0.174242	-0.464559	0.611336
H199	H	0.300042	-0.551881	0.586641
H200	H	0.251220	-0.614662	0.633105
H201	H	0.153512	-0.582118	0.665744
H202	H	0.104623	-0.486790	0.651919
H203	H	0.153445	-0.424009	0.605455
H204	H	0.079411	-0.621363	0.542512
H205	H	0.169160	-0.531297	0.362501
H206	H	0.330218	-0.354891	0.497577
C207	C	0.230325	-0.309817	0.526437
C208	C	0.237298	-0.272696	0.474354
C209	C	0.209210	-0.217918	0.466405
C210	C	0.174148	-0.200260	0.510539
C211	C	0.167172	-0.237382	0.562626
C212	C	0.195261	-0.292160	0.570575
H213	H	0.263255	-0.285767	0.441680
H214	H	0.214374	-0.190438	0.427847
H215	H	0.153355	-0.159710	0.504655
H216	H	0.141216	-0.224311	0.595299
H217	H	0.190097	-0.319640	0.609133
H218	H	0.330277	-0.504737	0.554712
C219	C	0.551781	-0.603743	0.421641
C220	C	0.593863	-0.622763	0.380072
C221	C	0.593878	-0.662809	0.370096
C222	C	0.551812	-0.683834	0.401689
C223	C	0.509727	-0.664813	0.443261
C224	C	0.509711	-0.624767	0.453237
H225	H	0.625006	-0.607200	0.356682
H226	H	0.625033	-0.676889	0.339322
H227	H	0.551823	-0.713478	0.394305
H228	H	0.478583	-0.680377	0.466651
H229	H	0.478557	-0.610687	0.484011
C230	C	0.202558	-0.325061	0.472031
C231	C	0.221305	-0.381209	0.490723
C232	C	0.253559	-0.409268	0.454220
C233	C	0.267066	-0.381179	0.399023
C234	C	0.248318	-0.325028	0.380328
C235	C	0.216064	-0.296969	0.416832
H236	H	0.211307	-0.402005	0.531586
H237	H	0.267437	-0.450835	0.468060
H238	H	0.290942	-0.401950	0.372001
H239	H	0.258316	-0.304232	0.339466
H240	H	0.202186	-0.255402	0.402992
C241	C	0.166774	-0.217863	0.436338
C242	C	0.220671	-0.224859	0.404263
C243	C	0.234186	-0.196767	0.349064
C244	C	0.193804	-0.161679	0.325941
C245	C	0.139904	-0.154682	0.358017
C246	C	0.126389	-0.182774	0.413215
H247	H	0.250567	-0.250834	0.421380
H248	H	0.274087	-0.201947	0.325320
H249	H	0.203809	-0.140883	0.285080
H250	H	0.110008	-0.128706	0.340900
H251	H	0.086488	-0.177594	0.436959
C252	C	0.079397	-0.217918	0.611400
C253	C	0.098975	-0.224932	0.648087
C254	C	0.066725	-0.196867	0.684585
C255	C	0.014896	-0.161788	0.684396
C256	C	-0.004684	-0.154773	0.647708
C257	C	0.027566	-0.182838	0.611210
H258	H	0.137344	-0.250901	0.648227
H259	H	0.081220	-0.202060	0.711744
H260	H	-0.008977	-0.141012	0.711415
H261	H	-0.043053	-0.128804	0.647568
H262	H	0.013071	-0.177645	0.584051
C263	C	0.115178	-0.325122	0.647095
C264	C	0.155560	-0.360209	0.670218
C265	C	0.142045	-0.388301	0.725416
C266	C	0.088149	-0.381306	0.757492
C267	C	0.047763	-0.346217	0.734370
C268	C	0.061278	-0.318125	0.679171
H269	H	0.195461	-0.365389	0.646473
H270	H	0.171942	-0.414276	0.742533
H271	H	0.078144	-0.402101	0.798353
H272	H	0.007863	-0.341037	0.758114
H273	H	0.031382	-0.292149	0.662055
H274	H	-0.090673	-0.532769	0.266460
C275	C	-0.063189	-0.487618	0.166563
C276	C	-0.095494	-0.451108	0.194612
C277	C	-0.109011	-0.395908	0.166515
C278	C	-0.090223	-0.377219	0.110369
C279	C	-0.057915	-0.413731	0.082317
C280	C	-0.044398	-0.468930	0.110414
H281	H	-0.109404	-0.464942	0.236177
H282	H	-0.132927	-0.368880	0.187281
H283	H	-0.100229	-0.336358	0.089570
H284	H	-0.044005	-0.399897	0.040752
H285	H	-0.020482	-0.495958	0.089648
H286	H	-0.015108	-0.684041	0.266548
C287	C	0.024267	-0.662710	0.166664
C288	C	0.037768	-0.717906	0.194766
C289	C	0.070062	-0.754424	0.166724
C290	C	0.088855	-0.735747	0.110578
C291	C	0.075354	-0.680549	0.082472
C292	C	0.043061	-0.644031	0.110515
H293	H	0.023856	-0.731734	0.236331
H294	H	0.080055	-0.795286	0.187530
H295	H	0.112761	-0.762780	0.089819
H296	H	0.089266	-0.666721	0.040907
H297	H	0.033067	-0.603169	0.089709
H298	H	-0.090726	-0.532768	0.309877
H299	H	-0.059919	-0.501948	0.340854
H300	H	0.052703	-0.782242	0.350169
C301	C	0.023893	-0.662692	0.425004
C302	C	0.037421	-0.717888	0.438575
C303	C	0.069634	-0.754402	0.470927
C304	C	0.088319	-0.735720	0.489708
C305	C	0.074791	-0.680520	0.476137
C306	C	0.042578	-0.644006	0.443785
H307	H	0.023589	-0.731721	0.424673
H308	H	0.079648	-0.795265	0.480973
H309	H	0.112165	-0.762749	0.513657
H310	H	0.088623	-0.666688	0.490039
H311	H	0.032564	-0.603144	0.433738
H312	H	-0.015291	-0.684031	0.385637
H313	H	-0.097137	-0.782089	0.407066
C314	C	0.031274	-0.682355	0.312349
C315	C	0.086033	-0.710474	0.304471
C316	C	0.122120	-0.682446	0.277852
C317	C	0.103448	-0.626299	0.259111
C318	C	0.048686	-0.598176	0.266989
C319	C	0.012599	-0.626204	0.293608
H320	H	0.099857	-0.752041	0.318344
H321	H	0.162658	-0.703265	0.272020
H322	H	0.130162	-0.605551	0.239406
H323	H	0.034862	-0.556609	0.253115
H324	H	-0.027939	-0.605385	0.299439
H325	H	-0.134277	-0.646110	0.423254
C326	C	-0.234190	-0.618650	0.468311
C327	C	-0.206191	-0.650946	0.504869
C328	C	-0.234337	-0.664467	0.560054
C329	C	-0.290481	-0.645692	0.578682
C330	C	-0.318483	-0.613394	0.542124
C331	C	-0.290337	-0.599873	0.486938
H332	H	-0.164627	-0.664846	0.491080
H333	H	-0.213608	-0.688376	0.587117
H334	H	-0.311316	-0.655701	0.619534
H335	H	-0.360047	-0.599494	0.555913
H336	H	-0.311066	-0.575964	0.459876
C337	C	-0.233918	-0.531180	0.293168
C338	C	-0.205776	-0.517666	0.237984
C339	C	-0.233779	-0.485382	0.201428
C340	C	-0.289923	-0.466611	0.220055
C341	C	-0.318068	-0.480124	0.275241
C342	C	-0.290065	-0.512409	0.311797
H343	H	-0.164212	-0.531562	0.224193
H344	H	-0.212944	-0.475379	0.160575
H345	H	-0.310652	-0.442712	0.192993
H346	H	-0.359632	-0.466229	0.289032
H347	H	-0.310900	-0.522412	0.352650
C348	C	-0.142162	-0.682181	0.378217
C349	C	-0.159755	-0.647084	0.334043
C350	C	-0.214517	-0.618964	0.341925
C351	C	-0.251686	-0.625942	0.393981
C352	C	-0.234094	-0.661040	0.438158
C353	C	-0.179332	-0.689160	0.430276
H354	H	-0.132240	-0.641918	0.295505
H355	H	-0.227540	-0.592982	0.309221
H356	H	-0.292225	-0.605126	0.399815
H357	H	-0.261609	-0.666207	0.476696
H358	H	-0.166309	-0.715143	0.462980
H359	H	0.023834	-0.386116	0.362662
C360	C	-0.126722	-0.567013	0.257605
C361	C	-0.133674	-0.513113	0.225543
C362	C	-0.105523	-0.499591	0.170359
C363	C	-0.070420	-0.539969	0.147236
C364	C	-0.063466	-0.593872	0.179298
C365	C	-0.091617	-0.607394	0.234482
H366	H	-0.159661	-0.483219	0.242659
H367	H	-0.110671	-0.459688	0.146624
H368	H	-0.049581	-0.529959	0.106385
H369	H	-0.037480	-0.623766	0.162182
H370	H	-0.086469	-0.647298	0.258217
