data_functionalizedCrystal
_audit_creation_method	'MofGen! by Chris Wilmer'
_symmetry_space_group_name_H-M	'P1'
_symmetry_Int_Tables_number	1
_symmetry_cell_setting	triclinic
loop_
_symmetry_equiv_pos_as_xyz
  x,y,z
_cell_length_a	9.065218
_cell_length_b	9.065218
_cell_length_c	9.730223
_cell_angle_alpha	90.001132
_cell_angle_beta	90.003564
_cell_angle_gamma	85.015885
loop_
_atom_site_label
_atom_site_type_symbol
_atom_site_fract_x
_atom_site_fract_y
_atom_site_fract_z
O1	O	1.960400	0.216353	0.114287
O2	O	1.531115	0.234100	0.114289
O3	O	1.754631	0.010584	0.114285
O4	O	1.736884	0.439869	0.114291
O5	O	1.754615	0.010584	-0.114295
O6	O	1.531099	0.234100	-0.114291
O7	O	1.960384	0.216353	-0.114293
Zn8	Zn	1.745739	0.225226	-0.150584
Zn9	Zn	1.745760	0.225226	0.150580
O10	O	1.736868	0.439869	-0.114289
C11	C	1.476120	0.232394	-0.000001
C12	C	1.312277	0.227294	-0.000000
C13	C	1.752917	-0.044403	-0.000003
C14	C	1.747817	-0.208245	0.000004
C15	C	2.015378	0.218059	0.000000
C16	C	2.179221	0.223158	0.000008
C17	C	1.738582	0.494855	0.000002
C18	C	1.743681	0.658698	0.000004
N19	N	1.745735	0.225226	-0.356120
C20	C	1.836420	0.315969	-0.428040
C21	C	1.836444	0.315961	-0.571923
C22	C	1.655087	0.134462	-0.571954
C23	C	1.655071	0.134463	-0.428073
N24	N	1.745775	0.225216	0.356116
H25	H	1.910244	0.389874	-0.369461
O26	O	1.557292	0.036573	-0.649550
H27	H	1.478923	0.106201	-0.715101
H28	H	1.910290	0.389852	-0.630474
O29	O	1.557251	0.036592	-0.350486
H30	H	1.494191	-0.026503	-0.424688
