data_functionalizedCrystal
_audit_creation_method	'MofGen! by Chris Wilmer'
_symmetry_space_group_name_H-M	'P1'
_symmetry_Int_Tables_number	1
_symmetry_cell_setting	triclinic
loop_
_symmetry_equiv_pos_as_xyz
  x,y,z
_cell_length_a	19.077236
_cell_length_b	12.759399
_cell_length_c	19.076919
_cell_angle_alpha	92.278556
_cell_angle_beta	90.112677
_cell_angle_gamma	87.692692
loop_
_atom_site_label
_atom_site_type_symbol
_atom_site_fract_x
_atom_site_fract_y
_atom_site_fract_z
Zn1	Zn	1.058336	0.381377	0.440573
Zn2	Zn	1.062995	0.549745	0.323080
Zn3	Zn	0.945551	0.380826	0.318353
Zn4	Zn	0.940816	0.563762	0.435819
O5	O	1.001925	0.468927	0.379456
O6	O	1.157287	0.398076	0.428955
O7	O	1.051348	0.521241	0.224122
O8	O	0.960544	0.233877	0.334577
O9	O	1.160710	0.521776	0.342633
O10	O	1.043406	0.234281	0.424371
O11	O	0.965062	0.397137	0.220649
O12	O	0.846590	0.410728	0.329967
O13	O	0.952474	0.545665	0.534781
O14	O	0.843111	0.545130	0.416269
O15	O	1.038815	0.411667	0.538274
O16	O	1.046756	0.698627	0.338024
O17	O	0.956992	0.708925	0.420853
C18	C	0.819354	0.479391	0.372090
C19	C	0.741249	0.483894	0.368955
C20	C	0.702770	0.421716	0.412494
C21	C	0.629382	0.425942	0.409543
C22	C	0.594474	0.492351	0.363056
C23	C	0.632958	0.554531	0.319512
C24	C	0.706345	0.550299	0.322460
C25	C	0.375183	0.511896	0.349408
C26	C	0.301791	0.516125	0.346464
C27	C	0.298221	0.387534	0.436495
C28	C	0.371609	0.383313	0.439442
C29	C	0.410086	0.445489	0.395896
N30	N	0.519460	0.496674	0.360039
N31	N	0.485099	0.441159	0.398909
C32	C	1.001884	0.741897	0.379452
C33	C	1.001930	0.858672	0.379476
C34	C	1.048720	0.908138	0.336403
C35	C	1.048766	1.017861	0.336433
C36	C	0.955224	1.028644	0.422612
C37	C	0.955183	0.918923	0.422585
C38	C	1.132716	1.161412	0.314775
C39	C	1.179500	1.210881	0.271691
C40	C	1.193071	1.170430	0.203564
C41	C	1.159848	1.080512	0.178507
C42	C	1.113059	1.031049	0.221588
C43	C	1.099500	1.071498	0.289725
C44	C	0.871233	0.775369	0.444235
C45	C	0.824439	0.725904	0.487313
C46	C	0.810861	0.766353	0.555441
C47	C	0.844072	0.856275	0.580494
C48	C	0.890865	0.905740	0.537417
C49	C	0.904445	0.865283	0.469290
C50	C	1.185208	0.458424	0.386852
C51	C	1.263313	0.453948	0.390003
C52	C	0.994596	0.480291	0.562736
C53	C	0.991473	0.485133	0.640840
C54	C	1.001985	1.194893	0.379489
C55	C	1.002017	1.078117	0.379534
C56	C	1.009265	0.457530	0.196891
C57	C	1.012524	0.452384	0.118793
C58	C	1.034957	0.417646	0.679352
C59	C	1.032014	0.422192	0.752738
C60	C	0.985591	0.494232	0.787610
C61	C	0.942102	0.561722	0.749092
C62	C	0.945042	0.557170	0.675708
C63	C	0.971975	0.515322	1.006891
C64	C	0.969040	0.519872	1.080281
C65	C	1.058951	0.380340	1.083921
C66	C	1.061890	0.375798	1.010535
C67	C	1.018399	0.443285	0.972024
N68	N	0.982583	0.498883	0.862622
N69	N	1.021404	0.438628	0.897013
H70	H	0.406503	0.562525	0.313950
C71	C	1.079863	0.347984	0.795102
H72	H	1.071464	0.361008	0.843802
H73	H	1.127549	0.359934	0.784976
H74	H	1.070088	0.277224	0.782672
H75	H	0.273371	0.570209	0.308608
C76	C	0.748674	0.618693	0.274569
H77	H	0.797380	0.606654	0.282978
H78	H	0.736238	0.690635	0.284288
H79	H	0.738525	0.600965	0.226889
C80	C	1.086023	0.338404	0.640996
H81	H	1.081552	0.345363	0.591774
H82	H	1.075273	0.269149	0.652613
H83	H	1.132753	0.351828	0.654931
C84	C	0.917970	0.599116	1.118639
H85	H	0.892485	0.638650	1.085193
H86	H	0.943694	0.645129	1.148348
H87	H	0.886216	0.562445	1.146034
H88	H	1.099695	0.317139	0.982148
H89	H	0.598056	0.375312	0.444998
H90	H	0.604530	0.608597	0.281658
C91	C	1.106782	0.306105	1.126285
H92	H	1.098380	0.319124	1.174984
H93	H	1.154474	0.318025	1.116165
H94	H	1.096988	0.235354	1.113847
H95	H	1.086786	0.859084	0.301302
H96	H	0.936572	0.570289	0.975544
C97	C	0.886157	0.730885	0.369288
H98	H	0.859664	0.670260	0.360532
H99	H	0.934727	0.712580	0.364594
H100	H	0.873266	0.782375	0.336497
H101	H	0.909626	0.612115	0.644351
C102	C	1.076519	0.932145	0.194035
H103	H	1.091303	0.915134	0.147290
H104	H	1.027130	0.945019	0.194851
H105	H	1.088598	0.875252	0.222963
H106	H	0.904301	0.620374	0.777491
C107	C	0.410006	0.310270	0.490580
H108	H	0.459223	0.316665	0.486106
H109	H	0.398394	0.239713	0.479899
H110	H	0.396096	0.329391	0.537293
H111	H	0.266884	0.336913	0.471947
H112	H	0.731187	0.367642	0.450351
H113	H	1.170896	1.047590	0.123028
H114	H	0.772756	0.726070	0.590513
C115	C	1.244535	1.224841	0.156174
H116	H	1.262379	1.284179	0.180854
H117	H	1.220765	1.246845	0.115163
H118	H	1.282223	1.177065	0.143282
H119	H	1.206550	1.284093	0.292099
C120	C	0.787907	0.626992	0.459754
H121	H	0.802702	0.609974	0.413013
H122	H	0.738518	0.639867	0.460558
H123	H	0.799978	0.570101	0.488688
H124	H	1.121677	1.194349	0.370252
H125	H	0.917164	1.077713	0.457709
H126	H	0.917910	0.978957	0.557823
H127	H	0.833016	0.889210	0.635970
