data_functionalizedCrystal
_audit_creation_method	'MofGen! by Chris Wilmer'
_symmetry_space_group_name_H-M	'P1'
_symmetry_Int_Tables_number	1
_symmetry_cell_setting	triclinic
loop_
_symmetry_equiv_pos_as_xyz
  x,y,z
_cell_length_a	12.594516
_cell_length_b	12.827893
_cell_length_c	12.827885
_cell_angle_alpha	89.980728
_cell_angle_beta	89.971946
_cell_angle_gamma	90.016213
loop_
_atom_site_label
_atom_site_type_symbol
_atom_site_fract_x
_atom_site_fract_y
_atom_site_fract_z
Zn1	Zn	-0.423686	1.597665	-0.590861
Zn2	Zn	-0.601702	1.597557	-0.416127
Zn3	Zn	-0.423738	1.422906	-0.416135
Zn4	Zn	-0.601623	1.422889	-0.590827
O5	O	-0.512687	1.510254	-0.503487
O6	O	-0.447311	1.743887	-0.567693
O7	O	-0.578150	1.574351	-0.269892
O8	O	-0.274786	1.446140	-0.439330
O9	O	-0.578099	1.743807	-0.439317
O10	O	-0.274747	1.574535	-0.567701
O11	O	-0.447400	1.446036	-0.269898
O12	O	-0.447324	1.276668	-0.439297
O13	O	-0.577965	1.446112	-0.737067
O14	O	-0.578016	1.276656	-0.567642
O15	O	-0.447235	1.574519	-0.737093
O16	O	-0.750637	1.574335	-0.439283
O17	O	-0.750580	1.446007	-0.567635
C18	C	-0.512668	1.238744	-0.503468
C19	C	-0.512685	1.122591	-0.503484
C20	C	-0.448082	1.070846	-0.567108
C21	C	-0.448098	0.950795	-0.567126
C22	C	-0.789228	1.510186	-0.503477
C23	C	-0.907534	1.510252	-0.503508
C24	C	-0.976794	1.440448	-0.573269
C25	C	-1.047663	1.414986	-0.477914
C26	C	-1.047464	1.535809	-0.598879
C27	C	-0.976844	1.484740	-0.408102
C28	C	-0.976639	1.605607	-0.529132
C29	C	-1.047476	1.580182	-0.433711
C30	C	-0.235067	1.510352	-0.503521
C31	C	-0.116761	1.510393	-0.503535
C32	C	-0.512585	1.510325	-0.776058
C33	C	-0.512542	1.510356	-0.892211
C34	C	-0.512708	1.782824	-0.503508
C35	C	-0.512717	1.898978	-0.503517
C36	C	-0.447840	1.573902	-0.944008
C37	C	-0.447793	1.573935	-1.064059
C38	C	-0.512712	1.510244	-0.231978
C39	C	-0.512456	1.510416	-0.115825
H40	H	-0.945758	1.381312	-0.632178
H41	H	-0.392477	1.628279	-0.899477
H42	H	-1.078316	1.639273	-0.374660
H43	H	-0.567857	1.456012	-1.071287
N44	N	-0.585870	1.438323	-0.951198
H45	H	-0.661947	1.454502	-0.932256
H46	H	-0.569268	1.363669	-0.932235
N47	N	-0.374817	1.129877	-0.639266
H48	H	-0.385201	1.207269	-0.629035
H49	H	-0.391484	1.110875	-0.713884
N50	N	-0.374836	0.891862	-0.639290
H51	H	-0.385234	0.814456	-0.629076
H52	H	-0.298779	0.910887	-0.623164
N53	N	-1.088567	1.564371	-0.705694
H54	H	-1.062856	1.511537	-0.758317
H55	H	-1.061615	1.635848	-0.725490
N56	N	-0.374419	1.646012	-1.123051
H57	H	-0.384788	1.635820	-1.200448
H58	H	-0.298390	1.629786	-1.104036
N59	N	-0.585990	0.957899	-0.431354
H60	H	-0.635319	1.003199	-0.473773
H61	H	-0.542553	1.003107	-0.383045
N62	N	-0.585965	1.063550	-0.431349
H63	H	-0.662050	1.082484	-0.447433
H64	H	-0.569270	1.082478	-0.356718
H65	H	-0.945951	1.463087	-0.327436
N66	N	-1.088977	1.308253	-0.449196
H67	H	-1.063271	1.255518	-0.501920
H68	H	-1.169158	1.309357	-0.448733
N69	N	-0.935284	1.712315	-0.557862
H70	H	-0.960924	1.731506	-0.629945
H71	H	-0.855104	1.711555	-0.556903
