data_functionalizedCrystal
_audit_creation_method	'MofGen! by Chris Wilmer'
_symmetry_space_group_name_H-M	'P1'
_symmetry_Int_Tables_number	1
_symmetry_cell_setting	triclinic
loop_
_symmetry_equiv_pos_as_xyz
  x,y,z
_cell_length_a	19.805407
_cell_length_b	12.594516
_cell_length_c	19.805399
_cell_angle_alpha	89.978854
_cell_angle_beta	90.017803
_cell_angle_gamma	89.975952
loop_
_atom_site_label
_atom_site_type_symbol
_atom_site_fract_x
_atom_site_fract_y
_atom_site_fract_z
Zn1	Zn	1.034734	0.423843	0.382718
Zn2	Zn	1.534734	0.923843	0.882718
Zn3	Zn	1.034648	0.601836	0.269542
Zn4	Zn	1.534648	1.101836	0.769542
Zn5	Zn	0.921549	0.423864	0.269546
Zn6	Zn	1.421549	0.923864	0.769546
Zn7	Zn	0.921512	0.601772	0.382693
Zn8	Zn	1.421512	1.101772	0.882693
O9	O	0.978111	0.512829	0.326125
O10	O	1.478111	1.012829	0.826125
O11	O	1.129439	0.447473	0.367714
O12	O	1.629439	0.947473	0.867714
O13	O	1.019625	0.578264	0.174826
O14	O	1.519625	1.078264	0.674826
O15	O	0.936615	0.274915	0.284571
O16	O	1.436615	0.774915	0.784571
O17	O	1.129376	0.578244	0.284564
O18	O	1.629376	1.078244	0.784564
O19	O	1.019771	0.274900	0.367718
O20	O	1.519771	0.774900	0.867718
O21	O	0.936531	0.447508	0.174829
O22	O	1.436531	0.947508	0.674829
O23	O	0.826827	0.447446	0.284546
O24	O	1.326827	0.947446	0.784546
O25	O	0.936551	0.578133	0.477413
O26	O	1.436551	1.078133	0.977413
O27	O	0.826800	0.578153	0.367674
O28	O	1.326800	1.078153	0.867674
O29	O	1.019735	0.447410	0.477431
O30	O	1.519735	0.947410	0.977431
O31	O	1.019589	0.750774	0.284540
O32	O	1.519589	1.250774	0.784540
O33	O	0.936468	0.750726	0.367671
O34	O	1.436468	1.250726	0.867671
C35	C	0.802255	0.512795	0.326108
C36	C	1.302255	1.012795	0.826108
C37	C	0.727023	0.512807	0.326117
C38	C	1.227023	1.012807	0.826117
C39	C	0.978034	0.789370	0.326117
C40	C	1.478034	1.289370	0.826117
C41	C	0.978063	0.907675	0.326136
C42	C	1.478063	1.407675	0.826136
C43	C	0.691712	0.444835	0.369479
C44	C	1.191712	0.944835	0.869479
C45	C	0.621024	0.444840	0.369482
C46	C	1.121024	0.944840	0.869482
C47	C	0.585647	0.512824	0.326125
C48	C	1.085647	1.012824	0.826125
C49	C	0.620963	0.580799	0.282759
C50	C	1.120963	1.080799	0.782759
C51	C	0.691650	0.580787	0.282753
C52	C	1.191650	1.080787	0.782753
C53	C	0.335889	0.580847	0.282780
C54	C	0.835889	1.080847	0.782780
C55	C	0.265197	0.580856	0.282790
C56	C	0.765197	1.080856	0.782790
C57	C	0.265263	0.444900	0.369508
C58	C	0.765263	0.944900	0.869508
C59	C	0.335950	0.444888	0.369503
C60	C	0.835950	0.944888	0.869503
C61	C	0.371260	0.512859	0.326134
C62	C	0.871260	1.012859	0.826134
C63	C	0.447908	0.512851	0.326130
C64	C	0.947908	1.012851	0.826130
C65	C	0.509000	0.512839	0.326132
C66	C	1.009000	1.012839	0.826132
C67	C	0.932840	0.976941	0.371319
C68	C	1.432840	1.476941	0.871319
C69	C	0.916343	1.047796	0.309557
C70	C	1.416343	1.547796	0.809557
C71	C	0.994596	1.047619	0.387908
C72	C	1.494596	1.547619	0.887908
C73	C	0.961533	0.976972	0.264342
C74	C	1.461533	1.476972	0.764342
C75	C	1.039815	0.976789	0.342734
C76	C	1.539815	1.476789	0.842734
C77	C	1.023341	1.047612	0.280930
C78	C	1.523341	1.547612	0.780930
C79	C	1.154653	0.512863	0.326142
C80	C	1.654653	1.012863	0.826142
C81	C	1.229885	0.512878	0.326149
C82	C	1.729885	1.012878	0.826149
C83	C	0.978149	0.512762	0.502668
C84	C	1.478149	1.012762	1.002668
C85	C	0.978165	0.512733	0.577900
C86	C	1.478165	1.012733	1.077900
C87	C	0.978177	1.235208	0.326146
C88	C	1.478177	1.735208	0.826146
C89	C	0.978129	1.116903	0.326153
C90	C	1.478129	1.616903	0.826153
C91	C	0.978112	0.512819	0.150269
C92	C	1.478112	1.012819	0.650269
C93	C	0.978227	0.512548	0.075037
C94	C	1.478227	1.012548	0.575037
C95	C	1.021480	0.444662	0.613254
C96	C	1.521480	0.944662	1.113254
C97	C	1.021487	0.444631	0.683943
C98	C	1.521487	0.944631	1.183943
C99	C	0.978182	0.512678	0.719275
C100	C	1.478182	1.012678	1.219275
C101	C	0.934862	0.580752	0.683915
C102	C	1.434862	1.080752	1.183915
C103	C	0.934852	0.580776	0.613228
C104	C	1.434852	1.080776	1.113228
C105	C	0.934900	0.580652	0.968989
C106	C	1.434900	1.080652	1.468989
C107	C	0.934915	0.580625	1.039681
C108	C	1.434915	1.080625	1.539681
C109	C	1.021535	0.444507	1.039704
C110	C	1.521535	0.944507	1.539704
C111	C	1.021525	0.444532	0.969016
C112	C	1.521525	0.944532	1.469016
C113	C	0.978203	0.512602	0.933663
C114	C	1.478203	1.012602	1.433663
C115	C	0.978195	0.512633	0.857014
C116	C	1.478195	1.012633	1.357014
C117	C	0.978193	0.512653	0.795922
C118	C	1.478193	1.012653	1.295922
H119	H	0.720510	0.389477	0.404787
H120	H	1.220510	0.889477	0.904787
O121	O	0.882108	0.935822	0.421855
O122	O	1.382108	1.435822	0.921855
H123	H	0.895335	0.965341	0.472971
H124	H	1.395335	1.465341	0.972971
H125	H	1.091994	0.945579	0.356788
H126	H	1.591994	1.445579	0.856788
H127	H	1.056791	0.389125	0.940252
H128	H	1.556791	0.889125	1.440252
O129	O	0.227040	0.654172	0.236015
O130	O	0.727040	1.154172	0.736015
H131	H	0.240597	0.737734	0.247519
H132	H	0.740597	1.237734	0.747519
O133	O	0.888159	0.654069	0.930885
O134	O	1.388159	1.154069	1.430885
H135	H	0.918404	0.708257	0.898669
H136	H	1.418404	1.208257	1.398669
H137	H	0.899648	0.636038	1.068446
H138	H	1.399648	1.136038	1.568446
H139	H	0.236506	0.389551	0.404819
H140	H	0.736506	0.889551	0.904819
H141	H	0.864152	1.079009	0.295533
H142	H	1.364152	1.579009	0.795533
O143	O	1.068244	0.371054	1.077834
O144	O	1.568244	0.871054	1.577834
H145	H	1.060968	0.382447	1.132923
H146	H	1.560968	0.882447	1.632923
H147	H	0.899574	0.636196	0.584443
H148	H	1.399574	1.136196	1.084443
O149	O	0.888148	0.654141	0.722019
O150	O	1.388148	1.154141	1.222019
H151	H	0.895434	0.642695	0.777112
H152	H	1.395434	1.142695	1.277112
H153	H	0.947515	0.946068	0.212095
H154	H	1.447515	1.446068	0.712095
O155	O	1.013092	1.088723	0.457095
O156	O	1.513092	1.588723	0.957095
H157	H	0.975444	1.060418	0.494491
H158	H	1.475444	1.560418	0.994491
H159	H	1.056746	0.389254	0.584492
H160	H	1.556746	0.889254	1.084492
H161	H	0.592277	0.389493	0.404793
H162	H	1.092277	0.889493	0.904793
O163	O	1.068209	0.371219	0.722079
O164	O	1.568209	0.871219	1.222079
H165	H	1.098326	0.323918	0.685634
H166	H	1.598326	0.823918	1.185634
H167	H	0.364750	0.389532	0.404810
H168	H	0.864750	0.889532	0.904810
O169	O	1.074040	1.088462	0.230274
O170	O	1.574040	1.588462	0.730274
H171	H	1.047774	1.138149	0.192134
H172	H	1.547774	1.638149	0.692134
O173	O	0.373970	0.654151	0.236004
O174	O	0.873970	1.154151	0.736004
H175	H	0.337493	0.701429	0.205861
H176	H	0.837493	1.201429	0.705861
O177	O	0.582812	0.654125	0.235992
O178	O	1.082812	1.154125	0.735992
H179	H	0.527726	0.642722	0.243284
H180	H	1.027726	1.142722	0.743284
H181	H	0.720399	0.636137	0.247443
H182	H	1.220399	1.136137	0.747443
