data_functionalizedCrystal
_audit_creation_method	'MofGen! by Chris Wilmer'
_symmetry_space_group_name_H-M	'P1'
_symmetry_Int_Tables_number	1
_symmetry_cell_setting	triclinic
loop_
_symmetry_equiv_pos_as_xyz
  x,y,z
_cell_length_a	17.640280
_cell_length_b	13.032831
_cell_length_c	13.032268
_cell_angle_alpha	90.886977
_cell_angle_beta	92.705783
_cell_angle_gamma	109.622935
loop_
_atom_site_label
_atom_site_type_symbol
_atom_site_fract_x
_atom_site_fract_y
_atom_site_fract_z
Zn1	Zn	-0.537275	-1.657819	0.657580
Zn2	Zn	-0.655808	-1.714714	0.458408
Zn3	Zn	-0.504041	-1.497821	0.471445
Zn4	Zn	-0.651506	-1.519686	0.609520
O5	O	-0.587158	-1.597510	0.549239
O6	O	-0.568708	-1.813945	0.645817
O7	O	-0.623567	-1.700603	0.318999
O8	O	-0.397129	-1.486083	0.521706
O9	O	-0.655793	-1.855746	0.499486
O10	O	-0.421546	-1.603633	0.658459
O11	O	-0.512065	-1.541252	0.328577
O12	O	-0.507894	-1.352142	0.475104
O13	O	-0.648462	-1.523350	0.757034
O14	O	-0.616236	-1.368206	0.576547
O15	O	-0.564537	-1.624835	0.792344
O16	O	-0.766558	-1.721805	0.452884
O17	O	-0.763397	-1.578519	0.563905
C18	C	-0.557992	-1.321649	0.522026
C19	C	-0.545536	-1.203638	0.510403
C20	C	-0.793847	-1.658735	0.501790
C21	C	-0.882282	-1.685021	0.481534
C22	C	-0.609727	-1.570185	0.812308
C23	C	-0.619344	-1.558541	0.924413
C24	C	-1.164984	-1.398216	0.703527
C25	C	-1.248080	-1.422921	0.684462
C26	C	-1.251326	-1.572195	0.568994
C27	C	-1.168229	-1.547506	0.588054
C28	C	-1.125064	-1.460514	0.655320
C29	C	-1.128309	-1.609804	0.539846
C30	C	-1.045219	-1.585113	0.558900
C31	C	-1.002048	-1.498123	0.626161
C32	C	-1.041974	-1.435823	0.674374
C33	C	-1.171474	-1.696791	0.472575
C34	C	-1.131554	-1.759089	0.424368
C35	C	-1.048463	-1.734403	0.443427
C36	C	-1.005293	-1.647414	0.510688
C37	C	-1.008537	-1.796704	0.395214
C38	C	-0.925447	-1.772013	0.414268
C39	C	-0.922202	-1.622722	0.529741
C40	C	-0.379666	-1.536072	0.596898
C41	C	-0.291246	-1.509891	0.617207
C42	C	-0.616437	-1.874448	0.576558
C43	C	-0.628915	-1.992462	0.588200
C44	C	-0.593658	-1.159034	0.555304
C45	C	-0.580786	-1.037063	0.543293
C46	C	-0.564625	-1.624773	0.287212
C47	C	-0.554805	-1.636556	0.175179
C48	C	-0.582108	-1.603562	0.991863
C49	C	-0.592047	-1.591528	1.107729
H50	H	-0.934389	-1.478015	0.641666
H51	H	-1.166710	-1.829915	0.369596
H52	H	-1.043693	-1.867525	0.340438
O53	O	-0.520165	-0.974907	0.486956
C54	C	-0.445638	-0.976146	0.529975
H55	H	-0.451830	-0.997187	0.614446
H56	H	-0.426874	-1.039835	0.487011
C57	C	-0.373603	-0.837199	0.417152
C58	C	-0.381207	-0.863033	0.520902
H59	H	-0.333858	-0.767428	0.411551
H60	H	-0.423813	-0.836366	0.388165
H61	H	-0.357970	-0.890281	0.381360
H62	H	-0.396850	-0.809958	0.556689
H63	H	-0.330998	-0.863854	0.549894
O64	O	-0.484955	-1.141625	0.453934
C65	C	-0.442724	-1.206787	0.414494
H66	H	-0.451852	-1.280772	0.464163
H67	H	-0.466417	-1.235090	0.332315
C68	C	-0.341048	-1.048920	0.354323
C69	C	-0.352253	-1.139786	0.415332
H70	H	-0.285241	-1.007591	0.354835
H71	H	-0.369501	-1.005020	0.380890
H72	H	-0.360797	-1.072520	0.285846
H73	H	-0.332513	-1.116185	0.483809
H74	H	-0.323794	-1.183681	0.388776
O75	O	-0.654085	-1.221272	0.611861
C76	C	-0.621190	-1.265226	0.693764
H77	H	-0.559545	-1.267517	0.673780
H78	H	-0.614487	-1.212248	0.766340
C79	C	-0.753298	-1.378894	0.736732
C80	C	-0.677587	-1.381717	0.712184
H81	H	-0.788088	-1.450750	0.748098
H82	H	-0.775462	-1.349279	0.681555
H83	H	-0.747702	-1.334741	0.797210
H84	H	-0.683184	-1.425859	0.651700
H85	H	-0.655426	-1.411343	0.767351
H86	H	-0.679643	-1.044566	0.635544
O87	O	-0.535234	-1.660031	0.958312
C88	C	-0.472261	-1.590648	0.903220
H89	H	-0.490471	-1.520104	0.873161
H90	H	-0.415526	-1.557353	0.956156
C91	C	-0.433145	-1.741770	0.849059
C92	C	-0.455514	-1.655132	0.812132
H93	H	-0.422812	-1.781546	0.792875
H94	H	-0.475569	-1.788515	0.886179
H95	H	-0.385869	-1.714011	0.893172
H96	H	-0.502795	-1.682892	0.768031
H97	H	-0.413097	-1.608393	0.775003
H98	H	-1.129839	-1.327385	0.758311
H99	H	-0.892944	-1.822742	0.375011
H100	H	-0.658576	-1.511079	0.952446
O101	O	-0.638863	-1.534992	1.141327
C102	C	-0.638357	-1.535550	1.249535
H103	H	-0.622178	-1.608298	1.277890
H104	H	-0.591885	-1.456942	1.282957
C105	C	-0.742305	-1.454725	1.249455
C106	C	-0.722440	-1.544081	1.284281
H107	H	-0.794170	-1.459982	1.270890
H108	H	-0.742645	-1.454345	1.176554
H109	H	-0.703572	-1.389227	1.277310
H110	H	-0.761167	-1.609575	1.256416
H111	H	-0.722109	-1.544472	1.357179
H112	H	-1.280582	-1.372195	0.723737
H113	H	-1.239132	-1.716894	0.457066
O114	O	-1.000140	-1.351393	0.739854
C115	C	-1.031469	-1.370120	0.838032
H116	H	-1.096272	-1.428621	0.830349
H117	H	-0.993356	-1.407257	0.888146
C118	C	-0.950042	-1.189531	0.897397
C119	C	-1.029638	-1.261376	0.887959
H120	H	-0.948910	-1.122453	0.928197
H121	H	-0.928933	-1.176915	0.831253
H122	H	-0.918291	-1.220492	0.939156
H123	H	-1.061385	-1.230421	0.846191
H124	H	-1.050753	-1.273984	0.954097
H125	H	-0.515559	-1.684006	1.147154
H126	H	-0.887057	-1.551892	0.584525
H127	H	-1.286481	-1.643021	0.514223
