data_functionalizedCrystal
_audit_creation_method	'MofGen! by Chris Wilmer'
_symmetry_space_group_name_H-M	'P1'
_symmetry_Int_Tables_number	1
_symmetry_cell_setting	triclinic
loop_
_symmetry_equiv_pos_as_xyz
  x,y,z
_cell_length_a	12.759401
_cell_length_b	16.959453
_cell_length_c	12.759393
_cell_angle_alpha	90.033999
_cell_angle_beta	90.019676
_cell_angle_gamma	90.025248
loop_
_atom_site_label
_atom_site_type_symbol
_atom_site_fract_x
_atom_site_fract_y
_atom_site_fract_z
Zn1	Zn	1.606192	-0.314634	0.593959
Zn2	Zn	1.606053	-0.446834	0.418268
Zn3	Zn	1.430491	-0.314674	0.418298
Zn4	Zn	1.430452	-0.446776	0.593910
O5	O	1.518297	-0.380729	0.506109
O6	O	1.753195	-0.332178	0.570662
O7	O	1.582722	-0.429343	0.271251
O8	O	1.453873	-0.204058	0.441633
O9	O	1.753092	-0.429305	0.441583
O10	O	1.582960	-0.204029	0.570690
O11	O	1.453738	-0.332246	0.271273
O12	O	1.283465	-0.332190	0.441585
O13	O	1.453807	-0.429206	0.740937
O14	O	1.283436	-0.429245	0.570606
O15	O	1.582922	-0.332122	0.740974
O16	O	1.582684	-0.557437	0.441535
O17	O	1.453671	-0.557394	0.570577
C18	C	1.245330	-0.380716	0.506094
C19	C	1.128553	-0.380729	0.506113
C20	C	1.073745	-0.330247	0.573428
C21	C	0.964021	-0.330255	0.573435
C22	C	0.963922	-0.431234	0.438808
C23	C	1.073644	-0.431221	0.438797
C24	C	0.814123	-0.237086	0.611211
C25	C	0.759312	-0.186611	0.678542
C26	C	0.794973	-0.174564	0.781082
C27	C	0.885445	-0.213003	0.816310
C28	C	0.940250	-0.263485	0.748985
C29	C	0.904591	-0.275517	0.646430
C30	C	1.223544	-0.524391	0.401032
C31	C	1.278352	-0.574877	0.333710
C32	C	1.242693	-0.586932	0.231169
C33	C	1.152218	-0.548506	0.195944
C34	C	1.097410	-0.498021	0.263265
C35	C	1.133077	-0.485964	0.365806
C36	C	1.518186	-0.586096	0.506070
C37	C	1.518235	-0.673952	0.506089
C38	C	1.451031	-0.715233	0.573228
C39	C	1.585492	-0.715225	0.438973
C40	C	1.585544	-0.797771	0.438992
C41	C	1.518340	-0.839052	0.506131
C42	C	1.451083	-0.797787	0.573251
C43	C	1.652806	-0.839042	0.371881
C44	C	1.652862	-0.921593	0.371898
C45	C	1.585652	-0.962875	0.439033
C46	C	1.518392	-0.921605	0.506155
C47	C	1.451188	-0.962886	0.573294
C48	C	1.383922	-0.921617	0.640411
C49	C	1.383873	-0.839069	0.640386
C50	C	1.585700	-1.045424	0.439058
C51	C	1.451240	-1.045440	0.573317
C52	C	1.792330	-0.380744	0.506124
C53	C	1.909107	-0.380750	0.506131
C54	C	1.518376	-0.380653	0.780142
C55	C	1.518409	-0.380621	0.896919
C56	C	1.518437	-0.174561	0.506171
C57	C	1.518496	-0.086704	0.506197
C58	C	1.518279	-0.380748	0.233141
C59	C	1.518449	-0.380558	0.116365
C60	C	1.585645	-0.330062	0.951802
C61	C	1.585663	-0.330028	1.061526
C62	C	1.451206	-0.431119	1.061475
C63	C	1.451184	-0.431149	0.951753
C64	C	1.623297	-0.236770	1.211511
C65	C	1.690548	-0.186217	1.266397
C66	C	1.793064	-0.174098	1.230804
C67	C	1.828349	-0.212543	1.140327
C68	C	1.761102	-0.263101	1.085446
C69	C	1.658572	-0.275205	1.121037
C70	C	1.413561	-0.524408	0.801766
C71	C	1.346319	-0.574971	0.746883
C72	C	1.243802	-0.587098	0.782474
C73	C	1.208521	-0.548667	0.872955
C74	C	1.275763	-0.498104	0.927837
C75	C	1.378279	-0.485976	0.892239
H76	H	1.023740	-0.466733	0.234577
H77	H	1.707633	-0.955187	0.317246
H78	H	1.329209	-0.955239	0.695081
H79	H	1.123179	-0.558326	0.112448
H80	H	1.118449	-0.289130	0.628237
O81	O	1.512717	-0.249828	1.249897
H82	H	1.471875	-0.291432	1.196527
H83	H	1.789832	-0.294405	1.011785
O84	O	1.037829	-0.304940	0.786960
H85	H	1.053425	-0.288082	0.869577
O86	O	1.384354	-0.616386	0.649257
H87	H	1.320370	-0.653575	0.617068
H88	H	0.919202	-0.472344	0.384003
H89	H	1.640474	-1.079021	0.384418
O90	O	1.237704	-0.456644	1.025421
H91	H	1.287354	-0.474072	1.092985
O92	O	1.658140	-0.275561	0.892654
H93	H	1.704888	-0.240393	0.949256
O94	O	1.301806	-0.641383	0.158551
H95	H	1.370711	-0.666081	0.200266
O96	O	1.938932	-0.199482	1.101954
H97	H	1.936763	-0.174411	1.021647
H98	H	1.329109	-0.805463	0.695031
O99	O	1.725289	-0.794515	0.299478
H100	H	1.772079	-0.837078	0.252821
H101	H	1.352032	-0.606155	0.362394
H102	H	1.189058	-0.628278	0.737784
O103	O	1.262001	-0.511389	0.511638
H104	H	1.334109	-0.546602	0.524828
H105	H	1.396261	-0.681630	0.627871
H106	H	1.847821	-0.132936	1.275501
O107	O	1.378756	-1.089964	0.645734
H108	H	1.331984	-1.047398	0.692402
H109	H	1.661810	-0.154915	1.340064
O110	O	1.097943	-0.561736	0.911344
H111	H	1.086323	-0.625235	0.928884
O112	O	0.923909	-0.200014	0.926912
H113	H	0.870606	-0.158448	0.967807
O114	O	0.735867	-0.120117	0.853705
H115	H	0.666974	-0.095409	0.811981
H116	H	1.640213	-0.681611	0.384316
H117	H	1.396476	-0.472259	1.106134
H118	H	0.685650	-0.155313	0.649849
O119	O	1.524144	-0.511330	0.763390
H120	H	1.521974	-0.486259	0.683084
O121	O	0.775672	-0.250071	0.500603
H122	H	0.703550	-0.214869	0.487429
