data_functionalizedCrystal
_audit_creation_method	'MofGen! by Chris Wilmer'
_symmetry_space_group_name_H-M	'P1'
_symmetry_Int_Tables_number	1
_symmetry_cell_setting	triclinic
loop_
_symmetry_equiv_pos_as_xyz
  x,y,z
_cell_length_a	22.610064
_cell_length_b	16.109301
_cell_length_c	16.109301
_cell_angle_alpha	96.538519
_cell_angle_beta	89.994133
_cell_angle_gamma	90.012563
loop_
_atom_site_label
_atom_site_type_symbol
_atom_site_fract_x
_atom_site_fract_y
_atom_site_fract_z
O1	O	-0.049149	-1.103145	0.106865
O2	O	-0.049159	-0.861083	0.120165
O3	O	-0.049148	-0.988764	-0.007516
O4	O	-0.049160	-0.975464	0.234546
O5	O	0.049222	-0.988726	-0.007516
O6	O	0.049211	-0.861046	0.120164
O7	O	0.049220	-1.103108	0.106865
Zn8	Zn	0.064834	-0.982071	0.113515
Zn9	Zn	-0.064772	-0.982120	0.113515
O10	O	0.049209	-0.975427	0.234546
C11	C	0.000025	-0.830090	0.119626
C12	C	0.000021	-0.737794	0.118011
N13	N	0.153286	-0.982043	0.113514
N14	N	-0.153225	-0.982154	0.113509
C15	C	0.561927	-1.032529	0.163947
C16	C	0.623847	-1.032540	0.163945
O17	O	0.655865	-1.075432	0.206820
N18	N	0.654823	-0.982136	0.113505
C19	C	0.623876	-0.931725	0.063058
O20	O	0.655910	-0.888854	0.020155
C21	C	0.561958	-0.931719	0.063056
C22	C	0.530984	-0.982120	0.113506
C23	C	0.530954	-1.082927	0.214392
C24	C	0.469038	-1.082915	0.214395
C25	C	0.438096	-1.032506	0.163953
C26	C	0.469069	-0.982108	0.113509
C27	C	0.531012	-0.881313	0.012605
C28	C	0.469089	-0.881313	0.012607
C29	C	0.438116	-0.931713	0.063057
C30	C	0.376211	-0.931687	0.063070
N31	N	0.345234	-0.982091	0.113510
C32	C	0.376177	-1.032500	0.163951
C33	C	0.753910	-0.931741	0.063065
C34	C	0.815828	-0.931741	0.063070
C35	C	0.815794	-1.032558	0.163956
C36	C	0.753875	-1.032552	0.163955
C37	C	0.722934	-0.982145	0.113504
C38	C	0.246149	-1.032471	0.163954
C39	C	0.184228	-1.032452	0.163955
C40	C	0.184268	-0.931640	0.063067
C41	C	0.246183	-0.931655	0.063068
C42	C	0.277123	-0.982077	0.113515
O43	O	0.344153	-0.888820	0.020215
O44	O	0.344136	-1.075372	0.206840
C45	C	0.000037	-0.988206	-0.038491
C46	C	0.000038	-0.986591	-0.130786
C47	C	0.000035	-1.134101	0.107404
C48	C	0.000035	-1.226397	0.109019
C49	C	0.000024	-0.515522	0.190018
C50	C	0.000028	-0.428801	0.188494
C51	C	0.000034	-0.448676	0.037006
C52	C	0.000034	-0.535394	0.038530
C53	C	0.000026	-0.568815	0.115039
C54	C	0.000030	-0.395376	0.111990
C55	C	0.000034	-0.301350	0.110337
C56	C	0.000023	-0.662847	0.116693
C57	C	0.000032	-1.058599	-0.353059
C58	C	0.000027	-1.057075	-0.439779
C59	C	0.000023	-0.905586	-0.419905
C60	C	0.000024	-0.907111	-0.333186
C61	C	0.000031	-0.983620	-0.299766
C62	C	0.000025	-0.980571	-0.473205
C63	C	0.000020	-0.978918	-0.567231
C64	C	0.000035	-0.985273	-0.205734
C65	C	0.000023	-0.975984	0.265521
C66	C	0.000018	-0.977600	0.357816
H67	H	0.159013	-1.073494	0.205041
H68	H	0.000026	-1.118130	-0.483168
C69	C	0.684237	-1.037708	0.275789
C70	C	0.719833	-1.087957	0.219407
H71	H	0.663227	-1.071917	0.310026
H72	H	0.656944	-1.007700	0.245747
H73	H	0.708402	-0.999438	0.309840
H74	H	0.695668	-1.126224	0.185352
H75	H	0.747129	-1.117979	0.249451
H76	H	0.159063	-0.890595	0.022001
C77	C	0.885400	-1.144388	0.169167
C78	C	0.849811	-1.087981	0.219396
H79	H	0.906399	-1.178605	0.203392
H80	H	0.912704	-1.114366	0.139134
H81	H	0.861232	-1.178458	0.130919
H82	H	0.873981	-1.053907	0.257640
H83	H	0.822505	-1.118005	0.249443
C84	C	0.885480	-0.819925	0.057833
C85	C	0.849869	-0.876332	0.007622
H86	H	0.906490	-0.785716	0.023596
H87	H	0.912772	-0.849947	0.087861
H88	H	0.861325	-0.785847	0.096086
H89	H	0.874025	-0.910414	-0.030626
H90	H	0.822573	-0.846307	-0.022420
C91	C	0.315845	-0.819844	0.057825
C92	C	0.280230	-0.876247	0.007619
H93	H	0.336857	-0.785638	0.023586
H94	H	0.343137	-0.849868	0.087852
H95	H	0.291693	-0.785762	0.096079
H96	H	0.304382	-0.910333	-0.030632
H97	H	0.252935	-0.846220	-0.022422
C98	C	0.600551	-1.194766	0.219642
C99	C	0.564957	-1.138343	0.269845
H100	H	0.621536	-1.228980	0.253883
H101	H	0.627866	-1.164756	0.189615
H102	H	0.576388	-1.228837	0.181388
H103	H	0.589121	-1.104268	0.308095
H104	H	0.537639	-1.168356	0.299885
C105	C	0.000039	-0.677155	-0.026395
C106	C	0.000036	-0.593983	-0.043892
H107	H	0.000045	-0.713323	-0.077277
H108	H	-0.034264	-0.687289	0.004973
H109	H	0.034344	-0.687262	0.004977
H110	H	-0.034272	-0.583875	-0.075259
H111	H	0.034342	-0.583845	-0.075273
C112	C	0.000028	-0.835984	-0.544015
C113	C	0.000024	-0.821490	-0.456644
H114	H	0.000033	-0.784064	-0.566692
H115	H	-0.034274	-0.866858	-0.562302
H116	H	0.034333	-0.866847	-0.562303
H117	H	-0.034285	-0.790632	-0.438355
H118	H	0.034329	-0.790603	-0.438350
H119	H	0.000036	-1.120897	-0.325851
C120	C	0.760173	-0.832077	-0.036646
C121	C	0.719902	-0.876315	0.007617
H122	H	0.739179	-0.797857	-0.070872
H123	H	0.784315	-0.870352	-0.070701
H124	H	0.784329	-0.798009	0.001620
H125	H	0.695748	-0.910388	-0.030649
H126	H	0.695750	-0.838035	0.041676
C127	C	-0.050544	-0.778471	-0.289541
C128	C	0.000023	-0.824686	-0.274601
H129	H	-0.050543	-0.727586	-0.253376
H130	H	-0.084840	-0.809854	-0.279405
H131	H	-0.050538	-0.766618	-0.345972
H132	H	0.000014	-0.836544	-0.218171
H133	H	0.034329	-0.793296	-0.284730
C134	C	0.239879	-1.132114	0.263685
C135	C	0.280152	-1.087890	0.219411
H136	H	0.260872	-1.166320	0.297927
H137	H	0.215726	-1.166187	0.225432
H138	H	0.215734	-1.093824	0.297734
H139	H	0.304294	-1.126180	0.185357
H140	H	0.304315	-1.053814	0.257668
H141	H	0.000043	-0.421454	-0.025285
H142	H	0.443825	-1.123960	0.255472
H143	H	0.556220	-0.840273	-0.028477
H144	H	0.000023	-0.542730	0.252317
C145	C	0.475347	-0.781664	-0.087119
C146	C	0.435079	-0.825897	-0.042846
H147	H	0.454350	-0.747448	-0.121347
H148	H	0.499488	-0.819941	-0.121174
H149	H	0.499505	-0.747591	-0.048859
H150	H	0.410924	-0.859974	-0.081107
H151	H	0.410928	-0.787615	-0.008789
H152	H	0.000028	-0.385413	0.249550
