data_functionalizedCrystal
_audit_creation_method	'MofGen! by Chris Wilmer'
_symmetry_space_group_name_H-M	'P1'
_symmetry_Int_Tables_number	1
_symmetry_cell_setting	triclinic
loop_
_symmetry_equiv_pos_as_xyz
  x,y,z
_cell_length_a	23.532355
_cell_length_b	23.532407
_cell_length_c	9.565339
_cell_angle_alpha	90.012167
_cell_angle_beta	89.997186
_cell_angle_gamma	82.838088
loop_
_atom_site_label
_atom_site_type_symbol
_atom_site_fract_x
_atom_site_fract_y
_atom_site_fract_z
O1	O	0.755277	0.068997	0.116084
O2	O	1.255277	0.568997	0.616084
O3	O	0.589410	0.079031	0.116130
O4	O	1.089410	0.579031	0.616130
O5	O	0.677345	-0.008919	0.116080
O6	O	1.177345	0.491081	0.616080
O7	O	0.667342	0.156946	0.116134
O8	O	1.167342	0.656946	0.616134
O9	O	0.677341	-0.008927	-0.116440
O10	O	1.177341	0.491073	0.383560
O11	O	0.589405	0.079023	-0.116390
O12	O	1.089405	0.579023	0.383610
O13	O	0.755273	0.068989	-0.116436
O14	O	1.255273	0.568989	0.383564
Zn15	Zn	0.672338	0.074005	-0.153331
Zn16	Zn	1.172338	0.574005	0.346669
Zn17	Zn	0.672344	0.074015	0.153025
Zn18	Zn	1.172344	0.574015	0.653025
O19	O	0.667337	0.156939	-0.116386
O20	O	1.167337	0.656939	0.383614
C21	C	0.568191	0.078776	-0.000124
C22	C	1.068191	0.578776	0.499876
C23	C	0.504972	0.078022	-0.000107
C24	C	1.004972	0.578022	0.499893
C25	C	0.677088	-0.030139	-0.000183
C26	C	1.177088	0.469861	0.499817
C27	C	0.676322	-0.093356	-0.000194
C28	C	1.176322	0.406644	0.499806
C29	C	0.112956	0.073280	-0.126914
C30	C	0.612956	0.573280	0.373086
C31	C	0.053556	0.072562	-0.126920
C32	C	0.553556	0.572562	0.373080
O33	O	0.022836	0.072168	-0.234712
O34	O	0.522836	0.572168	0.265288
N35	N	0.023850	0.072211	-0.000174
N36	N	0.523850	0.572211	0.499826
C37	C	0.053548	0.072571	0.126586
C38	C	0.553548	0.572571	0.626586
O39	O	0.022826	0.072205	0.234393
O40	O	0.522826	0.572205	0.734393
C41	C	0.112947	0.073284	0.126590
C42	C	0.612947	0.573284	0.626590
C43	C	0.142649	0.073641	-0.000164
C44	C	0.642649	0.573641	0.499836
C45	C	0.142658	0.073636	-0.253658
C46	C	0.642658	0.573636	0.246342
C47	C	0.202053	0.074355	-0.253652
C48	C	0.702053	0.574355	0.246348
C49	C	0.231746	0.074717	-0.126902
C50	C	0.731746	0.574717	0.373098
C51	C	0.202044	0.074360	-0.000158
C52	C	0.702044	0.574360	0.499842
C53	C	0.142643	0.073640	0.253349
C54	C	0.642643	0.573640	0.753349
C55	C	0.202046	0.074353	0.253342
C56	C	0.702046	0.574353	0.753342
C57	C	0.231748	0.074710	0.126588
C58	C	0.731748	0.574710	0.626588
C59	C	0.291132	0.075440	0.126599
C60	C	0.791132	0.575440	0.626599
N61	N	0.320838	0.075792	-0.000147
N62	N	0.820838	0.575792	0.499853
C63	C	0.291145	0.075430	-0.126898
C64	C	0.791145	0.575430	0.373102
C65	C	-0.071194	0.071072	0.126568
C66	C	0.428806	0.571072	0.626568
C67	C	-0.130592	0.070362	0.126565
C68	C	0.369408	0.570362	0.626565
C69	C	-0.130579	0.070353	-0.126942
C70	C	0.369421	0.570353	0.373058
C71	C	-0.071180	0.071066	-0.126937
C72	C	0.428820	0.571066	0.373063
C73	C	-0.041488	0.071423	-0.000178
C74	C	0.458512	0.571423	0.499822
C75	C	0.415879	0.076939	-0.126875
C76	C	0.915879	0.576939	0.373125
C77	C	0.475279	0.077660	-0.126858
C78	C	0.975279	0.577660	0.373142
C79	C	0.475261	0.077667	0.126648
C80	C	0.975261	0.577667	0.626648
C81	C	0.415866	0.076949	0.126632
C82	C	0.915866	0.576949	0.626632
C83	C	0.386177	0.076583	-0.000141
C84	C	0.886177	0.576583	0.499859
O85	O	0.321891	0.075832	0.234336
O86	O	0.821891	0.575832	0.734336
O87	O	0.321875	0.075788	-0.234687
O88	O	0.821875	0.575788	0.265313
C89	C	0.723557	-0.492468	-0.000131
C90	C	1.223557	0.007532	0.499869
C91	C	0.722845	-0.551868	-0.000120
C92	C	1.222845	-0.051868	0.499880
O93	O	0.766632	-0.588620	-0.000080
O94	O	1.266632	-0.088620	0.499920
N95	N	0.670568	-0.574484	-0.000106
N96	N	1.170568	-0.074484	0.499894
C97	C	0.618998	-0.537697	-0.000089
C98	C	1.118998	-0.037697	0.499911
O99	O	0.574467	-0.562388	-0.000075
O100	O	1.074467	-0.062388	0.499925
C101	C	0.619710	-0.478298	-0.000090
C102	C	1.119710	0.021702	0.499910
C103	C	0.671991	-0.455685	-0.000118
C104	C	1.171991	0.044315	0.499882
C105	C	0.775834	-0.469854	-0.000157
C106	C	1.275834	0.030146	0.499843
C107	C	0.776545	-0.410458	-0.000170
C108	C	1.276545	0.089542	0.499830
C109	C	0.724979	-0.373676	-0.000157
C110	C	1.224979	0.126324	0.499843
C111	C	0.672703	-0.396289	-0.000131
C112	C	1.172703	0.103711	0.499869
C113	C	0.568141	-0.441512	-0.000063
C114	C	1.068141	0.058488	0.499937
C115	C	0.568858	-0.382110	-0.000063
C116	C	1.068858	0.117890	0.499937
C117	C	0.621139	-0.359497	-0.000090
C118	C	1.121139	0.140503	0.499910
C119	C	0.621848	-0.300110	-0.000132
C120	C	1.121848	0.199890	0.499868
N121	N	0.674126	-0.277494	-0.000145
N122	N	1.174126	0.222506	0.499855
C123	C	0.725691	-0.314277	-0.000158
C124	C	1.225691	0.185723	0.499842
C125	C	0.617507	-0.662439	-0.000085
C126	C	1.117507	-0.162439	0.499915
C127	C	0.616794	-0.721837	-0.000094
C128	C	1.116794	-0.221837	0.499906
C129	C	0.720642	-0.736004	-0.000122
C130	C	1.220642	-0.236004	0.499878
C131	C	0.721354	-0.676605	-0.000123
C132	C	1.221354	-0.176605	0.499877
C133	C	0.669784	-0.639823	-0.000099
C134	C	1.169784	-0.139823	0.499901
C135	C	0.727181	-0.189540	-0.000188
C136	C	1.227181	0.310460	0.499812
C137	C	0.727888	-0.130138	-0.000207
C138	C	1.227888	0.369862	0.499793
C139	C	0.624041	-0.115977	-0.000171
C140	C	1.124041	0.384023	0.499829
C141	C	0.623334	-0.175373	-0.000160
C142	C	1.123334	0.324627	0.499840
C143	C	0.674909	-0.212154	-0.000163
C144	C	1.174909	0.287846	0.499837
O145	O	0.578084	-0.263323	-0.000165
O146	O	1.078084	0.236677	0.499835
O147	O	0.770216	-0.289577	-0.000154
O148	O	1.270216	0.210423	0.499846
C149	C	0.776492	0.069244	-0.000179
C150	C	1.276492	0.569244	0.499821
C151	C	0.839710	0.069998	-0.000186
C152	C	1.339710	0.569998	0.499814
C153	C	0.667594	0.178158	-0.000119
C154	C	1.167594	0.678158	0.499881
C155	C	0.668360	0.241375	-0.000100
C156	C	1.168360	0.741375	0.499900
N157	N	0.672338	0.073998	-0.362410
N158	N	1.172338	0.573998	0.137590
C159	C	0.712697	0.033013	-0.546769
C160	C	1.212697	0.533013	-0.046769
C161	C	0.723916	0.084250	-0.453518
C162	C	1.223916	0.584250	0.046482
C163	C	0.661144	0.022764	-0.453592
C164	C	1.161144	0.522764	0.046408
C165	C	0.683593	0.125280	-0.546696
C166	C	1.183593	0.625280	-0.046696
C167	C	0.620800	0.063761	-0.546779
C168	C	1.120800	0.563761	-0.046779
C169	C	0.631997	0.115036	-0.453570
C170	C	1.131997	0.615036	0.046430
N171	N	0.672348	0.074018	0.362104
N172	N	1.172348	0.574018	0.862104
H173	H	0.499460	0.077953	-0.230081
H174	H	0.999460	0.577953	0.269919
H175	H	0.391712	0.076647	-0.230106
H176	H	0.891712	0.576647	0.269894
F177	F	0.567691	-0.199441	-0.000155
F178	F	1.067691	0.300559	0.499845
F179	F	0.512496	-0.465565	-0.000027
F180	F	1.012496	0.034435	0.499973
F181	F	0.111066	0.073253	-0.388576
F182	F	0.611066	0.573253	0.111424
H183	H	0.746845	-0.001616	-0.587688
H184	H	1.246845	0.498384	-0.087688
F185	F	0.562616	-0.623297	-0.000072
F186	F	1.062616	-0.123297	0.499928
F187	F	0.563842	0.052407	-0.600366
F188	F	1.063842	0.552407	-0.100366
H189	H	0.226232	0.074642	-0.356869
H190	H	0.726232	0.574642	0.143131
H191	H	0.526863	-0.352164	-0.000041
H192	H	1.026863	0.147836	0.499959
H193	H	-0.047001	0.071358	-0.230152
H194	H	0.452999	0.571358	0.269848
F195	F	0.783535	-0.106076	-0.000236
F196	F	1.283535	0.393924	0.499764
F197	F	0.832190	-0.386400	-0.000170
F198	F	1.332190	0.113600	0.499830
H199	H	0.817827	-0.499797	-0.000162
H200	H	1.317827	0.000203	0.499838
F201	F	0.587390	0.160396	-0.400412
F202	F	1.087390	0.660396	0.099588
H203	H	0.118470	0.073348	0.356566
H204	H	0.618470	0.573348	0.856566
H205	H	0.582057	-0.086018	-0.000166
H206	H	1.082057	0.413982	0.499834
F207	F	0.782073	-0.228677	-0.000191
F208	F	1.282073	0.271323	0.499809
H209	H	-0.154766	0.070057	-0.230149
H210	H	0.345234	0.570057	0.269851
H211	H	0.499448	0.077964	0.229845
H212	H	0.999448	0.577964	0.729845
F213	F	0.780887	0.095577	-0.399942
F214	F	1.280887	0.595577	0.100058
F215	F	0.384253	0.076578	0.261537
F216	F	0.884253	0.576578	0.761537
H217	H	0.651672	-0.020571	-0.412692
H218	H	1.151672	0.479429	0.087308
F219	F	-0.162199	0.069993	0.261474
F220	F	0.337801	0.569993	0.761474
H221	H	0.763925	-0.658198	-0.000144
H222	H	1.263925	-0.158198	0.499856
F223	F	0.775523	-0.775161	-0.000129
F224	F	1.275523	-0.275161	0.499871
F225	F	-0.039599	0.071457	0.261492
F226	F	0.460401	0.571457	0.761492
F227	F	0.696043	0.181935	-0.599924
F228	F	1.196043	0.681935	-0.099924
H229	H	0.574222	-0.740243	-0.000096
H230	H	1.074222	-0.240243	0.499904
F231	F	0.233644	0.074731	0.388261
F232	F	0.733644	0.574731	0.888261
