data_functionalizedCrystal
_audit_creation_method	'MofGen! by Chris Wilmer'
_symmetry_space_group_name_H-M	'P1'
_symmetry_Int_Tables_number	1
_symmetry_cell_setting	triclinic
loop_
_symmetry_equiv_pos_as_xyz
  x,y,z
_cell_length_a	27.732048
_cell_length_b	27.732048
_cell_length_c	12.503572
_cell_angle_alpha	93.489054
_cell_angle_beta	93.483411
_cell_angle_gamma	97.357345
loop_
_atom_site_label
_atom_site_type_symbol
_atom_site_fract_x
_atom_site_fract_y
_atom_site_fract_z
O1	O	0.643731	-0.054704	0.089192
O2	O	0.977065	0.278630	0.422526
O3	O	1.310398	0.611963	0.755859
O4	O	0.502939	-0.063448	0.089227
O5	O	0.836272	0.269885	0.422560
O6	O	1.169606	0.603219	0.755893
O7	O	0.577707	0.011320	0.089188
O8	O	0.911041	0.344653	0.422521
O9	O	1.244374	0.677987	0.755855
O10	O	0.568963	-0.129472	0.089231
O11	O	0.902297	0.203861	0.422564
O12	O	1.235630	0.537195	0.755898
O13	O	0.572084	0.005688	-0.089451
O14	O	0.905418	0.339021	0.243882
O15	O	1.238751	0.672355	0.577216
O16	O	0.497316	-0.069080	-0.089412
O17	O	0.830649	0.264253	0.243921
O18	O	1.163983	0.597586	0.577254
O19	O	0.638108	-0.060336	-0.089447
O20	O	0.971442	0.272997	0.243887
O21	O	1.304775	0.606331	0.577220
Cu22	Cu	0.567199	-0.065222	-0.105741
Cu23	Cu	0.900532	0.268111	0.227593
Cu24	Cu	1.233865	0.601444	0.560926
Cu25	Cu	0.573849	-0.058562	0.105521
Cu26	Cu	0.907182	0.274772	0.438854
Cu27	Cu	1.240515	0.608105	0.772187
O28	O	0.563340	-0.135104	-0.089408
O29	O	0.896673	0.198229	0.243925
O30	O	1.230007	0.531562	0.577259
C31	C	0.482121	-0.066081	-0.000089
C32	C	0.815454	0.267253	0.333245
C33	C	1.148787	0.600586	0.666578
C34	C	0.428466	-0.065527	-0.000077
C35	C	0.761800	0.267806	0.333257
C36	C	1.095133	0.601139	0.666590
C37	C	0.089650	-0.106232	-0.000111
C38	C	0.422983	0.227101	0.333223
C39	C	0.756317	0.560434	0.666556
C40	C	-0.112010	-0.104182	-0.000121
C41	C	0.221324	0.229152	0.333212
C42	C	0.554657	0.562485	0.666546
O43	O	-0.143267	-0.141403	-0.000156
O44	O	0.190067	0.191930	0.333177
O45	O	0.523400	0.525263	0.666511
N46	N	-0.131134	-0.059847	-0.000133
N47	N	0.202199	0.273487	0.333201
N48	N	0.535533	0.606820	0.666534
C49	C	-0.099840	-0.016022	-0.000149
C50	C	0.233494	0.317312	0.333185
C51	C	0.566827	0.650645	0.666518
O52	O	-0.120734	0.021735	-0.000170
O53	O	0.212600	0.355068	0.333163
O54	O	0.545933	0.688401	0.666497
C55	C	0.101819	-0.018073	-0.000146
C56	C	0.435152	0.315260	0.333187
C57	C	0.768486	0.648594	0.666520
C58	C	0.120940	-0.062410	-0.000124
C59	C	0.454274	0.270923	0.333210
C60	C	0.787607	0.604256	0.666543
C61	C	0.108772	-0.150566	-0.000089
C62	C	0.442105	0.182767	0.333244
C63	C	0.775439	0.516101	0.666577
C64	C	0.159184	-0.151078	-0.000081
C65	C	0.492518	0.182255	0.333252
C66	C	0.825851	0.515589	0.666586
C67	C	0.190475	-0.107256	-0.000094
C68	C	0.523808	0.226077	0.333239
C69	C	0.857141	0.559410	0.666573
C70	C	0.171353	-0.062922	-0.000115
C71	C	0.504686	0.270411	0.333218
C72	C	0.838019	0.603744	0.666551
C73	C	0.133112	0.025751	-0.000170
C74	C	0.466445	0.359085	0.333163
C75	C	0.799779	0.692418	0.666497
C76	C	0.183529	0.025234	-0.000172
C77	C	0.516862	0.358568	0.333161
C78	C	0.850196	0.691901	0.666495
C79	C	0.202651	-0.019103	-0.000150
C80	C	0.535984	0.314230	0.333184
C81	C	0.869317	0.647564	0.666517
C82	C	0.253055	-0.019613	-0.000120
C83	C	0.586388	0.313721	0.333214
C84	C	0.919722	0.647054	0.666547
N85	N	0.272179	-0.063948	-0.000108
N86	N	0.605512	0.269386	0.333225
N87	N	0.938846	0.602719	0.666558
C88	C	0.240889	-0.107769	-0.000095
C89	C	0.574222	0.225564	0.333238
C90	C	0.907556	0.558897	0.666571
C91	C	-0.205714	-0.014948	-0.000148
C92	C	0.127619	0.318386	0.333185
C93	C	0.460953	0.651719	0.666519
C94	C	-0.256128	-0.014435	-0.000147
C95	C	0.077205	0.318899	0.333187
C96	C	0.410538	0.652232	0.666520
C97	C	-0.268295	-0.102595	-0.000121
C98	C	0.065038	0.230739	0.333212
C99	C	0.398372	0.564072	0.666546
C100	C	-0.217879	-0.103107	-0.000115
C101	C	0.115454	0.230226	0.333219
C102	C	0.448787	0.563560	0.666552
C103	C	-0.186590	-0.059283	-0.000136
C104	C	0.146744	0.274051	0.333197
C105	C	0.480077	0.607384	0.666530
C106	C	0.346759	-0.108841	-0.000077
C107	C	0.680092	0.224492	0.333257
C108	C	1.013425	0.557825	0.666590
C109	C	0.397176	-0.109349	-0.000064
C110	C	0.730509	0.223984	0.333270
C111	C	1.063843	0.557317	0.666603
C112	C	0.409338	-0.021189	-0.000095
C113	C	0.742671	0.312144	0.333238
C114	C	1.076005	0.645477	0.666571
C115	C	0.358925	-0.020681	-0.000102
C116	C	0.692259	0.312652	0.333231
C117	C	1.025592	0.645986	0.666564
C118	C	0.327636	-0.064511	-0.000097
C119	C	0.660970	0.268822	0.333237
C120	C	0.994303	0.602156	0.666570
O121	O	0.284340	0.017589	-0.000097
O122	O	0.617673	0.350922	0.333237
O123	O	0.951006	0.684255	0.666570
O124	O	0.261791	-0.145521	-0.000098
O125	O	0.595125	0.187813	0.333235
O126	O	0.928458	0.521146	0.666569
C127	C	0.039238	-0.105720	-0.000119
C128	C	0.372571	0.227613	0.333214
C129	C	0.705905	0.560946	0.666547
C130	C	0.020116	-0.061386	-0.000141
C131	C	0.353449	0.271947	0.333193
C132	C	0.686783	0.605280	0.666526
C133	C	0.051406	-0.017565	-0.000153
C134	C	0.384740	0.315769	0.333180
C135	C	0.718073	0.649102	0.666513
C136	C	-0.030298	-0.060873	-0.000139
C137	C	0.303035	0.272460	0.333194
C138	C	0.636368	0.605793	0.666527
C139	C	-0.061589	-0.104695	-0.000126
C140	C	0.271745	0.228638	0.333207
C141	C	0.605078	0.561971	0.666540
C142	C	-0.042465	-0.149030	-0.000115
C143	C	0.290869	0.184303	0.333219
C144	C	0.624202	0.517637	0.666552
C145	C	0.007948	-0.149542	-0.000106
C146	C	0.341281	0.183791	0.333227
C147	C	0.674614	0.517125	0.666560
C148	C	0.032282	0.026770	-0.000165
C149	C	0.365615	0.360104	0.333168
C150	C	0.698949	0.693437	0.666502
C151	C	-0.018131	0.027279	-0.000172
C152	C	0.315203	0.360612	0.333161
C153	C	0.648536	0.693945	0.666494
C154	C	-0.049421	-0.016543	-0.000159
C155	C	0.283912	0.316790	0.333174
C156	C	0.617246	0.650124	0.666507
C157	C	0.574712	0.026511	-0.000134
C158	C	0.908045	0.359844	0.333199
C159	C	1.241379	0.693177	0.666532
C160	C	0.574159	0.080165	-0.000143
C161	C	0.907492	0.413499	0.333190
C162	C	1.240826	0.746832	0.666524
C163	C	0.658927	-0.057703	-0.000129
C164	C	0.992260	0.275630	0.333205
C165	C	1.325593	0.608963	0.666538
C166	C	0.712582	-0.058256	-0.000134
C167	C	1.045915	0.275077	0.333200
C168	C	1.379248	0.608410	0.666533
C169	C	0.566335	-0.150295	-0.000083
C170	C	0.899669	0.183038	0.333250
C171	C	1.233002	0.516372	0.666583
C172	C	0.566889	-0.203949	-0.000067
C173	C	0.900222	0.129384	0.333266
C174	C	1.233555	0.462717	0.666599
C175	C	0.614864	0.418982	-0.000098
C176	C	0.948198	0.752315	0.333236
C177	C	1.281531	1.085649	0.666569
C178	C	0.612814	0.620642	-0.000082
C179	C	0.946147	0.953975	0.333251
C180	C	1.279480	1.287309	0.666584
O181	O	0.650036	0.651899	-0.000044
O182	O	0.983369	0.985232	0.333289
O183	O	1.316702	1.318566	0.666622
N184	N	0.568479	0.639766	-0.000073
N185	N	0.901812	0.973099	0.333261
N186	N	1.235146	1.306433	0.666594
C187	C	0.524654	0.608472	-0.000060
C188	C	0.857987	0.941805	0.333274
C189	C	1.191320	1.275138	0.666607
O190	O	0.486897	0.629366	-0.000040
O191	O	0.820231	0.962699	0.333293
O192	O	1.153564	1.296032	0.666627
C193	C	0.526705	0.406813	-0.000067
C194	C	0.860038	0.740146	0.333266
C195	C	1.193372	1.073480	0.666599
C196	C	0.571042	0.387692	-0.000088
C197	C	0.904376	0.721025	0.333245
C198	C	1.237709	1.054358	0.666579
C199	C	0.659198	0.399860	-0.000117
C200	C	0.992531	0.733193	0.333216
C201	C	1.325865	1.066527	0.666549
C202	C	0.659710	0.349448	-0.000127
C203	C	0.993043	0.682781	0.333206
C204	C	1.326377	1.016114	0.666540
C205	C	0.615888	0.318157	-0.000117
C206	C	0.949222	0.651491	0.333216
C207	C	1.282555	0.984824	0.666549
C208	C	0.571554	0.337279	-0.000098
C209	C	0.904888	0.670613	0.333236
C210	C	1.238221	1.003946	0.666569
C211	C	0.482881	0.375520	-0.000047
C212	C	0.816214	0.708853	0.333286
C213	C	1.149547	1.042187	0.666620
C214	C	0.483397	0.325103	-0.000046
C215	C	0.816731	0.658436	0.333287
C216	C	1.150064	0.991769	0.666621
C217	C	0.527735	0.305981	-0.000067
C218	C	0.861068	0.639315	0.333267
C219	C	1.194401	0.972648	0.666600
C220	C	0.528244	0.255577	-0.000098
C221	C	0.861578	0.588910	0.333235
C222	C	1.194911	0.922243	0.666569
N223	N	0.572579	0.236453	-0.000108
N224	N	0.905913	0.569786	0.333226
N225	N	1.239246	0.903119	0.666559
C226	C	0.616401	0.267743	-0.000117
C227	C	0.949735	0.601076	0.333216
C228	C	1.283068	0.934410	0.666549
C229	C	0.523580	0.714346	-0.000058
C230	C	0.856913	1.047679	0.333276
C231	C	1.190246	1.381013	0.666609
C232	C	0.523067	0.764760	-0.000058
C233	C	0.856400	1.098094	0.333276
C234	C	1.189733	1.431427	0.666609
C235	C	0.611227	0.776927	-0.000078
C236	C	0.944560	1.110261	0.333255
C237	C	1.277894	1.443594	0.666588
C238	C	0.611739	0.726512	-0.000086
C239	C	0.945073	1.059845	0.333247
C240	C	1.278406	1.393178	0.666581
C241	C	0.567915	0.695222	-0.000067
C242	C	0.901248	1.028555	0.333266
C243	C	1.234581	1.361889	0.666599
C244	C	0.617473	0.161873	-0.000139
C245	C	0.950806	0.495206	0.333195
C246	C	1.284140	0.828540	0.666528
C247	C	0.617981	0.111456	-0.000153
C248	C	0.951314	0.444789	0.333181
C249	C	1.284648	0.778122	0.666514
C250	C	0.529821	0.099294	-0.000126
C251	C	0.863154	0.432627	0.333207
C252	C	1.196488	0.765960	0.666540
C253	C	0.529313	0.149706	-0.000118
C254	C	0.862646	0.483040	0.333215
C255	C	1.195979	0.816373	0.666549
C256	C	0.573143	0.180996	-0.000120
C257	C	0.906476	0.514329	0.333213
C258	C	1.239809	0.847662	0.666546
O259	O	0.491043	0.224292	-0.000124
O260	O	0.824376	0.557625	0.333210
O261	O	1.157710	0.890959	0.666543
O262	O	0.654153	0.246841	-0.000113
O263	O	0.987486	0.580174	0.333220
O264	O	1.320819	0.913507	0.666554
C265	C	0.614352	0.469394	-0.000088
C266	C	0.947686	0.802728	0.333245
C267	C	1.281019	1.136061	0.666579
C268	C	0.570018	0.488516	-0.000069
C269	C	0.903352	0.821849	0.333265
C270	C	1.236685	1.155183	0.666598
C271	C	0.526197	0.457226	-0.000059
C272	C	0.859530	0.790559	0.333274
C273	C	1.192863	1.123892	0.666608
C274	C	0.569505	0.538930	-0.000069
C275	C	0.902839	0.872264	0.333265
C276	C	1.236172	1.205597	0.666598
C277	C	0.613327	0.570221	-0.000078
C278	C	0.946661	0.903554	0.333255
C279	C	1.279994	1.236888	0.666588
C280	C	0.657662	0.551097	-0.000088
C281	C	0.990996	0.884430	0.333245
C282	C	1.324329	1.217763	0.666579
C283	C	0.658174	0.500685	-0.000098
C284	C	0.991508	0.834018	0.333236
C285	C	1.324841	1.167351	0.666569
C286	C	0.481862	0.476350	-0.000049
C287	C	0.815195	0.809683	0.333284
C288	C	1.148528	1.143016	0.666617
C289	C	0.481353	0.526763	-0.000041
C290	C	0.814687	0.860096	0.333293
C291	C	1.148020	1.193429	0.666626
C292	C	0.525175	0.558053	-0.000050
C293	C	0.858508	0.891386	0.333283
C294	C	1.191842	1.224720	0.666616
N295	N	0.562525	-0.069907	-0.254331
N296	N	0.895858	0.263426	0.079003
N297	N	1.229192	0.596760	0.412336
C298	C	0.555650	-0.076802	-0.473442
C299	C	0.888983	0.256531	-0.140109
C300	C	1.222316	0.589864	0.193224
C301	C	0.585400	-0.046980	-0.526785
C302	C	0.918733	0.286354	-0.193451
C303	C	1.252067	0.619687	0.139882
C304	C	0.581574	-0.050816	-0.648706
C305	C	0.914908	0.282517	-0.315373
C306	C	1.248241	0.615850	0.017961
C307	C	0.559475	-0.072966	-0.351510
C308	C	0.892808	0.260367	-0.018177
C309	C	1.226141	0.593700	0.315157
N310	N	0.578526	-0.053873	0.254111
N311	N	0.911860	0.279460	0.587444
N312	N	1.245193	0.612793	0.920777
H313	H	0.412742	-0.145455	-0.000045
H314	H	0.746075	0.187878	0.333289
H315	H	1.079408	0.521211	0.666622
N316	N	0.477772	0.784280	-0.000062
N317	N	0.811105	1.117614	0.333272
N318	N	1.144439	1.450947	0.666605
N319	N	0.438651	0.756331	-0.000054
N320	N	0.771984	1.089664	0.333279
N321	N	1.105318	1.422998	0.666613
H322	H	0.406660	0.770115	-0.000053
H323	H	0.739993	1.103448	0.333280
H324	H	1.073326	1.436782	0.666613
N325	N	0.438635	0.293134	-0.000019
N326	N	0.771969	0.626467	0.333314
N327	N	1.105302	0.959801	0.666647
N328	N	0.431459	0.266012	0.075282
N329	N	0.764792	0.599346	0.408615
N330	N	1.098125	0.932679	0.741948
H331	H	0.399846	0.243434	0.075300
H332	H	0.733179	0.576767	0.408633
H333	H	1.066513	0.910101	0.741966
N334	N	0.441306	0.023570	-0.000139
N335	N	0.774639	0.356903	0.333195
N336	N	1.107972	0.690236	0.666528
N337	N	0.437386	0.050760	-0.075463
N338	N	0.770719	0.384093	0.257870
N339	N	1.104053	0.717427	0.591203
H340	H	0.459964	0.082371	-0.075505
H341	H	0.793298	0.415704	0.257829
H342	H	1.126631	0.749038	0.591162
H343	H	0.321288	-0.144532	-0.000075
H344	H	0.654622	0.188801	0.333258
H345	H	0.987955	0.522135	0.666591
H346	H	0.023511	-0.185646	-0.000089
H347	H	0.356845	0.147687	0.333244
H348	H	0.690178	0.481021	0.666577
N349	N	0.484023	0.169239	-0.000085
N350	N	0.817357	0.502572	0.333248
N351	N	1.150690	0.835906	0.666582
N352	N	0.476270	0.198375	0.075232
N353	N	0.809603	0.531708	0.408566
N354	N	1.142937	0.865041	0.741899
H355	H	0.444283	0.212166	0.075266
H356	H	0.777617	0.545499	0.408599
H357	H	1.110950	0.878833	0.741932
N358	N	0.520097	-0.112451	-0.530994
N359	N	0.853430	0.220882	-0.197661
N360	N	1.186763	0.554215	0.135673
N361	N	0.492124	-0.140496	-0.480918
N362	N	0.825457	0.192838	-0.147585
N363	N	1.158791	0.526171	0.185748
H364	H	0.467015	-0.165674	-0.521574
H365	H	0.800348	0.167659	-0.188240
H366	H	1.133682	0.500993	0.145093
N367	N	0.620953	-0.011337	-0.469199
N368	N	0.954287	0.321997	-0.135865
N369	N	1.287620	0.655330	0.197468
N370	N	0.624052	-0.008230	-0.368803
N371	N	0.957385	0.325103	-0.035469
N372	N	1.290718	0.658437	0.297864
H373	H	0.649161	0.016941	-0.328127
H374	H	0.982494	0.350274	0.005207
H375	H	1.315828	0.683608	0.338540
H376	H	-0.271692	0.021670	-0.000148
H377	H	0.061642	0.355003	0.333185
H378	H	0.394975	0.688336	0.666518
H379	H	0.117552	0.061855	-0.000189
H380	H	0.450886	0.395189	0.333144
H381	H	0.784219	0.728522	0.666477
N382	N	0.178704	-0.196372	-0.000057
N383	N	0.512038	0.136961	0.333277
N384	N	0.845371	0.470294	0.666610
N385	N	0.150753	-0.235492	-0.000046
N386	N	0.484087	0.097841	0.333287
N387	N	0.817420	0.431175	0.666621
H388	H	0.164535	-0.267484	-0.000030
H389	H	0.497869	0.065849	0.333303
H390	H	0.831202	0.399183	0.666636
H391	H	0.694278	0.485121	-0.000114
H392	H	1.027612	0.818454	0.333219
H393	H	1.360945	1.151788	0.666552
N394	N	0.076821	-0.195338	-0.000083
N395	N	0.410154	0.137996	0.333250
N396	N	0.743488	0.471329	0.666583
N397	N	0.093911	-0.234914	-0.000068
N398	N	0.427244	0.098419	0.333265
N399	N	0.760577	0.431752	0.666599
H400	H	0.071349	-0.266538	-0.000058
H401	H	0.404682	0.066796	0.333276
H402	H	0.738015	0.400129	0.666609
N403	N	-0.198357	-0.148400	-0.000091
N404	N	0.134976	0.184933	0.333243
N405	N	0.468309	0.518266	0.666576
N406	N	-0.226306	-0.187521	-0.000073
N407	N	0.107027	0.145812	0.333260
N408	N	0.440360	0.479146	0.666593
H409	H	-0.212522	-0.219512	-0.000058
H410	H	0.120811	0.113821	0.333275
H411	H	0.454145	0.447155	0.666608
H412	H	0.057754	0.062456	-0.000178
H413	H	0.391088	0.395789	0.333155
H414	H	0.724421	0.729123	0.666488
N415	N	0.478806	0.682395	-0.000039
N416	N	0.812140	1.015728	0.333294
N417	N	1.145473	1.349061	0.666628
N418	N	0.439228	0.699482	-0.000033
N419	N	0.772562	1.032816	0.333301
N420	N	1.105895	1.366149	0.666634
H421	H	0.407606	0.676919	-0.000024
H422	H	0.740939	1.010252	0.333310
H423	H	1.074273	1.343585	0.666643
H424	H	-0.293780	-0.138276	-0.000111
H425	H	0.039553	0.195057	0.333223
H426	H	0.372886	0.528390	0.666556
H427	H	0.446176	0.450877	-0.000039
H428	H	0.779509	0.784211	0.333294
H429	H	1.112842	1.117544	0.666628
H430	H	-0.180242	0.020742	-0.000166
H431	H	0.153092	0.354075	0.333168
H432	H	0.486425	0.687408	0.666501
H433	H	0.693343	0.576582	-0.000101
H434	H	1.026677	0.909916	0.333233
H435	H	1.360010	1.243249	0.666566
N436	N	0.215483	0.070006	-0.000206
N437	N	0.548816	0.403339	0.333128
N438	N	0.882149	0.736672	0.666461
N439	N	0.198399	0.109585	-0.000231
N440	N	0.531732	0.442919	0.333103
N441	N	0.865065	0.776252	0.666436
H442	H	0.220965	0.141205	-0.000255
H443	H	0.554298	0.474539	0.333079
H444	H	0.887631	0.807872	0.666412
H445	H	0.343357	0.015423	-0.000105
H446	H	0.676690	0.348756	0.333228
H447	H	1.010023	0.682089	0.666562
H448	H	0.647843	0.710947	-0.000102
H449	H	0.981176	1.044280	0.333231
H450	H	1.314510	1.377613	0.666565
H451	H	-0.067950	-0.184711	-0.000100
H452	H	0.265383	0.148622	0.333233
H453	H	0.598717	0.481956	0.666567
N454	N	-0.037650	0.072576	-0.000182
N455	N	0.295683	0.405910	0.333151
N456	N	0.629016	0.739243	0.666484
N457	N	-0.009701	0.111697	-0.000195
N458	N	0.323632	0.445031	0.333139
N459	N	0.656965	0.778364	0.666472
H460	H	-0.023486	0.143688	-0.000209
H461	H	0.309848	0.477022	0.333125
H462	H	0.643181	0.810355	0.666458
H463	H	0.694885	0.425332	-0.000121
H464	H	1.028219	0.758666	0.333212
H465	H	1.361552	1.091999	0.666545
H466	H	0.654087	0.095890	-0.000172
H467	H	0.987421	0.429224	0.333161
H468	H	1.320754	0.762557	0.666494
H469	H	0.445245	0.542325	-0.000033
H470	H	0.778579	0.875659	0.333300
H471	H	1.111912	1.208992	0.666633
N472	N	0.655996	0.808887	-0.000093
N473	N	0.989329	1.142220	0.333241
N474	N	1.322662	1.475553	0.666574
N475	N	0.683203	0.804965	-0.075393
N476	N	1.016536	1.138299	0.257941
N477	N	1.349869	1.471632	0.591274
H478	H	0.714820	0.827538	-0.075397
H479	H	1.048153	1.160871	0.257936
H480	H	1.381486	1.494205	0.591270
H481	H	0.653164	0.187344	-0.000136
H482	H	0.986497	0.520677	0.333197
H483	H	1.319830	0.854010	0.666530
H484	H	0.446777	0.391079	-0.000024
H485	H	0.780110	0.724413	0.333310
H486	H	1.113443	1.057746	0.666643
N487	N	0.705005	0.329928	-0.000144
N488	N	1.038338	0.663261	0.333190
N489	N	1.371671	0.996595	0.666523
N490	N	0.744124	0.357879	-0.000148
N491	N	1.077458	0.691213	0.333185
N492	N	1.410791	1.024546	0.666519
H493	H	0.776117	0.344097	-0.000156
H494	H	1.109450	0.677431	0.333177
H495	H	1.442783	1.010764	0.666510
H496	H	0.494142	0.073808	-0.000122
H497	H	0.827476	0.407141	0.333211
H498	H	1.160809	0.740475	0.666544
