data_functionalizedCrystal
_audit_creation_method	'MofGen! by Chris Wilmer'
_symmetry_space_group_name_H-M	'P1'
_symmetry_Int_Tables_number	1
_symmetry_cell_setting	triclinic
loop_
_symmetry_equiv_pos_as_xyz
  x,y,z
_cell_length_a	16.109301
_cell_length_b	10.654550
_cell_length_c	14.586319
_cell_angle_alpha	89.996358
_cell_angle_beta	89.999213
_cell_angle_gamma	83.973206
loop_
_atom_site_label
_atom_site_type_symbol
_atom_site_fract_x
_atom_site_fract_y
_atom_site_fract_z
O1	O	1.104091	0.161419	-0.076182
O2	O	0.862148	0.181507	-0.076197
O3	O	0.988682	-0.011352	-0.076183
O4	O	0.977557	0.354278	-0.076195
O5	O	0.988673	-0.011354	0.076298
O6	O	0.862139	0.181504	0.076284
O7	O	1.104082	0.161416	0.076299
Cu8	Cu	0.983110	0.171460	0.090214
Cu9	Cu	0.983120	0.171463	-0.090112
O10	O	0.977548	0.354275	0.076285
C11	C	0.831164	0.180692	0.000042
C12	C	0.738854	0.178253	0.000037
C13	C	0.517228	0.287019	0.000044
C14	C	0.430494	0.284717	0.000049
C15	C	0.449008	0.055896	0.000053
C16	C	0.535741	0.058199	0.000054
C17	C	0.569848	0.173764	0.000044
C18	C	0.396382	0.169159	0.000050
C19	C	0.302341	0.166662	0.000056
C20	C	0.663895	0.176262	0.000040
C21	C	0.987861	-0.058140	0.000057
C22	C	0.985417	-0.197550	0.000055
C23	C	1.059918	-0.278046	0.000059
C24	C	1.057616	-0.409036	0.000048
C25	C	0.906306	-0.379020	0.000032
C26	C	0.908608	-0.248033	0.000037
C27	C	1.145364	-0.606070	-0.053373
C28	C	1.219869	-0.686572	-0.053353
C29	C	1.287407	-0.657317	0.000086
C30	C	1.280443	-0.547563	0.053528
C31	C	1.205937	-0.467068	0.053516
C32	C	1.138402	-0.496322	0.000056
C33	C	0.820866	-0.050997	0.053465
C34	C	0.746359	0.029500	0.053460
C35	C	0.678814	0.000249	0.000026
C36	C	0.685770	-0.109507	-0.053402
C37	C	0.760277	-0.190004	-0.053397
C38	C	0.827822	-0.160745	0.000036
C39	C	1.135066	0.162231	0.000058
C40	C	1.227376	0.164671	0.000058
C41	C	0.978369	0.401063	0.000043
C42	C	0.980813	0.540473	0.000039
N43	N	0.983108	0.171457	0.217046
N44	N	0.983128	0.171457	-0.216944
C45	C	1.039156	0.086088	0.452058
C46	C	1.039159	0.086084	0.548040
C47	C	0.927074	0.256830	0.548037
C48	C	0.927068	0.256826	0.452058
C49	C	0.983114	0.171456	0.404071
C50	C	0.983122	0.171457	0.596031
C51	C	0.983124	0.171455	0.700099
C52	C	0.983111	0.171457	0.299997
H53	H	0.421227	-0.038193	0.000067
H54	H	1.084791	0.016573	0.412990
H55	H	0.387654	0.376940	0.000051
C56	C	0.871501	-0.012339	0.204593
C57	C	0.895127	-0.018857	0.112192
H58	H	0.917351	0.007491	0.240846
H59	H	0.826147	0.051312	0.212245
H60	H	0.854997	-0.091413	0.223357
H61	H	0.911626	0.060219	0.093426
H62	H	0.940496	-0.082513	0.104536
H63	H	0.843771	-0.420140	0.000019
C64	C	0.692912	-0.319321	-0.159047
C65	C	0.767930	-0.310642	-0.112138
H66	H	0.697642	-0.393791	-0.195315
H67	H	0.648848	-0.322361	-0.116100
H68	H	0.681379	-0.247701	-0.197550
H69	H	0.779461	-0.382257	-0.073629
H70	H	0.812008	-0.307612	-0.155089
H71	H	0.630762	-0.133341	-0.096893
C72	C	1.094791	-0.644771	-0.204516
C73	C	1.071129	-0.638230	-0.112127
H74	H	1.048961	-0.664638	-0.240786
H75	H	1.111289	-0.565708	-0.223284
H76	H	1.140162	-0.708421	-0.212137
H77	H	1.025761	-0.574573	-0.104505
H78	H	1.054619	-0.717303	-0.093353
H79	H	0.578586	-0.034032	0.000057
H80	H	1.084792	0.016568	0.587108
C81	C	1.133298	-0.350908	0.175541
C82	C	1.198276	-0.346431	0.112250
H83	H	1.128576	-0.276430	0.211801
H84	H	1.082421	-0.356803	0.143704
H85	H	1.144839	-0.422520	0.214050
H86	H	1.186732	-0.274824	0.073736
H87	H	1.249165	-0.340523	0.144090
C88	C	0.877294	0.332635	0.304924
C89	C	0.865464	0.350674	0.399301
H90	H	0.839259	0.390564	0.272356
H91	H	0.932851	0.346296	0.289196
H92	H	0.867779	0.248812	0.289213
H93	H	0.874985	0.434494	0.415013
H94	H	0.809894	0.337022	0.415035
H95	H	1.335439	-0.523762	0.097050
C96	C	0.877321	0.332662	0.695167
C97	C	0.865478	0.350677	0.600788
H98	H	0.839298	0.390609	0.727729
H99	H	0.867806	0.248857	0.710901
H100	H	0.932889	0.346324	0.710878
H101	H	0.809912	0.337006	0.585076
H102	H	0.874987	0.434502	0.585048
H103	H	1.122460	-0.236948	0.000072
C104	C	0.641962	0.392156	0.000031
C105	C	0.554722	0.414044	0.000037
H106	H	0.665105	0.470580	0.000021
H107	H	0.659976	0.345533	0.053201
H108	H	0.659970	0.345526	-0.053146
H109	H	0.536713	0.460667	0.053217
H110	H	0.536700	0.460687	-0.053140
H111	H	1.348071	-0.722871	0.000101
C112	C	0.673742	0.145668	0.175495
C113	C	0.738707	0.150149	0.112189
H114	H	0.669022	0.220150	0.211752
H115	H	0.622860	0.139762	0.143671
H116	H	0.685295	0.074062	0.214007
H117	H	0.727151	0.221751	0.073672
H118	H	0.789601	0.156068	0.144015
C119	C	1.292515	-0.802717	-0.175381
C120	C	1.227531	-0.807205	-0.112100
H121	H	1.297248	-0.877197	-0.211639
H122	H	1.280979	-0.731114	-0.213885
H123	H	1.343394	-0.796818	-0.143530
H124	H	1.176651	-0.813095	-0.143951
H125	H	1.239062	-0.878828	-0.073591
H126	H	0.618142	0.065794	0.000039
