data_functionalizedCrystal
_audit_creation_method	'MofGen! by Chris Wilmer'
_symmetry_space_group_name_H-M	'P1'
_symmetry_Int_Tables_number	1
_symmetry_cell_setting	triclinic
loop_
_symmetry_equiv_pos_as_xyz
  x,y,z
_cell_length_a	14.044220
_cell_length_b	10.654549
_cell_length_c	9.130313
_cell_angle_alpha	90.004258
_cell_angle_beta	89.995463
_cell_angle_gamma	88.836827
loop_
_atom_site_label
_atom_site_type_symbol
_atom_site_fract_x
_atom_site_fract_y
_atom_site_fract_z
O1	O	1.259693	0.302987	0.121638
O2	O	0.983651	0.292054	0.121675
O3	O	1.128019	0.115419	0.121649
O4	O	1.115325	0.479622	0.121663
O5	O	1.128018	0.115410	-0.121949
O6	O	0.983650	0.292045	-0.121924
O7	O	1.259691	0.302978	-0.121961
Cu8	Cu	1.121671	0.297510	-0.144185
Cu9	Cu	1.121672	0.297522	0.143899
O10	O	1.115324	0.479613	-0.121935
C11	C	0.948305	0.287263	-0.000120
C12	C	0.842985	0.272988	-0.000105
C13	C	1.127086	0.068523	-0.000148
C14	C	1.124298	-0.071201	-0.000143
C15	C	1.206672	-0.273438	-0.000144
C16	C	1.209299	-0.142153	-0.000156
C17	C	1.036664	-0.131539	-0.000133
C18	C	1.034038	-0.262822	-0.000132
C19	C	0.650152	0.246889	-0.000135
C20	C	0.593185	0.348137	-0.000138
C21	C	0.485886	0.333615	-0.000154
C22	C	0.757461	0.261409	-0.000119
C23	C	1.295038	0.307769	-0.000163
C24	C	1.400357	0.322044	-0.000168
C25	C	1.116256	0.526509	-0.000134
C26	C	1.119045	0.666233	-0.000130
N27	N	1.121674	0.297520	0.346522
N28	N	1.121676	0.297502	-0.346808
C29	C	1.185721	0.219487	0.423162
C30	C	1.185725	0.219480	0.576499
C31	C	1.057626	0.375545	0.576541
C32	C	1.057628	0.375557	0.423207
H33	H	1.275891	-0.331198	-0.000143
H34	H	1.237879	0.155940	0.638895
O35	O	1.254810	0.135333	0.340460
H36	H	1.214584	0.069638	0.270601
O37	O	1.303811	-0.077078	-0.000148
H38	H	1.362476	-0.148471	-0.000131
O39	O	0.944979	-0.055021	-0.000123
H40	H	0.961525	0.046404	-0.000112
H41	H	0.624997	0.445725	-0.000127
H42	H	0.962677	-0.311943	-0.000127
O43	O	0.608025	0.117626	-0.000139
H44	H	0.529137	0.126364	-0.000138
O45	O	0.988523	0.459673	0.659249
H46	H	0.999266	0.446537	0.778749
O47	O	0.988570	0.459760	0.340527
H48	H	0.944034	0.514021	0.419609
