data_functionalizedCrystal
_audit_creation_method	'MofGen! by Chris Wilmer'
_symmetry_space_group_name_H-M	'P1'
_symmetry_Int_Tables_number	1
_symmetry_cell_setting	triclinic
loop_
_symmetry_equiv_pos_as_xyz
  x,y,z
_cell_length_a	15.297475
_cell_length_b	16.120484
_cell_length_c	15.297908
_cell_angle_alpha	77.005894
_cell_angle_beta	107.359593
_cell_angle_gamma	83.687474
loop_
_atom_site_label
_atom_site_type_symbol
_atom_site_fract_x
_atom_site_fract_y
_atom_site_fract_z
Zn1	Zn	1.479999	-0.697536	0.803988
Zn2	Zn	1.447826	-0.807759	0.653616
Zn3	Zn	1.300320	-0.639188	0.618910
Zn4	Zn	1.319279	-0.807685	0.782212
O5	O	1.386856	-0.738042	0.714682
O6	O	1.604725	-0.736608	0.807679
O7	O	1.406860	-0.761010	0.517739
O8	O	1.329685	-0.530282	0.638050
O9	O	1.581087	-0.817588	0.697201
O10	O	1.461695	-0.573151	0.774026
O11	O	1.298488	-0.637161	0.492240
O12	O	1.173841	-0.637089	0.616935
O13	O	1.361998	-0.817462	0.916375
O14	O	1.187771	-0.760883	0.736912
O15	O	1.480079	-0.736536	0.932373
O16	O	1.425244	-0.924395	0.676086
O17	O	1.330801	-0.924340	0.770565
C18	C	1.147359	-0.692647	0.670795
C19	C	1.044904	-0.673251	0.652043
C20	C	0.785135	-0.876674	0.848706
C21	C	0.881396	-0.894903	0.866322
C22	C	0.922278	-0.839492	0.812754
C23	C	0.866889	-0.765848	0.741567
C24	C	0.770618	-0.747621	0.723944
C25	C	0.907761	-0.710439	0.687992
C26	C	0.852372	-0.636795	0.616805
C27	C	0.756111	-0.618571	0.599186
C28	C	0.715229	-0.673982	0.652754
C29	C	1.004032	-0.728666	0.705615
C30	C	0.989515	-0.599613	0.580853
C31	C	0.893254	-0.581384	0.563237
C32	C	1.376617	-0.954621	0.724754
C33	C	1.372326	-1.047296	0.729109
C34	C	1.364500	-1.216979	0.737082
C35	C	1.409380	-1.258299	0.692327
C36	C	1.405026	-1.352716	0.696763
C37	C	1.368853	-1.122553	0.732647
C38	C	1.627288	-0.783615	0.758741
C39	C	1.729746	-0.803035	0.777516
C40	C	1.426742	-0.783499	0.959363
C41	C	1.443739	-0.802871	1.063632
C42	C	1.397164	-0.520626	0.704596
C43	C	1.401556	-0.427976	0.700298
C44	C	1.347181	-0.692712	0.470959
C45	C	1.330374	-0.673139	0.366712
C46	C	1.265966	-0.599553	1.304456
C47	C	1.249998	-0.581345	1.206490
C48	C	1.298431	-0.636725	1.170770
C49	C	1.362836	-0.710316	1.233027
C50	C	1.378811	-0.728522	1.331003
C51	C	1.411277	-0.765694	1.197318
C52	C	1.475681	-0.839285	1.259574
C53	C	1.491652	-0.857488	1.357540
C54	C	1.443219	-0.802108	1.393260
C55	C	1.395302	-0.747488	1.099342
C56	C	1.508147	-0.876457	1.125889
C57	C	1.524115	-0.894665	1.223855
H58	H	1.022800	-0.554493	0.537232
H59	H	0.636846	-0.659143	0.638416
C60	C	1.465699	-1.210301	0.636059
H61	H	1.493289	-1.248645	0.608565
H62	H	1.425333	-1.162099	0.587140
H63	H	1.513234	-1.190559	0.677767
C64	C	1.308174	-1.264973	0.793336
H65	H	1.280589	-1.226636	0.820839
H66	H	1.260651	-1.284718	0.751627
H67	H	1.348543	-1.313177	0.842262
H68	H	1.342864	-0.687568	1.048662
H69	H	0.711013	-0.558612	0.541211
C70	C	1.562496	-0.938434	1.426020
H71	H	1.589047	-0.968815	1.390718
H72	H	1.610405	-0.921270	1.470123
H73	H	1.531731	-0.975169	1.459455
C74	C	1.280859	-0.616704	1.063010
H75	H	1.235558	-0.564950	1.031047
H76	H	1.337410	-0.609452	1.051069
H77	H	1.258741	-0.663357	1.040425
C78	C	1.179161	-0.500402	1.138016
H79	H	1.152598	-0.470031	1.173318
H80	H	1.209919	-0.463669	1.104579
H81	H	1.131248	-0.517572	1.093914
C82	C	1.212704	-0.538642	1.343750
H83	H	1.231441	-0.560027	1.411013
H84	H	1.226236	-0.482212	1.327569
H85	H	1.147567	-0.536117	1.316918
C86	C	1.460342	-0.822442	1.500961
H87	H	1.505499	-0.874294	1.532905
H88	H	1.482381	-0.775971	1.523992
H89	H	1.403572	-0.829712	1.512411
H90	H	1.576555	-0.954582	1.274557
C91	C	1.561423	-0.937380	1.086608
H92	H	1.542678	-0.916004	1.019343
H93	H	1.626554	-0.939909	1.113442
H94	H	1.547885	-0.993813	1.102787
C95	C	1.064952	-0.809668	0.783910
H96	H	1.128138	-0.812596	0.786730
H97	H	1.060038	-0.806295	0.843516
H98	H	1.044268	-0.860097	0.769777
C99	C	0.942317	-0.975899	0.944626
H100	H	0.904186	-1.006285	0.974012
H101	H	0.972293	-1.012601	0.917237
H102	H	0.988051	-0.958778	0.990956
C103	C	0.740163	-0.937617	0.907620
H104	H	0.674899	-0.916211	0.886931
H105	H	0.751041	-0.994024	0.899280
H106	H	0.766798	-0.940204	0.973003
C107	C	0.832320	-0.500384	0.484930
H108	H	0.769134	-0.497472	0.482107
H109	H	0.852993	-0.449950	0.499044
H110	H	0.837230	-0.503771	0.425322
H111	H	1.000658	-0.854338	0.827102
