data_functionalizedCrystal
_audit_creation_method	'MofGen! by Chris Wilmer'
_symmetry_space_group_name_H-M	'P1'
_symmetry_Int_Tables_number	1
_symmetry_cell_setting	triclinic
loop_
_symmetry_equiv_pos_as_xyz
  x,y,z
_cell_length_a	6.394984
_cell_length_b	16.992694
_cell_length_c	16.053802
_cell_angle_alpha	92.750953
_cell_angle_beta	92.641943
_cell_angle_gamma	91.418212
loop_
_atom_site_label
_atom_site_type_symbol
_atom_site_fract_x
_atom_site_fract_y
_atom_site_fract_z
O1	O	0.435392	-1.047993	-0.069320
O2	O	0.430522	-0.819661	-0.069344
O3	O	0.129434	-0.937070	-0.069329
O4	O	0.736481	-0.930584	-0.069335
O5	O	0.145934	-0.930607	0.069529
O6	O	0.447022	-0.813198	0.069514
O7	O	0.451892	-1.041530	0.069538
Zn8	Zn	0.452077	-0.926338	0.091573
Zn9	Zn	0.430338	-0.934853	-0.091379
O10	O	0.752980	-0.924120	0.069523
C11	C	0.432511	-0.787155	0.000082
C12	C	0.413828	-0.699927	0.000072
C13	C	1.059650	-0.932548	0.000102
C14	C	0.822760	-0.928640	0.000100
C15	C	0.449903	-1.074036	0.000111
C16	C	0.468585	-1.161264	0.000115
N17	N	0.466913	-0.920532	0.216432
N18	N	0.415486	-0.940665	-0.216238
C19	C	0.594077	-0.651466	0.000071
C20	C	0.576512	-0.569506	0.000083
C21	C	0.378698	-0.536007	0.000089
C22	C	0.198436	-0.584474	0.000093
C23	C	0.216003	-0.666433	0.000087
C24	C	0.305891	-0.291690	0.000112
C25	C	0.288337	-0.209725	0.000116
C26	C	0.666415	-0.194762	0.000107
C27	C	0.683964	-0.276723	0.000096
C28	C	0.503703	-0.325182	0.000104
N29	N	0.360739	-0.452231	0.000099
N30	N	0.521664	-0.408957	0.000101
C31	C	0.338851	-0.970509	0.260133
C32	C	0.349250	-0.966455	0.347539
C33	C	0.487723	-0.912427	0.391243
C34	C	0.615790	-0.862445	0.347537
C35	C	0.605379	-0.866495	0.260132
C36	C	0.533142	-0.894733	0.652651
C37	C	0.543548	-0.890688	0.740061
C38	C	0.277004	-0.994698	0.740058
C39	C	0.266614	-0.998747	0.652651
C40	C	0.394673	-0.948761	0.608952
N41	N	0.498361	-0.908284	0.480586
N42	N	0.384023	-0.952901	0.519611
H43	H	0.755158	-0.678734	0.000065
Br44	Br	0.952436	-0.322179	0.000078
Br45	Br	0.779171	-0.798661	0.200824
H46	H	0.159108	-0.331136	0.000120
Br47	Br	-0.070030	-0.539013	0.000110
Br48	Br	-0.028628	-0.732202	0.000096
H49	H	0.728531	-0.818450	0.383126
Br50	Br	0.911041	-0.128992	0.000097
H51	H	0.723290	-0.530052	0.000081
H52	H	0.153858	-1.042740	0.617069
Br53	Br	0.150930	-1.043842	0.200829
Br54	Br	0.103214	-1.062530	0.799366
H55	H	0.244971	-1.007149	0.383119
H56	H	0.656317	-0.846690	0.775641
H57	H	0.127245	-0.182454	0.000120
Br58	Br	0.706935	-0.826900	0.593350
