data_functionalizedCrystal
_audit_creation_method	'MofGen! by Chris Wilmer'
_symmetry_space_group_name_H-M	'P1'
_symmetry_Int_Tables_number	1
_symmetry_cell_setting	triclinic
loop_
_symmetry_equiv_pos_as_xyz
  x,y,z
_cell_length_a	19.288864
_cell_length_b	8.140239
_cell_length_c	19.288857
_cell_angle_alpha	90.005662
_cell_angle_beta	83.134677
_cell_angle_gamma	90.016564
loop_
_atom_site_label
_atom_site_type_symbol
_atom_site_fract_x
_atom_site_fract_y
_atom_site_fract_z
O1	O	0.921344	0.137148	0.086647
O2	O	0.719083	0.137037	0.098336
O3	O	0.826061	0.137076	-0.008639
O4	O	0.814367	0.137109	0.193622
O5	O	0.826055	-0.136151	-0.008641
O6	O	0.719077	-0.136190	0.098335
O7	O	0.921338	-0.136079	0.086646
Zn8	Zn	0.820207	-0.179516	0.092490
Zn9	Zn	0.820215	0.180473	0.092492
O10	O	0.814361	-0.136118	0.193621
C11	C	0.693204	0.000409	0.097959
C12	C	0.616100	0.000365	0.096830
N13	N	0.820207	-0.425198	0.092488
C14	C	0.571402	0.000402	0.159598
C15	C	0.498955	0.000419	0.158537
C16	C	0.471209	0.000434	0.094705
C17	C	0.515917	0.000389	0.031929
C18	C	0.588363	0.000355	0.032991
C19	C	0.362951	0.096205	0.044526
C20	C	0.290506	0.096250	0.043466
C21	C	0.247764	0.000533	0.091425
C22	C	0.277473	-0.095206	0.140456
C23	C	0.349919	-0.095241	0.141519
C24	C	0.392656	0.000471	0.093546
C25	C	0.124510	0.000586	0.153048
C26	C	0.052062	0.000594	0.151984
C27	C	0.069026	0.000580	0.025374
C28	C	0.141472	0.000556	0.026439
C29	C	0.169210	0.000567	0.090278
C30	C	0.947218	0.000552	0.087022
C31	C	1.024321	0.000606	0.088151
C32	C	0.825683	0.000460	-0.034516
C33	C	0.824556	0.000455	-0.111620
N34	N	0.820220	0.426156	0.092488
C35	C	0.824033	0.149391	-0.147830
C36	C	0.822964	0.149403	-0.220276
C37	C	0.822432	0.000470	-0.256511
C38	C	0.822951	-0.148486	-0.220292
C39	C	0.824013	-0.148493	-0.147847
C40	C	0.861431	-0.113600	-0.376743
C41	C	0.860374	-0.113586	-0.449188
C42	C	0.819155	0.000487	-0.479957
C43	C	0.779002	0.114574	-0.438274
C44	C	0.780063	0.114566	-0.365828
C45	C	0.821281	0.000461	-0.335066
C46	C	0.817472	0.149446	-0.594721
C47	C	0.816399	0.149451	-0.667168
C48	C	0.816393	-0.148442	-0.667184
C49	C	0.817459	-0.148443	-0.594737
C50	C	0.818002	0.000505	-0.558511
C51	C	0.814739	0.000501	0.219498
C52	C	0.815866	0.000517	0.296602
H53	H	0.593981	0.000413	0.211581
O54	O	0.189689	0.000524	-0.041262
H55	H	0.179879	0.111894	-0.071820
H56	H	0.266323	0.174213	0.003545
H57	H	0.397747	0.174159	0.005471
H58	H	0.894997	-0.206505	-0.351698
O59	O	0.824601	0.310042	-0.108759
H60	H	0.871726	0.381501	-0.129003
O61	O	0.822402	0.310045	-0.259346
H62	H	0.822961	0.413615	-0.221984
H63	H	0.462555	0.000444	0.209652
H64	H	0.493322	0.000424	-0.020044
O65	O	0.734528	0.237602	-0.471447
H66	H	0.751480	0.363909	-0.459788
H67	H	0.817910	0.270728	-0.565224
H68	H	0.893072	-0.206477	-0.483122
H69	H	0.624757	0.000326	-0.018124
H70	H	0.147095	0.000571	0.205029
O71	O	0.736748	0.237581	-0.320865
H72	H	0.707899	0.316899	-0.354425
O73	O	0.381970	-0.198563	0.194371
H74	H	0.340084	-0.265148	0.227534
O75	O	0.231382	-0.198453	0.192189
H76	H	0.246229	-0.329673	0.185226
O77	O	0.822377	-0.309127	-0.259367
H78	H	0.869907	-0.380527	-0.251797
O79	O	0.039112	0.000597	-0.043477
H80	H	-0.018773	0.000635	-0.033672
H81	H	0.815970	0.270738	-0.696649
H82	H	0.015669	0.000614	0.203100
O83	O	0.815824	-0.309085	-0.706254
H84	H	0.815003	-0.284062	-0.762715
O85	O	0.818040	-0.309081	-0.555677
H86	H	0.817499	-0.412646	-0.593043
H87	H	0.824436	-0.269779	-0.118365
