data_functionalizedCrystal
_audit_creation_method	'MofGen! by Chris Wilmer'
_symmetry_space_group_name_H-M	'P1'
_symmetry_Int_Tables_number	1
_symmetry_cell_setting	triclinic
loop_
_symmetry_equiv_pos_as_xyz
  x,y,z
_cell_length_a	9.065218
_cell_length_b	19.288865
_cell_length_c	18.366186
_cell_angle_alpha	90.011479
_cell_angle_beta	90.009098
_cell_angle_gamma	84.076066
loop_
_atom_site_label
_atom_site_type_symbol
_atom_site_fract_x
_atom_site_fract_y
_atom_site_fract_z
O1	O	-1.956843	-0.101842	-0.060561
O2	O	-1.456843	0.398158	0.439439
O3	O	-1.527266	-0.110195	-0.060563
O4	O	-1.027266	0.389805	0.439437
O5	O	-1.754467	-0.004985	-0.060548
O6	O	-1.254467	0.495015	0.439452
O7	O	-1.729642	-0.207053	-0.060577
O8	O	-1.229642	0.292947	0.439423
O9	O	-1.754429	-0.004979	0.060552
O10	O	-1.254429	0.495021	0.560552
O11	O	-1.527227	-0.110190	0.060536
O12	O	-1.027227	0.389810	0.560536
O13	O	-1.956805	-0.101836	0.060538
O14	O	-1.456805	0.398164	0.560538
Zn15	Zn	-1.742010	-0.106012	0.079764
Zn16	Zn	-1.242010	0.393988	0.579764
Zn17	Zn	-1.742061	-0.106020	-0.079789
Zn18	Zn	-1.242061	0.393980	0.420211
O19	O	-1.729603	-0.207047	0.060523
O20	O	-1.229603	0.292953	0.560523
C21	C	-1.753649	0.020901	0.000004
C22	C	-1.253649	0.520901	0.500004
C23	C	-1.751251	0.098023	0.000010
C24	C	-1.251251	0.598023	0.500010
C25	C	-1.472288	-0.109390	-0.000014
C26	C	-0.972288	0.390610	0.499986
C27	C	-1.308529	-0.106989	-0.000014
C28	C	-0.808529	0.393011	0.499986
C29	C	-2.011782	-0.102642	-0.000013
C30	C	-1.511782	0.397358	0.499987
C31	C	-2.175541	-0.105043	-0.000018
C32	C	-1.675541	0.394957	0.499982
C33	C	-1.730421	-0.232933	-0.000031
C34	C	-1.230421	0.267067	0.499969
C35	C	-1.732819	-0.310055	-0.000042
C36	C	-1.232819	0.189945	0.499958
N37	N	-1.741986	-0.106007	0.188655
N38	N	-1.241986	0.393993	0.688655
C39	C	-1.884563	0.141684	0.000015
C40	C	-1.384563	0.641684	0.500015
C41	C	-1.882310	0.214149	0.000003
C42	C	-1.382310	0.714149	0.500003
C43	C	-1.746738	0.242949	0.000002
C44	C	-1.246738	0.742949	0.500002
C45	C	-1.613409	0.199278	-0.000006
C46	C	-1.113409	0.699278	0.499994
C47	C	-1.615666	0.126815	-0.000002
C48	C	-1.115666	0.626815	0.499998
C49	C	-1.640149	0.352066	0.042420
C50	C	-1.140149	0.852066	0.542420
C51	C	-1.637898	0.424528	0.042420
C52	C	-1.137898	0.924528	0.542420
C53	C	-1.739773	0.466448	-0.000014
C54	C	-1.239773	0.966448	0.499986
C55	C	-1.843923	0.435900	-0.042440
C56	C	-1.343923	0.935900	0.457560
C57	C	-1.846180	0.363437	-0.042436
C58	C	-1.346180	0.863437	0.457564
C59	C	-1.744276	0.321522	-0.000003
C60	C	-1.244276	0.821522	0.499997
C61	C	-1.870651	0.588685	-0.000024
C62	C	-1.370651	1.088685	0.499976
C63	C	-1.868392	0.661150	-0.000040
C64	C	-1.368392	1.161150	0.499960
C65	C	-1.599488	0.646278	-0.000042
C66	C	-1.099488	1.146278	0.499958
C67	C	-1.601750	0.573814	-0.000033
C68	C	-1.101750	1.073814	0.499967
C69	C	-1.737335	0.545022	-0.000021
C70	C	-1.237335	1.045022	0.499979
N71	N	-1.742096	-0.106019	-0.188681
N72	N	-1.242096	0.393981	0.311319
C73	C	-1.842624	-0.059443	0.226763
C74	C	-1.342624	0.440557	0.726763
C75	C	-1.842633	-0.059440	0.302990
C76	C	-1.342633	0.440560	0.802990
C77	C	-1.742019	-0.106013	0.341108
C78	C	-1.242019	0.393987	0.841108
C79	C	-1.641362	-0.152580	0.302992
C80	C	-1.141362	0.347420	0.802992
C81	C	-1.641346	-0.152577	0.226765
C82	C	-1.141346	0.347423	0.726765
C83	C	-1.722271	-0.169147	0.461859
C84	C	-1.222271	0.330853	0.961859
C85	C	-1.722297	-0.169151	0.538084
C86	C	-1.222297	0.330849	1.038084
C87	C	-1.742061	-0.106022	0.576216
C88	C	-1.242061	0.393978	1.076216
C89	C	-1.761829	-0.042886	0.538113
C90	C	-1.261829	0.457114	1.038113
C91	C	-1.761813	-0.042883	0.461886
C92	C	-1.261813	0.457117	0.961886
C93	C	-1.742025	-0.106021	0.423763
C94	C	-1.242025	0.393979	0.923763
C95	C	-1.842714	-0.059451	0.696978
C96	C	-1.342714	0.440549	1.196978
C97	C	-1.842713	-0.059447	0.773207
C98	C	-1.342713	0.440553	1.273207
C99	C	-1.641449	-0.152593	0.773207
C100	C	-1.141449	0.347407	1.273207
C101	C	-1.641443	-0.152591	0.696979
C102	C	-1.141443	0.347409	1.196979
C103	C	-1.742083	-0.106021	0.658869
C104	C	-1.242083	0.393979	1.158869
H105	H	-1.994967	0.118247	0.000022
H106	H	-1.494967	0.618247	0.500022
H107	H	-1.930979	0.338567	-0.076981
H108	H	-1.430979	0.838567	0.423019
H109	H	-1.553087	0.449394	0.076961
H110	H	-1.053087	0.949394	0.576961
H111	H	-1.924567	-0.021521	0.195736
H112	H	-1.424567	0.478479	0.695736
Br113	Br	-1.501879	0.295180	0.100016
Br114	Br	-1.001879	0.795180	0.600016
Br115	Br	-1.434728	0.067556	-0.000010
Br116	Br	-0.934728	0.567556	0.499990
H117	H	-1.559438	-0.190500	0.334031
H118	H	-1.059438	0.309500	0.834031
Br119	Br	-1.504755	-0.215775	0.175044
Br120	Br	-1.004755	0.284225	0.675044
H121	H	-1.990872	0.249704	0.000004
H122	H	-1.490872	0.749704	0.500004
Br123	Br	-1.429417	0.238362	-0.000017
Br124	Br	-0.929417	0.738362	0.499983
Br125	Br	-1.695486	-0.254834	0.589788
Br126	Br	-1.195486	0.245166	1.089788
H127	H	-1.981053	0.565241	-0.000017
H128	H	-1.481053	1.065241	0.499983
H129	H	-1.924587	-0.021521	0.334023
H130	H	-1.424587	0.478479	0.834023
H131	H	-1.706151	-0.220558	0.430819
H132	H	-1.206151	0.279442	0.930819
Br133	Br	-1.788625	0.042797	0.410177
Br134	Br	-1.288625	0.542797	0.910177
H135	H	-1.926878	0.470031	-0.076995
H136	H	-1.426878	0.970031	0.423005
H137	H	-1.777922	0.008520	0.569157
H138	H	-1.277922	0.508520	1.069157
Br139	Br	-1.979290	0.003753	0.645255
Br140	Br	-1.479290	0.503753	1.145255
Br141	Br	-1.504862	-0.215790	0.645256
Br142	Br	-1.004862	0.284210	1.145256
Br143	Br	-1.979290	0.003758	0.824928
Br144	Br	-1.479290	0.503758	1.324928
H145	H	-1.976955	0.696699	-0.000040
H146	H	-1.476955	1.196699	0.499960
Br147	Br	-1.420817	0.514555	-0.000038
Br148	Br	-0.920817	1.014555	0.499962
Br149	Br	-1.415493	0.685356	-0.000050
Br150	Br	-0.915493	1.185356	0.499950
Br151	Br	-1.504885	-0.215792	0.824932
Br152	Br	-1.004885	0.284208	1.324932
