data_functionalizedCrystal
_audit_creation_method	'MofGen! by Chris Wilmer'
_symmetry_space_group_name_H-M	'P1'
_symmetry_Int_Tables_number	1
_symmetry_cell_setting	triclinic
loop_
_symmetry_equiv_pos_as_xyz
  x,y,z
_cell_length_a	16.120484
_cell_length_b	16.625548
_cell_length_c	16.625539
_cell_angle_alpha	89.979432
_cell_angle_beta	92.868615
_cell_angle_gamma	92.926626
loop_
_atom_site_label
_atom_site_type_symbol
_atom_site_fract_x
_atom_site_fract_y
_atom_site_fract_z
Zn1	Zn	-0.331882	1.216388	-0.472167
Zn2	Zn	-0.471307	1.209447	-0.344164
Zn3	Zn	-0.331914	1.081548	-0.337349
Zn4	Zn	-0.471259	1.074678	-0.478951
O5	O	-0.401591	1.145515	-0.408158
O6	O	-0.350384	1.328299	-0.455200
O7	O	-0.452849	1.192451	-0.230429
O8	O	-0.215244	1.105215	-0.349541
O9	O	-0.452819	1.323200	-0.361156
O10	O	-0.215221	1.204281	-0.448592
O11	O	-0.350438	1.098484	-0.225422
O12	O	-0.350392	0.967805	-0.356120
O13	O	-0.452737	1.093506	-0.590882
O14	O	-0.452768	0.962757	-0.460155
O15	O	-0.350338	1.197620	-0.585898
O16	O	-0.587966	1.185789	-0.367735
O17	O	-0.587931	1.086775	-0.466763
C18	C	-0.401579	0.936025	-0.408135
C19	C	-0.401594	0.846403	-0.408145
C20	C	-0.618199	1.134805	-0.418742
C21	C	-0.710865	1.130297	-0.423297
C22	C	-0.880527	1.122072	-0.431630
C23	C	-0.921814	1.169103	-0.384698
C24	C	-1.016220	1.164526	-0.389335
C25	C	-0.786113	1.126648	-0.426995
C26	C	-0.401599	0.518227	-0.408180
C27	C	-0.401595	0.609536	-0.408167
C28	C	-0.401597	0.682312	-0.408162
C29	C	-0.401592	0.773627	-0.408150
C30	C	-0.184136	1.156289	-0.397549
C31	C	-0.091470	1.160880	-0.393029
C32	C	-0.401529	1.145571	-0.618464
C33	C	-0.401502	1.145594	-0.708084
C34	C	-0.401603	1.355823	-0.408181
C35	C	-0.401609	1.445444	-0.408192
C36	C	-0.401409	1.145636	-1.036255
C37	C	-0.401437	1.145622	-0.944948
C38	C	-0.401456	1.145616	-0.872172
C39	C	-0.401483	1.145601	-0.780859
C40	C	-0.401592	1.145509	-0.198667
C41	C	-0.401384	1.145653	-0.109036
H42	H	-0.886260	1.212805	-0.341036
O43	O	-0.922842	1.069826	-0.483669
C44	C	-0.949832	0.931362	-0.523935
C45	C	-0.901832	0.990443	-0.464964
H46	H	-0.932877	0.867167	-0.508822
H47	H	-0.932696	0.946225	-0.588154
H48	H	-1.019512	0.936956	-0.518451
H49	H	-0.832141	0.984881	-0.470376
H50	H	-0.919037	0.975562	-0.400768
