data_functionalizedCrystal
_audit_creation_method	'MofGen! by Chris Wilmer'
_symmetry_space_group_name_H-M	'P1'
_symmetry_Int_Tables_number	1
_symmetry_cell_setting	triclinic
loop_
_symmetry_equiv_pos_as_xyz
  x,y,z
_cell_length_a	18.101389
_cell_length_b	19.077105
_cell_length_c	19.077068
_cell_angle_alpha	90.115316
_cell_angle_beta	87.722285
_cell_angle_gamma	92.315730
loop_
_atom_site_label
_atom_site_type_symbol
_atom_site_fract_x
_atom_site_fract_y
_atom_site_fract_z
Zn1	Zn	-0.477251	-1.062984	0.323060
Zn2	Zn	-0.358165	-1.058173	0.440549
Zn3	Zn	-0.348262	-0.945478	0.318333
Zn4	Zn	-0.476806	-0.940719	0.435801
O5	O	-0.415121	-1.001839	0.379436
O6	O	-0.465784	-1.160677	0.342610
O7	O	-0.253218	-1.043201	0.424345
O8	O	-0.361415	-0.965071	0.220629
O9	O	-0.378292	-1.157142	0.428929
O10	O	-0.456182	-1.051402	0.224102
O11	O	-0.245943	-0.960405	0.334554
O12	O	-0.360983	-0.846515	0.329950
O13	O	-0.580498	-0.956960	0.420837
O14	O	-0.455424	-0.843019	0.416254
O15	O	-0.580825	-1.046788	0.338006
O16	O	-0.377861	-1.038587	0.538250
O17	O	-0.465026	-0.952294	0.534762
C18	C	-0.407081	-0.819271	0.372074
C19	C	-0.403660	-0.741167	0.368942
C20	C	-0.422487	-0.994421	0.562002
C21	C	-0.425665	-0.991312	0.640108
C22	C	-0.608284	-1.001880	0.379419
C23	C	-0.690599	-1.001897	0.379413
C24	C	-0.989686	-1.001944	0.379283
C25	C	-0.958140	-0.945246	0.431217
C26	C	-0.872538	-0.945384	0.431474
C27	C	-0.841305	-1.001920	0.379347
C28	C	-0.876470	-1.075148	0.402427
C29	C	-0.962116	-1.074830	0.402771
C30	C	-0.954271	-0.986062	0.304173
C31	C	-0.868566	-0.984397	0.304536
C32	C	-0.757447	-1.001911	0.379382
C33	C	-1.073545	-1.001957	0.379249
C34	C	-0.222709	-1.001840	0.379403
C35	C	-0.140393	-1.001966	0.379217
C36	C	-0.423193	-1.185119	0.386826
C37	C	-0.426632	-1.263222	0.389976
C38	C	-0.451151	-0.702669	0.412472
C39	C	-0.447940	-0.629283	0.409519
C40	C	-0.397233	-0.594395	0.363040
C41	C	-0.349740	-0.632899	0.319506
C42	C	-0.352956	-0.706284	0.322455
C43	C	-0.382355	-0.375111	0.349390
C44	C	-0.379141	-0.301720	0.346446
C45	C	-0.477342	-0.298109	0.436459
C46	C	-0.480550	-0.371496	0.439407
C47	C	-0.433060	-0.409993	0.395870
N48	N	-0.393948	-0.519383	0.360023
N49	N	-0.436349	-0.485004	0.398884
C50	C	-0.407743	-1.009304	0.196157
C51	C	-0.404600	-1.012485	0.118054
C52	C	-0.381818	-1.034814	0.678596
C53	C	-0.384812	-1.031895	0.751984
C54	C	-0.431651	-0.985468	0.786883
C55	C	-0.475503	-0.941964	0.748390
C56	C	-0.472512	-0.944888	0.675003
C57	C	-0.445461	-0.971905	1.006174
C58	C	-0.448447	-0.968983	1.079566
C59	C	-0.357757	-1.058915	1.083156
C60	C	-0.354767	-1.061831	1.009767
C61	C	-0.398622	-1.018330	0.971280
N62	N	-0.434711	-0.982481	0.861898
N63	N	-0.395565	-1.021321	0.896267
H64	H	-0.975808	-0.890681	0.416551
H65	H	-0.349106	-1.067318	0.783318
N66	N	-0.502945	-0.738291	0.459960
N67	N	-0.545343	-0.703906	0.498822
H68	H	-0.581926	-0.729061	0.532362
H69	H	-0.521839	-0.399896	0.477257
N70	N	-0.312954	-1.103348	1.122460
N71	N	-0.244079	-1.099048	1.114113
H72	H	-0.212435	-1.130431	1.141872
H73	H	-0.486602	-0.931186	1.107979
N74	N	-0.327349	-0.266092	0.298953
N75	N	-0.330124	-0.276917	0.234450
H76	H	-0.293547	-0.251754	0.200910
N77	N	-0.990844	-1.092143	0.471758
N78	N	-1.059173	-1.095034	0.484486
H79	H	-1.079461	-1.107260	0.533210
N80	N	-0.839293	-0.916811	0.282776
N81	N	-0.798501	-0.881641	0.322178
H82	H	-0.777823	-0.833907	0.306812
H83	H	-0.982425	-0.955380	0.486488
N84	N	-0.306893	-1.109232	0.974125
N85	N	-0.256921	-1.086138	0.932244
H86	H	-0.223097	-1.119607	0.907076
H87	H	-0.847074	-1.022917	0.263548
N88	N	-0.853192	-1.092848	0.470705
N89	N	-0.810724	-1.051655	0.502488
H90	H	-0.794283	-1.064151	0.550711
H91	H	-0.516007	-0.266757	0.471903
H92	H	-0.854835	-0.955627	0.487086
N93	N	-0.523357	-0.894540	0.784023
N94	N	-0.591565	-0.899490	0.775972
H95	H	-0.625362	-0.865994	0.801136
H96	H	-0.983169	-1.118346	0.366747
N97	N	-0.851297	-1.129399	0.356625
N98	N	-0.807053	-1.114662	0.306342
H99	H	-0.789274	-1.152976	0.273992
H100	H	-0.508219	-0.909465	0.643666
H101	H	-0.848590	-0.890989	0.416686
H102	H	-0.486611	-0.597941	0.444967
H103	H	-0.343679	-0.406446	0.313945
H104	H	-0.308457	-0.604488	0.281658
N105	N	-0.490262	-0.927466	0.966878
N106	N	-0.532076	-0.886017	0.998048
H107	H	-0.563718	-0.854629	0.970293
N108	N	-0.979842	-1.037916	0.255592
N109	N	-1.023952	-1.086382	0.276102
H110	H	-1.042016	-1.123007	0.241797
H111	H	-0.972791	-0.933749	0.283725
N112	N	-0.304446	-0.745601	0.277979
N113	N	-0.259178	-0.714445	0.236479
H114	H	-0.224920	-0.742212	0.205062
H115	H	-0.343673	-1.072616	0.650186
