data_functionalizedCrystal
_audit_creation_method	'MofGen! by Chris Wilmer'
_symmetry_space_group_name_H-M	'P1'
_symmetry_Int_Tables_number	1
_symmetry_cell_setting	triclinic
loop_
_symmetry_equiv_pos_as_xyz
  x,y,z
_cell_length_a	12.645331
_cell_length_b	18.050589
_cell_length_c	12.645324
_cell_angle_alpha	89.967661
_cell_angle_beta	89.977038
_cell_angle_gamma	90.027200
loop_
_atom_site_label
_atom_site_type_symbol
_atom_site_fract_x
_atom_site_fract_y
_atom_site_fract_z
Zn1	Zn	1.620657	-0.295623	-0.599442
Zn2	Zn	1.620505	-0.419837	-0.422180
Zn3	Zn	1.443370	-0.295663	-0.422186
Zn4	Zn	1.443320	-0.419774	-0.599396
O5	O	1.531963	-0.357724	-0.510801
O6	O	1.768984	-0.312110	-0.575945
O7	O	1.596965	-0.403409	-0.273834
O8	O	1.466972	-0.191733	-0.445722
O9	O	1.768872	-0.403370	-0.445711
O10	O	1.597224	-0.191704	-0.575951
O11	O	1.466825	-0.312179	-0.273838
O12	O	1.295017	-0.312117	-0.445677
O13	O	1.466887	-0.403262	-0.747749
O14	O	1.294980	-0.403300	-0.575872
O15	O	1.597175	-0.312049	-0.747783
O16	O	1.596917	-0.523753	-0.445666
O17	O	1.466740	-0.523707	-0.575866
C18	C	1.256533	-0.357707	-0.510770
C19	C	1.138703	-0.357717	-0.510783
C20	C	0.971127	-0.300090	-0.429329
C21	C	1.093687	-0.300239	-0.428970
C22	C	1.094162	-0.435953	-0.480267
C23	C	0.971564	-0.435638	-0.479711
C24	C	0.971560	-0.337853	-0.623067
C25	C	1.094166	-0.336106	-0.622443
C26	C	1.531835	-0.550677	-0.510784
C27	C	1.531877	-0.633222	-0.510811
C28	C	1.461157	-0.832675	-0.581589
C29	C	1.435310	-0.882125	-0.484854
C30	C	1.531982	-0.784353	-0.510825
C31	C	1.557881	-0.881984	-0.607571
C32	C	1.532080	-0.930338	-0.510847
C33	C	1.506084	-0.832716	-0.414039
C34	C	1.628699	-0.832570	-0.536821
C35	C	1.602889	-0.881999	-0.440020
C36	C	1.531922	-0.700254	-0.510814
C37	C	1.532140	-1.014434	-0.510847
C38	C	1.808468	-0.357743	-0.510832
C39	C	1.926298	-0.357750	-0.510846
C40	C	1.532043	-0.357644	-0.787307
C41	C	1.532076	-0.357609	-0.905137
C42	C	1.532120	-0.164019	-0.510842
C43	C	1.532188	-0.081473	-0.510859
C44	C	1.614360	-0.300393	-1.072722
C45	C	1.614096	-0.300187	-0.950162
C46	C	1.420400	-0.336341	-0.949615
C47	C	1.420900	-0.335906	-1.072214
C48	C	1.560563	-0.436177	-1.072333
C49	C	1.563007	-0.435782	-0.949728
C50	C	1.531945	-0.357751	-0.235371
C51	C	1.532117	-0.357576	-0.117542
H52	H	0.942914	-0.452510	-0.397672
H53	H	1.396784	-0.278450	-1.100824
H54	H	0.941908	-0.480055	-0.536495
N55	N	0.930266	-0.317313	-0.319819
H56	H	0.959441	-0.280019	-0.267941
H57	H	0.850483	-0.314752	-0.319745
N58	N	1.736953	-0.803714	-0.565983
H59	H	1.736273	-0.747767	-0.565074
H60	H	1.790639	-0.822491	-0.513293
N61	N	0.932108	-0.223010	-0.454372
H62	H	0.956067	-0.208442	-0.527697
H63	H	0.852319	-0.222128	-0.451011
N64	N	1.336948	-0.388643	-1.111518
H65	H	1.370937	-0.428580	-1.155912
H66	H	1.299793	-0.412027	-1.049152
H67	H	1.507457	-0.480680	-0.919075
H68	H	1.357455	-0.376710	-0.920448
N69	N	1.671864	-0.457036	-0.911218
H70	H	1.720214	-0.464732	-0.973846
H71	H	1.700939	-0.416183	-0.865064
N72	N	1.132747	-0.259849	-0.652937
H73	H	1.103850	-0.246258	-0.724821
H74	H	1.107658	-0.222610	-0.598897
H75	H	1.662825	-0.903519	-0.380117
N76	N	1.586848	-0.910659	-0.715928
H77	H	1.533259	-0.892718	-0.769309
H78	H	1.659364	-0.891855	-0.736014
H79	H	1.123321	-0.480063	-0.537776
N80	N	1.387862	-0.261082	-0.908969
H81	H	1.445291	-0.240657	-0.861755
H82	H	1.376462	-0.226445	-0.970668
N83	N	1.327034	-0.910968	-0.455723
H84	H	1.306960	-0.892274	-0.383177
H85	H	1.273613	-0.893028	-0.509269
N86	N	1.476998	-0.804172	-0.305644
H87	H	1.410828	-0.773061	-0.310734
H88	H	1.463949	-0.847413	-0.256619
H89	H	0.940678	-0.281799	-0.650819
N90	N	1.666586	-0.461797	-1.113306
H91	H	1.723132	-0.425493	-1.091016
H92	H	1.683186	-0.512336	-1.083306
H93	H	1.696907	-0.313507	-0.920091
N94	N	1.724421	-0.317809	-1.111781
H95	H	1.722043	-0.362933	-1.158913
H96	H	1.752705	-0.274196	-1.153118
N97	N	1.481217	-0.492614	-1.110723
H98	H	1.482459	-0.494460	-1.190540
H99	H	1.499936	-0.542970	-1.081355
H100	H	1.123803	-0.242224	-0.448097
H101	H	1.124814	-0.375039	-0.686428
H102	H	0.942570	-0.379851	-0.683804
N103	N	1.381715	-0.803982	-0.660751
H104	H	1.308711	-0.822012	-0.640979
H105	H	1.382805	-0.748036	-0.660628
H106	H	1.124813	-0.453115	-0.399108
N107	N	1.589740	-0.223690	-1.113540
H108	H	1.525544	-0.225821	-1.160938
H109	H	1.575085	-0.189623	-1.051927
N110	N	1.132464	-0.317658	-0.318813
H111	H	1.105431	-0.367969	-0.296563
H112	H	1.212329	-0.317784	-0.318192
N113	N	1.589165	-0.223055	-0.911341
H114	H	1.517349	-0.207533	-0.938332
H115	H	1.588954	-0.222644	-0.831476
