data_functionalizedCrystal
_audit_creation_method	'MofGen! by Chris Wilmer'
_symmetry_space_group_name_H-M	'P1'
_symmetry_Int_Tables_number	1
_symmetry_cell_setting	triclinic
loop_
_symmetry_equiv_pos_as_xyz
  x,y,z
_cell_length_a	11.792241
_cell_length_b	14.853567
_cell_length_c	13.930277
_cell_angle_alpha	89.996364
_cell_angle_beta	89.995487
_cell_angle_gamma	96.085827
loop_
_atom_site_label
_atom_site_type_symbol
_atom_site_fract_x
_atom_site_fract_y
_atom_site_fract_z
O1	O	0.148166	-1.196946	0.079765
O2	O	0.165818	-0.934555	0.079782
O3	O	-0.008218	-1.072118	0.079766
O4	O	0.322202	-1.059383	0.079780
O5	O	-0.008191	-1.072098	-0.079896
O6	O	0.165845	-0.934535	-0.079880
O7	O	0.148193	-1.196926	-0.079897
Zn8	Zn	0.157023	-1.065727	-0.105238
Zn9	Zn	0.156988	-1.065754	0.105123
O10	O	0.322228	-1.059363	-0.079881
C11	C	0.165032	-0.900953	-0.000047
C12	C	0.162635	-0.800860	-0.000041
C13	C	-0.050491	-1.071308	-0.000064
C14	C	-0.176489	-1.068913	-0.000063
C15	C	0.148979	-1.230527	-0.000066
C16	C	0.151376	-1.330621	-0.000066
C17	C	-0.407174	-1.064511	-0.000047
C18	C	-0.278804	-1.066957	-0.000056
C19	C	0.364501	-1.060173	-0.000049
C20	C	0.490500	-1.062567	-0.000044
N21	N	0.157046	-1.065715	-0.248804
C22	C	0.049122	-0.387884	-0.000068
C23	C	0.255880	-0.367408	-0.000058
C24	C	0.258134	-0.461451	-0.000055
C25	C	0.155880	-0.518715	-0.000056
C26	C	0.051372	-0.481936	-0.000062
C27	C	0.362640	-0.498237	-0.000040
C28	C	0.364898	-0.592285	-0.000035
C29	C	0.262642	-0.649550	-0.000044
C30	C	0.158131	-0.612766	-0.000050
C31	C	0.055877	-0.670030	-0.000052
C32	C	-0.048637	-0.633248	-0.000065
C33	C	-0.050883	-0.539201	-0.000070
C34	C	0.264889	-0.743596	-0.000039
C35	C	0.058127	-0.764081	-0.000046
C36	C	0.225931	-1.120778	-0.701064
C37	C	0.087998	-1.010757	-0.701053
C38	C	0.088017	-1.010743	-0.600557
C39	C	0.156992	-1.065749	-0.550310
C40	C	0.225949	-1.120768	-0.600559
C41	C	0.019052	-0.955732	-0.550301
C42	C	0.019067	-0.955717	-0.449799
C43	C	0.088049	-1.010718	-0.399550
C44	C	0.157010	-1.065739	-0.449805
C45	C	0.225985	-1.120744	-0.399558
C46	C	0.294953	-1.175761	-0.449812
C47	C	0.294931	-1.175769	-0.550310
C48	C	0.088071	-1.010710	-0.299051
C49	C	0.226003	-1.120734	-0.299053
N50	N	0.156955	-1.065772	0.248689
H51	H	-0.025142	-0.810700	-0.000052
C52	C	0.479863	-0.632736	-0.000036
N53	N	0.566456	-0.663205	-0.000043
C54	C	0.370780	-1.236288	-0.605596
N55	N	0.427904	-1.281874	-0.647242
H56	H	0.339131	-0.320779	-0.000048
C57	C	0.379846	-0.784053	-0.000024
N58	N	0.466438	-0.814524	-0.000015
C59	C	0.301882	-1.181247	-0.243790
N60	N	0.359033	-1.226827	-0.202166
H61	H	0.445889	-0.451606	-0.000028
H62	H	-0.037090	-0.910919	-0.408891
H63	H	-0.131891	-0.679884	-0.000060
C64	C	0.370815	-1.236271	-0.394527
N65	N	0.427952	-1.281847	-0.352883
H66	H	0.282086	-1.165568	-0.741985
H67	H	0.031834	-0.965980	-0.741970
H68	H	0.031915	-0.965919	-0.258139
H69	H	-0.035970	-0.357932	-0.000082
C70	C	-0.165837	-0.498733	-0.000077
N71	N	-0.252420	-0.468248	-0.000078
C72	C	-0.056812	-0.895228	-0.605578
N73	N	-0.113952	-0.849651	-0.647217
