data_functionalizedCrystal
_audit_creation_method	'MofGen! by Chris Wilmer'
_symmetry_space_group_name_H-M	'P1'
_symmetry_Int_Tables_number	1
_symmetry_cell_setting	triclinic
loop_
_symmetry_equiv_pos_as_xyz
  x,y,z
_cell_length_a	14.971486
_cell_length_b	9.798715
_cell_length_c	14.971486
_cell_angle_alpha	89.996394
_cell_angle_beta	96.385871
_cell_angle_gamma	89.998745
loop_
_atom_site_label
_atom_site_type_symbol
_atom_site_fract_x
_atom_site_fract_y
_atom_site_fract_z
O1	O	1.186944	0.113335	-0.116561
O2	O	0.926544	0.113372	-0.130520
O3	O	1.063723	0.113343	0.006660
O4	O	1.049764	0.113364	-0.253740
O5	O	1.063713	-0.113640	0.006661
O6	O	0.926534	-0.113610	-0.130519
O7	O	1.186934	-0.113647	-0.116560
Zn8	Zn	1.056732	-0.149667	-0.123539
Zn9	Zn	1.056745	0.149392	-0.123541
O10	O	1.049754	-0.113618	-0.253740
C11	C	0.893214	-0.000114	-0.129895
C12	C	0.793917	-0.000100	-0.128024
C13	C	0.736692	-0.000096	-0.208614
C14	C	0.643392	-0.000116	-0.206850
C15	C	0.607320	-0.000132	-0.124497
C16	C	0.664552	-0.000140	-0.043902
C17	C	0.757850	-0.000130	-0.045666
C18	C	0.470090	-0.000160	-0.040231
C19	C	0.376786	-0.000168	-0.038466
C20	C	0.355632	-0.000146	-0.201415
C21	C	0.448930	-0.000135	-0.203179
C22	C	0.506156	-0.000142	-0.122584
N23	N	1.056729	-0.353767	-0.123538
C24	C	1.108499	-0.421548	-0.175016
C25	C	1.108514	-0.578711	-0.175015
C26	C	1.220263	-0.000158	-0.117185
C27	C	1.319561	-0.000163	-0.119056
C28	C	1.063094	-0.000148	0.039985
C29	C	1.061223	-0.000146	0.139282
N30	N	1.056755	0.353491	-0.123535
C31	C	1.050384	-0.000125	-0.287065
C32	C	1.052254	-0.000117	-0.386362
C33	C	1.141812	-0.000159	0.196507
C34	C	1.140049	-0.000145	0.289807
C35	C	1.057696	-0.000128	0.325879
C36	C	0.977101	-0.000112	0.268646
C37	C	0.978865	-0.000116	0.175349
C38	C	0.973430	-0.000106	0.463109
C39	C	0.971665	-0.000105	0.556413
C40	C	1.134614	-0.000135	0.577567
C41	C	1.136378	-0.000140	0.484269
C42	C	1.055782	-0.000125	0.427043
H43	H	0.804443	-0.000133	0.019958
H44	H	1.012420	-0.412089	-0.079462
H45	H	1.208874	-0.000181	0.167145
O46	O	1.218417	-0.000227	0.345267
C47	C	1.380225	-0.000197	0.356403
C48	C	1.291538	-0.000136	0.293492
H49	H	1.439366	-0.000095	0.314569
H50	H	1.383525	-0.095209	0.400601
H51	H	1.383436	0.094774	0.400625
H52	H	1.288268	-0.095043	0.249215
H53	H	1.288274	0.094939	0.249356
O54	O	0.341845	-0.000009	0.041583
C55	C	0.331314	0.117590	0.181375
C56	C	0.370963	0.117562	0.090760
H57	H	0.354825	0.212650	0.221152
H58	H	0.354898	0.022653	0.221264
H59	H	0.254804	0.117524	0.168760
H60	H	0.447475	0.117676	0.103294
H61	H	0.347310	0.212490	0.050900
O62	O	0.483859	0.000070	-0.283235
C63	C	0.494348	0.117737	-0.423019
C64	C	0.454719	0.117658	-0.332394
H65	H	0.470820	0.212811	-0.462782
H66	H	0.470767	0.022814	-0.462914
H67	H	0.570859	0.117681	-0.410419
H68	H	0.378207	0.117762	-0.344912
H69	H	0.478371	0.212572	-0.292528
O70	O	0.629663	-0.000212	0.036175
C71	C	0.660500	-0.000134	0.197611
C72	C	0.700127	-0.000093	0.106986
H73	H	0.717451	-0.000009	0.254886
H74	H	0.617384	-0.095148	0.202575
H75	H	0.617316	0.094835	0.202459
H76	H	0.743352	-0.094998	0.102077
H77	H	0.743191	0.094984	0.102060
O78	O	1.212929	-0.000382	0.633117
C79	C	1.351675	-0.117960	0.679724
C80	C	1.263014	-0.117859	0.616772
H81	H	1.392202	-0.212916	0.666519
H82	H	1.336321	-0.118034	0.752620
H83	H	1.392169	-0.022937	0.666596
H84	H	1.222477	-0.212866	0.629820
H85	H	1.278431	-0.117714	0.543898
O86	O	0.891591	-0.000007	0.591307
C87	C	0.730153	-0.000007	0.560485
C88	C	0.820774	-0.000095	0.520849
H89	H	0.672874	-0.000108	0.503539
H90	H	0.725215	0.095013	0.603599
H91	H	0.725288	-0.094971	0.603673
H92	H	0.825701	0.094804	0.477620
H93	H	0.825673	-0.095178	0.477786
O94	O	1.003737	-0.577055	-0.071055
C95	C	0.853048	-0.533177	-0.036297
C96	C	0.912984	-0.611903	-0.095806
H97	H	0.779663	-0.561344	-0.056274
H98	H	0.862375	-0.418797	-0.045673
H99	H	0.872748	-0.561179	0.037163
H100	H	0.893322	-0.584016	-0.169287
H101	H	0.903649	-0.726264	-0.086353
H102	H	1.203437	-0.000163	0.454903
H103	H	1.152815	-0.363226	-0.219086
O104	O	1.161521	-0.648088	-0.227544
C105	C	1.312218	-0.692108	-0.262227
C106	C	1.252289	-0.613427	-0.202689
H107	H	1.385617	-0.664135	-0.242141
H108	H	1.292640	-0.664062	-0.335701
H109	H	1.302761	-0.806463	-0.252877
H110	H	1.261715	-0.499053	-0.211961
H111	H	1.271881	-0.641586	-0.129238
H112	H	0.907800	-0.000091	0.416517
H113	H	0.766054	-0.000082	-0.275675
H114	H	0.910047	-0.000089	0.298024
H115	H	0.309033	-0.000147	-0.267039
H116	H	0.596802	-0.000111	-0.272474
H117	H	0.516682	-0.000167	0.025399
H118	H	0.913240	-0.000105	0.128756
