data_functionalizedCrystal
_audit_creation_method	'MofGen! by Chris Wilmer'
_symmetry_space_group_name_H-M	'P1'
_symmetry_Int_Tables_number	1
_symmetry_cell_setting	triclinic
loop_
_symmetry_equiv_pos_as_xyz
  x,y,z
_cell_length_a	10.654562
_cell_length_b	10.967829
_cell_length_c	9.730223
_cell_angle_alpha	77.870761
_cell_angle_beta	89.996961
_cell_angle_gamma	84.601947
loop_
_atom_site_label
_atom_site_type_symbol
_atom_site_fract_x
_atom_site_fract_y
_atom_site_fract_z
O1	O	1.667798	0.175346	-0.155905
O2	O	1.302319	0.192028	-0.159839
O3	O	1.493489	0.002112	-0.114863
O4	O	1.476628	0.365262	-0.200881
O5	O	1.493487	0.002116	0.113716
O6	O	1.302317	0.192033	0.068740
O7	O	1.667796	0.175350	0.072674
Zn8	Zn	1.485056	0.183692	0.106999
Zn9	Zn	1.485059	0.183686	-0.194164
O10	O	1.476626	0.365267	0.027698
C11	C	1.255521	0.190802	-0.045256
C12	C	1.116079	0.187128	-0.044379
C13	C	1.050547	0.185416	0.080614
C14	C	0.919525	0.181973	0.081407
C15	C	0.919578	0.181959	-0.167800
C16	C	1.050598	0.185393	-0.168589
C17	C	1.050515	0.185430	0.224491
C18	C	0.919493	0.181987	0.225283
C19	C	1.492261	-0.044386	0.010438
C20	C	1.488590	-0.182942	0.043248
C21	C	1.486955	-0.244710	-0.060536
C22	C	1.483161	-0.387915	-0.026627
C23	C	1.714595	0.176576	-0.041912
C24	C	1.854037	0.180251	-0.042798
C25	C	1.477854	0.411764	-0.097606
C26	C	1.481525	0.550320	-0.130426
N27	N	1.485063	0.183696	0.312534
N28	N	1.485062	0.183673	-0.399697
C29	C	1.569735	0.099630	0.404369
C30	C	1.569732	0.099614	0.548255
C31	C	1.400381	0.267743	0.508457
C32	C	1.400379	0.267751	0.364575
C33	C	1.667513	0.002566	0.427346
C34	C	1.667509	0.002550	0.571232
H35	H	1.080075	0.276443	0.247576
H36	H	1.487173	-0.236076	0.157205
H37	H	1.488358	-0.191574	-0.174493
C38	C	0.857531	0.296714	0.272054
C39	C	0.726548	0.292876	0.272918
C40	C	0.669438	0.398456	0.316161
H41	H	0.877978	0.370374	0.208893
H42	H	0.887182	0.297264	0.363983
H43	H	0.696908	0.292338	0.181003
H44	H	0.706065	0.219239	0.336081
H45	H	0.699089	0.399006	0.408090
H46	H	0.689895	0.472108	0.252996
H47	H	0.580562	0.395860	0.316766
C48	C	1.308384	0.359153	0.265085
C49	C	1.234248	0.432781	0.341457
C50	C	1.149496	0.517007	0.249851
H51	H	1.255610	0.313915	0.219668
H52	H	1.353963	0.411601	0.196565
H53	H	1.188672	0.380340	0.409952
H54	H	1.286988	0.478046	0.386870
H55	H	1.195075	0.569455	0.181331
H56	H	1.096730	0.471759	0.204439
H57	H	1.099193	0.566982	0.301654
H58	H	1.764017	0.023936	0.605213
C59	C	1.481225	-0.458515	0.125425
C60	C	1.483439	-0.373772	0.214600
C61	C	1.481639	-0.438762	0.354674
H62	H	1.552967	-0.518189	0.144855
H63	H	1.406739	-0.500395	0.140527
H64	H	1.557916	-0.331913	0.199505
H65	H	1.411701	-0.314096	0.195215
H66	H	1.407154	-0.480642	0.369777
H67	H	1.553383	-0.498434	0.374090
H68	H	1.483130	-0.381273	0.415197
C69	C	1.308384	0.358802	0.565188
C70	C	1.230962	0.291600	0.663727
C71	C	1.146210	0.375444	0.716027
H72	H	1.257833	0.408907	0.490036
H73	H	1.353968	0.411149	0.609003
H74	H	1.185381	0.239275	0.619912
H75	H	1.281478	0.241499	0.738905
H76	H	1.191795	0.427790	0.759842
H77	H	1.095669	0.425544	0.640866
H78	H	1.093678	0.329860	0.782901
C79	C	1.638668	-0.125270	0.405626
C80	C	1.520095	-0.151223	0.459897
C81	C	1.493470	-0.268961	0.439901
H82	H	1.701096	-0.187496	0.452868
H83	H	1.638591	-0.125296	0.307993
H84	H	1.520182	-0.151207	0.557512
H85	H	1.457642	-0.089027	0.412667
H86	H	1.493393	-0.268988	0.342267
H87	H	1.555905	-0.331178	0.487143
H88	H	1.413012	-0.286581	0.476708
H89	H	1.482919	-0.396549	-0.244391
H90	H	1.637010	-0.088093	0.637319
C91	C	0.848381	0.180341	-0.302671
C92	C	0.759993	0.285555	-0.334904
C93	C	0.694397	0.284117	-0.459149
H94	H	0.806100	0.106438	-0.290487
H95	H	0.906128	0.181920	-0.377284
H96	H	0.702254	0.283964	-0.260309
H97	H	0.802240	0.359474	-0.347115
H98	H	0.752145	0.285697	-0.533762
H99	H	0.652125	0.210211	-0.446953
H100	H	0.634427	0.355509	-0.481041
C101	C	1.111994	0.070326	0.325404
C102	C	1.018615	-0.003516	0.387923
C103	C	1.075203	-0.109565	0.480871
H104	H	1.158379	0.095673	0.396190
H105	H	1.167328	0.023115	0.275246
H106	H	0.963303	0.043686	0.438078
H107	H	0.972223	-0.028896	0.317171
H108	H	1.130536	-0.156776	0.430714
H109	H	1.121586	-0.084206	0.551649
H110	H	1.011854	-0.159686	0.523292
H111	H	1.758691	0.032963	0.375515
H112	H	0.889918	0.090977	0.291486
H113	H	1.103952	0.186767	-0.270366
