data_functionalizedCrystal
_audit_creation_method	'MofGen! by Chris Wilmer'
_symmetry_space_group_name_H-M	'P1'
_symmetry_Int_Tables_number	1
_symmetry_cell_setting	triclinic
loop_
_symmetry_equiv_pos_as_xyz
  x,y,z
_cell_length_a	14.519709
_cell_length_b	18.366186
_cell_length_c	19.288862
_cell_angle_alpha	90.013742
_cell_angle_beta	96.592285
_cell_angle_gamma	89.996571
loop_
_atom_site_label
_atom_site_type_symbol
_atom_site_fract_x
_atom_site_fract_y
_atom_site_fract_z
O1	O	1.223295	-0.060467	-0.091051
O2	O	1.723295	0.439533	0.408949
O3	O	0.954750	-0.060491	-0.101773
O4	O	1.454750	0.439509	0.398227
O5	O	1.096783	-0.060460	0.004690
O6	O	1.596783	0.439540	0.504690
O7	O	1.081261	-0.060499	-0.197515
O8	O	1.581261	0.439501	0.302485
O9	O	1.096759	0.060639	0.004696
O10	O	1.596759	0.560639	0.504696
O11	O	0.954726	0.060608	-0.101768
O12	O	1.454726	0.560608	0.398232
O13	O	1.223271	0.060632	-0.091046
O14	O	1.723271	0.560632	0.408954
Zn15	Zn	1.088994	0.079847	-0.096406
Zn16	Zn	1.588994	0.579847	0.403594
Zn17	Zn	1.089026	-0.079706	-0.096413
Zn18	Zn	1.589026	0.420294	0.403587
O19	O	1.081237	0.060601	-0.197509
O20	O	1.581237	0.560601	0.302491
C21	C	0.920381	0.000056	-0.101271
C22	C	1.420381	0.500056	0.398729
C23	C	0.818009	0.000048	-0.099773
C24	C	1.318009	0.500048	0.400227
N25	N	1.088979	0.188738	-0.096401
N26	N	1.588979	0.688738	0.403599
N27	N	1.089048	-0.188597	-0.096413
N28	N	1.589048	0.311403	0.403587
C29	C	0.443149	0.000082	-0.094261
C30	C	0.943149	0.500082	0.405739
C31	C	0.547447	0.000072	-0.095792
C32	C	1.047447	0.500072	0.404208
C33	C	0.630576	0.000064	-0.097017
C34	C	1.130576	0.500064	0.402983
C35	C	0.734880	0.000056	-0.098548
C36	C	1.234880	0.500056	0.401452
C37	C	1.257639	0.000083	-0.091548
C38	C	1.757639	0.500083	0.408452
C39	C	1.360011	0.000087	-0.093045
C40	C	1.860011	0.500087	0.406955
C41	C	1.096272	0.000093	0.030571
C42	C	1.596272	0.500093	0.530571
C43	C	1.094774	0.000102	0.107680
C44	C	1.594774	0.500102	0.607680
C45	C	1.151892	0.226853	-0.049282
C46	C	1.651892	0.726853	0.450718
C47	C	1.151898	0.303080	-0.049279
C48	C	1.651898	0.803080	0.450721
C49	C	1.089000	0.341191	-0.096407
C50	C	1.589000	0.841191	0.403593
C51	C	1.026075	0.303068	-0.143529
C52	C	1.526075	0.803068	0.356471
C53	C	1.026065	0.226841	-0.143526
C54	C	1.526065	0.726841	0.356474
C55	C	1.076654	0.461939	-0.159650
C56	C	1.576654	0.961939	0.340350
C57	C	1.076671	0.538164	-0.159654
C58	C	1.576671	1.038164	0.340346
C59	C	1.089026	0.576299	-0.096415
C60	C	1.589026	1.076299	0.403585
C61	C	1.101385	0.538199	-0.033170
C62	C	1.601385	1.038199	0.466830
C63	C	1.101374	0.461973	-0.033167
C64	C	1.601374	0.961973	0.466833
C65	C	1.089004	0.423846	-0.096415
C66	C	1.589004	0.923846	0.403585
C67	C	1.151949	0.697068	-0.049289
C68	C	1.651949	1.197068	0.450711
C69	C	1.151948	0.773297	-0.049285
C70	C	1.651948	1.273297	0.450715
C71	C	1.026130	0.773283	-0.143541
C72	C	1.526130	1.273283	0.356459
C73	C	1.026126	0.697055	-0.143539
C74	C	1.526126	1.197055	0.356461
C75	C	1.089040	0.658952	-0.096414
C76	C	1.589040	1.158952	0.403586
C77	C	1.178112	0.000115	0.152077
C78	C	1.678112	0.500115	0.652077
C79	C	1.176705	0.000106	0.224529
C80	C	1.676705	0.500106	0.724529
C81	C	1.091954	0.000100	0.252582
C82	C	1.591954	0.500100	0.752582
C83	C	1.008605	0.000083	0.208175
C84	C	1.508605	0.500083	0.708175
C85	C	1.010015	0.000084	0.135725
C86	C	1.510015	0.500084	0.635725
C87	C	1.025323	0.042517	0.361111
C88	C	1.525323	0.542517	0.861111
C89	C	1.023916	0.042520	0.433560
C90	C	1.523916	0.542520	0.933560
C91	C	1.087602	0.000092	0.476043
C92	C	1.587602	0.500092	0.976043
C93	C	1.152710	-0.042329	0.446069
C94	C	1.652710	0.457671	0.946069
C95	C	1.154120	-0.042328	0.373618
C96	C	1.654120	0.457672	0.873618
C97	C	1.090416	0.000098	0.331141
C98	C	1.590416	0.500098	0.831141
C99	C	1.169420	0.000095	0.599001
C100	C	1.669420	0.500095	1.099001
C101	C	1.168009	0.000081	0.671454
C102	C	1.668009	0.500081	1.171454
C103	C	0.999907	0.000065	0.655099
C104	C	1.499907	0.500065	1.155099
C105	C	1.001320	0.000071	0.582647
C106	C	1.501320	0.500071	1.082647
C107	C	1.086079	0.000089	0.554603
C108	C	1.586079	0.500089	1.054603
C109	C	1.081751	0.000057	0.776610
C110	C	1.581751	0.500057	1.276610
C111	C	1.083258	0.000074	0.699502
C112	C	1.583258	0.500074	1.199502
H113	H	1.203119	0.195831	-0.010908
H114	H	1.703119	0.695831	0.489092
F115	F	0.959183	0.813839	-0.193694
F116	F	1.459183	1.313839	0.306306
H117	H	1.244571	0.000114	0.260684
H118	H	1.744571	0.500114	0.760684
H119	H	0.939600	0.000076	0.231020
H120	H	1.439600	0.500076	0.731020
F121	F	0.959131	0.343628	-0.193684
F122	F	1.459131	0.843628	0.306316
F123	F	0.912619	0.000061	0.535395
F124	F	1.412619	0.500061	1.035395
F125	F	0.957536	0.087679	0.315904
F126	F	1.457536	0.587679	0.815904
H127	H	1.238436	0.000106	0.576166
H128	H	1.738436	0.500106	1.076166
F129	F	0.909708	0.000055	0.684950
F130	F	1.409708	0.500055	1.184950
H131	H	1.203177	0.804330	-0.010912
H132	H	1.703177	1.304330	0.489088
H133	H	0.942148	0.000074	0.099576
H134	H	1.442148	0.500074	0.599576
H135	H	1.111445	0.569247	0.018325
H136	H	1.611445	1.069247	0.518325
H137	H	0.974900	0.666020	-0.181911
H138	H	1.474900	1.166020	0.318089
H139	H	1.203131	0.334119	-0.010908
H140	H	1.703131	0.834119	0.489092
H141	H	0.974833	0.195808	-0.181897
H142	H	1.474833	0.695808	0.318103
F143	F	1.223406	-0.087478	0.341719
F144	F	1.723406	0.412522	0.841719
H145	H	1.203175	0.666043	-0.010915
H146	H	1.703175	1.166043	0.489085
F147	F	1.114519	0.421428	0.034140
F148	F	1.614519	0.921428	0.534140
H149	H	1.066613	0.569178	-0.211152
H150	H	1.566613	1.069178	0.288848
H151	H	1.247130	0.000127	0.129248
H152	H	1.747130	0.500127	0.629248
F153	F	0.954627	0.087671	0.465455
F154	F	1.454627	0.587671	0.965455
H155	H	1.066576	0.430896	-0.211150
H156	H	1.566576	0.930896	0.288850
F157	F	1.220494	-0.087488	0.491276
F158	F	1.720494	0.412512	0.991276
F159	F	1.256715	0.000090	0.718705
F160	F	1.756715	0.500090	1.218705
