data_functionalizedCrystal
_audit_creation_method	'MofGen! by Chris Wilmer'
_symmetry_space_group_name_H-M	'P1'
_symmetry_Int_Tables_number	1
_symmetry_cell_setting	triclinic
loop_
_symmetry_equiv_pos_as_xyz
  x,y,z
_cell_length_a	10.654541
_cell_length_b	14.044220
_cell_length_c	9.730217
_cell_angle_alpha	89.995579
_cell_angle_beta	89.999932
_cell_angle_gamma	88.836403
loop_
_atom_site_label
_atom_site_type_symbol
_atom_site_fract_x
_atom_site_fract_y
_atom_site_fract_z
O1	O	1.681226	0.133219	-0.114252
O2	O	1.317022	0.145915	-0.114264
O3	O	1.493657	0.001546	-0.114245
O4	O	1.504591	0.277587	-0.114271
O5	O	1.493651	0.001545	0.114335
O6	O	1.317016	0.145914	0.114316
O7	O	1.681220	0.133218	0.114328
Zn8	Zn	1.499117	0.139565	0.150614
Zn9	Zn	1.499125	0.139567	-0.150550
O10	O	1.504585	0.277586	0.114309
C11	C	1.270128	0.144983	0.000024
C12	C	1.130404	0.142195	0.000020
C13	C	1.488869	-0.033800	0.000046
C14	C	1.474593	-0.139120	0.000047
C15	C	1.119781	0.314827	-0.000014
C16	C	1.048829	0.399829	-0.000036
C17	C	0.917547	0.397204	-0.000037
C18	C	0.857215	0.309567	-0.000012
C19	C	0.928167	0.224565	0.000011
C20	C	1.059452	0.227199	0.000008
C21	C	0.938790	0.051935	0.000054
C22	C	1.070072	0.054558	0.000046
C23	C	0.878458	-0.035701	0.000080
C24	C	0.949411	-0.120706	0.000092
C25	C	1.080701	-0.118077	0.000092
C26	C	1.141025	-0.030444	0.000068
C27	C	1.448494	-0.331952	0.000026
C28	C	1.549742	-0.388921	0.000026
C29	C	1.535221	-0.496219	0.000014
C30	C	1.463014	-0.224644	0.000038
C31	C	1.728114	0.134150	0.000037
C32	C	1.867838	0.136938	0.000032
C33	C	1.509374	0.312933	0.000015
C34	C	1.523649	0.418252	0.000005
N35	N	1.499121	0.139564	0.356151
N36	N	1.499131	0.139561	-0.356087
C37	C	1.655605	0.011763	0.356159
C38	C	1.733855	-0.052135	0.428102
C39	C	1.733868	-0.052135	0.571982
C40	C	1.655619	0.011767	0.643921
C41	C	1.577368	0.075664	0.571978
C42	C	1.577367	0.075660	0.428095
C43	C	1.420880	0.203459	0.571970
C44	C	1.420872	0.203466	0.428090
C45	C	1.342631	0.267361	0.643909
C46	C	1.264385	0.331265	0.571965
C47	C	1.264376	0.331263	0.428076
C48	C	1.342621	0.267363	0.356146
H49	H	1.097966	0.471181	-0.000053
H50	H	1.655623	0.011755	0.761076
O51	O	0.848807	0.479862	-0.000122
C52	C	0.930199	0.557775	-0.000105
H53	H	1.025343	0.534347	-0.043369
H54	H	0.888550	0.617377	-0.066485
H55	H	0.942521	0.584604	0.109550
O56	O	1.332052	-0.369851	-0.000218
C57	C	1.266367	-0.339302	-0.118578
H58	H	1.336249	-0.318177	-0.201324
H59	H	1.206322	-0.399668	-0.158315
H60	H	1.203417	-0.275361	-0.091804
H61	H	0.750318	0.307437	0.000004
H62	H	1.797562	-0.104165	0.369517
O63	O	1.655716	0.011615	0.216395
C64	C	1.741584	-0.058464	0.168327
H65	H	1.757189	-0.114821	0.251243
H66	H	1.702319	-0.093273	0.072070
H67	H	1.834677	-0.023968	0.142798
H68	H	0.771562	-0.037833	0.000087
H69	H	1.647330	-0.357109	-0.000063
H70	H	1.247921	-0.028295	0.000051
O71	O	1.809988	-0.114244	0.641662
C72	C	1.879018	-0.170668	0.547324
H73	H	1.884796	-0.131770	0.444754
H74	H	1.977761	-0.184436	0.588901
H75	H	1.830321	-0.241421	0.532034
H76	H	1.342639	0.267354	0.761063
H77	H	1.200674	0.383285	0.630547
O78	O	1.188325	0.393426	0.358407
C79	C	1.119246	0.449803	0.452761
H80	H	1.170898	0.451237	0.555320
H81	H	1.108538	0.525425	0.411188
H82	H	1.022446	0.418337	0.468072
H83	H	1.342626	0.267360	0.238991
H84	H	1.226677	0.316973	-0.000043
H85	H	1.138463	-0.187297	0.000115
O86	O	0.890607	-0.205745	0.000058
C87	C	0.759521	-0.189834	0.000103
H88	H	0.737029	-0.116013	-0.043185
H89	H	0.713008	-0.245960	-0.066243
H90	H	0.722527	-0.194665	0.109770
