data_functionalizedCrystal
_audit_creation_method	'MofGen! by Chris Wilmer'
_symmetry_space_group_name_H-M	'P1'
_symmetry_Int_Tables_number	1
_symmetry_cell_setting	triclinic
loop_
_symmetry_equiv_pos_as_xyz
  x,y,z
_cell_length_a	19.805407
_cell_length_b	18.050590
_cell_length_c	19.805399
_cell_angle_alpha	90.027426
_cell_angle_beta	90.019573
_cell_angle_gamma	90.018553
loop_
_atom_site_label
_atom_site_type_symbol
_atom_site_fract_x
_atom_site_fract_y
_atom_site_fract_z
Zn1	Zn	1.034773	-0.295677	0.382720
Zn2	Zn	1.284773	-0.045677	0.632720
Zn3	Zn	1.534773	0.204323	0.882720
Zn4	Zn	1.784773	0.454323	1.132720
Zn5	Zn	1.034703	-0.419869	0.269532
Zn6	Zn	1.284703	-0.169869	0.519532
Zn7	Zn	1.534703	0.080131	0.769532
Zn8	Zn	1.784703	0.330131	1.019532
Zn9	Zn	0.921587	-0.295697	0.269545
Zn10	Zn	1.171587	-0.045697	0.519545
Zn11	Zn	1.421587	0.204303	0.769545
Zn12	Zn	1.671587	0.454303	1.019545
Zn13	Zn	0.921566	-0.419829	0.382679
Zn14	Zn	1.171566	-0.169829	0.632679
Zn15	Zn	1.421566	0.080171	0.882679
Zn16	Zn	1.671566	0.330171	1.132679
O17	O	0.978157	-0.357768	0.326119
O18	O	1.228157	-0.107768	0.576119
O19	O	1.478157	0.142232	0.826119
O20	O	1.728157	0.392232	1.076119
O21	O	1.129480	-0.312159	0.367718
O22	O	1.379480	-0.062159	0.617718
O23	O	1.629480	0.187841	0.867718
O24	O	1.879480	0.437841	1.117718
O25	O	1.019678	-0.403422	0.174817
O26	O	1.269678	-0.153422	0.424817
O27	O	1.519678	0.096578	0.674817
O28	O	1.769678	0.346578	0.924817
O29	O	0.936639	-0.191770	0.284580
O30	O	1.186639	0.058230	0.534580
O31	O	1.436639	0.308230	0.784580
O32	O	1.686639	0.558230	1.034580
O33	O	1.129429	-0.403402	0.284559
O34	O	1.379429	-0.153402	0.534559
O35	O	1.629429	0.096598	0.784559
O36	O	1.879429	0.346598	1.034559
O37	O	1.019796	-0.191755	0.367730
O38	O	1.269796	0.058245	0.617730
O39	O	1.519796	0.308245	0.867730
O40	O	1.769796	0.558245	1.117730
O41	O	0.936572	-0.312194	0.174827
O42	O	1.186572	-0.062194	0.424827
O43	O	1.436572	0.187806	0.674827
O44	O	1.686572	0.437806	0.924827
O45	O	0.826868	-0.312156	0.284540
O46	O	1.076868	-0.062156	0.534540
O47	O	1.326868	0.187844	0.784540
O48	O	1.576868	0.437844	1.034540
O49	O	0.936604	-0.403335	0.477401
O50	O	1.186604	-0.153335	0.727401
O51	O	1.436604	0.096665	0.977401
O52	O	1.686604	0.346665	1.227401
O53	O	0.826853	-0.403355	0.367660
O54	O	1.076853	-0.153355	0.617660
O55	O	1.326853	0.096645	0.867660
O56	O	1.576853	0.346645	1.117660
O57	O	1.019776	-0.312121	0.477432
O58	O	1.269776	-0.062121	0.727432
O59	O	1.519776	0.187879	0.977432
O60	O	1.769776	0.437879	1.227432
O61	O	1.019657	-0.523788	0.284519
O62	O	1.269657	-0.273788	0.534519
O63	O	1.519657	-0.023788	0.784519
O64	O	1.769657	0.226212	1.034519
O65	O	0.936536	-0.523759	0.367648
O66	O	1.186536	-0.273759	0.617648
O67	O	1.436536	-0.023759	0.867648
O68	O	1.686536	0.226241	1.117648
C69	C	0.802301	-0.357754	0.326097
C70	C	1.052301	-0.107754	0.576097
C71	C	1.302301	0.142246	0.826097
C72	C	1.552301	0.392246	1.076097
C73	C	0.727069	-0.357766	0.326104
C74	C	0.977069	-0.107766	0.576104
C75	C	1.227069	0.142234	0.826104
C76	C	1.477069	0.392234	1.076104
C77	C	0.691735	-0.405325	0.369314
C78	C	0.941735	-0.155325	0.619314
C79	C	1.191735	0.094675	0.869314
C80	C	1.441735	0.344675	1.119314
C81	C	0.621046	-0.405326	0.369324
C82	C	0.871046	-0.155326	0.619324
C83	C	1.121046	0.094674	0.869324
C84	C	1.371046	0.344674	1.119324
C85	C	0.585694	-0.357771	0.326119
C86	C	0.835694	-0.107771	0.576119
C87	C	1.085694	0.142229	0.826119
C88	C	1.335694	0.392229	1.076119
C89	C	0.621033	-0.310207	0.282907
C90	C	0.871033	-0.060207	0.532907
C91	C	1.121033	0.189793	0.782907
C92	C	1.371033	0.439793	1.032907
C93	C	0.691720	-0.310203	0.282902
C94	C	0.941720	-0.060203	0.532902
C95	C	1.191720	0.189797	0.782902
C96	C	1.441720	0.439797	1.032902
C97	C	0.335960	-0.310224	0.282930
C98	C	0.585960	-0.060224	0.532930
C99	C	0.835960	0.189776	0.782930
C100	C	1.085960	0.439776	1.032930
C101	C	0.265268	-0.310233	0.282937
C102	C	0.515268	-0.060233	0.532937
C103	C	0.765268	0.189767	0.782937
C104	C	1.015268	0.439767	1.032937
C105	C	0.265286	-0.405347	0.369352
C106	C	0.515286	-0.155347	0.619352
C107	C	0.765286	0.094653	0.869352
C108	C	1.015286	0.344653	1.119352
C109	C	0.335973	-0.405342	0.369346
C110	C	0.585973	-0.155342	0.619346
C111	C	0.835973	0.094658	0.869346
C112	C	1.085973	0.344658	1.119346
C113	C	0.371306	-0.357776	0.326137
C114	C	0.621306	-0.107776	0.576137
C115	C	0.871306	0.142224	0.826137
C116	C	1.121306	0.392224	1.076137
C117	C	0.447955	-0.357774	0.326128
C118	C	0.697955	-0.107774	0.576128
C119	C	0.947955	0.142226	0.826128
C120	C	1.197955	0.392226	1.076128
C121	C	0.509047	-0.357776	0.326124
C122	C	0.759047	-0.107776	0.576124
C123	C	1.009047	0.142224	0.826124
C124	C	1.259047	0.392224	1.076124
C125	C	0.978105	-0.550720	0.326092
C126	C	1.228105	-0.300720	0.576092
C127	C	1.478105	-0.050720	0.826092
C128	C	1.728105	0.199280	1.076092
C129	C	0.978145	-0.633266	0.326103
C130	C	1.228145	-0.383266	0.576103
C131	C	1.478145	-0.133266	0.826103
C132	C	1.728145	0.116734	1.076103
C133	C	1.023440	-0.832705	0.280961
C134	C	1.273440	-0.582705	0.530961
C135	C	1.523440	-0.332705	0.780961
C136	C	1.773440	-0.082705	1.030961
C137	C	1.039973	-0.882039	0.342736
C138	C	1.289973	-0.632039	0.592736
C139	C	1.539973	-0.382039	0.842736
C140	C	1.789973	-0.132039	1.092736
C141	C	0.978183	-0.784396	0.326130
C142	C	1.228183	-0.534396	0.576130
C143	C	1.478183	-0.284396	0.826130
C144	C	1.728183	-0.034396	1.076130
C145	C	0.961720	-0.882144	0.264383
C146	C	1.211720	-0.632144	0.514383
C147	C	1.461720	-0.382144	0.764383
C148	C	1.711720	-0.132144	1.014383
C149	C	0.978222	-0.930381	0.326151
C150	C	1.228222	-0.680381	0.576151
C151	C	1.478222	-0.430381	0.826151
C152	C	1.728222	-0.180381	1.076151
C153	C	0.994748	-0.832643	0.387938
C154	C	1.244748	-0.582643	0.637938
C155	C	1.494748	-0.332643	0.887938
C156	C	1.744748	-0.082643	1.137938
C157	C	0.916466	-0.832743	0.309543
C158	C	1.166466	-0.582743	0.559543
C159	C	1.416466	-0.332743	0.809543
C160	C	1.666466	-0.082743	1.059543
C161	C	0.932975	-0.882055	0.371361
C162	C	1.182975	-0.632055	0.621361
C163	C	1.432975	-0.382055	0.871361
C164	C	1.682975	-0.132055	1.121361
C165	C	0.978163	-0.700298	0.326118
C166	C	1.228163	-0.450298	0.576118
C167	C	1.478163	-0.200298	0.826118
C168	C	1.728163	0.049702	1.076118
C169	C	0.978242	-1.014478	0.326171
C170	C	1.228242	-0.764478	0.576171
C171	C	1.478242	-0.514478	0.826171
C172	C	1.728242	-0.264478	1.076171
C173	C	1.154700	-0.357783	0.326142
C174	C	1.404700	-0.107783	0.576142
C175	C	1.654700	0.142217	0.826142
C176	C	1.904700	0.392217	1.076142
C177	C	1.229932	-0.357789	0.326151
C178	C	1.479932	-0.107789	0.576151
C179	C	1.729932	0.142211	0.826151
C180	C	1.979932	0.392211	1.076151
C181	C	0.978195	-0.357721	0.502662
C182	C	1.228195	-0.107721	0.752662
C183	C	1.478195	0.142279	1.002662
C184	C	1.728195	0.392279	1.252662
C185	C	0.978211	-0.357701	0.577894
C186	C	1.228211	-0.107701	0.827894
C187	C	1.478211	0.142299	1.077894
C188	C	1.728211	0.392299	1.327894
C189	C	0.978228	-0.164062	0.326161
C190	C	1.228228	0.085938	0.576161
C191	C	1.478228	0.335938	0.826161
C192	C	1.728228	0.585938	1.076161
C193	C	0.978258	-0.081517	0.326179
C194	C	1.228258	0.168483	0.576179
C195	C	1.478258	0.418483	0.826179
C196	C	1.728258	0.668483	1.076179
C197	C	0.978158	-0.357761	0.150263
C198	C	1.228158	-0.107761	0.400263
C199	C	1.478158	0.142239	0.650263
C200	C	1.728158	0.392239	0.900263
C201	C	0.978273	-0.357572	0.075032
C202	C	1.228273	-0.107572	0.325032
C203	C	1.478273	0.142428	0.575032
C204	C	1.728273	0.392428	0.825032
C205	C	1.021520	-0.310204	0.613255
C206	C	1.271520	-0.060204	0.863255
C207	C	1.521520	0.189796	1.113255
C208	C	1.771520	0.439796	1.363255
C209	C	1.021527	-0.310182	0.683944
C210	C	1.271527	-0.060182	0.933944
C211	C	1.521527	0.189818	1.183944
C212	C	1.771527	0.439818	1.433944
C213	C	0.978228	-0.357662	0.719270
C214	C	1.228228	-0.107662	0.969270
C215	C	1.478228	0.142338	1.219270
C216	C	1.728228	0.392338	1.469270
C217	C	0.934915	-0.405162	0.683904
C218	C	1.184915	-0.155162	0.933904
C219	C	1.434915	0.094838	1.183904
C220	C	1.684915	0.344838	1.433904
C221	C	0.934905	-0.405180	0.613217
C222	C	1.184905	-0.155180	0.863217
C223	C	1.434905	0.094820	1.113217
C224	C	1.684905	0.344820	1.363217
C225	C	0.934953	-0.405093	0.968977
C226	C	1.184953	-0.155093	1.218977
C227	C	1.434953	0.094907	1.468977
C228	C	1.684953	0.344907	1.718977
C229	C	0.934968	-0.405074	1.039669
C230	C	1.184968	-0.155074	1.289669
C231	C	1.434968	0.094926	1.539669
C232	C	1.684968	0.344926	1.789669
C233	C	1.021575	-0.310096	1.039704
C234	C	1.271575	-0.060096	1.289704
C235	C	1.521575	0.189904	1.539704
C236	C	1.771575	0.439904	1.789704
C237	C	1.021565	-0.310113	0.969017
C238	C	1.271565	-0.060113	1.219017
C239	C	1.521565	0.189887	1.469017
C240	C	1.771565	0.439887	1.719017
C241	C	0.978250	-0.357609	0.933657
C242	C	1.228250	-0.107609	1.183657
C243	C	1.478250	0.142391	1.433657
C244	C	1.728250	0.392391	1.683657
C245	C	0.978242	-0.357631	0.857009
C246	C	1.228242	-0.107631	1.107009
C247	C	1.478242	0.142369	1.357009
C248	C	1.728242	0.392369	1.607009
C249	C	0.978239	-0.357645	0.795917
C250	C	1.228239	-0.107645	1.045917
C251	C	1.478239	0.142355	1.295917
C252	C	1.728239	0.392355	1.545917
H253	H	0.364720	-0.271497	0.247741
H254	H	0.614720	-0.021497	0.497741
H255	H	0.864720	0.228503	0.747741
H256	H	1.114720	0.478503	0.997741
H257	H	0.236486	-0.271504	0.247755
H258	H	0.486486	-0.021504	0.497755
H259	H	0.736486	0.228496	0.747755
H260	H	0.986486	0.478496	0.997755
H261	H	0.864271	-0.811072	0.295482
H262	H	1.114271	-0.561072	0.545482
H263	H	1.364271	-0.311072	0.795482
H264	H	1.614271	-0.061072	1.045482
O265	O	1.068276	-0.258849	1.077850
O266	O	1.318276	-0.008849	1.327850
O267	O	1.568276	0.241151	1.577850
O268	O	1.818276	0.491151	1.827850
H269	H	1.102700	-0.292074	1.110067
H270	H	1.352700	-0.042074	1.360067
H271	H	1.602700	0.207926	1.610067
H272	H	1.852700	0.457926	1.860067
H273	H	0.947779	-0.903887	0.212156
H274	H	1.197779	-0.653887	0.462156
H275	H	1.447779	-0.403887	0.712156
H276	H	1.697779	-0.153887	0.962156
O277	O	0.729837	-0.258907	0.236297
O278	O	0.979837	-0.008907	0.486297
O279	O	1.229837	0.241093	0.736297
O280	O	1.479837	0.491093	0.986297
H281	H	0.762024	-0.292096	0.201810
H282	H	1.012024	-0.042096	0.451810
H283	H	1.262024	0.207904	0.701810
H284	H	1.512024	0.457904	0.951810
H285	H	1.056781	-0.271542	0.584498
H286	H	1.306781	-0.021542	0.834498
H287	H	1.556781	0.228458	1.084498
H288	H	1.806781	0.478458	1.334498
H289	H	0.592243	-0.271484	0.247732
H290	H	0.842243	-0.021484	0.497732
H291	H	1.092243	0.228516	0.747732
H292	H	1.342243	0.478516	0.997732
O293	O	1.074146	-0.803990	0.230415
O294	O	1.324146	-0.553990	0.480415
O295	O	1.574146	-0.303990	0.730415
O296	O	1.824146	-0.053990	0.980415
H297	H	1.125354	-0.823731	0.244359
H298	H	1.375354	-0.573731	0.494359
H299	H	1.625354	-0.323731	0.744359
H300	H	1.875354	-0.073731	0.994359
H301	H	1.056795	-0.271506	0.712731
H302	H	1.306795	-0.021506	0.962731
H303	H	1.556795	0.228494	1.212731
H304	H	1.806795	0.478494	1.462731
H305	H	1.056826	-0.271452	0.940258
H306	H	1.306826	-0.021452	1.190258
H307	H	1.556826	0.228548	1.440258
H308	H	1.806826	0.478548	1.690258
O309	O	1.109127	-0.910727	0.361346
O310	O	1.359127	-0.660727	0.611346
O311	O	1.609127	-0.410727	0.861346
O312	O	1.859127	-0.160727	1.111346
H313	H	1.146591	-0.890966	0.323773
H314	H	1.396591	-0.640966	0.573773
H315	H	1.646591	-0.390966	0.823773
H316	H	1.896591	-0.140966	1.073773
H317	H	0.899705	-0.443739	1.068430
H318	H	1.149705	-0.193739	1.318430
H319	H	1.399705	0.056261	1.568430
H320	H	1.649705	0.306261	1.818430
H321	H	0.899693	-0.443779	0.940196
H322	H	1.149693	-0.193779	1.190196
H323	H	1.399693	0.056221	1.440196
H324	H	1.649693	0.306221	1.690196
H325	H	1.008637	-0.810992	0.440210
H326	H	1.258637	-0.560992	0.690210
H327	H	1.508637	-0.310992	0.940210
H328	H	1.758637	-0.060992	1.190210
O329	O	0.882297	-0.910583	0.422021
O330	O	1.132297	-0.660583	0.672021
O331	O	1.382297	-0.410583	0.922021
O332	O	1.632297	-0.160583	1.172021
H333	H	0.896138	-0.890647	0.473213
H334	H	1.146138	-0.640647	0.723213
H335	H	1.396138	-0.390647	0.973213
H336	H	1.646138	-0.140647	1.223213
O337	O	0.888207	-0.456371	0.722000
O338	O	1.138207	-0.206371	0.972000
O339	O	1.388207	0.043629	1.222000
O340	O	1.638207	0.293629	1.472000
H341	H	0.895493	-0.448385	0.777095
H342	H	1.145493	-0.198385	1.027095
H343	H	1.395493	0.051615	1.277095
H344	H	1.645493	0.301615	1.527095
H345	H	0.899632	-0.443850	0.584427
H346	H	1.149632	-0.193850	0.834427
H347	H	1.399632	0.056150	1.084427
H348	H	1.649632	0.306150	1.334427
O349	O	0.227172	-0.456697	0.415916
O350	O	0.477172	-0.206697	0.665916
O351	O	0.727172	0.043303	0.915916
O352	O	0.977172	0.293303	1.165916
H353	H	0.263632	-0.489787	0.445933
H354	H	0.513632	-0.239787	0.695933
H355	H	0.763632	0.010213	0.945933
H356	H	1.013632	0.260213	1.195933
O357	O	0.729868	-0.456607	0.415919
O358	O	0.979868	-0.206607	0.665919
O359	O	1.229868	0.043393	0.915919
O360	O	1.479868	0.293393	1.165919
H361	H	0.716284	-0.514880	0.404228
H362	H	0.966284	-0.264880	0.654228
H363	H	1.216284	-0.014880	0.904228
H364	H	1.466284	0.235120	1.154228
O365	O	0.582933	-0.456763	0.415798
O366	O	0.832933	-0.206763	0.665798
O367	O	1.082933	0.043237	0.915798
O368	O	1.332933	0.293237	1.165798
H369	H	0.619391	-0.489888	0.445786
H370	H	0.869391	-0.239888	0.695786
H371	H	1.119391	0.010112	0.945786
H372	H	1.369391	0.260112	1.195786
H373	H	0.364754	-0.444069	0.404525
H374	H	0.614754	-0.194069	0.654525
H375	H	0.864754	0.055931	0.904525
H376	H	1.114754	0.305931	1.154525
