data_functionalizedCrystal
_audit_creation_method	'MofGen! by Chris Wilmer'
_symmetry_space_group_name_H-M	'P1'
_symmetry_Int_Tables_number	1
_symmetry_cell_setting	triclinic
loop_
_symmetry_equiv_pos_as_xyz
  x,y,z
_cell_length_a	18.101398
_cell_length_b	18.101395
_cell_length_c	18.101390
_cell_angle_alpha	90.031336
_cell_angle_beta	90.024681
_cell_angle_gamma	90.026371
loop_
_atom_site_label
_atom_site_type_symbol
_atom_site_fract_x
_atom_site_fract_y
_atom_site_fract_z
Zn1	Zn	1.132124	-0.294895	0.418847
Zn2	Zn	1.465457	0.038439	0.752180
Zn3	Zn	1.798790	0.371772	1.085514
Zn4	Zn	1.132019	-0.418752	0.295009
Zn5	Zn	1.465352	-0.085418	0.628342
Zn6	Zn	1.798685	0.247915	0.961675
Zn7	Zn	1.008282	-0.294918	0.295008
Zn8	Zn	1.341615	0.038415	0.628341
Zn9	Zn	1.674948	0.371748	0.961675
Zn10	Zn	1.008233	-0.418689	0.418797
Zn11	Zn	1.341567	-0.085355	0.752131
Zn12	Zn	1.674900	0.247978	1.085464
O13	O	1.070164	-0.356813	0.356915
O14	O	1.403498	-0.023480	0.690249
O15	O	1.736831	0.309853	1.023582
O16	O	1.235743	-0.311341	0.402441
O17	O	1.569076	0.021992	0.735774
O18	O	1.902409	0.355325	1.069107
O19	O	1.115581	-0.402361	0.191376
O20	O	1.448914	-0.069028	0.524709
O21	O	1.782248	0.264305	0.858042
O22	O	1.024774	-0.191282	0.311456
O23	O	1.358107	0.142051	0.644789
O24	O	1.691441	0.475384	0.978123
O25	O	1.235666	-0.402338	0.311457
O26	O	1.568999	-0.069005	0.644790
O27	O	1.902332	0.264328	0.978124
O28	O	1.115760	-0.191265	0.402440
O29	O	1.449093	0.142068	0.735773
O30	O	1.782427	0.475402	1.069106
O31	O	1.024672	-0.311381	0.191375
O32	O	1.358005	0.021952	0.524708
O33	O	1.691339	0.355285	0.858042
O34	O	0.904642	-0.311320	0.311408
O35	O	1.237976	0.022013	0.644741
O36	O	1.571309	0.355346	0.978075
O37	O	1.024691	-0.402231	0.522437
O38	O	1.358025	-0.068898	0.855770
O39	O	1.691358	0.264436	1.189103
O40	O	0.904607	-0.402254	0.402355
O41	O	1.237940	-0.068921	0.735689
O42	O	1.571274	0.264413	1.069022
O43	O	1.115713	-0.311280	0.522473
O44	O	1.449046	0.022053	0.855807
O45	O	1.782380	0.355387	1.189140
O46	O	1.115534	-0.522376	0.311409
O47	O	1.448867	-0.189043	0.644742
O48	O	1.782201	0.144290	0.978076
O49	O	1.024590	-0.522330	0.402356
O50	O	1.357923	-0.188997	0.735689
O51	O	1.691256	0.144337	1.069023
C52	C	0.877754	-0.356783	0.356877
C53	C	1.211087	-0.023450	0.690210
C54	C	1.544420	0.309883	1.023543
C55	C	0.795440	-0.356788	0.356878
C56	C	1.128773	-0.023455	0.690211
C57	C	1.462106	0.309878	1.023544
C58	C	0.496349	-0.356835	0.356940
C59	C	0.829682	-0.023501	0.690273
C60	C	1.163015	0.309832	1.023607
C61	C	0.527672	-0.299336	0.299997
C62	C	0.861005	0.033998	0.633331
C63	C	1.194338	0.367331	0.966664
C64	C	0.613290	-0.299490	0.299754
C65	C	0.946623	0.033843	0.633088
C66	C	1.279956	0.367177	0.966421
C67	C	0.644731	-0.356811	0.356909
C68	C	0.978065	-0.023478	0.690242
C69	C	1.311398	0.309856	1.023576
C70	C	0.613613	-0.434824	0.335587
C71	C	0.946946	-0.101491	0.668920
C72	C	1.280280	0.231842	1.002253
C73	C	0.527968	-0.434505	0.335191
C74	C	0.861301	-0.101172	0.668524
C75	C	1.194635	0.232162	1.001857
C76	C	0.527964	-0.336998	0.435339
C77	C	0.861297	-0.003665	0.768672
C78	C	1.194631	0.329668	1.102005
C79	C	0.613615	-0.335261	0.434911
C80	C	0.946948	-0.001928	0.768244
C81	C	1.280281	0.331405	1.101577
C82	C	0.728591	-0.356803	0.356893
C83	C	1.061924	-0.023469	0.690226
C84	C	1.395257	0.309864	1.023559
C85	C	0.412489	-0.356848	0.356954
C86	C	0.745823	-0.023515	0.690288
C87	C	1.079156	0.309818	1.023621
C88	C	1.070065	-0.549224	0.356893
C89	C	1.403399	-0.215891	0.690227
C90	C	1.736732	0.117443	1.023560
C91	C	1.070091	-0.631538	0.356909
C92	C	1.403424	-0.298205	0.690242
C93	C	1.736757	0.035129	1.023576
C94	C	1.070253	-0.930629	0.356949
C95	C	1.403586	-0.597296	0.690282
C96	C	1.736920	-0.263962	1.023615
C97	C	1.013166	-0.899306	0.414312
C98	C	1.346499	-0.565972	0.747646
C99	C	1.679833	-0.232639	1.080979
C100	C	1.012895	-0.813688	0.414133
C101	C	1.346228	-0.480354	0.747466
C102	C	1.679561	-0.147021	1.080799
C103	C	1.070172	-0.782247	0.356930
C104	C	1.403506	-0.448913	0.690263
C105	C	1.736839	-0.115580	1.023596
C106	C	1.049043	-0.813402	0.278878
C107	C	1.382376	-0.480068	0.612212
C108	C	1.715709	-0.146735	0.945545
C109	C	1.048675	-0.899047	0.279221
C110	C	1.382008	-0.565713	0.612555
C111	C	1.715341	-0.232380	0.945888
C112	C	1.148595	-0.898978	0.376950
C113	C	1.481928	-0.565644	0.710283
C114	C	1.815262	-0.232311	1.043617
C115	C	1.148134	-0.813327	0.378661
C116	C	1.481468	-0.479993	0.711995
C117	C	1.814801	-0.146660	1.045328
C118	C	1.070128	-0.698387	0.356914
C119	C	1.403462	-0.365054	0.690247
C120	C	1.736795	-0.031720	1.023581
C121	C	1.070296	-1.014488	0.356959
C122	C	1.403629	-0.681155	0.690293
C123	C	1.736962	-0.347822	1.023626
C124	C	1.263326	-0.356844	0.356954
C125	C	1.596660	-0.023511	0.690288
C126	C	1.929993	0.309822	1.023621
C127	C	1.345640	-0.356857	0.356971
C128	C	1.678974	-0.023524	0.690304
C129	C	2.012307	0.309809	1.023638
C130	C	1.070208	-0.356746	0.550077
C131	C	1.403542	-0.023413	0.883411
C132	C	1.736875	0.309921	1.216744
C133	C	1.070227	-0.356717	0.632391
C134	C	1.403560	-0.023384	0.965725
C135	C	1.736894	0.309950	1.299058
C136	C	1.070284	-0.163652	0.356953
C137	C	1.403617	0.169682	0.690287
C138	C	1.736951	0.503015	1.023620
C139	C	1.070335	-0.081337	0.356970
C140	C	1.403668	0.251996	0.690303
C141	C	1.737002	0.585329	1.023636
C142	C	1.070163	-0.356827	0.164505
C143	C	1.403496	-0.023494	0.497838
C144	C	1.736830	0.309839	0.831171
C145	C	1.070288	-0.356648	0.082191
C146	C	1.403621	-0.023314	0.415524
C147	C	1.736955	0.310019	0.748858
C148	C	1.070267	-0.356671	0.931483
C149	C	1.403600	-0.023338	1.264816
C150	C	1.736934	0.309996	1.598149
C151	C	1.127724	-0.299648	0.900180
C152	C	1.461057	0.033685	1.233514
C153	C	1.794391	0.367018	1.566847
C154	C	1.127545	-0.299437	0.814562
C155	C	1.460878	0.033897	1.147895
C156	C	1.794212	0.367230	1.481229
C157	C	1.070248	-0.356694	0.783100
C158	C	1.403581	-0.023360	1.116433
C159	C	1.736915	0.309973	1.449767
C160	C	0.992231	-0.335484	0.814166
C161	C	1.325565	-0.002151	1.147499
C162	C	1.658898	0.331183	1.480832
C163	C	0.992575	-0.335057	0.899811
C164	C	1.325908	-0.001723	1.233144
C165	C	1.659242	0.331610	1.566478
C166	C	1.090140	-0.435050	0.899899
C167	C	1.423473	-0.101716	1.233232
C168	C	1.756806	0.231617	1.566565
C169	C	1.091852	-0.434650	0.814249
C170	C	1.425185	-0.101317	1.147582
C171	C	1.758519	0.232017	1.480915
C172	C	1.070232	-0.356708	0.699240
C173	C	1.403566	-0.023375	1.032574
C174	C	1.736899	0.309959	1.365907
C175	C	1.070278	-0.356655	1.015342
C176	C	1.403611	-0.023322	1.348675
C177	C	1.736944	0.310012	1.682009
H178	H	0.633978	-0.478814	0.375763
H179	H	0.967311	-0.145480	0.709096
H180	H	1.300644	0.187853	1.042430
H181	H	0.975078	-0.278826	0.792724
H182	H	1.308411	0.054507	1.126058
H183	H	1.641744	0.387840	1.459391
H184	H	0.506122	-0.312301	0.242242
H185	H	0.839455	0.021032	0.575576
H186	H	1.172789	0.354365	0.908909
Br187	Br	0.648363	-0.203069	0.322030
Br188	Br	0.981697	0.130264	0.655363
Br189	Br	1.315030	0.463597	0.988696
H190	H	1.146032	-0.454361	0.921548
H191	H	1.479365	-0.121028	1.254882
H192	H	1.812699	0.212305	1.588215
H193	H	0.635027	-0.451937	0.278892
H194	H	0.968361	-0.118604	0.612226
H195	H	1.301694	0.214729	0.945559
H196	H	0.507101	-0.241309	0.313215
H197	H	0.840435	0.092024	0.646548
H198	H	1.173768	0.425358	0.979882
H199	H	0.633959	-0.277852	0.450989
H200	H	0.967292	0.055481	0.784322
H201	H	1.300625	0.388815	1.117655
H202	H	0.991407	-0.919086	0.262279
H203	H	1.324741	-0.585753	0.595613
H204	H	1.658074	-0.252419	0.928946
Br205	Br	0.954603	-0.777759	0.250131
Br206	Br	1.287936	-0.444426	0.583465
Br207	Br	1.621269	-0.111092	0.916798
H208	H	0.633743	-0.312604	0.241661
H209	H	0.967076	0.020730	0.574995
H210	H	1.300410	0.354063	0.908328
Br211	Br	0.964456	-0.239575	0.933130
Br212	Br	1.297789	0.093759	1.266464
Br213	Br	1.631123	0.427092	1.599797
H214	H	0.954826	-0.793261	0.400884
H215	H	1.288159	-0.459927	0.734217
H216	H	1.621492	-0.126594	1.067550
H217	H	1.114736	-0.241908	0.921715
H218	H	1.448070	0.091425	1.255049
H219	H	1.781403	0.424759	1.588382
Br220	Br	0.492013	-0.243831	0.467651
Br221	Br	0.825346	0.089503	0.800984
Br222	Br	1.158680	0.422836	1.134318
H223	H	1.026114	-0.792621	0.472007
H224	H	1.359448	-0.459287	0.805340
H225	H	1.692781	-0.125954	1.138674
Br226	Br	1.114961	-0.933592	0.205551
Br227	Br	1.448295	-0.600259	0.538884
Br228	Br	1.781628	-0.266926	0.872218
H229	H	1.191127	-0.919234	0.335170
H230	H	1.524460	-0.585901	0.668503
H231	H	1.857794	-0.252567	1.001837
H232	H	1.053046	-0.479420	0.792829
H233	H	1.386380	-0.146086	1.126163
H234	H	1.719713	0.187247	1.459496
H235	H	1.048295	-0.477538	0.920146
H236	H	1.381628	-0.144204	1.253480
H237	H	1.714961	0.189129	1.586813
H238	H	1.149265	-0.450643	0.793944
H239	H	1.482599	-0.117310	1.127278
H240	H	1.815932	0.216023	1.460611
H241	H	0.507956	-0.451326	0.277877
H242	H	0.841289	-0.117993	0.611211
H243	H	1.174622	0.215340	0.944544
H244	H	1.089314	-0.793038	0.234972
H245	H	1.422648	-0.459704	0.568306
H246	H	1.755981	-0.126371	0.901639
H247	H	0.635020	-0.374088	0.479611
H248	H	0.968353	-0.040755	0.812944
H249	H	1.301687	0.292579	1.146277
Br250	Br	0.494204	-0.406800	0.506055
Br251	Br	0.827537	-0.073466	0.839388
Br252	Br	1.160870	0.259867	1.172721
Br253	Br	0.493425	-0.508329	0.401297
Br254	Br	0.826759	-0.174996	0.734630
Br255	Br	1.160092	0.158338	1.067963
Br256	Br	1.180705	-0.934888	0.470196
Br257	Br	1.514038	-0.601554	0.803530
Br258	Br	1.847371	-0.268221	1.136863
H259	H	1.164068	-0.792961	0.436103
H260	H	1.497402	-0.459627	0.769436
H261	H	1.830735	-0.126294	1.102770
H262	H	1.026255	-0.919850	0.472374
H263	H	1.359588	-0.586517	0.805707
H264	H	1.692921	-0.253184	1.139040
Br265	Br	1.105621	-0.202658	0.780428
Br266	Br	1.438954	0.130675	1.113761
Br267	Br	1.772288	0.464008	1.447094
H268	H	0.955450	-0.920888	0.401230
H269	H	1.288783	-0.587555	0.734563
H270	H	1.622117	-0.254222	1.067896
H271	H	1.192917	-0.791921	0.339927
H272	H	1.526251	-0.458587	0.673260
H273	H	1.859584	-0.125254	1.006593
Br274	Br	1.223970	-0.321565	0.779552
Br275	Br	1.557303	0.011769	1.112885
Br276	Br	1.890637	0.345102	1.446219
Br277	Br	1.224466	-0.321508	0.934529
Br278	Br	1.557799	0.011826	1.267863
Br279	Br	1.891133	0.345159	1.601196
Br280	Br	0.918788	-0.401254	0.934325
Br281	Br	1.252121	-0.067921	1.267659
Br282	Br	1.585454	0.265412	1.600992
H283	H	0.948259	-0.375737	0.793784
H284	H	1.281593	-0.042404	1.127117
H285	H	1.614926	0.290929	1.460451
