data_functionalizedCrystal
_audit_creation_method	'MofGen! by Chris Wilmer'
_symmetry_space_group_name_H-M	'P1'
_symmetry_Int_Tables_number	1
_symmetry_cell_setting	triclinic
loop_
_symmetry_equiv_pos_as_xyz
  x,y,z
_cell_length_a	13.897449
_cell_length_b	18.215405
_cell_length_c	18.215399
_cell_angle_alpha	89.969449
_cell_angle_beta	89.981468
_cell_angle_gamma	90.026165
loop_
_atom_site_label
_atom_site_type_symbol
_atom_site_fract_x
_atom_site_fract_y
_atom_site_fract_z
Zn1	Zn	1.474633	-0.292967	-0.416077
Zn2	Zn	1.974633	0.207033	0.083923
Zn3	Zn	1.474513	-0.416038	-0.293005
Zn4	Zn	1.974513	0.083962	0.206995
Zn5	Zn	1.313329	-0.292993	-0.293027
Zn6	Zn	1.813329	0.207007	0.206973
Zn7	Zn	1.313284	-0.415999	-0.416033
Zn8	Zn	1.813284	0.084001	0.083967
O9	O	1.393940	-0.354499	-0.354536
O10	O	1.893940	0.145501	0.145464
O11	O	1.609599	-0.309298	-0.399761
O12	O	2.109599	0.190702	0.100239
O13	O	1.453100	-0.399743	-0.190024
O14	O	1.953100	0.100257	0.309976
O15	O	1.334795	-0.190005	-0.309378
O16	O	1.834795	0.309995	0.190622
O17	O	1.609511	-0.399718	-0.309340
O18	O	2.109511	0.100282	0.190660
O19	O	1.453305	-0.189986	-0.399782
O20	O	1.953305	0.310014	0.100218
O21	O	1.334679	-0.309342	-0.190040
O22	O	1.834679	0.190658	0.309960
O23	O	1.178341	-0.309304	-0.309335
O24	O	1.678341	0.190696	0.190665
O25	O	1.334719	-0.399651	-0.519023
O26	O	1.834719	0.100349	-0.019023
O27	O	1.178308	-0.399676	-0.399707
O28	O	1.678308	0.100324	0.100293
O29	O	1.453262	-0.309260	-0.519055
O30	O	1.953262	0.190740	-0.019055
O31	O	1.453057	-0.519017	-0.309297
O32	O	1.953057	-0.019017	0.190703
O33	O	1.334602	-0.518988	-0.399685
O34	O	1.834602	-0.018988	0.100315
C35	C	1.393838	-0.545705	-0.354500
C36	C	1.893838	-0.045705	0.145500
C37	C	1.393883	-0.627504	-0.354510
C38	C	1.893883	-0.127504	0.145490
C39	C	1.143326	-0.354489	-0.354519
C40	C	1.643326	0.145511	0.145481
C41	C	1.036112	-0.354503	-0.354529
C42	C	1.536112	0.145497	0.145471
C43	C	1.455707	-0.815689	-0.307531
C44	C	1.955707	-0.315689	0.192469
C45	C	1.455750	-0.892547	-0.307549
C46	C	1.955750	-0.392547	0.192451
C47	C	1.332296	-0.892557	-0.401593
C48	C	1.832296	-0.392557	0.098407
C49	C	1.332259	-0.815700	-0.401578
C50	C	1.832259	-0.315700	0.098422
C51	C	1.393963	-0.777268	-0.354543
C52	C	1.893963	-0.277268	0.145457
C53	C	1.394043	-0.930984	-0.354576
C54	C	1.894043	-0.430984	0.145424
C55	C	1.394090	-1.014317	-0.354595
C56	C	1.894090	-0.514317	0.145405
C57	C	1.393918	-0.693929	-0.354524
C58	C	1.893918	-0.193929	0.145476
C59	C	0.839817	-0.354505	-0.354548
C60	C	1.339817	0.145495	0.145452
C61	C	0.949049	-0.354502	-0.354536
C62	C	1.449049	0.145498	0.145464
C63	C	1.645533	-0.354509	-0.354553
C64	C	2.145533	0.145491	0.145447
C65	C	1.752747	-0.354514	-0.354560
C66	C	2.252747	0.145486	0.145440
C67	C	1.393999	-0.354448	-0.546489
C68	C	1.893999	0.145552	-0.046489
C69	C	1.394024	-0.354427	-0.628288
C70	C	1.894024	0.145573	-0.128288
C71	C	1.394068	-0.162546	-0.354587
C72	C	1.894068	0.337454	0.145413
C73	C	1.394123	-0.080747	-0.354609
C74	C	1.894123	0.419253	0.145391
C75	C	1.455771	-0.307316	-0.816500
C76	C	1.955771	0.192684	-0.316500
C77	C	1.455783	-0.307295	-0.893358
C78	C	1.955783	0.192705	-0.393358
C79	C	1.332345	-0.401424	-0.893313
C80	C	1.832345	0.098576	-0.393313
C81	C	1.332329	-0.401441	-0.816456
C82	C	1.832329	0.098559	-0.316456
C83	C	1.394048	-0.354388	-0.778051
C84	C	1.894048	0.145612	-0.278051
C85	C	1.394075	-0.354349	-0.931767
C86	C	1.894075	0.145651	-0.431767
C87	C	1.394087	-0.354326	-1.015101
C88	C	1.894087	0.145674	-0.515101
C89	C	1.394035	-0.354410	-0.694712
C90	C	1.894035	0.145590	-0.194712
C91	C	1.393937	-0.354496	-0.163329
C92	C	1.893937	0.145504	0.336671
C93	C	1.394099	-0.354311	-0.081531
C94	C	1.894099	0.145689	0.418469
H95	H	1.506030	-0.923826	-0.269268
H96	H	2.006030	-0.423826	0.230732
H97	H	1.506024	-0.269001	-0.785233
H98	H	2.006024	0.230999	-0.285233
H99	H	1.282058	-0.923858	-0.439886
H100	H	1.782058	-0.423858	0.060114
C101	C	1.577802	-0.214263	-0.885678
C102	C	2.077802	0.285737	-0.385678
C103	C	1.523636	-0.255555	-0.935621
C104	C	2.023636	0.244445	-0.435621
H105	H	1.619697	-0.182323	-0.911770
H106	H	2.119697	0.317677	-0.411770
H107	H	1.535790	-0.186120	-0.855705
H108	H	2.035790	0.313880	-0.355705
H109	H	1.614668	-0.246346	-0.855695
H110	H	2.114668	0.253654	-0.355695
H111	H	1.486764	-0.223473	-0.965600
H112	H	1.986764	0.276527	-0.465600
H113	H	1.565654	-0.283701	-0.965607
H114	H	2.065654	0.216299	-0.465607
C115	C	1.277564	-0.443197	-1.011111
C116	C	1.777564	0.056803	-0.511111
C117	C	1.264513	-0.453148	-0.935531
C118	C	1.764513	0.046852	-0.435531
H119	H	1.235691	-0.475135	-1.037171
H120	H	1.735691	0.024865	-0.537171
H121	H	1.263478	-0.393753	-1.023717
H122	H	1.763478	0.106247	-0.523717
H123	H	1.342373	-0.453966	-1.023703
H124	H	1.842373	0.046034	-0.523703
H125	H	1.199705	-0.442373	-0.922938
H126	H	1.699705	0.057627	-0.422938
H127	H	1.278593	-0.502603	-0.922920
H128	H	1.778593	-0.002603	-0.422920
C129	C	1.202552	-0.411684	-0.730005
C130	C	1.702552	0.088316	-0.230005
C131	C	1.264476	-0.453187	-0.774189
C132	C	1.764476	0.046813	-0.274189
H133	H	1.160660	-0.443629	-0.703916
H134	H	1.660660	0.056371	-0.203916
H135	H	1.239302	-0.383669	-0.696137
H136	H	1.739302	0.116331	-0.196137
H137	H	1.165684	-0.379617	-0.760003
H138	H	1.665684	0.120383	-0.260003
H139	H	1.301349	-0.485251	-0.744191
H140	H	1.801349	0.014749	-0.244191
H141	H	1.227722	-0.481215	-0.808061
H142	H	1.727722	0.018785	-0.308061
C143	C	1.285152	-0.791976	-0.526158
C144	C	1.785152	-0.291976	-0.026158
C145	C	1.264383	-0.773463	-0.453258
C146	C	1.764383	-0.273463	0.046742
H147	H	1.243247	-0.765903	-0.558061
H148	H	1.743247	-0.265903	-0.058061
H149	H	1.349939	-0.779330	-0.536966
H150	H	1.849939	-0.279330	-0.036966
H151	H	1.276337	-0.843250	-0.532888
H152	H	1.776337	-0.343250	-0.032888
H153	H	1.273204	-0.722189	-0.446526
H154	H	1.773204	-0.222189	0.053474
H155	H	1.199580	-0.786104	-0.442446
H156	H	1.699580	-0.286104	0.057554
H157	H	1.505951	-0.784399	-0.269234
H158	H	2.005951	-0.284399	0.230766
