data_functionalizedCrystal
_audit_creation_method	'MofGen! by Chris Wilmer'
_symmetry_space_group_name_H-M	'P1'
_symmetry_Int_Tables_number	1
_symmetry_cell_setting	triclinic
loop_
_symmetry_equiv_pos_as_xyz
  x,y,z
_cell_length_a	6.817900
_cell_length_b	17.078472
_cell_length_c	11.100257
_cell_angle_alpha	95.152425
_cell_angle_beta	108.570032
_cell_angle_gamma	99.306020
loop_
_atom_site_label
_atom_site_type_symbol
_atom_site_fract_x
_atom_site_fract_y
_atom_site_fract_z
V1	V	-4.064226	-0.109919	-0.396155
O2	O	-4.072481	0.005126	-0.388745
O3	O	-3.994852	-0.217801	-0.393319
O4	O	-4.041579	-0.108297	-0.568990
O5	O	-4.025431	-0.105136	-0.211859
V6	V	-4.547234	-0.096150	-0.374127
O7	O	-4.326612	-0.140122	-0.444475
O8	O	-4.735045	-0.065947	-0.325807
O9	O	-4.393402	0.011731	-0.376963
O10	O	-4.656376	-0.211195	-0.381537
O11	O	-4.703426	-0.100933	-0.558423
O12	O	-4.346675	-0.097773	-0.201293
C13	C	-3.833917	-0.244098	-0.387037
C14	C	-3.858654	-0.332293	-0.385871
C15	C	-4.052548	-0.377771	-0.391658
C16	C	-4.075783	-0.460640	-0.390569
C17	C	-3.905116	-0.498029	-0.383685
C18	C	-3.711208	-0.452546	-0.377901
C19	C	-3.687980	-0.369679	-0.378999
C20	C	-3.955044	-0.745431	-0.379730
C21	C	-3.978286	-0.828304	-0.378629
C22	C	-4.342860	-0.836392	-0.391300
C23	C	-4.319611	-0.753523	-0.392389
C24	C	-4.125710	-0.708048	-0.386613
N25	N	-3.928860	-0.582734	-0.382568
N26	N	-4.101973	-0.623345	-0.387739
C27	C	-3.893521	-0.104414	-0.611121
C28	C	-3.956149	-0.103801	-0.752413
C29	C	-4.016315	0.043055	-0.981166
C30	C	-3.957484	0.115334	-0.896457
C31	C	-3.898205	0.114570	-0.763733
C32	C	-3.897766	0.041519	-0.715718
C33	C	-3.956597	-0.030759	-0.800427
C34	C	-4.015867	-0.029987	-0.933152
C35	C	-4.014980	-0.176080	-0.837122
C36	C	-4.074245	-0.175317	-0.969846
C37	C	-4.014540	-0.249130	-0.789107
C38	C	-4.073357	-0.321410	-0.873817
C39	C	-4.132636	-0.320643	-1.006548
C40	C	-4.133076	-0.247595	-1.054556
C41	C	-4.217678	0.038024	-0.383241
C42	C	-4.172180	0.126219	-0.384416
C43	C	-4.158074	-0.101658	-0.159155
C44	C	-4.074684	-0.102267	-0.017861
H45	H	-4.233670	-0.497664	-0.395284
H46	H	-4.500729	-0.873427	-0.396003
O47	O	-4.236635	-0.337451	-0.399079
H48	H	-4.187910	-0.272186	-0.398857
O49	O	-4.503716	-0.713201	-0.399879
H50	H	-4.642466	-0.758751	-0.403752
O51	O	-4.197000	-0.246763	-1.197706
H52	H	-4.237825	-0.309292	-1.248548
O53	O	-4.196097	-0.398600	-1.097916
H54	H	-4.088276	-0.398759	-1.154639
O55	O	-3.794210	-0.868637	-0.371216
H56	H	-3.655480	-0.823096	-0.367397
H57	H	-3.966283	-0.249747	-0.681036
H58	H	-3.572254	-0.482995	-0.372303
O59	O	-3.745915	-0.696390	-0.373499
H60	H	-3.621675	-0.701843	-0.283224
O61	O	-3.478850	-0.320621	-0.372752
H62	H	-3.364069	-0.360539	-0.367768
H63	H	-4.064554	0.043685	-1.089234
O64	O	-4.072888	-0.400192	-0.822030
H65	H	-3.962035	-0.431923	-0.851674
O66	O	-3.957939	0.194123	-0.948239
H67	H	-4.009017	0.182517	-1.054760
H68	H	-3.850312	0.173425	-0.694761
O69	O	-3.833836	0.040690	-0.572567
H70	H	-3.792995	0.103221	-0.521729
