data_functionalizedCrystal
_audit_creation_method	'MofGen! by Chris Wilmer'
_symmetry_space_group_name_H-M	'P1'
_symmetry_Int_Tables_number	1
_symmetry_cell_setting	triclinic
loop_
_symmetry_equiv_pos_as_xyz
  x,y,z
_cell_length_a	11.026607
_cell_length_b	9.730223
_cell_length_c	10.654560
_cell_angle_alpha	89.999567
_cell_angle_beta	96.537652
_cell_angle_gamma	90.000202
loop_
_atom_site_label
_atom_site_type_symbol
_atom_site_fract_x
_atom_site_fract_y
_atom_site_fract_z
O1	O	1.614610	0.114281	0.526874
O2	O	1.260797	0.114284	0.466878
O3	O	1.445832	0.114280	0.315902
O4	O	1.429575	0.114286	0.677850
O5	O	1.445829	-0.114300	0.315906
O6	O	1.260795	-0.114296	0.466883
O7	O	1.614608	-0.114299	0.526878
Zn8	Zn	1.437701	-0.150589	0.496881
Zn9	Zn	1.437704	0.150575	0.496875
O10	O	1.429573	-0.114294	0.677855
C11	C	1.215491	-0.000006	0.455812
C12	C	1.080498	-0.000004	0.422818
N13	N	1.437708	-0.356126	0.496886
C14	C	1.007463	-0.000002	0.513921
C15	C	0.867940	-0.000001	0.479822
C16	C	1.519663	-0.428054	0.430068
C17	C	1.519659	-0.571937	0.430052
C18	C	1.355743	-0.571951	0.563683
C19	C	1.355741	-0.428071	0.563691
C20	C	1.601629	-0.356109	0.363263
C21	C	1.683591	-0.428037	0.296440
C22	C	1.683588	-0.571920	0.296424
C23	C	1.601623	-0.643875	0.363231
C24	C	1.659913	-0.000006	0.537944
C25	C	1.794906	0.000002	0.570939
C26	C	1.444634	-0.000008	0.268847
C27	C	1.441055	-0.000002	0.128627
N28	N	1.437706	0.356111	0.496863
C29	C	1.436029	-0.124601	-0.069000
C30	C	1.439377	-0.124602	0.062750
C31	C	1.439372	0.124608	0.062747
C32	C	1.436016	0.124608	-0.069001
C33	C	1.434363	-0.249210	-0.134869
C34	C	1.436043	-0.373820	-0.068998
C35	C	1.439391	-0.373821	0.062751
C36	C	1.441059	-0.249212	0.128630
C37	C	1.430771	-0.000004	0.724910
C38	C	1.434350	-0.000001	0.865129
H39	H	1.048227	-0.000008	0.617163
O40	O	1.276183	-0.641690	0.628765
C41	C	1.297008	-0.606567	0.757806
H42	H	1.343868	-0.502100	0.768281
H43	H	1.357852	-0.687547	0.810431
C44	C	1.116709	-0.728237	0.800661
C45	C	1.174255	-0.599922	0.813525
H46	H	1.040991	-0.724143	0.835034
H47	H	1.102681	-0.751905	0.713725
H48	H	1.167425	-0.795706	0.844515
H49	H	1.123546	-0.532459	0.769659
H50	H	1.188272	-0.576243	0.900456
H51	H	1.431640	-0.249223	-0.242146
O52	O	1.276012	-0.358132	0.628400
C53	C	1.200464	-0.274877	0.544018
H54	H	1.197583	-0.318233	0.444324
H55	H	1.238459	-0.165833	0.546054
C56	C	1.074047	-0.219419	0.706211
C57	C	1.070500	-0.272676	0.583766
H58	H	0.993880	-0.218055	0.730731
H59	H	1.124947	-0.275504	0.763063
H60	H	1.105714	-0.128553	0.707891
H61	H	1.038848	-0.363546	0.582092
H62	H	1.019592	-0.216606	0.526915
O63	O	0.843567	0.000264	0.694101
C64	C	0.916163	0.118638	0.718582
H65	H	0.885533	0.201364	0.646064
H66	H	1.015905	0.091874	0.712048
C67	C	0.939724	0.070740	0.941178
C68	C	0.902097	0.172351	0.852116
H69	H	0.931053	0.103871	1.023550
H70	H	0.890818	-0.009013	0.924685
H71	H	1.022840	0.048446	0.935717
H72	H	0.818979	0.194631	0.857567
H73	H	0.950989	0.252110	0.868613
H74	H	0.827182	0.000033	0.376574
H75	H	1.440744	-0.475285	0.116379
H76	H	1.601642	-0.238952	0.363273
H77	H	1.039734	0.000029	0.319576
H78	H	1.750319	-0.369444	0.242039
O79	O	1.763314	-0.641580	0.231490
C80	C	1.835631	-0.547220	0.172505
H81	H	1.837434	-0.444664	0.224413
H82	H	1.795376	-0.531905	0.070087
C83	C	1.964354	-0.729333	0.112549
C84	C	1.966577	-0.603375	0.176310
H85	H	2.045126	-0.763972	0.114890
H86	H	1.915630	-0.792906	0.152284
H87	H	1.930802	-0.716553	0.027206
H88	H	2.000114	-0.616159	0.261654
H89	H	2.015310	-0.539804	0.136589
H90	H	1.601619	-0.761034	0.363202
H91	H	1.434674	-0.475272	-0.122646
H92	H	1.443764	-0.249223	0.235908
O93	O	1.440830	0.245562	0.126854
C94	C	1.337637	0.253027	0.193484
H95	H	1.303107	0.144839	0.210046
H96	H	1.262736	0.314502	0.136014
C97	C	1.415152	0.457159	0.301184
C98	C	1.372747	0.324280	0.321535
H99	H	1.436806	0.501116	0.380170
H100	H	1.484673	0.452134	0.256291
H101	H	1.352727	0.508371	0.253289
H102	H	1.435176	0.273065	0.369415
H103	H	1.303237	0.329298	0.366439
H104	H	1.434639	0.226068	-0.122635
