data_functionalizedCrystal
_audit_creation_method	'MofGen! by Chris Wilmer'
_symmetry_space_group_name_H-M	'P1'
_symmetry_Int_Tables_number	1
_symmetry_cell_setting	triclinic
loop_
_symmetry_equiv_pos_as_xyz
  x,y,z
_cell_length_a	6.394989
_cell_length_b	14.971491
_cell_length_c	13.448316
_cell_angle_alpha	89.991393
_cell_angle_beta	90.003556
_cell_angle_gamma	94.943027
loop_
_atom_site_label
_atom_site_type_symbol
_atom_site_fract_x
_atom_site_fract_y
_atom_site_fract_z
O1	O	-0.272264	1.189889	-0.082728
O2	O	-0.304851	0.929842	-0.082720
O3	O	0.015497	1.063557	-0.082725
O4	O	-0.592612	1.056174	-0.082723
O5	O	0.015517	1.063539	0.082659
O6	O	-0.304831	0.929824	0.082664
O7	O	-0.272244	1.189871	0.082656
Cu8	Cu	-0.288536	1.059846	0.097761
Cu9	Cu	-0.288559	1.059867	-0.097825
O10	O	-0.592592	1.056157	0.082661
C11	C	-0.303382	0.896493	-0.000027
C12	C	-0.299009	0.797149	-0.000024
N13	N	-0.288518	1.059838	0.235325
C14	C	-0.280150	0.369248	-0.090198
C15	C	-0.284252	0.462593	-0.090194
C16	C	-0.286306	0.509252	-0.000040
C17	C	-0.284237	0.462562	0.090116
C18	C	-0.280119	0.369219	0.090111
C19	C	-0.292824	0.657116	0.090120
C20	C	-0.296945	0.750465	0.090125
C21	C	-0.296957	0.750490	-0.090186
C22	C	-0.292839	0.657148	-0.090191
C23	C	-0.290774	0.610464	-0.000034
C24	C	0.093333	1.062088	-0.000037
C25	C	0.329579	1.057627	-0.000037
C26	C	-0.273713	1.223221	-0.000039
C27	C	-0.278086	1.322565	-0.000049
N28	N	-0.288560	1.059882	-0.235389
C29	C	-0.146726	1.119067	0.287363
C30	C	-0.146725	1.119072	0.391466
C31	C	-0.288526	1.059853	0.443530
C32	C	-0.430325	1.000618	0.391484
C33	C	-0.430315	1.000609	0.287383
C34	C	-0.430339	1.000643	0.608464
C35	C	-0.430352	1.000654	0.712573
C36	C	-0.146749	1.119107	0.712548
C37	C	-0.146739	1.119097	0.608447
C38	C	-0.288540	1.059863	0.556408
H39	H	-0.278492	0.331265	-0.163612
H40	H	-0.285896	0.500559	0.163521
H41	H	-0.545803	0.952406	0.566098
H42	H	-0.291181	0.619160	-0.163602
H43	H	-0.298642	0.788504	-0.163595
H44	H	-0.545773	0.952378	0.245014
O45	O	-0.568142	0.943003	0.441901
C46	C	-0.693319	0.890737	0.373643
H47	H	-0.607667	0.888760	0.299441
H48	H	-0.724896	0.819666	0.403739
H49	H	-0.848613	0.921518	0.362556
H50	H	-0.545820	0.952430	0.754957
H51	H	-0.285919	0.500599	-0.163603
O52	O	-0.298542	0.795772	0.177722
C53	C	-0.116775	0.781039	0.232569
H54	H	0.010681	0.761037	0.179815
H55	H	-0.058789	0.845141	0.273452
H56	H	-0.155232	0.725027	0.288793
O57	O	-0.278217	0.324002	0.177772
C58	C	-0.280861	0.385199	0.257346
H59	H	-0.349884	0.448782	0.230921
H60	H	-0.380995	0.353679	0.320398
H61	H	-0.113849	0.402623	0.285067
O62	O	-0.008777	1.176625	0.236948
C63	C	0.116338	1.228916	0.305207
H64	H	0.118831	1.192223	0.379424
H65	H	0.283107	1.240682	0.275136
H66	H	0.048253	1.296126	0.316256
H67	H	-0.031266	1.167300	0.433835
H68	H	-0.031289	1.167336	0.754923
O69	O	-0.008499	1.176527	0.558030
C70	C	0.198174	1.159562	0.583663
H71	H	0.199188	1.087908	0.612232
H72	H	0.303257	1.168684	0.515303
H73	H	0.259199	1.208376	0.644178
H74	H	-0.291167	0.619108	0.163535
