data_functionalizedCrystal
_audit_creation_method	'MofGen! by Chris Wilmer'
_symmetry_space_group_name_H-M	'P1'
_symmetry_Int_Tables_number	1
_symmetry_cell_setting	triclinic
loop_
_symmetry_equiv_pos_as_xyz
  x,y,z
_cell_length_a	14.853567
_cell_length_b	16.109301
_cell_length_c	14.586319
_cell_angle_alpha	90.001610
_cell_angle_beta	90.002887
_cell_angle_gamma	83.548206
loop_
_atom_site_label
_atom_site_type_symbol
_atom_site_fract_x
_atom_site_fract_y
_atom_site_fract_z
O1	O	-1.196188	-0.108542	-0.076180
O2	O	-0.933707	-0.121472	-0.076196
O3	O	-1.072158	0.006014	-0.076178
O4	O	-1.057737	-0.236028	-0.076198
O5	O	-1.072141	0.006006	0.076302
O6	O	-0.933690	-0.121480	0.076285
O7	O	-1.196171	-0.108549	0.076301
Cu8	Cu	-1.064929	-0.115015	0.090215
Cu9	Cu	-1.064949	-0.115006	-0.090111
O10	O	-1.057720	-0.236035	0.076283
C11	C	-0.900111	-0.120890	0.000042
C12	C	-0.800030	-0.119135	0.000036
C13	C	-1.071566	0.036986	0.000062
C14	C	-1.069814	0.129284	0.000064
C15	C	-1.229767	-0.109131	0.000060
C16	C	-1.329848	-0.110887	0.000060
C17	C	-0.387634	-0.035983	0.000064
C18	C	-0.366102	-0.187440	0.000051
C19	C	-0.460133	-0.189090	0.000047
C20	C	-0.517919	-0.114187	0.000051
C21	C	-0.481674	-0.037632	0.000058
C22	C	-0.496386	-0.265644	0.000031
C23	C	-0.590422	-0.267298	0.000027
C24	C	-0.648210	-0.192393	0.000038
C25	C	-0.611959	-0.115835	0.000045
C26	C	-0.669745	-0.040931	0.000049
C27	C	-0.633496	0.035628	0.000063
C28	C	-0.539461	0.037273	0.000068
C29	C	-0.742245	-0.194038	0.000033
C30	C	-0.763785	-0.042580	0.000043
C31	C	-1.058313	-0.267007	0.000040
C32	C	-1.060064	-0.359305	0.000033
N33	N	-1.064922	-0.115021	0.217047
C34	C	-1.147896	0.351446	0.000054
C35	C	-1.146243	0.438169	0.000046
C36	C	-0.981976	0.418525	0.000040
C37	C	-0.983629	0.331804	0.000041
C38	C	-1.066592	0.298267	0.000053
C39	C	-1.063286	0.471711	0.000044
C40	C	-1.061494	0.565740	0.000036
C41	C	-1.068385	0.204233	0.000059
N42	N	-1.064964	-0.114994	-0.216943
C43	C	-1.119598	-0.165526	0.452053
C44	C	-1.119607	-0.165521	0.548034
C45	C	-1.010285	-0.064483	0.548045
C46	C	-1.010281	-0.064485	0.452066
C47	C	-1.064936	-0.115011	0.404072
C48	C	-1.064949	-0.115004	0.596033
C49	C	-1.064959	-0.114997	0.700100
C50	C	-1.064928	-0.115017	0.299998
H51	H	-0.810829	0.018417	0.000050
H52	H	-1.215449	0.324144	0.000061
C53	C	-0.950145	-0.008912	0.399284
N54	N	-0.904853	0.032944	0.359528
H55	H	-0.319048	-0.248423	0.000040
H56	H	-1.164119	-0.206654	0.587096
C57	C	-0.950159	-0.008915	0.600847
N58	N	-0.904867	0.032936	0.640617
H59	H	-0.680557	0.096614	0.000060
H60	H	-0.509938	0.099603	0.000102
H61	H	-0.358115	0.026349	0.000079
C62	C	-0.894184	0.273303	0.000035
N63	N	-0.826817	0.229241	0.000027
H64	H	-1.164101	-0.206668	0.412979
H65	H	-0.449331	-0.326626	0.000019
H66	H	-0.619928	-0.329636	0.000016
C67	C	-1.235684	0.496663	0.000056
N68	N	-1.303055	0.540720	0.000065
C69	C	-0.782115	-0.278248	0.000016
N70	N	-0.812143	-0.341679	0.000005
H71	H	-0.914430	0.445842	0.000032
