data_functionalizedCrystal
_audit_creation_method	'MofGen! by Chris Wilmer'
_symmetry_space_group_name_H-M	'P1'
_symmetry_Int_Tables_number	1
_symmetry_cell_setting	triclinic
loop_
_symmetry_equiv_pos_as_xyz
  x,y,z
_cell_length_a	10.654550
_cell_length_b	10.654541
_cell_length_c	9.730223
_cell_angle_alpha	89.995824
_cell_angle_beta	89.999957
_cell_angle_gamma	84.484430
loop_
_atom_site_label
_atom_site_type_symbol
_atom_site_fract_x
_atom_site_fract_y
_atom_site_fract_z
O1	O	1.667837	0.176399	-0.114187
O2	O	1.302359	0.193205	-0.114212
O3	O	1.493503	0.002062	-0.114190
O4	O	1.476694	0.367541	-0.114208
O5	O	1.493490	0.002057	0.114390
O6	O	1.302346	0.193200	0.114368
O7	O	1.667825	0.176394	0.114393
Zn8	Zn	1.485084	0.184796	0.150673
Zn9	Zn	1.485100	0.184803	-0.150491
O10	O	1.476681	0.367536	0.114372
C11	C	1.255555	0.191968	0.000075
C12	C	1.116112	0.188276	0.000066
C13	C	1.036625	0.300818	0.000064
C14	C	0.905604	0.297342	0.000088
C15	C	0.933569	0.068772	0.000110
C16	C	1.064588	0.072250	0.000095
C17	C	1.492263	-0.044738	0.000099
C18	C	1.488572	-0.184182	0.000096
C19	C	1.717137	-0.212153	0.000129
C20	C	1.829680	-0.291647	0.000149
C21	C	1.826204	-0.422665	0.000144
C22	C	1.710173	-0.474190	0.000116
C23	C	1.597630	-0.394696	0.000097
C24	C	1.601118	-0.263676	0.000106
C25	C	1.369069	-0.366725	0.000054
C26	C	1.372541	-0.235707	0.000068
C27	C	1.253037	-0.418251	0.000026
C28	C	1.140492	-0.338756	0.000017
C29	C	1.143972	-0.207731	0.000023
C30	C	1.259998	-0.156213	0.000049
C31	C	1.714629	0.177630	0.000103
C32	C	1.854072	0.181322	0.000104
C33	C	1.477921	0.414337	0.000080
C34	C	1.481612	0.553780	0.000073
N35	N	1.485082	0.184790	0.356209
N36	N	1.485112	0.184798	-0.356028
C37	C	1.569750	0.100188	0.428145
C38	C	1.569762	0.100189	0.572027
C39	C	1.400435	0.269404	0.572027
C40	C	1.400418	0.269397	0.428147
H41	H	0.891602	-0.025693	0.000142
H42	H	1.129309	-0.019401	0.000100
H43	H	1.052325	-0.143012	0.000001
N44	N	1.092201	0.425955	0.000031
H45	H	1.021960	0.496721	0.000035
H46	H	1.145962	0.432379	0.084759
H47	H	0.840891	0.388985	0.000090
N48	N	1.263743	-0.014901	0.000054
H49	H	1.309437	0.011164	0.084797
H50	H	1.309438	0.011072	-0.084728
N51	N	1.661059	0.008938	0.350552
H52	H	1.714695	-0.044658	0.417961
H53	H	1.612495	-0.047037	0.290869
N54	N	1.309142	0.360670	0.649622
H55	H	1.255501	0.414263	0.582214
H56	H	1.253214	0.312078	0.709339
N57	N	1.720875	-0.070840	0.000150
H58	H	1.766566	-0.044783	0.084899
H59	H	1.766569	-0.044852	-0.084627
N60	N	1.954824	-0.236076	0.000197
H61	H	1.939954	-0.141014	0.000208
H62	H	2.004091	-0.265099	0.084951
N63	N	1.706413	-0.615500	0.000098
H64	H	1.750454	-0.652538	-0.084634
H65	H	1.750411	-0.652460	0.084892
H66	H	1.638704	0.031297	0.630593
H67	H	1.331465	0.338290	0.369573
H68	H	1.917847	-0.487390	0.000149
N69	N	1.015352	-0.394319	-0.000016
H70	H	1.008826	-0.448041	-0.084758
H71	H	1.008880	-0.448005	0.084767
H72	H	1.250216	-0.524933	0.000014
