data_functionalizedCrystal
_audit_creation_method	'MofGen! by Chris Wilmer'
_symmetry_space_group_name_H-M	'P1'
_symmetry_Int_Tables_number	1
_symmetry_cell_setting	triclinic
loop_
_symmetry_equiv_pos_as_xyz
  x,y,z
_cell_length_a	14.519709
_cell_length_b	15.944551
_cell_length_c	12.996460
_cell_angle_alpha	89.992903
_cell_angle_beta	90.000034
_cell_angle_gamma	83.589442
loop_
_atom_site_label
_atom_site_type_symbol
_atom_site_fract_x
_atom_site_fract_y
_atom_site_fract_z
O1	O	1.223676	0.110109	-0.085435
O2	O	0.955177	0.123076	-0.085467
O3	O	1.096759	-0.005672	-0.085441
O4	O	1.082094	0.238857	-0.085461
O5	O	1.096744	-0.005679	0.085693
O6	O	0.955162	0.123069	0.085667
O7	O	1.223661	0.110102	0.085699
Cu8	Cu	1.089410	0.116585	0.101309
Cu9	Cu	1.089428	0.116593	-0.101077
O10	O	1.082080	0.238849	0.085673
C11	C	0.920810	0.122468	0.000096
C12	C	0.818432	0.120657	0.000084
C13	C	0.443548	0.113990	0.000132
C14	C	0.547853	0.115842	0.000118
C15	C	0.630987	0.117323	0.000107
C16	C	0.735298	0.119175	0.000095
C17	C	1.096142	-0.036970	0.000126
C18	C	1.094317	-0.130219	0.000126
C19	C	1.002196	-0.345209	0.000101
C20	C	1.044967	-0.406168	0.084486
C21	C	1.091015	-0.300950	0.000118
C22	C	1.045002	-0.406144	-0.084239
C23	C	1.087820	-0.465867	0.000106
C24	C	1.133811	-0.360680	0.084572
C25	C	1.133834	-0.360650	-0.084228
C26	C	1.176669	-0.421591	0.000177
C27	C	1.092854	-0.205945	0.000126
C28	C	1.085988	-0.560871	0.000105
C29	C	1.258028	0.110710	0.000133
C30	C	1.360406	0.112521	0.000139
C31	C	1.082696	0.270148	0.000103
C32	C	1.084521	0.363397	0.000096
N33	N	1.089405	0.116578	0.243656
N34	N	1.089441	0.116593	-0.243424
C35	C	1.089426	0.116594	0.663470
C36	C	1.089418	0.116592	0.546665
C37	C	1.089416	0.116587	0.453567
C38	C	1.089406	0.116584	0.336754
H39	H	0.928471	-0.312009	0.000177
O40	O	1.000056	-0.430055	-0.169318
C41	C	0.908100	-0.390794	-0.168991
H42	H	0.903676	-0.331404	-0.119593
H43	H	0.886002	-0.373112	-0.251053
H44	H	0.860267	-0.436116	-0.136065
O45	O	0.999998	-0.430175	0.169507
C46	C	0.908053	-0.390888	0.169213
H47	H	0.886657	-0.372669	0.087099
H48	H	0.859936	-0.436409	0.201081
H49	H	0.903218	-0.331821	0.219219
O50	O	1.264759	-0.460884	0.000295
C51	C	1.327967	-0.399879	0.001164
H52	H	1.292632	-0.338197	0.033960
H53	H	1.390251	-0.423196	0.050951
H54	H	1.352131	-0.388912	-0.080714
H55	H	1.171340	-0.340638	0.155991
O56	O	1.178486	-0.336581	-0.169432
C57	C	1.131437	-0.359501	-0.258230
H58	H	1.056248	-0.366376	-0.238022
H59	H	1.133696	-0.308569	-0.319460
H60	H	1.166321	-0.422089	-0.289011
