data_functionalizedCrystal
_audit_creation_method	'MofGen! by Chris Wilmer'
_symmetry_space_group_name_H-M	'P1'
_symmetry_Int_Tables_number	1
_symmetry_cell_setting	triclinic
loop_
_symmetry_equiv_pos_as_xyz
  x,y,z
_cell_length_a	11.169417
_cell_length_b	19.076808
_cell_length_c	19.076919
_cell_angle_alpha	89.878360
_cell_angle_beta	92.284570
_cell_angle_gamma	92.324818
loop_
_atom_site_label
_atom_site_type_symbol
_atom_site_fract_x
_atom_site_fract_y
_atom_site_fract_z
Zn1	Zn	1.788060	-0.295717	-0.385990
Zn2	Zn	1.788566	-0.408512	-0.263760
Zn3	Zn	1.595739	-0.291019	-0.268505
Zn4	Zn	1.579579	-0.413197	-0.381234
O5	O	1.687986	-0.352111	-0.324872
O6	O	1.956076	-0.310685	-0.369780
O7	O	1.769961	-0.388999	-0.166058
O8	O	1.627802	-0.193305	-0.288066
O9	O	1.956448	-0.393555	-0.279978
O10	O	1.769100	-0.196757	-0.374382
O11	O	1.628292	-0.302678	-0.169544
O12	O	1.425646	-0.307221	-0.283455
O13	O	1.600260	-0.401539	-0.480196
O14	O	1.413773	-0.396984	-0.366276
O15	O	1.753430	-0.315228	-0.483691
O16	O	1.754292	-0.507470	-0.275366
O17	O	1.600750	-0.510912	-0.361674
C18	C	1.376162	-0.352101	-0.324865
C19	C	1.242761	-0.352115	-0.324877
C20	C	1.675854	-0.534689	-0.317505
C21	C	1.670771	-0.612798	-0.314376
C22	C	1.741890	-0.651231	-0.357883
C23	C	1.737110	-0.724623	-0.354945
C24	C	1.661217	-0.759579	-0.308496
C25	C	1.590090	-0.721140	-0.264987
C26	C	1.594865	-0.647750	-0.267930
C27	C	1.639049	-0.978885	-0.294876
C28	C	1.634282	-1.052280	-0.291936
C29	C	1.781301	-1.055757	-0.381894
C30	C	1.786074	-0.982366	-0.384830
C31	C	1.714943	-0.943933	-0.341324
N32	N	1.656331	-0.834597	-0.305490
N33	N	1.719823	-0.868917	-0.344334
C34	C	2.001027	-0.352121	-0.324880
C35	C	2.134426	-0.352126	-0.324884
C36	C	1.674986	-0.359430	-0.508153
C37	C	1.669446	-0.362549	-0.586256
C38	C	1.700197	-0.168821	-0.332284
C39	C	1.705401	-0.090713	-0.335442
C40	C	1.746587	-0.319079	-0.624769
C41	C	1.741367	-0.322007	-0.698155
C42	C	1.659012	-0.368409	-0.733027
C43	C	1.581862	-0.411881	-0.694508
C44	C	1.587077	-0.408949	-0.621124
C45	C	1.634859	-0.381993	-0.952309
C46	C	1.629652	-0.384923	-1.025699
C47	C	1.789156	-0.295047	-1.029341
C48	C	1.794368	-0.292122	-0.955954
C49	C	1.717215	-0.335592	-0.917442
N50	N	1.653677	-0.371405	-0.808039
N51	N	1.722545	-0.332593	-0.842431
C52	C	1.701008	-0.344770	-0.142307
C53	C	1.706793	-0.341453	-0.064212
H54	H	1.803696	-0.622775	-0.395703
O55	O	1.562340	-0.937434	-0.247953
H56	H	1.620819	-0.902551	-0.213577
O57	O	1.824574	-0.275121	-0.739694
H58	H	1.881152	-0.307913	-0.771865
H59	H	1.847872	-0.953906	-0.422652
O60	O	1.540810	-0.434965	-1.063316
H61	H	1.558695	-0.489559	-1.047002
O62	O	1.883192	-0.242071	-0.918344
H63	H	1.944535	-0.272195	-0.883648
O64	O	1.872336	-0.248143	-1.070877
H65	H	1.854862	-0.257965	-1.127766
H66	H	1.813654	-0.281295	-0.596382
O67	O	1.858000	-1.097207	-0.428828
H68	H	1.841922	-1.154113	-0.418987
H69	H	1.572052	-0.417400	-0.920961
H70	H	1.528291	-0.749607	-0.227171
O71	O	1.518170	-0.606291	-0.221000
H72	H	1.464605	-0.642926	-0.188200
O73	O	1.493033	-0.461929	-0.732118
H74	H	1.400644	-0.449303	-0.718518
H75	H	1.524249	-0.444341	-0.589767
O76	O	1.813816	-0.766074	-0.401872
H77	H	1.874967	-0.798243	-0.369114
H78	H	1.572475	-1.080739	-0.254111
