data_functionalizedCrystal
_audit_creation_method	'MofGen! by Chris Wilmer'
_symmetry_space_group_name_H-M	'P1'
_symmetry_Int_Tables_number	1
_symmetry_cell_setting	triclinic
loop_
_symmetry_equiv_pos_as_xyz
  x,y,z
_cell_length_a	12.645331
_cell_length_b	12.645330
_cell_length_c	12.645324
_cell_angle_alpha	89.968341
_cell_angle_beta	89.977874
_cell_angle_gamma	90.017906
loop_
_atom_site_label
_atom_site_type_symbol
_atom_site_fract_x
_atom_site_fract_y
_atom_site_fract_z
Zn1	Zn	1.620724	-0.421954	-0.599450
Zn2	Zn	1.620608	-0.599263	-0.422191
Zn3	Zn	1.443441	-0.422015	-0.422194
Zn4	Zn	1.443420	-0.599176	-0.599405
O5	O	1.532048	-0.510602	-0.510810
O6	O	1.769056	-0.445485	-0.575954
O7	O	1.597066	-0.575812	-0.273844
O8	O	1.467015	-0.273659	-0.445728
O9	O	1.768970	-0.575753	-0.445722
O10	O	1.597264	-0.273615	-0.575957
O11	O	1.466902	-0.445588	-0.273846
O12	O	1.295091	-0.445505	-0.445685
O13	O	1.466980	-0.575606	-0.747759
O14	O	1.295076	-0.575665	-0.575881
O15	O	1.597244	-0.445401	-0.747792
O16	O	1.597046	-0.747599	-0.445678
O17	O	1.466867	-0.747535	-0.575877
C18	C	1.256618	-0.510583	-0.510779
C19	C	1.138788	-0.510600	-0.510791
C20	C	1.093880	-0.428589	-0.429018
C21	C	0.971321	-0.428286	-0.429298
C22	C	0.970958	-0.480794	-0.622698
C23	C	1.093556	-0.480181	-0.622187
C24	C	1.093574	-0.622661	-0.481712
C25	C	0.970966	-0.622076	-0.479286
C26	C	1.531971	-0.786032	-0.510795
C27	C	1.532035	-0.903862	-0.510824
C28	C	1.450477	-1.071430	-0.592985
C29	C	1.450060	-0.948870	-0.592721
C30	C	1.501791	-0.948469	-0.399102
C31	C	1.501293	-1.071067	-0.399601
C32	C	1.644335	-1.070947	-0.539480
C33	C	1.643647	-0.948340	-0.541923
C34	C	1.808553	-0.510622	-0.510842
C35	C	1.926383	-0.510631	-0.510856
C36	C	1.532123	-0.510487	-0.787316
C37	C	1.532155	-0.510438	-0.905146
C38	C	1.532155	-0.234097	-0.510848
C39	C	1.532200	-0.116267	-0.510865
C40	C	1.614122	-0.428509	-0.950049
C41	C	1.614474	-0.428723	-1.072609
C42	C	1.562111	-0.622208	-1.073027
C43	C	1.562675	-0.621762	-0.950429
C44	C	1.420090	-0.481516	-0.950316
C45	C	1.420721	-0.479024	-1.072923
C46	C	1.532035	-0.510640	-0.235380
C47	C	1.532208	-0.510390	-0.117551
H48	H	0.941828	-0.644582	-0.396975
H49	H	1.356430	-0.534303	-1.103512
C50	C	0.931725	-0.316116	-0.455373
C51	C	0.861892	-0.256183	-0.375637
C52	C	0.822302	-0.144005	-0.401709
C53	C	0.852545	-0.091760	-0.507518
C54	C	0.922381	-0.151693	-0.587261
C55	C	0.961971	-0.263871	-0.561189
H56	H	0.839502	-0.294858	-0.297304
H57	H	0.770605	-0.099639	-0.342677
H58	H	0.823238	-0.008719	-0.526818
H59	H	0.944772	-0.113019	-0.665593
H60	H	1.013668	-0.308238	-0.620221
C61	C	1.589194	-0.316176	-0.910250
C62	C	1.494106	-0.297459	-0.836488
C63	C	1.469177	-0.185124	-0.796680
C64	C	1.539335	-0.091505	-0.830634
C65	C	1.634429	-0.110219	-0.904400
C66	C	1.659358	-0.222555	-0.944208
H67	H	1.442166	-0.366764	-0.811349
H68	H	1.398782	-0.171271	-0.742073
H69	H	1.520881	-0.008347	-0.801166
H70	H	1.686370	-0.040915	-0.929539
H71	H	1.729754	-0.236408	-0.998814
C72	C	1.135516	-0.317044	-0.454757
C73	C	1.102627	-0.222370	-0.385635
C74	C	1.144265	-0.110827	-0.411377
C75	C	1.218792	-0.093957	-0.506241
C76	C	1.251685	-0.188634	-0.575369
C77	C	1.210047	-0.300177	-0.549627
H78	H	1.047454	-0.234856	-0.315405
H79	H	1.119915	-0.040742	-0.360203
H80	H	1.249615	-0.011386	-0.525297
H81	H	1.306858	-0.176149	-0.645599
H82	H	1.234397	-0.370263	-0.600801
H83	H	1.707742	-0.917696	-0.486466
H84	H	1.392770	-0.401385	-0.919399
H85	H	1.468982	-0.918706	-0.675562
H86	H	1.469226	-1.100832	-0.676098
C87	C	1.337760	-0.909364	-0.567099
C88	C	1.278077	-0.839567	-0.647076
C89	C	1.165774	-0.800060	-0.621447
C90	C	1.113153	-0.830350	-0.515841
C91	C	1.172836	-0.900150	-0.435858
C92	C	1.285140	-0.939658	-0.461487
H93	H	1.317030	-0.817142	-0.725257
H94	H	1.121593	-0.748389	-0.680657
H95	H	1.030020	-0.801104	-0.496869
H96	H	1.133884	-0.922576	-0.357676
H97	H	1.329321	-0.991329	-0.402277
C98	C	1.337589	-0.562116	-0.911076
C99	C	1.274775	-0.628854	-0.991222
C100	C	1.192287	-0.709457	-0.951975
C101	C	1.172612	-0.723322	-0.832583
C102	C	1.235428	-0.656582	-0.752430
C103	C	1.317916	-0.575979	-0.791676
H104	H	1.289338	-0.618592	-1.079610
H105	H	1.145787	-0.758862	-1.011310
H106	H	1.111549	-0.782989	-0.803530
H107	H	1.220865	-0.666844	-0.664041
H108	H	1.364417	-0.526574	-0.732341
C109	C	1.390236	-0.367859	-1.112239
C110	C	1.466185	-0.305823	-1.184527
C111	C	1.435704	-0.194658	-1.223850
C112	C	1.329273	-0.145529	-1.190886
C113	C	1.253318	-0.207565	-1.118594
C114	C	1.283799	-0.318730	-1.079271
H115	H	1.544977	-0.342191	-1.208932
H116	H	1.491931	-0.148734	-1.277365
H117	H	1.306709	-0.063237	-1.219996
H118	H	1.174526	-0.171197	-1.094189
H119	H	1.227572	-0.364654	-1.025756
H120	H	1.505525	-0.684884	-0.920721
C121	C	1.726682	-0.454589	-1.112244
C122	C	1.779002	-0.560325	-1.082055
C123	C	1.891220	-0.586184	-1.121683
C124	C	1.951118	-0.506307	-1.191499
C125	C	1.898798	-0.400564	-1.221692
C126	C	1.786580	-0.374705	-1.182064
H127	H	1.734662	-0.619461	-1.030370
H128	H	1.929950	-0.664463	-1.099332
H129	H	2.034188	-0.525449	-1.220834
H130	H	1.943138	-0.341427	-1.273377
H131	H	1.747850	-0.296426	-1.204415
C132	C	1.132217	-0.369536	-0.655381
C133	C	1.101012	-0.271930	-0.589640
C134	C	1.139663	-0.161279	-0.622830
C135	C	1.209519	-0.148234	-0.721761
C136	C	1.240728	-0.245843	-0.787508
C137	C	1.202077	-0.356494	-0.754318
H138	H	1.049297	-0.281584	-0.516400
H139	H	1.116560	-0.089022	-0.574159
H140	H	1.238131	-0.066324	-0.746330
H141	H	1.292443	-0.236190	-0.860748
H142	H	1.225181	-0.428751	-0.802989
C143	C	1.578188	-1.111152	-0.314105
C144	C	1.639848	-1.031604	-0.245592
C145	C	1.716729	-1.071683	-0.160087
C146	C	1.731949	-1.191310	-0.143094
C147	C	1.670287	-1.270865	-0.211609
C148	C	1.593407	-1.230786	-0.297114
H149	H	1.628583	-0.943043	-0.258169
H150	H	1.762375	-1.012791	-0.109367
H151	H	1.788861	-1.220979	-0.079797
H152	H	1.681553	-1.359427	-0.199031
H153	H	1.547760	-1.289679	-0.347833
H154	H	1.559427	-0.919318	-0.336244
C155	C	1.392202	-0.907136	-0.365760
C156	C	1.330063	-0.832968	-0.439703
C157	C	1.220471	-0.791638	-0.406367
C158	C	1.173018	-0.824476	-0.299088
C159	C	1.235157	-0.898648	-0.225139
C160	C	1.344749	-0.939978	-0.258474
H161	H	1.365191	-0.808656	-0.519123
H162	H	1.174472	-0.736730	-0.461110
H163	H	1.091891	-0.793880	-0.274411
H164	H	1.200029	-0.922960	-0.145719
H165	H	1.390748	-0.994885	-0.203731
C166	C	1.135256	-0.659464	-0.373363
C167	C	1.057197	-0.683248	-0.282918
C168	C	1.098880	-0.720037	-0.174564
C169	C	1.218620	-0.733043	-0.156656
C170	C	1.296686	-0.709258	-0.247103
C171	C	1.255004	-0.672469	-0.355457
H172	H	0.968552	-0.673621	-0.296173
H173	H	1.041089	-0.737644	-0.107609
H174	H	1.249476	-0.760276	-0.076446
H175	H	1.385332	-0.718885	-0.233848
H176	H	1.312794	-0.654862	-0.422412
H177	H	1.367864	-1.102333	-0.574270
C178	C	1.725672	-0.454097	-0.908465
C179	C	1.742584	-0.548978	-0.833984
C180	C	1.854133	-0.574572	-0.792402
C181	C	1.948769	-0.505284	-0.825300
C182	C	1.931859	-0.410396	-0.899785
C183	C	1.820310	-0.384803	-0.941367
H184	H	1.672526	-0.600275	-0.809627
H185	H	1.866650	-0.644814	-0.737263
H186	H	2.031343	-0.524230	-0.794519
H187	H	2.001917	-0.359100	-0.924142
H188	H	1.807793	-0.314560	-0.996506
C189	C	1.674476	-0.908936	-0.652991
C190	C	1.598694	-0.836712	-0.715190
C191	C	1.629521	-0.797299	-0.826257
C192	C	1.736130	-0.830109	-0.875125
C193	C	1.811920	-0.902337	-0.812925
C194	C	1.781092	-0.941750	-0.701858
H195	H	1.519770	-0.812421	-0.679016
H196	H	1.573417	-0.743831	-0.872301
H197	H	1.758951	-0.800933	-0.957344
H198	H	1.890844	-0.926629	-0.849100
H199	H	1.837197	-0.995218	-0.655814
C200	C	0.929523	-0.371378	-0.656503
C201	C	0.855301	-0.309011	-0.582830
C202	C	0.813869	-0.199592	-0.616628
C203	C	0.846659	-0.152539	-0.724100
C204	C	0.920884	-0.214906	-0.797780
C205	C	0.962316	-0.324326	-0.763982
H206	H	0.831025	-0.343842	-0.503266
H207	H	0.758922	-0.153423	-0.562084
H208	H	0.815988	-0.071540	-0.749119
H209	H	0.945161	-0.180076	-0.877344
H210	H	1.017263	-0.370494	-0.818526
H211	H	1.671924	-1.101781	-0.619563
C212	C	1.671569	-0.655814	-1.114508
C213	C	1.733909	-0.582000	-1.188722
C214	C	1.843370	-0.615600	-1.230201
C215	C	1.890490	-0.723014	-1.197466
C216	C	1.828149	-0.796834	-1.123248
C217	C	1.718688	-0.763235	-1.081769
H218	H	1.699029	-0.502480	-1.212958
H219	H	1.889519	-0.560952	-1.285142
H220	H	1.971519	-0.747886	-1.228171
H221	H	1.863029	-0.876355	-1.099012
H222	H	1.672539	-0.817882	-1.026828
H223	H	0.941178	-0.446902	-0.346382
H224	H	1.644582	-0.646224	-0.921845
H225	H	1.123285	-0.446990	-0.345820
H226	H	1.123270	-0.537342	-0.685224
H227	H	1.419321	-1.099762	-0.375360
H228	H	0.941857	-0.538710	-0.685318
H229	H	0.940368	-0.686423	-0.534470
H230	H	1.705221	-1.099942	-0.479668
H231	H	1.122613	-0.683758	-0.541272
H232	H	1.595790	-0.345825	-1.102715
H233	H	1.504254	-0.684906	-1.102134
