data_functionalizedCrystal
_audit_creation_method	'MofGen! by Chris Wilmer'
_symmetry_space_group_name_H-M	'P1'
_symmetry_Int_Tables_number	1
_symmetry_cell_setting	triclinic
loop_
_symmetry_equiv_pos_as_xyz
  x,y,z
_cell_length_a	12.594517
_cell_length_b	12.594516
_cell_length_c	12.594509
_cell_angle_alpha	89.973801
_cell_angle_beta	90.021327
_cell_angle_gamma	89.984147
loop_
_atom_site_label
_atom_site_type_symbol
_atom_site_fract_x
_atom_site_fract_y
_atom_site_fract_z
Zn1	Zn	1.627267	0.423716	0.601875
Zn2	Zn	1.627158	0.601726	0.423903
Zn3	Zn	1.449271	0.423761	0.423904
Zn4	Zn	1.449253	0.601652	0.601833
O5	O	1.538237	0.512714	0.512879
O6	O	1.776198	0.447341	0.578284
O7	O	1.603522	0.578169	0.274957
O8	O	1.472936	0.274809	0.447530
O9	O	1.776118	0.578124	0.447528
O10	O	1.603709	0.274776	0.578285
O11	O	1.472830	0.447419	0.274958
O12	O	1.300323	0.447347	0.447489
O13	O	1.472905	0.577998	0.750784
O14	O	1.300310	0.578042	0.578213
O15	O	1.603691	0.447269	0.750815
O16	O	1.603505	0.750662	0.447488
O17	O	1.472799	0.750608	0.578212
C18	C	1.261696	0.512692	0.512847
C19	C	1.143391	0.512709	0.512859
C20	C	1.538167	0.789255	0.512868
C21	C	1.538235	0.907560	0.512899
C22	C	1.074114	0.441526	0.441894
C23	C	1.003303	0.538615	0.415718
C24	C	1.003403	0.415668	0.539054
C25	C	1.074138	0.609849	0.486632
C26	C	1.074244	0.486836	0.610013
C27	C	1.003465	0.583991	0.583874
C28	C	1.538308	0.512620	0.790500
C29	C	1.538339	0.512581	0.908805
C30	C	1.815858	0.512736	0.512911
C31	C	1.934163	0.512745	0.512924
C32	C	1.538336	0.235093	0.512912
C33	C	1.538378	0.116787	0.512927
C34	C	1.467137	0.976822	0.583950
C35	C	1.441204	1.047688	0.486827
C36	C	1.564265	1.047494	0.610039
C37	C	1.512250	0.976867	0.415725
C38	C	1.635357	0.976667	0.539002
C39	C	1.609460	1.047500	0.441812
C40	C	1.538227	0.512730	0.236338
C41	C	1.538403	0.512470	0.118033
C42	C	1.467227	0.583644	0.978042
C43	C	1.564347	0.609650	1.048833
C44	C	1.441294	0.486510	1.048813
C45	C	1.635510	0.538638	0.978038
C46	C	1.512391	0.415453	0.978012
C47	C	1.609579	0.441422	1.048772
H48	H	0.972144	0.560522	0.333584
H49	H	1.717631	0.560736	0.947080
H50	H	1.586224	1.078518	0.692178
H51	H	1.407136	0.643833	0.946986
O52	O	1.681283	0.369543	1.085636
C53	C	1.628535	0.292379	1.147243
H54	H	1.541292	0.289198	1.123311
H55	H	1.635033	0.314093	1.234871
C56	C	1.787141	0.186962	1.157892
C57	C	1.679989	0.183049	1.128492
H58	H	1.818882	0.119522	1.146330
H59	H	1.822680	0.238950	1.116390
H60	H	1.792541	0.205061	1.230914
H61	H	1.674591	0.164963	1.055469
H62	H	1.644450	0.131055	1.169982
H63	H	1.105135	0.381389	0.381807
O64	O	1.733189	0.939240	0.565299
C65	C	1.731959	0.827307	0.563981
H66	H	1.664671	0.798545	0.510707
H67	H	1.719294	0.796236	0.648060
C68	C	1.921264	0.821189	0.586360
C69	C	1.838625	0.785863	0.520921
H70	H	1.987061	0.795623	0.559804
H71	H	1.922093	0.896600	0.587252
H72	H	1.910696	0.795293	0.656421
H73	H	1.849186	0.811770	0.450866
H74	H	1.837800	0.710455	0.520017
O75	O	0.966503	0.655819	0.655493
C76	C	0.854563	0.654463	0.655339
H77	H	0.825412	0.574796	0.623821
H78	H	0.823606	0.721040	0.602345
C79	C	0.849284	0.768512	0.808046
C80	C	0.813481	0.670660	0.769344
H81	H	0.823941	0.778508	0.878368
H82	H	0.924700	0.769429	0.808148
H83	H	0.823484	0.823982	0.763874
H84	H	0.839292	0.615192	0.813508
H85	H	0.738068	0.669734	0.769252
H86	H	1.105080	0.691955	0.464413
O87	O	1.486325	0.317518	0.940812
C88	C	1.570703	0.277307	0.879236
H89	H	1.647810	0.318058	0.903433
H90	H	1.554349	0.293219	0.791627
C91	C	1.486103	0.106789	0.867918
C92	C	1.580809	0.156834	0.897643
H93	H	1.492335	0.032475	0.879266
H94	H	1.429253	0.133881	0.909399
H95	H	1.472484	0.120061	0.794911
H96	H	1.594419	0.143573	0.970651
H97	H	1.637661	0.129737	0.856174
H98	H	1.359198	0.464506	1.079902
H99	H	1.406905	0.945788	0.643949
H100	H	1.359136	1.078906	0.464772
H101	H	1.105429	0.464899	0.692122
H102	H	0.972276	0.333597	0.561146
O103	O	1.590397	0.707646	1.085904
C104	C	1.515209	0.782392	1.049852
H105	H	1.437716	0.740069	1.029980
H106	H	1.546826	0.823752	0.975800
C107	C	1.590227	0.917327	1.161757
C108	C	1.495045	0.865345	1.137358
H109	H	1.577791	0.968499	1.215731
H110	H	1.640886	0.866970	1.186043
H111	H	1.616565	0.951784	1.100039
H112	H	1.468716	0.830878	1.199071
H113	H	1.444381	0.915698	1.113084
H114	H	1.490197	0.945972	0.333563
H115	H	1.669647	1.078338	0.381669
