data_functionalizedCrystal
_audit_creation_method	'MofGen! by Chris Wilmer'
_symmetry_space_group_name_H-M	'P1'
_symmetry_Int_Tables_number	1
_symmetry_cell_setting	triclinic
loop_
_symmetry_equiv_pos_as_xyz
  x,y,z
_cell_length_a	10.654554
_cell_length_b	13.101039
_cell_length_c	10.654545
_cell_angle_alpha	93.395934
_cell_angle_beta	84.487284
_cell_angle_gamma	86.609913
loop_
_atom_site_label
_atom_site_type_symbol
_atom_site_fract_x
_atom_site_fract_y
_atom_site_fract_z
O1	O	-1.660962	-0.085272	-0.183327
O2	O	-1.295487	-0.085259	-0.200119
O3	O	-1.486627	-0.085265	-0.008984
O4	O	-1.469822	-0.085266	-0.374462
O5	O	-1.500347	0.085164	0.004746
O6	O	-1.309206	0.085170	-0.186388
O7	O	-1.674682	0.085158	-0.169597
Zn8	Zn	-1.494123	0.112223	-0.175813
Zn9	Zn	-1.476046	-0.112325	-0.193903
O10	O	-1.483542	0.085163	-0.360732
C11	C	-1.255549	-0.000043	-0.192018
C12	C	-1.116106	-0.000039	-0.188320
C13	C	-1.131039	0.185769	-0.173366
C14	C	-1.072996	0.278671	-0.164155
C15	C	-0.941978	0.278669	-0.160679
C16	C	-0.869000	0.185755	-0.166411
C17	C	-0.927043	0.092854	-0.175622
C18	C	-1.058064	0.092865	-0.179101
C19	C	-0.912111	-0.092952	-0.190567
C20	C	-1.043128	-0.092952	-0.194052
C21	C	-0.839133	-0.185865	-0.196299
C22	C	-0.897175	-0.278769	-0.205519
C23	C	-1.028201	-0.278764	-0.208996
C24	C	-1.101171	-0.185854	-0.203263
N25	N	-1.463710	-0.265573	-0.206241
C26	C	-1.446915	-0.474615	-0.223026
C27	C	-1.523260	-0.525493	-0.146684
C28	C	-1.513915	-0.641811	-0.156024
C29	C	-1.456258	-0.358286	-0.213688
C30	C	-0.714622	-0.000055	-0.177688
C31	C	-0.854068	-0.000050	-0.181357
C32	C	-1.492252	-0.000052	0.044679
C33	C	-1.488559	-0.000058	0.184122
N34	N	-1.506469	0.265471	-0.163466
C35	C	-1.477916	-0.000052	-0.414395
C36	C	-1.481609	-0.000053	-0.553838
C37	C	-1.473617	-0.185866	0.169161
C38	C	-1.464415	-0.278769	0.227190
C39	C	-1.460946	-0.278770	0.358209
C40	C	-1.466675	-0.185858	0.431202
C41	C	-1.475877	-0.092955	0.373172
C42	C	-1.479349	-0.092964	0.242150
C43	C	-1.490810	0.092851	0.388132
C44	C	-1.494289	0.092854	0.257114
C45	C	-1.496539	0.185763	0.461125
C46	C	-1.505750	0.278668	0.403096
C47	C	-1.509220	0.278665	0.272070
C48	C	-1.503490	0.185757	0.199085
H49	H	-0.837747	-0.354412	-0.210178
C50	C	-1.492720	0.185769	0.605242
H51	H	-1.497440	0.254406	0.640397
H52	H	-1.562287	0.151463	0.641059
H53	H	-1.416060	0.151455	0.623179
C54	C	-1.245288	-0.185849	-0.207086
H55	H	-1.269408	-0.254483	-0.213399
H56	H	-1.286623	-0.151526	-0.132005
H57	H	-1.268740	-0.151545	-0.278233
C58	C	-1.458119	-0.380964	0.146899
H59	H	-1.461515	-0.367663	0.060558
H60	H	-1.381375	-0.419144	0.156358
H61	H	-1.527603	-0.419128	0.174238
H62	H	-1.374540	-0.518410	-0.295392
H63	H	-1.453442	-0.354420	0.405454
H64	H	-1.595638	-0.481693	-0.074312
C65	C	-1.512051	0.380857	0.483387
H66	H	-1.508668	0.367550	0.569727
H67	H	-1.442585	0.419031	0.456049
H68	H	-1.588811	0.419028	0.473936
C69	C	-1.519342	0.380861	0.208247
H70	H	-1.522264	0.436189	0.270488
H71	H	-1.447900	0.384720	0.148506
H72	H	-1.594127	0.384729	0.166392
H73	H	-0.894719	0.354318	-0.153188
H74	H	-1.506321	0.185746	0.092402
C75	C	-1.478434	-0.185869	0.025171
H76	H	-1.474001	-0.254505	-0.009951
H77	H	-1.555364	-0.151550	0.008008
H78	H	-1.409183	-0.151566	-0.011342
H79	H	-1.237720	0.185779	-0.176212
H80	H	-0.732453	-0.185860	-0.193460
H81	H	-0.762321	0.185762	-0.163564
H82	H	-1.132430	0.354319	-0.159485
C83	C	-1.092038	-0.380958	-0.219132
H84	H	-1.029806	-0.436287	-0.222056
H85	H	-1.151785	-0.384816	-0.147695
H86	H	-1.133888	-0.384825	-0.293922
H87	H	-1.463835	-0.185867	0.537882
