data_functionalizedCrystal
_audit_creation_method	'MofGen! by Chris Wilmer'
_symmetry_space_group_name_H-M	'P1'
_symmetry_Int_Tables_number	1
_symmetry_cell_setting	triclinic
loop_
_symmetry_equiv_pos_as_xyz
  x,y,z
_cell_length_a	19.288835
_cell_length_b	17.766277
_cell_length_c	19.288865
_cell_angle_alpha	89.989546
_cell_angle_beta	83.130103
_cell_angle_gamma	89.982126
loop_
_atom_site_label
_atom_site_type_symbol
_atom_site_fract_x
_atom_site_fract_y
_atom_site_fract_z
O1	O	-0.921367	0.062750	-0.086548
O2	O	-0.719103	0.062721	-0.098259
O3	O	-0.826079	0.062721	0.008728
O4	O	-0.814390	0.062750	-0.193534
O5	O	-0.826060	-0.062467	0.008731
O6	O	-0.719084	-0.062468	-0.098256
O7	O	-0.921347	-0.062438	-0.086545
Cu8	Cu	-0.820214	-0.073884	-0.092400
Cu9	Cu	-0.820237	0.074166	-0.092404
O10	O	-0.814371	-0.062439	-0.193531
C11	C	-0.693217	0.000122	-0.097884
C12	C	-0.616112	0.000110	-0.096763
N13	N	-0.820203	-0.178014	-0.092397
C14	C	-0.579919	0.068352	-0.096226
C15	C	-0.507472	0.068359	-0.095166
C16	C	-0.471222	0.000121	-0.094628
C17	C	-0.507424	-0.068129	-0.095168
C18	C	-0.579869	-0.068134	-0.096236
C19	C	-0.361886	-0.052156	-0.052251
C20	C	-0.289444	-0.052148	-0.051179
C21	C	-0.247778	0.000135	-0.091338
C22	C	-0.278566	0.052422	-0.132560
C23	C	-0.351011	0.052417	-0.133628
C24	C	-0.392668	0.000119	-0.093470
C25	C	-0.133029	0.068389	-0.089652
C26	C	-0.060580	0.068393	-0.088595
C27	C	-0.060535	-0.068097	-0.088591
C28	C	-0.132982	-0.068099	-0.089655
C29	C	-0.169225	0.000146	-0.090181
C30	C	-0.862191	-0.217382	-0.134416
C31	C	-0.862202	-0.296184	-0.134414
C32	C	-0.820212	-0.335615	-0.092401
C33	C	-0.778221	-0.296237	-0.050373
C34	C	-0.778217	-0.217437	-0.050371
C35	C	-0.757599	-0.460484	-0.090651
C36	C	-0.757602	-0.539283	-0.090658
C37	C	-0.820226	-0.578661	-0.092403
C38	C	-0.882849	-0.539231	-0.094156
C39	C	-0.882845	-0.460430	-0.094154
C40	C	-0.820213	-0.421060	-0.092398
C41	C	-0.862230	-0.703475	-0.134423
C42	C	-0.862242	-0.782278	-0.134416
C43	C	-0.778255	-0.782330	-0.050379
C44	C	-0.778249	-0.703528	-0.050382
C45	C	-0.820236	-0.664105	-0.092407
C46	C	0.052767	0.000156	-0.086924
C47	C	-0.024336	0.000155	-0.088059
C48	C	-0.825694	0.000125	0.034606
C49	C	-0.824565	0.000118	0.111709
N50	N	-0.820253	0.178297	-0.092401
C51	C	-0.814757	0.000159	-0.219409
C52	C	-0.815886	0.000171	-0.296513
C53	C	-0.887333	0.000124	0.156412
C54	C	-0.886273	0.000135	0.228859
C55	C	-0.822440	0.000127	0.256600
C56	C	-0.759663	0.000125	0.211887
C57	C	-0.760725	0.000121	0.139441
C58	C	-0.772253	-0.043732	0.364883
C59	C	-0.771193	-0.043732	0.437327
C60	C	-0.819160	0.000143	0.480045
C61	C	-0.868199	0.044009	0.450311
C62	C	-0.869261	0.044004	0.377866
C63	C	-0.821280	0.000132	0.335154
C64	C	-0.880783	0.000162	0.603304
C65	C	-0.879720	0.000179	0.675752
C66	C	-0.753108	0.000161	0.658778
C67	C	-0.754173	0.000152	0.586332
C68	C	-0.818012	0.000149	0.558599
H69	H	-0.609424	0.123922	-0.096656
Br70	Br	-0.721279	-0.835835	0.006652
Br71	Br	-0.704646	-0.103268	0.477674
Br72	Br	-0.707149	-0.103282	0.306915
H73	H	-0.709609	0.000116	0.103043
Br74	Br	-0.721225	-0.164005	0.006656
H75	H	-0.162451	-0.123669	-0.090087
Br76	Br	-0.666475	0.000156	0.696418
H77	H	-0.744055	-0.671475	-0.016168
H78	H	-0.706610	-0.571381	-0.089235
H79	H	-0.477997	0.123931	-0.094730
H80	H	-0.244643	0.094993	-0.165264
Br81	Br	-0.247665	-0.123122	0.004748
H82	H	-0.930836	0.000187	0.712149
Br83	Br	-0.919237	-0.835708	-0.191441
Br84	Br	-0.668982	0.000144	0.525659
H85	H	-0.896418	-0.671375	-0.168642
Br86	Br	-0.182220	0.161004	-0.090372
H87	H	-0.707689	0.000120	0.234478
Br88	Br	-0.418425	-0.123120	0.002253
H89	H	-0.031113	0.123966	-0.088163
H90	H	-0.376074	0.094989	-0.167194
H91	H	-0.477905	-0.123689	-0.094732
H92	H	-0.706598	-0.428429	-0.089235
Br93	Br	-0.967828	-0.406920	-0.096533
H94	H	-0.896394	-0.328243	-0.168633
H95	H	-0.609337	-0.123706	-0.096674
H96	H	-0.031021	-0.123657	-0.088157
H97	H	-0.896382	-0.185289	-0.168634
Br98	Br	-0.935807	0.103537	0.337513
Br99	Br	-0.967846	-0.592662	-0.096527
H100	H	-0.939316	0.000124	0.133837
Br101	Br	-0.971465	0.000146	0.289539
Br102	Br	-0.721239	-0.349748	0.006650
Br103	Br	-0.933303	0.103557	0.508276
Br104	Br	-0.967420	0.000151	0.565662
