data_functionalizedCrystal
_audit_creation_method	'MofGen! by Chris Wilmer'
_symmetry_space_group_name_H-M	'P1'
_symmetry_Int_Tables_number	1
_symmetry_cell_setting	triclinic
loop_
_symmetry_equiv_pos_as_xyz
  x,y,z
_cell_length_a	17.077404
_cell_length_b	19.076808
_cell_length_c	19.076919
_cell_angle_alpha	89.878360
_cell_angle_beta	92.282280
_cell_angle_gamma	92.321444
loop_
_atom_site_label
_atom_site_type_symbol
_atom_site_fract_x
_atom_site_fract_y
_atom_site_fract_z
Zn1	Zn	1.169470	-0.295779	-0.386032
Zn2	Zn	1.669470	0.204221	0.113968
Zn3	Zn	1.169801	-0.408573	-0.263801
Zn4	Zn	1.669801	0.091427	0.236199
Zn5	Zn	1.043683	-0.291074	-0.268543
Zn6	Zn	1.543683	0.208926	0.231457
Zn7	Zn	1.033114	-0.413251	-0.381271
Zn8	Zn	1.533114	0.086749	0.118729
O9	O	1.104017	-0.352169	-0.324912
O10	O	1.604017	0.147831	0.175088
O11	O	1.279360	-0.310753	-0.369826
O12	O	1.779360	0.189247	0.130174
O13	O	1.157633	-0.389060	-0.166099
O14	O	1.657633	0.110940	0.333901
O15	O	1.064654	-0.193362	-0.288104
O16	O	1.564654	0.306638	0.211896
O17	O	1.279603	-0.393622	-0.280024
O18	O	1.779603	0.106378	0.219976
O19	O	1.157069	-0.196818	-0.374423
O20	O	1.657069	0.303182	0.125577
O21	O	1.064975	-0.302734	-0.169582
O22	O	1.564975	0.197266	0.330418
O23	O	0.932435	-0.307270	-0.283488
O24	O	1.432435	0.192730	0.216512
O25	O	1.046640	-0.401595	-0.480234
O26	O	1.546640	0.098405	0.019766
O27	O	0.924670	-0.397033	-0.366309
O28	O	1.424670	0.102967	0.133691
O29	O	1.146820	-0.315288	-0.483732
O30	O	1.646820	0.184712	0.016268
O31	O	1.147384	-0.507530	-0.275407
O32	O	1.647384	-0.007530	0.224593
O33	O	1.046961	-0.510967	-0.361712
O34	O	1.546961	-0.010967	0.138288
C35	C	0.900071	-0.352149	-0.324897
C36	C	1.400071	0.147851	0.175103
C37	C	0.812820	-0.352158	-0.324906
C38	C	1.312820	0.147842	0.175094
C39	C	0.771697	-0.309090	-0.371732
C40	C	1.271697	0.190910	0.128268
C41	C	0.689717	-0.309095	-0.371735
C42	C	1.189717	0.190905	0.128265
C43	C	0.648860	-0.352171	-0.324915
C44	C	1.148860	0.147829	0.175085
C45	C	0.689988	-0.395240	-0.278085
C46	C	1.189988	0.104760	0.221915
C47	C	0.771968	-0.395232	-0.278079
C48	C	1.271968	0.104768	0.221921
C49	C	0.519116	-0.395257	-0.278102
C50	C	1.019116	0.104743	0.221898
C51	C	0.437131	-0.395267	-0.278108
C52	C	0.937131	0.104733	0.221892
C53	C	0.436866	-0.309120	-0.371758
C54	C	0.936866	0.190880	0.128242
C55	C	0.518845	-0.309111	-0.371752
C56	C	1.018845	0.190889	0.128248
C57	C	0.559968	-0.352182	-0.324922
C58	C	1.059968	0.147818	0.175078
C59	C	1.096082	-0.534747	-0.317544
C60	C	1.596082	-0.034747	0.182456
C61	C	1.092758	-0.612855	-0.314415
C62	C	1.592758	-0.112855	0.185585
C63	C	1.139273	-0.651291	-0.357924
C64	C	1.639273	-0.151291	0.142076
C65	C	1.136146	-0.724683	-0.354985
C66	C	1.636146	-0.224683	0.145015
C67	C	1.086509	-0.759636	-0.308535
C68	C	1.586509	-0.259636	0.191465
C69	C	1.039989	-0.721195	-0.265025
C70	C	1.539989	-0.221195	0.234975
C71	C	1.043112	-0.647805	-0.267967
C72	C	1.543112	-0.147805	0.232033
C73	C	1.072010	-0.978941	-0.294915
C74	C	1.572010	-0.478941	0.205085
C75	C	1.068892	-1.052336	-0.291974
C76	C	1.568892	-0.552336	0.208026
C77	C	1.165049	-1.055819	-0.381936
C78	C	1.665049	-0.555819	0.118064
C79	C	1.168171	-0.982427	-0.384871
C80	C	1.668171	-0.482427	0.115129
C81	C	1.121648	-0.943993	-0.341364
C82	C	1.621648	-0.443993	0.158636
N83	N	1.083314	-0.834654	-0.305528
N84	N	1.583314	-0.334654	0.194472
N85	N	1.124840	-0.868977	-0.344374
N86	N	1.624840	-0.368977	0.155626
C87	C	1.308759	-0.352190	-0.324927
C88	C	1.808759	0.147810	0.175073
C89	C	1.396009	-0.352200	-0.324934
C90	C	1.896009	0.147800	0.175066
C91	C	1.095514	-0.359488	-0.508192
C92	C	1.595514	0.140512	-0.008192
C93	C	1.091891	-0.362607	-0.586295
C94	C	1.591891	0.137393	-0.086295
C95	C	1.112004	-0.168879	-0.332324
C96	C	1.612004	0.331121	0.167676
C97	C	1.115407	-0.090772	-0.335482
C98	C	1.615407	0.409228	0.164518
C99	C	1.142345	-0.319139	-0.624810
C100	C	1.642345	0.180861	-0.124810
C101	C	1.138931	-0.322067	-0.698196
C102	C	1.638931	0.177933	-0.198196
C103	C	1.085066	-0.368466	-0.733066
C104	C	1.585066	0.131534	-0.233066
C105	C	1.034607	-0.411936	-0.694545
C106	C	1.534607	0.088064	-0.194545
C107	C	1.038018	-0.409004	-0.621161
C108	C	1.538018	0.090996	-0.121161
C109	C	1.069269	-0.382050	-0.952347
C110	C	1.569269	0.117950	-0.452347
C111	C	1.065864	-0.384980	-1.025737
C112	C	1.565864	0.115020	-0.525737
C113	C	1.170187	-0.295109	-1.029383
C114	C	1.670187	0.204891	-0.529383
C115	C	1.173596	-0.292184	-0.955996
C116	C	1.673596	0.207816	-0.455996
C117	C	1.123134	-0.335651	-0.917483
C118	C	1.623134	0.164349	-0.417483
N119	N	1.081577	-0.371462	-0.808078
N120	N	1.581577	0.128538	-0.308078
N121	N	1.126620	-0.332652	-0.842472
N122	N	1.626620	0.167348	-0.342472
C123	C	1.112534	-0.344828	-0.142347
C124	C	1.612534	0.155172	0.357653
C125	C	1.116318	-0.341512	-0.064252
C126	C	1.616318	0.158488	0.435748
H127	H	0.656716	-0.430311	-0.239960
H128	H	1.156716	0.069689	0.260040
H129	H	1.005233	-0.616511	-0.232539
H130	H	1.505233	-0.116511	0.267461
H131	H	0.403867	-0.430344	-0.239984
H132	H	0.903867	0.069656	0.260016
H133	H	1.179696	-0.622837	-0.395746
H134	H	1.679696	-0.122837	0.104254
H135	H	1.217460	-0.254403	-0.927611
H136	H	1.717460	0.245597	-0.427611
C137	C	1.201750	-0.964514	-0.504798
C138	C	1.701750	-0.464514	-0.004798
C139	C	1.222736	-0.944011	-0.435932
C140	C	1.722736	-0.444011	0.064068
H141	H	1.235438	-0.940794	-0.536318
H142	H	1.735438	-0.440794	-0.036318
H143	H	1.206547	-1.013717	-0.509267
H144	H	1.706547	-0.513717	-0.009267
H145	H	1.149035	-0.952922	-0.515515
H146	H	1.649035	-0.452922	-0.015515
H147	H	1.275449	-0.955607	-0.425213
H148	H	1.775449	-0.455607	0.074787
H149	H	1.217946	-0.894797	-0.431460
H150	H	1.717946	-0.394797	0.068540
H151	H	1.211269	-0.259720	-1.060749
H152	H	1.711269	0.240280	-0.560749
H153	H	1.186209	-0.281357	-0.596425
H154	H	1.686209	0.218643	-0.096425
C155	C	1.034089	-0.864901	-0.259481
C156	C	1.534089	-0.364901	0.240519
C157	C	1.020876	-0.936699	-0.247090
C158	C	1.520876	-0.436699	0.252910
H159	H	1.002515	-0.838821	-0.229957
H160	H	1.502515	-0.338821	0.270043
H161	H	1.087820	-0.852429	-0.249720
H162	H	1.587820	-0.352429	0.250280
H163	H	1.020878	-0.854758	-0.307169
H164	H	1.520878	-0.354758	0.192831
H165	H	1.034092	-0.946843	-0.199403
H166	H	1.534092	-0.446843	0.300597
H167	H	0.967132	-0.949175	-0.256845
H168	H	1.467132	-0.449175	0.243155
H169	H	0.656238	-0.274026	-0.409866
H170	H	1.156238	0.225974	0.090134
H171	H	1.028191	-0.417454	-0.920997
H172	H	1.528191	0.082546	-0.420997
H173	H	1.174030	-0.755974	-0.390409
H174	H	1.674030	-0.255974	0.109591
C175	C	1.058945	-1.131127	-0.194127
C176	C	1.558945	-0.631127	0.305873
C177	C	1.014327	-1.090755	-0.240909
C178	C	1.514327	-0.590755	0.259091
H179	H	1.025261	-1.154840	-0.162599
H180	H	1.525261	-0.654840	0.337401
H181	H	1.086194	-1.164519	-0.219616
H182	H	1.586194	-0.664519	0.280384
H183	H	1.095629	-1.101397	-0.168430
H184	H	1.595629	-0.601397	0.331570
H185	H	0.977646	-1.120486	-0.266610
H186	H	1.477646	-0.620486	0.233390
H187	H	0.987064	-1.057359	-0.215416
H188	H	1.487064	-0.557359	0.284584
H189	H	0.805449	-0.430301	-0.239948
H190	H	1.305449	0.069699	0.260052
H191	H	1.180017	-0.286672	-0.729552
H192	H	1.680017	0.213328	-0.229552
C193	C	0.510353	-0.223953	-0.464316
C194	C	1.010353	0.276047	0.035684
C195	C	0.563757	-0.261760	-0.423214
C196	C	1.063757	0.238240	0.076786
H197	H	0.538082	-0.194716	-0.496082
H198	H	1.038082	0.305284	0.003918
H199	H	0.475814	-0.255685	-0.489912
H200	H	0.975814	0.244315	0.010088
H201	H	0.480954	-0.195810	-0.434827
H202	H	0.980954	0.304190	0.065173
H203	H	0.593153	-0.289907	-0.452703
H204	H	1.093153	0.210093	0.047297
H205	H	0.598310	-0.230024	-0.397617
H206	H	1.098310	0.269976	0.102383
C207	C	0.963074	-0.473515	-1.014766
C208	C	1.463074	0.026485	-0.514766
C209	C	1.006649	-0.435983	-1.064067
C210	C	1.506649	0.064017	-0.564067
H211	H	0.926518	-0.504997	-1.038432
H212	H	1.426518	-0.004997	-0.538432
H213	H	0.997428	-0.499256	-0.985060
H214	H	1.497428	0.000744	-0.485060
H215	H	0.935714	-0.441742	-0.987379
H216	H	1.435714	0.058258	-0.487379
H217	H	1.034014	-0.467756	-1.091451
H218	H	1.534014	0.032244	-0.591451
H219	H	0.972290	-0.410240	-1.093786
H220	H	1.472290	0.089760	-0.593786
H221	H	0.403380	-0.274049	-0.409887
H222	H	0.903380	0.225951	0.090113
C223	C	1.202954	-1.169866	-0.417378
C224	C	1.702954	-0.669866	0.082622
C225	C	1.216177	-1.098068	-0.429764
C226	C	1.716177	-0.598068	0.070236
H227	H	1.234515	-1.195948	-0.446911
H228	H	1.734515	-0.695948	0.053089
H229	H	1.216168	-1.180015	-0.369699
H230	H	1.716168	-0.680015	0.130301
H231	H	1.149212	-1.182330	-0.427134
H232	H	1.649212	-0.682330	0.072866
H233	H	1.269918	-1.085603	-0.420002
H234	H	1.769918	-0.585603	0.079998
H235	H	1.202968	-1.087915	-0.477454
H236	H	1.702968	-0.587915	0.022546
H237	H	0.999570	-0.749660	-0.227206
H238	H	1.499570	-0.249660	0.272794
H239	H	0.990747	-0.449713	-0.722942
H240	H	1.490747	0.050287	-0.222942
C241	C	0.934579	-0.498150	-0.624923
C242	C	1.434579	0.001850	-0.124923
C243	C	0.982571	-0.456798	-0.578821
C244	C	1.482571	0.043202	-0.078821
H245	H	0.900353	-0.527661	-0.598783
H246	H	1.400353	-0.027661	-0.098783
H247	H	0.904549	-0.468677	-0.654773
H248	H	1.404549	0.031323	-0.154773
H249	H	0.966290	-0.526168	-0.652469
H250	H	1.466290	-0.026168	-0.152469
H251	H	0.950860	-0.428776	-0.551279
H252	H	1.450860	0.071224	-0.051279
H253	H	1.012603	-0.486274	-0.548958
H254	H	1.512603	0.013726	-0.048958
H255	H	0.552596	-0.430328	-0.239966
H256	H	1.052596	0.069672	0.260034
C257	C	0.763192	-0.223936	-0.464297
C258	C	1.263192	0.276064	0.035703
C259	C	0.816604	-0.261739	-0.423199
C260	C	1.316604	0.238261	0.076801
H261	H	0.790916	-0.194699	-0.496067
H262	H	1.290916	0.305301	0.003933
H263	H	0.728651	-0.255670	-0.489888
H264	H	1.228651	0.244330	0.010112
H265	H	0.733796	-0.195793	-0.434806
H266	H	1.233796	0.304207	0.065194
H267	H	0.845996	-0.289886	-0.452689
H268	H	1.345996	0.210114	0.047311
H269	H	0.851158	-0.230001	-0.397606
H270	H	1.351158	0.269999	0.102394
