data_functionalizedCrystal
_audit_creation_method	'MofGen! by Chris Wilmer'
_symmetry_space_group_name_H-M	'P1'
_symmetry_Int_Tables_number	1
_symmetry_cell_setting	triclinic
loop_
_symmetry_equiv_pos_as_xyz
  x,y,z
_cell_length_a	10.489741
_cell_length_b	15.944551
_cell_length_c	9.565339
_cell_angle_alpha	89.999279
_cell_angle_beta	89.999100
_cell_angle_gamma	84.018956
loop_
_atom_site_label
_atom_site_type_symbol
_atom_site_fract_x
_atom_site_fract_y
_atom_site_fract_z
O1	O	1.692410	0.118501	-0.116177
O2	O	1.321060	0.129624	-0.116199
O3	O	1.516876	0.001849	-0.116175
O4	O	1.496594	0.246276	-0.116201
O5	O	1.516860	0.001857	0.116345
O6	O	1.321045	0.129632	0.116321
O7	O	1.692395	0.118509	0.116343
Zn8	Zn	1.506717	0.124072	0.153250
Zn9	Zn	1.506738	0.124061	-0.153106
O10	O	1.496579	0.246284	0.116319
C11	C	1.273532	0.128788	0.000058
C12	C	1.131938	0.126275	0.000050
C13	C	1.516026	-0.029446	0.000085
C14	C	1.513502	-0.122708	0.000086
C15	C	1.064925	0.044975	0.000072
C16	C	0.972273	0.083376	-0.114573
C17	C	0.972292	0.083403	0.114673
C18	C	1.041151	0.164709	-0.114690
C19	C	1.041179	0.164725	0.114659
C20	C	0.948554	0.203186	-0.000014
C21	C	1.386093	-0.338330	0.000059
C22	C	1.445250	-0.398988	0.114709
C23	C	1.508935	-0.293461	0.000075
C24	C	1.445294	-0.398979	-0.114537
C25	C	1.504515	-0.458400	0.000058
C26	C	1.568126	-0.352890	0.114820
C27	C	1.568153	-0.352875	-0.114530
C28	C	1.627399	-0.413515	0.000148
C29	C	1.511478	-0.198443	0.000086
C30	C	1.501982	-0.553417	0.000058
C31	C	1.739922	0.119345	0.000083
C32	C	1.881517	0.121858	0.000082
C33	C	1.497429	0.277579	0.000056
C34	C	1.499953	0.370841	0.000046
N35	N	1.506713	0.124078	0.362329
N36	N	1.506752	0.124048	-0.362185
C37	C	1.416127	0.183150	0.453521
C38	C	1.531388	0.200146	0.546705
C39	C	1.391501	0.107089	0.546701
C40	C	1.622032	0.141112	0.453461
C41	C	1.482069	0.048022	0.453449
C42	C	1.597414	0.064986	0.546591
H43	H	0.941742	0.048973	-0.211493
H44	H	1.719502	0.155546	0.412677
N45	N	0.933996	0.040252	0.236269
N46	N	0.818220	0.031958	0.256263
H47	H	0.791175	0.001478	0.342134
N48	N	1.380098	-0.424591	-0.236116
N49	N	1.282411	-0.462638	-0.223381
H50	H	1.236358	-0.480726	-0.309240
N51	N	1.258176	-0.297322	0.000198
N52	N	1.183825	-0.309623	0.098483
H53	H	1.093485	-0.280661	0.098587
H54	H	0.898203	0.270090	-0.000084
N55	N	1.557601	0.280806	0.598110
N56	N	1.660234	0.309522	0.566564
H57	H	1.678743	0.366489	0.602866
N58	N	1.380084	-0.424625	0.236294
N59	N	1.437756	-0.474088	0.322115
H60	H	1.391727	-0.492192	0.407981
N61	N	1.269252	0.089064	0.598054
N62	N	1.226628	0.021209	0.566489
H63	H	1.140286	0.008484	0.602751
H64	H	1.729454	-0.446060	0.000219
N65	N	1.128362	-0.038883	-0.000070
N66	N	1.110792	-0.087834	-0.098657
H67	H	1.155594	-0.147058	-0.098764
N68	N	1.693639	0.002312	0.597575
N69	N	1.708707	-0.008241	0.726240
H70	H	1.776671	-0.052499	0.762255
H71	H	1.071509	0.199079	-0.211724
H72	H	1.071742	0.199100	0.211583
N73	N	1.320116	0.245881	0.402268
N74	N	1.325292	0.321762	0.432197
H75	H	1.257489	0.366067	0.396002
H76	H	1.620033	-0.332584	0.211854
H77	H	1.620072	-0.332436	-0.211456
N78	N	1.455833	-0.032625	0.402033
N79	N	1.352348	-0.060760	0.431854
H80	H	1.333805	-0.117718	0.395542
