data_functionalizedCrystal
_audit_creation_method	'MofGen! by Chris Wilmer'
_symmetry_space_group_name_H-M	'P1'
_symmetry_Int_Tables_number	1
_symmetry_cell_setting	triclinic
loop_
_symmetry_equiv_pos_as_xyz
  x,y,z
_cell_length_a	19.288864
_cell_length_b	14.519731
_cell_length_c	18.366186
_cell_angle_alpha	89.992785
_cell_angle_beta	89.977106
_cell_angle_gamma	83.412549
loop_
_atom_site_label
_atom_site_type_symbol
_atom_site_fract_x
_atom_site_fract_y
_atom_site_fract_z
O1	O	0.921773	0.115044	-0.060785
O2	O	0.719569	0.130563	-0.060735
O3	O	0.826025	-0.011468	-0.060755
O4	O	0.815318	0.257074	-0.060765
O5	O	0.826007	-0.011475	0.060345
O6	O	0.719551	0.130556	0.060364
O7	O	0.921755	0.115037	0.060315
Zn8	Zn	0.820650	0.122795	0.079566
Zn9	Zn	0.820674	0.122804	-0.079987
O10	O	0.815300	0.257067	0.060334
C11	C	0.693682	0.130060	-0.000179
C12	C	0.616573	0.128561	-0.000160
C13	C	0.572182	0.211898	-0.000175
C14	C	0.499729	0.210490	-0.000183
C15	C	0.471672	0.125740	-0.000191
C16	C	0.516073	0.042392	-0.000172
C17	C	0.588524	0.043802	-0.000156
C18	C	0.363173	0.059119	-0.042639
C19	C	0.290723	0.057712	-0.042659
C20	C	0.248210	0.121385	-0.000235
C21	C	0.278155	0.186482	0.042200
C22	C	0.350605	0.187892	0.042215
C23	C	0.393112	0.124201	-0.000207
C24	C	0.125257	0.203201	-0.000257
C25	C	0.052804	0.201790	-0.000260
C26	C	0.069150	0.033689	-0.000257
C27	C	0.141601	0.035103	-0.000246
C28	C	0.169650	0.119862	-0.000249
C29	C	0.825514	-0.045827	-0.000205
C30	C	0.824011	-0.148198	-0.000204
C31	C	0.822789	-0.231335	-0.000205
C32	C	0.821263	-0.335634	-0.000211
C33	C	0.820052	-0.418765	-0.000215
C34	C	0.818525	-0.523071	-0.000219
C35	C	0.947643	0.115540	-0.000243
C36	C	1.024752	0.117039	-0.000267
C37	C	0.815811	0.291427	-0.000218
C38	C	0.817314	0.393798	-0.000223
N39	N	0.820639	0.122788	0.188458
N40	N	0.820691	0.122804	-0.188878
C41	C	0.867793	0.059928	0.226549
C42	C	0.867798	0.059924	0.302777
C43	C	0.820655	0.122796	0.340910
C44	C	0.773492	0.185661	0.302809
C45	C	0.773484	0.185657	0.226583
C46	C	0.811664	0.206824	0.461669
C47	C	0.811676	0.206829	0.537894
C48	C	0.820674	0.122808	0.576018
C49	C	0.829675	0.038778	0.537908
C50	C	0.829667	0.038774	0.461681
C51	C	0.820657	0.122807	0.423565
C52	C	0.867836	0.059938	0.696765
C53	C	0.867835	0.059932	0.772994
C54	C	0.773533	0.185678	0.773025
C55	C	0.773530	0.185675	0.696797
C56	C	0.820685	0.122806	0.658671
H57	H	0.148096	0.272217	-0.000249
O58	O	0.722626	0.253458	0.185486
H59	H	0.731568	0.325324	0.200095
O60	O	0.801983	0.297454	0.578997
H61	H	0.795716	0.355879	0.539683
O62	O	0.722646	0.253481	0.343932
H63	H	0.730579	0.242931	0.403337
O64	O	0.636406	-0.046090	-0.000145
H65	H	0.669774	-0.049471	0.049223
O66	O	0.839385	-0.051862	0.579005
H67	H	0.792987	-0.057638	0.613752
O68	O	0.602437	0.303312	-0.000158
H69	H	0.559391	0.361026	-0.000158
O70	O	0.918694	-0.007872	0.814086
H71	H	0.952491	0.030845	0.848798
H72	H	0.906188	0.008734	0.195510
O73	O	0.382910	0.258062	0.088011
H74	H	0.341183	0.302092	0.117523
O75	O	0.451836	0.300377	-0.000206
H76	H	0.483512	0.359551	-0.000212
O77	O	0.485812	-0.049016	-0.000176
H78	H	0.528856	-0.106732	-0.000156
O79	O	0.258432	-0.012494	-0.088430
H80	H	0.200910	-0.002770	-0.081323
H81	H	0.836994	-0.029646	0.430655
H82	H	0.397781	0.007267	-0.077190
O83	O	0.918665	-0.007868	0.343877
H84	H	0.951457	-0.051579	0.304559
H85	H	0.243542	0.238330	0.076747
H86	H	0.735145	0.236866	0.804072
O87	O	0.004918	0.291678	-0.000274
H88	H	0.036598	0.350849	-0.000279
H89	H	0.046306	-0.035316	-0.000308
H90	H	0.177746	-0.032759	-0.000238
O91	O	0.918673	-0.007881	0.655625
H92	H	0.972839	0.003664	0.670219
O93	O	0.722679	0.253485	0.655704
H94	H	0.689901	0.297210	0.695024
O95	O	0.801963	0.297451	0.420550
H96	H	0.795719	0.355881	0.459854
