data_functionalizedCrystal
_audit_creation_method	'MofGen! by Chris Wilmer'
_symmetry_space_group_name_H-M	'P1'
_symmetry_Int_Tables_number	1
_symmetry_cell_setting	triclinic
loop_
_symmetry_equiv_pos_as_xyz
  x,y,z
_cell_length_a	10.654545
_cell_length_b	10.654559
_cell_length_c	9.730223
_cell_angle_alpha	89.998196
_cell_angle_beta	89.997167
_cell_angle_gamma	84.485882
loop_
_atom_site_label
_atom_site_type_symbol
_atom_site_fract_x
_atom_site_fract_y
_atom_site_fract_z
O1	O	1.667848	0.176371	-0.114268
O2	O	1.302370	0.193183	-0.114273
O3	O	1.493506	0.002038	-0.114270
O4	O	1.476712	0.367515	-0.114270
O5	O	1.493493	0.002033	0.114310
O6	O	1.302357	0.193177	0.114307
O7	O	1.667836	0.176366	0.114312
Zn8	Zn	1.485094	0.184771	0.150602
Zn9	Zn	1.485111	0.184778	-0.150562
O10	O	1.476699	0.367510	0.114310
C11	C	1.255565	0.191947	0.000017
C12	C	1.116122	0.188257	0.000015
C13	C	1.050610	0.186518	0.124614
C14	C	0.919591	0.183030	0.124614
C15	C	0.919605	0.183027	-0.124596
C16	C	1.050623	0.186506	-0.124595
C17	C	1.492264	-0.044762	0.000017
C18	C	1.488568	-0.184205	0.000009
C19	C	1.372555	-0.235743	0.000003
C20	C	1.369089	-0.366765	0.000014
C21	C	1.597659	-0.394701	0.000028
C22	C	1.601123	-0.263681	0.000028
C23	C	1.240592	-0.219615	-0.000011
C24	C	1.237126	-0.350637	-0.000001
C25	C	1.714640	0.177601	0.000020
C26	C	1.854084	0.181291	0.000013
C27	C	1.477941	0.414311	0.000020
C28	C	1.481638	0.553753	0.000019
N29	N	1.485093	0.184765	0.356138
N30	N	1.485123	0.184773	-0.356098
C31	C	1.569757	0.100162	0.428065
C32	C	1.569769	0.100163	0.571948
C33	C	1.400449	0.269380	0.571964
C34	C	1.400432	0.269373	0.428084
H35	H	0.866257	0.181614	0.226076
H36	H	1.638691	0.031268	0.369490
O37	O	1.661101	0.008929	0.649532
H38	H	1.719973	-0.049890	0.575327
O39	O	0.848952	0.181135	-0.258987
H40	H	0.916524	0.182911	-0.345629
O41	O	1.121296	0.188387	-0.258990
H42	H	1.053740	0.186604	-0.345639
O43	O	1.309153	0.360648	0.649561
H44	H	1.323398	0.346453	0.761694
O45	O	1.726249	-0.208087	0.000028
H46	H	1.803929	-0.285366	0.000022
O47	O	1.309116	0.360631	0.350489
H48	H	1.250262	0.419478	0.424687
H49	H	1.200730	-0.173971	-0.098709
H50	H	1.103935	0.187944	0.226079
O51	O	1.719057	-0.480419	0.000046
H52	H	1.697160	-0.580185	0.000042
O53	O	1.174733	-0.164309	0.126700
H54	H	1.075193	-0.186927	0.126626
O55	O	1.181450	-0.397854	0.130725
H56	H	1.083432	-0.353658	0.142945
O57	O	1.168794	-0.389557	-0.126713
H58	H	1.138101	-0.304705	-0.188763
