data_functionalizedCrystal
_audit_creation_method	'MofGen! by Chris Wilmer'
_symmetry_space_group_name_H-M	'P1'
_symmetry_Int_Tables_number	1
_symmetry_cell_setting	triclinic
loop_
_symmetry_equiv_pos_as_xyz
  x,y,z
_cell_length_a	14.044209
_cell_length_b	26.809956
_cell_length_c	14.044220
_cell_angle_alpha	90.005345
_cell_angle_beta	86.811585
_cell_angle_gamma	89.981697
loop_
_atom_site_label
_atom_site_type_symbol
_atom_site_fract_x
_atom_site_fract_y
_atom_site_fract_z
O1	O	-1.277195	0.041421	0.230158
O2	O	-1.000524	0.041435	0.221855
O3	O	-1.134707	0.041424	0.087671
O4	O	-1.143012	0.041433	0.364342
O5	O	-1.134640	-0.041536	0.087663
O6	O	-1.000457	-0.041524	0.221847
O7	O	-1.277128	-0.041538	0.230151
Zn8	Zn	-1.138782	-0.054703	0.225998
Zn9	Zn	-1.138870	0.054600	0.226008
O10	O	-1.142946	-0.041526	0.364335
C11	C	-0.964868	-0.000043	0.218216
C12	C	-0.858726	-0.000037	0.207372
C13	C	-0.664388	-0.000047	0.187547
C14	C	-0.613258	-0.000046	0.264462
C15	C	-0.505122	-0.000051	0.253431
C16	C	-0.772534	-0.000041	0.198576
N17	N	-1.138729	-0.129299	0.225991
C18	C	-1.079386	-0.526177	0.285388
C19	C	-1.079336	-0.317299	0.285383
O20	O	-1.028759	-0.290294	0.335864
N21	N	-1.138762	-0.291177	0.225991
C22	C	-1.198201	-0.317278	0.166590
O23	O	-1.248738	-0.290267	0.116066
C24	C	-1.198245	-0.526155	0.166590
C25	C	-1.138821	-0.552274	0.225994
C26	C	-1.019966	-0.552296	0.344786
C27	C	-1.019983	-0.604512	0.344790
C28	C	-1.079419	-0.630609	0.285396
C29	C	-1.138838	-0.604490	0.225998
C30	C	-1.257678	-0.552254	0.107185
C31	C	-1.257682	-0.604477	0.107189
C32	C	-1.198258	-0.630596	0.166592
C33	C	-1.198291	-0.682803	0.166608
N34	N	-1.138865	-0.708925	0.226001
C35	C	-1.079429	-0.682828	0.285395
C36	C	-1.198175	-0.207615	0.166596
C37	C	-1.198165	-0.155396	0.166597
C38	C	-1.079299	-0.155420	0.285389
C39	C	-1.079314	-0.207640	0.285392
C40	C	-1.138748	-0.233736	0.225988
C41	C	-1.079469	-0.792486	0.285400
C42	C	-1.079494	-0.844707	0.285402
C43	C	-1.198356	-0.844678	0.166606
C44	C	-1.198336	-0.792461	0.166608
C45	C	-1.138884	-0.766367	0.226007
O46	O	-1.248834	-0.709841	0.116146
O47	O	-1.028883	-0.709848	0.335896
C48	C	-1.079369	-0.473960	0.285383
C49	C	-1.138788	-0.447841	0.225985
C50	C	-1.198224	-0.473938	0.166591
C51	C	-1.138778	-0.395622	0.225986
C52	C	-1.079342	-0.369525	0.285380
C53	C	-1.019916	-0.395647	0.344773
C54	C	-1.019933	-0.447863	0.344777
C55	C	-1.257650	-0.447816	0.107199
C56	C	-1.257629	-0.395600	0.107200
C57	C	-1.198193	-0.369503	0.166594
C58	C	-0.312784	-0.000058	0.233792
C59	C	-0.418926	-0.000055	0.244642
C60	C	-1.131038	-0.000056	0.052045
C61	C	-1.120193	-0.000056	-0.054097
N62	N	-1.138930	0.129196	0.226008
C63	C	-1.100367	-0.000048	-0.248435
C64	C	-1.177281	-0.000050	-0.299566
C65	C	-1.166250	-0.000046	-0.407702
C66	C	-1.111397	-0.000053	-0.140289
C67	C	-1.146615	-0.000046	0.399960
C68	C	-1.157459	-0.000042	0.506103
H69	H	-0.650697	-0.000041	0.338595
Cl70	Cl	-0.606588	-0.000051	0.073098
Cl71	Cl	-0.985917	-0.000040	-0.306234
H72	H	-1.031105	-0.865972	0.333779
Cl73	Cl	-1.004731	-0.759690	0.360077
Cl74	Cl	-1.272885	-0.122566	0.091929
H75	H	-0.971593	-0.625775	0.393158
Cl76	Cl	-0.945224	-0.480692	0.419458
Cl77	Cl	-1.273052	-0.759627	0.091937
Cl78	Cl	-0.945237	-0.519497	0.419462
Cl79	Cl	-1.004605	-0.240470	0.360072
Cl80	Cl	-1.291739	-0.000062	-0.241768
H81	H	-1.030905	-0.134163	0.333751
H82	H	-1.246576	-0.228859	0.118221
H83	H	-1.306065	-0.530995	0.058813
H84	H	-1.306079	-0.625722	0.058812
Cl85	Cl	-1.273074	-0.877494	0.091943
Cl86	Cl	-0.945200	-0.362829	0.419442
H87	H	-1.306027	-0.374337	0.058829
H88	H	-1.306049	-0.469061	0.058832
