data_functionalizedCrystal
_audit_creation_method	'MofGen! by Chris Wilmer'
_symmetry_space_group_name_H-M	'P1'
_symmetry_Int_Tables_number	1
_symmetry_cell_setting	triclinic
loop_
_symmetry_equiv_pos_as_xyz
  x,y,z
_cell_length_a	17.699083
_cell_length_b	15.455313
_cell_length_c	17.699083
_cell_angle_alpha	92.658725
_cell_angle_beta	83.282848
_cell_angle_gamma	87.324896
loop_
_atom_site_label
_atom_site_type_symbol
_atom_site_fract_x
_atom_site_fract_y
_atom_site_fract_z
O1	O	-1.007399	0.072118	-0.092392
O2	O	-0.787021	0.072123	-0.104845
O3	O	-0.903436	0.072113	0.011570
O4	O	-0.890984	0.072128	-0.208807
O5	O	-0.896779	-0.072149	0.004940
O6	O	-0.780364	-0.072139	-0.111475
O7	O	-1.000742	-0.072144	-0.099022
Cu8	Cu	-0.889945	-0.085313	-0.105854
Cu9	Cu	-0.897818	0.085293	-0.098013
O10	O	-0.884327	-0.072133	-0.215437
C11	C	-0.755495	-0.000007	-0.107714
C12	C	-0.671477	-0.000006	-0.106375
N13	N	-0.884413	-0.205308	-0.111368
C14	C	-0.628381	-0.078643	-0.109359
C15	C	-0.549439	-0.078644	-0.108089
C16	C	-0.513593	-0.000006	-0.103842
C17	C	-0.556696	0.078638	-0.100856
C18	C	-0.635637	0.078638	-0.102120
C19	C	-0.238333	0.078640	-0.095756
C20	C	-0.159385	0.078634	-0.094495
C21	C	-0.152135	-0.078642	-0.101726
C22	C	-0.231076	-0.078642	-0.102990
C23	C	-0.274172	0.000001	-0.100000
C24	C	-0.359771	0.000001	-0.101375
C25	C	-0.427996	-0.000005	-0.102472
C26	C	-0.933888	-0.250707	-0.061929
C27	C	-0.929711	-0.341515	-0.066106
C28	C	-0.876063	-0.386922	-0.119726
C29	C	-0.826584	-0.341517	-0.169167
C30	C	-0.830757	-0.250711	-0.164986
C31	C	-0.858050	-0.658502	-0.137753
C32	C	-0.853881	-0.749314	-0.141932
C33	C	-0.957008	-0.749305	-0.038869
C34	C	-0.961180	-0.658498	-0.034696
C35	C	-0.911698	-0.613101	-0.084134
N36	N	-0.871795	-0.479742	-0.123999
N37	N	-0.915963	-0.520282	-0.079858
C38	C	-0.032268	-0.000011	-0.096148
C39	C	-0.116289	-0.000005	-0.097473
C40	C	-0.899661	-0.000018	0.036452
C41	C	-0.898323	-0.000019	0.120470
N42	N	-0.903356	0.205288	-0.092493
C43	C	-0.888102	-0.000001	-0.240319
C44	C	-0.889441	0.000005	-0.324337
C45	C	-0.966656	-0.000021	0.169091
C46	C	-0.965394	-0.000014	0.248035
C47	C	-0.895798	-0.000009	0.278356
C48	C	-0.827459	-0.000004	0.229729
C49	C	-0.828722	-0.000006	0.150787
C50	C	-0.822364	0.000003	0.548092
C51	C	-0.821106	0.000002	0.627040
C52	C	-0.959036	-0.000005	0.645340
C53	C	-0.960299	-0.000007	0.566398
C54	C	-0.891961	0.000003	0.517778
C55	C	-0.893330	-0.000003	0.432179
C56	C	-0.894427	-0.000009	0.363954
H57	H	-0.657560	-0.142680	-0.112824
H58	H	-0.977576	-0.213742	-0.018268
Cl59	Cl	-0.786433	-0.806391	-0.209349
H60	H	-0.969996	-0.378478	-0.025848
Cl61	Cl	-0.742814	0.000001	0.089663
H62	H	-0.790469	-0.213748	-0.205244
H63	H	-1.004864	-0.621529	0.008966
Cl64	Cl	-0.689816	0.177501	-0.098366
Cl65	Cl	-0.759136	-0.398598	-0.236574
H66	H	-0.130203	0.142674	-0.091035
Cl67	Cl	-1.047795	-0.000009	0.528286
Cl68	Cl	-1.054153	-0.000036	0.130982
Cl69	Cl	-1.044948	-0.000014	0.706468
H70	H	-0.260257	-0.142677	-0.106452
Cl71	Cl	-0.292500	0.177506	-0.091999
Cl72	Cl	-0.795848	-0.601437	-0.199906
Cl73	Cl	-0.495262	-0.177508	-0.111853
H74	H	-0.527505	0.142666	-0.097392
Cl75	Cl	-1.019208	-0.806379	0.023281
H76	H	-1.021038	-0.000018	0.287620
H77	H	-0.117037	-0.142677	-0.104157
Cl78	Cl	-0.733607	0.000009	0.665156
Cl79	Cl	-0.736453	0.000018	0.486980
Cl80	Cl	-0.739966	0.000012	0.267847
