data_functionalizedCrystal
_audit_creation_method	'MofGen! by Chris Wilmer'
_symmetry_space_group_name_H-M	'P1'
_symmetry_Int_Tables_number	1
_symmetry_cell_setting	triclinic
loop_
_symmetry_equiv_pos_as_xyz
  x,y,z
_cell_length_a	25.639242
_cell_length_b	16.994747
_cell_length_c	25.639233
_cell_angle_alpha	89.993240
_cell_angle_beta	90.022166
_cell_angle_gamma	90.006589
loop_
_atom_site_label
_atom_site_type_symbol
_atom_site_fract_x
_atom_site_fract_y
_atom_site_fract_z
Zn1	Zn	0.799326	-0.314218	0.295835
Zn2	Zn	1.299326	0.185782	0.795835
Zn3	Zn	0.799291	-0.446103	0.208438
Zn4	Zn	1.299291	0.053897	0.708438
Zn5	Zn	0.711902	-0.314207	0.208399
Zn6	Zn	1.211902	0.185793	0.708399
Zn7	Zn	0.711889	-0.446074	0.295828
Zn8	Zn	1.211889	0.053926	0.795828
O9	O	0.755602	-0.380150	0.252125
O10	O	1.255602	0.119850	0.752125
O11	O	0.872486	-0.331730	0.284261
O12	O	1.372486	0.168270	0.784261
O13	O	0.787690	-0.428614	0.135268
O14	O	1.287690	0.071386	0.635268
O15	O	0.723518	-0.203827	0.219984
O16	O	1.223518	0.296173	0.719984
O17	O	0.872461	-0.428625	0.220051
O18	O	1.372461	0.071375	0.720051
O19	O	0.787748	-0.203835	0.284223
O20	O	1.287748	0.296165	0.784223
O21	O	0.723485	-0.331710	0.135239
O22	O	1.223485	0.168290	0.635239
O23	O	0.638735	-0.331682	0.219977
O24	O	1.138735	0.168318	0.719977
O25	O	0.723497	-0.428575	0.368994
O26	O	1.223497	0.071425	0.868994
O27	O	0.638726	-0.428564	0.284211
O28	O	1.138726	0.071436	0.784211
O29	O	0.787736	-0.331702	0.368999
O30	O	1.287736	0.168298	0.868999
O31	O	0.787677	-0.556480	0.220044
O32	O	1.287677	-0.056480	0.720044
O33	O	0.723463	-0.556459	0.284249
O34	O	1.223463	-0.056459	0.784249
C35	C	0.619759	-0.380119	0.252090
C36	C	1.119759	0.119881	0.752090
C37	C	0.561645	-0.380125	0.252087
C38	C	1.061645	0.119875	0.752087
C39	C	0.755572	-0.585090	0.252149
C40	C	1.255572	-0.085090	0.752149
C41	C	0.755575	-0.674412	0.252147
C42	C	1.255575	-0.174412	0.752147
Zn43	Zn	0.711917	-0.945293	0.208384
Zn44	Zn	1.211917	-0.445293	0.708384
Zn45	Zn	0.799349	-0.945283	0.295812
Zn46	Zn	1.299349	-0.445283	0.795812
Zn47	Zn	0.711907	-0.813466	0.295819
Zn48	Zn	1.211907	-0.313466	0.795819
Zn49	Zn	0.799301	-0.813358	0.208421
Zn50	Zn	1.299301	-0.313358	0.708421
O51	O	0.755618	-0.879350	0.252109
O52	O	1.255618	-0.379350	0.752109
O53	O	0.723539	-1.055673	0.219963
O54	O	1.223539	-0.555673	0.719963
O55	O	0.787765	-0.927838	0.368978
O56	O	1.287765	-0.427838	0.868978
O57	O	0.638743	-0.831003	0.284209
O58	O	1.138743	-0.331003	0.784209
O59	O	0.787775	-1.055666	0.284196
O60	O	1.287775	-0.555666	0.784196
O61	O	0.638750	-0.927855	0.219971
O62	O	1.138750	-0.427855	0.719971
O63	O	0.723522	-0.830993	0.368984
O64	O	1.223522	-0.330993	0.868984
O65	O	0.723476	-0.703071	0.284244
O66	O	1.223476	-0.203071	0.784244
O67	O	0.787693	-0.830819	0.135251
O68	O	1.287693	-0.330819	0.635251
O69	O	0.787683	-0.702991	0.220033
O70	O	1.287683	-0.202991	0.720033
O71	O	0.723492	-0.927751	0.135224
O72	O	1.223492	-0.427751	0.635224
O73	O	0.872508	-0.927734	0.284232
O74	O	1.372508	-0.427734	0.784232
O75	O	0.872472	-0.830809	0.220026
O76	O	1.372472	-0.330809	0.720026
C77	C	0.201286	-0.430681	0.285540
C78	C	0.701286	0.069319	0.785540
C79	C	0.146682	-0.430686	0.285548
C80	C	0.646682	0.069314	0.785548
O81	O	0.118449	-0.473632	0.313961
O82	O	0.618449	0.026368	0.813961
N83	N	0.119363	-0.380172	0.252159
N84	N	0.619363	0.119828	0.752159
C85	C	0.146651	-0.329644	0.218764
C86	C	0.646651	0.170356	0.718764
O87	O	0.118400	-0.286678	0.190365
O88	O	0.618400	0.213322	0.690365
C89	C	0.201254	-0.329636	0.218758
C90	C	0.701254	0.170364	0.718758
C91	C	0.228570	-0.380159	0.252146
C92	C	0.728570	0.119841	0.752146
C93	C	0.228603	-0.481199	0.318925
C94	C	0.728603	0.018801	0.818925
C95	C	0.283203	-0.481195	0.318916
C96	C	0.783203	0.018805	0.818916
C97	C	0.310487	-0.430673	0.285522
C98	C	0.810487	0.069327	0.785522
C99	C	0.283171	-0.380155	0.252137
C100	C	0.783171	0.119845	0.752137
C101	C	0.228541	-0.279105	0.185366
C102	C	0.728541	0.220895	0.685366
C103	C	0.283148	-0.279101	0.185364
C104	C	0.783148	0.220899	0.685364
C105	C	0.310464	-0.329624	0.218751
C106	C	0.810464	0.170376	0.718751
C107	C	0.365056	-0.329629	0.218733
C108	C	0.865056	0.170371	0.718733
N109	N	0.392375	-0.380143	0.252122
N110	N	0.892375	0.119857	0.752122
C111	C	0.365091	-0.430665	0.285517
C112	C	0.865091	0.069335	0.785517
C113	C	0.031980	-0.329664	0.218778
C114	C	0.531980	0.170336	0.718778
C115	C	-0.022622	-0.329676	0.218780
C116	C	0.477378	0.170324	0.718780
C117	C	-0.022587	-0.430717	0.285565
C118	C	0.477413	0.069283	0.785565
C119	C	0.032016	-0.430709	0.285560
C120	C	0.532016	0.069291	0.785560
C121	C	0.059299	-0.380178	0.252167
C122	C	0.559299	0.119822	0.752167
C123	C	0.479756	-0.430653	0.285495
C124	C	0.979756	0.069347	0.785495
C125	C	0.534361	-0.430647	0.285481
C126	C	1.034361	0.069353	0.785481
C127	C	0.534321	-0.329604	0.218698
C128	C	1.034321	0.170396	0.718698
C129	C	0.479721	-0.329612	0.218709
C130	C	0.979721	0.170388	0.718709
C131	C	0.452439	-0.380140	0.252112
C132	C	0.952439	0.119860	0.752112
O133	O	0.393324	-0.286702	0.190336
O134	O	0.893324	0.213298	0.690336
O135	O	0.393348	-0.473617	0.313916
O136	O	0.893348	0.026383	0.813916
C137	C	0.891975	-0.380182	0.252161
C138	C	1.391975	0.119818	0.752161
C139	C	0.950089	-0.380196	0.252176
C140	C	1.450089	0.119804	0.752176
C141	C	0.755619	-0.380137	0.388498
C142	C	1.255619	0.119863	0.888498
C143	C	0.755626	-0.380131	0.446612
C144	C	1.255626	0.119869	0.946612
C145	C	0.755635	-0.174410	0.252098
C146	C	1.255635	0.325590	0.752098
C147	C	0.755651	-0.085088	0.252087
C148	C	1.255651	0.414912	0.752087
C149	C	0.755615	-0.380107	0.116283
C150	C	1.255615	0.119893	0.616283
C151	C	0.755709	-0.379891	0.058169
C152	C	1.255709	0.120109	0.558169
C153	C	0.789118	-0.329539	0.806984
C154	C	1.289118	0.170461	1.306984
C155	C	0.789124	-0.329517	0.861588
C156	C	1.289124	0.170483	1.361588
O157	O	0.817558	-0.286595	0.889832
O158	O	1.317558	0.213405	1.389832
N159	N	0.755684	-0.379946	0.888895
N160	N	1.255684	0.120054	1.388895
C161	C	0.722231	-0.430394	0.861595
C162	C	1.222231	0.069606	1.361595
O163	O	0.693787	-0.473285	0.889835
O164	O	1.193787	0.026715	1.389835
C165	C	0.722222	-0.430411	0.806991
C166	C	1.222222	0.069589	1.306991
C167	C	0.755668	-0.379985	0.779687
C168	C	1.255668	0.120015	1.279687
C169	C	0.822561	-0.279115	0.779680
C170	C	1.322561	0.220885	1.279680
C171	C	0.822555	-0.279139	0.725079
C172	C	1.322555	0.220861	1.225079
C173	C	0.789106	-0.329585	0.697783
C174	C	1.289106	0.170415	1.197783
C175	C	0.755662	-0.380008	0.725087
C176	C	1.255662	0.119992	1.225087
C177	C	0.688767	-0.480855	0.779692
C178	C	1.188767	0.019145	1.279692
C179	C	0.688761	-0.480868	0.725085
C180	C	1.188761	0.019132	1.225085
C181	C	0.722207	-0.430441	0.697781
C182	C	1.222207	0.069559	1.197781
C183	C	0.722207	-0.430477	0.643190
C184	C	1.222207	0.069523	1.143190
N185	N	0.755648	-0.380048	0.615883
N186	N	1.255648	0.119952	1.115883
C187	C	0.789097	-0.329602	0.643179
C188	C	1.289097	0.170398	1.143179
C189	C	0.722251	-0.430353	0.976265
C190	C	1.222251	0.069647	1.476265
C191	C	0.722262	-0.430340	1.030868
C192	C	1.222262	0.069660	1.530868
C193	C	0.789155	-0.329462	1.030857
C194	C	1.289155	0.170538	1.530857
C195	C	0.789146	-0.329479	0.976254
C196	C	1.289146	0.170521	1.476254
C197	C	0.755691	-0.379924	0.948958
C198	C	1.255691	0.120076	1.448958
C199	C	0.789083	-0.329655	0.528514
C200	C	1.289083	0.170345	1.028514
C201	C	0.789075	-0.329684	0.473909
C202	C	1.289075	0.170316	0.973909
C203	C	0.722181	-0.430560	0.473924
C204	C	1.222181	0.069440	0.973924
C205	C	0.722190	-0.430533	0.528524
C206	C	1.222190	0.069467	1.028524
C207	C	0.755642	-0.380074	0.555818
C208	C	1.255642	0.119926	1.055818
O209	O	0.693787	-0.473375	0.614911
O210	O	1.193787	0.026625	1.114911
O211	O	0.817531	-0.286711	0.614932
O212	O	1.317531	0.213289	1.114932
C213	C	0.891461	-0.879261	0.252133
C214	C	1.391461	-0.379261	0.752133
C215	C	0.949575	-0.879245	0.252159
C216	C	1.449575	-0.379245	0.752159
C217	C	0.755588	-0.879274	0.115736
C218	C	1.255588	-0.379274	0.615736
C219	C	0.755576	-0.879241	0.057622
C220	C	1.255576	-0.379241	0.557622
C221	C	0.619245	-0.879442	0.252086
C222	C	1.119245	-0.379442	0.752086
C223	C	0.561131	-0.879481	0.252077
C224	C	1.061131	-0.379481	0.752077
C225	C	0.755611	-0.879471	0.387952
C226	C	1.255611	-0.379471	0.887952
C227	C	0.755477	-0.879654	0.446065
C228	C	1.255477	-0.379654	0.946065
C229	C	0.976869	-0.929749	0.285572
C230	C	1.476869	-0.429749	0.785572
C231	C	1.031473	-0.929750	0.285597
C232	C	1.531473	-0.429750	0.785597
C233	C	1.058783	-0.879243	0.252210
C234	C	1.558783	-0.379243	0.752210
C235	C	1.031485	-0.828737	0.218793
C236	C	1.531485	-0.328737	0.718793
C237	C	0.976881	-0.828741	0.218766
C238	C	1.476881	-0.328741	0.718766
C239	C	0.722140	-0.929694	0.030314
C240	C	1.222140	-0.429694	0.530314
C241	C	0.722118	-0.929663	-0.024290
C242	C	1.222118	-0.429663	0.475710
C243	C	0.755534	-0.879184	-0.051586
C244	C	1.255534	-0.379184	0.448414
C245	C	0.788971	-0.828726	-0.024274
C246	C	1.288971	-0.328726	0.475726
C247	C	0.788991	-0.828753	0.030330
C248	C	1.288991	-0.328753	0.530330
C249	C	0.533834	-0.829068	0.285518
C250	C	1.033834	-0.329068	0.785518
C251	C	0.479229	-0.829089	0.285509
C252	C	0.979229	-0.329089	0.785509
C253	C	0.451924	-0.879529	0.252061
C254	C	0.951924	-0.379529	0.752061
C255	C	0.479225	-0.929944	0.218616
C256	C	0.979225	-0.429944	0.718616
C257	C	0.533828	-0.929919	0.218623
C258	C	1.033828	-0.429919	0.718623
C259	C	0.722207	-0.828952	0.473337
C260	C	1.222207	-0.328952	0.973337
C261	C	0.722071	-0.829124	0.527941
C262	C	1.222071	-0.329124	1.027941
C263	C	0.755210	-0.879994	0.555273
C264	C	1.255210	-0.379994	1.055273
C265	C	0.788482	-0.930701	0.527998
C266	C	1.288482	-0.430701	1.027998
C267	C	0.788615	-0.930533	0.473394
C268	C	1.288615	-0.430533	0.973394
H269	H	0.556600	-0.471792	0.312670
H270	H	1.056600	0.028208	0.812670
H271	H	0.206310	-0.237966	0.158177
H272	H	0.706310	0.262034	0.658177
H273	H	0.457479	-0.288474	0.191521
H274	H	0.957479	0.211526	0.691521
H275	H	0.815462	-0.972120	0.550259
H276	H	1.315462	-0.472120	1.050259
H277	H	1.053692	-0.970877	0.312811
H278	H	1.553692	-0.470877	0.812811
H279	H	0.816178	-0.787627	-0.046506
H280	H	1.316178	-0.287627	0.453494
C281	C	0.449208	-0.773638	0.322305
C282	C	0.949208	-0.273638	0.822305
H283	H	0.473293	-0.743608	0.342231
H284	H	0.973293	-0.243608	0.842231
H285	H	0.427896	-0.739260	0.302315
H286	H	0.927896	-0.239260	0.802315
H287	H	0.427918	-0.803843	0.345078
H288	H	0.927918	-0.303843	0.845078
C289	C	0.685476	-0.773336	0.557933
C290	C	1.185476	-0.273336	1.057933
H291	H	0.665767	-0.743009	0.533832
H292	H	1.165767	-0.243009	1.033832
H293	H	0.662500	-0.803330	0.579132
H294	H	1.162500	-0.303330	1.079132
H295	H	0.705587	-0.739239	0.579333
H296	H	1.205587	-0.239239	1.079333
H297	H	0.694888	-0.970753	-0.046520
H298	H	1.194888	-0.470753	0.453480
C299	C	-0.052664	-0.274106	0.182051
C300	C	0.447336	0.225894	0.682051
H301	H	-0.028590	-0.244015	0.162165
H302	H	0.471410	0.255985	0.662165
H303	H	-0.073980	-0.304225	0.159244
H304	H	0.426020	0.195775	0.659244
H305	H	-0.073951	-0.239778	0.202088
H306	H	0.426049	0.260222	0.702088
C307	C	-0.052607	-0.486284	0.322303
C308	C	0.447393	0.013716	0.822303
H309	H	-0.089038	-0.479043	0.317526
H310	H	0.410962	0.020957	0.817526
H311	H	-0.043668	-0.539267	0.314608
H312	H	0.456332	-0.039267	0.814608
H313	H	-0.043641	-0.474809	0.357444
H314	H	0.456359	0.025191	0.857444
H315	H	0.407462	-0.879539	0.252058
H316	H	0.907462	-0.379539	0.752058
C317	C	0.564341	-0.274030	0.181970
C318	C	1.064341	0.225970	0.681970
H319	H	0.600772	-0.281261	0.186754
H320	H	1.100772	0.218739	0.686754
H321	H	0.555378	-0.285486	0.146829
H322	H	1.055378	0.214514	0.646829
H323	H	0.555399	-0.221048	0.189678
H324	H	1.055399	0.278952	0.689678
H325	H	0.755098	-0.880122	0.599734
H326	H	1.255098	-0.380122	1.099734
C327	C	0.755511	-0.879165	-0.111648
C328	C	1.255511	-0.379165	0.388352
H329	H	0.730814	-0.916451	-0.123999
H330	H	1.230814	-0.416451	0.376001
H331	H	0.746455	-0.828267	-0.124000
H332	H	1.246455	-0.328267	0.376000
H333	H	0.789251	-0.892786	-0.124000
H334	H	1.289251	-0.392786	0.376000
H335	H	0.815711	-0.971818	0.451195
H336	H	1.315711	-0.471818	0.951195
H337	H	0.849800	-0.238032	0.801899
H338	H	1.349800	0.261968	1.301899
C339	C	0.825779	-0.773261	0.060363
C340	C	1.325779	-0.273261	0.560363
H341	H	0.845679	-0.743204	0.036283
H342	H	1.345679	-0.243204	0.536283
H343	H	0.805786	-0.738911	0.081671
H344	H	1.305786	-0.238911	0.581671
H345	H	0.848576	-0.803439	0.081656
H346	H	1.348576	-0.303439	0.581656
H347	H	0.556059	-0.787991	0.312755
H348	H	1.056059	-0.287991	0.812755
C349	C	0.449184	-0.985429	0.181831
C350	C	0.949184	-0.485429	0.681831
H351	H	0.412756	-0.978225	0.186625
H352	H	0.912756	-0.478225	0.686625
H353	H	0.458115	-0.973872	0.146701
H354	H	0.958115	-0.473872	0.646701
H355	H	0.458141	-1.038429	0.189483
H356	H	0.958141	-0.538429	0.689483
H357	H	0.954663	-0.787610	0.191558
H358	H	1.454663	-0.287610	0.691558
H359	H	0.305359	-0.237947	0.158173
H360	H	0.805359	0.262053	0.658173
C361	C	1.118845	-0.879238	0.252249
C362	C	1.618845	-0.379238	0.752249
H363	H	1.131185	-0.916545	0.276937
H364	H	1.631185	-0.416545	0.776937
H365	H	1.131210	-0.892814	0.218509
H366	H	1.631210	-0.392814	0.718509
H367	H	1.131195	-0.828347	0.261340
H368	H	1.631195	-0.328347	0.761340
C369	C	0.563850	-0.985387	0.181842
C370	C	1.063850	-0.485387	0.681842
H371	H	0.539764	-1.015433	0.161927
H372	H	1.039764	-0.515433	0.661927
H373	H	0.585144	-0.955203	0.159065
H374	H	1.085144	-0.455203	0.659065
H375	H	0.585157	-1.019761	0.201846
H376	H	1.085157	-0.519761	0.701846
C377	C	0.685743	-0.773003	0.443281
C378	C	1.185743	-0.273003	0.943281
H379	H	0.665906	-0.742845	0.467350
H380	H	1.165906	-0.242845	0.967350
H381	H	0.705940	-0.738766	0.422077
H382	H	1.205940	-0.238766	0.922077
H383	H	0.662875	-0.802891	0.421884
H384	H	1.162875	-0.302891	0.921884
C385	C	0.825931	-0.274002	0.946224
C386	C	1.325931	0.225998	1.446224
H387	H	0.845849	-0.243955	0.970306
H388	H	1.345849	0.256045	1.470306
H389	H	0.848705	-0.304180	0.924932
H390	H	1.348705	0.195820	1.424932
H391	H	0.805929	-0.239630	0.924915
H392	H	1.305929	0.260370	1.424915
H393	H	1.053728	-0.787616	0.191610
H394	H	1.553728	-0.287616	0.691610
C395	C	0.313244	-0.536761	0.355649
C396	C	0.813244	-0.036761	0.855649
H397	H	0.289168	-0.566841	0.375540
H398	H	0.789168	-0.066841	0.875540
H399	H	0.334536	-0.571089	0.335622
H400	H	0.834536	-0.071089	0.835622
H401	H	0.334554	-0.506629	0.378458
H402	H	0.834554	-0.006629	0.878458
C403	C	0.449754	-0.486208	0.322253
C404	C	0.949754	0.013792	0.822253
H405	H	0.473849	-0.516287	0.342134
H406	H	0.973849	-0.016287	0.842134
H407	H	0.428475	-0.456069	0.345061
H408	H	0.928475	0.043931	0.845061
H409	H	0.428433	-0.520549	0.302239
H410	H	0.928433	-0.020549	0.802239
C411	C	0.198598	-0.536780	0.355661
C412	C	0.698598	-0.036780	0.855661
H413	H	0.222695	-0.566864	0.375538
H414	H	0.722695	-0.066864	0.875538
H415	H	0.177308	-0.506670	0.378475
H416	H	0.677308	-0.006670	0.878475
H417	H	0.177290	-0.571114	0.335630
H418	H	0.677290	-0.071114	0.835630
H419	H	0.054253	-0.471848	0.312748
H420	H	0.554253	0.028152	0.812748
H421	H	0.695007	-0.471436	0.954045
H422	H	1.195007	0.028564	1.454045
H423	H	0.694927	-0.970803	0.052531
H424	H	1.194927	-0.470803	0.552531
H425	H	0.054191	-0.288517	0.191581
H426	H	0.554191	0.211483	0.691581
H427	H	0.816321	-0.288564	0.550730
H428	H	1.316321	0.211436	1.050730
C429	C	0.825865	-0.274208	0.443877
C430	C	1.325865	0.225792	0.943877
H431	H	0.845781	-0.244156	0.467958
H432	H	1.345781	0.255844	0.967958
H433	H	0.848640	-0.304391	0.422589
H434	H	1.348640	0.195609	0.922589
H435	H	0.805864	-0.239840	0.422564
H436	H	1.305864	0.260160	0.922564
H437	H	0.849790	-0.238074	0.702853
H438	H	1.349790	0.261926	1.202853
C439	C	0.825950	-0.273973	1.060890
C440	C	1.325950	0.226027	1.560890
H441	H	0.821160	-0.281185	1.097320
H442	H	1.321160	0.218815	1.597320
H443	H	0.861076	-0.285529	1.051954
H444	H	1.361076	0.214471	1.551954
H445	H	0.818306	-0.220971	1.051931
H446	H	1.318306	0.279029	1.551931
H447	H	0.661531	-0.521918	0.801914
H448	H	1.161531	-0.021918	1.301914
H449	H	0.661511	-0.521939	0.702864
H450	H	1.161511	-0.021939	1.202864
C451	C	0.685479	-0.485819	1.060899
C452	C	1.185479	0.014181	1.560899
H453	H	0.690273	-0.478592	1.097329
H454	H	1.190273	0.021408	1.597329
H455	H	0.650350	-0.474276	1.051937
H456	H	1.150350	0.025724	1.551937
H457	H	0.693128	-0.538823	1.051962
H458	H	1.193128	-0.038823	1.551962
C459	C	0.685387	-0.486042	0.443891
C460	C	1.185387	0.013958	0.943891
H461	H	0.690172	-0.478822	0.407461
H462	H	1.190172	0.021178	0.907461
H463	H	0.693023	-0.539043	0.452850
H464	H	1.193023	-0.039043	0.952850
H465	H	0.650259	-0.474475	0.452827
H466	H	1.150259	0.025525	0.952827
C467	C	0.685403	-0.486006	0.558560
C468	C	1.185403	0.013994	1.058560
H469	H	0.665480	-0.516051	0.534481
H470	H	1.165480	-0.016051	1.034481
H471	H	0.705397	-0.520369	0.579879
H472	H	1.205397	-0.020369	1.079879
H473	H	0.662626	-0.455811	0.579843
H474	H	1.162626	0.044189	1.079843
H475	H	0.954641	-0.970877	0.312763
H476	H	1.454641	-0.470877	0.812763
