data_functionalizedCrystal
_audit_creation_method	'MofGen! by Chris Wilmer'
_symmetry_space_group_name_H-M	'P1'
_symmetry_Int_Tables_number	1
_symmetry_cell_setting	triclinic
loop_
_symmetry_equiv_pos_as_xyz
  x,y,z
_cell_length_a	14.971486
_cell_length_b	10.967829
_cell_length_c	13.448316
_cell_angle_alpha	77.869936
_cell_angle_beta	89.996447
_cell_angle_gamma	84.175477
loop_
_atom_site_label
_atom_site_type_symbol
_atom_site_fract_x
_atom_site_fract_y
_atom_site_fract_z
O1	O	1.187827	0.162609	-0.110439
O2	O	0.927532	0.182083	-0.113803
O3	O	1.063680	-0.009294	-0.080991
O4	O	1.051679	0.353985	-0.143251
O5	O	1.063656	-0.009289	0.084392
O6	O	0.927509	0.182087	0.051580
O7	O	1.187804	0.162614	0.054944
Cu8	Cu	1.057654	0.172351	0.068362
Cu9	Cu	1.057682	0.172345	-0.127222
O10	O	1.051656	0.353990	0.022132
C11	C	0.894191	0.181214	-0.030966
C12	C	0.794880	0.178604	-0.030529
C13	C	0.738261	0.291033	-0.049796
C14	C	0.644948	0.288573	-0.049359
C15	C	0.608256	0.173684	-0.029663
C16	C	0.664883	0.061247	-0.010392
C17	C	0.758193	0.063708	-0.010821
C18	C	0.470392	0.056125	-0.009500
C19	C	0.377075	0.053664	-0.009072
C20	C	0.357147	0.280991	-0.048039
C21	C	0.450458	0.283452	-0.048468
C22	C	0.507078	0.171014	-0.029198
C23	C	1.062793	-0.055782	0.009666
C24	C	1.060175	-0.194309	0.033400
C25	C	1.059021	-0.256066	-0.041693
C26	C	1.056315	-0.399241	-0.017164
C27	C	1.221145	0.163482	-0.027896
C28	C	1.320456	0.166092	-0.028339
C29	C	1.052543	0.400478	-0.068527
C30	C	1.055160	0.539006	-0.092268
N31	N	1.057642	0.172354	0.205926
N32	N	1.057701	0.172332	-0.264784
C33	C	1.117996	0.087625	0.697672
C34	C	1.117989	0.087634	0.593567
C35	C	1.057681	0.172344	0.527009
C36	C	0.997383	0.257060	0.564559
C37	C	0.997396	0.257056	0.668661
C38	C	0.997360	0.257059	0.347579
C39	C	0.997346	0.257061	0.243471
C40	C	1.117953	0.087636	0.272485
C41	C	1.117966	0.087633	0.376587
C42	C	1.057666	0.172348	0.414130
H43	H	0.311042	0.372542	-0.063724
H44	H	1.060031	-0.202940	-0.124142
H45	H	1.167102	0.018639	0.751858
H46	H	0.347204	-0.039889	0.006967
H47	H	1.167051	0.018659	0.241912
H48	H	0.948239	0.326042	0.189283
H49	H	0.516491	-0.035434	0.006193
N50	N	0.819266	-0.057553	0.009967
H51	H	0.781865	-0.130710	0.022509
H52	H	0.858419	-0.061491	-0.050668
N53	N	1.054977	-0.469599	0.092056
H54	H	1.110750	-0.457043	0.129345
H55	H	1.000013	-0.436948	0.125817
N56	N	1.058841	-0.264669	0.142616
H57	H	1.059985	-0.203786	0.189359
H58	H	1.002468	-0.308648	0.154019
H59	H	1.167086	0.018660	0.563000
N60	N	0.932334	0.348430	0.492782
H61	H	0.966841	0.403763	0.440097
H62	H	0.892450	0.300560	0.457863
N63	N	0.490024	0.407373	-0.069713
H64	H	0.528296	0.413464	-0.009453
H65	H	0.528248	0.413384	-0.132096
H66	H	1.056164	-0.407874	-0.174723
N67	N	1.183025	-0.003709	0.448374
H68	H	1.221231	-0.057364	0.408794
H69	H	1.222850	0.044192	0.483336
H70	H	0.948261	0.326047	0.378141
N71	N	0.932365	0.348420	0.709161
H72	H	0.894156	0.402082	0.651202
H73	H	0.892539	0.300551	0.760566
H74	H	0.598852	0.380124	-0.065050
N75	N	0.777824	0.414956	-0.071050
H76	H	0.757229	0.464221	-0.018184
H77	H	0.845521	0.399360	-0.068423
N78	N	0.625303	-0.062665	0.010863
H79	H	0.587033	-0.068759	-0.049397
H80	H	0.675379	-0.133448	0.023034
