data_functionalizedCrystal
_audit_creation_method	'MofGen! by Chris Wilmer'
_symmetry_space_group_name_H-M	'P1'
_symmetry_Int_Tables_number	1
_symmetry_cell_setting	triclinic
loop_
_symmetry_equiv_pos_as_xyz
  x,y,z
_cell_length_a	12.827893
_cell_length_b	29.839131
_cell_length_c	12.827885
_cell_angle_alpha	90.044475
_cell_angle_beta	90.019272
_cell_angle_gamma	90.035199
loop_
_atom_site_label
_atom_site_type_symbol
_atom_site_fract_x
_atom_site_fract_y
_atom_site_fract_z
Zn1	Zn	1.597526	-0.178832	0.590742
Zn2	Zn	1.597359	-0.253969	0.415957
Zn3	Zn	1.422767	-0.178854	0.416016
Zn4	Zn	1.422692	-0.253936	0.590657
O5	O	1.510086	-0.216398	0.503343
O6	O	1.743739	-0.188804	0.567567
O7	O	1.574161	-0.244028	0.269729
O8	O	1.446050	-0.115984	0.439253
O9	O	1.743617	-0.244007	0.439154
O10	O	1.574445	-0.115968	0.567624
O11	O	1.445889	-0.188841	0.269772
O12	O	1.276521	-0.188809	0.439171
O13	O	1.445922	-0.243950	0.736905
O14	O	1.276466	-0.243971	0.567480
O15	O	1.574372	-0.188771	0.736967
O16	O	1.574088	-0.316832	0.439072
O17	O	1.445761	-0.316807	0.567423
C18	C	1.238576	-0.216389	0.503323
C19	C	1.122423	-0.216396	0.503339
C20	C	1.070638	-0.243735	0.566733
C21	C	0.950588	-0.243743	0.566751
C22	C	1.509926	-0.333120	0.503255
C23	C	1.509954	-0.383055	0.503252
C24	C	1.576926	-0.692655	0.570281
C25	C	1.577040	-0.880328	0.570344
O26	O	1.633826	-0.904556	0.627269
N27	N	1.510263	-0.903840	0.503459
C28	C	1.443449	-0.880430	0.436559
O29	O	1.386647	-0.904735	0.379678
C30	C	1.443331	-0.692758	0.436502
C31	C	1.510119	-0.669249	0.503384
C32	C	1.643708	-0.669145	0.637158
C33	C	1.643683	-0.622230	0.637138
C34	C	1.576876	-0.598824	0.570240
C35	C	1.510094	-0.622333	0.503363
C36	C	1.376512	-0.669350	0.369608
C37	C	1.376487	-0.622429	0.369601
C38	C	1.443275	-0.598919	0.436483
C39	C	1.443262	-0.552012	0.436445
N40	N	1.510039	-0.528500	0.503330
C41	C	1.576846	-0.551906	0.570228
C42	C	1.443517	-0.978961	0.436592
C43	C	1.443548	-1.025879	0.436604
C44	C	1.577137	-1.025773	0.570391
C45	C	1.577111	-0.978854	0.570372
C46	C	1.510293	-0.955449	0.503476
C47	C	1.576789	-0.453380	0.570179
C48	C	1.576761	-0.406461	0.570150
C49	C	1.443168	-0.406571	0.436367
C50	C	1.443199	-0.453486	0.436392
C51	C	1.510013	-0.476890	0.503307
O52	O	1.386498	-0.527755	0.379559
O53	O	1.633623	-0.527593	0.627116
C54	C	1.576951	-0.739570	0.570301
C55	C	1.510169	-0.763080	0.503424
C56	C	1.443362	-0.739674	0.436527
C57	C	1.510200	-0.809997	0.503437
C58	C	1.577007	-0.833403	0.570334
C59	C	1.643783	-0.809892	0.637219
C60	C	1.643758	-0.762976	0.637199
C61	C	1.376586	-0.763186	0.369642
C62	C	1.376617	-0.810101	0.369667
C63	C	1.443424	-0.833507	0.436565
C64	C	1.782656	-0.216407	0.503364
C65	C	1.898809	-0.216410	0.503372
C66	C	1.510157	-0.216354	0.775913
C67	C	1.510187	-0.216336	0.892067
C68	C	1.510274	-0.099219	0.503454
C69	C	1.510355	-0.049285	0.503502
C70	C	1.510075	-0.216408	0.231833
C71	C	1.510247	-0.216300	0.115681
C72	C	1.573755	-0.189027	0.943882
C73	C	1.573788	-0.189007	1.063933
H74	H	1.077881	-0.192995	0.449084
H75	H	1.455782	-0.239699	0.936582
H76	H	1.389173	-1.045016	0.382132
H77	H	1.388777	-0.387506	0.381897
H78	H	0.943336	-0.193005	0.449093
H79	H	1.628214	-0.165628	1.108493
H80	H	1.115180	-0.267133	0.620996
O81	O	1.638513	-0.161129	0.890668
C82	C	1.578991	-0.132138	0.827574
H83	H	1.499749	-0.147987	0.811313
H84	H	1.621475	-0.126163	0.750785
H85	H	1.567619	-0.098820	0.869602
O86	O	1.378757	-0.956178	0.371548
C87	C	1.438272	-0.929052	0.304077
H88	H	1.517437	-0.921973	0.341006
H89	H	1.395686	-0.896083	0.290014
H90	H	1.449818	-0.947162	0.226656
H91	H	1.631495	-0.959716	0.624834
O92	O	1.311543	-0.599763	0.304519
C93	C	1.252587	-0.630578	0.245520
H94	H	1.295416	-0.664008	0.241950
H95	H	1.241465	-0.617061	0.163169
H96	H	1.173207	-0.635584	0.283729
O97	O	1.445463	-0.244218	1.062419
C98	C	1.504958	-0.273229	0.999282
H99	H	1.584189	-0.257382	0.983063
H100	H	1.462437	-0.279230	0.922475
H101	H	1.516358	-0.306531	1.041253
O102	O	1.708408	-0.599348	0.702169
C103	C	1.648858	-0.572215	0.769625
H104	H	1.569685	-0.565224	0.732691
H105	H	1.691404	-0.539204	0.783676
H106	H	1.637331	-0.590277	0.847054
O107	O	0.897308	-0.271625	0.631469
C108	C	0.789306	-0.265431	0.617067
H109	H	0.774524	-0.230739	0.582987
H110	H	0.747785	-0.268505	0.695297
H111	H	0.758275	-0.292041	0.561273
O112	O	1.641672	-0.383693	0.635224
C113	C	1.700656	-0.414417	0.694255
H114	H	1.657865	-0.447875	0.697844
H115	H	1.711749	-0.400825	0.776597
H116	H	1.780047	-0.419394	0.656061
O117	O	1.641746	-0.476158	0.635033
C118	C	1.709315	-0.503287	0.575615
H119	H	1.672506	-0.510371	0.496395
H120	H	1.723330	-0.536253	0.618219
H121	H	1.786746	-0.485176	0.564184
H122	H	1.698110	-0.688197	0.691640
O123	O	1.311583	-0.832914	0.304804
C124	C	1.207420	-0.821462	0.327542
H125	H	1.202107	-0.808534	0.411019
H126	H	1.155800	-0.852335	0.318510
H127	H	1.180125	-0.794258	0.271487
H128	H	1.631535	-1.044838	0.624860
O129	O	1.311567	-0.692227	0.304793
C130	C	1.244036	-0.719353	0.364251
H131	H	1.280869	-0.726346	0.443468
H132	H	1.230039	-0.752364	0.321678
H133	H	1.166592	-0.701287	0.375684
H134	H	1.388823	-0.472628	0.381924
H135	H	1.698143	-0.743838	0.691660
O136	O	1.708527	-0.832654	0.702317
C137	C	1.648992	-0.859796	0.769738
H138	H	1.566681	-0.845678	0.776112
H139	H	1.686736	-0.860289	0.850197
H140	H	1.645418	-0.895366	0.737427
H141	H	1.322182	-0.744132	0.315168
