data_functionalizedCrystal
_audit_creation_method	'MofGen! by Chris Wilmer'
_symmetry_space_group_name_H-M	'P1'
_symmetry_Int_Tables_number	1
_symmetry_cell_setting	triclinic
loop_
_symmetry_equiv_pos_as_xyz
  x,y,z
_cell_length_a	10.654545
_cell_length_b	10.654551
_cell_length_c	9.730223
_cell_angle_alpha	90.004460
_cell_angle_beta	90.003812
_cell_angle_gamma	84.484254
loop_
_atom_site_label
_atom_site_type_symbol
_atom_site_fract_x
_atom_site_fract_y
_atom_site_fract_z
O1	O	1.667845	0.176375	0.114270
O2	O	1.302365	0.193187	0.114276
O3	O	1.493507	0.002041	0.114270
O4	O	1.476703	0.367520	0.114276
O5	O	1.493492	0.002030	-0.114310
O6	O	1.302350	0.193175	-0.114304
O7	O	1.667829	0.176363	-0.114310
Zn8	Zn	1.485087	0.184767	-0.150599
Zn9	Zn	1.485107	0.184782	0.150565
O10	O	1.476687	0.367508	-0.114304
C11	C	1.255560	0.191948	-0.000014
C12	C	1.116116	0.188258	-0.000012
C13	C	1.050603	0.186515	-0.124611
C14	C	0.919584	0.183027	-0.124611
C15	C	0.919601	0.183031	0.124599
C16	C	1.050619	0.186510	0.124598
C17	C	1.492265	-0.044762	-0.000018
C18	C	1.488573	-0.184205	-0.000011
C19	C	1.486848	-0.249703	0.124589
C20	C	1.483368	-0.380723	0.124590
C21	C	1.483343	-0.380738	-0.124620
C22	C	1.486814	-0.249719	-0.124620
C23	C	1.714635	0.177602	-0.000017
C24	C	1.854079	0.181292	-0.000010
C25	C	1.477929	0.414312	-0.000013
C26	C	1.481622	0.553755	-0.000010
N27	N	1.485083	0.184756	-0.356135
C28	C	1.408285	0.107898	-0.571998
C29	C	1.408268	0.107880	-0.428116
C30	C	1.561929	0.261645	-0.428046
C31	C	1.561951	0.261655	-0.571926
N32	N	1.485122	0.184784	0.356101
H33	H	0.866249	0.181608	-0.226073
H34	H	1.624528	0.324266	-0.630469
C35	C	0.847541	0.181119	0.261662
N36	N	0.793266	0.179682	0.364900
H37	H	1.481913	-0.434095	-0.226072
H38	H	1.103962	0.187926	0.226068
C39	C	1.488769	-0.177641	0.261662
N40	N	1.490210	-0.123367	0.364909
H41	H	1.103927	0.187938	-0.226076
H42	H	1.481961	-0.434045	0.226052
C43	C	1.323736	0.023304	-0.349032
N44	N	1.260063	-0.040403	-0.289467
C45	C	1.646436	0.346199	-0.348862
N46	N	1.710089	0.409887	-0.289222
C47	C	1.488710	-0.177667	-0.261697
N48	N	1.490135	-0.123397	-0.364940
C49	C	1.323780	0.023328	-0.651163
N50	N	1.260133	-0.040377	-0.710787
