data_functionalizedCrystal
_audit_creation_method	'MofGen! by Chris Wilmer'
_symmetry_space_group_name_H-M	'P1'
_symmetry_Int_Tables_number	1
_symmetry_cell_setting	triclinic
loop_
_symmetry_equiv_pos_as_xyz
  x,y,z
_cell_length_a	16.793024
_cell_length_b	16.793047
_cell_length_c	33.586455
_cell_angle_alpha	113.253857
_cell_angle_beta	66.219990
_cell_angle_gamma	112.758327
loop_
_atom_site_label
_atom_site_type_symbol
_atom_site_fract_x
_atom_site_fract_y
_atom_site_fract_z
O1	O	0.005016	-0.570216	-0.583573
O2	O	-0.034529	-0.474528	-0.453458
O3	O	0.114723	-0.474535	-0.528082
O4	O	-0.144235	-0.570209	-0.508949
O5	O	0.108729	-0.346329	-0.530229
O6	O	-0.040523	-0.346322	-0.455605
O7	O	-0.000977	-0.442010	-0.585721
Zn8	Zn	-0.021701	-0.373810	-0.521004
Zn9	Zn	-0.013805	-0.542728	-0.518175
O10	O	-0.150229	-0.442003	-0.511097
C11	C	0.005100	-0.790970	-0.238461
C12	C	0.009223	-0.693065	-0.217557
C13	C	0.003804	-0.645758	-0.241627
C14	C	-0.075059	-0.538459	-0.266316
C15	C	0.049838	-0.422849	-0.250165
C16	C	-0.040584	-0.395375	-0.435637
C17	C	-0.044693	-0.353446	-0.386631
C18	C	-0.039275	-0.401741	-0.363054
C19	C	-0.040566	-0.125547	-0.300731
C20	C	-0.044689	-0.223451	-0.321635
C21	C	-0.039266	-0.270752	-0.297563
C22	C	0.039597	-0.378051	-0.272874
C23	C	-0.085304	-0.493667	-0.289026
C24	C	0.005118	-0.521142	-0.103554
C25	C	0.009231	-0.563064	-0.152559
C26	C	0.003809	-0.514775	-0.176138
C27	C	0.010758	-0.652581	-0.172822
C28	C	0.001010	-0.556371	-0.220792
C29	C	-0.008251	-0.506059	-0.245823
C30	C	-0.046224	-0.263935	-0.366370
C31	C	-0.036476	-0.360146	-0.318399
C32	C	-0.027211	-0.410451	-0.293367
C33	C	0.815184	-0.521162	-0.508596
C34	C	0.717729	-0.563083	-0.506815
C35	C	0.669923	-0.514793	-0.509201
C36	C	0.564072	-0.463272	-0.548285
C37	C	0.445555	-0.498966	-0.486078
C38	C	0.415541	-0.125553	-0.528781
C39	C	0.375032	-0.223457	-0.531493
C40	C	0.423813	-0.270761	-0.529101
C41	C	0.149318	-0.395376	-0.530584
C42	C	0.246774	-0.353455	-0.532364
C43	C	0.294574	-0.401748	-0.529976
C44	C	0.400424	-0.453269	-0.490892
C45	C	0.518948	-0.417572	-0.553101
C46	C	0.548961	-0.790984	-0.510398
C47	C	0.589464	-0.693083	-0.507684
C48	C	0.540690	-0.645776	-0.510078
C49	C	0.678399	-0.652598	-0.506649
C50	C	0.581167	-0.556389	-0.510877
C51	C	0.530434	-0.506073	-0.515170
C52	C	0.286104	-0.263940	-0.532530
C53	C	0.383336	-0.360149	-0.528302
C54	C	0.434062	-0.410467	-0.524008
C55	C	-0.040530	-0.395407	-0.935652
C56	C	-0.044651	-0.353482	-0.886645
C57	C	-0.039242	-0.401770	-0.863061
C58	C	0.039602	-0.453292	-0.810474
C59	C	-0.085288	-0.417587	-0.750981
C60	C	0.005063	-0.791004	-0.738448
C61	C	0.009186	-0.693099	-0.717543
C62	C	0.003779	-0.645796	-0.741620
C63	C	0.005077	-0.521171	-0.603544
C64	C	0.009198	-0.563096	-0.652550
C65	C	0.003786	-0.514804	-0.676131
C66	C	-0.075058	-0.463283	-0.728717
C67	C	0.049835	-0.498991	-0.788214
C68	C	-0.040516	-0.125574	-0.800747
C69	C	-0.044642	-0.223476	-0.821649
C70	C	-0.039232	-0.270782	-0.797575
C71	C	-0.046172	-0.263965	-0.866386
C72	C	-0.036447	-0.360171	-0.818406
C73	C	-0.027197	-0.410486	-0.793373
C74	C	0.010719	-0.652613	-0.672809
C75	C	0.000994	-0.556406	-0.720789
C76	C	-0.008259	-0.506089	-0.745819
O77	O	-0.000965	0.173549	-0.277957
O78	O	-0.040516	-0.085616	-0.325254
O79	O	0.108737	0.059592	-0.327284
O80	O	-0.150219	0.028341	-0.275927
O81	O	0.114753	0.055151	-0.263265
O82	O	-0.034500	-0.090057	-0.261234
O83	O	0.005051	0.169108	-0.213937
Zn84	Zn	-0.013769	0.038820	-0.227421
Zn85	Zn	-0.021696	0.044672	-0.311770
O86	O	-0.144202	0.023900	-0.211907
O87	O	-0.034458	-0.474571	0.046517
O88	O	0.005076	-0.570190	-0.083599
O89	O	-0.144170	-0.570237	-0.008972
O90	O	0.114787	-0.474523	-0.028110
O91	O	-0.150200	-0.442024	-0.011093
O92	O	-0.000954	-0.441976	-0.085720
O93	O	-0.040488	-0.346357	0.044396
Zn94	Zn	-0.021679	-0.373810	-0.020999
Zn95	Zn	-0.013734	-0.542737	-0.018204
O96	O	0.108757	-0.346309	-0.030231
C97	C	-0.850734	0.086244	-0.289716
C98	C	-0.753280	0.087165	-0.312001
C99	C	-0.705462	0.081107	-0.288506
C100	C	-0.599592	0.000085	-0.264184
C101	C	-0.481080	0.121287	-0.283645
C102	C	-0.450996	0.035117	-0.097351
C103	C	-0.410501	0.028587	-0.146852
C104	C	-0.459292	0.034683	-0.169840
C105	C	-0.184802	0.024283	-0.235878
C106	C	-0.282257	0.023363	-0.213592
C107	C	-0.330068	0.029423	-0.237088
C108	C	-0.435938	0.110445	-0.261411
C109	C	-0.554456	-0.010759	-0.241948
C110	C	-0.584541	0.075410	-0.428242
C111	C	-0.625029	0.081943	-0.378743
C112	C	-0.576244	0.075844	-0.355753
C113	C	-0.713963	0.086424	-0.357292
C114	C	-0.616708	0.075351	-0.310510
C115	C	-0.565963	0.065400	-0.286043
C116	C	-0.321573	0.024104	-0.168302
C117	C	-0.418828	0.035176	-0.215083
C118	C	-0.469568	0.045131	-0.239552
O119	O	0.585213	0.169090	-0.504004
O120	O	0.494056	-0.090076	-0.525516
O121	O	0.488081	0.055124	-0.449918
O122	O	0.591189	0.023889	-0.579602
O123	O	0.359978	0.059584	-0.452885
O124	O	0.365953	-0.085616	-0.528483
O125	O	0.457110	0.173550	-0.506971
Zn126	Zn	0.391193	0.044675	-0.518198
Zn127	Zn	0.559974	0.038798	-0.514289
O128	O	0.463086	0.028349	-0.582569
C129	C	0.815354	-0.521094	-0.008709
C130	C	0.717898	-0.563028	-0.006927
C131	C	0.670072	-0.514739	-0.009298
C132	C	0.564182	-0.463204	-0.048354
C133	C	0.445681	-0.498945	0.013847
C134	C	0.415547	-0.125494	-0.028771
C135	C	0.375059	-0.223405	-0.031498
C136	C	0.423859	-0.270708	-0.029121
C137	C	0.149365	-0.395355	-0.030599
C138	C	0.246820	-0.353421	-0.032381
C139	C	0.294640	-0.401713	-0.030008
C140	C	0.400530	-0.453248	0.009048
C141	C	0.519038	-0.417504	-0.053155
C142	C	0.549171	-0.790955	-0.010537
C143	C	0.589653	-0.693047	-0.007809
C144	C	0.540859	-0.645741	-0.010187
C145	C	0.678588	-0.652551	-0.006775
C146	C	0.581317	-0.556344	-0.010973
C147	C	0.530562	-0.506029	-0.015250
C148	C	0.286131	-0.263897	-0.032533
C149	C	0.383402	-0.360104	-0.028335
C150	C	0.434150	-0.410423	-0.024057
O151	O	-0.620614	0.089309	0.052274
O152	O	-0.529507	0.043784	-0.078544
O153	O	-0.523494	0.194833	-0.006033
O154	O	-0.626628	-0.061740	-0.020236
O155	O	-0.395386	0.185419	-0.005549
O156	O	-0.401400	0.034370	-0.078059
O157	O	-0.492507	0.079895	0.052758
Zn158	Zn	-0.426614	0.055638	-0.012574
Zn159	Zn	-0.595401	0.068041	-0.013212
O160	O	-0.498521	-0.071154	-0.019752
C161	C	-0.437537	0.048335	0.402491
C162	C	-0.397043	0.041789	0.352989
C163	C	-0.445822	0.047883	0.329994
C164	C	-0.496646	0.126653	0.277022
C165	C	-0.465894	-0.000633	0.218811
C166	C	-0.837226	0.099430	0.210091
C167	C	-0.739773	0.100339	0.187806
C168	C	-0.691967	0.094287	0.211308
C169	C	-0.571027	0.088563	0.071568
C170	C	-0.611521	0.095108	0.121070
C171	C	-0.562739	0.089011	0.144061
C172	C	-0.511915	0.010241	0.197033
C173	C	-0.542670	0.137531	0.255247
C174	C	-0.171338	0.037467	0.263967
C175	C	-0.268788	0.036555	0.286249
C176	C	-0.316597	0.042611	0.262750
C177	C	-0.308112	0.037305	0.331542
C178	C	-0.405351	0.048369	0.284750
C179	C	-0.456092	0.058317	0.260279
C180	C	-0.700452	0.099593	0.142516
C181	C	-0.603213	0.088528	0.189308
C182	C	-0.552469	0.078578	0.213776
O183	O	-0.040608	-1.085661	-0.825229
O184	O	-0.001018	-0.826491	-0.777938
O185	O	-0.150287	-0.971682	-0.775894
O186	O	0.108661	-0.940470	-0.827272
O187	O	-0.144253	-0.976123	-0.711878
O188	O	0.005016	-0.830932	-0.713922
O189	O	-0.034575	-1.090102	-0.761213
Zn190	Zn	-0.013821	-0.961222	-0.727403
Zn191	Zn	-0.021771	-0.955371	-0.811747
O192	O	0.114695	-0.944911	-0.763256
O193	O	-0.036862	-0.230384	-0.253947
C194	C	-0.115987	-0.202041	-0.227222
H195	H	-0.171766	-0.243574	-0.244184
H196	H	-0.138525	-0.211820	-0.192195
H197	H	-0.101653	-0.127812	-0.223676
O198	O	0.407844	-0.539095	0.047792
C199	C	0.467392	-0.582055	0.045727
H200	H	0.539383	-0.549531	0.027128
H201	H	0.463616	-0.574882	0.081597
H202	H	0.447329	-0.656487	0.026788
O203	O	-0.488534	0.185465	0.317821
C204	C	-0.396288	0.227472	0.314554
H205	H	-0.355865	0.224505	0.277632
H206	H	-0.387494	0.300759	0.335955
H207	H	-0.370913	0.191121	0.327432
H208	H	-0.037104	-0.474911	-0.880014
H209	H	0.550810	-0.383955	-0.581575
H210	H	-0.574318	0.196197	0.271049
O211	O	-0.132795	-0.468450	-0.686955
C212	C	-0.083745	-0.429834	-0.655170
H213	H	-0.017409	-0.380579	-0.668347
H214	H	-0.125265	-0.392527	-0.621514
H215	H	-0.068899	-0.485169	-0.649945
H216	H	0.088092	-0.309407	-0.275738
O217	O	0.255423	-0.489040	-0.529334
C218	C	0.305532	-0.544290	-0.566996
H219	H	0.377699	-0.502383	-0.579221
H220	H	0.306551	-0.600913	-0.556728
H221	H	0.272866	-0.574252	-0.595492
H222	H	-0.267732	0.034117	0.350946
H223	H	-0.142686	-0.383972	-0.734830
O224	O	0.454259	-0.686250	-0.011792
C225	C	0.452553	-0.761368	-0.050473
H226	H	0.515085	-0.785509	-0.061628
H227	H	0.389265	-0.817836	-0.041972
H228	H	0.451928	-0.741504	-0.079097
H229	H	0.013390	-0.692483	-0.152899
O230	O	-0.545985	0.039987	-0.148507
C231	C	-0.603915	-0.033632	-0.171395
H232	H	-0.570410	-0.091000	-0.191407
H233	H	-0.670300	-0.057274	-0.145643
H234	H	-0.617880	-0.012153	-0.195642
O235	O	-0.489647	0.070282	-0.377182
C236	C	-0.487950	-0.007119	-0.414769
H237	H	-0.550481	-0.027719	-0.425990
H238	H	-0.424661	0.008174	-0.443858
H239	H	-0.487334	-0.064398	-0.404853
O240	O	0.407660	-0.538954	-0.452069
C241	C	0.463668	-0.502352	-0.423637
H242	H	0.507941	-0.432665	-0.427057
H243	H	0.419978	-0.496714	-0.386925
H244	H	0.508371	-0.548078	-0.433936
O245	O	-0.049185	-0.216413	-0.890217
C246	C	0.027617	-0.213554	-0.928603
H247	H	0.055469	-0.272619	-0.937742
H248	H	0.008000	-0.218064	-0.958361
H249	H	0.081485	-0.147668	-0.920748
H250	H	-0.281187	0.020914	-0.148901
O251	O	-0.762008	0.090359	-0.380466
C252	C	-0.718322	0.167741	-0.395996
H253	H	-0.643678	0.189804	-0.398303
H254	H	-0.725228	0.151706	-0.430942
H255	H	-0.750734	0.224284	-0.371302
O256	O	-0.428162	-0.070648	0.199893
C257	C	-0.446040	-0.121929	0.158094
H258	H	-0.460314	-0.078323	0.144335
H259	H	-0.384872	-0.146907	0.132879
H260	H	-0.507390	-0.182024	0.163266
H261	H	0.634201	-0.467612	-0.072637
H262	H	0.088099	-0.448874	-0.845454
H263	H	-0.297145	0.029698	-0.274103
H264	H	0.718963	-0.692464	-0.005731
O265	O	-0.532399	0.053523	0.351399
C266	C	-0.534069	0.130920	0.388987
H267	H	-0.464774	0.181784	0.383635
H268	H	-0.586984	0.162106	0.392665
H269	H	-0.551799	0.111456	0.421057
O270	O	0.557149	-0.377437	-0.087142
C271	C	0.642848	-0.392740	-0.112544
H272	H	0.645819	-0.455358	-0.108138
H273	H	0.654689	-0.403108	-0.149934
H274	H	0.697333	-0.332131	-0.100104
O275	O	0.726670	-0.700166	-0.505452
C276	C	0.803487	-0.703056	-0.543868
H277	H	0.821014	-0.643991	-0.557406
H278	H	0.862924	-0.698569	-0.534022
H279	H	0.788642	-0.768942	-0.571238
H280	H	0.702991	-0.441593	-0.009870
H281	H	0.496488	-0.236853	-0.027824
O282	O	-0.352430	0.166210	-0.259940
C283	C	-0.327689	0.229055	-0.283790
H284	H	-0.391125	0.236349	-0.285235
H285	H	-0.288499	0.297037	-0.265680
H286	H	-0.283436	0.204598	-0.319738
O287	O	0.237853	-0.216284	-0.033688
C288	C	0.160920	-0.213656	0.004674
H289	H	0.173282	-0.225156	0.032713
H290	H	0.147264	-0.145096	0.017146
H291	H	0.100006	-0.268589	-0.004818
O292	O	0.709247	-0.427503	-0.509827
C293	C	0.734704	-0.376202	-0.469906
H294	H	0.743054	-0.422306	-0.455292
H295	H	0.801443	-0.323085	-0.478142
H296	H	0.680203	-0.341733	-0.444004
O297	O	0.510404	-0.230313	-0.527475
C298	C	0.512131	-0.155151	-0.488814
H299	H	0.442856	-0.163942	-0.462427
H300	H	0.565070	-0.149228	-0.473953
H301	H	0.529864	-0.091508	-0.498800
H302	H	0.468064	-0.679625	-0.511379
O303	O	-0.049524	-0.216405	-0.390125
C304	C	-0.128365	-0.258475	-0.404098
H305	H	-0.180900	-0.301259	-0.380885
H306	H	-0.156682	-0.204955	-0.402220
H307	H	-0.111269	-0.303230	-0.440488
H308	H	0.107243	-0.392097	-0.234140
O309	O	0.647614	-0.468433	-0.577272
C310	C	0.672353	-0.421453	-0.609051
H311	H	0.632560	-0.369414	-0.594414
H312	H	0.747785	-0.386021	-0.616839
H313	H	0.656719	-0.470933	-0.641597
O314	O	0.237846	-0.216325	-0.533700
C315	C	0.160910	-0.213669	-0.495340
H316	H	0.173258	-0.225153	-0.467292
H317	H	0.147270	-0.145104	-0.482880
H318	H	0.099992	-0.268598	-0.504829
O319	O	-0.744826	0.080623	-0.244372
C320	C	-0.821987	0.006453	-0.240933
H321	H	-0.815525	-0.047521	-0.275000
H322	H	-0.828002	-0.022307	-0.213939
H323	H	-0.884827	0.029211	-0.231080
O324	O	-0.476144	0.083441	0.122634
C325	C	-0.474447	0.006033	0.085052
H326	H	-0.536977	-0.014575	0.073829
H327	H	-0.411157	0.021318	0.055961
H328	H	-0.473832	-0.051238	0.094975
O329	O	0.001369	-0.686192	-0.285236
C330	C	0.080518	-0.714488	-0.311964
H331	H	0.110377	-0.723022	-0.289320
H332	H	0.063322	-0.781478	-0.338282
H333	H	0.131857	-0.661849	-0.329902
O334	O	-0.132972	-0.620359	-0.262946
C335	C	-0.197165	-0.643984	-0.285561
H336	H	-0.168586	-0.605669	-0.311971
H337	H	-0.213226	-0.719457	-0.303055
H338	H	-0.261589	-0.625933	-0.259947
O339	O	0.001361	-0.686217	-0.785232
C340	C	0.080516	-0.714507	-0.811956
H341	H	0.110362	-0.723052	-0.789310
H342	H	0.063330	-0.781490	-0.838280
H343	H	0.131861	-0.661859	-0.829887
O344	O	-0.731326	0.093816	0.255445
C345	C	-0.808492	0.019653	0.258888
H346	H	-0.802039	-0.034327	0.224823
H347	H	-0.814507	-0.009104	0.285884
H348	H	-0.871329	0.042417	0.268743
O349	O	-0.153671	-0.530385	-0.308225
C350	C	-0.117323	-0.542122	-0.355394
H351	H	-0.044725	-0.545893	-0.366959
H352	H	-0.159544	-0.607170	-0.373815
H353	H	-0.118307	-0.482798	-0.363550
O354	O	0.001399	-0.427502	-0.655920
C355	C	0.080528	-0.376202	-0.642823
H356	H	0.136296	-0.411652	-0.664341
H357	H	0.103082	-0.306761	-0.648025
H358	H	0.066193	-0.368710	-0.605514
H359	H	-0.586315	-0.066836	-0.224702
H360	H	0.261721	-0.474856	-0.029430
H361	H	-0.283673	0.042875	0.225734
H362	H	0.001660	-0.441639	-0.159184
O363	O	0.316911	-0.448068	-0.461886
C364	C	0.292156	-0.495100	-0.430128
H365	H	0.355586	-0.499701	-0.427330
H366	H	0.252950	-0.457827	-0.395610
H367	H	0.247913	-0.565803	-0.441763
O368	O	-0.036588	-0.488963	-0.383247
C369	C	0.044324	-0.497660	-0.384082
H370	H	0.071155	-0.440230	-0.356230
H371	H	0.030654	-0.564745	-0.378209
H372	H	0.096591	-0.495039	-0.418483
H373	H	0.107227	-0.532615	-0.804368
O374	O	0.317015	-0.448070	0.038059
C375	C	0.292280	-0.495125	0.069804
H376	H	0.355720	-0.499721	0.072594
H377	H	0.253070	-0.457872	0.104328
H378	H	0.248048	-0.565829	0.058162
H379	H	-0.037089	-0.236932	-0.761035
O380	O	0.013689	-0.700230	-0.648998
C381	C	-0.062996	-0.702885	-0.610548
H382	H	-0.119244	-0.691395	-0.616645
H383	H	-0.087004	-0.771450	-0.604187
H384	H	-0.044748	-0.647958	-0.579723
H385	H	-0.518563	-0.039000	0.162804
O386	O	-0.443235	0.188167	-0.304224
C387	C	-0.502776	0.185671	-0.324895
H388	H	-0.574769	0.150419	-0.307664
H389	H	-0.498995	0.257314	-0.321352
H390	H	-0.482710	0.147262	-0.362384
O391	O	-0.748488	0.103507	0.119332
C392	C	-0.704803	0.180874	0.103790
H393	H	-0.630161	0.202952	0.101490
H394	H	-0.711697	0.164814	0.068838
H395	H	-0.737224	0.237417	0.128472
O396	O	-0.683138	-0.055627	-0.265625
C397	C	-0.707868	-0.118506	-0.241797
H398	H	-0.668062	-0.090304	-0.216322
H399	H	-0.783297	-0.132033	-0.223053
H400	H	-0.692243	-0.184027	-0.266746
