data_functionalizedCrystal
_audit_creation_method	'MofGen! by Chris Wilmer'
_symmetry_space_group_name_H-M	'P1'
_symmetry_Int_Tables_number	1
_symmetry_cell_setting	triclinic
loop_
_symmetry_equiv_pos_as_xyz
  x,y,z
_cell_length_a	29.839134
_cell_length_b	29.839131
_cell_length_c	25.639234
_cell_angle_alpha	89.974256
_cell_angle_beta	89.979476
_cell_angle_gamma	90.021992
loop_
_atom_site_label
_atom_site_type_symbol
_atom_site_fract_x
_atom_site_fract_y
_atom_site_fract_z
Zn1	Zn	0.686756	-0.179114	-0.295616
Zn2	Zn	1.186756	0.320886	0.204384
Zn3	Zn	0.686678	-0.254236	-0.208179
Zn4	Zn	1.186678	0.245764	0.291821
Zn5	Zn	0.611628	-0.179095	-0.208194
Zn6	Zn	1.111628	0.320905	0.291806
Zn7	Zn	0.611587	-0.254192	-0.295582
Zn8	Zn	1.111587	0.245808	0.204418
O9	O	0.649162	-0.216659	-0.251893
O10	O	1.149162	0.283341	0.248107
O11	O	0.749613	-0.189105	-0.284025
O12	O	1.249613	0.310895	0.215975
O13	O	0.676707	-0.244280	-0.135016
O14	O	1.176707	0.255720	0.364984
O15	O	0.621644	-0.116231	-0.219810
O16	O	1.121644	0.383769	0.280190
O17	O	0.749555	-0.244297	-0.219786
O18	O	1.249555	0.255703	0.280214
O19	O	0.676841	-0.116244	-0.284039
O20	O	1.176841	0.383756	0.215961
O21	O	0.621568	-0.189074	-0.135026
O22	O	1.121568	0.310926	0.364974
O23	O	0.548756	-0.189031	-0.219778
O24	O	1.048756	0.310969	0.280222
O25	O	0.621574	-0.244222	-0.368752
O26	O	1.121574	0.255778	0.131248
O27	O	0.548725	-0.244204	-0.283982
O28	O	1.048725	0.255796	0.216018
O29	O	0.676801	-0.189062	-0.368777
O30	O	1.176801	0.310938	0.131223
O31	O	0.676666	-0.317097	-0.219753
O32	O	1.176666	0.182903	0.280247
O33	O	0.621498	-0.317065	-0.283968
O34	O	1.121498	0.182935	0.216032
C35	C	0.532440	-0.216611	-0.251878
C36	C	1.032440	0.283389	0.248122
C37	C	0.482505	-0.216601	-0.251884
C38	C	0.982505	0.283399	0.248116
C39	C	0.125944	-0.187981	-0.285408
C40	C	0.625944	0.312019	0.214592
C41	C	0.313617	-0.187944	-0.285396
C42	C	0.813617	0.312056	0.214604
O43	O	0.337904	-0.163553	-0.313897
O44	O	0.837904	0.336447	0.186103
N45	N	0.337060	-0.216631	-0.251897
N46	N	0.837060	0.283369	0.248103
C47	C	0.313582	-0.245330	-0.218400
C48	C	0.813582	0.254670	0.281600
O49	O	0.337828	-0.269732	-0.189911
O50	O	0.837828	0.230268	0.310089
C51	C	0.125910	-0.245368	-0.218416
C52	C	0.625910	0.254632	0.281584
C53	C	0.102469	-0.216677	-0.251913
C54	C	0.602469	0.283323	0.248087
C55	C	0.102504	-0.159292	-0.318903
C56	C	0.602504	0.340708	0.181097
C57	C	0.055588	-0.159299	-0.318904
C58	C	0.555588	0.340701	0.181096
C59	C	0.032113	-0.187996	-0.285409
C60	C	0.532113	0.312004	0.214591
C61	C	0.055554	-0.216684	-0.251914
C62	C	0.555554	0.283316	0.248086
C63	C	0.102432	-0.274070	-0.184922
C64	C	0.602432	0.225930	0.315078
C65	C	0.055511	-0.274077	-0.184930
C66	C	0.555511	0.225923	0.315070
C67	C	0.032071	-0.245386	-0.218428
C68	C	0.532071	0.254614	0.281572
C69	C	-0.014837	-0.245388	-0.218420
C70	C	0.485163	0.254612	0.281580
N71	N	-0.038279	-0.216702	-0.251919
N72	N	0.461721	0.283298	0.248081
C73	C	-0.014805	-0.188006	-0.285414
C74	C	0.485195	0.311994	0.214586
C75	C	0.412113	-0.245308	-0.218394
C76	C	0.912113	0.254692	0.281606
C77	C	0.459031	-0.245298	-0.218390
C78	C	0.959031	0.254702	0.281610
C79	C	0.459063	-0.187912	-0.285386
C80	C	0.959063	0.312088	0.214614
C81	C	0.412144	-0.187920	-0.285388
C82	C	0.912144	0.312080	0.214612
C83	C	0.388670	-0.216621	-0.251893
C84	C	0.888670	0.283379	0.248107
C85	C	-0.113330	-0.188024	-0.285412
C86	C	0.386670	0.311976	0.214588
C87	C	-0.160250	-0.188032	-0.285409
C88	C	0.339750	0.311968	0.214591
C89	C	-0.160278	-0.245419	-0.218414
C90	C	0.339722	0.254581	0.281586
C91	C	-0.113362	-0.245409	-0.218416
C92	C	0.386638	0.254591	0.281584
C93	C	-0.089890	-0.216710	-0.251919
C94	C	0.410110	0.283290	0.248081
O95	O	-0.039152	-0.269771	-0.189938
O96	O	0.460848	0.230229	0.310062
O97	O	-0.039059	-0.163615	-0.313908
O98	O	0.460941	0.336385	0.186092
C99	C	0.172860	-0.187973	-0.285407
C100	C	0.672860	0.312027	0.214593
C101	C	0.196300	-0.216662	-0.251912
C102	C	0.696300	0.283338	0.248088
C103	C	0.172825	-0.245358	-0.218417
C104	C	0.672825	0.254642	0.281583
C105	C	0.243218	-0.216652	-0.251907
C106	C	0.743218	0.283348	0.248093
C107	C	0.266693	-0.187955	-0.285402
C108	C	0.766693	0.312045	0.214598
C109	C	0.243250	-0.159269	-0.318901
C110	C	0.743250	0.340731	0.181099
C111	C	0.196335	-0.159277	-0.318902
C112	C	0.696335	0.340723	0.181098
C113	C	0.196268	-0.274044	-0.184918
C114	C	0.696268	0.225956	0.315082
C115	C	0.243184	-0.274034	-0.184920
C116	C	0.743184	0.225966	0.315080
C117	C	0.266659	-0.245338	-0.218414
C118	C	0.766659	0.254662	0.281586
C119	C	0.649081	-0.333382	-0.251867
C120	C	1.149081	0.166618	0.248133
C121	C	0.649088	-0.383316	-0.251873
C122	C	1.149088	0.116684	0.248127
C123	C	0.677941	-0.692964	-0.218505
C124	C	1.177941	-0.192964	0.281495
C125	C	0.677996	-0.880637	-0.218525
C126	C	1.177996	-0.380637	0.281475
O127	O	0.702464	-0.904905	-0.190134
O128	O	1.202464	-0.404905	0.309866
N129	N	0.649256	-0.904101	-0.251932
N130	N	1.149256	-0.404101	0.248068
C131	C	0.620501	-0.880644	-0.285339
C132	C	1.120501	-0.380644	0.214661
O133	O	0.596059	-0.904909	-0.313758
O134	O	1.096059	-0.404909	0.186242
C135	C	0.620448	-0.692972	-0.285321
C136	C	1.120448	-0.192972	0.214679
C137	C	0.649187	-0.669510	-0.251908
C138	C	1.149187	-0.169510	0.248092
C139	C	0.706679	-0.669502	-0.185095
C140	C	1.206679	-0.169502	0.314905
C141	C	0.706663	-0.622587	-0.185088
C142	C	1.206663	-0.122587	0.314912
C143	C	0.677909	-0.599133	-0.218491
C144	C	1.177909	-0.099133	0.281509
C145	C	0.649172	-0.622595	-0.251901
C146	C	1.149172	-0.122595	0.248099
C147	C	0.591696	-0.669516	-0.318730
C148	C	1.091696	-0.169516	0.181270
C149	C	0.591686	-0.622595	-0.318723
C150	C	1.091686	-0.122595	0.181277
C151	C	0.620425	-0.599133	-0.285310
C152	C	1.120425	-0.099133	0.214690
C153	C	0.620402	-0.552226	-0.285297
C154	C	1.120402	-0.052226	0.214703
N155	N	0.649143	-0.528762	-0.251890
N156	N	1.149143	-0.028762	0.248110
C157	C	0.677897	-0.552215	-0.218487
C158	C	1.177897	-0.052215	0.281513
C159	C	0.620530	-0.979175	-0.285345
C160	C	1.120530	-0.479175	0.214655
C161	C	0.620542	-1.026093	-0.285349
C162	C	1.120542	-0.526093	0.214651
C163	C	0.678039	-1.026082	-0.218536
C164	C	1.178039	-0.526082	0.281464
C165	C	0.678024	-0.979163	-0.218530
C166	C	1.178024	-0.479163	0.281470
C167	C	0.649271	-0.955711	-0.251938
C168	C	1.149271	-0.455711	0.248062
C169	C	0.677861	-0.453689	-0.218475
C170	C	1.177861	0.046311	0.281525
C171	C	0.677841	-0.406770	-0.218470
C172	C	1.177841	0.093230	0.281530
C173	C	0.620347	-0.406785	-0.285285
C174	C	1.120347	0.093215	0.214715
C175	C	0.620364	-0.453700	-0.285289
C176	C	1.120364	0.046300	0.214711
C177	C	0.649125	-0.477151	-0.251882
C178	C	1.149125	0.022849	0.248118
O179	O	0.595951	-0.527929	-0.313678
O180	O	1.095951	-0.027929	0.186322
O181	O	0.702341	-0.527943	-0.190081
O182	O	1.202341	-0.027943	0.309919
C183	C	0.677957	-0.739879	-0.218512
C184	C	1.177957	-0.239879	0.281488
C185	C	0.649219	-0.763341	-0.251921
C186	C	1.149219	-0.263341	0.248079
C187	C	0.620466	-0.739888	-0.285324
C188	C	1.120466	-0.239888	0.214676
C189	C	0.649232	-0.810259	-0.251925
C190	C	1.149232	-0.310259	0.248075
C191	C	0.677985	-0.833713	-0.218522
C192	C	1.177985	-0.333713	0.281478
C193	C	0.706726	-0.810248	-0.185115
C194	C	1.206726	-0.310248	0.314885
C195	C	0.706710	-0.763333	-0.185109
C196	C	1.206710	-0.263333	0.314891
C197	C	0.591725	-0.763352	-0.318731
C198	C	1.091725	-0.263352	0.181269
C199	C	0.591743	-0.810268	-0.318735
C200	C	1.091743	-0.310268	0.181265
C201	C	0.620496	-0.833721	-0.285332
C202	C	1.120496	-0.333721	0.214668
C203	C	0.766341	-0.216708	-0.251908
C204	C	1.266341	0.283292	0.248092
C205	C	0.816275	-0.216729	-0.251914
C206	C	1.316275	0.283271	0.248086
C207	C	0.649192	-0.216639	-0.388266
C208	C	1.149192	0.283361	0.111734
C209	C	0.649204	-0.216630	-0.446380
C210	C	1.149204	0.283370	0.053620
C211	C	0.649256	-0.099481	-0.251930
C212	C	1.149256	0.400519	0.248070
C213	C	0.649296	-0.049546	-0.251946
C214	C	1.149296	0.450454	0.248054
C215	C	0.620506	-0.187831	-0.806754
C216	C	1.120506	0.312169	-0.306754
C217	C	0.620508	-0.187823	-0.861358
C218	C	1.120508	0.312177	-0.361358
O219	O	0.596086	-0.163386	-0.889605
O220	O	1.096086	0.336614	-0.389605
N221	N	0.649219	-0.216560	-0.888663
N222	N	1.149219	0.283440	-0.388663
C223	C	0.677926	-0.245309	-0.861359
C224	C	1.177926	0.254691	-0.361359
O225	O	0.702346	-0.269752	-0.889598
O226	O	1.202346	0.230248	-0.389598
C227	C	0.677921	-0.245320	-0.806756
C228	C	1.177921	0.254680	-0.306756
C229	C	0.649211	-0.216578	-0.779455
C230	C	1.149211	0.283422	-0.279455
C231	C	0.591799	-0.159092	-0.779453
C232	C	1.091799	0.340908	-0.279453
C233	C	0.591797	-0.159100	-0.724852
C234	C	1.091797	0.340900	-0.224852
C235	C	0.620503	-0.187846	-0.697553
C236	C	1.120503	0.312154	-0.197553
C237	C	0.649210	-0.216585	-0.724854
C238	C	1.149210	0.283415	-0.224854
C239	C	0.706625	-0.274071	-0.779454
C240	C	1.206625	0.225929	-0.279454
C241	C	0.706617	-0.274079	-0.724847
C242	C	1.206617	0.225921	-0.224847
C243	C	0.677908	-0.245337	-0.697546
C244	C	1.177908	0.254663	-0.197546
C245	C	0.677913	-0.245340	-0.642954
C246	C	1.177913	0.254660	-0.142954
N247	N	0.649203	-0.216603	-0.615650
N248	N	1.149203	0.283397	-0.115650
C249	C	0.620498	-0.187856	-0.642950
C250	C	1.120498	0.312144	-0.142950
C251	C	0.677933	-0.245287	-0.976030
C252	C	1.177933	0.254713	-0.476030
C253	C	0.677941	-0.245275	-1.030632
C254	C	1.177941	0.254725	-0.530632
C255	C	0.620523	-0.187789	-1.030628
C256	C	1.120523	0.312211	-0.530628
C257	C	0.620518	-0.187799	-0.976024
C258	C	1.120518	0.312201	-0.476024
C259	C	0.649223	-0.216550	-0.948726
C260	C	1.149223	0.283450	-0.448726
C261	C	0.620496	-0.187874	-0.528284
C262	C	1.120496	0.312126	-0.028284
C263	C	0.620499	-0.187883	-0.473679
C264	C	1.120499	0.312117	0.026321
C265	C	0.677915	-0.245371	-0.473689
C266	C	1.177915	0.254629	0.026311
C267	C	0.677914	-0.245361	-0.528289
C268	C	1.177914	0.254639	-0.028289
C269	C	0.649202	-0.216611	-0.555586
C270	C	1.149202	0.283389	-0.055586
O271	O	0.702322	-0.269765	-0.614674
O272	O	1.202322	0.230235	-0.114674
O273	O	0.596077	-0.163422	-0.614705
O274	O	1.096077	0.336578	-0.114705
C275	C	0.649159	-0.216647	-0.116050
C276	C	1.149159	0.283353	0.383950
C277	C	0.649234	-0.216529	-0.057936
C278	C	1.149234	0.283471	0.442064
H279	H	0.036401	-0.297451	-0.157656
H280	H	0.536401	0.202549	0.342344
C281	C	0.560055	-0.596798	-0.355472
C282	C	1.060055	-0.096798	0.144528
C283	C	0.524783	-0.564579	-0.332778
C284	C	1.024783	-0.064579	0.167222
C285	C	0.493152	-0.538782	-0.369525
C286	C	0.993152	-0.038782	0.130475
C287	C	0.496793	-0.545204	-0.428967
C288	C	0.996793	-0.045204	0.071033
C289	C	0.532066	-0.577424	-0.451664
C290	C	1.032066	-0.077424	0.048336
C291	C	0.563697	-0.603221	-0.414917
C292	C	1.063697	-0.103221	0.085083
H293	H	0.522087	-0.559824	-0.288772
H294	H	1.022087	-0.059824	0.211228
H295	H	0.467040	-0.514930	-0.352722
H296	H	0.967040	-0.014930	0.147278
H297	H	0.473377	-0.526107	-0.456169
H298	H	0.973377	-0.026107	0.043831
H299	H	0.534762	-0.582179	-0.495669
H300	H	1.034762	-0.082179	0.004331
H301	H	0.589809	-0.627072	-0.431720
H302	H	1.089809	-0.127072	0.068280
H303	H	0.262371	-0.135902	-0.346172
H304	H	0.762371	0.364098	0.153828
H305	H	0.568291	-0.688611	-0.345936
H306	H	1.068291	-0.188611	0.154064
C307	C	0.738194	-0.305706	-0.694818
C308	C	1.238194	0.194294	-0.194818
C309	C	0.789269	-0.302063	-0.702344
C310	C	1.289269	0.197937	-0.202344
C311	C	0.820845	-0.333688	-0.672315
C312	C	1.320845	0.166312	-0.172315
C313	C	0.801346	-0.368956	-0.634760
C314	C	1.301346	0.131044	-0.134760
C315	C	0.750269	-0.372601	-0.627232
C316	C	1.250269	0.127399	-0.127232
C317	C	0.718692	-0.340976	-0.657261
C318	C	1.218692	0.159024	-0.157261
H319	H	0.803705	-0.275954	-0.730147
H320	H	1.303705	0.224046	-0.230147
H321	H	0.858656	-0.330990	-0.677889
H322	H	1.358656	0.169010	-0.177889
H323	H	0.824721	-0.392367	-0.612531
H324	H	1.324721	0.107633	-0.112531
H325	H	0.735832	-0.398710	-0.599430
H326	H	1.235832	0.101290	-0.099430
H327	H	0.680881	-0.343674	-0.651688
H328	H	1.180881	0.156326	-0.151688
C329	C	0.738327	-0.737529	-0.148355
C330	C	1.238327	-0.237529	0.351645
C331	C	0.718875	-0.705310	-0.107276
C332	C	1.218875	-0.205310	0.392724
C333	C	0.750494	-0.679511	-0.070521
C334	C	1.250494	-0.179511	0.429479
C335	C	0.801565	-0.685931	-0.074845
C336	C	1.301565	-0.185931	0.425155
C337	C	0.821019	-0.718151	-0.115926
C338	C	1.321019	-0.218151	0.384074
C339	C	0.789400	-0.743951	-0.152681
C340	C	1.289400	-0.243951	0.347319
H341	H	0.681068	-0.700556	-0.104074
H342	H	1.181068	-0.200556	0.395926
H343	H	0.736093	-0.655659	-0.040110
H344	H	1.236093	-0.155659	0.459890
H345	H	0.824971	-0.666832	-0.047637
H346	H	1.324971	-0.166832	0.452363
H347	H	0.858827	-0.722905	-0.119129
H348	H	1.358827	-0.222905	0.380871
H349	H	0.803802	-0.767803	-0.183092
H350	H	1.303802	-0.267803	0.316908
C351	C	-0.087516	-0.156451	-0.322262
C352	C	0.412484	0.343549	0.177738
C353	C	-0.055264	-0.121146	-0.299678
C354	C	0.444736	0.378854	0.200322
C355	C	-0.029450	-0.089571	-0.336524
C356	C	0.470550	0.410429	0.163476
C357	C	-0.035888	-0.093301	-0.395954
C358	C	0.464112	0.406699	0.104046
C359	C	-0.068141	-0.128607	-0.418541
C360	C	0.431859	0.371393	0.081459
C361	C	-0.093955	-0.160182	-0.381695
C362	C	0.406045	0.339818	0.118305
H363	H	-0.050497	-0.118384	-0.255682
H364	H	0.449503	0.381616	0.244318
H365	H	-0.005574	-0.063435	-0.319804
H366	H	0.494426	0.436565	0.180196
H367	H	-0.016778	-0.069927	-0.423230
H368	H	0.483222	0.430073	0.076770
H369	H	-0.072908	-0.131369	-0.462537
H370	H	0.427092	0.368631	0.037463
H371	H	-0.117831	-0.186318	-0.398416
H372	H	0.382169	0.313682	0.101584
H373	H	0.568421	-0.135683	-0.801674
H374	H	1.068421	0.364317	-0.301674
H375	H	0.597115	-0.960083	-0.312551
H376	H	1.097115	-0.460083	0.187449
C377	C	0.588944	-0.156169	-1.060664
C378	C	1.088944	0.343831	-0.560664
C379	C	0.592647	-0.105099	-1.053182
C380	C	1.092647	0.394901	-0.553182
C381	C	0.561071	-0.073481	-1.083220
C382	C	1.061071	0.426519	-0.583220
C383	C	0.525790	-0.092932	-1.120742
C384	C	1.025790	0.407068	-0.620742
C385	C	0.522085	-0.144005	-1.128226
C386	C	1.022085	0.355995	-0.628226
C387	C	0.553662	-0.175623	-1.098187
C388	C	1.053662	0.324377	-0.598187
H389	H	0.618765	-0.090697	-1.025405
H390	H	1.118765	0.409303	-0.525405
H391	H	0.563814	-0.035673	-1.077680
H392	H	1.063814	0.464327	-0.577680
H393	H	0.502415	-0.069527	-1.142978
H394	H	1.002415	0.430473	-0.642978
H395	H	0.495967	-0.158407	-1.156003
H396	H	0.995967	0.341593	-0.656003
H397	H	0.550919	-0.213431	-1.103728
H398	H	1.050919	0.286569	-0.603728
H399	H	0.701282	-0.472778	-0.191274
H400	H	1.201282	0.027222	0.308726
H401	H	0.730137	-0.829352	-0.157916
H402	H	1.230137	-0.329352	0.342084
H403	H	0.597141	-0.164394	-0.953799
H404	H	1.097141	0.335606	-0.453799
H405	H	0.730066	-0.603487	-0.157882
H406	H	1.230066	-0.103487	0.342118
H407	H	0.730096	-0.688593	-0.157894
H408	H	1.230096	-0.188593	0.342106
H409	H	0.701426	-0.960064	-0.191323
H410	H	1.201426	-0.460064	0.308677
H411	H	0.478184	-0.164545	-0.312658
H412	H	0.978184	0.335455	0.187342
C413	C	0.268965	-0.305598	-0.148069
C414	C	0.768965	0.194402	0.351931
C415	C	0.262493	-0.301871	-0.088639
C416	C	0.762493	0.198129	0.411361
C417	C	0.288271	-0.333438	-0.051794
C418	C	0.788271	0.166562	0.448206
C419	C	0.320522	-0.368731	-0.074379
C420	C	0.820522	0.131269	0.425621
C421	C	0.326995	-0.372460	-0.133812
C422	C	0.826995	0.127540	0.366188
C423	C	0.301217	-0.340893	-0.170657
C424	C	0.801217	0.159107	0.329343
H425	H	0.238618	-0.275743	-0.071918
H426	H	0.738618	0.224257	0.428082
H427	H	0.283479	-0.330677	-0.007798
H428	H	0.783479	0.169323	0.492202
H429	H	0.339605	-0.392099	-0.047104
H430	H	0.839605	0.107901	0.452896
H431	H	0.350871	-0.398587	-0.150533
H432	H	0.850871	0.101413	0.349467
H433	H	0.306009	-0.343653	-0.214653
H434	H	0.806009	0.156347	0.285347
C435	C	-0.087573	-0.276965	-0.181566
C436	C	0.412427	0.223035	0.318434
C437	C	-0.094040	-0.273231	-0.122136
C438	C	0.405960	0.226769	0.377864
C439	C	-0.068254	-0.304790	-0.085288
C440	C	0.431746	0.195210	0.414712
C441	C	-0.036002	-0.340082	-0.107871
C442	C	0.463998	0.159918	0.392129
C443	C	-0.029534	-0.343818	-0.167304
C444	C	0.470466	0.156182	0.332696
C445	C	-0.055319	-0.312259	-0.204151
C446	C	0.444681	0.187741	0.295849
H447	H	-0.117917	-0.247104	-0.105416
H448	H	0.382083	0.252896	0.394584
H449	H	-0.073043	-0.302024	-0.041292
H450	H	0.426957	0.197976	0.458708
H451	H	-0.016913	-0.363444	-0.080595
H452	H	0.483087	0.136556	0.419405
H453	H	-0.005657	-0.369945	-0.184024
H454	H	0.494343	0.130055	0.315976
H455	H	-0.050531	-0.315024	-0.248148
H456	H	0.449469	0.184976	0.251852
H457	H	0.568417	-0.135697	-0.702628
H458	H	1.068417	0.364303	-0.202628
C459	C	0.709671	-1.051887	-0.181794
C460	C	1.209671	-0.551887	0.318206
C461	C	0.709683	-1.103494	-0.181806
C462	C	1.209683	-0.603494	0.318194
C463	C	0.741316	-1.129301	-0.145070
C464	C	1.241316	-0.629301	0.354930
C465	C	0.772936	-1.103500	-0.108322
C466	C	1.272936	-0.603500	0.391678
C467	C	0.772925	-1.051889	-0.108309
C468	C	1.272925	-0.551889	0.391691
C469	C	0.741292	-1.026083	-0.145045
C470	C	1.241292	-0.526083	0.354955
H471	H	0.686275	-1.122596	-0.209010
H472	H	1.186275	-0.622596	0.290990
H473	H	0.741324	-1.167507	-0.145080
H474	H	1.241324	-0.667507	0.354920
H475	H	0.796352	-1.122604	-0.081128
H476	H	1.296352	-0.622604	0.418872
H477	H	0.796333	-1.032787	-0.081105
H478	H	1.296333	-0.532787	0.418895
H479	H	0.741284	-0.987877	-0.145036
H480	H	1.241284	-0.487877	0.354964
H481	H	0.701297	-0.268759	-0.550519
H482	H	1.201297	0.231241	-0.050519
C483	C	0.128320	-0.127721	-0.355751
C484	C	0.628320	0.372279	0.144249
C485	C	0.121882	-0.131452	-0.415180
C486	C	0.621882	0.368548	0.084820
C487	C	0.147694	-0.099876	-0.452027
C488	C	0.647694	0.400124	0.047973
C489	C	0.179942	-0.064567	-0.429445
C490	C	0.679942	0.435433	0.070555
C491	C	0.186381	-0.060834	-0.370012
C492	C	0.686381	0.439166	0.129988
C493	C	0.160569	-0.092411	-0.333165
C494	C	0.660569	0.407589	0.166835
H495	H	0.098009	-0.157591	-0.431900
H496	H	0.598009	0.342409	0.068100
H497	H	0.142927	-0.102639	-0.496023
H498	H	0.642927	0.397361	0.003977
H499	H	0.199049	-0.041192	-0.456721
H500	H	0.699049	0.458808	0.043279
H501	H	0.210254	-0.034695	-0.353292
H502	H	0.710254	0.465305	0.146708
H503	H	0.165336	-0.089647	-0.289169
H504	H	0.665336	0.410353	0.210831
C505	C	0.588915	-0.156248	-0.558306
C506	C	1.088915	0.343752	-0.058306
C507	C	0.537841	-0.159890	-0.550772
C508	C	1.037841	0.340110	-0.050772
C509	C	0.506262	-0.128261	-0.580793
C510	C	1.006262	0.371739	-0.080793
C511	C	0.525758	-0.092991	-0.618348
C512	C	1.025758	0.407009	-0.118348
C513	C	0.576835	-0.089347	-0.625883
C514	C	1.076835	0.410653	-0.125883
C515	C	0.608414	-0.120976	-0.595862
C516	C	1.108414	0.379024	-0.095862
H517	H	0.523406	-0.186000	-0.522971
H518	H	1.023406	0.314000	-0.022971
H519	H	0.468451	-0.130958	-0.575215
H520	H	0.968451	0.369042	-0.075215
H521	H	0.502382	-0.069577	-0.640571
H522	H	1.002382	0.430423	-0.140571
H523	H	0.591270	-0.063237	-0.653685
H524	H	1.091270	0.436763	-0.153685
H525	H	0.646224	-0.118279	-0.601440
H526	H	1.146224	0.381721	-0.101440
H527	H	0.568311	-0.744260	-0.345933
H528	H	1.068311	-0.244260	0.154067
H529	H	0.597136	-1.045192	-0.312552
H530	H	1.097136	-0.545192	0.187448
H531	H	0.568336	-0.829366	-0.345943
H532	H	1.068336	-0.329366	0.154057
H533	H	0.177160	-0.297413	-0.157642
H534	H	0.677160	0.202587	0.342358
C535	C	0.588721	-0.380979	-0.322028
C536	C	1.088721	0.119021	0.177972
C537	C	0.553454	-0.348755	-0.299331
C538	C	1.053454	0.151245	0.200669
C539	C	0.521831	-0.322947	-0.336077
C540	C	1.021831	0.177053	0.163923
C541	C	0.525474	-0.329363	-0.395520
C542	C	1.025474	0.170637	0.104480
C543	C	0.560742	-0.361588	-0.418219
C544	C	1.060742	0.138412	0.081781
C545	C	0.592365	-0.387396	-0.381473
C546	C	1.092365	0.112604	0.118527
H547	H	0.550756	-0.344004	-0.255326
H548	H	1.050756	0.155996	0.244674
H549	H	0.495724	-0.299091	-0.319273
H550	H	0.995724	0.200909	0.180727
H551	H	0.502065	-0.310258	-0.422721
H552	H	1.002065	0.189742	0.077279
H553	H	0.563440	-0.366339	-0.462225
H554	H	1.063440	0.133661	0.037775
H555	H	0.618473	-0.411251	-0.398278
H556	H	1.118473	0.088749	0.101722
C557	C	0.588915	-0.156267	-0.443648
C558	C	1.088915	0.343733	0.056352
C559	C	0.557338	-0.124649	-0.473682
C560	C	1.057338	0.375351	0.026318
C561	C	0.525755	-0.093035	-0.443653
C562	C	1.025755	0.406965	0.056347
C563	C	0.525749	-0.093039	-0.383592
C564	C	1.025749	0.406961	0.116408
C565	C	0.557327	-0.124658	-0.353555
C566	C	1.057327	0.375342	0.146445
C567	C	0.588910	-0.156272	-0.383584
C568	C	1.088910	0.343728	0.116416
H569	H	0.557341	-0.124646	-0.518146
H570	H	1.057341	0.375354	-0.018146
H571	H	0.502379	-0.069629	-0.465889
H572	H	1.002379	0.430371	0.034111
H573	H	0.502369	-0.069636	-0.361363
H574	H	1.002369	0.430364	0.138637
H575	H	0.557324	-0.124661	-0.309091
H576	H	1.057324	0.375339	0.190909
H577	H	0.612287	-0.179678	-0.361348
H578	H	1.112287	0.320322	0.138652
C579	C	0.709528	-0.276886	-1.060658
C580	C	1.209528	0.223114	-0.560658
C581	C	0.705824	-0.327957	-1.053128
C582	C	1.205824	0.172043	-0.553128
C583	C	0.737412	-0.359570	-1.083151
C584	C	1.237412	0.140430	-0.583151
C585	C	0.772704	-0.340113	-1.120703
C586	C	1.272704	0.159887	-0.620703
C587	C	0.776410	-0.289040	-1.128235
C588	C	1.276410	0.210960	-0.628235
C589	C	0.744822	-0.257426	-1.098212
C590	C	1.244822	0.242574	-0.598212
H591	H	0.679697	-0.342363	-1.025328
H592	H	1.179697	0.157637	-0.525328
H593	H	0.734668	-0.397379	-1.077575
H594	H	1.234668	0.102621	-0.577575
H595	H	0.796087	-0.363516	-1.142928
H596	H	1.296087	0.136484	-0.642928
H597	H	0.802536	-0.274634	-1.156035
H598	H	1.302536	0.225366	-0.656035
H599	H	0.747565	-0.219618	-1.103788
H600	H	1.247565	0.280382	-0.603788
H601	H	0.701314	-0.268697	-0.953807
H602	H	1.201314	0.231303	-0.453807
H603	H	0.730002	-0.297476	-0.801673
H604	H	1.230002	0.202524	-0.301673
H605	H	0.596964	-0.472804	-0.312498
H606	H	1.096964	0.027196	0.187502
H607	H	0.036507	-0.135938	-0.346184
H608	H	0.536507	0.364062	0.153816
H609	H	0.701287	-0.268774	-0.451452
H610	H	1.201287	0.231226	0.048548
H611	H	0.177253	-0.135913	-0.346179
H612	H	0.677253	0.364087	0.153821
C613	C	-0.186033	-0.156471	-0.322261
C614	C	0.313967	0.343529	0.177739
C615	C	-0.179561	-0.160207	-0.381690
C616	C	0.320439	0.339793	0.118310
C617	C	-0.205342	-0.128648	-0.418541
C618	C	0.294658	0.371352	0.081459
C619	C	-0.237595	-0.093353	-0.395964
C620	C	0.262405	0.406647	0.104036
C621	C	-0.244068	-0.089616	-0.336532
C622	C	0.255932	0.410384	0.163468
C623	C	-0.218288	-0.121175	-0.299680
C624	C	0.281712	0.378825	0.200320
H625	H	-0.155684	-0.186336	-0.398406
H626	H	0.344316	0.313664	0.101594
H627	H	-0.200550	-0.131415	-0.462537
H628	H	0.299450	0.368585	0.037463
H629	H	-0.256679	-0.069991	-0.423244
H630	H	0.243321	0.430009	0.076756
H631	H	-0.267945	-0.063487	-0.319816
H632	H	0.232055	0.436513	0.180184
H633	H	-0.223080	-0.118408	-0.255685
H634	H	0.276920	0.381592	0.244315
H635	H	0.393062	-0.164557	-0.312664
H636	H	0.893062	0.335443	0.187336
H637	H	0.393004	-0.268680	-0.191117
H638	H	0.893004	0.231320	0.308883
C639	C	0.484812	-0.276855	-0.181538
C640	C	0.984812	0.223145	0.318462
C641	C	0.458984	-0.308421	-0.144699
C642	C	0.958984	0.191579	0.355301
C643	C	0.484763	-0.339983	-0.107848
C644	C	0.984763	0.160017	0.392152
C645	C	0.536371	-0.339978	-0.107837
C646	C	1.036371	0.160022	0.392163
C647	C	0.562202	-0.308411	-0.144677
C648	C	1.062202	0.191589	0.355323
C649	C	0.536423	-0.276850	-0.181528
C650	C	1.036423	0.223150	0.318472
H651	H	0.420778	-0.308426	-0.144706
H652	H	0.920778	0.191574	0.355294
H653	H	0.465641	-0.363350	-0.080577
H654	H	0.965641	0.136650	0.419423
H655	H	0.555454	-0.363342	-0.080558
H656	H	1.055454	0.136658	0.419442
H657	H	0.600408	-0.308407	-0.144670
H658	H	1.100408	0.191593	0.355330
H659	H	0.555545	-0.253482	-0.208800
H660	H	1.055545	0.246518	0.291200
H661	H	0.121510	-0.297433	-0.157645
H662	H	0.621510	0.202567	0.342355
H663	H	0.701244	-0.387669	-0.191260
H664	H	1.201244	0.112331	0.308740
H665	H	-0.179400	-0.268781	-0.191142
H666	H	0.320600	0.231219	0.308858
