data_functionalizedCrystal
_audit_creation_method	'MofGen! by Chris Wilmer'
_symmetry_space_group_name_H-M	'P1'
_symmetry_Int_Tables_number	1
_symmetry_cell_setting	triclinic
loop_
_symmetry_equiv_pos_as_xyz
  x,y,z
_cell_length_a	18.215407
_cell_length_b	19.805404
_cell_length_c	18.215399
_cell_angle_alpha	90.028419
_cell_angle_beta	90.019833
_cell_angle_gamma	90.030041
loop_
_atom_site_label
_atom_site_type_symbol
_atom_site_fract_x
_atom_site_fract_y
_atom_site_fract_z
Zn1	Zn	1.125048	-0.269462	0.416113
Zn2	Zn	1.375048	-0.019462	0.666113
Zn3	Zn	1.625048	0.230538	0.916113
Zn4	Zn	1.875048	0.480538	1.166113
Zn5	Zn	1.124946	-0.382653	0.293046
Zn6	Zn	1.374946	-0.132653	0.543046
Zn7	Zn	1.624946	0.117347	0.793046
Zn8	Zn	1.874946	0.367347	1.043046
Zn9	Zn	1.001980	-0.269484	0.293061
Zn10	Zn	1.251980	-0.019484	0.543061
Zn11	Zn	1.501980	0.230516	0.793061
Zn12	Zn	1.751980	0.480516	1.043061
Zn13	Zn	1.001936	-0.382615	0.416071
Zn14	Zn	1.251936	-0.132615	0.666071
Zn15	Zn	1.501936	0.117385	0.916071
Zn16	Zn	1.751936	0.367385	1.166071
O17	O	1.063478	-0.326054	0.354573
O18	O	1.313478	-0.076054	0.604573
O19	O	1.563478	0.173946	0.854573
O20	O	1.813478	0.423946	1.104573
O21	O	1.228019	-0.284484	0.399800
O22	O	1.478019	-0.034484	0.649800
O23	O	1.728019	0.215516	0.899800
O24	O	1.978019	0.465516	1.149800
O25	O	1.108610	-0.367666	0.190064
O26	O	1.358610	-0.117666	0.440064
O27	O	1.608610	0.132334	0.690064
O28	O	1.858610	0.382334	0.940064
O29	O	1.018367	-0.174765	0.309408
O30	O	1.268367	0.075235	0.559408
O31	O	1.518367	0.325235	0.809408
O32	O	1.768367	0.575235	1.059408
O33	O	1.227944	-0.367644	0.309383
O34	O	1.477944	-0.117644	0.559383
O35	O	1.727944	0.132356	0.809383
O36	O	1.977944	0.382356	1.059383
O37	O	1.108784	-0.174748	0.399814
O38	O	1.358784	0.075252	0.649814
O39	O	1.608784	0.325252	0.899814
O40	O	1.858784	0.575252	1.149814
O41	O	1.018268	-0.284521	0.190075
O42	O	1.268268	-0.034521	0.440075
O43	O	1.518268	0.215479	0.690075
O44	O	1.768268	0.465479	0.940075
O45	O	0.898990	-0.284485	0.309367
O46	O	1.148990	-0.034485	0.559367
O47	O	1.398990	0.215515	0.809367
O48	O	1.648990	0.465515	1.059367
O49	O	1.018291	-0.367580	0.519061
O50	O	1.268291	-0.117580	0.769061
O51	O	1.518291	0.132420	1.019061
O52	O	1.768291	0.382420	1.269061
O53	O	0.898958	-0.367602	0.399742
O54	O	1.148958	-0.117602	0.649742
O55	O	1.398958	0.132398	0.899742
O56	O	1.648958	0.382398	1.149742
O57	O	1.108741	-0.284447	0.519092
O58	O	1.358741	-0.034447	0.769092
O59	O	1.608741	0.215553	1.019092
O60	O	1.858741	0.465553	1.269092
O61	O	1.108568	-0.477365	0.309342
O62	O	1.358568	-0.227365	0.559342
O63	O	1.608568	0.022635	0.809342
O64	O	1.858568	0.272635	1.059342
O65	O	1.018193	-0.477337	0.399728
O66	O	1.268193	-0.227337	0.649728
O67	O	1.518193	0.022663	0.899728
O68	O	1.768193	0.272663	1.149728
C69	C	0.872271	-0.326042	0.354552
C70	C	1.122271	-0.076042	0.604552
C71	C	1.372271	0.173958	0.854552
C72	C	1.622271	0.423958	1.104552
C73	C	0.790473	-0.326053	0.354560
C74	C	1.040473	-0.076053	0.604560
C75	C	1.290473	0.173947	0.854560
C76	C	1.540473	0.423947	1.104560
C77	C	0.602281	-0.369400	0.401559
C78	C	0.852281	-0.119400	0.651559
C79	C	1.102281	0.130600	0.901559
C80	C	1.352281	0.380600	1.151559
C81	C	0.525422	-0.369403	0.401569
C82	C	0.775422	-0.119403	0.651569
C83	C	1.025422	0.130597	0.901569
C84	C	1.275422	0.380597	1.151569
C85	C	0.525426	-0.282719	0.307602
C86	C	0.775426	-0.032719	0.557602
C87	C	1.025426	0.217281	0.807602
C88	C	1.275426	0.467281	1.057602
C89	C	0.602284	-0.282714	0.307597
C90	C	0.852284	-0.032714	0.557597
C91	C	1.102284	0.217286	0.807597
C92	C	1.352284	0.467286	1.057597
C93	C	0.640709	-0.326059	0.354575
C94	C	0.890709	-0.076059	0.604575
C95	C	1.140709	0.173941	0.854575
C96	C	1.390709	0.423941	1.104575
C97	C	0.486993	-0.326066	0.354589
C98	C	0.736993	-0.076066	0.604589
C99	C	0.986993	0.173934	0.854589
C100	C	1.236993	0.423934	1.104589
C101	C	0.403659	-0.326068	0.354599
C102	C	0.653659	-0.076068	0.604599
C103	C	0.903659	0.173932	0.854599
C104	C	1.153659	0.423932	1.104599
C105	C	0.724048	-0.326056	0.354566
C106	C	0.974048	-0.076056	0.604566
C107	C	1.224048	0.173944	0.854566
C108	C	1.474048	0.423944	1.104566
C109	C	1.063384	-0.501910	0.354545
C110	C	1.313384	-0.251910	0.604545
C111	C	1.563384	-0.001910	0.854545
C112	C	1.813384	0.248090	1.104545
C113	C	1.063412	-0.577142	0.354557
C114	C	1.313412	-0.327142	0.604557
C115	C	1.563412	-0.077142	0.854557
C116	C	1.813412	0.172858	1.104557
C117	C	1.110717	-1.038925	0.307612
C118	C	1.360717	-0.788925	0.557612
C119	C	1.610717	-0.538925	0.807612
C120	C	1.860717	-0.288925	1.057612
C121	C	1.110682	-0.968236	0.307598
C122	C	1.360682	-0.718236	0.557598
C123	C	1.610682	-0.468236	0.807598
C124	C	1.860682	-0.218236	1.057598
C125	C	1.063574	-0.932903	0.354612
C126	C	1.313574	-0.682903	0.604612
C127	C	1.563574	-0.432903	0.854612
C128	C	1.813574	-0.182903	1.104612
C129	C	1.016492	-0.968263	0.401638
C130	C	1.266492	-0.718263	0.651638
C131	C	1.516492	-0.468263	0.901638
C132	C	1.766492	-0.218263	1.151638
C133	C	1.016524	-1.038950	0.401648
C134	C	1.266524	-0.788950	0.651648
C135	C	1.516524	-0.538950	0.901648
C136	C	1.766524	-0.288950	1.151648
C137	C	1.016364	-0.683189	0.401598
C138	C	1.266364	-0.433189	0.651598
C139	C	1.516364	-0.183189	0.901598
C140	C	1.766364	0.066811	1.151598
C141	C	1.016338	-0.612497	0.401586
C142	C	1.266338	-0.362497	0.651586
C143	C	1.516338	-0.112497	0.901586
C144	C	1.766338	0.137503	1.151586
C145	C	1.110523	-0.612476	0.307547
C146	C	1.360523	-0.362476	0.557547
C147	C	1.610523	-0.112476	0.807547
C148	C	1.860523	0.137524	1.057547
C149	C	1.110554	-0.683163	0.307557
C150	C	1.360554	-0.433163	0.557557
C151	C	1.610554	-0.183163	0.807557
C152	C	1.860554	0.066837	1.057557
C153	C	1.063470	-0.718516	0.354581
C154	C	1.313470	-0.468516	0.604581
C155	C	1.563470	-0.218516	0.854581
C156	C	1.813470	0.031484	1.104581
C157	C	1.063507	-0.795164	0.354595
C158	C	1.313507	-0.545164	0.604595
C159	C	1.563507	-0.295164	0.854595
C160	C	1.813507	-0.045164	1.104595
C161	C	1.063540	-0.856256	0.354602
C162	C	1.313540	-0.606256	0.604602
C163	C	1.563540	-0.356256	0.854602
C164	C	1.813540	-0.106256	1.104602
C165	C	1.255431	-0.326066	0.354594
C166	C	1.505431	-0.076066	0.604594
C167	C	1.755431	0.173934	0.854594
C168	C	2.005431	0.423934	1.104594
C169	C	1.337229	-0.326071	0.354604
C170	C	1.587229	-0.076071	0.604604
C171	C	1.837229	0.173929	0.854604
C172	C	2.087229	0.423929	1.104604
C173	C	1.063523	-0.326007	0.546526
C174	C	1.313523	-0.076007	0.796526
C175	C	1.563523	0.173993	1.046526
C176	C	1.813523	0.423993	1.296526
C177	C	1.063542	-0.325987	0.628325
C178	C	1.313542	-0.075987	0.878325
C179	C	1.563542	0.174013	1.128325
C180	C	1.813542	0.424013	1.378325
C181	C	1.063592	-0.149511	0.354617
C182	C	1.313592	0.100489	0.604617
C183	C	1.563592	0.350489	0.854617
C184	C	1.813592	0.600489	1.104617
C185	C	1.063640	-0.074279	0.354636
C186	C	1.313640	0.175721	0.604636
C187	C	1.563640	0.425721	0.854636
C188	C	1.813640	0.675721	1.104636
C189	C	1.063475	-0.326051	0.163367
C190	C	1.313475	-0.076051	0.413367
C191	C	1.563475	0.173949	0.663367
C192	C	1.813475	0.423949	0.913367
C193	C	1.063599	-0.325880	0.081568
C194	C	1.313599	-0.075880	0.331568
C195	C	1.563599	0.174120	0.581568
C196	C	1.813599	0.424120	0.831568
C197	C	1.110656	-0.282659	0.816536
C198	C	1.360656	-0.032659	1.066536
C199	C	1.610656	0.217341	1.316536
C200	C	1.860656	0.467341	1.566536
C201	C	1.110664	-0.282639	0.893395
C202	C	1.360664	-0.032639	1.143395
C203	C	1.610664	0.217361	1.393395
C204	C	1.860664	0.467361	1.643395
C205	C	1.016480	-0.369210	0.893351
C206	C	1.266480	-0.119210	1.143351
C207	C	1.516480	0.130790	1.393351
C208	C	1.766480	0.380790	1.643351
C209	C	1.016468	-0.369226	0.816494
C210	C	1.266468	-0.119226	1.066494
C211	C	1.516468	0.130774	1.316494
C212	C	1.766468	0.380774	1.566494
C213	C	1.063560	-0.325952	0.778088
C214	C	1.313560	-0.075952	1.028088
C215	C	1.563560	0.174048	1.278088
C216	C	1.813560	0.424048	1.528088
C217	C	1.063581	-0.325916	0.931805
C218	C	1.313581	-0.075916	1.181805
C219	C	1.563581	0.174084	1.431805
C220	C	1.813581	0.424084	1.681805
C221	C	1.063590	-0.325895	1.015138
C222	C	1.313590	-0.075895	1.265138
C223	C	1.563590	0.174105	1.515138
C224	C	1.813590	0.424105	1.765138
C225	C	1.063550	-0.325972	0.694749
C226	C	1.313550	-0.075972	0.944749
C227	C	1.563550	0.174028	1.194749
C228	C	1.813550	0.424028	1.444749
H229	H	1.149081	-1.067687	0.269331
H230	H	1.399081	-0.817687	0.519331
H231	H	1.649081	-0.567687	0.769331
H232	H	1.899081	-0.317687	1.019331
H233	H	0.633564	-0.404693	0.439813
H234	H	0.883564	-0.154693	0.689813
H235	H	1.133564	0.095307	0.939813
H236	H	1.383564	0.345307	1.189813
Cl237	Cl	1.169854	-0.228254	0.768258
Cl238	Cl	1.419854	0.021746	1.018258
Cl239	Cl	1.669854	0.271746	1.268258
Cl240	Cl	1.919854	0.521746	1.518258
H241	H	0.978140	-0.404444	0.924630
H242	H	1.228140	-0.154444	1.174630
H243	H	1.478140	0.095556	1.424630
H244	H	1.728140	0.345556	1.674630
H245	H	1.148859	-0.583684	0.269256
H246	H	1.398859	-0.333684	0.519256
H247	H	1.648859	-0.083684	0.769256
H248	H	1.898859	0.166316	1.019256
Cl249	Cl	1.169880	-0.228218	0.941726
Cl250	Cl	1.419880	0.021782	1.191726
Cl251	Cl	1.669880	0.271782	1.441726
Cl252	Cl	1.919880	0.521782	1.691726
H253	H	0.978111	-0.404480	0.785189
H254	H	1.228111	-0.154480	1.035189
H255	H	1.478111	0.095520	1.285189
H256	H	1.728111	0.345520	1.535189
Cl257	Cl	1.169875	-0.923793	0.248487
Cl258	Cl	1.419875	-0.673793	0.498487
Cl259	Cl	1.669875	-0.423793	0.748487
Cl260	Cl	1.919875	-0.173793	0.998487
Cl261	Cl	0.650597	-0.228218	0.248531
Cl262	Cl	0.900597	0.021782	0.498531
Cl263	Cl	1.150597	0.271782	0.748531
Cl264	Cl	1.400597	0.521782	0.998531
H265	H	1.148917	-0.711927	0.269276
H266	H	1.398917	-0.461927	0.519276
H267	H	1.648917	-0.211927	0.769276
H268	H	1.898917	0.038073	1.019276
H269	H	0.494137	-0.404695	0.439829
H270	H	0.744137	-0.154695	0.689829
H271	H	0.994137	0.095305	0.939829
H272	H	1.244137	0.345305	1.189829
H273	H	0.977974	-0.583731	0.439872
H274	H	1.227974	-0.333731	0.689872
H275	H	1.477974	-0.083731	0.939872
H276	H	1.727974	0.166269	1.189872
H277	H	0.978020	-0.711965	0.439882
H278	H	1.228020	-0.461965	0.689882
H279	H	1.478020	-0.211965	0.939882
H280	H	1.728020	0.038035	1.189882
Cl281	Cl	0.477115	-0.228234	0.248547
Cl282	Cl	0.727115	0.021766	0.498547
Cl283	Cl	0.977115	0.271766	0.748547
Cl284	Cl	1.227115	0.521766	0.998547
H285	H	0.978193	-1.067734	0.439944
H286	H	1.228193	-0.817734	0.689944
H287	H	1.478193	-0.567734	0.939944
H288	H	1.728193	-0.317734	1.189944
Cl289	Cl	0.957270	-0.923844	0.460742
Cl290	Cl	1.207270	-0.673844	0.710742
Cl291	Cl	1.457270	-0.423844	0.960742
Cl292	Cl	1.707270	-0.173844	1.210742
