data_functionalizedCrystal
_audit_creation_method	'MofGen! by Chris Wilmer'
_symmetry_space_group_name_H-M	'P1'
_symmetry_Int_Tables_number	1
_symmetry_cell_setting	triclinic
loop_
_symmetry_equiv_pos_as_xyz
  x,y,z
_cell_length_a	27.732048
_cell_length_b	14.044191
_cell_length_c	13.101039
_cell_angle_alpha	86.337551
_cell_angle_beta	93.329410
_cell_angle_gamma	87.917216
loop_
_atom_site_label
_atom_site_type_symbol
_atom_site_fract_x
_atom_site_fract_y
_atom_site_fract_z
O1	O	0.114035	1.261251	-0.085186
O2	O	0.109828	0.985344	-0.085198
O3	O	0.041938	1.131865	-0.085172
O4	O	0.181926	1.114729	-0.085211
O5	O	0.046818	1.121352	0.085256
O6	O	0.114708	0.974831	0.085230
O7	O	0.118915	1.250738	0.085242
Zn8	Zn	0.117586	1.111115	0.112295
Zn9	Zn	0.111157	1.124966	-0.112251
O10	O	0.186805	1.104216	0.085216
C11	C	0.110428	0.944800	0.000015
C12	C	0.104940	0.839654	0.000011
C13	C	0.133831	0.588945	0.000013
C14	C	0.094914	0.647143	0.000023
C15	C	0.100494	0.754266	0.000016
C16	C	0.128252	0.481811	0.000020
C17	C	0.026354	1.126249	0.000045
C18	C	-0.027352	1.125165	0.000053
C19	C	-0.362424	1.204934	0.000004
C20	C	-0.564272	1.200915	-0.000010
O21	O	-0.592105	1.273858	-0.000052
N22	N	-0.587475	1.114033	-0.000013
C23	C	-0.560212	1.028150	-0.000019
O24	O	-0.584578	0.954160	-0.000032
C25	C	-0.358364	1.032170	-0.000012
C26	C	-0.335164	1.119057	0.000001
C27	C	-0.339224	1.291814	0.000016
C28	C	-0.288764	1.292817	0.000026
C29	C	-0.261505	1.206940	0.000023
C30	C	-0.284705	1.120060	0.000011
C31	C	-0.331102	0.946288	-0.000025
C32	C	-0.280637	0.947301	-0.000026
C33	C	-0.257438	1.034188	-0.000013
C34	C	-0.206986	1.035187	0.000017
N35	N	-0.183784	1.122069	0.000020
C36	C	-0.211043	1.207946	0.000023
C37	C	-0.666185	1.026046	-0.000021
C38	C	-0.716646	1.025040	-0.000021
C39	C	-0.720704	1.197806	-0.000014
C40	C	-0.670241	1.198810	-0.000006
C41	C	-0.642982	1.112928	-0.000018
C42	C	-0.105075	1.210046	0.000043
C43	C	-0.054611	1.211042	0.000056
C44	C	-0.050558	1.038277	0.000044
C45	C	-0.101018	1.037280	0.000036
C46	C	-0.128275	1.123173	0.000032
O47	O	-0.179123	0.962284	0.000047
O48	O	-0.186668	1.281926	0.000013
C49	C	-0.412883	1.203930	-0.000005
C50	C	-0.436083	1.117050	-0.000017
C51	C	-0.408824	1.031174	-0.000020
C52	C	-0.486545	1.116045	-0.000017
C53	C	-0.513804	1.201922	-0.000014
C54	C	-0.490602	1.288804	-0.000011
C55	C	-0.440142	1.289807	-0.000002
C56	C	-0.432026	0.944292	-0.000023
C57	C	-0.482485	0.943295	-0.000031
C58	C	-0.509745	1.029172	-0.000028
C59	C	0.202389	1.109833	-0.000003
C60	C	0.256094	1.110917	-0.000018
C61	C	0.118315	1.291282	0.000028
C62	C	0.123803	1.396428	0.000025
N63	N	0.121974	1.101669	0.265542
N64	N	0.106765	1.134420	-0.265498
C65	C	0.127949	1.088817	0.474583
C66	C	0.100793	1.147269	0.525469
C67	C	0.104117	1.140118	0.641786
C68	C	0.124625	1.095967	0.358255
H69	H	0.057403	0.616521	-0.000039
Cl70	Cl	-0.641081	1.308043	0.000009
Cl71	Cl	0.061243	1.233181	0.457862
Cl72	Cl	0.191739	0.636228	-0.000016
H73	H	0.153693	1.033409	0.518370
Cl74	Cl	-0.025449	1.320279	0.000071
Cl75	Cl	-0.631924	0.918068	-0.000034
Cl76	Cl	-0.139334	1.318027	0.000040
Cl77	Cl	-0.259608	1.402054	0.000013
H78	H	-0.361413	1.361749	0.000015
H79	H	-0.742907	1.267730	-0.000011
Cl80	Cl	-0.745805	0.915805	-0.000018
Cl81	Cl	-0.246373	0.839328	-0.000041
Cl82	Cl	-0.360255	0.837052	-0.000049
H83	H	-0.028354	0.968358	0.000045
Cl84	Cl	-0.130183	0.928049	0.000039
Cl85	Cl	-0.410985	1.399043	0.000006
H86	H	-0.512805	1.358727	-0.000004
Cl87	Cl	-0.511644	0.834054	-0.000043
H88	H	-0.409836	0.874359	-0.000027
