data_functionalizedCrystal
_audit_creation_method	'MofGen! by Chris Wilmer'
_symmetry_space_group_name_H-M	'P1'
_symmetry_Int_Tables_number	1
_symmetry_cell_setting	triclinic
loop_
_symmetry_equiv_pos_as_xyz
  x,y,z
_cell_length_a	10.540539
_cell_length_b	10.723023
_cell_length_c	9.198806
_cell_angle_alpha	90.000161
_cell_angle_beta	89.995305
_cell_angle_gamma	84.496520
loop_
_atom_site_label
_atom_site_type_symbol
_atom_site_fract_x
_atom_site_fract_y
_atom_site_fract_z
O1	O	0.178049	1.657269	-0.120870
O2	O	0.195092	1.294125	-0.120876
O3	O	0.001860	1.483982	-0.120871
O4	O	0.371281	1.467413	-0.120875
O5	O	0.001844	1.483982	0.120914
O6	O	0.195077	1.294125	0.120909
O7	O	0.178033	1.657269	0.120915
Cu8	Cu	0.186554	1.475697	0.142989
Cu9	Cu	0.186572	1.475698	-0.142950
O10	O	0.371266	1.467412	0.120910
C11	C	0.193844	1.247625	0.000016
C12	C	0.190134	1.109069	0.000014
C13	C	0.188472	1.047296	0.125265
C14	C	0.184637	0.904091	0.125265
C15	C	-0.045450	1.482739	0.000019
C16	C	-0.186397	1.479022	0.000011
C17	C	-0.369750	1.336564	-0.000534
C18	C	-0.223134	1.340333	0.000011
C19	C	-0.248098	1.545765	0.138083
C20	C	-0.394640	1.541032	0.138199
C21	C	-0.395142	1.543853	-0.136755
C22	C	-0.248160	1.545130	-0.138581
C23	C	0.418576	1.468655	0.000017
C24	C	0.559522	1.472373	0.000015
C25	C	0.179281	1.703769	0.000020
C26	C	0.182991	1.842326	0.000013
N27	N	0.186575	1.475699	-0.344064
C28	C	0.105261	1.555588	-0.416259
C29	C	0.105242	1.555592	-0.583671
N30	N	0.186540	1.475705	0.344103
H31	H	0.184428	0.895440	-0.107225
F32	F	-0.167400	1.271689	-0.129357
F33	F	-0.218951	1.678890	0.144801
H34	H	0.183215	0.850966	0.232497
H35	H	-0.442660	1.640775	0.144465
H36	H	0.188715	1.055937	-0.107217
F37	F	-0.192398	1.485166	0.272384
F38	F	0.277559	1.386307	-0.425266
F39	F	-0.436330	1.485175	-0.273542
H40	H	0.256155	1.407301	-0.593822
F41	F	-0.194120	1.481799	-0.272108
F42	F	0.014289	1.644993	-0.335059
H43	H	-0.398315	1.281779	-0.099548
F44	F	-0.456938	1.674787	-0.137971
H45	H	-0.399935	1.282001	0.097924
F46	F	-0.168522	1.271203	0.129590
F47	F	-0.431477	1.476553	0.273099
F48	F	-0.216563	1.677294	-0.149486
H49	H	0.189881	1.100429	0.232496
H50	H	0.035621	1.623985	-0.645756
