data_functionalizedCrystal
_audit_creation_method	'MofGen! by Chris Wilmer'
_symmetry_space_group_name_H-M	'P1'
_symmetry_Int_Tables_number	1
_symmetry_cell_setting	triclinic
loop_
_symmetry_equiv_pos_as_xyz
  x,y,z
_cell_length_a	19.077105
_cell_length_b	12.645330
_cell_length_c	19.077174
_cell_angle_alpha	92.276947
_cell_angle_beta	85.483752
_cell_angle_gamma	87.714233
loop_
_atom_site_label
_atom_site_type_symbol
_atom_site_fract_x
_atom_site_fract_y
_atom_site_fract_z
Zn1	Zn	1.093748	-0.515087	-0.441871
Zn2	Zn	1.088947	-0.684943	-0.323992
Zn3	Zn	0.971132	-0.500268	-0.319268
Zn4	Zn	0.975841	-0.684874	-0.437110
O5	O	1.032417	-0.596293	-0.380560
O6	O	1.191762	-0.543849	-0.430204
O7	O	1.069339	-0.654273	-0.224716
O8	O	0.987436	-0.353889	-0.335547
O9	O	1.188235	-0.668642	-0.343599
O10	O	1.077521	-0.364777	-0.425623
O11	O	0.982780	-0.518592	-0.221244
O12	O	0.873106	-0.518525	-0.330930
O13	O	0.995462	-0.668524	-0.536392
O14	O	0.876566	-0.654155	-0.417509
O15	O	1.082087	-0.543782	-0.539890
O16	O	1.073905	-0.833278	-0.338983
O17	O	0.990806	-0.833227	-0.422090
C18	C	0.849257	-0.584725	-0.373190
C19	C	0.770901	-0.579803	-0.370054
C20	C	0.735906	-0.648203	-0.413587
C21	C	0.662282	-0.643565	-0.410643
C22	C	0.623654	-0.570530	-0.364164
C23	C	0.658655	-0.502122	-0.320629
C24	C	0.732277	-0.506757	-0.323577
C25	C	0.403272	-0.549082	-0.350526
C26	C	0.329644	-0.544455	-0.347580
C27	C	0.333277	-0.685897	-0.437596
C28	C	0.406900	-0.690529	-0.440536
C29	C	0.441894	-0.622118	-0.397004
N30	N	0.548399	-0.565789	-0.361152
N31	N	0.517148	-0.626854	-0.400020
C32	C	1.032365	-0.871719	-0.380548
C33	C	1.032408	-0.989553	-0.380570
C34	C	0.980362	-1.157153	-0.433029
C35	C	0.980078	-1.034565	-0.432842
C36	C	1.009319	-1.028198	-0.305469
C37	C	1.009001	-1.150797	-0.305787
C38	C	1.107851	-1.162550	-0.402621
C39	C	1.107459	-1.040017	-0.404227
C40	C	1.216292	-0.607907	-0.387960
C41	C	1.294649	-0.612856	-0.391113
C42	C	1.039835	-0.607798	-0.564435
C43	C	1.042997	-0.612701	-0.642791
C44	C	1.032489	-0.319794	-0.380589
C45	C	1.032519	-0.201966	-0.380601
C46	C	0.999417	-0.544365	-0.677795
C47	C	1.002385	-0.548980	-0.751419
C48	C	1.048936	-0.621928	-0.790038
C49	C	1.092517	-0.690272	-0.755029
C50	C	1.089545	-0.685661	-0.681406
C51	C	1.062653	-0.643298	-1.010420
C52	C	1.065622	-0.647902	-1.084048
C53	C	0.975490	-0.506611	-1.080434
C54	C	0.972525	-0.502002	-1.006810
C55	C	1.016103	-0.570350	-0.971807
N56	N	1.051972	-0.626645	-0.865294
N57	N	1.013063	-0.565637	-0.896553
C58	C	1.025068	-0.584758	-0.197403
C59	C	1.022043	-0.579565	-0.119053
H60	H	0.767351	-0.707679	-0.451433
F61	F	0.440505	-0.476270	-0.304197
F62	F	1.109037	-0.716035	-0.973177
F63	F	0.625041	-0.716366	-0.456977
F64	F	0.448005	-0.768264	-0.490005
F65	F	0.296028	-0.758701	-0.483920
F66	F	0.617542	-0.424387	-0.271166
F67	F	1.130150	-1.007669	-0.476489
F68	F	1.115176	-0.725539	-1.125148
F69	F	0.936908	-1.182483	-0.281859
F70	F	0.937951	-0.982397	-0.281189
H71	H	1.128332	-1.197906	-0.456612
F72	F	0.288535	-0.466724	-0.298103
H73	H	1.045180	-1.180190	-0.265231
H74	H	0.760769	-0.451053	-0.288132
H75	H	0.961515	-0.484957	-0.646357
F76	F	1.142056	-0.767915	-0.796131
H77	H	0.994869	-1.008675	-0.488436
H78	H	1.125037	-0.741300	-0.652907
H79	H	1.146746	-1.191585	-0.364472
F80	F	0.999550	-1.201177	-0.505925
F81	F	0.955976	-0.476284	-0.788669
H82	H	0.934616	-0.442603	-0.975371
F83	F	0.907906	-1.192011	-0.413893
H84	H	0.924290	-1.001052	-0.418018
F85	F	1.057225	-0.989805	-0.252841
F86	F	0.929112	-0.433878	-1.117692
H87	H	1.148603	-1.009730	-0.369060
