data_functionalizedCrystal
_audit_creation_method	'MofGen! by Chris Wilmer'
_symmetry_space_group_name_H-M	'P1'
_symmetry_Int_Tables_number	1
_symmetry_cell_setting	triclinic
loop_
_symmetry_equiv_pos_as_xyz
  x,y,z
_cell_length_a	11.026607
_cell_length_b	11.026660
_cell_length_c	7.088929
_cell_angle_alpha	97.576958
_cell_angle_beta	97.591026
_cell_angle_gamma	71.414574
loop_
_atom_site_label
_atom_site_type_symbol
_atom_site_fract_x
_atom_site_fract_y
_atom_site_fract_z
O1	O	-0.543846	1.716500	-0.158976
O2	O	-0.483087	1.349923	-0.158980
O3	O	-0.330177	1.502830	-0.158976
O4	O	-0.696756	1.563593	-0.158980
O5	O	-0.309683	1.523251	0.159000
O6	O	-0.462593	1.370344	0.158996
O7	O	-0.523352	1.736921	0.158999
Cu8	Cu	-0.491101	1.555498	0.188031
Cu9	Cu	-0.515338	1.531347	-0.188012
O10	O	-0.676262	1.584014	0.158995
C11	C	-0.461631	1.312474	0.000008
C12	C	-0.428215	1.170461	0.000006
C13	C	-0.485957	0.970035	-0.000000
C14	C	-0.520496	1.116813	0.000003
C15	C	-0.734169	1.585013	0.000007
C16	C	-0.876183	1.618430	0.000005
C17	C	-0.929833	1.526161	0.000003
C18	C	-1.076611	1.560696	0.000000
C19	C	-0.272270	1.501831	0.000009
C20	C	-0.130258	1.468413	-0.000002
C21	C	-0.544809	1.774370	0.000008
C22	C	-0.578225	1.916382	-0.000003
N23	N	-0.474056	1.572493	0.452520
N24	N	-0.532375	1.514359	-0.452500
H25	H	-0.381392	0.907307	0.000029
H26	H	-0.867102	1.421598	-0.000008
H27	H	-0.413629	1.632759	0.534177
H28	H	-0.938919	1.722987	-0.000064
O29	O	-1.151616	1.685388	0.000082
C30	C	-1.281471	1.692110	0.000027
H31	H	-1.286946	1.603294	0.060225
H32	H	-1.332820	1.781951	0.092340
H33	H	-1.329651	1.696520	-0.152525
H34	H	-1.067532	1.363843	-0.000011
H35	H	-0.625066	1.179539	0.000014
H36	H	-0.323653	1.107729	-0.000120
O37	O	-0.702976	0.991234	-0.000351
C38	C	-0.738392	1.058473	-0.165011
H39	H	-0.672377	1.005022	-0.280106
H40	H	-0.842077	1.065555	-0.220301
H41	H	-0.729362	1.159210	-0.127774
O42	O	-0.604575	1.442646	0.449898
C43	C	-0.705481	1.520779	0.334130
H44	H	-0.678329	1.607430	0.304314
H45	H	-0.723073	1.463035	0.193303
H46	H	-0.796636	1.555051	0.411157
