data_functionalizedCrystal
_audit_creation_method	'MofGen! by Chris Wilmer'
_symmetry_space_group_name_H-M	'P1'
_symmetry_Int_Tables_number	1
_symmetry_cell_setting	triclinic
loop_
_symmetry_equiv_pos_as_xyz
  x,y,z
_cell_length_a	17.699083
_cell_length_b	10.654551
_cell_length_c	16.176319
_cell_angle_alpha	89.994994
_cell_angle_beta	89.998611
_cell_angle_gamma	83.884222
loop_
_atom_site_label
_atom_site_type_symbol
_atom_site_fract_x
_atom_site_fract_y
_atom_site_fract_z
O1	O	1.005089	0.158809	-0.068627
O2	O	1.505089	0.658809	0.431373
O3	O	0.784842	0.179470	-0.068654
O4	O	1.284842	0.679470	0.431346
O5	O	0.900029	-0.013688	-0.068638
O6	O	1.400029	0.486312	0.431362
O7	O	0.889902	0.351967	-0.068643
O8	O	1.389902	0.851967	0.431357
O9	O	0.900013	-0.013701	0.068855
O10	O	1.400013	0.486299	0.568855
O11	O	0.784826	0.179458	0.068839
O12	O	1.284826	0.679458	0.568839
O13	O	1.005073	0.158797	0.068866
O14	O	1.505073	0.658797	0.568866
Cu15	Cu	0.894948	0.169126	0.081407
Cu16	Cu	1.394948	0.669126	0.581407
Cu17	Cu	0.894967	0.169141	-0.081195
Cu18	Cu	1.394967	0.669141	0.418805
O19	O	0.889886	0.351955	0.068850
O20	O	1.389886	0.851955	0.568850
C21	C	0.756632	0.178724	0.000089
C22	C	1.256632	0.678724	0.500089
C23	C	0.672600	0.176503	0.000079
C24	C	1.172600	0.676503	0.500079
C25	C	0.624700	0.289883	0.000078
C26	C	1.124700	0.789883	0.500078
C27	C	0.545743	0.287788	0.000088
C28	C	1.045743	0.787788	0.500088
C29	C	0.514688	0.172313	0.000094
C30	C	1.014688	0.672313	0.500094
C31	C	0.562594	0.058924	0.000098
C32	C	1.062594	0.558924	0.500098
C33	C	0.641549	0.061020	0.000093
C34	C	1.141549	0.561020	0.500093
C35	C	0.244177	0.050470	0.000119
C36	C	0.744177	0.550470	0.500119
C37	C	0.165216	0.048383	0.000121
C38	C	0.665216	0.548383	0.500121
C39	C	0.148372	0.277238	0.000114
C40	C	0.648372	0.777238	0.500114
C41	C	0.227327	0.279334	0.000109
C42	C	0.727327	0.779334	0.500109
C43	C	0.275226	0.165946	0.000117
C44	C	0.775226	0.665946	0.500117
C45	C	0.360839	0.168218	0.000107
C46	C	0.860839	0.668218	0.500107
C47	C	0.429076	0.170039	0.000099
C48	C	0.929076	0.670039	0.500099
C49	C	0.899277	-0.060479	0.000107
C50	C	1.399277	0.439521	0.500107
C51	C	0.897052	-0.199884	0.000103
C52	C	1.397052	0.300116	0.500103
C53	C	0.896016	-0.265362	-0.074846
C54	C	1.396016	0.234638	0.425154
C55	C	0.893919	-0.396346	-0.074847
C56	C	1.393919	0.103654	0.425153
C57	C	0.893896	-0.396361	0.075056
C58	C	1.393896	0.103639	0.575056
C59	C	0.895988	-0.265379	0.075056
C60	C	1.395988	0.234621	0.575056
C61	C	0.846809	-0.565586	-0.164897
C62	C	1.346809	-0.065586	0.335103
C63	C	0.845787	-0.631072	-0.239850
C64	C	1.345787	-0.131072	0.260150
C65	C	0.890746	-0.598312	-0.306017
C66	C	1.390746	-0.098312	0.193983
C67	C	0.936747	-0.500073	-0.297235
C68	C	1.436747	-0.000073	0.202765
C69	C	0.937776	-0.434595	-0.222281
C70	C	1.437776	0.065405	0.277719
C71	C	0.892799	-0.467348	-0.156117
C72	C	1.392799	0.032652	0.343883
C73	C	0.943104	-0.096138	0.165102
C74	C	1.443104	0.403862	0.665102
C75	C	0.944139	-0.030659	0.240056
C76	C	1.444139	0.469341	0.740056
C77	C	0.899184	-0.063417	0.306230
C78	C	1.399184	0.436583	0.806230
C79	C	0.853195	-0.161663	0.297456
C80	C	1.353195	0.338337	0.797456
C81	C	0.852160	-0.227143	0.222502
C82	C	1.352160	0.272857	0.722502
C83	C	0.897114	-0.194375	0.156327
C84	C	1.397114	0.305625	0.656327
C85	C	1.033283	0.159543	0.000121
C86	C	1.533283	0.659543	0.500121
C87	C	1.117315	0.161764	0.000126
C88	C	1.617315	0.661764	0.500126
C89	C	0.890638	0.398746	0.000103
C90	C	1.390638	0.898746	0.500103
C91	C	0.892863	0.538150	0.000102
C92	C	1.392863	1.038150	0.500102
N93	N	0.894940	0.169115	0.195772
N94	N	1.394940	0.669115	0.695772
N95	N	0.894981	0.169142	-0.195560
N96	N	1.394981	0.669142	0.304440
C97	C	0.945960	0.083619	0.239043
C98	C	1.445960	0.583619	0.739043
C99	C	0.945964	0.083618	0.325590
C100	C	1.445964	0.583618	0.825590
C101	C	0.894951	0.169119	0.368864
C102	C	1.394951	0.669119	0.868864
C103	C	0.843925	0.254619	0.325587
C104	C	1.343925	0.754619	0.825587
C105	C	0.843918	0.254614	0.239042
C106	C	1.343918	0.754614	0.739042
C107	C	0.843951	0.254643	0.674616
C108	C	1.343951	0.754643	1.174616
C109	C	0.843963	0.254644	0.761167
C110	C	1.343963	0.754644	1.261167
C111	C	0.945997	0.083647	0.761164
C112	C	1.445997	0.583647	1.261164
C113	C	0.945990	0.083642	0.674618
C114	C	1.445990	0.583642	1.174618
C115	C	0.894962	0.169136	0.631349
C116	C	1.394962	0.669136	1.131349
C117	C	0.894958	0.169135	0.537505
C118	C	1.394958	0.669135	1.037505
C119	C	0.894958	0.169128	0.462707
C120	C	1.394958	0.669128	0.962707
H121	H	0.649979	0.383916	0.000072
H122	H	1.149979	0.883916	0.500072
H123	H	0.802403	0.324258	0.639392
H124	H	1.302403	0.824258	1.139392
H125	H	0.252607	0.373366	0.000100
H126	H	0.752607	0.873366	0.500100
Br127	Br	0.123070	-0.108345	0.000127
Br128	Br	0.623070	0.391655	0.500127
Br129	Br	1.015204	-0.032418	0.384318
Br130	Br	1.515204	0.467582	0.884318
H131	H	0.537303	-0.035098	0.000115
H132	H	1.037303	0.464902	0.500115
H133	H	0.109362	0.369564	0.000112
H134	H	0.609362	0.869564	0.500112
Br135	Br	1.015229	-0.032392	0.615891
Br136	Br	1.515229	0.467608	1.115891
H137	H	0.506746	0.380114	0.000086
H138	H	1.006746	0.880114	0.500086
Br139	Br	0.774685	0.370651	0.384313
Br140	Br	1.274685	0.870651	0.884313
Br141	Br	0.789750	-0.360486	0.210595
Br142	Br	1.289750	0.139514	0.710595
H143	H	0.973362	-0.473419	-0.351114
H144	H	1.473362	0.026581	0.148886
H145	H	0.987545	0.014029	0.796403
H146	H	1.487545	0.514029	1.296403
H147	H	0.979706	-0.069446	0.111216
H148	H	1.479706	0.430554	0.611216
Br149	Br	0.309173	-0.103414	0.000132
Br150	Br	0.809173	0.396586	0.500132
Br151	Br	0.706558	-0.092859	0.000102
Br152	Br	1.206558	0.407141	0.500102
H153	H	0.810189	-0.592257	-0.111027
H154	H	1.310189	-0.092257	0.388973
H155	H	0.816572	-0.188312	0.351333
H156	H	1.316572	0.311688	0.851333
H157	H	0.802419	0.324272	0.796400
H158	H	1.302419	0.824272	1.296400
H159	H	0.893032	-0.449704	0.136080
H160	H	1.393032	0.050296	0.636080
H161	H	0.900037	-0.010100	0.367264
H162	H	1.400037	0.489900	0.867264
Br163	Br	0.897457	-0.176479	-0.176567
Br164	Br	1.397457	0.323521	0.323433
H165	H	0.987505	0.014000	0.203815
H166	H	1.487505	0.514000	0.703815
Br167	Br	1.000200	-0.301281	-0.210356
Br168	Br	1.500200	0.198719	0.289644
H169	H	0.802371	0.324231	0.203811
H170	H	1.302371	0.824231	0.703811
H171	H	0.889912	-0.651640	-0.367045
H172	H	1.389912	-0.151640	0.132955
Br173	Br	1.006565	0.102661	0.251970
Br174	Br	1.506565	0.602661	0.751970
Br175	Br	0.783360	-0.764391	-0.251769
Br176	Br	1.283360	-0.264391	0.248231
