data_functionalizedCrystal
_audit_creation_method	'MofGen! by Chris Wilmer'
_symmetry_space_group_name_H-M	'P1'
_symmetry_Int_Tables_number	1
_symmetry_cell_setting	triclinic
loop_
_symmetry_equiv_pos_as_xyz
  x,y,z
_cell_length_a	10.723023
_cell_length_b	17.038272
_cell_length_c	9.798715
_cell_angle_alpha	90.003665
_cell_angle_beta	90.003242
_cell_angle_gamma	87.789552
loop_
_atom_site_label
_atom_site_type_symbol
_atom_site_fract_x
_atom_site_fract_y
_atom_site_fract_z
O1	O	1.667337	0.109717	0.113479
O2	O	1.305156	0.120220	0.113485
O3	O	1.484094	0.001142	0.113471
O4	O	1.488399	0.228796	0.113492
O5	O	1.484080	0.001141	-0.113511
O6	O	1.305142	0.120220	-0.113498
O7	O	1.667323	0.109717	-0.113503
Zn8	Zn	1.486230	0.114968	-0.149539
Zn9	Zn	1.486249	0.114969	0.149520
O10	O	1.488385	0.228795	-0.113490
C11	C	1.258579	0.119456	-0.000006
C12	C	1.119813	0.117169	-0.000004
C13	C	1.057939	0.116150	-0.117586
C14	C	0.914517	0.113786	-0.117587
C15	C	1.480171	-0.028009	-0.000020
C16	C	1.468489	-0.114866	-0.000019
C17	C	1.575745	-0.164388	-0.000023
C18	C	1.564761	-0.245999	-0.000009
C19	C	1.446520	-0.278087	-0.000003
C20	C	1.339256	-0.228559	0.000004
C21	C	1.350242	-0.146949	0.000001
C22	C	1.407711	-0.524059	0.000016
C23	C	1.396734	-0.605675	0.000016
C24	C	1.622239	-0.623110	0.000004
C25	C	1.633214	-0.541497	-0.000007
C26	C	1.525951	-0.491977	0.000007
C27	C	1.435290	-0.361507	0.000006
C28	C	1.537182	-0.408559	0.000008
C29	C	1.713900	0.110481	-0.000010
C30	C	1.852666	0.112768	-0.000003
C31	C	1.492307	0.257946	0.000004
C32	C	1.503990	0.344803	0.000013
N33	N	1.486226	0.114967	-0.353639
C34	C	1.563187	0.160329	-0.421413
C35	C	1.563207	0.160328	-0.578576
N36	N	1.486262	0.114964	0.353620
H37	H	1.066606	0.116291	0.100662
H38	H	1.420355	0.076128	-0.411966
F39	F	1.309452	-0.395665	0.000019
F40	F	1.236085	-0.094245	0.000009
H41	H	1.633453	-0.382429	0.000033
H42	H	1.672029	-0.138268	-0.000036
H43	H	1.420364	0.076130	-0.588105
F44	F	1.678918	-0.298700	-0.000015
F45	F	1.736388	-0.675818	-0.000009
F46	F	1.127478	0.117293	-0.249169
F47	F	0.922202	0.113919	0.131586
F48	F	1.649299	0.211089	-0.345181
H49	H	0.861307	0.112914	-0.218254
H50	H	1.300444	-0.631798	-0.000001
H51	H	1.629090	0.199168	-0.636860
H52	H	1.320369	-0.483749	0.000028
H53	H	1.729498	-0.515378	-0.000013
F54	F	1.213415	-0.262712	0.000027
