data_functionalizedCrystal
_audit_creation_method	'MofGen! by Chris Wilmer'
_symmetry_space_group_name_H-M	'P1'
_symmetry_Int_Tables_number	1
_symmetry_cell_setting	triclinic
loop_
_symmetry_equiv_pos_as_xyz
  x,y,z
_cell_length_a	14.853567
_cell_length_b	14.421503
_cell_length_c	14.853567
_cell_angle_alpha	89.991908
_cell_angle_beta	83.634930
_cell_angle_gamma	90.004671
loop_
_atom_site_label
_atom_site_type_symbol
_atom_site_fract_x
_atom_site_fract_y
_atom_site_fract_z
O1	O	1.196370	0.077040	0.117692
O2	O	0.933911	0.077055	0.131713
O3	O	1.072151	0.077050	-0.006527
O4	O	1.058130	0.077045	0.255932
O5	O	1.072128	-0.077174	-0.006507
O6	O	0.933888	-0.077169	0.131734
O7	O	1.196347	-0.077184	0.117712
Cu8	Cu	1.065115	-0.091258	0.124725
Cu9	Cu	1.065143	0.091129	0.124701
O10	O	1.058107	-0.077179	0.255953
C11	C	0.900311	-0.000055	0.131088
C12	C	0.800227	-0.000049	0.129184
N13	N	1.065103	-0.219539	0.124741
C14	C	0.387693	-0.000068	0.039019
C15	C	0.366412	-0.000070	0.203251
C16	C	0.460446	-0.000067	0.205042
C17	C	0.518108	-0.000063	0.123819
C18	C	0.481736	-0.000062	0.040806
C19	C	0.496825	-0.000059	0.288053
C20	C	0.590864	-0.000055	0.289846
C21	C	0.648528	-0.000058	0.208623
C22	C	0.612150	-0.000058	0.125607
C23	C	0.669812	-0.000054	0.044384
C24	C	0.633437	-0.000060	-0.038633
C25	C	0.539399	-0.000065	-0.040417
C26	C	0.742565	-0.000053	0.210407
C27	C	0.763855	-0.000048	0.046172
C28	C	1.001169	-0.469191	0.188635
C29	C	1.082654	-0.530999	0.206235
C30	C	1.065125	-0.408701	0.124720
C31	C	0.983661	-0.530987	0.107141
C32	C	1.065139	-0.591422	0.124701
C33	C	1.146651	-0.469148	0.142361
C34	C	1.047604	-0.469131	0.043231
C35	C	1.129148	-0.530911	0.060797
C36	C	1.065116	-0.303440	0.124733
C37	C	1.065157	-0.696681	0.124687
C38	C	1.229947	-0.000072	0.118337
C39	C	1.330031	-0.000072	0.120241
C40	C	1.071504	-0.000059	-0.040106
C41	C	1.069601	-0.000051	-0.140189
N42	N	1.065162	0.219410	0.124677
C43	C	0.979435	-0.000064	-0.552723
C44	C	1.143668	-0.000073	-0.574004
C45	C	1.145458	-0.000068	-0.479971
C46	C	1.064235	-0.000062	-0.422309
C47	C	0.981223	-0.000061	-0.458680
C48	C	1.228469	-0.000078	-0.443591
C49	C	1.230262	-0.000073	-0.349552
C50	C	1.149039	-0.000061	-0.291889
C51	C	1.066023	-0.000059	-0.328266
C52	C	0.984800	-0.000053	-0.270604
C53	C	0.901783	-0.000045	-0.306979
C54	C	0.899999	-0.000049	-0.401017
C55	C	1.150823	-0.000057	-0.197851
C56	C	0.986588	-0.000051	-0.176561
C57	C	1.058754	-0.000068	0.289531
C58	C	1.060657	-0.000070	0.389615
H59	H	0.810798	-0.000048	-0.019971
H60	H	1.183298	-0.557840	0.006734
N61	N	1.233110	-0.435226	0.161092
N62	N	1.278848	-0.385093	0.104569
H63	H	1.339909	-0.361134	0.117798
H64	H	0.911844	-0.000053	-0.582344
N65	N	0.815217	-0.000059	-0.438193
N66	N	0.795901	-0.065075	-0.488281
H67	H	0.736025	-0.065087	-0.514543
N68	N	0.692354	-0.000045	-0.121589
N69	N	0.776313	-0.000029	-0.119972
H70	H	0.817927	-0.000017	-0.178558
H71	H	0.509774	-0.000093	-0.108005
N72	N	1.028979	-0.434989	-0.043178
N73	N	1.085866	-0.385389	-0.089076
H74	H	1.072705	-0.361273	-0.150103
H75	H	0.319459	-0.000066	0.269379
H76	H	1.209795	-0.000085	-0.620958
H77	H	0.920445	-0.000042	-0.129618
H78	H	0.947139	-0.442091	0.242729
H79	H	0.914763	-0.558153	0.092281
H80	H	0.835652	-0.000047	-0.260019
N81	N	0.350543	-0.000093	-0.045777
N82	N	0.300448	-0.065111	-0.065089
H83	H	0.274210	-0.065131	-0.124977
N84	N	0.437915	-0.000034	0.371005
N85	N	0.353955	-0.000030	0.369394
H86	H	0.312344	-0.000006	0.427982
N87	N	1.311428	-0.000103	-0.502491
N88	N	1.328735	-0.065114	-0.557331
H89	H	1.387328	-0.065133	-0.598935
N90	N	0.628002	-0.000045	0.374649
N91	N	0.576507	-0.000045	0.447161
H92	H	0.602735	-0.000039	0.507055
N93	N	1.315065	-0.000083	-0.312415
N94	N	1.387577	-0.000091	-0.363909
H95	H	1.447471	-0.000095	-0.337681
H96	H	1.218414	-0.000070	-0.168238
H97	H	0.772178	-0.000049	0.277998
H98	H	1.097486	-0.558173	0.275141
