data_functionalizedCrystal
_audit_creation_method	'MofGen! by Chris Wilmer'
_symmetry_space_group_name_H-M	'P1'
_symmetry_Int_Tables_number	1
_symmetry_cell_setting	triclinic
loop_
_symmetry_equiv_pos_as_xyz
  x,y,z
_cell_length_a	13.032831
_cell_length_b	29.839131
_cell_length_c	13.032268
_cell_angle_alpha	82.866272
_cell_angle_beta	89.113023
_cell_angle_gamma	82.838261
loop_
_atom_site_label
_atom_site_type_symbol
_atom_site_fract_x
_atom_site_fract_y
_atom_site_fract_z
Zn1	Zn	1.498289	-0.303377	0.780643
Zn2	Zn	1.519989	-0.370307	0.608621
Zn3	Zn	1.348159	-0.284611	0.586896
Zn4	Zn	1.326239	-0.367878	0.758748
O5	O	1.423169	-0.331543	0.683727
O6	O	1.645083	-0.321126	0.776080
O7	O	1.515451	-0.352102	0.461827
O8	O	1.368166	-0.224242	0.612669
O9	O	1.661026	-0.370299	0.649696
O10	O	1.478466	-0.238030	0.755014
O11	O	1.389208	-0.289142	0.445866
O12	O	1.201336	-0.286787	0.591437
O13	O	1.330806	-0.366159	0.905565
O14	O	1.185232	-0.347963	0.717696
O15	O	1.457211	-0.318770	0.921651
O16	O	1.494196	-0.432843	0.628465
O17	O	1.351848	-0.431059	0.738762
C18	C	1.155968	-0.315075	0.649834
C19	C	1.041656	-0.308042	0.635359
C20	C	0.982762	-0.335214	0.691282
C21	C	0.864614	-0.327946	0.676322
C22	C	1.423023	-0.448252	0.683621
C23	C	1.423051	-0.498188	0.683621
C24	C	1.480576	-0.814992	0.757938
C25	C	1.480680	-1.002674	0.758014
O26	O	1.529444	-1.033014	0.821117
N27	N	1.423329	-1.019002	0.683863
C28	C	1.365943	-0.988405	0.609693
O29	O	1.317157	-1.006599	0.546631
C30	C	1.365834	-0.800723	0.609622
C31	C	1.423197	-0.784399	0.683771
C32	C	1.537933	-0.798667	0.832082
C33	C	1.537911	-0.751749	0.832059
C34	C	1.480532	-0.721156	0.757892
C35	C	1.423175	-0.737481	0.683748
C36	C	1.308443	-0.770127	0.535457
C37	C	1.308419	-0.723204	0.535447
C38	C	1.365782	-0.706880	0.609596
C39	C	1.365774	-0.659970	0.609558
N40	N	1.423124	-0.643642	0.683709
C41	C	1.480503	-0.674235	0.757876
C42	C	1.366006	-1.086941	0.609734
C43	C	1.366035	-1.133861	0.609750
C44	C	1.480770	-1.148128	0.758073
C45	C	1.480746	-1.101207	0.758051
C46	C	1.423357	-1.070614	0.683884
C47	C	1.480453	-0.575704	0.757821
C48	C	1.480429	-0.528781	0.757788
C49	C	1.365691	-0.514519	0.609469
C50	C	1.365718	-0.561438	0.609498
C51	C	1.423102	-0.592029	0.683682
O52	O	1.317026	-0.629604	0.546495
O53	O	1.529264	-0.656033	0.820942
C54	C	1.480598	-0.861909	0.757961
C55	C	1.423241	-0.878234	0.683818
C56	C	1.365862	-0.847641	0.609651
C57	C	1.423270	-0.925155	0.683834
C58	C	1.480648	-0.955748	0.758001
C59	C	1.537999	-0.939420	0.832152
C60	C	1.537977	-0.892503	0.832129
C61	C	1.308512	-0.863969	0.535500
C62	C	1.308539	-0.910887	0.535528
C63	C	1.365918	-0.941480	0.609695
C64	C	1.691413	-0.348077	0.717753
C65	C	1.805723	-0.355122	0.732253
C66	C	1.389143	-0.344287	0.951966
C67	C	1.374643	-0.349718	1.066274
C68	C	1.423341	-0.214382	0.683860
C69	C	1.423414	-0.164454	0.683917
C70	C	1.457122	-0.318820	0.416539
C71	C	1.471821	-0.313276	0.302258
C72	C	1.430721	-0.328692	1.125195
C73	C	1.415736	-0.334304	1.243338
H74	H	1.527173	-0.600607	0.818235
H75	H	1.319018	-0.574729	0.549112
N76	N	1.596594	-0.875838	0.907863
N77	N	1.692353	-0.886580	0.913144
H78	H	1.733759	-0.874815	0.966635
N79	N	1.596534	-0.735090	0.907797
N80	N	1.692292	-0.745838	0.913074
H81	H	1.733705	-0.734080	0.966570
H82	H	1.356621	-0.356459	1.280353
N83	N	1.249887	-0.832728	0.459731
N84	N	1.198688	-0.847318	0.393539
H85	H	1.157283	-0.825256	0.340019
H86	H	0.842764	-0.383766	0.791217
H87	H	1.584723	-0.964338	0.892538
H88	H	1.489821	-0.306534	1.088175
N89	N	1.596549	-0.829906	0.907860
N90	N	1.647748	-0.815315	0.974050
H91	H	1.689155	-0.837375	1.027571
N92	N	1.307432	-1.150532	0.534013
N93	N	1.237294	-1.174405	0.561834
H94	H	1.195898	-1.186177	0.508346
H95	H	0.827570	-0.299298	0.617370
H96	H	1.004607	-0.279396	0.576410
H97	H	1.530924	-0.291115	1.265243
H98	H	1.315532	-0.371871	1.103293
H99	H	1.019810	-0.363857	0.750238
N100	N	1.249944	-0.927551	0.459766
N101	N	1.198719	-0.900225	0.393556
H102	H	1.157331	-0.911992	0.340053
H103	H	1.527145	-0.515493	0.818170
N104	N	1.307362	-1.055697	0.533976
N105	N	1.211609	-1.055457	0.528690
H106	H	1.170190	-1.033394	0.475184
H107	H	1.527455	-1.087919	0.818430
N108	N	1.539396	-1.179382	0.833824
N109	N	1.609559	-1.207870	0.806022
H110	H	1.650959	-1.229944	0.859521
N111	N	1.249828	-0.786786	0.459717
N112	N	1.198589	-0.759457	0.393523
H113	H	1.157181	-0.771221	0.340032
H114	H	1.261682	-0.698297	0.475052
H115	H	1.318977	-0.489603	0.549080
