data_functionalizedCrystal
_audit_creation_method	'MofGen! by Chris Wilmer'
_symmetry_space_group_name_H-M	'P1'
_symmetry_Int_Tables_number	1
_symmetry_cell_setting	triclinic
loop_
_symmetry_equiv_pos_as_xyz
  x,y,z
_cell_length_a	12.759401
_cell_length_b	29.839131
_cell_length_c	12.759393
_cell_angle_alpha	90.044470
_cell_angle_beta	90.020938
_cell_angle_gamma	90.036753
loop_
_atom_site_label
_atom_site_type_symbol
_atom_site_fract_x
_atom_site_fract_y
_atom_site_fract_z
Zn1	Zn	1.606117	-0.178813	0.593918
Zn2	Zn	1.605945	-0.253950	0.418195
Zn3	Zn	1.430415	-0.178837	0.418253
Zn4	Zn	1.430344	-0.253919	0.593833
O5	O	1.518205	-0.216380	0.506050
O6	O	1.753115	-0.188784	0.570620
O7	O	1.582618	-0.244010	0.271182
O8	O	1.453824	-0.115967	0.441616
O9	O	1.752988	-0.243986	0.441517
O10	O	1.582911	-0.115949	0.570676
O11	O	1.453657	-0.188824	0.271224
O12	O	1.283385	-0.188794	0.441533
O13	O	1.453703	-0.243933	0.740865
O14	O	1.283333	-0.243956	0.570530
O15	O	1.582842	-0.188753	0.740928
O16	O	1.582549	-0.316813	0.441434
O17	O	1.453536	-0.316790	0.570474
C18	C	1.245238	-0.216375	0.506029
C19	C	1.128461	-0.216383	0.506045
C20	C	1.073599	-0.245150	0.573108
C21	C	0.963875	-0.245151	0.573129
C22	C	0.963884	-0.187618	0.439014
C23	C	1.073606	-0.187615	0.439000
C24	C	0.813966	-0.261272	0.696980
C25	C	0.759101	-0.290045	0.764034
C26	C	0.794661	-0.333888	0.779957
C27	C	0.885086	-0.348966	0.728811
C28	C	0.939946	-0.320195	0.661749
C29	C	0.904386	-0.276346	0.645846
C30	C	1.223518	-0.171499	0.315147
C31	C	1.278380	-0.142730	0.248079
C32	C	1.242821	-0.098886	0.232146
C33	C	1.152393	-0.083810	0.283274
C34	C	1.097531	-0.112579	0.350341
C35	C	1.133097	-0.156422	0.366277
C36	C	1.518045	-0.333103	0.505961
C37	C	1.518072	-0.383037	0.505958
C38	C	1.585406	-0.692636	0.573347
C39	C	1.585520	-0.880309	0.573410
O40	O	1.642613	-0.904537	0.630641
N41	N	1.518384	-0.903822	0.506166
C42	C	1.451209	-0.880414	0.438907
O43	O	1.394100	-0.904719	0.381721
C44	C	1.451090	-0.692741	0.438850
C45	C	1.518239	-0.669231	0.506091
C46	C	1.652548	-0.669126	0.640583
C47	C	1.652523	-0.622211	0.640563
C48	C	1.585356	-0.598805	0.573306
C49	C	1.518214	-0.622316	0.506070
C50	C	1.383911	-0.669334	0.371596
C51	C	1.383885	-0.622413	0.371590
C52	C	1.451034	-0.598903	0.438831
C53	C	1.451021	-0.551995	0.438793
N54	N	1.518158	-0.528482	0.506037
C55	C	1.585325	-0.551888	0.573293
C56	C	1.451277	-0.978944	0.438940
C57	C	1.451308	-1.025862	0.438953
C58	C	1.585618	-1.025755	0.573458
C59	C	1.585592	-0.978836	0.573439
C60	C	1.518414	-0.955432	0.506184
C61	C	1.585268	-0.453362	0.573245
C62	C	1.585240	-0.406442	0.573215
C63	C	1.450926	-0.406554	0.438714
C64	C	1.450958	-0.453469	0.438739
C65	C	1.518132	-0.476872	0.506013
O66	O	1.393950	-0.527739	0.381601
O67	O	1.642409	-0.527574	0.630487
C68	C	1.585431	-0.739552	0.573368
C69	C	1.518289	-0.763062	0.506132
C70	C	1.451122	-0.739657	0.438875
C71	C	1.518320	-0.809980	0.506144
C72	C	1.585487	-0.833385	0.573401
C73	C	1.652624	-0.809872	0.640645
C74	C	1.652599	-0.762957	0.640624
C75	C	1.383985	-0.763170	0.371631
C76	C	1.384017	-0.810085	0.371656
C77	C	1.451184	-0.833490	0.438913
C78	C	1.792238	-0.216386	0.506071
C79	C	1.909015	-0.216388	0.506081
C80	C	1.518284	-0.216337	0.780083
C81	C	1.518317	-0.216318	0.896860
C82	C	1.518395	-0.099202	0.506162
C83	C	1.518475	-0.049267	0.506209
C84	C	1.518187	-0.216391	0.233082
C85	C	1.518357	-0.216282	0.116306
C86	C	1.585565	-0.187582	0.951756
C87	C	1.585583	-0.187562	1.061481
C88	C	1.451102	-0.245020	1.061402
C89	C	1.451080	-0.245037	0.951680
C90	C	1.623239	-0.134558	1.211489
C91	C	1.690504	-0.105825	1.266389
C92	C	1.793022	-0.098936	1.230802
C93	C	1.828297	-0.120786	1.140316
C94	C	1.761039	-0.149522	1.085421
C95	C	1.658506	-0.156403	1.121007
C96	C	1.413434	-0.298042	0.801670
C97	C	1.346180	-0.326781	0.746773
C98	C	1.243660	-0.333675	0.782359
C99	C	1.208388	-0.311832	0.872848
C100	C	1.275642	-0.283093	0.927744
C101	C	1.378162	-0.276199	0.892152
H102	H	1.013567	-0.332471	0.620106
H103	H	1.352011	-0.155009	0.206447
N104	N	1.237615	-0.259528	1.025342
H105	H	1.216080	-0.282499	1.079308
H106	H	1.175535	-0.240016	1.007305
N107	N	1.799059	-0.173086	0.987824
H108	H	1.794502	-0.206583	0.998184
H109	H	1.874199	-0.164329	0.973653
N110	N	1.097815	-0.319267	0.911243
H111	H	1.060561	-0.340786	0.862736
H112	H	1.059191	-0.289738	0.912416
H113	H	1.329338	-0.829223	0.316891
H114	H	1.188906	-0.357080	0.737657
H115	H	1.911782	-0.115178	1.111353
N116	N	1.261879	-0.218790	0.332319
H117	H	1.205914	-0.240701	0.309639
H118	H	1.277954	-0.223339	0.409086
N119	N	1.658028	-1.051005	0.646035
H120	H	1.700548	-1.028995	0.688649
H121	H	1.706693	-1.070476	0.603348
H122	H	1.640311	-0.164196	0.907125
N123	N	1.657668	-0.381085	0.645740
H124	H	1.700217	-0.403034	0.688351
H125	H	1.614867	-0.361614	0.694316
H126	H	1.661773	-0.088034	1.340063
H127	H	1.539758	-0.140161	1.240468
H128	H	1.396640	-1.045000	0.384187
N129	N	1.378569	-0.275987	1.120530
H130	H	1.388782	-0.271615	1.198369
H131	H	1.394845	-0.308079	1.101330
N132	N	1.524012	-0.290603	0.763283
H133	H	1.536153	-0.308804	0.697634
H134	H	1.575206	-0.300245	0.819271
N135	N	1.657706	-0.478599	0.645813
H136	H	1.700229	-0.456581	0.688401
H137	H	1.706367	-0.498067	0.603112
H138	H	1.329178	-0.603359	0.316823
N139	N	1.725075	-0.835121	0.713183
H140	H	1.714894	-0.868410	0.702984
H141	H	1.708678	-0.826899	0.788201
H142	H	1.023905	-0.100299	0.391980
H143	H	0.914026	-0.384669	0.741772
H144	H	1.640269	-0.959697	0.628193
H145	H	1.329288	-0.744117	0.316864
N146	N	1.378822	-0.953704	0.366390
H147	H	1.336306	-0.975723	0.323796
H148	H	1.421604	-0.934241	0.317801
H149	H	0.685477	-0.277764	0.805679
N150	N	0.735485	-0.364925	0.852271
H151	H	0.672807	-0.348721	0.882251
H152	H	0.783082	-0.374755	0.911178
N153	N	1.865588	-0.067952	1.290011
H154	H	1.834474	-0.036849	1.292036
H155	H	1.935865	-0.066948	1.253690
N156	N	1.132767	-0.276176	0.645418
H157	H	1.081358	-0.294399	0.687906
H158	H	1.178341	-0.257913	0.694117
N159	N	0.775610	-0.213982	0.679807
H160	H	0.774523	-0.197448	0.748898
H161	H	0.702537	-0.214813	0.649414
H162	H	1.374911	-0.344570	0.673099
H163	H	0.919208	-0.164197	0.384427
H164	H	1.287494	-0.075464	0.177524
N165	N	1.114025	-0.036522	0.266088
H166	H	1.162502	-0.020585	0.215845
H167	H	1.112931	-0.020021	0.335218
N168	N	1.724940	-0.596856	0.713095
H169	H	1.767484	-0.618809	0.755703
H170	H	1.682133	-0.577390	0.761673
H171	H	1.707244	-0.688178	0.695358
H172	H	1.329232	-0.688468	0.316841
H173	H	1.396242	-0.387490	0.383951
N174	N	1.378549	-0.478830	0.366206
H175	H	1.335999	-0.456882	0.323593
H176	H	1.329912	-0.498295	0.408938
H177	H	1.707277	-0.743818	0.695378
