data_functionalizedCrystal
_audit_creation_method	'MofGen! by Chris Wilmer'
_symmetry_space_group_name_H-M	'P1'
_symmetry_Int_Tables_number	1
_symmetry_cell_setting	triclinic
loop_
_symmetry_equiv_pos_as_xyz
  x,y,z
_cell_length_a	10.723023
_cell_length_b	14.519731
_cell_length_c	9.798715
_cell_angle_alpha	89.995867
_cell_angle_beta	89.996770
_cell_angle_gamma	84.078200
loop_
_atom_site_label
_atom_site_type_symbol
_atom_site_fract_x
_atom_site_fract_y
_atom_site_fract_z
O1	O	1.655992	0.129343	-0.113480
O2	O	1.292725	0.141724	-0.113487
O3	O	1.483976	0.001346	-0.113471
O4	O	1.464741	0.269722	-0.113496
O5	O	1.483962	0.001345	0.113511
O6	O	1.292710	0.141724	0.113496
O7	O	1.655977	0.129342	0.113502
Zn8	Zn	1.474342	0.135533	0.149537
Zn9	Zn	1.474360	0.135534	-0.149522
O10	O	1.464726	0.269721	0.113486
C11	C	1.246226	0.140823	0.000004
C12	C	1.107697	0.138128	0.000002
C13	C	1.045929	0.136926	0.117585
C14	C	0.902751	0.134140	0.117585
C15	C	1.483067	-0.033019	0.000020
C16	C	1.480367	-0.135413	0.000021
C17	C	1.478172	-0.218568	0.000018
C18	C	1.475430	-0.322891	0.000008
C19	C	1.473254	-0.406041	-0.000001
C20	C	1.470512	-0.510370	-0.000009
C21	C	1.702476	0.130243	0.000008
C22	C	1.841005	0.132939	0.000001
C23	C	1.465635	0.304085	-0.000008
C24	C	1.468336	0.406479	-0.000018
N25	N	1.474338	0.135532	0.353637
N26	N	1.474374	0.135527	-0.353622
C27	C	1.554642	0.076331	0.421420
C28	C	1.554662	0.076328	0.578583
H29	H	0.849631	0.133112	0.218252
H30	H	1.099046	0.137954	0.218251
H31	H	0.894116	0.133978	-0.100671
N32	N	1.640752	0.012644	0.348293
N33	N	1.716159	-0.043082	0.411941
H34	H	1.776925	-0.088103	0.360299
N35	N	1.640913	0.012728	0.651676
N36	N	1.716390	-0.042931	0.588006
H37	H	1.777308	-0.087852	0.639629
N38	N	1.388086	0.199114	0.426764
N39	N	1.272694	0.197319	0.410930
H40	H	1.211773	0.242226	0.462572
H41	H	1.405624	0.186218	0.588096
N42	N	1.041080	0.136811	-0.126291
N43	N	0.979776	0.070499	-0.153788
H44	H	0.932731	0.069566	-0.242987
