data_functionalizedCrystal
_audit_creation_method	'MofGen! by Chris Wilmer'
_symmetry_space_group_name_H-M	'P1'
_symmetry_Int_Tables_number	1
_symmetry_cell_setting	triclinic
loop_
_symmetry_equiv_pos_as_xyz
  x,y,z
_cell_length_a	18.050591
_cell_length_b	18.050590
_cell_length_c	12.759393
_cell_angle_alpha	89.964247
_cell_angle_beta	89.972302
_cell_angle_gamma	90.014558
loop_
_atom_site_label
_atom_site_type_symbol
_atom_site_fract_x
_atom_site_fract_y
_atom_site_fract_z
Zn1	Zn	1.135392	-0.295695	-0.594209
Zn2	Zn	1.135309	-0.419905	-0.418516
Zn3	Zn	1.011197	-0.295725	-0.418520
Zn4	Zn	1.011180	-0.419839	-0.594129
O5	O	1.073270	-0.357791	-0.506343
O6	O	1.239306	-0.312187	-0.570934
O7	O	1.118817	-0.403472	-0.271495
O8	O	1.027713	-0.191796	-0.441860
O9	O	1.239245	-0.403443	-0.441854
O10	O	1.118959	-0.191774	-0.570938
O11	O	1.027633	-0.312238	-0.271498
O12	O	0.907270	-0.312173	-0.441783
O13	O	1.027685	-0.403331	-0.741161
O14	O	0.907258	-0.403360	-0.570803
O15	O	1.118943	-0.312122	-0.741219
O16	O	1.118802	-0.523821	-0.441777
O17	O	1.027605	-0.523772	-0.570799
C18	C	0.880317	-0.357763	-0.506285
C19	C	0.797772	-0.357769	-0.506285
C20	C	1.073212	-0.550743	-0.506302
C21	C	1.073256	-0.633289	-0.506319
C22	C	1.122952	-0.832739	-0.436254
C23	C	1.141096	-0.882064	-0.532145
C24	C	1.073298	-0.784419	-0.506361
C25	C	1.055230	-0.882175	-0.410513
C26	C	1.073340	-0.930404	-0.506393
C27	C	1.091476	-0.832657	-0.602302
C28	C	1.005580	-0.832764	-0.480605
C29	C	1.023697	-0.882067	-0.576562
C30	C	1.073276	-0.700321	-0.506341
C31	C	1.073362	-1.014501	-0.506423
C32	C	0.598306	-0.308125	-0.436286
C33	C	0.548896	-0.375864	-0.410430
C34	C	0.646641	-0.357792	-0.506333
C35	C	0.548970	-0.290075	-0.532186
C36	C	0.500656	-0.357807	-0.506377
C37	C	0.598318	-0.425567	-0.480427
C38	C	0.598397	-0.339732	-0.602228
C39	C	0.549009	-0.407519	-0.576408
C40	C	0.730740	-0.357782	-0.506305
C41	C	0.416560	-0.357825	-0.506405
C42	C	1.266975	-0.357819	-0.506402
C43	C	1.349521	-0.357831	-0.506427
C44	C	1.073322	-0.357716	-0.780377
C45	C	1.073344	-0.357684	-0.897154
C46	C	1.073347	-0.164085	-0.506408
C47	C	1.073380	-0.081539	-0.506436
C48	C	1.120868	-0.310187	-0.952048
C49	C	1.120886	-0.310160	-1.061772
C50	C	1.025852	-0.405133	-1.061698
C51	C	1.025832	-0.405156	-0.951976
C52	C	1.175737	-0.255358	-0.952091
C53	C	1.175755	-0.255331	-1.061815
C54	C	1.073260	-0.357812	-0.233376
C55	C	1.073382	-0.357634	-0.116600
H56	H	1.164957	-0.811078	-0.377029
H57	H	1.106719	-0.810998	-0.683442
H58	H	0.987168	-0.443781	-1.106348
H59	H	0.527154	-0.391151	-0.329352
H60	H	1.233272	-0.270739	-1.091605
H61	H	0.987130	-0.443829	-0.907285
H62	H	0.527254	-0.232809	-0.553999
H63	H	0.619904	-0.482858	-0.458488
H64	H	1.230357	-0.275980	-0.918066
H65	H	0.620157	-0.324425	-0.683281
H66	H	1.160354	-0.197843	-0.922338
H67	H	0.619952	-0.266168	-0.376986
H68	H	0.527499	-0.449576	-0.635663
H69	H	1.155179	-0.200682	-1.095864
H70	H	1.198382	-0.903721	-0.553950
H71	H	0.981725	-0.903590	-0.635931
H72	H	1.039931	-0.903926	-0.329443
H73	H	0.948310	-0.811091	-0.458772
