data_functionalizedCrystal
_audit_creation_method	'MofGen! by Chris Wilmer'
_symmetry_space_group_name_H-M	'P1'
_symmetry_Int_Tables_number	1
_symmetry_cell_setting	triclinic
loop_
_symmetry_equiv_pos_as_xyz
  x,y,z
_cell_length_a	12.811415
_cell_length_b	12.811445
_cell_length_c	10.268362
_cell_angle_alpha	84.563956
_cell_angle_beta	84.567800
_cell_angle_gamma	83.528277
loop_
_atom_site_label
_atom_site_type_symbol
_atom_site_fract_x
_atom_site_fract_y
_atom_site_fract_z
O1	O	0.141395	1.393294	-0.289540
O2	O	0.156762	1.087777	-0.255277
O3	O	-0.003679	1.248221	-0.255269
O4	O	0.301837	1.232850	-0.289548
O5	O	-0.003674	1.248206	-0.038667
O6	O	0.156768	1.087762	-0.038675
O7	O	0.141401	1.393279	-0.072938
Cu8	Cu	0.149085	1.240519	-0.036029
Cu9	Cu	0.149078	1.240537	-0.292186
O10	O	0.301842	1.232835	-0.072946
C11	C	0.155903	1.048661	-0.142256
C12	C	0.153321	0.932132	-0.128190
C13	C	0.148484	0.713173	-0.337925
C14	C	0.146059	0.603684	-0.324715
C15	C	0.146053	0.603660	-0.088561
C16	C	0.148478	0.713150	-0.101771
C17	C	0.149692	0.767903	-0.226457
C18	C	0.152110	0.877395	-0.239666
C19	C	0.152111	0.877369	-0.003514
C20	C	0.149686	0.767879	0.009696
C21	C	-0.042785	1.247352	-0.142249
C22	C	-0.159314	1.244772	-0.128186
C23	C	-0.378278	1.239922	-0.337924
C24	C	-0.487768	1.237497	-0.324716
C25	C	-0.487783	1.237492	-0.088564
C26	C	-0.378293	1.239916	-0.101772
C27	C	-0.323545	1.241132	-0.226456
C28	C	-0.214055	1.243564	-0.239663
C29	C	-0.214071	1.243551	-0.003511
C30	C	-0.323560	1.241127	0.009697
C31	C	0.340947	1.233704	-0.185969
C32	C	0.457476	1.236284	-0.200041
C33	C	0.142260	1.432394	-0.185962
C34	C	0.144842	1.548924	-0.200037
N35	N	0.149089	1.240514	0.144137
N36	N	0.149066	1.240550	-0.472352
C37	C	0.149089	1.240521	0.261978
C38	C	0.149080	1.240534	0.409816
H39	H	0.153097	0.921974	-0.341191
H40	H	-0.368150	1.240132	0.111211
H41	H	-0.169496	1.244541	0.087255
H42	H	0.149467	0.757755	-0.439448
Br43	Br	-0.562046	1.235847	-0.476000
Br44	Br	-0.139755	1.245222	-0.408874
H45	H	0.148702	0.723284	0.111211
H46	H	0.153093	0.921942	0.087251
H47	H	0.145078	0.559127	-0.415484
Br48	Br	-0.562097	1.235803	0.080640
Br49	Br	0.144430	0.529332	0.080639
Br50	Br	-0.303975	1.241593	-0.507134
