data_functionalizedCrystal
_audit_creation_method	'MofGen! by Chris Wilmer'
_symmetry_space_group_name_H-M	'P1'
_symmetry_Int_Tables_number	1
_symmetry_cell_setting	triclinic
loop_
_symmetry_equiv_pos_as_xyz
  x,y,z
_cell_length_a	14.519709
_cell_length_b	14.519709
_cell_length_c	13.596369
_cell_angle_alpha	90.000816
_cell_angle_beta	90.000208
_cell_angle_gamma	83.680144
loop_
_atom_site_label
_atom_site_type_symbol
_atom_site_fract_x
_atom_site_fract_y
_atom_site_fract_z
O1	O	-0.120893	-1.223868	0.081637
O2	O	0.379107	-0.723868	0.581637
O3	O	-0.135129	-0.955392	0.081668
O4	O	0.364871	-0.455392	0.581668
O5	O	0.006227	-1.096748	0.081661
O6	O	0.506227	-0.596748	0.581661
O7	O	-0.262249	-1.082512	0.081645
O8	O	0.237751	-0.582512	0.581645
O9	O	0.006235	-1.096734	-0.081922
O10	O	0.506235	-0.596734	0.418078
O11	O	-0.135122	-0.955377	-0.081914
O12	O	0.364878	-0.455377	0.418086
O13	O	-0.120885	-1.223854	-0.081946
O14	O	0.379115	-0.723854	0.418054
Zn15	Zn	-0.128002	-1.089614	-0.107902
Zn16	Zn	0.371998	-0.589614	0.392098
Zn17	Zn	-0.128012	-1.089632	0.107625
Zn18	Zn	0.371988	-0.589632	0.607625
O19	O	-0.262242	-1.082498	-0.081938
O20	O	0.237758	-0.582498	0.418062
C21	C	-0.134462	-0.921025	-0.000119
C22	C	0.365538	-0.421025	0.499881
C23	C	-0.132474	-0.818643	-0.000106
C24	C	0.367526	-0.318643	0.499894
C25	C	-0.125154	-0.443748	-0.000147
C26	C	0.374846	0.056252	0.499853
C27	C	-0.127187	-0.548056	-0.000135
C28	C	0.372813	-0.048056	0.499865
C29	C	-0.128814	-0.631192	-0.000126
C30	C	0.371186	-0.131192	0.499874
C31	C	-0.130847	-0.735507	-0.000116
C32	C	0.369153	-0.235507	0.499884
C33	C	-0.296605	-1.083168	-0.000149
C34	C	0.203395	-0.583168	0.499851
C35	C	-0.398987	-1.085156	-0.000156
C36	C	0.101013	-0.585156	0.499844
C37	C	-0.773883	-1.092476	-0.000118
C38	C	-0.273883	-0.592476	0.499882
C39	C	-0.669575	-1.090443	-0.000129
C40	C	-0.169575	-0.590443	0.499871
C41	C	-0.586438	-1.088816	-0.000138
C42	C	-0.086438	-0.588816	0.499862
C43	C	-0.482123	-1.086783	-0.000147
C44	C	0.017877	-0.586783	0.499853
C45	C	0.040591	-1.096078	-0.000126
C46	C	0.540591	-0.596078	0.499874
C47	C	0.142972	-1.094090	-0.000113
C48	C	0.642972	-0.594090	0.499887
N49	N	-0.127995	-1.089608	-0.254994
N50	N	0.372005	-0.589608	0.245006
C51	C	-0.121553	-0.258221	-0.000154
C52	C	0.378447	0.241779	0.499846
C53	C	-0.123541	-0.360602	-0.000152
C54	C	0.376459	0.139398	0.499848
C55	C	-0.128013	-1.089631	-0.656285
C56	C	0.371987	-0.589631	-0.156285
C57	C	-0.128011	-1.089622	-0.544634
C58	C	0.371989	-0.589622	-0.044634
C59	C	-0.128005	-1.089620	-0.455643
C60	C	0.371995	-0.589620	0.044357
C61	C	-0.128001	-1.089610	-0.343985
C62	C	0.371999	-0.589610	0.156015
N63	N	-0.128012	-1.089645	0.254717
N64	N	0.371988	-0.589645	0.754717
