data_functionalizedCrystal
_audit_creation_method	'MofGen! by Chris Wilmer'
_symmetry_space_group_name_H-M	'P1'
_symmetry_Int_Tables_number	1
_symmetry_cell_setting	triclinic
loop_
_symmetry_equiv_pos_as_xyz
  x,y,z
_cell_length_a	13.033293
_cell_length_b	14.908178
_cell_length_c	13.033288
_cell_angle_alpha	100.031737
_cell_angle_beta	103.342055
_cell_angle_gamma	100.025217
loop_
_atom_site_label
_atom_site_type_symbol
_atom_site_fract_x
_atom_site_fract_y
_atom_site_fract_z
Zn1	Zn	1.693543	-0.086104	0.800592
Zn2	Zn	1.657448	-0.261847	0.609489
Zn3	Zn	1.489968	-0.130709	0.596972
Zn4	Zn	1.502421	-0.261819	0.764468
O5	O	1.585845	-0.185120	0.692880
O6	O	1.838831	-0.090761	0.795599
O7	O	1.614914	-0.263130	0.457754
O8	O	1.526867	0.003627	0.633862
O9	O	1.812312	-0.219878	0.655196
O10	O	1.676432	0.036398	0.783461
O11	O	1.491867	-0.166783	0.448557
O12	O	1.341544	-0.166757	0.598834
O13	O	1.548091	-0.219832	0.919335
O14	O	1.350693	-0.263083	0.721892
O15	O	1.688507	-0.090734	0.945875
O16	O	1.626989	-0.390262	0.620168
O17	O	1.513091	-0.390242	0.734030
C18	C	1.307205	-0.219758	0.655085
C19	C	1.188004	-0.234595	0.638940
C20	C	1.147988	-0.177399	0.701305
C21	C	1.024787	-0.192733	0.684619
C22	C	1.567507	-0.423543	0.674564
C23	C	1.559764	-0.525525	0.666778
C24	C	1.700875	-0.682881	0.808057
C25	C	1.693604	-0.778701	0.800745
C26	C	1.537950	-0.812988	0.644848
C27	C	1.545220	-0.717167	0.652160
C28	C	1.626686	-0.652117	0.733766
C29	C	1.633960	-0.556295	0.741073
C30	C	1.478302	-0.590583	0.585181
C31	C	1.471032	-0.686403	0.577869
C32	C	1.865572	-0.150347	0.730824
C33	C	1.984776	-0.135529	0.746993
C34	C	1.623714	-0.150305	0.972606
C35	C	1.639852	-0.135468	1.091808
C36	C	1.604287	0.054241	0.711295
C37	C	1.612146	0.156243	0.719142
C38	C	1.594247	-0.177401	1.255021
C39	C	1.577565	-0.192735	1.131819
C40	C	1.548111	-0.219822	1.414240
C41	C	1.531969	-0.234660	1.295037
H42	H	0.967840	-0.253055	0.618868
Cl43	Cl	1.072687	-0.042386	0.848499
H44	H	1.700296	-0.503330	0.807518
H45	H	1.767214	-0.629915	0.874498
Cl46	Cl	1.235906	-0.084265	0.802811
H47	H	1.659920	-0.117030	1.311973
H48	H	1.131054	-0.294913	0.573193
Cl49	Cl	1.786872	-0.817372	0.894146
H50	H	1.471620	-0.865967	0.578412
H51	H	1.404702	-0.739380	0.511430
H52	H	1.417895	-0.565525	0.524685
H53	H	1.511896	-0.253117	1.074872
Cl54	Cl	1.741254	-0.042251	1.179722
H55	H	1.466304	-0.295037	1.238086
