data_functionalizedCrystal
_audit_creation_method	'MofGen! by Chris Wilmer'
_symmetry_space_group_name_H-M	'P1'
_symmetry_Int_Tables_number	1
_symmetry_cell_setting	triclinic
loop_
_symmetry_equiv_pos_as_xyz
  x,y,z
_cell_length_a	10.685980
_cell_length_b	12.759394
_cell_length_c	10.686551
_cell_angle_alpha	85.593446
_cell_angle_beta	81.591741
_cell_angle_gamma	94.381541
loop_
_atom_site_label
_atom_site_type_symbol
_atom_site_fract_x
_atom_site_fract_y
_atom_site_fract_z
Zn1	Zn	1.995788	-0.235485	-0.866701
Zn2	Zn	2.495788	0.264515	-0.366701
Zn3	Zn	1.979366	-0.425816	-0.654434
Zn4	Zn	2.479366	0.074184	-0.154434
Zn5	Zn	1.767215	-0.264727	-0.638165
Zn6	Zn	2.267215	0.235273	-0.138165
Zn7	Zn	1.783490	-0.425714	-0.850345
Zn8	Zn	2.283490	0.074286	-0.350345
O9	O	1.881465	-0.337935	-0.752411
O10	O	2.381465	0.162065	-0.252411
O11	O	2.171243	-0.248538	-0.852197
O12	O	2.671243	0.251462	-0.352197
O13	O	1.937540	-0.416727	-0.474644
O14	O	2.437540	0.083273	0.025356
O15	O	1.797598	-0.113821	-0.668516
O16	O	2.297598	0.386179	-0.168516
O17	O	2.159178	-0.388373	-0.696246
O18	O	2.659178	0.111627	-0.196246
O19	O	1.965530	-0.092337	-0.836421
O20	O	2.465530	0.407663	-0.336421
O21	O	1.781674	-0.298376	-0.462691
O22	O	2.281674	0.201624	0.037309
O23	O	1.591741	-0.298277	-0.652657
O24	O	2.091741	0.201723	-0.152657
O25	O	1.825335	-0.388199	-1.030147
O26	O	2.325335	0.111801	-0.530147
O27	O	1.603697	-0.416553	-0.808545
O28	O	2.103697	0.083447	-0.308545
O29	O	1.981310	-0.248439	-1.042163
O30	O	2.481310	0.251561	-0.542163
O31	O	1.953321	-0.572829	-0.680386
O32	O	2.453321	-0.072829	-0.180386
O33	O	1.809411	-0.572754	-0.824321
O34	O	2.309411	-0.072754	-0.324321
C35	C	1.551661	-0.360578	-0.727061
C36	C	2.051661	0.139422	-0.227061
C37	C	1.410571	-0.370287	-0.716246
C38	C	1.910571	0.129713	-0.216246
C39	C	1.881386	-0.610910	-0.752375
C40	C	2.381386	-0.110910	-0.252375
C41	C	1.881472	-0.727679	-0.752410
C42	C	2.381472	-0.227679	-0.252410
C43	C	2.031456	-0.727687	-0.602662
C44	C	2.531456	-0.227687	-0.102662
C45	C	2.106482	-0.782549	-0.527806
C46	C	2.606482	-0.282549	-0.027806
C47	C	2.106559	-0.892263	-0.527846
C48	C	2.606559	-0.392263	-0.027846
C49	C	2.031605	-0.947117	-0.602754
C50	C	2.531605	-0.447117	-0.102754
C51	C	1.956579	-0.892256	-0.677610
C52	C	2.456579	-0.392256	-0.177610
C53	C	1.956507	-0.782540	-0.677559
C54	C	2.456507	-0.282540	-0.177559
C55	C	1.806603	-0.892247	-0.827363
C56	C	2.306603	-0.392247	-0.327363
C57	C	1.806518	-0.782534	-0.827318
C58	C	2.306518	-0.282534	-0.327318
C59	C	1.731649	-0.947102	-0.902271
C60	C	2.231649	-0.447102	-0.402271
C61	C	1.656614	-0.892241	-0.977122
C62	C	2.156614	-0.392241	-0.477122
C63	C	1.656539	-0.782521	-0.977078
C64	C	2.156539	-0.282521	-0.477078
C65	C	1.731491	-0.727672	-0.902174
C66	C	2.231491	-0.227672	-0.402174
C67	C	2.212557	-0.315205	-0.777861
C68	C	2.712557	0.184795	-0.277861
C69	C	2.353649	-0.305519	-0.788706
C70	C	2.853649	0.194481	-0.288706
C71	C	1.906970	-0.315046	-1.083501
C72	C	2.406970	0.184954	-0.583501
C73	C	1.917839	-0.305292	-1.224591
C74	C	2.417839	0.194708	-0.724591
C75	C	1.881580	-0.063890	-0.752478
C76	C	2.381580	0.436110	-0.252478
C77	C	1.881630	0.052891	-0.752507
C78	C	2.381630	0.552891	-0.252507
C79	C	1.856132	-0.360655	-0.422615
C80	C	2.356132	0.139345	0.077385
C81	C	1.845509	-0.370096	-0.281544
C82	C	2.345509	0.129904	0.218456
H83	H	1.351361	-0.433171	-0.645927
H84	H	1.851361	0.066829	-0.145927
H85	H	2.031383	-0.638354	-0.602604
H86	H	2.531383	-0.138354	-0.102604
H87	H	1.775274	-0.433043	-1.222365
H88	H	2.275274	0.066957	-0.722365
H89	H	2.167659	-0.936930	-0.466898
H90	H	2.667659	-0.436930	0.033102
H91	H	1.988088	-0.242348	-1.283778
H92	H	2.488088	0.257652	-0.783778
H93	H	1.412852	-0.242634	-0.859013
H94	H	1.912852	0.257366	-0.359013
H95	H	1.731723	-1.036436	-0.902304
H96	H	2.231723	-0.536436	-0.402304
Br97	Br	2.208212	-0.708099	-0.426160
Br98	Br	2.708212	-0.208099	0.073840
H99	H	2.031686	-1.036451	-0.602791
H100	H	2.531686	-0.536451	-0.102791
H101	H	1.595599	-0.936912	-1.038112
H102	H	2.095599	-0.436912	-0.538112
Br103	Br	1.554723	-0.708073	-1.078687
Br104	Br	2.054723	-0.208073	-0.578687
H105	H	1.731429	-0.638339	-0.902122
H106	H	2.231429	-0.138339	-0.402122
