data_functionalizedCrystal
_audit_creation_method	'MofGen! by Chris Wilmer'
_symmetry_space_group_name_H-M	'P1'
_symmetry_Int_Tables_number	1
_symmetry_cell_setting	triclinic
loop_
_symmetry_equiv_pos_as_xyz
  x,y,z
_cell_length_a	6.817900
_cell_length_b	17.982783
_cell_length_c	19.453114
_cell_angle_alpha	96.125467
_cell_angle_beta	101.709288
_cell_angle_gamma	102.448572
loop_
_atom_site_label
_atom_site_type_symbol
_atom_site_fract_x
_atom_site_fract_y
_atom_site_fract_z
V1	V	-4.001665	-0.106206	-0.219293
O2	O	-3.994950	0.004287	-0.214818
O3	O	-3.948263	-0.209804	-0.218081
O4	O	-3.944642	-0.104931	-0.314802
O5	O	-3.998596	-0.101312	-0.117428
V6	V	-4.487059	-0.092948	-0.207074
O7	O	-4.258820	-0.135290	-0.246096
O8	O	-4.680101	-0.063864	-0.180271
O9	O	-4.317255	0.010650	-0.208285
O10	O	-4.611171	-0.203441	-0.211548
O11	O	-4.607525	-0.097842	-0.308939
O12	O	-4.320876	-0.094223	-0.111564
C13	C	-3.792326	-0.235048	-0.214697
C14	C	-3.829892	-0.319743	-0.214343
C15	C	-3.813685	-0.348419	-0.149824
C16	C	-3.849002	-0.428000	-0.149494
C17	C	-3.900512	-0.478902	-0.213683
C18	C	-3.916726	-0.450221	-0.278208
C19	C	-3.881423	-0.370642	-0.278537
C20	C	-4.059102	-0.771155	-0.276881
C21	C	-4.094398	-0.850738	-0.276546
C22	C	-4.026680	-0.828512	-0.147837
C23	C	-3.991377	-0.748933	-0.148167
C24	C	-4.007604	-0.720259	-0.212691
C25	C	-3.969313	-0.633969	-0.213048
C26	C	-3.938789	-0.565191	-0.213327
C27	C	-3.787706	-0.101270	-0.338073
C28	C	-3.822334	-0.100913	-0.416154
C29	C	-4.020199	-0.104569	-0.456421
C30	C	-4.052736	-0.104234	-0.529787
C31	C	-3.887403	-0.100257	-0.562885
C32	C	-3.689508	-0.096596	-0.522608
C33	C	-3.656973	-0.096924	-0.449242
N34	N	-3.825717	-0.140493	-0.681785
N35	N	-3.856637	-0.140183	-0.751480
C36	C	-3.985417	-0.099267	-0.783930
N37	N	-4.082145	-0.058682	-0.744055
N38	N	-4.051230	-0.058995	-0.674355
C39	C	-3.922662	-0.099900	-0.642437
C40	C	-4.218575	-0.102558	-0.903749
C41	C	-4.251102	-0.102217	-0.977116
C42	C	-3.887872	-0.094587	-0.969936
C43	C	-3.855347	-0.094920	-0.896570
C44	C	-4.020708	-0.098909	-0.863482
C45	C	-4.136534	0.035890	-0.211668
C46	C	-4.078205	0.120584	-0.212026
C47	C	-4.141154	-0.097886	-0.088290
C48	C	-4.085765	-0.098239	-0.010208
H49	H	-4.136344	-0.892183	-0.328820
O50	O	-3.464753	-0.093268	-0.410066
C51	C	-3.183187	-0.022954	-0.313295
C52	C	-3.400839	-0.026971	-0.357622
H53	H	-3.131463	0.030634	-0.270875
H54	H	-3.070447	-0.020011	-0.349496
H55	H	-3.186583	-0.076552	-0.286667
H56	H	-3.397644	0.026614	-0.384256
H57	H	-3.513488	-0.029952	-0.321387
H58	H	-3.554894	-0.093355	-0.549560
O59	O	-4.379191	-0.106559	-0.871587
C60	C	-4.587281	-0.177680	-0.802597
C61	C	-4.405375	-0.173254	-0.839002
H62	H	-4.608481	-0.231590	-0.776230
H63	H	-4.734386	-0.180279	-0.843958
H64	H	-4.553545	-0.124405	-0.760608
H65	H	-4.438911	-0.226515	-0.880987
H66	H	-4.258327	-0.170617	-0.797599
H67	H	-4.412229	-0.105189	-1.009900
O68	O	-3.727368	-0.090622	-1.002142
C69	C	-3.519112	-0.019445	-1.071052
C70	C	-3.700963	-0.023856	-1.034622
H71	H	-3.497679	0.034540	-1.097309
H72	H	-3.552776	-0.072656	-1.113110
H73	H	-3.372148	-0.016929	-1.029658
H74	H	-3.848005	-0.026346	-1.075964
H75	H	-3.667122	0.029354	-0.992552
H76	H	-3.958683	-0.491673	-0.330473
O77	O	-3.897160	-0.342911	-0.341273
C78	C	-3.968185	-0.373353	-0.468907
C79	C	-3.950369	-0.404860	-0.397908
H80	H	-4.011248	-0.423424	-0.514716
H81	H	-3.813932	-0.333692	-0.469630
H82	H	-4.092717	-0.339612	-0.474936
H83	H	-3.825925	-0.438635	-0.391832
H84	H	-4.104709	-0.444480	-0.397216
H85	H	-4.154851	-0.107815	-0.429485
O86	O	-3.663153	-0.091285	-0.857389
C87	C	-3.381582	-0.021006	-0.760604
C88	C	-3.599206	-0.024994	-0.804938
H89	H	-3.329832	0.032577	-0.718178
H90	H	-3.268826	-0.018073	-0.796799
H91	H	-3.385042	-0.074611	-0.733983
H92	H	-3.595947	0.028597	-0.831566
H93	H	-3.711872	-0.027966	-0.768710
H94	H	-3.771725	-0.306978	-0.097552
O95	O	-4.074841	-0.743433	-0.339617
C96	C	-4.145832	-0.773887	-0.467250
C97	C	-4.128037	-0.805387	-0.396248
H98	H	-4.188885	-0.823961	-0.513055
H99	H	-3.991575	-0.734227	-0.467971
H100	H	-4.270364	-0.740146	-0.473288
H101	H	-4.003593	-0.839163	-0.390165
H102	H	-4.282381	-0.845006	-0.395559
H103	H	-3.835807	-0.451343	-0.096956
H104	H	-3.949425	-0.707490	-0.095896
O105	O	-4.244912	-0.107893	-0.569009
C106	C	-4.526531	-0.178345	-0.665701
C107	C	-4.308877	-0.174281	-0.621350
H108	H	-4.578331	-0.232024	-0.708020
H109	H	-4.523380	-0.124829	-0.692442
H110	H	-4.639085	-0.181215	-0.629436
H111	H	-4.196201	-0.171436	-0.657566
H112	H	-4.312196	-0.227797	-0.594601
H113	H	-4.013478	-0.851867	-0.095299
