data_functionalizedCrystal
_audit_creation_method	'MofGen! by Chris Wilmer'
_symmetry_space_group_name_H-M	'P1'
_symmetry_Int_Tables_number	1
_symmetry_cell_setting	triclinic
loop_
_symmetry_equiv_pos_as_xyz
  x,y,z
_cell_length_a	10.489716
_cell_length_b	10.489746
_cell_length_c	9.616153
_cell_angle_alpha	89.996040
_cell_angle_beta	90.004189
_cell_angle_gamma	95.464781
loop_
_atom_site_label
_atom_site_type_symbol
_atom_site_fract_x
_atom_site_fract_y
_atom_site_fract_z
O1	O	-0.179996	1.694039	-0.115559
O2	O	-0.196882	1.322843	-0.115583
O3	O	-0.002840	1.516903	-0.115554
O4	O	-0.374039	1.499978	-0.115588
O5	O	-0.002844	1.516877	0.115737
O6	O	-0.196886	1.322816	0.115709
O7	O	-0.180000	1.694012	0.115732
Zn8	Zn	-0.188444	1.508410	0.152443
Zn9	Zn	-0.188439	1.508445	-0.152293
O10	O	-0.374043	1.499951	0.115704
C11	C	-0.195608	1.275298	0.000060
C12	C	-0.191788	1.133669	0.000051
C13	C	-0.066063	0.980822	0.000082
C14	C	-0.128922	1.058197	0.114111
C15	C	-0.128948	1.058179	-0.113924
C16	C	-0.247905	0.958695	0.114209
C17	C	-0.247913	0.958672	-0.113928
C18	C	-0.310860	1.035998	0.000129
C19	C	-0.421573	1.501236	0.000054
C20	C	-0.563204	1.505041	0.000041
C21	C	-0.660876	1.386037	0.000053
C22	C	-0.738250	1.448935	-0.113970
C23	C	-0.738189	1.448935	0.114065
C24	C	-0.638713	1.567889	-0.114076
C25	C	-0.638647	1.567872	0.114061
C26	C	-0.715972	1.630858	0.000011
C27	C	0.044690	1.515618	0.000093
C28	C	0.186322	1.511814	0.000096
C29	C	-0.181275	1.741557	0.000087
C30	C	-0.185095	1.883186	0.000086
N31	N	-0.188447	1.508395	0.360417
N32	N	-0.188426	1.508470	-0.360268
C33	C	-0.291898	1.404268	0.580772
C34	C	-0.292286	1.404497	0.419605
C35	C	-0.218745	1.641760	0.418872
C36	C	-0.219477	1.641193	0.580090
C37	C	-0.054358	1.480484	0.580339
C38	C	-0.055227	1.477423	0.419112
H39	H	-0.636199	1.282523	-0.000072
C40	C	-0.061041	1.116929	0.244362
N41	N	-0.009905	1.161162	0.342462
C42	C	0.073760	0.947425	0.000253
N43	N	0.179071	0.922266	0.000389
H44	H	-0.025527	1.385289	0.621073
C45	C	-0.580233	1.635720	-0.244475
N46	N	-0.536184	1.686803	-0.342693
C47	C	-0.579833	1.635656	0.244316
N48	N	-0.535531	1.686700	0.342435
C49	C	-0.796890	1.381024	0.244314
N50	N	-0.841099	1.329865	0.342412
C51	C	-0.267677	1.270619	0.366212
N52	N	-0.249150	1.169775	0.326004
H53	H	-0.317289	1.665668	0.617671
H54	H	-0.032262	1.379313	0.380908
H55	H	-0.781753	1.398711	-0.210382
C56	C	-0.267670	1.269979	0.633230
N57	N	-0.249425	1.168830	0.672759
H58	H	-0.740404	1.734449	-0.000040
C59	C	0.049688	1.583115	0.631857
N60	N	0.128046	1.660419	0.670670
C61	C	-0.315738	0.900211	0.244603
N62	N	-0.366823	0.856158	0.342817
H63	H	-0.390801	1.422024	0.621263
H64	H	-0.391752	1.422486	0.381017
C65	C	0.053795	1.573179	0.364721
N66	N	0.135906	1.645320	0.323765
C67	C	-0.121656	1.749202	0.632781
N68	N	-0.047994	1.830567	0.672461
H69	H	-0.414440	1.060465	0.000182
C70	C	-0.119716	1.749077	0.367073
N71	N	-0.045126	1.829906	0.328055
H72	H	-0.078674	1.101638	-0.210329
C73	C	-0.315729	0.899903	-0.244188
N74	N	-0.366797	0.855635	-0.342310
H75	H	-0.315452	1.666781	0.378475
