data_functionalizedCrystal
_audit_creation_method	'MofGen! by Chris Wilmer'
_symmetry_space_group_name_H-M	'P1'
_symmetry_Int_Tables_number	1
_symmetry_cell_setting	triclinic
loop_
_symmetry_equiv_pos_as_xyz
  x,y,z
_cell_length_a	30.700810
_cell_length_b	30.711328
_cell_length_c	30.700791
_cell_angle_alpha	59.998524
_cell_angle_beta	89.999202
_cell_angle_gamma	60.000280
loop_
_atom_site_label
_atom_site_type_symbol
_atom_site_fract_x
_atom_site_fract_y
_atom_site_fract_z
O1	O	-0.298812	0.311650	-0.683013
O2	O	-0.235470	0.222487	-0.530478
O3	O	-0.235471	0.311649	-0.619669
O4	O	-0.298812	0.222487	-0.593822
O5	O	-0.307917	0.384069	-0.619669
O6	O	-0.307916	0.294906	-0.530478
O7	O	-0.371258	0.384069	-0.683013
Cu8	Cu	-0.346202	0.346100	-0.606746
Cu9	Cu	-0.260526	0.260456	-0.606746
O10	O	-0.371258	0.294907	-0.593822
C11	C	-0.234803	0.469467	-0.625552
C12	C	-0.261682	0.523206	-0.621853
C13	C	-0.182382	0.443390	-0.625920
C14	C	-0.234803	0.390618	-0.625552
C15	C	-0.261682	0.360051	-0.621853
C16	C	-0.182382	0.364661	-0.625920
C17	C	-0.155927	0.390619	-0.625552
C18	C	-0.098471	0.360052	-0.621853
C19	C	-0.261138	0.443390	-0.625920
C20	C	-0.496429	0.535509	-1.110658
C21	C	-0.548850	0.588281	-1.136994
C22	C	-0.496430	0.535507	-1.031781
C23	C	-0.548851	0.588279	-1.058236
C24	C	-0.575305	0.614357	-1.110658
C25	C	-0.470094	0.509551	-1.058236
C26	C	-0.368663	0.393516	-1.158823
C27	C	-0.343661	0.364488	-1.183650
C28	C	-0.370612	0.389406	-1.235597
C29	C	-0.343509	0.357928	-1.262515
C30	C	-0.422566	0.443357	-1.262718
C31	C	-0.447561	0.472385	-1.237894
C32	C	-0.420607	0.447462	-1.185944
C33	C	-0.765514	0.790227	-1.238425
C34	C	-0.819379	0.840037	-1.263427
C35	C	-0.846403	0.865022	-1.236476
C36	C	-0.904808	0.919023	-1.263577
C37	C	-0.819555	0.840197	-1.184522
C38	C	-0.765690	0.790395	-1.159525
C39	C	-0.738673	0.765410	-1.186482
C40	C	-0.368667	0.393509	-0.841569
C41	C	-0.343669	0.364474	-0.787701
C42	C	-0.370622	0.389390	-0.760679
C43	C	-0.343520	0.357910	-0.702271
C44	C	-0.422573	0.443336	-0.787526
C45	C	-0.447569	0.472366	-0.841392
C46	C	-0.420610	0.447450	-0.868411
C47	C	-0.447717	0.478940	-1.159028
C48	C	-0.469324	0.504031	-1.137574
C49	C	-0.469326	0.504027	-0.973375
C50	C	-0.447720	0.478935	-0.926819
C51	C	-0.633710	0.668358	-1.137763
C52	C	-0.680265	0.711405	-1.159370
C53	C	-0.574970	0.071057	-0.567514
C54	C	-0.548516	0.018285	-0.567146
C55	C	-0.496094	0.071056	-0.567514
C56	C	-0.469759	0.018285	-0.567146
C57	C	-0.496094	-0.007792	-0.567514
C58	C	-0.548515	0.097014	-0.567146
C59	C	-0.765178	0.213052	-0.581795
C60	C	-0.819043	0.242082	-0.585832
C61	C	-0.846065	0.217165	-0.587859
C62	C	-0.904472	0.248644	-0.592247
C63	C	-0.819217	0.163215	-0.585844
C64	C	-0.765354	0.134185	-0.581799
C65	C	-0.738334	0.159107	-0.579775
C66	C	-0.447931	-0.183660	-0.581795
C67	C	-0.423105	-0.233471	-0.585832
C68	C	-0.371161	-0.258457	-0.587861
C69	C	-0.344241	-0.312458	-0.592247
C70	C	-0.344040	-0.233632	-0.585846
C71	C	-0.368861	-0.183831	-0.581799
C72	C	-0.420813	-0.158845	-0.579777
C73	C	-0.447928	0.213051	-0.581795
C74	C	-0.423103	0.242085	-0.585839
C75	C	-0.371157	0.217168	-0.587866
C76	C	-0.344239	0.248647	-0.592254
C77	C	-0.344039	0.163222	-0.585853
C78	C	-0.368866	0.134193	-0.581811
C79	C	-0.420810	0.159110	-0.579777
C80	C	-0.679930	0.127628	-0.575394
C81	C	-0.633375	0.102536	-0.571900
C82	C	-0.469178	0.102535	-0.571900
C83	C	-0.447723	0.127627	-0.575394
C84	C	-0.469179	-0.061793	-0.571900
C85	C	-0.447725	-0.104839	-0.575394
O86	O	0.076268	0.222489	-0.593822
O87	O	-0.076265	0.311651	-0.619669
O88	O	0.012925	0.222488	-0.530478
O89	O	-0.012922	0.311652	-0.683014
O90	O	0.012926	0.294908	-0.530478
O91	O	-0.076263	0.384070	-0.619669
O92	O	0.076269	0.294909	-0.593822
Cu93	Cu	0.000003	0.346102	-0.606746
Cu94	Cu	0.000001	0.260457	-0.606746
O95	O	-0.012920	0.384071	-0.683013
O96	O	-0.298818	0.669866	-0.593822
O97	O	-0.235472	0.543224	-0.619669
O98	O	-0.235473	0.543221	-0.530478
O99	O	-0.298816	0.669868	-0.683013
O100	O	-0.307918	0.543219	-0.530478
O101	O	-0.307916	0.543222	-0.619669
O102	O	-0.371262	0.669863	-0.593822
Cu103	Cu	-0.346204	0.606542	-0.606746
Cu104	Cu	-0.260530	0.606545	-0.606746
O105	O	-0.371260	0.669866	-0.683013
O106	O	-1.076604	1.063329	-1.299174
O107	O	-0.924068	0.936700	-1.235836
O108	O	-1.013250	0.936685	-1.235830
O109	O	-0.987422	1.063345	-1.299180
O110	O	-1.013249	0.936687	-1.308277
O111	O	-0.924067	0.936703	-1.308283
O112	O	-1.076603	1.063331	-1.371621
Cu113	Cu	-1.000335	1.000017	-1.346567
Cu114	Cu	-1.000336	1.000014	-1.260890
O115	O	-0.987420	1.063347	-1.371627
O116	O	-0.307912	0.294913	-1.371273
O117	O	-0.371251	0.384081	-1.307938
O118	O	-0.371247	0.294912	-1.307922
O119	O	-0.307916	0.384082	-1.371289
O120	O	-0.298798	0.222498	-1.235480
O121	O	-0.298802	0.311667	-1.235495
O122	O	-0.235462	0.222499	-1.298831
Cu123	Cu	-0.260517	0.260471	-1.260549
Cu124	Cu	-0.346197	0.346109	-1.346220
O125	O	-0.235466	0.311668	-1.298847
C126	C	-0.155921	0.137097	-0.371941
C127	C	-0.098464	0.083361	-0.345064
C128	C	-0.182375	0.163176	-0.345607
C129	C	-0.234800	0.215942	-0.450816
C130	C	-0.261680	0.246506	-0.508271
C131	C	-0.261134	0.241900	-0.424361
C132	C	-0.234797	0.215946	-0.371941
C133	C	-0.261675	0.246514	-0.345064
C134	C	-0.182377	0.163172	-0.424361
C135	C	0.018809	0.215933	-0.371935
C136	C	0.015111	0.246498	-0.345056
C137	C	0.019176	0.163161	-0.345601
C138	C	0.018808	0.215937	-0.450813
C139	C	0.015109	0.246506	-0.508270
C140	C	0.019175	0.163165	-0.424359
C141	C	0.018806	0.137086	-0.371937
C142	C	0.015106	0.083347	-0.345059
C143	C	0.019177	0.241892	-0.424357
C144	C	-0.234808	0.390611	-0.371937
C145	C	-0.261686	0.360043	-0.345059
C146	C	-0.182387	0.364653	-0.345601
C147	C	-0.234806	0.469462	-0.450813
C148	C	-0.261684	0.523202	-0.508270
C149	C	-0.182386	0.443384	-0.424357
C150	C	-0.155932	0.390611	-0.371935
C151	C	-0.098476	0.360044	-0.345055
C152	C	-0.261142	0.443384	-0.424359
C153	C	-0.039226	0.614013	-1.110659
C154	C	-0.039596	0.587936	-1.136994
C155	C	-0.039227	0.535164	-1.031781
C156	C	-0.039597	0.509206	-1.058235
C157	C	-0.039228	0.535164	-1.110657
C158	C	-0.039595	0.587936	-1.058237
C159	C	-0.024943	0.789882	-1.158829
C160	C	-0.020904	0.839693	-1.183656
C161	C	-0.018877	0.864679	-1.235604
C162	C	-0.014488	0.918680	-1.262523
C163	C	-0.020893	0.839854	-1.262724
C164	C	-0.024939	0.790053	-1.237898
C165	C	-0.026963	0.765067	-1.185948
C166	C	-0.024950	0.472741	-1.238421
C167	C	-0.020914	0.443887	-1.263421
C168	C	-0.018886	0.389932	-1.236470
C169	C	-0.014501	0.358637	-1.263569
C170	C	-0.020901	0.364835	-1.184516
C171	C	-0.024947	0.393694	-1.159519
C172	C	-0.026968	0.447649	-1.186478
C173	C	-0.024947	0.472739	-0.841570
C174	C	-0.020903	0.443880	-0.787702
C175	C	-0.018877	0.389925	-0.760679
C176	C	-0.014489	0.358630	-0.702271
C177	C	-0.020891	0.364829	-0.787525
C178	C	-0.024933	0.393688	-0.841391
C179	C	-0.026965	0.447647	-0.868411
C180	C	-0.031345	0.711061	-1.159032
C181	C	-0.034840	0.668014	-1.137576
C182	C	-0.034842	0.503873	-0.973375
C183	C	-0.031348	0.478933	-0.926820
C184	C	-0.034844	0.503874	-1.137761
C185	C	-0.031350	0.478934	-1.159367
O186	O	-0.012933	0.311642	-0.235481
O187	O	0.012927	0.222478	-0.298820
O188	O	-0.076268	0.311637	-0.298826
O189	O	0.076262	0.222483	-0.235475
O190	O	-0.076267	0.384059	-0.371272
O191	O	0.012928	0.294900	-0.371266
O192	O	-0.012932	0.384064	-0.307927
Cu193	Cu	-0.000002	0.346095	-0.346211
Cu194	Cu	-0.000003	0.260447	-0.260536
O195	O	0.076263	0.294905	-0.307920
C196	C	-0.574987	1.071094	-1.110648
C197	C	-0.548540	1.097066	-1.136979
C198	C	-0.496112	0.992249	-1.031771
C199	C	-0.469785	1.018342	-1.058221
C200	C	-0.496123	1.071119	-1.110641
C201	C	-0.548528	1.018317	-1.058228
C202	C	-0.765177	1.133470	-1.158826
C203	C	-0.819038	1.162314	-1.183655
C204	C	-0.846064	1.216274	-1.235600
C205	C	-0.904467	1.247558	-1.262521
C206	C	-0.819223	1.241386	-1.262716
C207	C	-0.765363	1.212538	-1.237890
C208	C	-0.738340	1.158578	-1.185942
C209	C	-0.447989	1.213164	-1.238389
C210	C	-0.423171	1.242208	-1.263386
C211	C	-0.371232	1.217305	-1.236433
C212	C	-0.344321	1.248795	-1.263527
C213	C	-0.344108	1.163349	-1.184480
C214	C	-0.368921	1.134301	-1.159488
C215	C	-0.420867	1.159217	-1.186449
C216	C	-0.447932	0.816347	-0.841568
C217	C	-0.423105	0.766535	-0.787701
C218	C	-0.371163	0.741559	-0.760677
C219	C	-0.344243	0.687552	-0.702270
C220	C	-0.344053	0.766399	-0.787519
C221	C	-0.368882	0.816211	-0.841383
C222	C	-0.420821	0.841178	-0.868406
C223	C	-0.679939	1.127303	-1.159024
C224	C	-0.633388	1.102372	-1.137567
C225	C	-0.469194	0.938242	-0.973366
C226	C	-0.447737	0.895190	-0.926812
C227	C	-0.469217	1.102613	-1.137740
C228	C	-0.447770	1.127718	-1.159343
H229	H	-0.570087	0.610104	-1.180066
O230	O	-0.154261	0.472324	-0.626744
H231	H	-0.113296	0.445320	-0.626958
H232	H	-0.161154	0.322195	-0.302525
O233	O	-0.154241	0.134268	-0.288555
H234	H	-0.181464	0.161282	-0.274608
H235	H	0.019772	0.284356	-0.445594
H236	H	-0.445190	-0.253679	-0.587473
O237	O	-0.154248	0.472292	-0.452484
H238	H	-0.181462	0.513444	-0.493458
O239	O	-0.318195	0.472302	-0.452497
H240	H	-0.332147	0.445288	-0.425282
H241	H	-0.040196	0.466746	-1.036995
O242	O	-0.040378	0.616839	-1.194046
H243	H	-0.040560	0.657984	-1.207995
H244	H	0.019765	0.141345	-0.445602
O245	O	-0.040382	0.616842	-1.030100
H246	H	-0.040573	0.657993	-1.057317
O247	O	-0.154251	0.134264	-0.452498
H248	H	-0.113276	0.093114	-0.425283
O249	O	-0.318191	0.472295	-0.626708
H250	H	-0.332141	0.513446	-0.626899
H251	H	-0.304206	0.284363	-0.445602
H252	H	-0.444520	0.463622	-0.765521
H253	H	0.019769	0.141337	-0.302529
O254	O	-0.576987	0.617186	-1.030102
H255	H	-0.617959	0.658337	-1.057323
H256	H	-0.026598	0.516673	-0.863567
O257	O	-0.018734	0.470948	-0.758747
H258	H	-0.020831	0.513320	-0.786588
H259	H	-0.427024	0.467084	-1.036997
H260	H	-0.840888	1.141866	-1.161572
O261	O	-0.287633	0.306298	-0.758746
H262	H	-0.273086	0.293856	-0.786587
O263	O	-0.027137	0.762941	-1.102803
H264	H	-0.025065	0.788575	-1.088120
O265	O	-0.288010	-0.260578	-0.588022
H266	H	-0.260572	-0.277562	-0.551174
H267	H	-0.026600	0.516674	-1.260375
O268	O	-0.018723	0.866462	-1.154407
H269	H	-0.020805	0.840717	-1.114113
H270	H	-0.019246	0.860204	-1.305020
H271	H	-0.346776	-0.163625	-0.580155
H272	H	-0.026583	0.769846	-1.259983
H273	H	-0.301814	1.143068	-1.162537
O274	O	-0.018731	0.470946	-1.319450
H275	H	-0.020812	0.513307	-1.333991
H276	H	-0.301740	0.142934	-0.587504
H277	H	-0.841235	0.860244	-1.305726
O278	O	-0.847996	0.300272	-0.588015
H279	H	-0.862976	0.292586	-0.553787
H280	H	-0.346714	0.373214	-0.863564
O281	O	-0.339571	0.366673	-1.102814
H282	H	-0.299239	0.324301	-1.088137
H283	H	-0.161142	0.322191	-0.626505
H284	H	-0.019257	0.320907	-1.162573
H285	H	-0.026591	0.373259	-1.117220
H286	H	-0.346781	0.090268	-0.580170
H287	H	-0.026582	0.373256	-0.863248
H288	H	-0.019244	0.320895	-0.765520
H289	H	-0.426730	0.996551	-1.036963
O290	O	-0.452348	0.300266	-0.588008
H291	H	-0.492637	0.312711	-0.585911
O292	O	-0.452351	0.739754	-0.758751
H293	H	-0.426364	0.700928	-0.716754
O294	O	-0.576673	1.153321	-1.194030
H295	H	-0.617645	1.167072	-1.207980
H296	H	-0.301362	0.320561	-1.161563
H297	H	-0.569765	0.996485	-1.036993
O298	O	-0.503954	0.843284	-0.870715
H299	H	-0.518638	0.817651	-0.843000
O300	O	-0.736030	1.075268	-1.102801
H301	H	-0.763738	1.062650	-1.088120
O302	O	-0.451637	0.470229	-1.318742
H303	H	-0.425531	0.440977	-1.331447
O304	O	-0.503593	0.530567	-1.267139
H305	H	-0.518138	0.543015	-1.307429
H306	H	-0.841230	1.285318	-1.305011
O307	O	-0.736415	1.239621	-1.267130
H308	H	-0.764255	1.281992	-1.307419
H309	H	-0.490283	1.233452	-1.260345
O310	O	-0.339643	0.843003	-0.870336
H311	H	-0.302662	0.806911	-0.869519
H312	H	-0.445259	1.286137	-1.305684
H313	H	-0.346832	1.090370	-1.117191
H314	H	-0.301773	0.746091	-0.765501
H315	H	-0.743519	0.769890	-1.260378
H316	H	-0.743834	0.770187	-1.117225
O317	O	-0.848695	0.867140	-1.155449
H318	H	-0.890662	0.905938	-1.181555
O319	O	-0.848358	0.136341	-0.588032
H320	H	-0.890325	0.165593	-0.591188
O321	O	-0.503601	0.530548	-0.870349
H322	H	-0.518143	0.542999	-0.842512
H323	H	-0.743497	0.090258	-0.580155
H324	H	-0.569754	-0.003544	-0.566543
O325	O	-0.412706	-0.010631	-0.566357
H326	H	-0.398755	0.016383	-0.566166
H327	H	-0.569755	0.139477	-0.566551
H328	H	-0.490220	0.233339	-0.580131
H329	H	-0.743183	0.233349	-0.580145
O330	O	-0.503958	-0.156715	-0.579606
H331	H	-0.518642	-0.182347	-0.581679
