data_functionalizedCrystal
_audit_creation_method	'MofGen! by Chris Wilmer'
_symmetry_space_group_name_H-M	'P1'
_symmetry_Int_Tables_number	1
_symmetry_cell_setting	triclinic
loop_
_symmetry_equiv_pos_as_xyz
  x,y,z
_cell_length_a	6.394984
_cell_length_b	17.699077
_cell_length_c	16.176319
_cell_angle_alpha	89.993140
_cell_angle_beta	89.994826
_cell_angle_gamma	84.887964
loop_
_atom_site_label
_atom_site_type_symbol
_atom_site_fract_x
_atom_site_fract_y
_atom_site_fract_z
O1	O	0.264073	1.006775	-0.068733
O2	O	0.298450	0.786746	-0.068737
O3	O	-0.022820	0.899886	-0.068732
O4	O	0.585342	0.893635	-0.068737
O5	O	-0.022840	0.899869	0.068761
O6	O	0.298430	0.786730	0.068757
O7	O	0.264052	1.006758	0.068760
Cu8	Cu	0.281239	0.896743	0.081313
Cu9	Cu	0.281263	0.896762	-0.081289
O10	O	0.585322	0.893619	0.068756
C11	C	0.297210	0.758528	0.000009
C12	C	0.293521	0.674472	0.000008
C13	C	0.291772	0.634978	0.074956
C14	C	0.288272	0.556000	0.074957
C15	C	0.286537	0.516517	0.000009
C16	C	0.288280	0.556017	-0.074945
C17	C	0.291765	0.634994	-0.074945
C18	C	0.274224	0.237510	-0.074947
C19	C	0.270746	0.158527	-0.074941
C20	C	0.270732	0.158516	0.074956
C21	C	0.274216	0.237494	0.074956
C22	C	0.275948	0.276987	0.000002
C23	C	0.279739	0.362624	0.000002
C24	C	0.282761	0.430880	0.000008
C25	C	0.899358	0.898634	0.000017
C26	C	0.663140	0.894868	0.000015
C27	C	0.265292	1.034976	0.000012
C28	C	0.268981	1.119032	0.000008
N29	N	0.281221	0.896735	0.195678
N30	N	0.281265	0.896776	-0.195654
C31	C	0.139021	0.946849	0.238944
C32	C	0.139018	0.946853	0.325491
C33	C	0.281228	0.896745	0.368770
C34	C	0.423435	0.846626	0.325498
C35	C	0.423426	0.846619	0.238953
C36	C	0.423474	0.846652	0.674527
C37	C	0.423477	0.846664	0.761078
C38	C	0.139067	0.946886	0.761065
C39	C	0.139058	0.946879	0.674519
C40	C	0.281256	0.896757	0.631255
C41	C	0.281254	0.896752	0.537411
C42	C	0.281242	0.896753	0.462613
H43	H	0.269331	0.126382	-0.135977
H44	H	0.023274	0.987696	0.796300
H45	H	0.539261	0.805842	0.639307
H46	H	0.286852	0.523863	-0.135970
N47	N	0.293660	0.677556	0.155798
H48	H	0.163623	0.668714	0.188566
H49	H	0.296220	0.733564	0.144361
H50	H	0.539218	0.805824	0.360741
N51	N	0.576854	0.792613	0.807761
H52	H	0.666929	0.760857	0.767222
H53	H	0.496985	0.758407	0.843682
H54	H	0.286813	0.523849	0.135988
H55	H	0.539217	0.805810	0.203726
H56	H	0.023264	0.987684	0.639284
H57	H	0.275640	0.269637	0.135987
H58	H	0.293193	0.667149	-0.135976
N59	N	0.268858	0.115920	0.155802
H60	H	0.269296	0.059795	0.144438
H61	H	0.138570	0.133893	0.188036
H62	H	0.275628	0.269656	-0.135979
H63	H	0.023226	0.987655	0.203712
N64	N	-0.014282	1.000931	0.372158
H65	H	-0.104338	1.032685	0.331608
H66	H	0.065655	1.035137	0.408038
