data_functionalizedCrystal
_audit_creation_method	'MofGen! by Chris Wilmer'
_symmetry_space_group_name_H-M	'P1'
_symmetry_Int_Tables_number	1
_symmetry_cell_setting	triclinic
loop_
_symmetry_equiv_pos_as_xyz
  x,y,z
_cell_length_a	12.759401
_cell_length_b	21.395362
_cell_length_c	21.395355
_cell_angle_alpha	89.979451
_cell_angle_beta	89.978522
_cell_angle_gamma	90.030217
loop_
_atom_site_label
_atom_site_type_symbol
_atom_site_fract_x
_atom_site_fract_y
_atom_site_fract_z
Zn1	Zn	1.606175	-0.249504	-0.354201
Zn2	Zn	1.606014	-0.354264	-0.249420
Zn3	Zn	1.430468	-0.249505	-0.249444
Zn4	Zn	1.430419	-0.354248	-0.354166
O5	O	1.518269	-0.301880	-0.301808
O6	O	1.753174	-0.263407	-0.340307
O7	O	1.582681	-0.340374	-0.161745
O8	O	1.453864	-0.161827	-0.263364
O9	O	1.753056	-0.340373	-0.263324
O10	O	1.582955	-0.161826	-0.340329
O11	O	1.453708	-0.263408	-0.161762
O12	O	1.283440	-0.263393	-0.263330
O13	O	1.453780	-0.340347	-0.441848
O14	O	1.283405	-0.340348	-0.340269
O15	O	1.582907	-0.263392	-0.441874
O16	O	1.582633	-0.441940	-0.263290
O17	O	1.453624	-0.441928	-0.340246
C18	C	1.245302	-0.301869	-0.301799
C19	C	1.128525	-0.301880	-0.301810
C20	C	1.518135	-0.464668	-0.301775
C21	C	1.518173	-0.534309	-0.301783
C22	C	1.585352	-0.566965	-0.341887
C23	C	1.585389	-0.632400	-0.341902
C24	C	1.518258	-0.665177	-0.301802
C25	C	1.451066	-0.632514	-0.261695
C26	C	1.451024	-0.567080	-0.261685
C27	C	1.510080	-0.768878	-0.245364
C28	C	1.510130	-0.834311	-0.245372
C29	C	1.518383	-0.866998	-0.301832
C30	C	1.526608	-0.834245	-0.358286
C31	C	1.526566	-0.768810	-0.358276
C32	C	1.518296	-0.736130	-0.301808
C33	C	1.585606	-0.970607	-0.341957
C34	C	1.585635	-1.036043	-0.341973
C35	C	1.451317	-1.036155	-0.261760
C36	C	1.451282	-0.970720	-0.261749
C37	C	1.518432	-0.937949	-0.301847
C38	C	1.073725	-0.261876	-0.341956
C39	C	0.964001	-0.261882	-0.341960
C40	C	0.963886	-0.341902	-0.261670
C41	C	1.073608	-0.341892	-0.261663
C42	C	0.814115	-0.188037	-0.364493
C43	C	0.759312	-0.148038	-0.404649
C44	C	0.794978	-0.138507	-0.465800
C45	C	0.885445	-0.168983	-0.486808
C46	C	0.940243	-0.208986	-0.446655
C47	C	0.904579	-0.218506	-0.385495
C48	C	1.223496	-0.415739	-0.239137
C49	C	1.278296	-0.455745	-0.198987
C50	C	1.242632	-0.465283	-0.137835
C51	C	1.152161	-0.434818	-0.116829
C52	C	1.097361	-0.394811	-0.156980
C53	C	1.133032	-0.385272	-0.218131
C54	C	1.792302	-0.301892	-0.301817
C55	C	1.909079	-0.301896	-0.301821
C56	C	1.518356	-0.301868	-0.465231
C57	C	1.518393	-0.301862	-0.534872
C58	C	1.518432	-0.138457	-0.301854
C59	C	1.518502	-0.068816	-0.301873
C60	C	1.585627	-0.261790	-0.567600
C61	C	1.585625	-0.261763	-0.633035
C62	C	1.518402	-0.301820	-0.665741
C63	C	1.451155	-0.341895	-0.633005
C64	C	1.451151	-0.341916	-0.567571
C65	C	1.510059	-0.358235	-0.769404
C66	C	1.510071	-0.358215	-0.834837
C67	C	1.518408	-0.301753	-0.867561
C68	C	1.526756	-0.245311	-0.834844
C69	C	1.526752	-0.245332	-0.769410
C70	C	1.518398	-0.301801	-0.736693
C71	C	1.585644	-0.261648	-0.971242
C72	C	1.585635	-0.261620	-1.036678
C73	C	1.451170	-0.341758	-1.036647
C74	C	1.451173	-0.341780	-0.971211
C75	C	1.518416	-0.301726	-0.938513
C76	C	1.518243	-0.301848	-0.139020
C77	C	1.518409	-0.301677	-0.069379
H78	H	1.640027	-0.540285	-0.374538
F79	F	1.657210	-0.218975	-1.071509
F80	F	1.657188	-0.219158	-0.532803
F81	F	1.535634	-0.185216	-0.869666
F82	F	1.535314	-0.733954	-0.418356
F83	F	1.379781	-0.935964	-0.219064
F84	F	1.535396	-0.869027	-0.418379
F85	F	0.736645	-0.095939	-0.508537
H86	H	1.503280	-0.404174	-0.861471
H87	H	1.503356	-0.742269	-0.199384
H88	H	1.396396	-0.374547	-0.540924
H89	H	1.640280	-0.943924	-0.374608
H90	H	1.502989	-0.404201	-0.742766
F91	F	1.501384	-0.869163	-0.185290
H92	H	1.640391	-0.229031	-0.944617
F93	F	1.132168	-0.219290	-0.384682
F94	F	1.379617	-0.384385	-1.071450
F95	F	1.379607	-0.384524	-0.667813
F96	F	1.036519	-0.241420	-0.469009
H97	H	1.396431	-0.374415	-0.944564
F98	F	1.657130	-1.070798	-0.384666
H99	H	0.914471	-0.161224	-0.536606
F100	F	1.300952	-0.507870	-0.095107
H101	H	1.640086	-0.658994	-0.374567
H102	H	1.640373	-0.229128	-0.659687
F103	F	1.379868	-1.071035	-0.219084
F104	F	1.379518	-0.532324	-0.219000
F105	F	1.379615	-0.667398	-0.219021
F106	F	1.114195	-0.444974	-0.051746
F107	F	0.776160	-0.198169	-0.299405
F108	F	1.535631	-0.185263	-0.734593
H109	H	0.685652	-0.123225	-0.387539
F110	F	0.905431	-0.384485	-0.218947
F111	F	1.001089	-0.362374	-0.134617
F112	F	1.261466	-0.405584	-0.304222
H113	H	1.351973	-0.480543	-0.216091
