data_functionalizedCrystal
_audit_creation_method	'MofGen! by Chris Wilmer'
_symmetry_space_group_name_H-M	'P1'
_symmetry_Int_Tables_number	1
_symmetry_cell_setting	triclinic
loop_
_symmetry_equiv_pos_as_xyz
  x,y,z
_cell_length_a	25.639242
_cell_length_b	16.625546
_cell_length_c	16.625539
_cell_angle_alpha	89.969603
_cell_angle_beta	90.029355
_cell_angle_gamma	89.982005
loop_
_atom_site_label
_atom_site_type_symbol
_atom_site_fract_x
_atom_site_fract_y
_atom_site_fract_z
Zn1	Zn	0.799321	0.321096	0.456087
Zn2	Zn	1.132654	0.654430	0.789420
Zn3	Zn	1.465988	0.987763	1.122753
Zn4	Zn	0.799258	0.455939	0.321249
Zn5	Zn	1.132592	0.789273	0.654582
Zn6	Zn	1.465925	1.122606	0.987916
Zn7	Zn	0.711886	0.321114	0.321246
Zn8	Zn	1.045220	0.654447	0.654580
Zn9	Zn	1.378553	0.987781	0.987913
Zn10	Zn	0.711867	0.455880	0.456018
Zn11	Zn	1.045201	0.789213	0.789351
Zn12	Zn	1.378534	1.122547	1.122685
O13	O	0.755583	0.388507	0.388650
O14	O	1.088917	0.721841	0.721983
O15	O	1.422250	1.055174	1.055317
O16	O	0.872478	0.339001	0.438230
O17	O	1.205811	0.672334	0.771563
O18	O	1.539145	1.005668	1.104896
O19	O	0.787650	0.438087	0.208416
O20	O	1.120983	0.771420	0.541749
O21	O	1.454317	1.104753	0.875083
O22	O	0.723519	0.208279	0.339161
O23	O	1.056852	0.541613	0.672494
O24	O	1.390186	0.874946	1.005828
O25	O	0.872432	0.438070	0.339165
O26	O	1.205765	0.771403	0.672498
O27	O	1.539099	1.104736	1.005832
O28	O	0.787757	0.208266	0.438227
O29	O	1.121090	0.541600	0.771561
O30	O	1.454424	0.874933	1.104894
O31	O	0.723458	0.339031	0.208414
O32	O	1.056792	0.672364	0.541748
O33	O	1.390125	1.005698	0.875081
O34	O	0.638719	0.338974	0.339095
O35	O	0.972052	0.672307	0.672428
O36	O	1.305385	1.005640	1.005761
O37	O	0.723486	0.437969	0.568860
O38	O	1.056820	0.771302	0.902193
O39	O	1.390153	1.104635	1.235526
O40	O	0.638705	0.437986	0.438111
O41	O	0.972038	0.771319	0.771444
O42	O	1.305371	1.104652	1.104777
O43	O	0.787738	0.338943	0.568910
O44	O	1.121072	0.672277	0.902243
O45	O	1.454405	1.005610	1.235577
O46	O	0.787631	0.568764	0.339099
O47	O	1.120965	0.902097	0.672432
O48	O	1.454298	1.235431	1.005765
O49	O	0.723426	0.568720	0.438113
O50	O	1.056759	0.902054	0.771446
O51	O	1.390092	1.235387	1.104780
C52	C	0.755534	0.597998	0.388616
C53	C	1.088867	0.931332	0.721950
C54	C	1.422201	1.264665	1.055283
C55	C	0.755560	0.687619	0.388629
C56	C	1.088894	1.020953	0.721962
C57	C	1.422227	1.354286	1.055295
C58	C	0.619741	0.388476	0.388595
C59	C	0.953074	0.721809	0.721929
C60	C	1.286407	1.055142	1.055262
C61	C	0.561627	0.388482	0.388591
C62	C	0.894960	0.721815	0.721924
C63	C	1.228293	1.055148	1.055258
C64	C	0.755617	0.388447	0.598959
C65	C	1.088951	0.721781	0.932292
C66	C	1.422284	1.055114	1.265626
C67	C	0.755632	0.388422	0.688580
C68	C	1.088965	0.721755	1.021914
C69	C	1.422298	1.055088	1.355247
C70	C	0.201265	0.440149	0.440159
C71	C	0.534599	0.773483	0.773492
C72	C	0.867932	1.106816	1.106826
C73	C	0.146661	0.440154	0.440172
C74	C	0.479994	0.773488	0.773505
C75	C	0.813328	1.106821	1.106838
O76	O	0.118425	0.484044	0.483970
O77	O	0.451759	0.817378	0.817303
O78	O	0.785092	1.150711	1.150637
N79	N	0.119344	0.388530	0.388703
N80	N	0.452678	0.721863	0.722036
N81	N	0.786011	1.055196	1.055369
C82	C	0.146635	0.336891	0.337223
C83	C	0.479968	0.670224	0.670557
C84	C	0.813301	1.003558	1.003890
O85	O	0.118386	0.292980	0.293447
O86	O	0.451719	0.626314	0.626780
O87	O	0.785052	0.959647	0.960113
C88	C	0.201238	0.336883	0.337215
C89	C	0.534571	0.670216	0.670549
C90	C	0.867905	1.003549	1.003882
C91	C	0.228552	0.388516	0.388682
C92	C	0.561885	0.721850	0.722015
C93	C	0.895219	1.055183	1.055349
C94	C	0.228579	0.491778	0.491622
C95	C	0.561912	0.825111	0.824955
C96	C	0.895246	1.158445	1.158288
C97	C	0.283180	0.491774	0.491608
C98	C	0.616513	0.825107	0.824941
C99	C	0.949846	1.158441	1.158274
C100	C	0.310466	0.440141	0.440131
C101	C	0.643800	0.773474	0.773464
C102	C	0.977133	1.106808	1.106798
C103	C	0.283152	0.388512	0.388668
C104	C	0.616486	0.721846	0.722001
C105	C	0.949819	1.055179	1.055335
C106	C	0.228528	0.285241	0.285741
C107	C	0.561861	0.618574	0.619074
C108	C	0.895194	0.951907	0.952407
C109	C	0.283135	0.285236	0.285738
C110	C	0.616468	0.618570	0.619071
C111	C	0.949801	0.951903	0.952404
C112	C	0.310448	0.336870	0.337204
C113	C	0.643782	0.670203	0.670537
C114	C	0.977115	1.003537	1.003871
C115	C	0.365040	0.336875	0.337177
C116	C	0.698373	0.670209	0.670510
C117	C	1.031706	1.003542	1.003844
N118	N	0.392356	0.388500	0.388646
N119	N	0.725690	0.721833	0.721979
N120	N	1.059023	1.055166	1.055312
C121	C	0.365070	0.440133	0.440123
C122	C	0.698403	0.773466	0.773456
C123	C	1.031736	1.106799	1.106789
C124	C	0.031964	0.336912	0.337245
C125	C	0.365297	0.670245	0.670579
C126	C	0.698631	1.003578	1.003912
C127	C	-0.022638	0.336923	0.337249
C128	C	0.310695	0.670257	0.670582
C129	C	0.644028	1.003590	1.003915
C130	C	-0.022608	0.440186	0.440198
C131	C	0.310725	0.773519	0.773531
C132	C	0.644058	1.106852	1.106865
C133	C	0.031995	0.440177	0.440190
C134	C	0.365328	0.773511	0.773523
C135	C	0.698662	1.106844	1.106857
C136	C	0.059281	0.388536	0.388714
C137	C	0.392614	0.721869	0.722047
C138	C	0.725947	1.055203	1.055381
C139	C	0.479735	0.440121	0.440089
C140	C	0.813068	0.773454	0.773422
C141	C	1.146401	1.106787	1.106756
C142	C	0.534340	0.440114	0.440068
C143	C	0.867673	0.773448	0.773401
C144	C	1.201007	1.106781	1.106735
C145	C	0.534305	0.336850	0.337122
C146	C	0.867639	0.670183	0.670455
C147	C	1.200972	1.003516	1.003789
C148	C	0.479705	0.336858	0.337140
C149	C	0.813038	0.670192	0.670473
C150	C	1.146371	1.003525	1.003806
C151	C	0.452421	0.388497	0.388630
C152	C	0.785754	0.721830	0.721963
C153	C	1.119087	1.055163	1.055296
O154	O	0.393310	0.293005	0.293403
O155	O	0.726643	0.626338	0.626736
O156	O	1.059976	0.959672	0.960070
O157	O	0.393325	0.484029	0.483900
O158	O	0.726659	0.817362	0.817233
O159	O	1.059992	1.150695	1.150566
C160	C	0.891956	0.388540	0.388705
C161	C	1.225290	0.721873	0.722039
C162	C	1.558623	1.055207	1.055372
C163	C	0.950070	0.388554	0.388729
C164	C	1.283404	0.721887	0.722062
C165	C	1.616737	1.055220	1.055396
C166	C	0.755647	0.178199	0.388702
C167	C	1.088981	0.511532	0.722035
C168	C	1.422314	0.844865	1.055368
C169	C	0.755674	0.088577	0.388724
C170	C	1.089008	0.421911	0.722057
C171	C	1.422341	0.755244	1.055390
C172	C	0.755652	1.015795	0.388713
C173	C	1.088985	1.349128	0.722046
C174	C	1.422318	1.682462	1.055379
C175	C	0.755625	0.924487	0.388692
C176	C	1.088958	1.257820	0.722025
C177	C	1.422291	1.591153	1.055358
C178	C	0.755606	0.851710	0.388670
C179	C	1.088939	1.185043	0.722004
C180	C	1.422272	1.518377	1.055337
C181	C	0.755579	0.760396	0.388650
C182	C	1.088913	1.093729	0.721983
C183	C	1.422246	1.427063	1.055317
C184	C	0.755580	0.388509	0.179159
C185	C	1.088913	0.721842	0.512493
C186	C	1.422246	1.055176	0.845826
C187	C	0.755666	0.388308	0.089539
C188	C	1.089000	0.721641	0.422872
C189	C	1.422333	1.054974	0.756205
C190	C	0.755656	0.388332	1.016756
C191	C	1.088989	0.721665	1.350089
C192	C	1.422323	1.054998	1.683423
C193	C	0.755648	0.388359	0.925448
C194	C	1.088981	0.721693	1.258781
C195	C	1.422314	1.055026	1.592114
C196	C	0.755644	0.388377	0.852671
C197	C	1.088977	0.721711	1.186004
C198	C	1.422311	1.055044	1.519338
C199	C	0.755635	0.388404	0.761357
C200	C	1.088969	0.721737	1.094690
C201	C	1.422302	1.055070	1.428023
H202	H	0.556577	0.482164	0.481979
H203	H	0.889910	0.815497	0.815312
H204	H	1.223243	1.148830	1.148646
H205	H	0.054230	0.482221	0.482100
H206	H	0.387564	0.815554	0.815433
H207	H	0.720897	1.148888	1.148767
H208	H	0.556532	0.294814	0.295208
H209	H	0.889865	0.628147	0.628542
H210	H	1.223199	0.961481	0.961875
H211	H	0.054177	0.294860	0.295322
H212	H	0.387510	0.628193	0.628655
H213	H	0.720843	0.961527	0.961988
H214	H	0.206368	0.533824	0.533545
H215	H	0.539701	0.867157	0.866878
H216	H	0.873035	1.200491	1.200212
H217	H	0.457527	0.482168	0.482019
H218	H	0.790860	0.815501	0.815352
H219	H	1.124193	1.148834	1.148686
H220	H	0.305414	0.533818	0.533519
H221	H	0.638747	0.867151	0.866852
H222	H	0.972080	1.200484	1.200186
H223	H	-0.044873	0.294886	0.295331
H224	H	0.288461	0.628220	0.628665
H225	H	0.621794	0.961553	0.961998
H226	H	0.206298	0.243197	0.243829
H227	H	0.539631	0.576530	0.577162
H228	H	0.872965	0.909864	0.910496
H229	H	-0.044835	0.482226	0.482116
H230	H	0.288498	0.815559	0.815449
H231	H	0.621832	1.148892	1.148783
H232	H	0.305348	0.243178	0.243824
H233	H	0.638681	0.576511	0.577157
H234	H	0.972014	0.909845	0.910490
H235	H	0.457465	0.294816	0.295230
H236	H	0.790798	0.628149	0.628563
H237	H	1.124131	0.961482	0.961896
