data_functionalizedCrystal
_audit_creation_method	'MofGen! by Chris Wilmer'
_symmetry_space_group_name_H-M	'P1'
_symmetry_Int_Tables_number	1
_symmetry_cell_setting	triclinic
loop_
_symmetry_equiv_pos_as_xyz
  x,y,z
_cell_length_a	23.532355
_cell_length_b	27.732025
_cell_length_c	22.010155
_cell_angle_alpha	90.018755
_cell_angle_beta	89.997414
_cell_angle_gamma	82.730483
loop_
_atom_site_label
_atom_site_type_symbol
_atom_site_fract_x
_atom_site_fract_y
_atom_site_fract_z
O1	O	0.755152	0.058553	-0.050424
O2	O	0.589266	0.067070	-0.050441
O3	O	0.677368	-0.007579	-0.050450
O4	O	0.667050	0.133202	-0.050414
O5	O	0.677352	-0.007568	0.050600
O6	O	0.589250	0.067081	0.050610
O7	O	0.755136	0.058564	0.050626
Cu8	Cu	0.672192	0.062824	0.059845
Cu9	Cu	0.672210	0.062810	-0.059659
O10	O	0.667034	0.133213	0.050636
C11	C	0.568042	0.066863	0.000082
C12	C	0.504824	0.066222	0.000075
C13	C	0.112811	0.062207	0.055182
C14	C	0.053413	0.061598	0.055184
O15	O	0.022687	0.061272	0.102029
N16	N	0.023714	0.061290	0.000101
C17	C	0.053417	0.061586	-0.054987
O18	O	0.022701	0.061268	-0.101839
C19	C	0.112814	0.062191	-0.054988
C20	C	0.142509	0.062504	0.000098
C21	C	0.142506	0.062519	0.110263
C22	C	0.201900	0.063129	0.110261
C23	C	0.231598	0.063427	0.055177
C24	C	0.201903	0.063114	0.000095
C25	C	0.142516	0.062484	-0.110076
C26	C	0.201918	0.063089	-0.110073
C27	C	0.231613	0.063402	-0.054987
C28	C	0.290995	0.064021	-0.054991
N29	N	0.320694	0.064329	0.000091
C30	C	0.290996	0.064032	0.055175
C31	C	-0.071322	0.060314	-0.054979
C32	C	-0.130719	0.059712	-0.054978
C33	C	-0.130719	0.059723	0.055192
C34	C	-0.071321	0.060328	0.055191
C35	C	-0.041623	0.060622	0.000103
C36	C	0.415727	0.065313	0.055166
C37	C	0.475126	0.065925	0.055159
C38	C	0.475121	0.065911	-0.055012
C39	C	0.415727	0.065302	-0.055005
C40	C	0.386032	0.065001	0.000089
O41	O	0.321759	0.064346	-0.101812
O42	O	0.321720	0.064344	0.102019
C43	C	0.677145	-0.025581	0.000069
C44	C	0.676499	-0.079237	0.000051
C45	C	0.671917	-0.462415	-0.054997
C46	C	0.674335	-0.260752	-0.055016
O47	O	0.674678	-0.234690	-0.101863
N48	N	0.674628	-0.235525	0.000065
C49	C	0.674321	-0.260716	0.055155
O50	O	0.674632	-0.234632	0.102004
C51	C	0.671907	-0.462378	0.055173
C52	C	0.671608	-0.487603	0.000089
C53	C	0.671618	-0.487640	-0.110077
C54	C	0.671010	-0.538052	-0.110071
C55	C	0.670701	-0.563240	-0.054986
C56	C	0.671000	-0.538015	0.000094
C57	C	0.671604	-0.487569	0.110262
C58	C	0.671002	-0.537988	0.110262
C59	C	0.670702	-0.563213	0.055178
C60	C	0.670083	-0.613615	0.055185
N61	N	0.669790	-0.638843	0.000104
C62	C	0.670099	-0.613655	-0.054982
C63	C	0.675588	-0.154840	0.055141
C64	C	0.676190	-0.104425	0.055136
C65	C	0.676205	-0.104465	-0.055035
C66	C	0.675598	-0.154881	-0.055029
C67	C	0.675294	-0.180068	0.000060
C68	C	0.668822	-0.719525	-0.054966
C69	C	0.668212	-0.769941	-0.054956
C70	C	0.668200	-0.769897	0.055215
C71	C	0.668807	-0.719485	0.055205
C72	C	0.669120	-0.694300	0.000110
O73	O	0.669747	-0.639710	0.102007
O74	O	0.669800	-0.639750	-0.101824
C75	C	0.672524	-0.412003	-0.055002
C76	C	0.672823	-0.386778	0.000078
C77	C	0.672514	-0.411966	0.055163
C78	C	0.673425	-0.336363	0.000073
C79	C	0.673734	-0.311175	-0.055012
C80	C	0.673441	-0.336403	-0.110093
C81	C	0.672833	-0.386815	-0.110088
C82	C	0.672808	-0.386738	0.110244
C83	C	0.673415	-0.336326	0.110234
C84	C	0.673724	-0.311138	0.055149
C85	C	0.776360	0.058772	0.000102
C86	C	0.839578	0.059412	0.000106
C87	C	0.667257	0.151215	0.000116
C88	C	0.667903	0.204871	0.000130
N89	N	0.672182	0.062833	0.143897
N90	N	0.672224	0.062798	-0.143711
C91	C	0.711224	0.029761	0.563672
C92	C	0.711227	0.029757	0.627280
O93	O	0.744399	0.001645	0.660168
N94	N	0.672210	0.062800	0.659104
C95	C	0.633184	0.095846	0.627318
O96	O	0.599998	0.123951	0.660228
C97	C	0.633180	0.095846	0.563711
C98	C	0.672203	0.062804	0.531890
C99	C	0.750244	-0.003279	0.531851
C100	C	0.750242	-0.003275	0.468248
C101	C	0.711220	0.029769	0.436466
C102	C	0.672201	0.062808	0.468287
C103	C	0.594151	0.128889	0.531926
C104	C	0.594150	0.128886	0.468315
C105	C	0.633173	0.095844	0.436494
C106	C	0.633177	0.095856	0.372902
N107	N	0.672193	0.062813	0.341077
C108	C	0.711215	0.029769	0.372860
C109	C	0.633197	0.095841	0.760896
C110	C	0.633204	0.095843	0.824501
C111	C	0.711246	0.029754	0.824459
C112	C	0.711241	0.029755	0.760852
C113	C	0.672214	0.062798	0.729071
C114	C	0.711208	0.029781	0.239288
C115	C	0.711204	0.029789	0.175679
C116	C	0.633160	0.095876	0.175727
C117	C	0.633166	0.095870	0.239330
C118	C	0.672192	0.062818	0.271109
O119	O	0.600020	0.123953	0.339974
O120	O	0.744391	0.001665	0.339942
H121	H	0.118349	0.062229	-0.154933
H122	H	0.667946	-0.790414	0.100064
C123	C	0.590237	0.132221	0.140755
N124	N	0.557903	0.159593	0.114412
C125	C	0.234582	0.063413	-0.170675
N126	N	0.259183	0.063659	-0.216321
C127	C	0.676549	-0.076749	-0.115629
N128	N	0.676814	-0.055873	-0.161266
C129	C	0.667902	-0.797687	-0.115556
N130	N	0.667676	-0.818585	-0.161198
H131	H	0.675340	-0.175343	0.100004
C132	C	-0.038661	0.060642	-0.115584
N133	N	-0.014063	0.060889	-0.161232
H134	H	0.669077	-0.699025	-0.099830
C135	C	0.383060	0.064963	-0.115602
N136	N	0.358460	0.064704	-0.161245
H137	H	0.672589	-0.407348	-0.154943
C138	C	0.670664	-0.565691	0.170866
N139	N	0.670408	-0.586555	0.216513
H140	H	0.499312	0.066155	-0.099860
C141	C	0.754166	-0.006597	0.725855
N142	N	0.786497	-0.033979	0.699498
C143	C	0.670726	-0.565798	-0.170669
N144	N	0.670530	-0.586694	-0.216315
H145	H	0.673688	-0.315886	-0.154946
C146	C	0.234558	0.063466	0.170860
N147	N	0.259153	0.063717	0.216507
H148	H	0.671871	-0.467137	-0.154937
H149	H	0.672558	-0.407241	0.155102
H150	H	-0.154893	0.059465	-0.099835
C151	C	0.675282	-0.182624	-0.115626
N152	N	0.675048	-0.203519	-0.161270
C153	C	0.676512	-0.076683	0.115734
N154	N	0.676757	-0.055790	0.161378
C155	C	0.507788	0.066267	0.115760
N156	N	0.532386	0.066523	0.161404
C157	C	0.590280	0.132195	0.859497
N158	N	0.557945	0.159575	0.885854
H159	H	0.118332	0.062276	0.155122
C160	C	-0.038661	0.060668	0.115789
N161	N	-0.014064	0.060922	0.161435
H162	H	0.782016	-0.030182	0.442343
H163	H	0.669028	-0.698943	0.100059
C164	C	0.383071	0.064987	0.115772
N165	N	0.358473	0.064746	0.161420
C166	C	0.671936	-0.459834	0.170861
N167	N	0.672187	-0.438945	0.216507
C168	C	0.551218	0.165234	0.566915
N169	N	0.518875	0.192611	0.593268
H170	H	-0.154910	0.059480	0.100045
H171	H	0.673653	-0.315792	0.155094
C172	C	0.754132	-0.006563	0.140680
N173	N	0.786464	-0.033944	0.114321
H174	H	0.742986	0.002866	0.265155
H175	H	0.782020	-0.030189	0.557723
C176	C	0.754167	-0.006598	0.859431
N177	N	0.786493	-0.033977	0.885774
H178	H	0.601418	0.122753	0.735023
H179	H	0.562367	0.155794	0.442442
C180	C	0.590242	0.132220	0.274335
N181	N	0.557907	0.159597	0.300696
