data_functionalizedCrystal
_audit_creation_method	'MofGen! by Chris Wilmer'
_symmetry_space_group_name_H-M	'P1'
_symmetry_Int_Tables_number	1
_symmetry_cell_setting	triclinic
loop_
_symmetry_equiv_pos_as_xyz
  x,y,z
_cell_length_a	18.101398
_cell_length_b	12.759400
_cell_length_c	12.759393
_cell_angle_alpha	90.031564
_cell_angle_beta	90.011279
_cell_angle_gamma	90.009490
loop_
_atom_site_label
_atom_site_type_symbol
_atom_site_fract_x
_atom_site_fract_y
_atom_site_fract_z
Zn1	Zn	-1.132225	0.418350	-0.593779
Zn2	Zn	-1.132151	0.594069	-0.418099
Zn3	Zn	-1.008378	0.418389	-0.418140
Zn4	Zn	-1.008370	0.593972	-0.593763
O5	O	-1.070281	0.506195	-0.505945
O6	O	-1.235848	0.441684	-0.570464
O7	O	-1.115704	0.570821	-0.271083
O8	O	-1.024841	0.271363	-0.441463
O9	O	-1.235793	0.570784	-0.441393
O10	O	-1.115831	0.271334	-0.570504
O11	O	-1.024769	0.441750	-0.271114
O12	O	-0.904744	0.441656	-0.441448
O13	O	-1.024828	0.570618	-0.740786
O14	O	-0.904738	0.570656	-0.570477
O15	O	-1.115823	0.441590	-0.740798
O16	O	-1.115696	0.741077	-0.441377
O17	O	-1.024755	0.741006	-0.570436
C18	C	-0.877870	0.506150	-0.505965
C19	C	-0.795556	0.506156	-0.505999
C20	C	-0.496465	0.506212	-0.505964
C21	C	-0.527812	0.587769	-0.586743
C22	C	-0.613430	0.587515	-0.587073
C23	C	-0.644848	0.506185	-0.505981
C24	C	-0.613772	0.395522	-0.536232
C25	C	-0.528127	0.396010	-0.536809
C26	C	-0.528015	0.534345	-0.394737
C27	C	-0.613665	0.536774	-0.395329
C28	C	-0.728707	0.506163	-0.505989
C29	C	-0.412606	0.506227	-0.505958
C30	C	-1.070237	0.779162	-0.505923
C31	C	-1.070286	0.895939	-0.505949
C32	C	-1.070333	0.506089	-0.779979
C33	C	-1.070355	0.506044	-0.896755
C34	C	-0.263443	0.506236	-0.505933
C35	C	-0.345757	0.506242	-0.505946
C36	C	-1.070345	0.232162	-0.505990
C37	C	-1.070373	0.115385	-0.506009
C38	C	-1.117692	0.950803	-0.438822
C39	C	-1.117737	1.060527	-0.438855
C40	C	-1.022965	1.060513	-0.573144
C41	C	-1.022924	0.950791	-0.573116
C42	C	-1.172405	0.950812	-0.361288
C43	C	-1.172451	1.060536	-0.361321
C44	C	-1.117743	0.438852	-0.951625
C45	C	-1.117761	0.438814	-1.061350
C46	C	-1.023000	0.573168	-1.061324
C47	C	-1.022979	0.573200	-0.951602
C48	C	-1.172454	0.361287	-0.951641
C49	C	-1.172472	0.361249	-1.061365
C50	C	-1.070272	0.506225	-0.232978
C51	C	-1.070393	0.505974	-0.116202
H52	H	-0.507391	0.333066	-0.480670
H53	H	-0.984405	1.105187	-0.627829
H54	H	-1.229743	0.920962	-0.383129
H55	H	-1.151875	0.916862	-0.283966
Br56	Br	-1.263236	0.409912	-0.894885
H57	H	-1.226941	1.094488	-0.390523
Br58	Br	-0.958600	0.876334	-0.664240
Br59	Br	-1.146916	1.110316	-0.225691
H60	H	-0.984389	0.627910	-0.906931
Br61	Br	-0.649305	0.444955	-0.289618
H62	H	-0.984427	0.627842	-1.105993
H63	H	-1.229829	0.383049	-1.091133
Br64	Br	-0.494849	0.356244	-0.672333
H65	H	-1.157110	0.279921	-0.921888
H66	H	-0.635235	0.371232	-0.616659
Br67	Br	-0.648454	0.724303	-0.555520
Br68	Br	-0.491939	0.557166	-0.723305
Br69	Br	-0.493474	0.724996	-0.555510
Br70	Br	-0.647607	0.556492	-0.724431
Br71	Br	-0.647689	0.291489	-0.441231
H72	H	-0.506416	0.613660	-0.367245
H73	H	-1.151950	0.283937	-1.095417
H74	H	-0.633985	0.618206	-0.372513
H75	H	-0.507742	0.474940	-0.334548
