data_functionalizedCrystal
_audit_creation_method	'MofGen! by Chris Wilmer'
_symmetry_space_group_name_H-M	'P1'
_symmetry_Int_Tables_number	1
_symmetry_cell_setting	triclinic
loop_
_symmetry_equiv_pos_as_xyz
  x,y,z
_cell_length_a	10.685661
_cell_length_b	15.297327
_cell_length_c	10.685910
_cell_angle_alpha	83.933610
_cell_angle_beta	99.053014
_cell_angle_gamma	96.099253
loop_
_atom_site_label
_atom_site_type_symbol
_atom_site_fract_x
_atom_site_fract_y
_atom_site_fract_z
Zn1	Zn	1.902844	-0.411253	0.958539
Zn2	Zn	1.850985	-0.568936	0.781706
Zn3	Zn	1.674359	-0.411220	0.730062
Zn4	Zn	1.659779	-0.547948	0.972948
O5	O	1.771992	-0.484839	0.860814
O6	O	2.071607	-0.440967	0.950665
O7	O	1.811954	-0.556784	0.599201
O8	O	1.732473	-0.288012	0.732727
O9	O	2.033507	-0.556816	0.820746
O10	O	1.900340	-0.288036	0.900588
O11	O	1.682188	-0.440911	0.561259
O12	O	1.496783	-0.420560	0.746698
O13	O	1.707623	-0.521045	1.146691
O14	O	1.486071	-0.521013	0.925146
O15	O	1.886202	-0.420616	1.136105
O16	O	1.797816	-0.689364	0.834718
O17	O	1.657338	-0.673944	0.975223
C18	C	1.445885	-0.468506	0.831882
C19	C	1.306372	-0.461538	0.819540
C20	C	1.720404	-0.713602	0.912168
C21	C	1.698453	-0.811471	0.934190
C22	C	1.929433	-1.119339	0.703895
C23	C	1.950056	-1.027387	0.683197
C24	C	1.887158	-0.973403	0.745944
C25	C	1.803632	-1.011382	0.829391
C26	C	1.783000	-1.103343	0.850082
C27	C	1.740724	-0.957407	0.892132
C28	C	1.657198	-0.995385	0.975579
C29	C	1.636570	-1.087338	0.996267
C30	C	1.699469	-1.141322	0.933520
C31	C	1.761356	-0.865445	0.871440
C32	C	1.614922	-0.849449	1.017628
C33	C	1.594300	-0.941402	1.038325
C34	C	2.099372	-0.501237	0.889859
C35	C	2.238882	-0.508224	0.902237
C36	C	1.801071	-0.468493	1.188216
C37	C	1.813463	-0.461527	1.327736
C38	C	1.823818	-0.255183	0.809289
C39	C	1.845903	-0.157318	0.787333
C40	C	1.743014	-0.501143	1.534689
C41	C	1.730628	-0.508114	1.395171
H42	H	1.257425	-0.416231	0.739304
H43	H	1.980628	-1.163300	0.652807
H44	H	1.287838	-0.553526	0.982487
C45	C	1.909853	-0.872258	0.723190
H46	H	1.968615	-0.857370	0.664516
H47	H	1.831598	-0.848535	0.689575
H48	H	1.943381	-0.848466	0.801450
C49	C	1.544695	-1.129117	1.088053
H50	H	1.541411	-1.191614	1.091382
H51	H	1.573882	-1.110717	1.170629
H52	H	1.462100	-1.110803	1.058755
H53	H	2.018061	-0.996468	0.615255
H54	H	1.829363	-0.834532	0.803497
H55	H	1.682685	-1.216198	0.950371
C56	C	1.622011	-0.569193	1.328981
H57	H	1.627644	-0.566014	1.240745
H58	H	1.628905	-0.628215	1.365309
H59	H	1.542465	-0.551017	1.340033
H60	H	1.893871	-0.416314	1.376745
C61	C	1.502422	-0.983181	1.130109
H62	H	1.467921	-0.937866	1.164527
H63	H	1.435448	-1.018765	1.085286
H64	H	1.547232	-1.018675	1.197158
C65	C	1.545736	-0.790077	1.086659
H66	H	1.569997	-0.729872	1.062396
H67	H	1.456386	-0.801898	1.064149
H68	H	1.568168	-0.801820	1.176024
