data_functionalizedCrystal
_audit_creation_method	'MofGen! by Chris Wilmer'
_symmetry_space_group_name_H-M	'P1'
_symmetry_Int_Tables_number	1
_symmetry_cell_setting	triclinic
loop_
_symmetry_equiv_pos_as_xyz
  x,y,z
_cell_length_a	16.120490
_cell_length_b	16.120444
_cell_length_c	12.759387
_cell_angle_alpha	92.864319
_cell_angle_beta	87.081216
_cell_angle_gamma	90.165174
loop_
_atom_site_label
_atom_site_type_symbol
_atom_site_fract_x
_atom_site_fract_y
_atom_site_fract_z
Zn1	Zn	1.254501	-0.395624	-0.699339
Zn2	Zn	1.247334	-0.534697	-0.532073
Zn3	Zn	1.115432	-0.388598	-0.514349
Zn4	Zn	1.108350	-0.527570	-0.698384
O5	O	1.181404	-0.461622	-0.611036
O6	O	1.369916	-0.419996	-0.684969
O7	O	1.229801	-0.515358	-0.382701
O8	O	1.139842	-0.273167	-0.531870
O9	O	1.364650	-0.522172	-0.562079
O10	O	1.242016	-0.278330	-0.667782
O11	O	1.132893	-0.408020	-0.369679
O12	O	0.998126	-0.401109	-0.530944
O13	O	1.127773	-0.510025	-0.845532
O14	O	0.992924	-0.503212	-0.666154
O15	O	1.235149	-0.413085	-0.846233
O16	O	1.222934	-0.650114	-0.561153
O17	O	1.120824	-0.644878	-0.683341
C18	C	0.965353	-0.450625	-0.596522
C19	C	0.872924	-0.445941	-0.590339
C20	C	0.659956	-0.485915	-0.643110
C21	C	0.703700	-0.437396	-0.579049
C22	C	0.797865	-0.442152	-0.585333
C23	C	0.565782	-0.481160	-0.636828
C24	C	1.170355	-0.677669	-0.624091
C25	C	1.165705	-0.770098	-0.629716
C26	C	1.205733	-0.983077	-0.582096
C27	C	1.157229	-0.939324	-0.639998
C28	C	1.161946	-0.845158	-0.634275
C29	C	1.201017	-1.077252	-0.587817
C30	C	1.398299	-0.472663	-0.625608
C31	C	1.490727	-0.477367	-0.631817
C32	C	1.181471	-0.461544	-0.885069
C33	C	1.181500	-0.461510	-1.001846
C34	C	1.192519	-0.244733	-0.597955
C35	C	1.197255	-0.152308	-0.592381
C36	C	1.293317	-0.360574	-1.002597
C37	C	1.349238	-0.310094	-1.057834
C38	C	1.349260	-0.310065	-1.167555
C39	C	1.293353	-0.360519	-1.222042
C40	C	1.237432	-0.410999	-1.166805
C41	C	1.237418	-0.411025	-1.057082
C42	C	1.125612	-0.511930	-1.166053
C43	C	1.125593	-0.511965	-1.056333
C44	C	1.069705	-0.562384	-1.220540
C45	C	1.013786	-0.612870	-1.165304
C46	C	1.013768	-0.612897	-1.055576
C47	C	1.069672	-0.562445	-1.001096
C48	C	1.181388	-0.461643	-0.338069
C49	C	1.181533	-0.461450	-0.221290
H50	H	1.250797	-0.949819	-0.528229
N51	N	0.704020	-0.545674	-0.721992
H52	H	0.685922	-0.604324	-0.708146
H53	H	0.689634	-0.532023	-0.795298
H54	H	1.293312	-0.360601	-0.913257
N55	N	1.069732	-0.562359	-1.338882
H56	H	1.025832	-0.601980	-1.365015
H57	H	1.057411	-0.504504	-1.360770
H58	H	0.670431	-0.392285	-0.519486
H59	H	1.394755	-0.269014	-1.013458
H60	H	1.112161	-0.972585	-0.693867
N61	N	1.409565	-0.255614	-1.227138
H62	H	1.444977	-0.223653	-1.175977
H63	H	1.446317	-0.291412	-1.277293
H64	H	1.293369	-0.360484	-1.311382
N65	N	0.953477	-0.667265	-1.224066
H66	H	0.961968	-0.659578	-1.301954
H67	H	0.963356	-0.727322	-1.209353
H68	H	0.968221	-0.653995	-1.010608
N69	N	1.069638	-0.562482	-0.882754
H70	H	1.125889	-0.580684	-0.861073
H71	H	1.057240	-0.504652	-0.851942
