data_functionalizedCrystal
_audit_creation_method	'MofGen! by Chris Wilmer'
_symmetry_space_group_name_H-M	'P1'
_symmetry_Int_Tables_number	1
_symmetry_cell_setting	triclinic
loop_
_symmetry_equiv_pos_as_xyz
  x,y,z
_cell_length_a	13.635800
_cell_length_b	7.076090
_cell_length_c	11.102300
_cell_angle_alpha	105.721654
_cell_angle_beta	71.394150
_cell_angle_gamma	117.701400
loop_
_atom_site_label
_atom_site_type_symbol
_atom_site_fract_x
_atom_site_fract_y
_atom_site_fract_z
V1	V	-1.938667	0.295094	0.395358
O2	O	-2.040909	-0.014181	0.388756
O3	O	-1.811967	0.585123	0.391765
O4	O	-1.928859	0.290555	0.568193
O5	O	-1.923208	0.282426	0.211107
V6	V	-2.191897	0.258101	0.373428
O7	O	-2.044137	0.376241	0.443463
O8	O	-2.311526	0.176954	0.325323
O9	O	-2.206994	-0.031927	0.377021
O10	O	-2.148354	0.567377	0.380030
O11	O	-2.266055	0.270769	0.557679
O12	O	-2.090102	0.262641	0.200593
V13	V	-1.438667	0.295094	0.395358
O14	O	-1.540909	-0.014181	0.388756
O15	O	-1.311967	0.585123	0.391765
O16	O	-1.428859	0.290555	0.568193
O17	O	-1.423208	0.282426	0.211107
V18	V	-1.691897	0.258101	0.373428
O19	O	-1.544137	0.376241	0.443463
O20	O	-1.811526	0.176954	0.325323
O21	O	-1.706994	-0.031927	0.377021
O22	O	-1.648354	0.567377	0.380030
O23	O	-1.766055	0.270769	0.557679
O24	O	-1.590102	0.262641	0.200593
C25	C	-1.709074	0.655828	0.385305
C26	C	-1.645040	0.897387	0.383488
C27	C	-2.141569	-0.102619	0.383485
C28	C	-2.195031	-0.344171	0.385331
C29	C	-1.858174	0.280072	0.610348
C30	C	-1.890118	0.278280	0.751636
C31	C	-1.992455	0.273130	0.158431
C32	C	-1.950134	0.274912	0.017142
C33	C	-1.358174	0.280072	0.610348
C34	C	-1.390118	0.278280	0.751636
C35	C	-1.492455	0.273130	0.158431
C36	C	-1.450134	0.274912	0.017142
C37	C	-1.992904	0.288090	0.824455
C38	C	-2.022915	0.286398	0.957209
C39	C	-1.847341	0.265095	0.944313
C40	C	-1.817335	0.266771	0.811560
C41	C	-1.492904	0.288090	0.824455
C42	C	-1.522915	0.286398	0.957209
C43	C	-1.347341	0.265095	0.944313
C44	C	-1.317335	0.266771	0.811560
H45	H	-2.052171	0.297457	0.775669
O46	O	-1.563475	0.299629	0.766217
C47	C	-1.586407	0.499443	0.640440
C48	C	-1.506371	0.486674	0.706357
H49	H	-1.540262	0.650633	0.592004
H50	H	-1.665019	0.506303	0.715253
H51	H	-1.613172	0.350735	0.565184
H52	H	-1.479518	0.635346	0.781606
H53	H	-1.427816	0.479708	0.631469
H54	H	-1.788087	0.255730	0.993120
O55	O	-1.217416	0.257621	0.740737
C56	C	-1.036522	0.433031	0.600201
C57	C	-1.149649	0.443600	0.680312
H58	H	-0.981691	0.583396	0.551349
H59	H	-1.054376	0.283457	0.524151
H60	H	-0.989715	0.424469	0.665882
H61	H	-1.196514	0.452243	0.614734
H62	H	-1.131718	0.593150	0.756374
O63	O	-2.122839	0.295553	1.027966
C64	C	-2.303662	0.120455	1.168704
C65	C	-2.190553	0.109792	1.088602
H66	H	-2.358430	-0.029691	1.217770
H67	H	-2.350606	0.128833	1.103113
H68	H	-2.285645	0.270223	1.244605
H69	H	-2.208468	-0.039961	1.012694
H70	H	-2.143642	0.101531	1.154274
H71	H	-1.733636	0.258766	0.752267
H72	H	-1.288087	0.255730	0.993120
O73	O	-1.622659	0.296215	1.028106
C74	C	-1.713355	0.492389	1.202104
C75	C	-1.600310	0.481511	1.121934
H76	H	-1.695324	0.642212	1.277964
H77	H	-1.768216	0.342280	1.251194
H78	H	-1.760219	0.500795	1.136431
H79	H	-1.553352	0.473176	1.187518
H80	H	-1.545533	0.631617	1.072830
