data_functionalizedCrystal
_audit_creation_method	'MofGen! by Chris Wilmer'
_symmetry_space_group_name_H-M	'P1'
_symmetry_Int_Tables_number	1
_symmetry_cell_setting	triclinic
loop_
_symmetry_equiv_pos_as_xyz
  x,y,z
_cell_length_a	19.188930
_cell_length_b	19.188930
_cell_length_c	17.666332
_cell_angle_alpha	90.011603
_cell_angle_beta	89.976766
_cell_angle_gamma	96.855221
loop_
_atom_site_label
_atom_site_type_symbol
_atom_site_fract_x
_atom_site_fract_y
_atom_site_fract_z
O1	O	0.926150	-0.087169	-0.063200
O2	O	0.722838	-0.098903	-0.063149
O3	O	0.830361	0.008620	-0.063161
O4	O	0.818627	-0.194692	-0.063188
O5	O	0.830342	0.008625	0.062735
O6	O	0.722820	-0.098897	0.062747
O7	O	0.926131	-0.087163	0.062697
Cu8	Cu	0.824473	-0.093030	0.074217
Cu9	Cu	0.824496	-0.093036	-0.074670
O10	O	0.818608	-0.194686	0.062709
C11	C	0.696818	-0.098520	-0.000194
C12	C	0.619313	-0.097380	-0.000174
C13	C	0.574389	-0.160470	-0.000194
C14	C	0.501566	-0.159399	-0.000203
C15	C	0.473669	-0.095233	-0.000206
C16	C	0.518603	-0.032133	-0.000181
C17	C	0.591425	-0.033207	-0.000166
N18	N	0.365695	-0.046188	-0.043078
N19	N	0.296517	-0.045172	-0.043095
C20	C	0.254260	-0.091994	-0.000252
N21	N	0.283795	-0.139881	0.042599
N22	N	0.352979	-0.140899	0.042612
C23	C	0.394707	-0.094062	-0.000222
C24	C	0.130372	-0.153928	-0.000280
C25	C	0.057547	-0.152853	-0.000283
C26	C	0.074586	-0.025586	-0.000270
C27	C	0.147409	-0.026662	-0.000258
C28	C	0.175298	-0.090835	-0.000267
C29	C	0.829972	0.034634	-0.000211
C30	C	0.828831	0.112138	-0.000204
C31	C	0.952151	-0.087546	-0.000260
C32	C	1.029656	-0.088687	-0.000285
C33	C	0.818997	-0.220700	-0.000244
C34	C	0.820138	-0.298204	-0.000255
N35	N	0.824463	-0.093025	0.178937
C36	C	0.891922	0.157062	-0.000216
C37	C	0.890850	0.229886	-0.000228
C38	C	0.826684	0.257782	-0.000212
C39	C	0.763585	0.212849	-0.000205
C40	C	0.764658	0.140026	-0.000200
N41	N	0.777630	0.365789	0.042645
N42	N	0.776615	0.434968	0.042642
C43	C	0.823446	0.477191	-0.000227
N44	N	0.871341	0.447624	-0.043084
N45	N	0.872359	0.378439	-0.043079
C46	C	0.825513	0.336745	-0.000218
C47	C	0.885379	0.601079	-0.000253
C48	C	0.884305	0.673904	-0.000270
C49	C	0.757038	0.656865	-0.000239
C50	C	0.758114	0.584042	-0.000230
C51	C	0.822287	0.556154	-0.000233
N52	N	0.824512	-0.093036	-0.179390
C53	C	0.872089	-0.045437	0.218541
C54	C	0.872093	-0.045433	0.297789
C55	C	0.824478	-0.093030	0.337429
C56	C	0.776842	-0.140621	0.297815
C57	C	0.776835	-0.140619	0.218569
N58	N	0.815401	-0.154837	0.461841
N59	N	0.815413	-0.154837	0.537121
C60	C	0.824496	-0.093040	0.576193
N61	N	0.833582	-0.031239	0.537140
N62	N	0.833574	-0.031240	0.461853
C63	C	0.824480	-0.093038	0.423358
C64	C	0.872130	-0.045444	0.701727
C65	C	0.872129	-0.045440	0.780976
C66	C	0.776881	-0.140634	0.781000
C67	C	0.776878	-0.140632	0.701753
C68	C	0.824506	-0.093038	0.662121
H69	H	0.153080	-0.206181	-0.000276
C70	C	0.239223	0.045952	-0.064957
C71	C	0.196796	0.042689	-0.000248
H72	H	0.269714	0.088767	-0.064945
H73	H	0.210483	0.043725	-0.108857
H74	H	0.266254	0.007579	-0.064945
H75	H	0.169761	0.081059	-0.000263
H76	H	0.225539	0.044923	0.043663
C77	C	0.966272	0.048656	0.709659
C78	C	0.924473	0.006877	0.658157
H79	H	0.998582	0.080960	0.682761
H80	H	0.991298	0.019656	0.740546
H81	H	0.937281	0.073696	0.740590
H82	H	0.953463	-0.018167	0.627229
H83	H	0.899445	0.035881	0.627257
H84	H	0.495885	0.020111	-0.000194
H85	H	0.944176	0.134360	-0.000222
H86	H	0.628003	0.018171	-0.000150
H87	H	0.020970	-0.204232	-0.000295
C88	C	-0.029475	0.032568	-0.000296
C89	C	0.043931	0.044948	-0.000277
H90	H	-0.048401	0.076115	-0.000304
H91	H	-0.044929	0.006609	0.043600
H92	H	-0.044878	0.006594	-0.044206
H93	H	0.059334	0.070917	0.043636
H94	H	0.059391	0.070918	-0.044178
H95	H	0.942228	0.266470	-0.000241
C96	C	0.913477	0.075537	0.322210
C97	C	0.924445	0.006879	0.341337
H98	H	0.945799	0.107831	0.349092
H99	H	0.866911	0.083000	0.335225
H100	H	0.920295	0.082346	0.269342
H101	H	0.917623	0.000069	0.394205
H102	H	0.971022	-0.000587	0.328328
H103	H	0.738051	-0.179371	0.186322
H104	H	0.711340	0.235567	-0.000194
C105	C	0.638754	0.130501	-0.000170
C106	C	0.695304	0.090641	-0.000179
H107	H	0.595938	0.100010	-0.000151
H108	H	0.640988	0.159244	-0.044075
H109	H	0.640980	0.159273	0.043732
H110	H	0.693081	0.061872	-0.044084
H111	H	0.693069	0.061886	0.043730
H112	H	0.937632	0.578372	-0.000259
C113	C	1.010209	0.683427	-0.000279
C114	C	0.953660	0.723288	-0.000281
H115	H	1.053025	0.713917	-0.000280
H116	H	1.007993	0.654661	-0.044176
H117	H	1.007963	0.654678	0.043631
H118	H	0.955903	0.752034	-0.044193
H119	H	0.955877	0.752067	0.043621
H120	H	0.738099	-0.179386	0.669505
C121	C	0.735506	-0.261609	0.805384
C122	C	0.724538	-0.192953	0.824562
H123	H	0.703186	-0.293907	0.832277
H124	H	0.782073	-0.269073	0.818349
H125	H	0.728686	-0.268411	0.752517
H126	H	0.731364	-0.186150	0.877428
H127	H	0.677961	-0.185486	0.811602
H128	H	0.706738	0.547464	-0.000216
C129	C	0.550227	-0.286159	-0.000207
C130	C	0.605043	-0.231008	-0.000191
H131	H	0.569154	-0.329705	-0.000199
H132	H	0.522207	-0.283096	-0.044115
H133	H	0.522151	-0.283084	0.043692
H134	H	0.633116	-0.234080	-0.044093
H135	H	0.633076	-0.234072	0.043721
C136	C	0.409817	-0.232009	-0.064959
C137	C	0.452170	-0.228751	-0.000230
H138	H	0.379321	-0.274822	-0.064973
H139	H	0.438606	-0.229786	-0.108846
H140	H	0.382791	-0.193633	-0.064949
H141	H	0.479200	-0.267124	-0.000242
H142	H	0.423377	-0.230981	0.043668
H143	H	0.704792	0.679578	-0.000230
H144	H	0.910869	-0.006681	0.186275
C145	C	0.734571	-0.182899	0.419306
C146	C	0.724504	-0.192943	0.341385
H147	H	0.702259	-0.215204	0.446202
H148	H	0.727133	-0.136326	0.432307
H149	H	0.781146	-0.190370	0.432255
H150	H	0.677930	-0.185467	0.328435
H151	H	0.731936	-0.239527	0.328378
H152	H	0.910910	-0.006684	0.813222
