data_functionalizedCrystal
_audit_creation_method	'MofGen! by Chris Wilmer'
_symmetry_space_group_name_H-M	'P1'
_symmetry_Int_Tables_number	1
_symmetry_cell_setting	triclinic
loop_
_symmetry_equiv_pos_as_xyz
  x,y,z
_cell_length_a	29.839131
_cell_length_b	12.759395
_cell_length_c	12.759387
_cell_angle_alpha	90.020674
_cell_angle_beta	89.955090
_cell_angle_gamma	89.967295
loop_
_atom_site_label
_atom_site_type_symbol
_atom_site_fract_x
_atom_site_fract_y
_atom_site_fract_z
Zn1	Zn	-0.178860	-1.606119	-0.593907
Zn2	Zn	-0.253998	-1.605946	-0.418184
Zn3	Zn	-0.178879	-1.430417	-0.418243
Zn4	Zn	-0.253960	-1.430346	-0.593822
O5	O	-0.216424	-1.518207	-0.506039
O6	O	-0.188835	-1.753117	-0.570607
O7	O	-0.244057	-1.582619	-0.271170
O8	O	-0.116009	-1.453826	-0.441605
O9	O	-0.244038	-1.752990	-0.441504
O10	O	-0.115995	-1.582913	-0.570664
O11	O	-0.188867	-1.453659	-0.271214
O12	O	-0.188831	-1.283386	-0.441523
O13	O	-0.243974	-1.453706	-0.740855
O14	O	-0.243993	-1.283335	-0.570521
O15	O	-0.188799	-1.582845	-0.740917
O16	O	-0.316860	-1.582551	-0.441423
O17	O	-0.316832	-1.453538	-0.570463
C18	C	-0.216410	-1.245240	-0.506020
C19	C	-0.216415	-1.128463	-0.506037
C20	C	-0.159025	-1.128575	-0.640689
C21	C	-0.130334	-1.073771	-0.708022
C22	C	-0.130340	-0.964049	-0.708033
C23	C	-0.159039	-0.909130	-0.640701
C24	C	-0.187730	-0.963934	-0.573368
C25	C	-0.187722	-1.073658	-0.573366
C26	C	-0.245117	-0.963822	-0.438712
C27	C	-0.245114	-1.073543	-0.438705
C28	C	-0.273816	-0.908902	-0.371380
C29	C	-0.302510	-0.963707	-0.304051
C30	C	-0.302503	-1.073435	-0.304043
C31	C	-0.273805	-1.128348	-0.371372
C32	C	-0.333147	-1.518047	-0.505950
C33	C	-0.383081	-1.518074	-0.505948
C34	C	-0.692682	-1.585408	-0.573336
C35	C	-0.880355	-1.585522	-0.573399
O36	O	-0.904584	-1.642615	-0.630629
N37	N	-0.903866	-1.518386	-0.506155
C38	C	-0.880456	-1.451211	-0.438896
O39	O	-0.904760	-1.394102	-0.381711
C40	C	-0.692784	-1.451092	-0.438839
C41	C	-0.669275	-1.518241	-0.506080
C42	C	-0.669174	-1.652551	-0.640572
C43	C	-0.622258	-1.652525	-0.640551
C44	C	-0.598851	-1.585358	-0.573295
C45	C	-0.622360	-1.518216	-0.506059
C46	C	-0.669374	-1.383913	-0.371586
C47	C	-0.622453	-1.383887	-0.371580
C48	C	-0.598945	-1.451036	-0.438820
C49	C	-0.552037	-1.451023	-0.438782
N50	N	-0.528527	-1.518160	-0.506026
C51	C	-0.551934	-1.585327	-0.573282
C52	C	-0.978987	-1.451279	-0.438930
C53	C	-1.025904	-1.451310	-0.438942
C54	C	-1.025801	-1.585620	-0.573447
C55	C	-0.978882	-1.585594	-0.573428
C56	C	-0.955476	-1.518416	-0.506173
C57	C	-0.453408	-1.585270	-0.573233
C58	C	-0.406488	-1.585242	-0.573204
C59	C	-0.406596	-1.450928	-0.438704
C60	C	-0.453512	-1.450959	-0.438729
C61	C	-0.476916	-1.518134	-0.506002
O62	O	-0.527780	-1.393952	-0.381591
O63	O	-0.527622	-1.642411	-0.630476
C64	C	-0.739598	-1.585433	-0.573356
C65	C	-0.763106	-1.518291	-0.506121
C66	C	-0.739699	-1.451124	-0.438864
C67	C	-0.810024	-1.518322	-0.506133
C68	C	-0.833431	-1.585489	-0.573390
C69	C	-0.809920	-1.652626	-0.640633
C70	C	-0.763005	-1.652601	-0.640613
C71	C	-0.763210	-1.383987	-0.371621
C72	C	-0.810126	-1.384018	-0.371646
C73	C	-0.833533	-1.451186	-0.438902
C74	C	-0.099246	-1.518397	-0.506151
C75	C	-0.049311	-1.518477	-0.506198
C76	C	-0.216380	-1.518286	-0.780073
C77	C	-0.216361	-1.518320	-0.896849
C78	C	-0.216434	-0.792240	-0.506053
C79	C	-0.216427	-0.909017	-0.506045
C80	C	-0.158910	-1.652802	-0.896934
C81	C	-0.130178	-1.720058	-0.951836
C82	C	-0.130162	-1.720083	-1.061558
C83	C	-0.158880	-1.652844	-1.116379
C84	C	-0.187612	-1.585588	-1.061477
C85	C	-0.187626	-1.585572	-0.951752
C86	C	-0.245060	-1.451103	-1.061392
C87	C	-0.245079	-1.451081	-0.951671
C88	C	-0.273778	-1.383863	-1.116214
C89	C	-0.302513	-1.316611	-1.061311
C90	C	-0.302529	-1.316590	-0.951582
C91	C	-0.273812	-1.383825	-0.896768
C92	C	-0.216436	-1.518189	-0.233071
C93	C	-0.216328	-1.518358	-0.116295
H94	H	-0.159015	-1.217917	-0.640682
H95	H	-0.472653	-1.396290	-0.383968
Br96	Br	-0.341480	-1.225359	-1.135714
H97	H	-0.159038	-0.819789	-0.640707
H98	H	-0.744156	-1.329289	-0.316854
H99	H	-0.158925	-1.652798	-0.807592
Br100	Br	-0.158852	-1.652867	-1.265289
H101	H	-0.472458	-1.639963	-0.628021
H102	H	-0.273794	-1.217689	-0.371367
Br103	Br	-0.091193	-1.811276	-0.877433
Br104	Br	-0.091159	-1.811338	-1.136074
Br105	Br	-0.273822	-0.759993	-0.371386
H106	H	-0.273761	-1.383885	-1.205555
H107	H	-0.603121	-1.707200	-0.695307
H108	H	-0.325921	-1.261810	-0.906887
H109	H	-0.273823	-1.383818	-0.807426
H110	H	-0.688227	-1.707246	-0.695346
Br111	Br	-0.946983	-1.676727	-0.664685
H112	H	-0.325872	-0.918983	-0.249230
Br113	Br	-1.057576	-1.676777	-0.664722
H114	H	-0.959932	-1.396573	-0.384160
H115	H	-0.325865	-1.118050	-0.249209
H116	H	-0.106968	-1.118498	-0.762840
Br117	Br	-0.374587	-1.676382	-0.664461
H118	H	-1.045041	-1.396642	-0.384177
H119	H	-0.688507	-1.329233	-0.316831
H120	H	-0.603398	-1.329179	-0.316814
Br121	Br	-0.374821	-1.359778	-0.347430
Br122	Br	-0.731108	-1.743736	-0.731872
Br123	Br	-0.841696	-1.743786	-0.731903
H124	H	-0.106975	-0.919428	-0.762855
Br125	Br	-0.842024	-1.292885	-0.280376
