data_functionalizedCrystal
_audit_creation_method	'MofGen! by Chris Wilmer'
_symmetry_space_group_name_H-M	'P1'
_symmetry_Int_Tables_number	1
_symmetry_cell_setting	triclinic
loop_
_symmetry_equiv_pos_as_xyz
  x,y,z
_cell_length_a	16.109301
_cell_length_b	10.723024
_cell_length_c	15.186229
_cell_angle_alpha	89.997422
_cell_angle_beta	89.999362
_cell_angle_gamma	83.964675
loop_
_atom_site_label
_atom_site_type_symbol
_atom_site_fract_x
_atom_site_fract_y
_atom_site_fract_z
O1	O	1.104074	0.160391	-0.073171
O2	O	0.862130	0.180351	-0.073184
O3	O	0.988683	-0.011279	-0.073174
O4	O	0.977521	0.352021	-0.073181
O5	O	0.988674	-0.011282	0.073283
O6	O	0.862121	0.180348	0.073273
O7	O	1.104066	0.160388	0.073287
Zn8	Zn	0.983092	0.170368	0.096533
Zn9	Zn	0.983103	0.170371	-0.096431
O10	O	0.977513	0.352018	0.073276
C11	C	0.831146	0.179541	0.000043
C12	C	0.738836	0.177117	0.000037
C13	C	0.517200	0.285190	0.000045
C14	C	0.430466	0.282903	0.000051
C15	C	0.449003	0.055540	0.000052
C16	C	0.535735	0.057829	0.000052
C17	C	0.569831	0.172657	0.000045
C18	C	0.396365	0.168081	0.000050
C19	C	0.302324	0.165600	0.000056
C20	C	0.663877	0.175139	0.000040
C21	C	0.987866	-0.057770	0.000054
C22	C	0.985436	-0.196292	0.000050
C23	C	1.056249	-0.272213	0.000053
C24	C	1.053739	-0.415383	0.000050
C25	C	1.135050	0.161198	0.000058
C26	C	1.227359	0.163622	0.000057
C27	C	0.978329	0.398508	0.000047
C28	C	0.980760	0.537031	0.000044
N29	N	0.983091	0.170364	0.228226
N30	N	0.983112	0.170365	-0.228123
C31	C	1.039148	0.085539	0.453953
C32	C	1.039150	0.085536	0.546143
C33	C	0.927049	0.255194	0.546143
C34	C	0.927043	0.255190	0.453955
C35	C	0.983097	0.170364	0.407862
C36	C	0.983105	0.170365	0.592240
C37	C	0.983108	0.170362	0.692196
C38	C	0.983094	0.170365	0.307900
H39	H	0.421231	-0.037950	0.000063
H40	H	0.544958	0.378691	0.000046
H41	H	1.084789	0.016467	0.416427
H42	H	0.922953	-0.237286	0.000041
H43	H	1.084791	0.016463	0.583668
O44	O	0.872686	0.337551	0.591055
C45	C	0.822982	0.412705	0.733075
C46	C	0.884604	0.319384	0.682325
H47	H	0.832585	0.398032	0.806875
H48	H	0.834385	0.512681	0.715006
H49	H	0.756308	0.396431	0.714905
H50	H	0.951302	0.335543	0.700468
H51	H	0.873129	0.219440	0.700398
H52	H	1.114359	-0.480619	0.000056
O53	O	0.379460	0.392333	0.000010
C54	C	0.370233	0.618087	0.000057
C55	C	0.428093	0.494246	0.000081
H56	H	0.409529	0.700515	0.000134
H57	H	0.329178	0.622789	-0.061248
H58	H	0.329148	0.622631	0.061336
H59	H	0.469229	0.489619	-0.061156
H60	H	0.469091	0.489595	0.061427
O61	O	0.586832	-0.051526	-0.000106
C62	C	0.629186	-0.245179	-0.075952
C63	C	0.571286	-0.121378	-0.075898
H64	H	0.616625	-0.301701	-0.137214
H65	H	0.697048	-0.223891	-0.076006
H66	H	0.616708	-0.301640	-0.014633
H67	H	0.583688	-0.064856	-0.137207
H68	H	0.503443	-0.142754	-0.075798
O69	O	1.130724	-0.223113	0.000098
C70	C	1.201129	-0.035652	0.000051
C71	C	1.116727	-0.091085	0.000021
H72	H	1.189843	0.071100	-0.000030
H73	H	1.238021	-0.068437	0.061360
H74	H	1.238015	-0.068595	-0.061224
H75	H	1.079774	-0.058167	0.061255
H76	H	1.079899	-0.058305	-0.061328
O77	O	0.908454	-0.385109	-0.000115
C78	C	0.823373	-0.220661	-0.075966
C79	C	0.905280	-0.308797	-0.075905
H80	H	0.820788	-0.158921	-0.137226
H81	H	0.768004	-0.278702	-0.076029
H82	H	0.820716	-0.159048	-0.014645
H83	H	0.908018	-0.370427	-0.137216
H84	H	0.960611	-0.250680	-0.075796
O85	O	0.872561	0.337716	0.409313
C86	C	0.761337	0.505942	0.419033
C87	C	0.823004	0.412581	0.469700
H88	H	0.721242	0.566477	0.467834
H89	H	0.797540	0.568377	0.375889
H90	H	0.719536	0.452019	0.375857
H91	H	0.864821	0.466402	0.512924
H92	H	0.786749	0.350147	0.512789
