data_functionalizedCrystal
_audit_creation_method	'MofGen! by Chris Wilmer'
_symmetry_space_group_name_H-M	'P1'
_symmetry_Int_Tables_number	1
_symmetry_cell_setting	triclinic
loop_
_symmetry_equiv_pos_as_xyz
  x,y,z
_cell_length_a	15.944551
_cell_length_b	10.654550
_cell_length_c	9.130313
_cell_angle_alpha	90.002757
_cell_angle_beta	90.006165
_cell_angle_gamma	96.008166
loop_
_atom_site_label
_atom_site_type_symbol
_atom_site_fract_x
_atom_site_fract_y
_atom_site_fract_z
O1	O	0.117978	-1.666307	0.121694
O2	O	0.617978	-1.166307	0.621694
O3	O	0.129218	-1.300683	0.121721
O4	O	0.629218	-0.800683	0.621721
O5	O	0.001381	-1.493480	0.121693
O6	O	0.501381	-0.993480	0.621693
O7	O	0.245815	-1.473511	0.121721
O8	O	0.745815	-0.973511	0.621721
O9	O	0.001374	-1.493478	-0.121906
O10	O	0.501374	-0.993478	0.378094
O11	O	0.129211	-1.300682	-0.121878
O12	O	0.629211	-0.800682	0.378122
O13	O	0.117972	-1.666306	-0.121905
O14	O	0.617972	-1.166306	0.378095
Cu15	Cu	0.123591	-1.483493	-0.144134
Cu16	Cu	0.623591	-0.983493	0.355866
Cu17	Cu	0.123598	-1.483495	0.143950
Cu18	Cu	0.623598	-0.983495	0.643950
O19	O	0.245809	-1.473509	-0.121878
O20	O	0.745809	-0.973509	0.378122
C21	C	0.128389	-1.253895	-0.000075
C22	C	0.628389	-0.753895	0.499925
C23	C	0.125920	-1.114484	-0.000065
C24	C	0.625920	-0.614484	0.499935
C25	C	-0.029921	-1.492650	-0.000106
C26	C	0.470079	-0.992650	0.499894
C27	C	-0.123182	-1.490165	-0.000107
C28	C	0.376818	-0.990165	0.499893
N29	N	0.123585	-1.483501	-0.346757
N30	N	0.623585	-0.983501	0.153243
C31	C	-0.338764	-1.364720	-0.000077
C32	C	0.161236	-0.864720	0.499923
C33	C	-0.399448	-1.422971	-0.120191
C34	C	0.100552	-0.922971	0.379809
C35	C	-0.293933	-1.485668	-0.000095
C36	C	0.206067	-0.985668	0.499905
C37	C	-0.399425	-1.423002	0.119979
C38	C	0.100575	-0.923002	0.619979
C39	C	-0.458871	-1.481317	-0.000078
C40	C	0.041129	-0.981317	0.499922
C41	C	-0.353388	-1.543953	-0.120308
C42	C	0.146612	-1.043953	0.379692
C43	C	-0.353359	-1.543966	0.119969
C44	C	0.146641	-1.043966	0.619969
C45	C	-0.414024	-1.602306	-0.000173
C46	C	0.085976	-1.102306	0.499827
C47	C	-0.198917	-1.488172	-0.000107
C48	C	0.301083	-0.988172	0.499893
C49	C	-0.553887	-1.478822	-0.000077
C50	C	-0.053887	-0.978822	0.499923
C51	C	0.277110	-1.474339	-0.000075
C52	C	0.777110	-0.974339	0.499925
C53	C	0.370371	-1.476824	-0.000065
C54	C	0.870371	-0.976824	0.499935
C55	C	0.118800	-1.713094	-0.000106
C56	C	0.618800	-1.213094	0.499894
C57	C	0.121269	-1.852505	-0.000106
C58	C	0.621269	-1.352505	0.499894
C59	C	0.201189	-1.034024	-0.000061
C60	C	0.701189	-0.534024	0.499939
C61	C	0.198863	-0.903034	-0.000087
C62	C	0.698863	-0.403034	0.499913
C63	C	0.045995	-0.932975	-0.000115
C64	C	0.545995	-0.432975	0.499885
C65	C	0.048321	-1.063963	-0.000100
C66	C	0.548321	-0.563963	0.499900
N67	N	0.123597	-1.483498	0.346572
N68	N	0.623597	-0.983498	0.846572
C69	C	0.067103	-1.569027	0.423212
C70	C	0.567103	-1.069027	0.923212
C71	C	0.067099	-1.569032	0.576549
C72	C	0.567099	-1.069032	1.076549
C73	C	0.180085	-1.397968	0.576593
C74	C	0.680085	-0.897968	1.076593
C75	C	0.180093	-1.397970	0.423259
C76	C	0.680093	-0.897970	0.923259
H77	H	-0.306038	-1.264327	-0.000190
H78	H	0.193962	-0.764327	0.499810
H79	H	-0.419795	-1.371830	0.221532
H80	H	0.080205	-0.871830	0.721532
H81	H	-0.332930	-1.595080	0.221513
H82	H	0.167070	-1.095080	0.721513
H83	H	-0.017184	-0.891824	-0.000152
H84	H	0.482816	-0.391824	0.499848
H85	H	-0.012976	-1.129477	-0.000108
H86	H	0.487024	-0.629477	0.499892
H87	H	0.226082	-1.328331	0.639046
H88	H	0.726082	-0.828331	1.139046
H89	H	-0.333105	-1.595066	-0.221966
H90	H	0.166895	-1.095066	0.278034
H91	H	0.021098	-1.638679	0.638945
H92	H	0.521098	-1.138679	1.138945
H93	H	0.226101	-1.328321	0.360855
H94	H	0.726101	-0.828321	0.860855
H95	H	0.264375	-1.075154	-0.000044
H96	H	0.764375	-0.575154	0.499956
H97	H	0.260155	-0.837528	-0.000086
H98	H	0.760155	-0.337528	0.499914
H99	H	0.021102	-1.638671	0.360778
H100	H	0.521102	-1.138671	0.860778
H101	H	-0.419855	-1.371814	-0.221729
H102	H	0.080145	-0.871814	0.278271
H103	H	-0.446601	-1.702787	-0.000249
H104	H	0.053399	-1.202787	0.499751
