data_functionalizedCrystal
_audit_creation_method	'MofGen! by Chris Wilmer'
_symmetry_space_group_name_H-M	'P1'
_symmetry_Int_Tables_number	1
_symmetry_cell_setting	triclinic
loop_
_symmetry_equiv_pos_as_xyz
  x,y,z
_cell_length_a	17.699104
_cell_length_b	16.776229
_cell_length_c	17.699083
_cell_angle_alpha	90.000273
_cell_angle_beta	83.287266
_cell_angle_gamma	89.995647
loop_
_atom_site_label
_atom_site_type_symbol
_atom_site_fract_x
_atom_site_fract_y
_atom_site_fract_z
O1	O	0.095709	-0.066178	1.004085
O2	O	0.595709	0.433822	1.504085
O3	O	0.108161	-0.066204	0.783707
O4	O	0.608161	0.433796	1.283707
O5	O	-0.008253	-0.066183	0.900114
O6	O	0.491747	0.433817	1.400114
O7	O	0.212123	-0.066199	0.887678
O8	O	0.712123	0.433801	1.387678
O9	O	-0.008254	0.066393	0.900101
O10	O	0.491746	0.566393	1.400101
O11	O	0.108161	0.066372	0.783694
O12	O	0.608161	0.566372	1.283694
O13	O	0.095708	0.066398	1.004071
O14	O	0.595708	0.566398	1.504071
Zn15	Zn	0.101934	0.087435	0.893881
Zn16	Zn	0.601934	0.587435	1.393881
Zn17	Zn	0.101935	-0.087241	0.893898
Zn18	Zn	0.601935	0.412759	1.393898
O19	O	0.212123	0.066377	0.887665
O20	O	0.712123	0.566377	1.387665
C21	C	-0.036450	0.000105	0.899659
C22	C	0.463550	0.500105	1.399659
C23	C	-0.120467	0.000105	0.898314
C24	C	0.379533	0.500105	1.398314
C25	C	0.107715	0.000081	0.755503
C26	C	0.607715	0.500081	1.255503
C27	C	0.106376	0.000071	0.671485
C28	C	0.606376	0.500071	1.171485
C29	C	-0.645338	0.000090	0.959058
C30	C	-0.145338	0.500090	1.459058
C31	C	-0.566395	0.000097	0.960317
C32	C	-0.066395	0.500097	1.460317
C33	C	-0.517777	0.000091	0.891982
C34	C	-0.017777	0.500091	1.391982
C35	C	-0.548107	0.000085	0.822383
C36	C	-0.048107	0.500085	1.322383
C37	C	-0.627049	0.000084	0.821125
C38	C	-0.127049	0.500084	1.321125
C39	C	-0.229741	0.000092	0.827456
C40	C	0.270259	0.500092	1.327456
C41	C	-0.150794	0.000092	0.828720
C42	C	0.349206	0.500092	1.328720
C43	C	-0.169086	0.000106	0.966648
C44	C	0.330914	0.500106	1.466648
C45	C	-0.248029	0.000104	0.965390
C46	C	0.251971	0.500104	1.465390
C47	C	-0.278352	0.000103	0.895792
C48	C	0.221648	0.500103	1.395792
C49	C	-0.363951	0.000097	0.894427
C50	C	0.136049	0.500097	1.394427
C51	C	-0.432179	0.000091	0.893345
C52	C	0.067821	0.500091	1.393345
N53	N	0.101934	0.206646	0.893874
N54	N	0.601934	0.706646	1.393874
C55	C	0.240319	0.000087	0.888120
C56	C	0.740319	0.500087	1.388120
C57	C	0.324337	0.000082	0.889464
C58	C	0.824337	0.500082	1.389464
N59	N	0.101930	-0.206452	0.893910
N60	N	0.601930	0.293548	1.393910
C61	C	0.147782	0.248362	0.939693
C62	C	0.647782	0.748362	1.439693
C63	C	0.147779	0.331814	0.939701
C64	C	0.647779	0.831814	1.439701
C65	C	0.101931	0.373549	0.893887
C66	C	0.601931	0.873549	1.393887
C67	C	0.056078	0.331827	0.848066
C68	C	0.556078	0.831827	1.348066
C69	C	0.056077	0.248376	0.848062
C70	C	0.556077	0.748376	1.348062
C71	C	0.056079	0.668374	0.848082
C72	C	0.556079	1.168374	1.348082
C73	C	0.056085	0.751831	0.848087
C74	C	0.556085	1.251831	1.348087
C75	C	0.147781	0.751812	0.939720
C76	C	0.647781	1.251812	1.439720
C77	C	0.147780	0.668361	0.939716
C78	C	0.647780	1.168361	1.439716
C79	C	0.101924	0.626647	0.893899
C80	C	0.601924	1.126647	1.393899
C81	C	0.101926	0.536158	0.893892
C82	C	0.601926	1.036158	1.393892
C83	C	0.101932	0.464036	0.893889
C84	C	0.601932	0.964036	1.393889
C85	C	0.174709	0.000066	0.622869
C86	C	0.674709	0.500066	1.122869
C87	C	0.173446	0.000076	0.543926
C88	C	0.673446	0.500076	1.043926
C89	C	0.103851	0.000086	0.513600
C90	C	0.603851	0.500086	1.013600
C91	C	0.035513	0.000093	0.562222
C92	C	0.535513	0.500093	1.062222
C93	C	0.036776	0.000088	0.641164
C94	C	0.536776	0.500088	1.141164
C95	C	0.030418	0.000113	0.243859
C96	C	0.530418	0.500113	0.743859
C97	C	0.029160	0.000115	0.164911
C98	C	0.529160	0.500115	0.664911
C99	C	0.167088	0.000101	0.146621
C100	C	0.667088	0.500101	0.646621
C101	C	0.168351	0.000097	0.225563
C102	C	0.668351	0.500097	0.725563
C103	C	0.100014	0.000108	0.274178
C104	C	0.600014	0.500108	0.774178
C105	C	0.101383	0.000098	0.359777
C106	C	0.601383	0.500098	0.859777
C107	C	0.102480	0.000090	0.428002
C108	C	0.602480	0.500090	0.928002
C109	C	0.096155	0.000112	1.032275
C110	C	0.596155	0.500112	1.532275
C111	C	0.097493	0.000116	1.116293
C112	C	0.597493	0.500116	1.616293
H113	H	-0.684918	0.000088	1.014705
H114	H	-0.184918	0.500088	1.514705
H115	H	0.185117	0.785786	0.977029
H116	H	0.685117	1.285786	1.477029
H117	H	0.018744	0.365814	0.810767
H118	H	0.518744	0.865814	1.310767
H119	H	-0.111210	0.000088	0.773070
H120	H	0.388790	0.500088	1.273070
H121	H	0.185112	0.365775	0.977012
H122	H	0.685112	0.865775	1.477012
H123	H	-0.508516	0.000085	0.766743
H124	H	-0.008516	0.500085	1.266743
H125	H	0.018748	0.785809	0.810778
H126	H	0.518748	1.285809	1.310778
F127	F	-0.262003	0.000085	0.753383
F128	F	0.237997	0.500085	1.253383
F129	F	-0.136808	0.000111	1.040722
F130	F	0.363192	0.500111	1.540722
H131	H	0.231382	0.000058	0.647554
H132	H	0.731382	0.500058	1.147554
H133	H	0.185121	0.214387	0.976996
H134	H	0.685121	0.714387	1.476996
H135	H	-0.541708	0.000104	1.016987
H136	H	-0.041708	0.500104	1.516987
H137	H	0.229090	0.000072	0.504346
H138	H	0.729090	0.500072	1.004346
F139	F	-0.299767	0.000108	1.038122
F140	F	0.200233	0.500108	1.538122
F141	F	-0.659322	0.000079	0.747054
F142	F	-0.159322	0.500079	1.247054
H143	H	0.185117	0.634385	0.977020
H144	H	0.685117	1.134385	1.477020
H145	H	0.018740	0.634420	0.810775
H146	H	0.518740	1.134420	1.310775
F147	F	0.242424	0.000082	0.257833
F148	F	0.742424	0.500082	0.757833
H149	H	0.018743	0.214412	0.810752
H150	H	0.518743	0.714412	1.310752
H151	H	0.222732	0.000096	0.107028
H152	H	0.722732	0.500096	0.607028
H153	H	-0.027517	0.000124	0.140223
H154	H	0.472483	0.500124	0.640223
F155	F	-0.042314	0.000125	0.295589
F156	F	0.457686	0.500125	0.795589
F157	F	-0.038557	0.000108	0.529945
F158	F	0.461443	0.500108	1.029945
H159	H	-0.018868	0.000091	0.680747
H160	H	0.481132	0.500091	1.180747
