data_functionalizedCrystal
_audit_creation_method	'MofGen! by Chris Wilmer'
_symmetry_space_group_name_H-M	'P1'
_symmetry_Int_Tables_number	1
_symmetry_cell_setting	triclinic
loop_
_symmetry_equiv_pos_as_xyz
  x,y,z
_cell_length_a	15.297475
_cell_length_b	25.639239
_cell_length_c	15.296720
_cell_angle_alpha	80.361144
_cell_angle_beta	88.382886
_cell_angle_gamma	80.340538
loop_
_atom_site_label
_atom_site_type_symbol
_atom_site_fract_x
_atom_site_fract_y
_atom_site_fract_z
Zn1	Zn	1.253213	-0.406888	0.726521
Zn2	Zn	1.278441	-0.482170	0.580022
Zn3	Zn	1.132104	-0.377518	0.554767
Zn4	Zn	1.106670	-0.477031	0.701152
O5	O	1.192607	-0.435902	0.640616
O6	O	1.379131	-0.431317	0.728274
O7	O	1.280232	-0.458147	0.454100
O8	O	1.148256	-0.308262	0.577599
O9	O	1.397666	-0.486626	0.620642
O10	O	1.237234	-0.329841	0.703785
O11	O	1.172719	-0.381260	0.435545
O12	O	1.006159	-0.376276	0.552999
O13	O	1.104906	-0.477867	0.827090
O14	O	0.987472	-0.449388	0.660547
O15	O	1.212571	-0.426334	0.845728
O16	O	1.255568	-0.554640	0.596043
O17	O	1.129369	-0.550864	0.685036
C18	C	0.965034	-0.409088	0.601280
C19	C	0.867674	-0.397631	0.584473
C20	C	0.554472	-0.517789	0.760740
C21	C	0.645948	-0.528557	0.776529
C22	C	0.701384	-0.495826	0.728517
C23	C	0.665336	-0.452326	0.664713
C24	C	0.573852	-0.441560	0.648918
C25	C	0.720763	-0.419597	0.616694
C26	C	0.684715	-0.376097	0.552890
C27	C	0.593241	-0.365332	0.537098
C28	C	0.537805	-0.398063	0.585110
C29	C	0.812247	-0.430363	0.632489
C30	C	0.831627	-0.354134	0.520666
C31	C	0.740151	-0.343366	0.504877
C32	C	1.192467	-0.571724	0.640550
C33	C	1.192482	-0.629841	0.640565
C34	C	1.258449	-0.992200	0.594398
C35	C	1.258481	-1.046809	0.594415
O36	O	1.314423	-1.076721	0.555091
N37	N	1.192751	-1.072164	0.640700
C38	C	1.126990	-1.042907	0.686978
O39	O	1.071085	-1.069488	0.726350
C40	C	1.126963	-0.988300	0.686965
C41	C	1.192692	-0.962947	0.640670
C42	C	1.324173	-0.966847	0.548107
C43	C	1.324140	-0.912241	0.548088
C44	C	1.258383	-0.882988	0.594360
C45	C	1.192658	-0.908341	0.640651
C46	C	1.061206	-0.959045	0.733248
C47	C	1.061185	-0.904435	0.733232
C48	C	1.126914	-0.879082	0.686936
C49	C	1.126868	-0.824483	0.686905
N50	N	1.192598	-0.799128	0.640619
C51	C	1.258355	-0.828381	0.594347
C52	C	1.127054	-1.157587	0.687003
C53	C	1.127077	-1.212192	0.687011
C54	C	1.258569	-1.216091	0.594449
C55	C	1.258541	-1.161483	0.594437
C56	C	1.192784	-1.132232	0.640718
C57	C	1.258280	-0.713705	0.594311
C58	C	1.258239	-0.659094	0.594293
C59	C	1.126750	-0.655201	0.686858
C60	C	1.126788	-0.709806	0.686873
C61	C	1.192561	-0.739058	0.640597
O62	O	1.070956	-0.794537	0.726211
O63	O	1.314257	-0.801795	0.554992
C64	C	1.421068	-0.462821	0.680105
C65	C	1.518425	-0.474292	0.696933
C66	C	1.153088	-0.454803	0.869079
C67	C	1.136247	-0.462858	0.966437
C68	C	1.192768	-0.299554	0.640705
C69	C	1.192837	-0.241450	0.640743
C70	C	1.232023	-0.417042	0.413049
C71	C	1.249034	-0.408860	0.315722
C72	C	1.313004	-0.378246	1.279690
C73	C	1.328832	-0.370679	1.188219
C74	C	1.280687	-0.393723	1.132769
C75	C	1.216711	-0.424335	1.168799
C76	C	1.200886	-0.431905	1.260281
C77	C	1.168569	-0.447383	1.113359
C78	C	1.104593	-0.477995	1.149390
C79	C	1.088771	-0.485564	1.240862
C80	C	1.136916	-0.462520	1.296312
C81	C	1.184394	-0.439812	1.021878
C82	C	1.072276	-0.493472	1.002468
C83	C	1.056448	-0.501039	1.093940
H84	H	1.311764	-0.638453	0.556590
H85	H	0.876763	-0.327483	0.481569
H86	H	0.710788	-0.307948	0.452927
H87	H	1.293579	-0.387561	1.058289
H88	H	1.312114	-1.239919	0.556776
O89	O	1.387976	-0.887663	0.502996
C90	C	1.384008	-0.891560	0.412386
H91	H	1.350665	-0.927106	0.404735
H92	H	1.344108	-0.853112	0.375051
C93	C	1.519564	-0.856078	0.383576
C94	C	1.478618	-0.899739	0.374179
H95	H	1.577924	-0.861121	0.360006
H96	H	1.522236	-0.853450	0.444621
H97	H	1.486306	-0.824042	0.352463
H98	H	1.511871	-0.931773	0.405301
H99	H	1.475954	-0.902373	0.313139
O100	O	1.390850	-0.340881	1.153114
C101	C	1.350150	-0.296856	1.091634
H102	H	1.286134	-0.306349	1.066432
H103	H	1.334446	-0.259908	1.125269
C104	C	1.492007	-0.274192	1.044038
C105	C	1.413385	-0.285854	1.013079
H106	H	1.531014	-0.267403	0.995583
H107	H	1.519428	-0.303852	1.085460
H108	H	1.478908	-0.243404	1.072067
H109	H	1.426484	-0.316645	0.985061
H110	H	1.385968	-0.256199	0.971650
O111	O	1.388171	-0.995294	0.503330
C112	C	1.436075	-1.037614	0.563051
H113	H	1.429407	-1.027479	0.632962
H114	H	1.408559	-1.076092	0.561346
C115	C	1.542766	-1.058006	0.450288
C116	C	1.534583	-1.045555	0.536153
H117	H	1.603530	-1.062907	0.433695
H118	H	1.510491	-1.029495	0.410051
H119	H	1.519831	-1.090070	0.448878
H120	H	1.557507	-1.013489	0.537559
H121	H	1.566864	-1.074061	0.576389
O122	O	1.322210	-0.742029	0.549278
C123	C	1.380217	-0.707936	0.508439
H124	H	1.344841	-0.664556	0.499174
H125	H	1.441155	-0.712568	0.552057
C126	C	1.452502	-0.776317	0.428800
C127	C	1.409049	-0.723037	0.417414
H128	H	1.470290	-0.785632	0.372654
H129	H	1.413424	-0.799287	0.456316
H130	H	1.503278	-0.780170	0.465152
H131	H	1.358268	-0.719186	0.381073
H132	H	1.448119	-0.700066	0.389890
O133	O	1.063180	-1.236738	0.732053
C134	C	1.005125	-1.199199	0.772866
H135	H	1.040453	-1.164729	0.782111
H136	H	0.944184	-1.182948	0.729239
C137	C	0.932919	-1.269043	0.852539
C138	C	0.976312	-1.226709	0.863900
H139	H	0.915141	-1.286013	0.908691
H140	H	0.972029	-1.294334	0.825040
H141	H	0.882140	-1.255495	0.816180
H142	H	1.027095	-1.240259	0.900249
H143	H	0.937209	-1.201421	0.891407
O144	O	0.680898	-0.570758	0.838626
C145	C	0.643447	-0.564018	0.922101
H146	H	0.617556	-0.519675	0.922317
H147	H	0.586378	-0.587704	0.935737
C148	C	0.746405	-0.639022	0.994306
C149	C	0.714612	-0.584559	0.994574
H150	H	0.790300	-0.651695	1.039012
H151	H	0.771635	-0.643565	0.938067
H152	H	0.698840	-0.658754	1.005667
H153	H	0.762174	-0.564827	0.983203
H154	H	0.689392	-0.580013	1.050813
H155	H	0.509330	-0.544436	0.799820
O156	O	1.063142	-1.129100	0.731825
C157	C	1.015209	-1.086778	0.672129
H158	H	1.057630	-1.076742	0.611125
H159	H	0.951998	-1.099424	0.651233
C160	C	0.938832	-1.049349	0.792480
C161	C	0.990937	-1.037020	0.717557
H162	H	0.923856	-1.018656	0.820502
H163	H	0.971123	-1.077863	0.832699
H164	H	0.886162	-1.059888	0.775056
H165	H	1.043611	-1.026488	0.734983
H166	H	0.958655	-1.008503	0.677342
H167	H	1.312064	-1.140844	0.556739
H168	H	1.007679	-0.979677	0.770942
O169	O	1.062990	-0.626777	0.731923
C170	C	1.103024	-0.605689	0.797114
H171	H	1.171066	-0.630686	0.814501
H172	H	1.110734	-0.562427	0.770540
C173	C	0.960855	-0.576628	0.859380
C174	C	1.044422	-0.607332	0.880740
H175	H	0.924706	-0.577639	0.910964
H176	H	0.933882	-0.590833	0.815458
H177	H	0.967293	-0.540579	0.837234
H178	H	1.037984	-0.643381	0.902875
H179	H	1.071392	-0.593133	0.924669
H180	H	0.463317	-0.389297	0.572260
O181	O	1.026580	-0.515238	1.275961
C182	C	0.960878	-0.483190	1.319106
H183	H	0.989440	-0.448345	1.338170
H184	H	0.902064	-0.466887	1.272646
C185	C	0.894893	-0.560074	1.379830
C186	C	0.929977	-0.517279	1.403252
H187	H	0.875828	-0.581102	1.431733
H188	H	0.939156	-0.581665	1.350760
H189	H	0.845886	-0.546482	1.341111
H190	H	0.978990	-0.530872	1.441960
H191	H	0.885722	-0.495691	1.432331
O192	O	0.558358	-0.323107	0.474999
C193	C	0.595795	-0.329873	0.391529
H194	H	0.662512	-0.357636	0.401138
H195	H	0.549400	-0.348213	0.353042
C196	C	0.527296	-0.240884	0.327556
C197	C	0.609242	-0.274981	0.339358
H198	H	0.535588	-0.207025	0.295372
H199	H	0.502071	-0.236326	0.383791
H200	H	0.488642	-0.256174	0.295487
H201	H	0.647891	-0.259694	0.371436
H202	H	0.634474	-0.279535	0.283127
O203	O	0.994427	-0.530851	1.129006
C204	C	1.035099	-0.574860	1.190534
H205	H	1.108849	-0.583938	1.174886
H206	H	1.026147	-0.564787	1.260393
C207	C	0.901416	-0.613127	1.203731
C208	C	0.991996	-0.624279	1.184507
H209	H	0.874826	-0.643611	1.200018
H210	H	0.874013	-0.583477	1.162281
H211	H	0.893968	-0.604732	1.261946
H212	H	0.999443	-0.632667	1.126289
H213	H	1.019400	-0.653933	1.225947
H214	H	1.007637	-0.880621	0.770923
O215	O	1.359664	-0.355885	1.333674
C216	C	1.331997	-0.369147	1.422141
H217	H	1.262216	-0.379331	1.422934
H218	H	1.379423	-0.405259	1.457054
C219	C	1.417676	-0.308585	1.469568
C220	C	1.331967	-0.321089	1.470543
H221	H	1.417662	-0.278942	1.499427
H222	H	1.436319	-0.299651	1.409967
H223	H	1.457189	-0.338682	1.498661
H224	H	1.292459	-0.290995	1.441440
H225	H	1.313317	-0.330016	1.530140
H226	H	1.073269	-0.730450	0.724573
H227	H	0.841588	-0.465781	0.684439
H228	H	1.236483	-0.414888	0.992551
H229	H	0.775866	-0.504596	0.741376
H230	H	1.124032	-0.468679	1.370796
H231	H	1.033074	-0.512238	0.957321
