data_functionalizedCrystal
_audit_creation_method	'MofGen! by Chris Wilmer'
_symmetry_space_group_name_H-M	'P1'
_symmetry_Int_Tables_number	1
_symmetry_cell_setting	triclinic
loop_
_symmetry_equiv_pos_as_xyz
  x,y,z
_cell_length_a	29.839131
_cell_length_b	29.839134
_cell_length_c	12.759393
_cell_angle_alpha	89.979487
_cell_angle_beta	89.961905
_cell_angle_gamma	90.021992
loop_
_atom_site_label
_atom_site_type_symbol
_atom_site_fract_x
_atom_site_fract_y
_atom_site_fract_z
Zn1	Zn	-0.179059	0.686756	-0.594023
Zn2	Zn	0.320941	1.186756	-0.094023
Zn3	Zn	-0.254198	0.686678	-0.418323
Zn4	Zn	0.245802	1.186678	0.081677
Zn5	Zn	-0.179057	0.611628	-0.418352
Zn6	Zn	0.320943	1.111628	0.081648
Zn7	Zn	-0.254137	0.611587	-0.593955
Zn8	Zn	0.245863	1.111587	-0.093955
O9	O	-0.216613	0.649162	-0.506163
O10	O	0.283387	1.149162	-0.006163
O11	O	-0.189052	0.749613	-0.570732
O12	O	0.310948	1.249613	-0.070732
O13	O	-0.244255	0.676707	-0.271306
O14	O	0.255745	1.176707	0.228694
O15	O	-0.116190	0.621644	-0.441696
O16	O	0.383810	1.121644	0.058304
O17	O	-0.244256	0.749555	-0.441646
O18	O	0.255744	1.249555	0.058354
O19	O	-0.116191	0.676841	-0.570760
O20	O	0.383809	1.176841	-0.070760
O21	O	-0.189049	0.621568	-0.271327
O22	O	0.310951	1.121568	0.228673
O23	O	-0.188990	0.548756	-0.441630
O24	O	0.311010	1.048756	0.058370
O25	O	-0.244153	0.621574	-0.740985
O26	O	0.255847	1.121574	-0.240985
O27	O	-0.244151	0.548725	-0.570645
O28	O	0.255849	1.048725	-0.070645
O29	O	-0.188994	0.676801	-0.741035
O30	O	0.311006	1.176801	-0.241035
O31	O	-0.317057	0.676666	-0.441581
O32	O	0.182943	1.176666	0.058419
O33	O	-0.317012	0.621498	-0.570617
O34	O	0.182988	1.121498	-0.070617
C35	C	-0.216564	0.532440	-0.506134
C36	C	0.283436	1.032440	-0.006134
C37	C	-0.216555	0.482505	-0.506147
C38	C	0.283445	0.982505	-0.006147
C39	C	-0.333335	0.649081	-0.506111
C40	C	0.166665	1.149081	-0.006111
C41	C	-0.383270	0.649088	-0.506124
C42	C	0.116730	1.149088	-0.006124
C43	C	-0.187928	0.125944	-0.573510
C44	C	0.312072	0.625944	-0.073510
C45	C	-0.187892	0.313617	-0.573486
C46	C	0.312108	0.813617	-0.073486
O47	O	-0.163495	0.337904	-0.630756
O48	O	0.336505	0.837904	-0.130756
N49	N	-0.216584	0.337060	-0.506171
N50	N	0.283416	0.837060	-0.006171
C51	C	-0.245290	0.313582	-0.438863
C52	C	0.254710	0.813582	0.061137
O53	O	-0.269697	0.337828	-0.381614
O54	O	0.230303	0.837828	0.118386
C55	C	-0.245328	0.125910	-0.438893
C56	C	0.254672	0.625910	0.061107
C57	C	-0.216630	0.102469	-0.506205
C58	C	0.283370	0.602469	-0.006205
C59	C	-0.159233	0.102504	-0.640817
C60	C	0.340767	0.602504	-0.140817
C61	C	-0.159240	0.055588	-0.640819
C62	C	0.340760	0.555588	-0.140819
C63	C	-0.187943	0.032113	-0.573513
C64	C	0.312057	0.532113	-0.073513
C65	C	-0.216638	0.055554	-0.506206
C66	C	0.283362	0.555554	-0.006206
C67	C	-0.274035	0.102432	-0.371590
C68	C	0.225965	0.602432	0.128410
C69	C	-0.274043	0.055511	-0.371606
C70	C	0.225957	0.555511	0.128394
C71	C	-0.245346	0.032071	-0.438918
C72	C	0.254654	0.532071	0.061082
C73	C	-0.245348	-0.014837	-0.438902
C74	C	0.254652	0.485163	0.061098
N75	N	-0.216655	-0.038279	-0.506217
N76	N	0.283345	0.461721	-0.006217
C77	C	-0.187953	-0.014805	-0.573522
C78	C	0.312047	0.485195	-0.073522
C79	C	-0.245267	0.412113	-0.438850
C80	C	0.254733	0.912113	0.061150
C81	C	-0.245257	0.459030	-0.438841
C82	C	0.254743	0.959030	0.061159
C83	C	-0.187859	0.459062	-0.573466
C84	C	0.312141	0.959062	-0.073466
C85	C	-0.187867	0.412144	-0.573469
C86	C	0.312133	0.912144	-0.073469
C87	C	-0.216575	0.388670	-0.506165
C88	C	0.283425	0.888670	-0.006165
C89	C	-0.187971	-0.113330	-0.573519
C90	C	0.312029	0.386670	-0.073519
C91	C	-0.187980	-0.160250	-0.573512
C92	C	0.312020	0.339750	-0.073512
C93	C	-0.245379	-0.160278	-0.438891
C94	C	0.254621	0.339722	0.061109
C95	C	-0.245368	-0.113362	-0.438894
C96	C	0.254632	0.386638	0.061106
C97	C	-0.216663	-0.089890	-0.506217
C98	C	0.283337	0.410110	-0.006217
O99	O	-0.269736	-0.039152	-0.381670
O100	O	0.230264	0.460848	0.118330
O101	O	-0.163556	-0.039059	-0.630778
O102	O	0.336444	0.460941	-0.130778
C103	C	-0.187920	0.172860	-0.573509
C104	C	0.312080	0.672860	-0.073509
C105	C	-0.216615	0.196300	-0.506202
C106	C	0.283385	0.696300	-0.006202
C107	C	-0.245318	0.172825	-0.438896
C108	C	0.254682	0.672825	0.061104
C109	C	-0.216605	0.243218	-0.506193
C110	C	0.283395	0.743218	-0.006193
C111	C	-0.187903	0.266693	-0.573499
C112	C	0.312097	0.766693	-0.073499
C113	C	-0.159210	0.243250	-0.640813
C114	C	0.340790	0.743250	-0.140813
C115	C	-0.159218	0.196335	-0.640815
C116	C	0.340782	0.696335	-0.140815
C117	C	-0.274010	0.196268	-0.371582
C118	C	0.225990	0.696268	0.128418
C119	C	-0.274000	0.243184	-0.371585
C120	C	0.226000	0.743184	0.128415
C121	C	-0.245297	0.266659	-0.438891
C122	C	0.254703	0.766659	0.061109
C123	C	-0.692923	0.677941	-0.439072
C124	C	-0.192923	1.177941	0.060928
C125	C	-0.880597	0.677996	-0.439113
C126	C	-0.380597	1.177996	0.060887
O127	O	-0.904870	0.702464	-0.382063
O128	O	-0.404870	1.202464	0.117937
N129	N	-0.904055	0.649255	-0.506243
N130	N	-0.404055	1.149255	-0.006243
C131	C	-0.880592	0.620501	-0.573371
C132	C	-0.380592	1.120501	-0.073371
O133	O	-0.904850	0.596059	-0.630478
O134	O	-0.404850	1.096059	-0.130478
C135	C	-0.692919	0.620448	-0.573335
C136	C	-0.192919	1.120448	-0.073335
C137	C	-0.669464	0.649187	-0.506194
C138	C	-0.169464	1.149187	-0.006194
C139	C	-0.669468	0.706679	-0.371938
C140	C	-0.169468	1.206679	0.128062
C141	C	-0.622552	0.706663	-0.371924
C142	C	-0.122552	1.206663	0.128076
C143	C	-0.599093	0.677909	-0.439045
C144	C	-0.099093	1.177909	0.060955
C145	C	-0.622548	0.649172	-0.506180
C146	C	-0.122548	1.149172	-0.006180
C147	C	-0.669457	0.591696	-0.640468
C148	C	-0.169457	1.091696	-0.140468
C149	C	-0.622536	0.591686	-0.640455
C150	C	-0.122536	1.091686	-0.140455
C151	C	-0.599081	0.620425	-0.573314
C152	C	-0.099081	1.120425	-0.073314
C153	C	-0.552173	0.620402	-0.573288
C154	C	-0.052173	1.120402	-0.073288
N155	N	-0.528715	0.649143	-0.506159
N156	N	-0.028715	1.149143	-0.006159
C157	C	-0.552175	0.677897	-0.439037
C158	C	-0.052175	1.177897	0.060963
C159	C	-0.979122	0.620530	-0.573384
C160	C	-0.479122	1.120530	-0.073384
C161	C	-1.026040	0.620542	-0.573392
C162	C	-0.526040	1.120542	-0.073392
C163	C	-1.026042	0.678039	-0.439135
C164	C	-0.526042	1.178039	0.060865
C165	C	-0.979123	0.678024	-0.439123
C166	C	-0.479123	1.178024	0.060877
C167	C	-0.955664	0.649271	-0.506255
C168	C	-0.455664	1.149271	-0.006255
C169	C	-0.453649	0.677861	-0.439013
C170	C	0.046351	1.177861	0.060987
C171	C	-0.406729	0.677841	-0.439003
C172	C	0.093271	1.177841	0.060997
C173	C	-0.406732	0.620347	-0.573263
C174	C	0.093268	1.120347	-0.073263
C175	C	-0.453647	0.620364	-0.573270
C176	C	0.046353	1.120364	-0.073270
C177	C	-0.477105	0.649125	-0.506142
C178	C	0.022895	1.149125	-0.006142
O179	O	-0.527870	0.595951	-0.630316
O180	O	-0.027870	1.095951	-0.130316
O181	O	-0.527908	0.702341	-0.381956
O182	O	-0.027908	1.202341	0.118044
C183	C	-0.739839	0.677957	-0.439086
C184	C	-0.239839	1.177957	0.060914
C185	C	-0.763295	0.649219	-0.506221
C186	C	-0.263295	1.149219	-0.006221
C187	C	-0.739835	0.620466	-0.573342
C188	C	-0.239835	1.120466	-0.073342
C189	C	-0.810212	0.649232	-0.506229
C190	C	-0.310212	1.149232	-0.006229
C191	C	-0.833672	0.677985	-0.439108
C192	C	-0.333672	1.177985	0.060892
C193	C	-0.810214	0.706726	-0.371978
C194	C	-0.310214	1.206726	0.128022
C195	C	-0.763299	0.706710	-0.371965
C196	C	-0.263299	1.206710	0.128035
C197	C	-0.763293	0.591725	-0.640472
C198	C	-0.263293	1.091725	-0.140472
C199	C	-0.810209	0.591743	-0.640479
C200	C	-0.310209	1.091743	-0.140479
C201	C	-0.833668	0.620496	-0.573358
C202	C	-0.333668	1.120496	-0.073358
C203	C	-0.099434	0.649256	-0.506239
C204	C	0.400566	1.149256	-0.006239
C205	C	-0.049500	0.649296	-0.506271
C206	C	0.450500	1.149296	-0.006271
C207	C	-0.216567	0.649192	-0.780197
C208	C	0.283433	1.149192	-0.280197
C209	C	-0.216547	0.649204	-0.896974
C210	C	0.283453	1.149204	-0.396974
C211	C	-0.216661	0.766341	-0.506193
C212	C	0.283339	1.266341	-0.006193
C213	C	-0.216682	0.816275	-0.506206
C214	C	0.283318	1.316275	-0.006206
C215	C	-0.187797	0.620506	-0.951853
C216	C	0.312203	1.120506	-0.451853
C217	C	-0.187783	0.620519	-1.061577
C218	C	0.312217	1.120519	-0.561577
C219	C	-0.245273	0.677933	-1.061533
C220	C	0.254727	1.177933	-0.561533
C221	C	-0.245288	0.677917	-0.951811
C222	C	0.254712	1.177917	-0.451811
C223	C	-0.154604	0.587359	-0.951879
C224	C	0.345396	1.087359	-0.451879
C225	C	-0.154591	0.587373	-1.061603
C226	C	0.345409	1.087373	-0.561603
C227	C	-0.216626	0.649159	-0.233196
C228	C	0.283374	1.149159	0.266804
C229	C	-0.216519	0.649234	-0.116420
C230	C	0.283481	1.149234	0.383580
H231	H	-0.164608	-0.179333	-0.628325
H232	H	0.335392	0.320667	-0.128325
H233	H	-0.472742	0.701282	-0.384353
H234	H	0.027258	1.201282	0.115647
H235	H	-0.268645	0.393004	-0.384039
H236	H	0.231355	0.893004	0.115961
H237	H	-0.960028	0.701426	-0.384451
H238	H	-0.460028	1.201426	0.115549
H239	H	-0.829302	0.568335	-0.695152
H240	H	-0.329302	1.068335	-0.195152
H241	H	-0.119794	0.596718	-1.091411
H242	H	0.380206	1.096718	-0.591411
H243	H	-0.472746	0.596964	-0.627945
H244	H	0.027254	1.096964	-0.127945
H245	H	-0.297422	0.036401	-0.316800
H246	H	0.202578	0.536401	0.183200
H247	H	-0.688547	0.568291	-0.695137
H248	H	-0.188547	1.068291	-0.195137
H249	H	-0.960025	0.597115	-0.628053
H250	H	-0.460025	1.097115	-0.128053
H251	H	-0.163909	0.552552	-0.922095
H252	H	0.336091	1.052552	-0.422095
H253	H	-1.045151	0.701451	-0.384482
H254	H	-0.545151	1.201451	0.115518
H255	H	-0.268672	0.701311	-1.106195
H256	H	0.231328	1.201311	-0.606195
H257	H	-0.121564	0.599845	-0.917873
H258	H	0.378436	1.099845	-0.417873
H259	H	-0.744196	0.568311	-0.695131
H260	H	-0.244196	1.068311	-0.195131
H261	H	-0.135849	0.177253	-0.695627
H262	H	0.364151	0.677253	-0.195627
H263	H	-0.164499	0.393062	-0.628279
H264	H	0.335501	0.893062	-0.128279
H265	H	-0.268746	-0.179400	-0.384088
H266	H	0.231254	0.320600	0.115912
H267	H	-0.167034	0.554314	-1.095622
H268	H	0.332966	1.054314	-0.595622
H269	H	-0.297384	0.177160	-0.316773
H270	H	0.202616	0.677160	0.183227
H271	H	-0.744204	0.730113	-0.317292
H272	H	-0.244204	1.230113	0.182708
H273	H	-0.268732	-0.094276	-0.384074
H274	H	0.231268	0.405724	0.115926
H275	H	-0.268706	0.701280	-0.907132
H276	H	0.231294	1.201280	-0.407132
H277	H	-0.135859	0.121612	-0.695631
H278	H	0.364141	0.621612	-0.195631
H279	H	-0.603438	0.568272	-0.695126
H280	H	-0.103438	1.068272	-0.195126
H281	H	-0.135874	0.036507	-0.695636
H282	H	0.364126	0.536507	-0.195636
H283	H	-0.164596	-0.094225	-0.628339
H284	H	0.335404	0.405775	-0.128339
H285	H	-0.387633	0.701244	-0.384325
H286	H	0.112367	1.201244	0.115675
H287	H	-0.164488	0.478184	-0.628267
H288	H	0.335512	0.978184	-0.128267
H289	H	-0.829323	0.730137	-0.317323
H290	H	-0.329323	1.230137	0.182677
H291	H	-0.268621	0.478112	-0.384018
H292	H	0.231379	0.978112	0.115982
H293	H	-0.135838	0.262371	-0.695612
H294	H	0.364162	0.762371	-0.195612
H295	H	-0.297404	0.121510	-0.316778
H296	H	0.202596	0.621510	0.183222
H297	H	-1.045134	0.597136	-0.628055
H298	H	-0.545134	1.097136	-0.128055
H299	H	-0.297368	0.262265	-0.316762
H300	H	0.202632	0.762265	0.183238
H301	H	-0.603457	0.730066	-0.317255
H302	H	-0.103457	1.230066	0.182745
H303	H	-0.387624	0.596934	-0.627910
H304	H	0.112376	1.096934	-0.127910
H305	H	-0.688564	0.730096	-0.317279
H306	H	-0.188564	1.230096	0.182721
