data_functionalizedCrystal
_audit_creation_method	'MofGen! by Chris Wilmer'
_symmetry_space_group_name_H-M	'P1'
_symmetry_Int_Tables_number	1
_symmetry_cell_setting	triclinic
loop_
_symmetry_equiv_pos_as_xyz
  x,y,z
_cell_length_a	12.827892
_cell_length_b	10.685972
_cell_length_c	10.685910
_cell_angle_alpha	81.605763
_cell_angle_beta	94.377708
_cell_angle_gamma	85.619715
loop_
_atom_site_label
_atom_site_type_symbol
_atom_site_fract_x
_atom_site_fract_y
_atom_site_fract_z
Zn1	Zn	-0.234646	-1.995513	0.866733
Zn2	Zn	0.265354	-1.495513	1.366733
Zn3	Zn	-0.423870	-1.979157	0.654477
Zn4	Zn	0.076130	-1.479157	1.154477
Zn5	Zn	-0.263629	-1.767012	0.638198
Zn6	Zn	0.236371	-1.267012	1.138198
Zn7	Zn	-0.423846	-1.783217	0.850378
Zn8	Zn	0.076154	-1.283217	1.350378
O9	O	-0.336498	-1.881225	0.752447
O10	O	0.163502	-1.381225	1.252447
O11	O	-0.247628	-2.170973	0.852234
O12	O	0.252372	-1.670973	1.352234
O13	O	-0.414753	-1.937388	0.474690
O14	O	0.085247	-1.437388	0.974690
O15	O	-0.113542	-1.797387	0.668545
O16	O	0.386458	-1.297387	1.168545
O17	O	-0.386650	-2.158956	0.696291
O18	O	0.113350	-1.658956	1.196291
O19	O	-0.092249	-1.965265	0.836449
O20	O	0.407751	-1.465265	1.336449
O21	O	-0.297025	-1.781527	0.462730
O22	O	0.202975	-1.281527	0.962730
O23	O	-0.297001	-1.591532	0.652687
O24	O	0.202999	-1.091532	1.152687
O25	O	-0.386609	-1.825006	1.030175
O26	O	0.113391	-1.325006	1.530175
O27	O	-0.414712	-1.603438	0.808574
O28	O	0.085288	-1.103438	1.308574
O29	O	-0.247605	-1.980979	1.042191
O30	O	0.252395	-1.480979	1.542191
O31	O	-0.570109	-1.953101	0.680432
O32	O	-0.070109	-1.453101	1.180432
O33	O	-0.570091	-1.809146	0.824360
O34	O	-0.070091	-1.309146	1.324360
C35	C	-0.359000	-1.551428	0.727090
C36	C	0.141000	-1.051428	1.227090
C37	C	-0.368649	-1.410342	0.716273
C38	C	0.131351	-0.910342	1.216273
C39	C	-0.608015	-1.881144	0.752418
C40	C	-0.108015	-1.381144	1.252418
C41	C	-0.724160	-1.881228	0.752457
C42	C	-0.224160	-1.381228	1.252457
C43	C	-0.775907	-1.952560	0.681330
C44	C	-0.275907	-1.452560	1.181330
C45	C	-0.895949	-1.952649	0.681369
C46	C	-0.395949	-1.452649	1.181369
C47	C	-0.063916	-1.881343	0.752506
C48	C	0.436084	-1.381343	1.252506
C49	C	0.052242	-1.881393	0.752531
C50	C	0.552242	-1.381393	1.252531
C51	C	-0.313871	-1.906624	1.083528
C52	C	0.186129	-1.406624	1.583528
C53	C	-0.304229	-1.917448	1.224615
C54	C	0.195771	-1.417448	1.724615
C55	C	-0.313902	-1.212309	0.777897
C56	C	0.186098	-0.712309	1.277897
C57	C	-0.304256	-1.353396	0.788727
C58	C	0.195744	-0.853396	1.288727
C59	C	-0.359062	-1.855917	1.422653
C60	C	0.140938	-1.355917	1.922653
C61	C	-0.368709	-1.845100	1.281566
C62	C	0.131291	-1.345100	1.781566
H63	H	-0.431166	-1.351153	0.645955
H64	H	0.068834	-0.851153	1.145955
O65	O	-0.716883	-2.033403	0.600651
O66	O	-0.216883	-1.533403	1.100651
H67	H	-0.631858	-2.020656	0.613291
H68	H	-0.131858	-1.520656	1.113291
O69	O	-0.954879	-2.033575	0.600724
O70	O	-0.454879	-1.533575	1.100724
H71	H	-1.039914	-2.020965	0.613428
H72	H	-0.539914	-1.520965	1.113428
H73	H	-0.431293	-1.774882	1.222389
H74	H	0.068707	-1.274882	1.722389
H75	H	-0.241648	-1.987679	1.283799
H76	H	0.258352	-1.487679	1.783799
O77	O	-0.888839	-1.800480	0.833200
O78	O	-0.388839	-1.300480	1.333200
H79	H	-0.830765	-1.862206	0.902136
H80	H	-0.330765	-1.362206	1.402136
O81	O	-0.221444	-1.431775	0.881868
O82	O	0.278556	-0.931775	1.381868
H83	H	-0.226607	-1.534007	0.876044
H84	H	0.273393	-1.034007	1.376044
O85	O	-0.783193	-1.800415	0.833154
O86	O	-0.283193	-1.300415	1.333154
H87	H	-0.753979	-1.829713	0.934479
H88	H	-0.253979	-1.329713	1.434479
