data_functionalizedCrystal
_audit_creation_method	'MofGen! by Chris Wilmer'
_symmetry_space_group_name_H-M	'P1'
_symmetry_Int_Tables_number	1
_symmetry_cell_setting	triclinic
loop_
_symmetry_equiv_pos_as_xyz
  x,y,z
_cell_length_a	35.277628
_cell_length_b	35.288095
_cell_length_c	35.277682
_cell_angle_alpha	59.997929
_cell_angle_beta	89.998958
_cell_angle_gamma	60.000166
loop_
_atom_site_label
_atom_site_type_symbol
_atom_site_fract_x
_atom_site_fract_y
_atom_site_fract_z
O1	O	-0.323087	-0.271234	0.011271
O2	O	-0.267964	-0.193634	-0.011228
O3	O	-0.267962	-0.271233	0.066395
O4	O	-0.323089	-0.193635	-0.066351
O5	O	-0.204915	-0.334261	0.066394
O6	O	-0.204918	-0.256661	-0.011228
O7	O	-0.260040	-0.334261	0.011271
Cu8	Cu	-0.226722	-0.301216	0.000022
Cu9	Cu	-0.301282	-0.226679	0.000022
O10	O	-0.260043	-0.256662	-0.066351
C11	C	-0.163481	-0.071298	-0.023519
C12	C	-0.186872	-0.024531	-0.020298
C13	C	-0.117860	-0.093995	-0.023838
C14	C	-0.163483	-0.139918	-0.023524
C15	C	-0.186875	-0.166518	-0.020308
C16	C	-0.117862	-0.162510	-0.023843
C17	C	-0.094838	-0.139921	-0.023519
C18	C	-0.044836	-0.166525	-0.020298
C19	C	-0.186401	-0.093991	-0.023843
C20	C	-0.004439	-0.188019	-0.017694
C21	C	-0.205769	0.013252	-0.017695
C22	C	-0.205774	-0.188010	-0.017709
C23	C	0.046241	-0.214983	-0.014429
C24	C	-0.229477	0.060653	-0.014430
C25	C	-0.229483	-0.214971	-0.014450
C26	C	-0.500364	-0.466062	0.034181
C27	C	-0.477341	-0.511990	0.034503
C28	C	-0.431722	-0.466060	0.034178
C29	C	-0.408804	-0.511988	0.034500
C30	C	-0.431721	-0.534685	0.034181
C31	C	-0.477342	-0.443470	0.034500
C32	C	-0.665895	-0.342485	0.021756
C33	C	-0.712772	-0.317221	0.018243
C34	C	-0.736287	-0.338907	0.016481
C35	C	-0.787116	-0.311512	0.012664
C36	C	-0.712921	-0.385861	0.018236
C37	C	-0.666047	-0.411125	0.021755
C38	C	-0.642533	-0.389434	0.023515
C39	C	-0.389805	-0.687746	0.021758
C40	C	-0.368199	-0.731097	0.018245
C41	C	-0.322995	-0.752841	0.016478
C42	C	-0.299567	-0.799839	0.012662
C43	C	-0.299393	-0.731235	0.018230
C44	C	-0.320995	-0.687892	0.021751
C45	C	-0.366205	-0.666148	0.023512
C46	C	-0.389808	-0.342477	0.021744
C47	C	-0.368205	-0.317208	0.018222
C48	C	-0.322998	-0.338892	0.016457
C49	C	-0.299573	-0.311495	0.012637
C50	C	-0.299398	-0.385842	0.018210
C51	C	-0.321003	-0.411107	0.021730
C52	C	-0.366208	-0.389423	0.023501
C53	C	-0.591706	-0.416830	0.027326
C54	C	-0.551191	-0.438667	0.030366
C55	C	-0.408299	-0.438663	0.030360
C56	C	-0.389629	-0.416824	0.027317
C57	C	-0.408298	-0.581682	0.030365
C58	C	-0.389627	-0.619146	0.027325
C59	C	-0.432024	-0.061845	-0.438511
C60	C	-0.477645	-0.015917	-0.461431
C61	C	-0.432025	-0.061844	-0.369869
C62	C	-0.477645	-0.015916	-0.392892
C63	C	-0.500668	0.006779	-0.438513
C64	C	-0.409106	-0.084435	-0.392891
C65	C	-0.320834	-0.185425	-0.480424
C66	C	-0.299076	-0.210690	-0.502029
C67	C	-0.322531	-0.189005	-0.547237
C68	C	-0.298945	-0.216401	-0.570661
C69	C	-0.367745	-0.142051	-0.570839
C70	C	-0.389497	-0.116787	-0.549237
C71	C	-0.366040	-0.138476	-0.504027
C72	C	-0.666200	0.159838	-0.549704
C73	C	-0.713077	0.203188	-0.571462
C74	C	-0.736595	0.224934	-0.548009
C75	C	-0.787423	0.271931	-0.571594
C76	C	-0.713230	0.203329	-0.502796
C77	C	-0.666353	0.159987	-0.481041
C78	C	-0.642841	0.138241	-0.504500
C79	C	-0.320836	-0.185423	-0.204335
C80	C	-0.299080	-0.210691	-0.157455
C81	C	-0.322536	-0.189006	-0.133940
C82	C	-0.298950	-0.216402	-0.083110
C83	C	-0.367748	-0.142056	-0.157305
C84	C	-0.389502	-0.116792	-0.204182
C85	C	-0.366040	-0.138478	-0.227695
C86	C	-0.389632	-0.111079	-0.480604
C87	C	-0.408436	-0.089241	-0.461934
C88	C	-0.408437	-0.089240	-0.319041
C89	C	-0.389634	-0.111078	-0.278525
C90	C	-0.551496	0.053776	-0.462102
C91	C	-0.592011	0.091239	-0.480906
O92	O	0.196122	-0.334274	0.011291
O93	O	0.063378	-0.256674	-0.011208
O94	O	0.140994	-0.334276	0.066414
O95	O	0.118506	-0.256671	-0.066331
O96	O	0.140996	-0.271251	0.066419
O97	O	0.063380	-0.193649	-0.011203
O98	O	0.196124	-0.271249	0.011296
Cu99	Cu	0.129752	-0.226694	0.000047
Cu100	Cu	0.129750	-0.301228	0.000041
O101	O	0.118508	-0.193647	-0.066327
O102	O	-0.260036	0.184774	0.011294
O103	O	-0.204910	0.074561	-0.011204
O104	O	-0.204913	0.074554	0.066418
O105	O	-0.260033	0.184781	-0.066328
O106	O	-0.267961	0.074557	0.066413
O107	O	-0.267958	0.074564	-0.011209
O108	O	-0.323083	0.184777	0.011289
Cu109	Cu	-0.301278	0.129670	0.000040
Cu110	Cu	-0.226716	0.129668	0.000045
O111	O	-0.323081	0.184784	-0.066333
O112	O	-0.936929	0.397535	-0.602582
O113	O	-0.804185	0.287317	-0.547454
O114	O	-0.881802	0.287315	-0.547452
O115	O	-0.859312	0.397537	-0.602584
O116	O	-0.881801	0.287314	-0.610498
O117	O	-0.804183	0.287316	-0.610500
O118	O	-0.936927	0.397533	-0.665628
Cu119	Cu	-0.870555	0.342425	-0.643820
Cu120	Cu	-0.870557	0.342426	-0.569261
O121	O	-0.859310	0.397536	-0.665629
O122	O	-0.267961	-0.271234	-0.665316
O123	O	-0.323086	-0.193638	-0.610192
O124	O	-0.323085	-0.271236	-0.610189
O125	O	-0.267962	-0.193636	-0.665319
O126	O	-0.260038	-0.334264	-0.547142
O127	O	-0.260039	-0.256666	-0.547145
O128	O	-0.204914	-0.334262	-0.602269
Cu129	Cu	-0.226720	-0.301219	-0.568950
Cu130	Cu	-0.301280	-0.226681	-0.643511
O131	O	-0.204915	-0.256664	-0.602272
C132	C	-0.094840	-0.456607	0.293255
C133	C	-0.044837	-0.503376	0.316647
C134	C	-0.117862	-0.433912	0.316174
C135	C	-0.163483	-0.387984	0.224612
C136	C	-0.186875	-0.361381	0.174609
C137	C	-0.186401	-0.365393	0.247634
C138	C	-0.163483	-0.387984	0.293255
C139	C	-0.186874	-0.361382	0.316646
C140	C	-0.117862	-0.433912	0.247635
C141	C	-0.205772	-0.339889	0.335543
C142	C	-0.004440	-0.541160	0.335545
C143	C	-0.205773	-0.339888	0.134212
C144	C	-0.229480	-0.312925	0.359250
C145	C	0.046239	-0.588562	0.359254
C146	C	-0.229481	-0.312924	0.083532
C147	C	0.153295	-0.388013	0.293279
C148	C	0.150076	-0.361413	0.316673
C149	C	0.153614	-0.433940	0.316196
C150	C	0.153297	-0.388008	0.224634
C151	C	0.150079	-0.361403	0.174632
C152	C	0.153616	-0.433935	0.247655
C153	C	0.153293	-0.456633	0.293275
C154	C	0.150072	-0.503401	0.316665
C155	C	0.153617	-0.365420	0.247659
C156	C	0.147469	-0.541185	0.335561
C157	C	0.147474	-0.339922	0.335572
C158	C	0.147479	-0.339908	0.134234
C159	C	0.144204	-0.588587	0.359267
C160	C	0.144211	-0.312962	0.359282
C161	C	0.144218	-0.312942	0.083555
C162	C	-0.163482	-0.139963	0.293267
C163	C	-0.186875	-0.166567	0.316654
C164	C	-0.117861	-0.162559	0.316187
C165	C	-0.163482	-0.071333	0.224628
C166	C	-0.186873	-0.024557	0.174627
C167	C	-0.117860	-0.094033	0.247653
C168	C	-0.094838	-0.139967	0.293272
C169	C	-0.044835	-0.166574	0.316665
C170	C	-0.186401	-0.094030	0.247648
C171	C	-0.004438	-0.188070	0.335563
C172	C	-0.205773	-0.188061	0.335549
C173	C	-0.205771	0.013233	0.134231
C174	C	0.046242	-0.215038	0.359273
C175	C	-0.229482	-0.215026	0.359253
C176	C	-0.229479	0.060643	0.083553
C177	C	0.095627	0.006487	-0.438489
C178	C	0.095306	-0.016206	-0.461409
C179	C	0.095623	-0.062137	-0.369847
C180	C	0.095303	-0.084726	-0.392871
C181	C	0.095625	-0.062133	-0.438492
C182	C	0.095305	-0.016210	-0.392868
C183	C	0.108059	0.159543	-0.480399
C184	C	0.111575	0.202893	-0.502003
C185	C	0.113340	0.224640	-0.547210
C186	C	0.117161	0.271637	-0.570634
C187	C	0.111587	0.203038	-0.570814
C188	C	0.108065	0.159695	-0.549212
C189	C	0.106302	0.137948	-0.504002
C190	C	0.108054	-0.116452	-0.549685
C191	C	0.111568	-0.141562	-0.571444
C192	C	0.113332	-0.188519	-0.547992
C193	C	0.117148	-0.215753	-0.571578
C194	C	0.111577	-0.210363	-0.502779
C195	C	0.108055	-0.185249	-0.481023
C196	C	0.106297	-0.138292	-0.504481
C197	C	0.108046	-0.116473	-0.204312
C198	C	0.111564	-0.141591	-0.157432
C199	C	0.113326	-0.188548	-0.133918
C200	C	0.117142	-0.215786	-0.083088
C201	C	0.111574	-0.210388	-0.157283
C202	C	0.108058	-0.185270	-0.204161
C203	C	0.106290	-0.138308	-0.227673
C204	C	0.102487	0.090947	-0.480580
C205	C	0.099445	0.053484	-0.461911
C206	C	0.099438	-0.089371	-0.319019
C207	C	0.102477	-0.111078	-0.278503
C208	C	0.099442	-0.089362	-0.462081
C209	C	0.102482	-0.111066	-0.480886
O210	O	0.118477	-0.256700	0.452885
O211	O	0.140984	-0.334299	0.397762
O212	O	0.063360	-0.256699	0.397752
O213	O	0.196101	-0.334300	0.452895
O214	O	0.063367	-0.193672	0.334708
O215	O	0.140992	-0.271271	0.334718
O216	O	0.118484	-0.193673	0.389842
Cu217	Cu	0.129739	-0.226717	0.356523
Cu218	Cu	0.129730	-0.301254	0.431080
O219	O	0.196108	-0.271272	0.389852
C220	C	-0.500364	0.533998	-0.438484
C221	C	-0.477341	0.556591	-0.461399
C222	C	-0.431721	0.465364	-0.369840
C223	C	-0.408802	0.488061	-0.392859
C224	C	-0.431720	0.533995	-0.438478
C225	C	-0.477342	0.488064	-0.392865
C226	C	-0.665898	0.588334	-0.480407
C227	C	-0.712776	0.613450	-0.502014
C228	C	-0.736291	0.660414	-0.547220
C229	C	-0.787122	0.687654	-0.570647
C230	C	-0.712926	0.682257	-0.570819
C231	C	-0.666050	0.657138	-0.549214
C232	C	-0.642536	0.610174	-0.504006
C233	C	-0.389802	0.657585	-0.549654
C234	C	-0.368196	0.682850	-0.571408
C235	C	-0.322990	0.661164	-0.547952
C236	C	-0.299561	0.688558	-0.571532
C237	C	-0.299388	0.614205	-0.502740
C238	C	-0.320990	0.588935	-0.480990
C239	C	-0.366202	0.610633	-0.504452
C240	C	-0.389804	0.312282	-0.204314
C241	C	-0.368201	0.268929	-0.157436
C242	C	-0.322993	0.247179	-0.133918
C243	C	-0.299567	0.200174	-0.083089
C244	C	-0.299392	0.268786	-0.157278
C245	C	-0.320998	0.312139	-0.204154
C246	C	-0.366204	0.333881	-0.227670
C247	C	-0.591708	0.582942	-0.480581
C248	C	-0.551193	0.561234	-0.461909
C249	C	-0.408297	0.418359	-0.319013
C250	C	-0.389626	0.380890	-0.278499
C251	C	-0.408296	0.561393	-0.462062
C252	C	-0.389624	0.583232	-0.480862
H253	H	-0.223885	-0.074993	-0.024363
C254	C	-0.405040	-0.066293	-0.153239
C255	C	-0.393539	-0.118214	-0.131462
H256	H	-0.420966	-0.051575	-0.137287
H257	H	-0.377500	-0.067555	-0.152696
H258	H	-0.424462	-0.044537	-0.184501
H259	H	-0.374115	-0.139972	-0.100200
H260	H	-0.421084	-0.116955	-0.131999
H261	H	-0.496124	0.003081	-0.498917
H262	H	-0.371321	-0.530978	0.035012
C263	C	-0.365634	0.202537	-0.085647
C264	C	-0.394142	0.245180	-0.131758
H265	H	-0.381651	0.187878	-0.069796
H266	H	-0.338091	0.175676	-0.085053
H267	H	-0.357831	0.215142	-0.070819
H268	H	-0.401942	0.232574	-0.146588
H269	H	-0.421694	0.272046	-0.132355
H270	H	0.113001	-0.123813	-0.138408
C271	C	-0.547274	-0.508011	0.035431
C272	C	-0.502285	-0.537645	0.035217
H273	H	-0.562670	-0.523851	0.035874
H274	H	-0.545688	-0.507815	0.062204
H275	H	-0.563976	-0.472269	0.008354
H276	H	-0.485582	-0.573386	0.062296
H277	H	-0.503869	-0.537846	0.008441
C278	C	0.102681	0.093309	-0.546643
C279	C	0.106141	0.135948	-0.575153
H280	H	0.101493	0.078650	-0.562659
H281	H	0.128956	0.066446	-0.519098
H282	H	0.075243	0.105918	-0.538842
H283	H	0.133582	0.123339	-0.582951
H284	H	0.079864	0.162816	-0.602706
H285	H	-0.262268	-0.248920	-0.138435
H286	H	-0.731792	-0.278991	0.016812
C287	C	-0.219549	-0.461606	0.056711
C288	C	-0.249704	-0.409687	0.016273
H289	H	-0.188872	-0.476327	0.055513
H290	H	-0.220273	-0.460340	0.082987
H291	H	-0.229047	-0.483362	0.059052
H292	H	-0.240207	-0.387929	0.013934
H293	H	-0.248978	-0.410949	-0.010010
H294	H	-0.371622	-0.121391	-0.374409
C295	C	-0.405019	-0.066300	-0.650693
C296	C	-0.393524	-0.118217	-0.620529
H297	H	-0.420933	-0.051588	-0.681370
H298	H	-0.424444	-0.044539	-0.641205
H299	H	-0.377472	-0.067568	-0.649965
H300	H	-0.421071	-0.116949	-0.621255
H301	H	-0.374098	-0.139984	-0.630020
H302	H	-0.647332	0.142401	-0.444230
C303	C	-0.239586	-0.273446	0.220376
C304	C	-0.237000	-0.315499	0.222690
H305	H	-0.270821	-0.242643	0.204977
H306	H	-0.229166	-0.283729	0.250900
H307	H	-0.220528	-0.265440	0.203674
H308	H	-0.256055	-0.323507	0.239395
H309	H	-0.247426	-0.305214	0.192161
C310	C	-0.355599	0.462145	-0.328156
C311	C	-0.358201	0.462420	-0.367908
H312	H	-0.324361	0.446314	-0.312753
H313	H	-0.374655	0.497888	-0.336846
H314	H	-0.366012	0.442039	-0.307905
H315	H	-0.347792	0.482530	-0.388160
H316	H	-0.339139	0.426671	-0.359219
H317	H	0.154122	-0.452930	0.353678
C318	C	-0.439241	-0.023531	-0.267301
C319	C	-0.439194	-0.065180	-0.229865
H320	H	-0.469920	0.008332	-0.283157
H321	H	-0.419456	-0.017840	-0.256129
H322	H	-0.428387	-0.032836	-0.288011
H323	H	-0.450045	-0.055876	-0.209153
H324	H	-0.458986	-0.070870	-0.241037
C325	C	0.073068	0.245203	-0.464549
C326	C	0.113508	0.226631	-0.476056
H327	H	0.074264	0.259855	-0.448527
H328	H	0.046795	0.272075	-0.492094
H329	H	0.070723	0.216273	-0.445214
H330	H	0.115851	0.255563	-0.495394
H331	H	0.139788	0.199758	-0.448506
H332	H	-0.099376	-0.075038	0.229168
C333	C	-0.547285	-0.378443	0.035395
C334	C	-0.502294	-0.393577	0.035190
H335	H	-0.562687	-0.347643	0.035823
H336	H	-0.563977	-0.370437	0.008329
H337	H	-0.545703	-0.406985	0.062180
H338	H	-0.503876	-0.365036	0.008404
H339	H	-0.485598	-0.401580	0.062260
H340	H	-0.496128	0.003076	-0.374407
H341	H	0.154133	-0.328462	0.229178
C342	C	0.116996	0.269541	-0.634479
C343	C	0.113532	0.226938	-0.620502
H344	H	0.118202	0.284292	-0.665153
H345	H	0.090715	0.296351	-0.633759
H346	H	0.144427	0.256871	-0.614005
H347	H	0.086100	0.239609	-0.640973
H348	H	0.139816	0.200123	-0.621225
C349	C	-0.122763	-0.227585	0.382128
C350	C	-0.092908	-0.212453	0.366788
H351	H	-0.107357	-0.258388	0.413365
H352	H	-0.149728	-0.199048	0.380360
H353	H	-0.131445	-0.235592	0.363066
H354	H	-0.084229	-0.204442	0.385847
H355	H	-0.065935	-0.240997	0.368559
C356	C	-0.438385	-0.251906	0.018592
C357	C	-0.394147	-0.265601	0.016295
H358	H	-0.454399	-0.220048	0.017406
H359	H	-0.455253	-0.246206	-0.006890
H360	H	-0.435505	-0.280174	0.046824
H361	H	-0.397027	-0.237334	-0.011938
H362	H	-0.377275	-0.271298	0.041779
C363	C	-0.047919	-0.097995	-0.024749
C364	C	-0.092905	-0.068357	-0.024533
H365	H	-0.032514	-0.082166	-0.025181
H366	H	-0.031224	-0.133737	0.002316
H367	H	-0.049510	-0.098174	-0.051534
H368	H	-0.091314	-0.068182	0.002255
H369	H	-0.109604	-0.032606	-0.051601
H370	H	-0.223884	-0.075035	0.229163
H371	H	-0.099372	-0.452898	0.229148
H372	H	-0.495826	0.593550	-0.498882
C373	C	-0.439244	-0.023526	-0.579407
C374	C	-0.439192	-0.065178	-0.575178
H375	H	-0.469924	0.008335	-0.595425
H376	H	-0.428389	-0.032828	-0.549394
H377	H	-0.419460	-0.017830	-0.596279
H378	H	-0.458973	-0.070876	-0.558303
H379	H	-0.450053	-0.055874	-0.605196
C380	C	-0.090574	-0.254470	0.014941
C381	C	-0.092907	-0.212399	-0.024540
H382	H	-0.075170	-0.285266	0.014508
H383	H	-0.073876	-0.262474	0.042003
H384	H	-0.121097	-0.244202	0.015081
H385	H	-0.062384	-0.222665	-0.024679
H386	H	-0.109604	-0.204394	-0.051609
C387	C	0.094371	-0.149732	-0.322940
C388	C	0.094586	-0.134603	-0.367929
H389	H	0.093921	-0.180518	-0.307547
H390	H	0.121444	-0.157761	-0.306236
H391	H	0.067595	-0.121180	-0.324527
H392	H	0.121364	-0.163154	-0.366341
H393	H	0.067510	-0.126576	-0.384636
H394	H	0.094791	0.002793	-0.498893
H395	H	0.094825	0.002760	-0.374372
C396	C	0.108393	-0.050995	-0.199749
C397	C	0.106107	-0.064857	-0.230156
H398	H	0.107200	-0.019132	-0.215705
H399	H	0.082911	-0.045241	-0.188577
H400	H	0.136624	-0.079209	-0.174346
H401	H	0.077875	-0.036644	-0.255557
H402	H	0.131591	-0.070607	-0.241335
H403	H	0.106619	-0.078217	-0.568789
C404	C	-0.468569	0.694030	-0.550483
C405	C	-0.439494	0.681430	-0.575444
H406	H	-0.499247	0.708753	-0.566406
H407	H	-0.457608	0.662452	-0.520450
H408	H	-0.468576	0.719436	-0.547670
H409	H	-0.439484	0.656020	-0.578254
H410	H	-0.450458	0.713012	-0.605485
H411	H	0.106623	0.141841	-0.443588
H412	H	0.154138	-0.452930	0.229170
H413	H	-0.426614	0.329984	-0.223458
C414	C	-0.250811	0.307639	-0.199293
C415	C	-0.295054	0.335885	-0.229832
H416	H	-0.234794	0.322297	-0.215148
H417	H	-0.253683	0.310465	-0.173897
H418	H	-0.233949	0.270998	-0.188131
H419	H	-0.311918	0.372525	-0.240992
H420	H	-0.292184	0.333064	-0.255237
C421	C	0.111230	-0.071049	-0.637124
C422	C	0.113511	-0.117561	-0.621134
H423	H	0.112435	-0.056236	-0.667799
H424	H	0.083000	-0.045697	-0.637093
H425	H	0.136712	-0.079672	-0.617328
H426	H	0.088027	-0.108937	-0.640929
H427	H	0.141744	-0.142918	-0.621168
H428	H	0.113006	-0.248593	-0.483685
H429	H	-0.647059	0.142138	-0.568809
C430	C	0.108418	-0.255777	-0.415333
C431	C	0.106127	-0.209258	-0.431328
H432	H	0.107232	-0.270602	-0.384651
H433	H	0.082934	-0.247161	-0.435115
H434	H	0.136647	-0.281122	-0.415378
H435	H	0.077896	-0.183912	-0.431286
H436	H	0.131613	-0.217874	-0.411540
C437	C	-0.047920	-0.504734	0.382118
C438	C	-0.092911	-0.459550	0.366774
H439	H	-0.032518	-0.520557	0.413354
H440	H	-0.049500	-0.529925	0.380352
H441	H	-0.031227	-0.494358	0.363056
H442	H	-0.109606	-0.469927	0.385834
H443	H	-0.091333	-0.434354	0.368544
C444	C	0.108424	-0.255796	-0.199305
C445	C	0.106134	-0.209277	-0.229842
H446	H	0.107235	-0.270616	-0.215161
H447	H	0.136648	-0.281140	-0.173908
H448	H	0.082934	-0.247177	-0.188143
H449	H	0.131625	-0.217896	-0.241002
H450	H	0.077907	-0.183928	-0.255247
C451	C	-0.717010	0.723614	-0.650673
C452	C	-0.738776	0.733877	-0.620506
H453	H	-0.732972	0.755484	-0.681349
H454	H	-0.685753	0.711786	-0.641185
H455	H	-0.717550	0.696618	-0.649949
H456	H	-0.738232	0.760871	-0.621228
H457	H	-0.770041	0.745713	-0.629997
H458	H	-0.387419	-0.748683	0.016816
C459	C	0.116949	-0.279430	-0.085364
C460	C	0.113499	-0.261997	-0.131442
H461	H	0.118132	-0.311287	-0.069414
H462	H	0.144381	-0.286406	-0.070593
H463	H	0.090667	-0.252423	-0.084836
H464	H	0.139782	-0.289003	-0.131970
H465	H	0.086064	-0.255024	-0.146216
H466	H	-0.495832	0.469078	-0.374381
C467	C	-0.670457	0.522838	-0.414571
C468	C	-0.640052	0.536709	-0.430718
H469	H	-0.654498	0.490966	-0.383897
H470	H	-0.695856	0.551040	-0.414553
H471	H	-0.681630	0.517094	-0.434309
H472	H	-0.628881	0.542457	-0.410982
H473	H	-0.614645	0.508501	-0.430733
C474	C	-0.775894	0.626820	-0.471846
C475	C	-0.738460	0.589446	-0.476074
H476	H	-0.791751	0.612001	-0.455833
H477	H	-0.764719	0.635423	-0.454975
H478	H	-0.796602	0.658380	-0.501863
H479	H	-0.717749	0.557887	-0.446056
H480	H	-0.749634	0.580836	-0.492945
H481	H	-0.647028	0.674924	-0.568431
C482	C	-0.468569	-0.306048	-0.013880
C483	C	-0.439499	-0.318641	0.023684
H484	H	-0.499246	-0.291337	-0.012681
H485	H	-0.468582	-0.280639	-0.042105
H486	H	-0.457597	-0.337631	-0.012324
H487	H	-0.450469	-0.287057	0.022127
H488	H	-0.439488	-0.344052	0.051917
C489	C	-0.438389	0.748182	-0.637089
C490	C	-0.394143	0.734474	-0.621095
H491	H	-0.454409	0.780057	-0.667761
H492	H	-0.435520	0.719934	-0.637064
H493	H	-0.455245	0.753862	-0.617291
H494	H	-0.377285	0.728791	-0.640891
H495	H	-0.397011	0.762729	-0.621123
H496	H	-0.301775	-0.670305	0.023178
H497	H	-0.262576	0.596543	-0.483644
H498	H	-0.301770	0.550701	-0.444180
C499	C	-0.235714	0.202264	-0.085353
C500	C	-0.249698	0.244880	-0.131430
H501	H	-0.205035	0.187506	-0.069398
H502	H	-0.256176	0.214921	-0.070587
H503	H	-0.236441	0.175459	-0.084826
H504	H	-0.248974	0.271687	-0.131957
H505	H	-0.229230	0.232224	-0.146200
H506	H	-0.646754	-0.324820	0.023190
H507	H	-0.262584	-0.748943	0.016794
C508	C	-0.755239	-0.422296	0.053867
C509	C	-0.738769	-0.409697	0.016300
H510	H	-0.771197	-0.437010	0.052669
H511	H	-0.729835	-0.447705	0.082091
H512	H	-0.775861	-0.390715	0.052313
H513	H	-0.718144	-0.441280	0.017856
H514	H	-0.764176	-0.384288	-0.011931
C515	C	-0.641253	-0.502439	0.062420
C516	C	-0.640366	-0.462732	0.023683
H517	H	-0.625401	-0.534297	0.063607
H518	H	-0.626422	-0.509459	0.089850
H519	H	-0.672537	-0.490492	0.060069
H520	H	-0.609082	-0.474678	0.026035
H521	H	-0.655196	-0.455712	-0.003754
C522	C	-0.455645	-0.691971	0.021427
C523	C	-0.439495	-0.663851	0.023702
H524	H	-0.486320	-0.677219	0.022630
H525	H	-0.455660	-0.689144	-0.006800
H526	H	-0.435911	-0.728619	0.046914
H527	H	-0.459228	-0.627204	-0.001786
H528	H	-0.439483	-0.666673	0.051933
H529	H	-0.301727	-0.203079	-0.223479
C530	C	-0.290835	-0.504368	0.065276
C531	C	-0.295061	-0.462717	0.023662
H532	H	-0.274822	-0.536229	0.066466
H533	H	-0.273967	-0.510063	0.090754
H534	H	-0.320853	-0.495062	0.066824
H535	H	-0.265043	-0.472022	0.022115
H536	H	-0.311929	-0.457022	-0.001823
H537	H	-0.301729	-0.203089	-0.443614
H538	H	-0.262264	-0.248919	-0.482808
H539	H	-0.732097	0.220775	-0.608274
H540	H	-0.732378	0.221040	-0.483702
