data_functionalizedCrystal
_audit_creation_method	'MofGen! by Chris Wilmer'
_symmetry_space_group_name_H-M	'P1'
_symmetry_Int_Tables_number	1
_symmetry_cell_setting	triclinic
loop_
_symmetry_equiv_pos_as_xyz
  x,y,z
_cell_length_a	17.699077
_cell_length_b	16.992695
_cell_length_c	16.176319
_cell_angle_alpha	89.993125
_cell_angle_beta	89.993140
_cell_angle_gamma	86.974400
loop_
_atom_site_label
_atom_site_type_symbol
_atom_site_fract_x
_atom_site_fract_y
_atom_site_fract_z
O1	O	1.010253	0.099123	-0.068736
O2	O	0.790678	0.112027	-0.068741
O3	O	0.899585	-0.008566	-0.068732
O4	O	0.901346	0.219716	-0.068745
O5	O	0.899569	-0.008573	0.068761
O6	O	0.790661	0.112020	0.068753
O7	O	1.010237	0.099116	0.068757
Cu8	Cu	0.900447	0.105567	0.081309
Cu9	Cu	0.900467	0.105576	-0.081293
O10	O	0.901329	0.219709	0.068748
C11	C	0.762443	0.111562	0.000006
C12	C	0.678339	0.110177	0.000004
C13	C	0.638822	0.109520	0.074953
C14	C	0.559798	0.108207	0.074954
C15	C	0.520291	0.107555	0.000005
C16	C	0.559814	0.108210	-0.074949
C17	C	0.638837	0.109518	-0.074949
C18	C	0.241122	0.102934	-0.074950
C19	C	0.162093	0.101628	-0.074945
C20	C	0.162083	0.101623	0.074952
C21	C	0.241106	0.102931	0.074952
C22	C	0.280622	0.103581	-0.000001
C23	C	0.366309	0.105004	-0.000002
C24	C	0.434605	0.106138	0.000004
C25	C	0.897312	-0.037778	0.000014
C26	C	0.890555	-0.124809	0.000014
C27	C	0.955753	-0.175175	0.000016
C28	C	0.949399	-0.256949	0.000008
C29	C	0.877847	-0.288356	0.000004
C30	C	0.812644	-0.237983	-0.000000
C31	C	0.818999	-0.156211	0.000002
C32	C	0.851511	-0.531903	-0.000008
C33	C	0.845161	-0.613682	-0.000007
C34	C	0.981917	-0.632642	-0.000000
C35	C	0.988265	-0.550867	0.000007
C36	C	0.923062	-0.500502	-0.000002
N37	N	0.871351	-0.371942	-0.000001
N38	N	0.929559	-0.416917	-0.000002
C39	C	1.038471	0.099581	0.000009
C40	C	1.122575	0.100966	0.000005
C41	C	0.903602	0.248921	-0.000000
C42	C	0.910359	0.335952	-0.000005
N43	N	0.900439	0.105560	0.195674
N44	N	0.900481	0.105577	-0.195658
C45	C	0.948680	0.052183	0.238942
C46	C	0.948684	0.052182	0.325489
C47	C	0.900450	0.105563	0.368767
C48	C	0.852204	0.158942	0.325493
C49	C	0.852197	0.158939	0.238947
C50	C	0.852230	0.158957	0.674521
C51	C	0.852243	0.158958	0.761072
C52	C	0.948718	0.052201	0.761063
C53	C	0.948711	0.052197	0.674517
C54	C	0.900462	0.105573	0.631251
C55	C	0.900457	0.105573	0.537407
C56	C	0.900458	0.105568	0.462609
H57	H	0.670982	0.110057	0.135984
H58	H	1.014018	-0.149611	0.000025
H59	H	0.987965	0.008719	0.360718
O60	O	1.052241	-0.686962	0.000004
H61	H	1.035805	-0.749101	-0.000004
H62	H	0.812946	0.202419	0.639300
H63	H	0.812913	0.202402	0.203719
H64	H	0.129930	0.101097	-0.135980
H65	H	0.273287	0.103461	-0.135982
O66	O	0.283708	0.103643	0.155795
H67	H	0.323236	0.050829	0.159389
O68	O	0.748675	-0.101887	0.000008
H69	H	0.748301	-0.064175	-0.056035
O70	O	1.000726	-0.005384	0.627836
H71	H	1.060328	0.004517	0.644429
H72	H	0.527642	0.107674	-0.135973
O73	O	0.767984	-0.647561	-0.000021
H74	H	0.723711	-0.598802	-0.000036
O75	O	0.800224	0.216549	0.807746
H76	H	0.740621	0.206640	0.791165
H77	H	0.812927	0.202403	0.360734
O78	O	0.781184	-0.477592	0.000003
H79	H	0.747176	-0.488740	-0.056031
O80	O	0.517172	0.107507	0.155790
H81	H	0.557918	0.108192	0.207906
H82	H	1.002490	-0.297955	0.000012
O83	O	1.065439	-0.516992	-0.000009
H84	H	1.109709	-0.565754	-0.000021
O85	O	0.681465	0.110231	-0.155785
H86	H	0.640719	0.109567	-0.207903
H87	H	0.129899	0.101090	0.135983
H88	H	0.754385	-0.263561	-0.000009
H89	H	0.987961	0.008718	0.203711
H90	H	0.988003	0.008736	0.796300
