data_functionalizedCrystal
_audit_creation_method	'MofGen! by Chris Wilmer'
_symmetry_space_group_name_H-M	'P1'
_symmetry_Int_Tables_number	1
_symmetry_cell_setting	triclinic
loop_
_symmetry_equiv_pos_as_xyz
  x,y,z
_cell_length_a	16.120484
_cell_length_b	16.625548
_cell_length_c	16.625548
_cell_angle_alpha	90.004750
_cell_angle_beta	87.113328
_cell_angle_gamma	92.926626
loop_
_atom_site_label
_atom_site_type_symbol
_atom_site_fract_x
_atom_site_fract_y
_atom_site_fract_z
Zn1	Zn	-0.332043	1.216250	0.472174
Zn2	Zn	-0.471424	1.209346	0.344169
Zn3	Zn	-0.332029	1.081449	0.337354
Zn4	Zn	-0.471422	1.074538	0.478959
O5	O	-0.401730	1.145396	0.408164
O6	O	-0.350539	1.328166	0.455207
O7	O	-0.452928	1.192383	0.230433
O8	O	-0.215363	1.105113	0.349547
O9	O	-0.452942	1.323094	0.361162
O10	O	-0.215374	1.204150	0.448599
O11	O	-0.350515	1.098418	0.225426
O12	O	-0.350513	0.967701	0.356126
O13	O	-0.452939	1.093333	0.590892
O14	O	-0.452925	0.962623	0.460162
O15	O	-0.350537	1.197448	0.585907
O16	O	-0.588092	1.185681	0.367741
O17	O	-0.588090	1.086639	0.466770
C18	C	-0.618342	1.134683	0.418749
C19	C	-0.711009	1.130173	0.423304
C20	C	-0.401718	0.935905	0.408141
C21	C	-0.401733	0.846284	0.408151
C22	C	-0.401739	1.145390	0.618474
C23	C	-0.401743	1.145387	0.708095
C24	C	-0.880674	1.121945	0.431637
C25	C	-0.921945	1.168990	0.384704
C26	C	-1.016352	1.164412	0.389341
C27	C	-0.786258	1.126522	0.427002
C28	C	-0.184272	1.156172	0.397556
C29	C	-0.091604	1.160765	0.393035
C30	C	-0.401738	0.518108	0.408186
C31	C	-0.401734	0.609416	0.408174
C32	C	-0.401736	0.682193	0.408168
C33	C	-0.401731	0.773507	0.408157
C34	C	-0.401742	1.355704	0.408188
C35	C	-0.401748	1.445325	0.408198
C36	C	-0.401747	1.145384	0.780878
C37	C	-0.401744	1.145384	0.872186
C38	C	-0.401737	1.145387	0.944962
C39	C	-0.401735	1.145388	1.036276
C40	C	-0.401737	1.145393	1.198674
C41	C	-0.401728	1.145392	1.109052
H42	H	-0.886376	1.212705	0.341041
O43	O	-0.923228	1.069811	0.483650
C44	C	-1.057498	1.017716	0.535797
C45	C	-1.009397	1.076782	0.476849
H46	H	-1.127174	1.023344	0.530330
H47	H	-1.040569	0.953499	0.520754
H48	H	-1.040352	1.032618	0.599995
H49	H	-1.026517	1.061954	0.412630
H50	H	-1.026331	1.140981	0.491960
