data_functionalizedCrystal
_audit_creation_method	'MofGen! by Chris Wilmer'
_symmetry_space_group_name_H-M	'P1'
_symmetry_Int_Tables_number	1
_symmetry_cell_setting	triclinic
loop_
_symmetry_equiv_pos_as_xyz
  x,y,z
_cell_length_a	10.723024
_cell_length_b	13.596369
_cell_length_c	10.723024
_cell_angle_alpha	89.999201
_cell_angle_beta	84.467869
_cell_angle_gamma	90.005655
loop_
_atom_site_label
_atom_site_type_symbol
_atom_site_fract_x
_atom_site_fract_y
_atom_site_fract_z
O1	O	1.657192	0.081782	0.175019
O2	O	2.157192	0.581782	0.675019
O3	O	1.294040	0.081785	0.191772
O4	O	1.794040	0.581785	0.691772
O5	O	1.483992	0.081780	0.001819
O6	O	1.983992	0.581780	0.501819
O7	O	1.467239	0.081788	0.364972
O8	O	1.967239	0.581788	0.864972
O9	O	1.483969	-0.081803	0.001830
O10	O	1.983969	0.418197	0.501830
O11	O	1.294016	-0.081797	0.191783
O12	O	1.794016	0.418203	0.691783
O13	O	1.657168	-0.081801	0.175029
O14	O	2.157168	0.418199	0.675029
Zn15	Zn	1.475589	-0.107771	0.183408
Zn16	Zn	1.975589	0.392229	0.683408
Zn17	Zn	1.475619	0.107756	0.183394
Zn18	Zn	1.975619	0.607756	0.683394
O19	O	1.467216	-0.081795	0.364982
O20	O	1.967216	0.418205	0.864982
C21	C	1.247528	-0.000006	0.190558
C22	C	1.747528	0.499994	0.690558
C23	C	1.108974	-0.000004	0.186911
C24	C	1.608974	0.499996	0.686911
N25	N	1.475577	-0.254863	0.183416
N26	N	1.975577	0.245137	0.683416
C27	C	0.917217	-0.000005	0.073603
C28	C	1.417217	0.499995	0.573603
C29	C	1.060420	-0.000006	0.077371
C30	C	1.560420	0.499994	0.577371
C31	C	1.475583	-0.343861	0.183419
C32	C	1.975583	0.156139	0.683419
C33	C	1.475595	-0.455512	0.183411
C34	C	1.975595	0.044488	0.683411
C35	C	1.475611	-0.544503	0.183397
C36	C	1.975611	-0.044503	0.683397
C37	C	1.475625	-0.656161	0.183389
C38	C	1.975625	-0.156161	0.683389
C39	C	1.703680	-0.000007	0.176243
C40	C	2.203680	0.499993	0.676243
C41	C	1.842234	-0.000002	0.179891
C42	C	2.342234	0.499998	0.679891
C43	C	1.482762	-0.000010	-0.044675
C44	C	1.982762	0.499990	0.455325
C45	C	1.479114	-0.000007	-0.183229
C46	C	1.979114	0.499993	0.316771
N47	N	1.475641	0.254848	0.183376
N48	N	1.975641	0.754848	0.683376
C49	C	1.585401	-0.000006	-0.258212
C50	C	2.085401	0.499994	0.241788
C51	C	1.581634	-0.000003	-0.401415
C52	C	2.081634	0.499997	0.098585
C53	C	1.468447	-0.000003	0.411477
C54	C	1.968447	0.499997	0.911477
C55	C	1.472094	0.000000	0.550031
C56	C	1.972094	0.500000	1.050031
H57	H	0.875395	-0.000022	-0.020182
H58	H	1.375395	0.499978	0.479818
O59	O	1.363565	0.000175	-0.373067
O60	O	1.863565	0.500175	0.126933
C61	C	1.358877	0.084881	-0.296911
C62	C	1.858877	0.584881	0.203089
H63	H	1.422243	0.144096	-0.344106
H64	H	1.922243	0.644096	0.155894
H65	H	1.258491	0.113321	-0.283013
H66	H	1.758491	0.613321	0.216987
H67	H	1.392104	0.065722	-0.202036
H68	H	1.892104	0.565722	0.297964
O69	O	1.031997	0.000131	0.295390
O70	O	1.531997	0.500131	0.795390
C71	C	0.955902	0.084867	0.300117
C72	C	1.455902	0.584867	0.800117
H73	H	0.948600	0.113110	0.200986
H74	H	1.448600	0.613110	0.700986
H75	H	0.858423	0.065817	0.345651
H76	H	1.358423	0.565817	0.845651
H77	H	0.999147	0.144191	0.357534
H78	H	1.499147	0.644191	0.857534
H79	H	0.884056	-0.000006	0.273677
H80	H	1.384056	0.499994	0.773677
O81	O	1.697216	0.000123	-0.208181
O82	O	2.197216	0.500123	0.291819
C83	C	1.705918	0.084856	-0.133715
C84	C	2.205918	0.584856	0.366285
H85	H	1.607812	0.113103	-0.102272
H86	H	2.107812	0.613103	0.397728
H87	H	1.756264	0.065801	-0.047974
H88	H	2.256264	0.565801	0.452026
H89	H	1.760714	0.144181	-0.190683
H90	H	2.260714	0.644181	0.309317
O91	O	1.137405	0.000123	-0.031103
O92	O	1.637405	0.500123	0.468897
C93	C	1.213525	0.084857	-0.035840
C94	C	1.713525	0.584857	0.464160
H95	H	1.220834	0.113105	0.063287
H96	H	1.720834	0.613105	0.563287
H97	H	1.310998	0.065803	-0.081371
H98	H	1.810998	0.565803	0.418629
H99	H	1.170298	0.144180	-0.093266
H100	H	1.670298	0.644180	0.406734
O101	O	1.690074	0.000043	-0.478451
O102	O	2.190074	0.500043	0.021549
C103	C	1.662172	0.000020	-0.604282
C104	C	2.162172	0.500020	-0.104282
H105	H	1.564095	0.030989	-0.609990
H106	H	2.064095	0.530989	-0.109990
H107	H	1.733332	0.047514	-0.662720
H108	H	2.233332	0.547514	-0.162720
H109	H	1.666526	-0.078458	-0.641885
H110	H	2.166526	0.421542	-0.141885
O111	O	1.367145	-0.000133	-0.232963
O112	O	1.867145	0.499867	0.267037
C113	C	1.298855	-0.084867	-0.192808
C114	C	1.798855	0.415133	0.307192
H115	H	1.333505	-0.113118	-0.102183
H116	H	1.833505	0.386882	0.397817
H117	H	1.195082	-0.065811	-0.175768
H118	H	1.695082	0.434189	0.324232
H119	H	1.312755	-0.144188	-0.267998
H120	H	1.812755	0.355812	0.232002
