data_functionalizedCrystal
_audit_creation_method	'MofGen! by Chris Wilmer'
_symmetry_space_group_name_H-M	'P1'
_symmetry_Int_Tables_number	1
_symmetry_cell_setting	triclinic
loop_
_symmetry_equiv_pos_as_xyz
  x,y,z
_cell_length_a	10.654550
_cell_length_b	9.730223
_cell_length_c	10.654558
_cell_angle_alpha	90.002244
_cell_angle_beta	84.486699
_cell_angle_gamma	90.000124
loop_
_atom_site_label
_atom_site_type_symbol
_atom_site_fract_x
_atom_site_fract_y
_atom_site_fract_z
O1	O	1.667840	-0.114272	0.176391
O2	O	1.302362	-0.114275	0.193197
O3	O	1.493498	-0.114274	0.002056
O4	O	1.476703	-0.114273	0.367533
O5	O	1.493496	0.114306	0.002063
O6	O	1.302359	0.114305	0.193205
O7	O	1.667837	0.114308	0.176399
Zn8	Zn	1.485098	0.150598	0.184803
Zn9	Zn	1.485101	-0.150565	0.184793
O10	O	1.476701	0.114307	0.367540
C11	C	1.255562	0.000014	0.191967
C12	C	1.116119	0.000012	0.188275
N13	N	1.485105	0.356135	0.184809
C14	C	1.714636	0.000016	0.177629
C15	C	1.854080	0.000009	0.181321
C16	C	1.492261	0.000013	-0.044738
C17	C	1.488565	0.000003	-0.184181
C18	C	1.933562	0.000003	0.068780
C19	C	2.064583	0.000010	0.072256
C20	C	2.036627	0.000022	0.300825
C21	C	1.905608	0.000025	0.297347
C22	C	1.949703	-0.000010	-0.063183
C23	C	2.080724	-0.000004	-0.059706
C24	C	1.569762	0.428061	0.100201
C25	C	1.569759	0.571944	0.100188
C26	C	1.400437	0.571962	0.269400
C27	C	1.400436	0.428081	0.269407
C28	C	1.667522	0.428053	0.002511
C29	C	1.667519	0.571936	0.002497
N30	N	1.485103	0.643898	0.184789
C31	C	1.477938	0.000017	0.414334
C32	C	1.481634	0.000018	0.553777
C33	C	1.486827	0.124607	0.750324
C34	C	1.483366	0.124615	0.619301
C35	C	1.483375	-0.124596	0.619281
C36	C	1.486845	-0.124602	0.750300
C37	C	1.486817	0.268487	0.750335
C38	C	1.483356	0.268495	0.619312
H39	H	1.840897	0.000046	0.388989
H40	H	2.078598	0.000037	0.395290
Cl41	Cl	1.489056	-0.281253	0.832630
Cl42	Cl	1.294001	0.662417	0.375747
Cl43	Cl	1.634411	0.367744	-0.146522
H44	H	2.126369	0.098692	-0.099579
H45	H	1.481976	-0.226045	0.565919
Cl46	Cl	1.348720	0.337394	0.830179
H47	H	1.758707	0.383428	0.033099
Cl48	Cl	1.346449	0.353780	0.580967
H49	H	1.920348	0.095644	-0.114794
Cl50	Cl	1.621447	0.337438	0.539485
H51	H	1.575490	0.323732	0.775170
H52	H	1.637003	0.616550	-0.088724
H53	H	1.331490	0.369520	0.338290
H54	H	1.764031	0.610987	0.024016
Cl55	Cl	1.894679	-0.152387	-0.128061
Cl56	Cl	2.145196	-0.147707	-0.136444
