data_functionalizedCrystal
_audit_creation_method	'MofGen! by Chris Wilmer'
_symmetry_space_group_name_H-M	'P1'
_symmetry_Int_Tables_number	1
_symmetry_cell_setting	triclinic
loop_
_symmetry_equiv_pos_as_xyz
  x,y,z
_cell_length_a	13.897449
_cell_length_b	12.594516
_cell_length_c	13.897441
_cell_angle_alpha	90.028053
_cell_angle_beta	90.020733
_cell_angle_gamma	90.013095
loop_
_atom_site_label
_atom_site_type_symbol
_atom_site_fract_x
_atom_site_fract_y
_atom_site_fract_z
Zn1	Zn	1.474742	-0.423672	0.545398
Zn2	Zn	1.724742	-0.173672	0.795398
Zn3	Zn	1.974742	0.076328	1.045398
Zn4	Zn	2.224742	0.326328	1.295398
Zn5	Zn	1.474653	-0.601683	0.384107
Zn6	Zn	1.724653	-0.351683	0.634107
Zn7	Zn	1.974653	-0.101683	0.884107
Zn8	Zn	2.224653	0.148317	1.134107
Zn9	Zn	1.313431	-0.423722	0.384117
Zn10	Zn	1.563431	-0.173722	0.634117
Zn11	Zn	1.813431	0.076278	0.884117
Zn12	Zn	2.063431	0.326278	1.134117
Zn13	Zn	1.313429	-0.601613	0.545359
Zn14	Zn	1.563429	-0.351613	0.795359
Zn15	Zn	1.813429	-0.101613	1.045359
Zn16	Zn	2.063429	0.148387	1.295359
O17	O	1.394064	-0.512672	0.464745
O18	O	1.644064	-0.262672	0.714745
O19	O	1.894064	-0.012672	0.964745
O20	O	2.144064	0.237328	1.214745
O21	O	1.609712	-0.447293	0.524015
O22	O	1.859712	-0.197293	0.774015
O23	O	2.109712	0.052707	1.024015
O24	O	2.359712	0.302707	1.274015
O25	O	1.453229	-0.578126	0.249126
O26	O	1.703229	-0.328126	0.499126
O27	O	1.953229	-0.078126	0.749126
O28	O	2.203229	0.171874	0.999126
O29	O	1.334868	-0.274770	0.405531
O30	O	1.584868	-0.024770	0.655531
O31	O	1.834868	0.225230	0.905531
O32	O	2.084868	0.475230	1.155531
O33	O	1.609646	-0.578077	0.405515
O34	O	1.859646	-0.328077	0.655515
O35	O	2.109646	-0.078077	0.905515
O36	O	2.359646	0.171923	1.155515
O37	O	1.453382	-0.274733	0.524024
O38	O	1.703382	-0.024733	0.774024
O39	O	1.953382	0.225267	1.024024
O40	O	2.203382	0.475267	1.274024
O41	O	1.334781	-0.447380	0.249134
O42	O	1.584781	-0.197380	0.499134
O43	O	1.834781	0.052620	0.749134
O44	O	2.084781	0.302620	0.999134
O45	O	1.178449	-0.447312	0.405494
O46	O	1.428449	-0.197312	0.655494
O47	O	1.678449	0.052688	0.905494
O48	O	1.928449	0.302688	1.155494
O49	O	1.334865	-0.577958	0.680346
O50	O	1.584865	-0.327958	0.930346
O51	O	1.834865	-0.077958	1.180346
O52	O	2.084865	0.172042	1.430346
O53	O	1.178448	-0.578007	0.523958
O54	O	1.428448	-0.328007	0.773958
O55	O	1.678448	-0.078007	1.023958
O56	O	1.928448	0.171993	1.273958
O57	O	1.453380	-0.447226	0.680375
O58	O	1.703380	-0.197226	0.930375
O59	O	1.953380	0.052774	1.180375
O60	O	2.203380	0.302774	1.430375
O61	O	1.453228	-0.750619	0.405477
O62	O	1.703228	-0.500619	0.655477
O63	O	1.953228	-0.250619	0.905477
O64	O	2.203228	-0.000619	1.155477
O65	O	1.334778	-0.750568	0.523949
O66	O	1.584778	-0.500568	0.773949
O67	O	1.834778	-0.250568	1.023949
O68	O	2.084778	-0.000568	1.273949
C69	C	1.143449	-0.512658	0.464723
C70	C	1.393449	-0.262658	0.714723
C71	C	1.643449	-0.012658	0.964723
C72	C	1.893449	0.237342	1.214723
C73	C	1.036236	-0.512678	0.464737
C74	C	1.286236	-0.262678	0.714737
C75	C	1.536236	-0.012678	0.964737
C76	C	1.786236	0.237322	1.214737
C77	C	0.839940	-0.512681	0.464762
C78	C	1.089940	-0.262681	0.714762
C79	C	1.339940	-0.012681	0.964762
C80	C	1.589940	0.237319	1.214762
C81	C	0.949173	-0.512676	0.464745
C82	C	1.199173	-0.262676	0.714745
C83	C	1.449173	-0.012676	0.964745
C84	C	1.699173	0.237324	1.214745
C85	C	1.394019	-0.789213	0.464729
C86	C	1.644019	-0.539213	0.714729
C87	C	1.894019	-0.289213	0.964729
C88	C	2.144019	-0.039213	1.214729
C89	C	1.394088	-0.907519	0.464754
C90	C	1.644088	-0.657519	0.714754
C91	C	1.894088	-0.407519	0.964754
C92	C	2.144088	-0.157519	1.214754
C93	C	1.458588	-0.976761	0.400386
C94	C	1.708588	-0.726761	0.650386
C95	C	1.958588	-0.476761	0.900386
C96	C	2.208588	-0.226761	1.150386
C97	C	1.482161	-1.047457	0.488426
C98	C	1.732161	-0.797457	0.738426
C99	C	1.982161	-0.547457	0.988426
C100	C	2.232161	-0.297457	1.238426
C101	C	1.370635	-1.047622	0.376769
C102	C	1.620635	-0.797622	0.626769
C103	C	1.870635	-0.547622	0.876769
C104	C	2.120635	-0.297622	1.126769
C105	C	1.417707	-0.976656	0.552841
C106	C	1.667707	-0.726656	0.802841
C107	C	1.917707	-0.476656	1.052841
C108	C	2.167707	-0.226656	1.302841
C109	C	1.306140	-0.976815	0.441124
C110	C	1.556140	-0.726815	0.691124
C111	C	1.806140	-0.476815	0.941124
C112	C	2.056140	-0.226815	1.191124
C113	C	1.329680	-1.047479	0.529225
C114	C	1.579680	-0.797479	0.779225
C115	C	1.829680	-0.547479	1.029225
C116	C	2.079680	-0.297479	1.279225
C117	C	1.645657	-0.512687	0.464768
C118	C	1.895657	-0.262687	0.714768
C119	C	2.145657	-0.012687	0.964768
C120	C	2.395657	0.237313	1.214768
C121	C	1.752871	-0.512694	0.464778
C122	C	2.002871	-0.262694	0.714778
C123	C	2.252871	-0.012694	0.964778
C124	C	2.502871	0.237306	1.214778
C125	C	1.394132	-0.512578	0.716338
C126	C	1.644132	-0.262578	0.966338
C127	C	1.894132	-0.012578	1.216338
C128	C	2.144132	0.237422	1.466338
C129	C	1.394161	-0.512538	0.823552
C130	C	1.644161	-0.262538	1.073552
C131	C	1.894161	-0.012538	1.323552
C132	C	2.144161	0.237462	1.573552
C133	C	1.394135	-0.235052	0.464783
C134	C	1.644135	0.014948	0.714783
C135	C	1.894135	0.264948	0.964783
C136	C	2.144135	0.514948	1.214783
C137	C	1.394165	-0.116746	0.464799
C138	C	1.644165	0.133254	0.714799
C139	C	1.894165	0.383254	0.964799
C140	C	2.144165	0.633254	1.214799
C141	C	1.394051	-0.512689	0.214131
C142	C	1.644051	-0.262689	0.464131
C143	C	1.894051	-0.012689	0.714131
C144	C	2.144051	0.237311	0.964131
C145	C	1.394209	-0.512430	0.106918
C146	C	1.644209	-0.262430	0.356918
C147	C	1.894209	-0.012430	0.606918
C148	C	2.144209	0.237570	0.856918
C149	C	1.394188	-0.512466	1.019848
C150	C	1.644188	-0.262466	1.269848
C151	C	1.894188	-0.012466	1.519848
C152	C	2.144188	0.237534	1.769848
C153	C	1.394170	-0.512509	0.910615
C154	C	1.644170	-0.262509	1.160615
C155	C	1.894170	-0.012509	1.410615
C156	C	2.144170	0.237491	1.660615
H157	H	1.513142	-0.945709	0.346001
H158	H	1.763142	-0.695709	0.596001
H159	H	2.013142	-0.445709	0.846001
H160	H	2.263142	-0.195709	1.096001
H161	H	1.350767	-1.078793	0.302342
H162	H	1.600767	-0.828793	0.552342
H163	H	1.850767	-0.578793	0.802342
H164	H	2.100767	-0.328793	1.052342
H165	H	1.556570	-1.078490	0.508439
H166	H	1.806570	-0.828490	0.758439
H167	H	2.056570	-0.578490	1.008439
H168	H	2.306570	-0.328490	1.258439
H169	H	1.231752	-0.945760	0.421085
H170	H	1.481752	-0.695760	0.671085
H171	H	1.731752	-0.445760	0.921085
H172	H	1.981752	-0.195760	1.171085
H173	H	1.437501	-0.945617	0.627331
H174	H	1.687501	-0.695617	0.877331
H175	H	1.937501	-0.445617	1.127331
H176	H	2.187501	-0.195617	1.377331
H177	H	1.275168	-1.078334	0.583742
H178	H	1.525168	-0.828334	0.833742
H179	H	1.775168	-0.578334	1.083742
H180	H	2.025168	-0.328334	1.333742
