data_functionalizedCrystal
_audit_creation_method	'MofGen! by Chris Wilmer'
_symmetry_space_group_name_H-M	'P1'
_symmetry_Int_Tables_number	1
_symmetry_cell_setting	triclinic
loop_
_symmetry_equiv_pos_as_xyz
  x,y,z
_cell_length_a	15.944551
_cell_length_b	11.026607
_cell_length_c	9.482934
_cell_angle_alpha	78.599149
_cell_angle_beta	99.286309
_cell_angle_gamma	96.042377
loop_
_atom_site_label
_atom_site_type_symbol
_atom_site_fract_x
_atom_site_fract_y
_atom_site_fract_z
O1	O	-1.148389	-0.137535	-0.120735
O2	O	-0.906760	-0.156826	-0.120771
O3	O	-1.007548	0.029474	-0.120751
O4	O	-1.047601	-0.323835	-0.120755
O5	O	-0.987097	-0.008522	0.121038
O6	O	-0.886309	-0.194822	0.121018
O7	O	-1.127939	-0.175531	0.121053
Cu8	Cu	-1.005257	-0.188646	0.143113
Cu9	Cu	-1.029442	-0.143711	-0.142830
O10	O	-1.027150	-0.361831	0.121033
C11	C	-0.989934	0.055688	0.000141
C12	C	-0.967908	0.190405	0.000132
C13	C	-0.865120	-0.175022	0.000119
C14	C	-0.771512	-0.172618	0.000105
C15	C	-1.169579	-0.157334	0.000160
C16	C	-1.263188	-0.159737	0.000164
C17	C	-0.538328	-0.051403	0.000135
C18	C	-0.495901	-0.088960	-0.119080
C19	C	-0.600128	-0.168276	0.000123
C20	C	-0.475764	-0.126448	0.119304
C21	C	-0.434577	-0.164075	0.000146
C22	C	-0.558941	-0.205849	-0.119191
C23	C	-0.538800	-0.243338	0.119300
C24	C	-0.496405	-0.280975	0.000056
C25	C	-0.695497	-0.170693	0.000108
C26	C	-0.339212	-0.161665	0.000150
C27	C	-1.044765	-0.388044	0.000139
C28	C	-1.066792	-0.522760	0.000137
N29	N	-0.988252	-0.220250	0.344229
C30	C	-1.028727	0.264204	0.000139
C31	C	-1.005963	0.403442	0.000131
C32	C	-1.024417	-0.153031	0.416436
C33	C	-1.010276	-0.179336	0.583850
N34	N	-1.046447	-0.112107	0.656053
H35	H	-0.557011	0.045616	-0.000011
H36	H	-1.097649	0.224304	0.000158
H37	H	-0.968839	-0.256358	0.645967
H38	H	-0.439678	-0.092831	0.220088
H39	H	-0.476842	-0.023688	-0.219867
C40	C	-0.874795	0.244291	0.000116
C41	C	-0.805661	0.195351	0.125662
C42	C	-0.712546	0.249233	0.125645
C43	C	-0.688565	0.352055	0.000083
C44	C	-0.757700	0.401001	-0.125473
C45	C	-0.850815	0.347119	-0.125456
H46	H	-0.823412	0.119231	0.218619
H47	H	-0.661367	0.213000	0.218590
H48	H	-0.619635	0.391942	0.000070
H49	H	-0.739950	0.477121	-0.218430
H50	H	-0.901994	0.383352	-0.218401
H51	H	-1.065844	-0.076005	0.354316
C52	C	-0.471430	-0.412125	-0.000023
C53	C	-0.377564	-0.434407	0.001162
C54	C	-0.352584	-0.565551	0.001077
C55	C	-0.421472	-0.674414	-0.000193
C56	C	-0.515345	-0.652136	-0.001379
C57	C	-0.540324	-0.520991	-0.001294
H58	H	-0.326563	-0.353817	0.002103
H59	H	-0.283093	-0.582043	0.001955
H60	H	-0.402981	-0.771495	-0.000256
H61	H	-0.566345	-0.732725	-0.002320
H62	H	-0.609815	-0.504499	-0.002172
H63	H	-0.557873	-0.308570	0.220092
C64	C	-0.932280	-0.324305	0.428138
C65	C	-0.956586	-0.459199	0.407352
C66	C	-0.900612	-0.563257	0.491256
C67	C	-0.820332	-0.532420	0.595946
C68	C	-0.796022	-0.397519	0.616737
C69	C	-0.851995	-0.293462	0.532833
H70	H	-1.016018	-0.482032	0.329849
H71	H	-0.918609	-0.663119	0.475864
H72	H	-0.778897	-0.609450	0.658057
H73	H	-0.736590	-0.374687	0.694239
H74	H	-0.833999	-0.193599	0.548224
H75	H	-0.594930	-0.239390	-0.220088
H76	H	-1.087876	-0.035076	0.593937
H77	H	-0.937038	0.443336	0.000111
H78	H	-1.135728	0.437366	0.000038
