data_functionalizedCrystal
_audit_creation_method	'MofGen! by Chris Wilmer'
_symmetry_space_group_name_H-M	'P1'
_symmetry_Int_Tables_number	1
_symmetry_cell_setting	triclinic
loop_
_symmetry_equiv_pos_as_xyz
  x,y,z
_cell_length_a	10.685661
_cell_length_b	18.101395
_cell_length_c	10.686551
_cell_angle_alpha	94.406456
_cell_angle_beta	99.072622
_cell_angle_gamma	85.652328
loop_
_atom_site_label
_atom_site_type_symbol
_atom_site_fract_x
_atom_site_fract_y
_atom_site_fract_z
Zn1	Zn	1.995550	-0.345661	0.866143
Zn2	Zn	1.979063	-0.478341	0.653872
Zn3	Zn	1.766985	-0.345695	0.637668
Zn4	Zn	1.783203	-0.460635	0.849836
O5	O	1.881200	-0.407583	0.751880
O6	O	2.170987	-0.370657	0.851591
O7	O	1.937244	-0.468169	0.474093
O8	O	1.797418	-0.242061	0.668019
O9	O	2.158874	-0.468137	0.695636
O10	O	1.965343	-0.242036	0.835879
O11	O	1.781431	-0.370715	0.462189
O12	O	1.591513	-0.353546	0.652207
O13	O	1.825058	-0.437959	1.029628
O14	O	1.603428	-0.437992	0.808085
O15	O	1.981069	-0.353489	1.041609
O16	O	1.952969	-0.579622	0.679824
O17	O	1.809071	-0.566613	0.823797
C18	C	1.551414	-0.393852	0.726619
C19	C	1.410333	-0.387994	0.715842
C20	C	1.881028	-0.599988	0.751829
C21	C	1.881073	-0.682303	0.751859
C22	C	1.881357	-0.981402	0.751949
C23	C	1.791066	-0.941923	0.842794
C24	C	1.790578	-0.856298	0.842451
C25	C	1.881216	-0.833016	0.751906
C26	C	1.834723	-0.868231	0.615359
C27	C	1.834138	-0.953826	0.615899
C28	C	2.018264	-0.953905	0.796489
C29	C	2.017700	-0.868099	0.799362
C30	C	1.881138	-0.749154	0.751873
C31	C	1.881431	-1.065264	0.751972
C32	C	2.212274	-0.421368	0.777240
C33	C	2.353358	-0.427243	0.788047
C34	C	1.906711	-0.393745	1.082964
C35	C	1.917583	-0.387848	1.224052
C36	C	1.881410	-0.214427	0.751961
C37	C	1.881500	-0.132115	0.751995
C38	C	1.855862	-0.421317	0.422090
C39	C	1.845237	-0.427015	0.281021
H40	H	1.821145	-0.959260	0.944025
H41	H	1.987848	-0.349805	1.283222
H42	H	1.412512	-0.465322	0.858117
O43	O	1.331976	-0.337543	0.623030
H44	H	1.395901	-0.309711	0.571844
H45	H	2.058649	-0.972833	0.894902
O46	O	1.918491	-0.849207	0.522657
H47	H	1.883618	-0.874748	0.426948
H48	H	2.052574	-0.844772	0.899903
O49	O	1.830587	-0.824159	0.976150
H50	H	1.850466	-0.869775	1.041635
H51	H	1.690422	-0.960328	0.812814
H52	H	1.733754	-0.970994	0.579362
O53	O	1.656442	-0.825004	0.802267
H54	H	1.591672	-0.871041	0.782994
H55	H	1.896492	-0.980534	0.545353
H56	H	1.735339	-0.844037	0.578381
O57	O	2.112617	-0.847664	0.719157
H58	H	2.063777	-0.812025	0.643880
H59	H	1.774985	-0.465061	1.221858
H60	H	2.085660	-0.980169	0.730448
