data_functionalizedCrystal
_audit_creation_method	'MofGen! by Chris Wilmer'
_symmetry_space_group_name_H-M	'P1'
_symmetry_Int_Tables_number	1
_symmetry_cell_setting	triclinic
loop_
_symmetry_equiv_pos_as_xyz
  x,y,z
_cell_length_a	14.908941
_cell_length_b	11.169416
_cell_length_c	11.169406
_cell_angle_alpha	89.955198
_cell_angle_beta	93.260056
_cell_angle_gamma	93.303475
loop_
_atom_site_label
_atom_site_type_symbol
_atom_site_fract_x
_atom_site_fract_y
_atom_site_fract_z
Zn1	Zn	-1.379371	0.371650	0.572952
Zn2	Zn	-0.879371	0.871650	1.072952
Zn3	Zn	-1.379274	0.572451	0.372286
Zn4	Zn	-0.879274	1.072451	0.872286
Zn5	Zn	-1.228476	0.383356	0.383840
Zn6	Zn	-0.728476	0.883356	0.883840
Zn7	Zn	-1.228528	0.583868	0.584473
Zn8	Zn	-0.728528	1.083868	1.084473
O9	O	-1.303912	0.477831	0.478388
O10	O	-0.803912	0.977831	0.978388
O11	O	-1.505596	0.388609	0.536676
O12	O	-1.005596	0.888609	1.036676
O13	O	-1.359209	0.547488	0.205874
O14	O	-0.859209	1.047488	0.705874
O15	O	-1.248512	0.213852	0.408940
O16	O	-0.748512	0.713852	0.908940
O17	O	-1.505525	0.536137	0.389248
O18	O	-1.005525	1.036137	0.889248
O19	O	-1.359373	0.205251	0.547879
O20	O	-0.859373	0.705251	1.047879
O21	O	-1.248418	0.408561	0.214362
O22	O	-0.748418	0.908561	0.714362
O23	O	-1.102245	0.419631	0.420111
O24	O	-0.602245	0.919631	0.920111
O25	O	-1.248599	0.555596	0.750890
O26	O	-0.748599	1.055596	1.250890
O27	O	-1.102283	0.566947	0.567516
O28	O	-0.602283	1.066947	1.067516
O29	O	-1.359423	0.399680	0.742426
O30	O	-0.859423	0.899680	1.242426
O31	O	-1.359258	0.741917	0.400420
O32	O	-0.859258	1.241917	0.900420
O33	O	-1.248505	0.750305	0.556313
O34	O	-0.748505	1.250305	1.056313
C35	C	-1.069532	0.495799	0.496318
C36	C	-0.569532	0.995799	0.996318
C37	C	-0.969263	0.503515	0.504017
C38	C	-0.469263	1.003515	1.004017
C39	C	-1.303948	0.164786	0.478413
C40	C	-0.803948	0.664786	0.978413
C41	C	-1.303963	0.031385	0.478424
C42	C	-0.803963	0.531385	0.978424
C43	C	-0.780756	0.364382	0.365207
C44	C	-0.280756	0.864382	0.865207
C45	C	-0.686545	0.371628	0.372437
C46	C	-0.186545	0.871628	0.872437
C47	C	-0.686627	0.525257	0.525701
C48	C	-0.186627	1.025257	1.025701
C49	C	-0.780838	0.518011	0.518471
C50	C	-0.280838	1.018011	1.018471
C51	C	-0.827900	0.437570	0.438222
C52	C	-0.327900	0.937570	0.938222
C53	C	-0.922113	0.430319	0.430999
C54	C	-0.422113	0.930319	0.930999
C55	C	-0.922193	0.583953	0.584256
C56	C	-0.422193	1.083953	1.084256
C57	C	-0.827982	0.591198	0.591486
C58	C	-0.327982	1.091198	1.091486
C59	C	-0.539208	0.459782	0.460379
C60	C	-0.039208	0.959782	0.960379
C61	C	-0.639477	0.452061	0.452683
C62	C	-0.139477	0.952061	0.952683
C63	C	-1.303901	0.789657	0.478387
C64	C	-0.803901	1.289657	0.978387
C65	C	-1.303979	0.923051	0.478420
C66	C	-0.803979	1.423051	0.978420
C67	C	-1.303849	0.477965	0.166568
C68	C	-0.803849	0.977965	0.666568
C69	C	-1.303975	0.477710	0.033159
C70	C	-0.803975	0.977710	0.533159
C71	C	-1.304027	0.477606	0.791422
C72	C	-0.804027	0.977606	1.291422
C73	C	-1.304076	0.477509	0.924818
C74	C	-0.804076	0.977509	1.424818
H75	H	-0.960429	0.364813	0.365664
H76	H	-0.460429	0.864813	0.865664
F77	F	-0.777886	0.676817	0.676875
F78	F	-0.277886	1.176817	1.176875
H79	H	-0.819074	0.298870	0.299880
H80	H	-0.319074	0.798870	0.799880
F81	F	-0.636374	0.293734	0.294722
F82	F	-0.136374	0.793734	0.794722
F83	F	-0.972373	0.661831	0.661988
F84	F	-0.472373	1.161831	1.161988
H85	H	-0.648293	0.590758	0.591024
H86	H	-0.148293	1.090758	1.091024
