data_functionalizedCrystal
_audit_creation_method	'MofGen! by Chris Wilmer'
_symmetry_space_group_name_H-M	'P1'
_symmetry_Int_Tables_number	1
_symmetry_cell_setting	triclinic
loop_
_symmetry_equiv_pos_as_xyz
  x,y,z
_cell_length_a	19.288864
_cell_length_b	19.188930
_cell_length_c	18.366186
_cell_angle_alpha	89.988632
_cell_angle_beta	89.977106
_cell_angle_gamma	83.140512
loop_
_atom_site_label
_atom_site_type_symbol
_atom_site_fract_x
_atom_site_fract_y
_atom_site_fract_z
O1	O	0.921359	0.087099	-0.060791
O2	O	0.719099	0.098849	-0.060743
O3	O	0.826066	-0.008682	-0.060754
O4	O	0.814393	0.194630	-0.060780
O5	O	0.826048	-0.008687	0.060345
O6	O	0.719081	0.098843	0.060357
O7	O	0.921341	0.087094	0.060308
Zn8	Zn	0.820208	0.092968	0.079560
Zn9	Zn	0.820232	0.092975	-0.079994
O10	O	0.814374	0.194625	0.060320
C11	C	0.693214	0.098468	-0.000186
C12	C	0.616110	0.097333	-0.000167
C13	C	0.571419	0.160427	-0.000187
C14	C	0.498972	0.159361	-0.000195
C15	C	0.471219	0.095197	-0.000198
C16	C	0.515921	0.032095	-0.000174
C17	C	0.588366	0.033163	-0.000159
C18	C	0.362960	0.044759	-0.042642
C19	C	0.290515	0.043694	-0.042662
C20	C	0.247773	0.091900	-0.000241
C21	C	0.277483	0.141184	0.042190
C22	C	0.349929	0.142253	0.042205
C23	C	0.392665	0.094032	-0.000214
C24	C	0.124526	0.153843	-0.000268
C25	C	0.052078	0.152774	-0.000272
C26	C	0.069028	0.025506	-0.000259
C27	C	0.141475	0.026576	-0.000248
C28	C	0.169219	0.090747	-0.000256
C29	C	0.825679	-0.034696	-0.000202
C30	C	0.824544	-0.112200	-0.000196
C31	C	0.887309	-0.157129	-0.000207
C32	C	0.886243	-0.229953	-0.000219
C33	C	0.822408	-0.257844	-0.000204
C34	C	0.759636	-0.212906	-0.000196
C35	C	0.760704	-0.140084	-0.000192
N36	N	0.773609	-0.365847	0.041020
N37	N	0.772598	-0.435026	0.041018
C38	C	0.819187	-0.477253	-0.000218
N39	N	0.866835	-0.447689	-0.041442
N40	N	0.867847	-0.378504	-0.041436
C41	C	0.821243	-0.336807	-0.000209
C42	C	0.880800	-0.601146	-0.000243
C43	C	0.879731	-0.673971	-0.000259
C44	C	0.753122	-0.656922	-0.000229
C45	C	0.754193	-0.584099	-0.000220
C46	C	0.818034	-0.556216	-0.000224
C47	C	0.947227	0.087475	-0.000250
C48	C	1.024330	0.088609	-0.000274
C49	C	0.814762	0.220638	-0.000234
C50	C	0.815896	0.298143	-0.000245
N51	N	0.820197	0.092963	0.188451
N52	N	0.820249	0.092974	-0.188885
C53	C	0.867577	0.045371	0.226546
C54	C	0.867582	0.045368	0.302774
C55	C	0.820213	0.092968	0.340903
C56	C	0.772823	0.140563	0.302799
C57	C	0.772816	0.140560	0.226573
C58	C	0.810919	0.156585	0.461657
C59	C	0.810932	0.156589	0.537882
C60	C	0.820232	0.092977	0.576011
C61	C	0.829535	0.029359	0.537906
C62	C	0.829527	0.029356	0.461679
C63	C	0.820215	0.092977	0.423558
C64	C	0.867620	0.045378	0.696761
C65	C	0.867620	0.045374	0.772990
C66	C	0.772864	0.140576	0.773014
C67	C	0.772862	0.140574	0.696786
C68	C	0.820243	0.092976	0.658664
H69	H	0.147116	0.206094	-0.000264
H70	H	0.046433	-0.026738	-0.000306
C71	C	-0.039256	0.225410	0.061952
C72	C	0.002948	0.222133	-0.000293
H73	H	-0.069584	0.268232	0.061938
H74	H	-0.066147	0.187047	0.061951
H75	H	-0.010658	0.223185	0.104182
H76	H	-0.025651	0.224352	-0.042524
H77	H	0.029841	0.260506	-0.000299
C78	C	0.274219	-0.001174	-0.162680
C79	C	0.257865	-0.010480	-0.089302
H80	H	0.254068	-0.034623	-0.191472
H81	H	0.256200	0.044837	-0.177605
H82	H	0.323483	-0.007437	-0.168728
H83	H	0.208601	-0.004212	-0.083253
H84	H	0.275882	-0.056502	-0.074371
C85	C	0.685002	-0.284905	-0.062430
C86	C	0.689469	-0.243564	-0.000179
H87	H	0.641684	-0.303834	-0.062418
H88	H	0.688053	-0.256841	-0.104652
H89	H	0.722235	-0.322084	-0.062430
H90	H	0.652238	-0.206381	-0.000181
H91	H	0.686410	-0.271629	0.042054
H92	H	0.709591	-0.103502	-0.000183
H93	H	0.462577	0.210742	-0.000208
H94	H	0.837100	-0.022445	0.430657
H95	H	0.701147	-0.679631	-0.000221
H96	H	0.906200	0.006616	0.804008
H97	H	0.703083	-0.547517	-0.000207
C98	C	0.150950	-0.099326	-0.000245
C99	C	0.190605	-0.042780	-0.000238
H100	H	0.181283	-0.142144	-0.000242
H101	H	0.122320	-0.097099	0.041977
H102	H	0.122362	-0.097087	-0.042483
H103	H	0.219190	-0.045016	0.042003
H104	H	0.219247	-0.045008	-0.042464
H105	H	0.397755	0.005502	-0.077191
C106	C	0.908752	-0.075606	0.326265
C107	C	0.919663	-0.006948	0.344663
H108	H	0.940906	-0.107902	0.352122
H109	H	0.862427	-0.083065	0.338783
H110	H	0.915534	-0.082415	0.275411
H111	H	0.912876	-0.000137	0.395516
H112	H	0.965999	0.000514	0.332149
H113	H	0.906157	0.006613	0.195509
H114	H	0.837108	-0.022440	0.568948
H115	H	0.906199	0.006619	0.665721
C116	C	0.678303	0.155972	0.858778
C117	C	0.720793	0.192898	0.814918
H118	H	0.646158	0.188274	0.884652
H119	H	0.653410	0.126978	0.829060
H120	H	0.706529	0.127628	0.892376
H121	H	0.692568	0.221238	0.781316
H122	H	0.745689	0.221905	0.844638
H123	H	0.939293	-0.134431	-0.000213
C124	C	0.508102	-0.076707	-0.062422
C125	C	0.485420	-0.038437	-0.000180
H126	H	0.489276	-0.120253	-0.062420
H127	H	0.492770	-0.050736	-0.104650
H128	H	0.557645	-0.085095	-0.062400
H129	H	0.435877	-0.030044	-0.000204
H130	H	0.500749	-0.064414	0.042059
H131	H	0.734283	0.179330	0.665767
C132	C	1.005839	-0.625309	-0.000291
C133	C	0.950971	-0.570490	-0.000264
H134	H	1.049159	-0.606383	-0.000311
H135	H	1.002789	-0.653366	0.041937
H136	H	1.002784	-0.653348	-0.042524
H137	H	0.954023	-0.542454	0.041972
H138	H	0.954023	-0.542421	-0.042496
H139	H	0.624755	-0.018218	-0.000144
H140	H	0.803361	0.208391	0.568902
C141	C	0.792559	0.282353	0.469291
C142	C	0.800708	0.226515	0.419750
H143	H	0.786262	0.325521	0.443418
H144	H	0.752886	0.278589	0.499037
H145	H	0.833011	0.280821	0.499007
H146	H	0.760254	0.228043	0.390038
H147	H	0.840385	0.230280	0.389991
C148	C	1.011497	-0.239497	-0.000229
C149	C	0.955238	-0.279350	-0.000226
H150	H	1.054091	-0.269993	-0.000228
H151	H	1.009294	-0.210734	-0.042455
H152	H	1.009266	-0.210744	0.042005
H153	H	0.957467	-0.308099	-0.042463
H154	H	0.957442	-0.308125	0.042005
H155	H	0.734253	0.179319	0.333848
H156	H	0.734232	0.179316	0.195555
H157	H	0.374116	0.182379	0.076756
H158	H	0.930844	-0.710552	-0.000272
H159	H	0.594003	0.212680	-0.000195
C160	C	0.239125	0.262549	0.066739
C161	C	0.230578	0.194247	0.088813
H162	H	0.210181	0.295326	0.095514
H163	H	0.286541	0.270163	0.072779
H164	H	0.226436	0.268482	0.016954
H165	H	0.243271	0.188312	0.138596
H166	H	0.183151	0.186631	0.082778
