data_functionalizedCrystal
_audit_creation_method	'MofGen! by Chris Wilmer'
_symmetry_space_group_name_H-M	'P1'
_symmetry_Int_Tables_number	1
_symmetry_cell_setting	triclinic
loop_
_symmetry_equiv_pos_as_xyz
  x,y,z
_cell_length_a	14.560438
_cell_length_b	14.560438
_cell_length_c	14.560438
_cell_angle_alpha	90.000927
_cell_angle_beta	119.998247
_cell_angle_gamma	120.000163
loop_
_atom_site_label
_atom_site_type_symbol
_atom_site_fract_x
_atom_site_fract_y
_atom_site_fract_z
Zr1	Zr	-1.005288	0.884745	-0.120501
O2	O	-1.196888	0.738095	-0.267141
O3	O	-0.813688	0.929702	-0.075552
O4	O	-1.005291	0.929697	-0.267150
O5	O	-1.005282	0.738104	0.075597
O6	O	-1.005294	1.080835	-0.267151
O7	O	-1.005285	0.738101	-0.075544
O8	O	-0.662551	1.080845	0.075582
O9	O	-1.348025	0.738094	-0.267136
O10	O	-0.892498	1.061668	-0.056378
O11	O	-0.892494	0.948878	0.056418
O12	O	-1.118082	0.948871	-0.169163
O13	O	-1.118078	0.836082	-0.056368
Zr14	Zr	-1.005288	1.125800	0.120549
Zr15	Zr	-1.005292	1.125793	-0.120503
Zr16	Zr	-1.005284	0.884752	0.120552
Zr17	Zr	-1.246334	0.884745	-0.120492
Zr18	Zr	-0.764242	1.125800	0.120541
O19	O	-1.196888	1.080843	0.075600
O20	O	-1.196894	1.080834	-0.267145
O21	O	-1.196882	0.738104	0.075604
O22	O	-0.813689	1.272450	0.267190
O23	O	-0.813695	1.272441	-0.075555
O24	O	-0.813683	0.929711	0.267193
O25	O	-1.005294	1.272441	-0.075549
O26	O	-1.005285	1.080848	0.267198
O27	O	-1.005282	0.929710	0.267200
O28	O	-1.005292	1.272444	0.075592
O29	O	-1.348028	0.929695	-0.267138
O30	O	-0.662548	1.080850	0.267187
O31	O	-0.662552	1.272451	0.267185
O32	O	-0.662555	1.272446	0.075580
O33	O	-1.348022	0.738099	-0.075532
O34	O	-1.348025	0.929700	-0.075534
O35	O	-0.892494	1.061674	0.169212
O36	O	-0.892498	1.174463	0.056416
O37	O	-1.118082	1.061667	-0.056370
O38	O	-1.118078	0.948877	0.056426
C39	C	-0.703776	1.005274	0.000014
C40	C	-0.601445	1.005274	0.000010
C41	C	-1.005283	0.703758	0.000027
C42	C	-1.005281	0.601427	0.000028
C43	C	-0.553372	1.064147	-0.058869
C44	C	-0.457213	1.064152	-0.058860
C45	C	-0.457214	0.946402	0.058909
C46	C	-0.553364	0.946404	0.058906
C47	C	-0.306802	1.005273	0.000031
C48	C	-0.409136	1.005277	0.000023
C49	C	-0.887538	0.516065	0.058896
C50	C	-0.887530	0.612221	0.058898
C51	C	-1.123047	0.494468	-0.058855
C52	C	-1.123054	0.398315	-0.058862
C53	C	-1.005293	1.005265	-0.301495
C54	C	-1.005295	1.005262	-0.403828
C55	C	-1.005294	1.306787	0.000021
C56	C	-1.005296	1.409118	0.000020
C57	C	-1.123045	0.946385	-0.510777
C58	C	-1.123039	0.946398	-0.606926
C59	C	-0.887522	1.064167	-0.489163
C60	C	-0.887529	1.064160	-0.393016
C61	C	-1.005283	1.005280	0.301544
C62	C	-1.005281	1.005283	0.403877
C63	C	-0.703781	1.306788	0.000011
C64	C	-0.601453	1.409119	0.000006
C65	C	-0.703771	1.005281	0.301533
C66	C	-0.601439	1.005284	0.403863
C67	C	-0.703776	1.306795	0.301530
C68	C	-0.601446	1.409130	0.403859
C69	C	-1.306800	0.703750	-0.301482
C70	C	-1.409130	0.601415	-0.403810
C71	C	-1.306795	0.703757	0.000037
C72	C	-1.409124	0.601426	0.000042
C73	C	-1.306806	1.005264	-0.301485
C74	C	-1.409138	1.005261	-0.403814
C75	C	-0.553376	1.398320	-0.058870
C76	C	-0.457235	1.494475	-0.058878
C77	C	-0.457253	1.612226	0.058876
C78	C	-0.553398	1.516072	0.058877
C79	C	-0.553361	1.064163	0.510815
C80	C	-0.457218	1.064153	0.606960
C81	C	-0.457235	0.946384	0.489189
C82	C	-0.553383	0.946388	0.393045
C83	C	-0.553371	1.516081	0.393058
C84	C	-0.457229	1.612231	0.489210
C85	C	-0.457242	1.494464	0.606961
C86	C	-0.553389	1.398316	0.510810
H87	H	-0.592515	1.112084	-0.106823
H88	H	-1.218923	0.898456	-0.694006
C89	C	-0.349148	1.423672	0.736927
C90	C	-0.404419	1.482574	0.724519
H91	H	-0.316549	1.416322	0.809499
H92	H	-0.280119	1.463627	0.728508
H93	H	-0.413303	1.351109	0.681197
H94	H	-0.340262	1.555140	0.780245
H95	H	-0.473456	1.442619	0.732950
C96	C	-0.686789	0.586837	0.237784
C97	C	-0.758099	0.527940	0.123610
H98	H	-0.606874	0.594175	0.277731
H99	H	-0.735168	0.546884	0.266854
H100	H	-0.669945	0.659404	0.246196
H101	H	-0.774952	0.455369	0.115197
H102	H	-0.709710	0.567891	0.094531
C103	C	-1.323809	0.268340	-0.237755
C104	C	-1.252505	0.280746	-0.123584
H105	H	-1.403724	0.195762	-0.277709
H106	H	-1.275426	0.276772	-0.266824
H107	H	-1.340651	0.324064	-0.246162
H108	H	-1.235654	0.225027	-0.115177
H109	H	-1.300898	0.272303	-0.094507
H110	H	-1.218938	0.898427	-0.519587
H111	H	-0.418113	1.699316	0.106808
H112	H	-0.592498	1.524891	0.305977
C113	C	-0.661521	1.268331	0.581576
C114	C	-0.606237	1.280743	0.522684
H115	H	-0.694142	1.195751	0.588910
H116	H	-0.730536	1.276766	0.541625
H117	H	-0.597368	1.324051	0.654145
H118	H	-0.670393	1.225029	0.450113
H119	H	-0.537215	1.272298	0.562635
H120	H	-0.791637	1.112111	-0.305927
C121	C	-0.466890	1.180528	-0.175281
C122	C	-0.404376	1.128861	-0.123588
H123	H	-0.434274	1.220472	-0.215247
H124	H	-0.451129	1.231347	-0.119574
H125	H	-0.557663	1.124797	-0.226095
H126	H	-0.313604	1.184593	-0.072768
H127	H	-0.420126	1.078037	-0.179302
C128	C	-0.348925	0.924754	0.237870
C129	C	-0.404238	0.881790	0.123705
H130	H	-0.316179	0.884896	0.277890
H131	H	-0.413084	0.916268	0.246294
H132	H	-0.279983	1.002235	0.266856
H133	H	-0.473186	0.804310	0.094717
H134	H	-0.340073	0.890266	0.115274
H135	H	-0.791640	0.699300	0.106841
C136	C	-0.504436	1.268358	-0.080721
C137	C	-0.606206	1.280758	-0.123588
H138	H	-0.537053	1.195783	-0.120684
H139	H	-0.466941	1.276787	-0.003273
H140	H	-0.440304	1.324087	-0.089153
H141	H	-0.670334	1.225034	-0.115149
H142	H	-0.643721	1.272318	-0.201055
C143	C	-0.661509	0.767504	0.080760
C144	C	-0.606220	0.881682	0.123627
H145	H	-0.694144	0.727553	0.120713
H146	H	-0.597368	0.759081	0.089196
H147	H	-0.730529	0.738440	0.003300
H148	H	-0.537193	0.910749	0.201086
H149	H	-0.670367	0.890111	0.115200
C150	C	-0.309828	0.894111	0.584277
C151	C	-0.404385	0.881671	0.477304
H152	H	-0.277194	0.854169	0.576934
H153	H	-0.347335	0.865025	0.624219
H154	H	-0.240817	0.971577	0.624216
H155	H	-0.473402	0.804205	0.437367
H156	H	-0.366879	0.910752	0.437344
H157	H	-0.418097	1.485672	-0.106824
H158	H	-0.592489	1.112115	0.519629
C159	C	-0.543756	1.642120	0.175287
C160	C	-0.606248	1.527941	0.123603
H161	H	-0.576382	1.649441	0.215246
H162	H	-0.559522	1.677171	0.119576
H163	H	-0.452981	1.677176	0.226106
H164	H	-0.697022	1.492886	0.072778
H165	H	-0.590492	1.492874	0.179321
C166	C	-0.543739	0.829984	0.286278
C167	C	-0.606233	0.881668	0.275472
H168	H	-0.576366	0.790035	0.213693
H169	H	-0.559504	0.779166	0.326224
H170	H	-0.452965	0.885706	0.326230
H171	H	-0.697007	0.825945	0.235527
H172	H	-0.590479	0.932490	0.235508
C173	C	-0.466866	1.718974	0.363155
C174	C	-0.404378	1.729795	0.477335
H175	H	-0.434231	1.791555	0.355825
H176	H	-0.557630	1.679026	0.328101
H177	H	-0.451094	1.679015	0.328110
H178	H	-0.420158	1.769746	0.512379
H179	H	-0.313593	1.769760	0.512405
H180	H	-1.218922	0.485686	-0.106793
H181	H	-0.791642	1.112119	-0.480374
H182	H	-0.418079	1.112096	0.694042
