data_functionalizedCrystal
_audit_creation_method	'MofGen! by Chris Wilmer'
_symmetry_space_group_name_H-M	'P1'
_symmetry_Int_Tables_number	1
_symmetry_cell_setting	triclinic
loop_
_symmetry_equiv_pos_as_xyz
  x,y,z
_cell_length_a	6.817900
_cell_length_b	12.200863
_cell_length_c	16.305550
_cell_angle_alpha	94.302169
_cell_angle_beta	103.455250
_cell_angle_gamma	107.143441
loop_
_atom_site_label
_atom_site_type_symbol
_atom_site_fract_x
_atom_site_fract_y
_atom_site_fract_z
V1	V	-4.044949	-0.159681	-0.263118
O2	O	-4.013059	0.006677	-0.258021
O3	O	-4.014671	-0.315662	-0.261403
O4	O	-3.996119	-0.157662	-0.377834
O5	O	-4.031739	-0.152417	-0.140784
V6	V	-4.526285	-0.139731	-0.248475
O7	O	-4.311006	-0.203443	-0.295237
O8	O	-4.710426	-0.095969	-0.216356
O9	O	-4.333357	0.016250	-0.250190
O10	O	-4.675572	-0.306089	-0.253572
O11	O	-4.656892	-0.146995	-0.370809
O12	O	-4.351909	-0.141750	-0.133759
C13	C	-3.864094	-0.353673	-0.257274
C14	C	-3.920622	-0.481193	-0.256637
C15	C	-4.024079	-0.714666	-0.255477
C16	C	-3.966500	-0.584745	-0.256122
C17	C	-3.840428	-0.152127	-0.405792
C18	C	-3.881907	-0.151508	-0.499573
C19	C	-4.032713	-0.149110	-0.840317
C20	C	-3.795832	-0.141992	-0.799385
C21	C	-3.752769	-0.143111	-0.701891
C22	C	-3.957895	-0.150299	-0.671270
C23	C	-4.138198	-0.263590	-0.721958
C24	C	-4.179987	-0.262949	-0.819507
C25	C	-4.075138	-0.043843	-0.794417
C26	C	-4.027104	-0.042946	-0.696574
C27	C	-3.915625	-0.150975	-0.575733
C28	C	-4.074994	-0.148442	-0.935856
C29	C	-4.147277	0.054256	-0.254316
C30	C	-4.069987	0.181774	-0.254959
C31	C	-4.170942	-0.147289	-0.105797
C32	C	-4.108701	-0.147902	-0.012014
H33	H	-3.616731	-0.061655	-0.666823
H34	H	-3.695304	-0.219614	-0.685639
H35	H	-3.680107	-0.060152	-0.811704
C36	C	-3.850326	0.070258	-0.650078
H37	H	-3.734821	0.052186	-0.615383
H38	H	-3.802181	0.115302	-0.690873
H39	H	-3.904912	0.113117	-0.615273
C40	C	-4.416394	-0.276387	-0.857335
H41	H	-4.486495	-0.282220	-0.813073
H42	H	-4.427057	-0.210687	-0.883584
H43	H	-4.481489	-0.344575	-0.898678
C44	C	-4.346578	-0.276244	-0.696414
H45	H	-4.325413	-0.212397	-0.654506
H46	H	-4.455751	-0.277687	-0.745230
H47	H	-4.387102	-0.346453	-0.673729
C48	C	-3.746876	-0.244162	-0.842002
H49	H	-3.870174	-0.291140	-0.884629
H50	H	-3.633785	-0.215043	-0.867447
H51	H	-3.706505	-0.289352	-0.800217
C52	C	-4.143758	-0.370596	-0.860612
H53	H	-4.103679	-0.414302	-0.817652
H54	H	-4.271491	-0.417238	-0.901126
H55	H	-4.033706	-0.346653	-0.888401
C56	C	-4.075933	-0.371276	-0.699313
H57	H	-3.940195	-0.347431	-0.659007
H58	H	-4.178894	-0.419007	-0.675504
H59	H	-4.070248	-0.413816	-0.749464
H60	H	-3.973682	0.041997	-0.807739
C61	C	-4.225829	-0.041024	-0.667723
H62	H	-4.269397	-0.105963	-0.639749
H63	H	-4.192971	0.028539	-0.629509
H64	H	-4.337748	-0.044488	-0.716118
H65	H	-4.247696	-0.048050	-0.821235
