data_functionalizedCrystal
_audit_creation_method	'MofGen! by Chris Wilmer'
_symmetry_space_group_name_H-M	'P1'
_symmetry_Int_Tables_number	1
_symmetry_cell_setting	triclinic
loop_
_symmetry_equiv_pos_as_xyz
  x,y,z
_cell_length_a	11.026607
_cell_length_b	15.995362
_cell_length_c	9.483334
_cell_angle_alpha	80.664213
_cell_angle_beta	78.643382
_cell_angle_gamma	83.958302
loop_
_atom_site_label
_atom_site_type_symbol
_atom_site_fract_x
_atom_site_fract_y
_atom_site_fract_z
O1	O	1.591280	-0.360873	0.120839
O2	O	1.237970	-0.320949	0.120847
O3	O	1.424273	-0.220480	0.120853
O4	O	1.404976	-0.461343	0.120833
O5	O	1.462085	-0.199963	-0.120921
O6	O	1.275781	-0.300432	-0.120928
O7	O	1.629091	-0.340357	-0.120935
Cu8	Cu	1.455888	-0.318521	-0.143007
Cu9	Cu	1.411172	-0.342784	0.142919
O10	O	1.442787	-0.440826	-0.120941
C11	C	1.211664	-0.303325	-0.000039
C12	C	1.076948	-0.281369	-0.000036
C13	C	1.003147	-0.341995	-0.000040
C14	C	0.863910	-0.319303	-0.000036
C15	C	1.442377	-0.178907	-0.000028
C16	C	1.439975	-0.085596	-0.000011
C17	C	1.431351	0.253446	0.000017
C18	C	1.298581	0.225965	0.000557
C19	C	1.301069	0.128961	0.000003
C20	C	1.435629	0.085243	0.000004
C21	C	1.522664	0.128172	-0.138056
C22	C	1.519341	0.225319	-0.138163
C23	C	1.479084	0.201933	0.136780
C24	C	1.478774	0.104838	0.138595
C25	C	1.438054	-0.009818	-0.000009
C26	C	1.428932	0.348508	0.000019
C27	C	1.655396	-0.357981	-0.000046
C28	C	1.790111	-0.379938	-0.000040
N29	N	1.487348	-0.301457	-0.344112
C30	C	1.424663	0.517600	-0.000033
C31	C	1.427005	0.424285	0.000031
C32	C	1.420437	-0.337749	-0.416344
C33	C	1.446643	-0.323546	-0.583748
N34	N	1.379722	-0.359844	0.344024
H35	H	1.037045	-0.212668	0.000007
F36	F	1.213598	0.090967	0.129360
F37	F	1.546891	-0.269193	-0.664897
F38	F	1.279486	-0.414207	-0.574828
F39	F	1.209016	0.249652	0.129972
F40	F	0.842246	-0.469744	-0.000065
H41	H	1.261178	0.261872	-0.097895
F42	F	1.395834	0.066858	0.272111
F43	F	1.055288	-0.431797	-0.000052
H44	H	1.264784	0.117315	-0.099135
F45	F	1.478053	0.270092	-0.273055
H46	H	1.622324	0.099581	-0.143190
F47	F	1.484257	0.111429	-0.272357
F48	F	1.647949	0.248976	-0.146359
H49	H	1.564039	-0.259875	-0.406205
H50	H	0.824013	-0.250598	0.000007
F51	F	1.400979	0.225712	0.273561
H52	H	1.576766	0.218869	0.137712
F53	F	1.605327	0.064498	0.149501
F54	F	1.320206	-0.392110	-0.335193
