data_functionalizedCrystal
_audit_creation_method	'MofGen! by Chris Wilmer'
_symmetry_space_group_name_H-M	'P1'
_symmetry_Int_Tables_number	1
_symmetry_cell_setting	triclinic
loop_
_symmetry_equiv_pos_as_xyz
  x,y,z
_cell_length_a	14.472310
_cell_length_b	14.519709
_cell_length_c	14.519709
_cell_angle_alpha	96.319855
_cell_angle_beta	90.002001
_cell_angle_gamma	89.992582
loop_
_atom_site_label
_atom_site_type_symbol
_atom_site_fract_x
_atom_site_fract_y
_atom_site_fract_z
O1	O	0.076723	-1.223880	0.120885
O2	O	0.076751	-0.955403	0.135121
O3	O	0.076728	-1.096759	-0.006235
O4	O	0.076746	-1.082523	0.262242
O5	O	-0.076954	-1.096723	-0.006227
O6	O	-0.076931	-0.955366	0.135130
O7	O	-0.076959	-1.223843	0.120893
Cu8	Cu	-0.090978	-1.089601	0.128012
Cu9	Cu	0.090769	-1.089644	0.128002
O10	O	-0.076936	-1.082486	0.262250
C11	C	-0.000086	-0.921025	0.134462
C12	C	-0.000076	-0.818643	0.132474
N13	N	-0.218808	-1.089578	0.128018
C14	C	-0.000113	-1.096078	-0.040591
C15	C	-0.000114	-1.094089	-0.142972
C16	C	-0.592900	-1.089643	0.127999
C17	C	-0.553721	-1.013752	0.203381
C18	C	-0.446633	-1.013927	0.203657
C19	C	-0.407309	-1.089610	0.128009
C20	C	-0.446154	-1.185870	0.149184
C21	C	-0.553276	-1.185444	0.149720
C22	C	-0.553433	-1.070132	0.031218
C23	C	-0.446305	-1.067927	0.031859
C24	C	-0.302420	-1.089597	0.128012
C25	C	-0.697788	-1.089662	0.127997
N26	N	0.218600	-1.089675	0.127989
C27	C	-0.000120	-1.258221	0.121553
C28	C	-0.000124	-1.360602	0.123541
C29	C	-0.000118	-0.443748	0.125154
C30	C	-0.000106	-0.548056	0.127187
C31	C	-0.000096	-0.631192	0.128814
C32	C	-0.000086	-0.735507	0.130847
C33	C	-0.000089	-1.086770	-0.517868
C34	C	-0.000096	-1.088803	-0.413560
C35	C	-0.000102	-1.090430	-0.330423
C36	C	-0.000108	-1.092463	-0.226109
C37	C	-0.000093	-1.083168	0.296606
C38	C	-0.000087	-1.085156	0.398987
H39	H	-0.420371	-0.942380	0.191017
N40	N	-0.412666	-1.030464	0.298780
H41	H	-0.342881	-1.030647	0.299356
H42	H	-0.436185	-0.979570	0.345978
H43	H	-0.578249	-1.202613	0.220307
H44	H	-0.579502	-0.941973	0.190947
N45	N	-0.587636	-1.262499	0.079782
H46	H	-0.626434	-1.235483	0.031545
H47	H	-0.533150	-1.296582	0.048795
H48	H	-0.419540	-1.119600	-0.026878
N49	N	-0.412423	-1.262479	0.078402
H50	H	-0.371536	-1.235457	0.031818
H51	H	-0.376089	-1.308959	0.110608
N52	N	-0.589313	-1.030072	0.297985
H53	H	-0.630710	-1.086408	0.292224
H54	H	-0.535436	-1.040539	0.339804
H55	H	-0.578768	-1.125475	-0.024881
H56	H	-0.419314	-1.203446	0.218967
N57	N	-0.589250	-0.979146	0.004312
H58	H	-0.569763	-0.927176	0.052377
H59	H	-0.563059	-0.968081	-0.057997
N60	N	-0.412742	-0.974098	0.010603
H61	H	-0.372435	-0.945752	0.063025
H62	H	-0.375848	-0.981351	-0.048795
