data_functionalizedCrystal
_audit_creation_method	'MofGen! by Chris Wilmer'
_symmetry_space_group_name_H-M	'P1'
_symmetry_Int_Tables_number	1
_symmetry_cell_setting	triclinic
loop_
_symmetry_equiv_pos_as_xyz
  x,y,z
_cell_length_a	12.759401
_cell_length_b	17.640280
_cell_length_c	12.759393
_cell_angle_alpha	78.768122
_cell_angle_beta	89.981504
_cell_angle_gamma	78.801088
loop_
_atom_site_label
_atom_site_type_symbol
_atom_site_fract_x
_atom_site_fract_y
_atom_site_fract_z
Zn1	Zn	1.690815	-0.314620	-0.509515
Zn2	Zn	1.726240	-0.446817	-0.298344
Zn3	Zn	1.515128	-0.314662	-0.333843
Zn4	Zn	1.550620	-0.446756	-0.474002
O5	O	1.620701	-0.380714	-0.403926
O6	O	1.842537	-0.332165	-0.481509
O7	O	1.698207	-0.429329	-0.156021
O8	O	1.508755	-0.204049	-0.386865
O9	O	1.868564	-0.429289	-0.326362
O10	O	1.637831	-0.204019	-0.515931
O11	O	1.543105	-0.332235	-0.182102
O12	O	1.372813	-0.332176	-0.352430
O13	O	1.569245	-0.429185	-0.625745
O14	O	1.398888	-0.429226	-0.455404
O15	O	1.672246	-0.332106	-0.651837
O16	O	1.732622	-0.557416	-0.291927
O17	O	1.603595	-0.557371	-0.420982
C18	C	1.347729	-0.380699	-0.403916
C19	C	1.230956	-0.380712	-0.403931
C20	C	1.675832	-0.586073	-0.348771
C21	C	1.699514	-0.673926	-0.325211
C22	C	1.189721	-0.431327	-0.457417
C23	C	1.079999	-0.431337	-0.457425
C24	C	1.052758	-0.330115	-0.350454
C25	C	1.162476	-0.330102	-0.350453
C26	C	1.205448	-0.489768	-0.519172
C27	C	1.095727	-0.489778	-0.519181
C28	C	1.441225	-0.962886	-0.583293
C29	C	1.463480	-1.045438	-0.561121
C30	C	1.597919	-1.045419	-0.426872
C31	C	1.575680	-0.962866	-0.449037
C32	C	1.497331	-0.921606	-0.527247
C33	C	1.631785	-0.921585	-0.392991
C34	C	1.609543	-0.839039	-0.415150
C35	C	1.531196	-0.797773	-0.493355
C36	C	1.475089	-0.839060	-0.549406
C37	C	1.710129	-0.962847	-0.314775
C38	C	1.766234	-0.921566	-0.258729
C39	C	1.743998	-0.839018	-0.280893
C40	C	1.665650	-0.797753	-0.359098
C41	C	1.800105	-0.797732	-0.224841
C42	C	1.777863	-0.715186	-0.247000
C43	C	1.643408	-0.715207	-0.381257
C44	C	1.894738	-0.380729	-0.403937
C45	C	2.011516	-0.380736	-0.403942
C46	C	1.620753	-0.380634	-0.677981
C47	C	1.620775	-0.380600	-0.794767
C48	C	1.565383	-0.174553	-0.459319
C49	C	1.541809	-0.086700	-0.482925
C50	C	1.674416	-0.330046	-0.863218
C51	C	1.674433	-0.330017	-0.972949
C52	C	1.567168	-0.431104	-0.945768
C53	C	1.567145	-0.431128	-0.836040
C54	C	1.736348	-0.271687	-0.878911
C55	C	1.736365	-0.271658	-0.988643
C56	C	1.620694	-0.380736	-0.130953
C57	C	1.620815	-0.380548	-0.014227
H58	H	1.196043	-0.288882	-0.306908
C59	C	1.842942	-0.299842	-0.715794
C60	C	1.848620	-0.301306	-0.824999
H61	H	1.912253	-0.318135	-0.682511
H62	H	1.816343	-0.247419	-0.706904
H63	H	1.796390	-0.332992	-0.683903
H64	H	1.895165	-0.268151	-0.856892
H65	H	1.875233	-0.353737	-0.833896
H66	H	1.417799	-1.079045	-0.606779
H67	H	1.082380	-0.550979	-0.480818
C68	C	1.461095	-0.531027	-0.820204
C69	C	1.508161	-0.486686	-0.760800
H70	H	1.424681	-0.565328	-0.773751
H71	H	1.411692	-0.496572	-0.872262
H72	H	1.514998	-0.561265	-0.854870
H73	H	1.454257	-0.456444	-0.726140
H74	H	1.557569	-0.521146	-0.708723
H75	H	1.579616	-0.681611	-0.444952
C76	C	1.008531	-0.291454	-0.183023
C77	C	0.977488	-0.274489	-0.291664
H78	H	0.962068	-0.257108	-0.146729
H79	H	1.004794	-0.344542	-0.153281
H80	H	1.079780	-0.284205	-0.175382
H81	H	0.906241	-0.281744	-0.299305
H82	H	0.981215	-0.221389	-0.321414
H83	H	1.822142	-0.288053	-1.014019
C84	C	0.962168	-0.393452	-0.631196
C85	C	1.041890	-0.460284	-0.631515
H86	H	0.928935	-0.375241	-0.700546
H87	H	0.910255	-0.406609	-0.581144
H88	H	0.993255	-0.353176	-0.611696
H89	H	1.010801	-0.500562	-0.651007
H90	H	1.093811	-0.447130	-0.681583
H91	H	1.513080	-0.730559	-0.511388
C92	C	1.218009	-0.522845	-0.693204
C93	C	1.239769	-0.467728	-0.634981
H94	H	1.239191	-0.509234	-0.764699
H95	H	1.256514	-0.573824	-0.661222
H96	H	1.143559	-0.522846	-0.693190
H97	H	1.314221	-0.467730	-0.634988
H98	H	1.201267	-0.416736	-0.666972
C99	C	1.204569	-0.619765	-0.418795
C100	C	1.272464	-0.568225	-0.458585
H101	H	1.245945	-0.668201	-0.381395
H102	H	1.156499	-0.596845	-0.371508
H103	H	1.165231	-0.629212	-0.476502
H104	H	1.311797	-0.558773	-0.400876
H105	H	1.320553	-0.591150	-0.505874
H106	H	1.691620	-0.213497	-1.038305
H107	H	1.411297	-0.805464	-0.613101
C108	C	1.691695	-1.171948	-0.333269
C109	C	1.684025	-1.090777	-0.340892
H110	H	1.744856	-1.199947	-0.280188
H111	H	1.624772	-1.185512	-0.314197
H112	H	1.710677	-1.185436	-0.400251
H113	H	1.665035	-1.077288	-0.273912
H114	H	1.750963	-1.077207	-0.359958
H115	H	1.377433	-0.929291	-0.646988
H116	H	1.728238	-1.030061	-0.296739
C117	C	1.860010	-1.048095	-0.165125
C118	C	1.852340	-0.966924	-0.172749
H119	H	1.913170	-1.076094	-0.112045
H120	H	1.793086	-1.061659	-0.146053
H121	H	1.878992	-1.061583	-0.232107
H122	H	1.833350	-0.953435	-0.105769
H123	H	1.919278	-0.953355	-0.191815
C124	C	1.984861	-0.823082	-0.167000
C125	C	1.886215	-0.843093	-0.138867
H126	H	2.038018	-0.851083	-0.113917
H127	H	2.003828	-0.836577	-0.233971
H128	H	1.979641	-0.768011	-0.172174
H129	H	1.891433	-0.898163	-0.133701
H130	H	1.867244	-0.829603	-0.071878
H131	H	1.523501	-0.472240	-0.979387
H132	H	1.823549	-0.681575	-0.201360
C133	C	1.653459	-0.138919	-0.959751
C134	C	1.684742	-0.189059	-0.860914
H135	H	1.621594	-0.087912	-0.948636
H136	H	1.714316	-0.135584	-1.002002
H137	H	1.603236	-0.159253	-0.995635
H138	H	1.734972	-0.168728	-0.825032
H139	H	1.623878	-0.192391	-0.818645
