data_functionalizedCrystal
_audit_creation_method	'MofGen! by Chris Wilmer'
_symmetry_space_group_name_H-M	'P1'
_symmetry_Int_Tables_number	1
_symmetry_cell_setting	triclinic
loop_
_symmetry_equiv_pos_as_xyz
  x,y,z
_cell_length_a	29.839133
_cell_length_b	18.050591
_cell_length_c	18.050582
_cell_angle_alpha	89.979078
_cell_angle_beta	90.015179
_cell_angle_gamma	89.974391
loop_
_atom_site_label
_atom_site_type_symbol
_atom_site_fract_x
_atom_site_fract_y
_atom_site_fract_z
Zn1	Zn	-0.178930	-1.135285	0.420070
Zn2	Zn	-0.254052	-1.135193	0.295896
Zn3	Zn	-0.178931	-1.011105	0.295881
Zn4	Zn	-0.254028	-1.011050	0.420031
O5	O	-0.216485	-1.073158	0.357969
O6	O	-0.188904	-1.239198	0.403620
O7	O	-0.244098	-1.118717	0.191969
O8	O	-0.116064	-1.027639	0.312364
O9	O	-0.244096	-1.239130	0.312390
O10	O	-0.116063	-1.118874	0.403606
O11	O	-0.188907	-1.027550	0.191958
O12	O	-0.188884	-0.907173	0.312327
O13	O	-0.244055	-1.027545	0.523961
O14	O	-0.244057	-0.907132	0.403540
O15	O	-0.188881	-1.118821	0.523989
O16	O	-0.316916	-1.118664	0.312353
O17	O	-0.316898	-1.027456	0.403554
C18	C	-0.216469	-0.880206	0.357928
C19	C	-0.216472	-0.797660	0.357928
C20	C	-0.216465	-1.073187	0.551675
C21	C	-0.216457	-1.073200	0.634221
C22	C	-0.333208	-1.073064	0.357967
C23	C	-0.383142	-1.073091	0.357991
C24	C	-0.739694	-1.120692	0.405533
C25	C	-0.552021	-1.120621	0.405532
O26	O	-0.527726	-1.160996	0.445943
N27	N	-0.528587	-1.073150	0.357989
C28	C	-0.552075	-1.025697	0.310440
O29	O	-0.527838	-0.985323	0.269996
C30	C	-0.739747	-1.025771	0.310438
C31	C	-0.763178	-1.073240	0.357989
C32	C	-0.763125	-1.168157	0.453080
C33	C	-0.810040	-1.168171	0.453082
C34	C	-0.833525	-1.120720	0.405538
C35	C	-0.810094	-1.073254	0.357991
C36	C	-0.763234	-0.978322	0.262885
C37	C	-0.810155	-0.978346	0.262887
C38	C	-0.833586	-1.025815	0.310439
C39	C	-0.880494	-1.025817	0.310450
N40	N	-0.903927	-1.073288	0.357993
C41	C	-0.880443	-1.120740	0.405537
C42	C	-0.453545	-1.025660	0.310445
C43	C	-0.406627	-1.025640	0.310447
C44	C	-0.406576	-1.120566	0.405538
C45	C	-0.453494	-1.120581	0.405540
C46	C	-0.476978	-1.073131	0.357988
C47	C	-0.978968	-1.120766	0.405539
C48	C	-1.025888	-1.120773	0.405540
C49	C	-1.025935	-1.025851	0.310446
C50	C	-0.979020	-1.025840	0.310448
C51	C	-0.955537	-1.073303	0.357997
O52	O	-0.904818	-0.985469	0.270054
O53	O	-0.904688	-1.161119	0.445963
C54	C	-0.692778	-1.120677	0.405530
C55	C	-0.669347	-1.073212	0.357984
C56	C	-0.692832	-1.025760	0.310439
C57	C	-0.622430	-1.073192	0.357985
C58	C	-0.598945	-1.120643	0.405529
C59	C	-0.622378	-1.168114	0.453072
C60	C	-0.669294	-1.168129	0.453074
C61	C	-0.669399	-0.978289	0.262897
C62	C	-0.622483	-0.978278	0.262899
C63	C	-0.598999	-1.025730	0.310443
C64	C	-0.099307	-1.073273	0.357988
C65	C	-0.049373	-1.073322	0.357995
C66	C	-0.216502	-1.266864	0.358011
C67	C	-0.216510	-1.349410	0.358029
C68	C	-0.186434	-0.598210	0.308441
C69	C	-0.227410	-0.548789	0.290174
C70	C	-0.216486	-0.646530	0.357962
C71	C	-0.175525	-0.548870	0.376227
C72	C	-0.216495	-0.500545	0.357993
C73	C	-0.257483	-0.598196	0.339659
C74	C	-0.205570	-0.598281	0.425744
C75	C	-0.246574	-0.548882	0.407503
C76	C	-0.216480	-0.730628	0.357942
C77	C	-0.216506	-0.416448	0.358013
C78	C	-0.216473	-1.073172	0.165017
C79	C	-0.216355	-1.073303	0.082472
C80	C	-0.246420	-1.023602	0.833656
C81	C	-0.257404	-1.091357	0.883057
C82	C	-0.216423	-1.073236	0.785351
C83	C	-0.205426	-1.005519	0.883032
C84	C	-0.216390	-1.073266	0.931336
C85	C	-0.227429	-1.141027	0.833665
C86	C	-0.175431	-1.055143	0.833636
C87	C	-0.186400	-1.122944	0.883014
C88	C	-0.216442	-1.073218	0.701253
C89	C	-0.216371	-1.073291	1.015433
H90	H	-1.044963	-1.159427	0.444266
H91	H	-0.603409	-0.939617	0.224178
F92	F	-0.302779	-0.626396	0.319396
H93	H	-0.161018	-1.164980	0.904549
H94	H	-0.236756	-1.198324	0.812070
F95	F	-0.279834	-0.520748	0.462259
H96	H	-0.472661	-0.987018	0.271721
F97	F	-0.193478	-0.626716	0.500631
F98	F	-0.130151	-1.035091	0.805238
F99	F	-0.381695	-0.975106	0.259847
H100	H	-0.959942	-0.987179	0.271735
H101	H	-0.292056	-1.106678	0.904765
H102	H	-0.744164	-0.939669	0.224164
F103	F	-0.153252	-0.626522	0.253646
F104	F	-0.193285	-0.930650	0.911378
H105	H	-0.271821	-0.981667	0.811985
F106	F	-0.953983	-1.171282	0.456146
H107	H	-0.829273	-0.939706	0.224163
F108	F	-0.130243	-0.520543	0.396402
F109	F	-1.050937	-0.975347	0.259854
F110	F	-0.694225	-1.218651	0.503687
H111	H	-0.829113	-1.206831	0.491798
F112	F	-0.478427	-1.171105	0.456148
F113	F	-0.738138	-1.218667	0.503687
F114	F	-0.239487	-0.520374	0.215268
F115	F	-0.381574	-1.171069	0.456137
H116	H	-0.603250	-1.206749	0.491787
F117	F	-0.694386	-0.927782	0.212291
