data_functionalizedCrystal
_audit_creation_method	'MofGen! by Chris Wilmer'
_symmetry_space_group_name_H-M	'P1'
_symmetry_Int_Tables_number	1
_symmetry_cell_setting	triclinic
loop_
_symmetry_equiv_pos_as_xyz
  x,y,z
_cell_length_a	19.288864
_cell_length_b	17.699083
_cell_length_c	17.766277
_cell_angle_alpha	89.992740
_cell_angle_beta	89.976791
_cell_angle_gamma	83.209630
loop_
_atom_site_label
_atom_site_type_symbol
_atom_site_fract_x
_atom_site_fract_y
_atom_site_fract_z
O1	O	0.921465	0.094417	-0.062837
O2	O	0.719219	0.107154	-0.062786
O3	O	0.826056	-0.009412	-0.062806
O4	O	0.814628	0.210983	-0.062817
O5	O	0.826037	-0.009417	0.062382
O6	O	0.719201	0.107148	0.062403
O7	O	0.921446	0.094411	0.062351
Cu8	Cu	0.820322	0.100779	0.073808
Cu9	Cu	0.820344	0.100786	-0.074242
O10	O	0.814609	0.210977	0.062372
C11	C	0.693333	0.106741	-0.000185
C12	C	0.616228	0.105511	-0.000165
C13	C	0.571613	0.173906	-0.000180
C14	C	0.499164	0.172751	-0.000188
C15	C	0.471334	0.103196	-0.000197
C16	C	0.515959	0.034791	-0.000177
C17	C	0.588406	0.035949	-0.000162
C18	C	0.363014	0.048520	-0.044079
C19	C	0.290568	0.047365	-0.044099
C20	C	0.247884	0.099622	-0.000242
C21	C	0.277654	0.153047	0.043625
C22	C	0.350101	0.154204	0.043641
C23	C	0.392779	0.101932	-0.000213
C24	C	0.124712	0.166769	-0.000265
C25	C	0.052262	0.165610	-0.000269
C26	C	0.069059	0.027649	-0.000265
C27	C	0.141507	0.028809	-0.000254
C28	C	0.169329	0.098371	-0.000258
C29	C	0.825637	-0.037611	-0.000212
C30	C	0.824409	-0.121627	-0.000211
C31	C	0.887120	-0.170336	-0.000226
C32	C	0.885961	-0.249278	-0.000232
C33	C	0.822091	-0.279509	-0.000219
C34	C	0.759375	-0.230794	-0.000206
C35	C	0.760535	-0.151854	-0.000205
C36	C	0.754699	-0.549150	-0.000211
C37	C	0.753545	-0.628097	-0.000210
C38	C	0.880126	-0.646575	-0.000238
C39	C	0.881285	-0.567635	-0.000237
C40	C	0.818570	-0.518926	-0.000229
C41	C	0.819827	-0.433329	-0.000223
C42	C	0.820834	-0.365105	-0.000219
C43	C	0.947332	0.094824	-0.000251
C44	C	1.024437	0.096054	-0.000276
C45	C	0.815028	0.239176	-0.000224
C46	C	0.816257	0.323193	-0.000230
N47	N	0.820311	0.100774	0.177938
N48	N	0.820360	0.100786	-0.178372
C49	C	0.867634	0.049184	0.217316
C50	C	0.867638	0.049180	0.296118
C51	C	0.820326	0.100780	0.335539
C52	C	0.772994	0.152374	0.296151
C53	C	0.772987	0.152371	0.217351
C54	C	0.811109	0.169742	0.460375
C55	C	0.811121	0.169746	0.539174
C56	C	0.820344	0.100789	0.578585
C57	C	0.829570	0.031825	0.539188
C58	C	0.829563	0.031822	0.460388
C59	C	0.820328	0.100789	0.420984
C60	C	0.867674	0.049191	0.703409
C61	C	0.867673	0.049186	0.782212
C62	C	0.773033	0.152386	0.782244
C63	C	0.773030	0.152384	0.703442
C64	C	0.820355	0.100787	0.664029
H65	H	0.177834	-0.026886	-0.000246
H66	H	0.242902	0.195599	0.079339
O67	O	0.913672	-0.000828	0.820550
C68	C	0.956460	0.039594	0.866091
H69	H	0.928689	0.098895	0.877900
H70	H	0.967507	0.007974	0.921503
H71	H	1.007781	0.044599	0.835696
O72	O	0.631778	-0.030473	-0.000020
C73	C	0.674168	-0.033926	0.064812
H74	H	0.647548	0.004864	0.110126
H75	H	0.682408	-0.094922	0.086576
H76	H	0.726824	-0.014514	0.050160
H77	H	0.046401	-0.028984	-0.000319
O78	O	0.009019	0.232123	-0.000315
C79	C	0.049115	0.293764	-0.000296
H80	H	0.103231	0.274367	-0.023987
H81	H	0.022328	0.341671	-0.036650
H82	H	0.054208	0.315098	0.059762
O83	O	0.913641	-0.000833	0.334460
C84	C	0.956432	0.039590	0.379994
H85	H	0.928662	0.098891	0.391805
H86	H	0.967484	0.007971	0.435406
H87	H	1.007750	0.044594	0.349594
H88	H	0.709469	-0.112195	-0.000193
O89	O	0.838496	-0.035232	0.422234
C90	C	0.846658	-0.096099	0.473908
H91	H	0.822213	-0.076548	0.530093
H92	H	0.819750	-0.145343	0.451161
H93	H	0.904609	-0.115623	0.482256
H94	H	0.734508	0.194397	0.814340
H95	H	0.493296	-0.021841	-0.000195
H96	H	0.703632	-0.509501	-0.000204
O97	O	0.691437	-0.657338	-0.000236
C98	C	0.636331	-0.597420	-0.000212
H99	H	0.655713	-0.543854	-0.023915
H100	H	0.591741	-0.613766	-0.036552
H101	H	0.616976	-0.586190	0.059850
O102	O	0.727040	0.202579	0.665303
C103	C	0.685269	0.248110	0.716991
H104	H	0.713748	0.248888	0.773148
H105	H	0.674566	0.308583	0.694219
H106	H	0.633716	0.223677	0.725404
H107	H	0.837081	-0.024326	0.571275
H108	H	0.931192	-0.686243	-0.000249
O109	O	0.261770	-0.004602	-0.086726
C110	C	0.314975	-0.050473	-0.125437
H111	H	0.366589	-0.049553	-0.094409
H112	H	0.301418	-0.111379	-0.128267
H113	H	0.319943	-0.027583	-0.184935
H114	H	0.937027	-0.288934	-0.000243
O115	O	0.913568	-0.001015	0.665126
C116	C	0.902445	-0.075925	0.684376
H117	H	0.846848	-0.076170	0.706082
H118	H	0.910490	-0.113902	0.632532
H119	H	0.941002	-0.098278	0.730076
H120	H	0.594260	0.230549	-0.000184
H121	H	0.734450	0.194382	0.185289
O122	O	0.697287	-0.260067	-0.000094
C123	C	0.659062	-0.235176	0.064759
H124	H	0.677898	-0.180491	0.086371
H125	H	0.601204	-0.224017	0.050189
H126	H	0.667174	-0.280890	0.110158
H127	H	0.397762	0.005964	-0.079797
O128	O	0.913624	-0.001014	0.179148
C129	C	0.955405	-0.046538	0.230809
H130	H	0.926936	-0.047309	0.286997
H131	H	0.966104	-0.107014	0.208049
H132	H	1.006958	-0.022104	0.239155
H133	H	0.939130	-0.145729	-0.000233
O134	O	0.802121	0.236800	0.577324
C135	C	0.793986	0.297663	0.525644
H136	H	0.774934	0.276778	0.469487
H137	H	0.754181	0.344872	0.548427
H138	H	0.846261	0.320553	0.517227
O139	O	0.151778	0.234317	-0.000389
C140	C	0.193230	0.239115	-0.065208
H141	H	0.176185	0.199631	-0.110532
H142	H	0.186640	0.300139	-0.086966
H143	H	0.250384	0.221456	-0.050539
O144	O	0.943286	-0.538180	-0.000353
C145	C	0.947757	-0.493079	-0.065200
H146	H	0.892981	-0.473228	-0.086800
H147	H	0.975357	-0.441481	-0.050627
H148	H	0.978549	-0.528058	-0.110610
O149	O	0.802250	0.236684	0.422008
C150	C	0.861202	0.242625	0.376409
H151	H	0.889042	0.183355	0.364604
H152	H	0.843915	0.271396	0.320998
H153	H	0.898318	0.277928	0.406749
H154	H	0.734471	0.194386	0.328252
H155	H	0.374336	0.197702	0.079362
O156	O	0.455913	0.239263	-0.000243
C157	C	0.496005	0.300907	-0.000223
H158	H	0.550126	0.281511	-0.023904
H159	H	0.469220	0.348809	-0.036584
H160	H	0.501088	0.322247	0.059834
