data_functionalizedCrystal
_audit_creation_method	'MofGen! by Chris Wilmer'
_symmetry_space_group_name_H-M	'P1'
_symmetry_Int_Tables_number	1
_symmetry_cell_setting	triclinic
loop_
_symmetry_equiv_pos_as_xyz
  x,y,z
_cell_length_a	17.038272
_cell_length_b	15.500215
_cell_length_c	15.538191
_cell_angle_alpha	93.905179
_cell_angle_beta	69.191825
_cell_angle_gamma	92.981713
loop_
_atom_site_label
_atom_site_type_symbol
_atom_site_fract_x
_atom_site_fract_y
_atom_site_fract_z
O1	O	0.982733	0.071828	0.204078
O2	O	0.756003	0.071854	0.200903
O3	O	0.913503	0.071840	0.068898
O4	O	0.825233	0.071842	0.336083
O5	O	0.909321	-0.072049	0.060747
O6	O	0.751822	-0.072035	0.192752
O7	O	0.978551	-0.072060	0.195926
Cu8	Cu	0.864805	-0.085186	0.193595
Cu9	Cu	0.869750	0.084979	0.203235
O10	O	0.821052	-0.072047	0.327932
C11	C	0.725604	-0.000087	0.193939
C12	C	0.641255	-0.000077	0.185322
C13	C	0.568704	-0.000078	0.264445
C14	C	0.489450	-0.000090	0.256342
C15	C	0.482751	-0.000095	0.169114
C16	C	0.555310	-0.000098	0.089984
C17	C	0.634561	-0.000092	0.098088
C18	C	0.245110	-0.000119	0.140483
C19	C	0.165851	-0.000122	0.132385
C20	C	0.099997	-0.000115	0.298743
C21	C	0.179253	-0.000104	0.306840
C22	C	0.251805	-0.000111	0.227710
C23	C	0.401742	-0.000105	0.160829
C24	C	0.332812	-0.000108	0.235996
N25	N	0.861332	-0.204871	0.186815
C26	C	0.890518	-0.250149	0.243864
C27	C	0.887903	-0.340721	0.238731
C28	C	0.856097	-0.386014	0.176554
C29	C	0.826912	-0.340730	0.119499
C30	C	0.829532	-0.250159	0.124627
C31	C	0.846666	-0.659481	0.158082
C32	C	0.844045	-0.750058	0.152959
C33	C	0.905038	-0.750043	0.272191
C34	C	0.907651	-0.659471	0.277318
C35	C	0.878469	-0.614194	0.220260
C36	C	0.853422	-0.478594	0.171308
C37	C	0.881151	-0.521616	0.225501
C38	C	1.008951	-0.000118	0.202890
C39	C	1.093300	-0.000122	0.211508
C40	C	0.920648	-0.000102	0.030467
C41	C	0.948157	-0.000097	-0.071902
N42	N	0.873231	0.204664	0.210008
C43	C	0.674862	-0.000085	-0.381593
C44	C	0.700730	-0.000090	-0.477787
C45	C	0.846232	-0.000106	-0.488570
C46	C	0.820376	-0.000096	-0.392376
C47	C	0.734690	-0.000087	-0.338895
C48	C	0.880205	-0.000099	-0.349677
C49	C	0.854351	-0.000094	-0.253491
C50	C	0.768668	-0.000087	-0.200004
C51	C	0.708836	-0.000082	-0.242709
C52	C	0.965890	-0.000114	-0.403160
C53	C	1.025719	-0.000117	-0.360461
C54	C	0.999865	-0.000106	-0.264273
C55	C	0.914183	-0.000099	-0.210786
C56	C	1.059697	-0.000111	-0.221568
C57	C	1.033843	-0.000106	-0.125383
C58	C	0.888328	-0.000095	-0.114601
C59	C	0.813907	-0.000102	0.366363
C60	C	0.786398	-0.000102	0.468732
H61	H	0.430379	-0.000089	0.320773
H62	H	0.040918	-0.000111	0.363166
H63	H	0.911671	-0.377583	0.285184
H64	H	0.338270	-0.000108	0.307016
H65	H	1.129463	-0.000127	-0.265127
H66	H	0.304175	-0.000125	0.076049
H67	H	0.907050	-0.484734	0.276123
H68	H	0.574149	-0.000072	0.335475
H69	H	0.747619	-0.000089	-0.121684
H70	H	0.160404	-0.000125	0.061350
H71	H	0.693634	-0.000091	0.033657
H72	H	0.396277	-0.000134	0.089806
H73	H	0.827525	-0.515482	0.120683
H74	H	0.818554	-0.000081	-0.071053
H75	H	1.095485	-0.000128	-0.404018
H76	H	1.082561	-0.000109	-0.090617
H77	H	0.605088	-0.000071	-0.338046
H78	H	0.184699	-0.000090	0.377870
H79	H	0.639062	-0.000068	-0.199161
H80	H	0.916411	-0.213278	0.294500
H81	H	0.549849	-0.000115	0.018961
H82	H	0.652004	-0.000100	-0.512548
H83	H	0.801020	-0.377615	0.068868
H84	H	0.933553	-0.622599	0.327946
H85	H	0.928796	-0.786917	0.318643
H86	H	0.915998	-0.000117	-0.532127
H87	H	0.818141	-0.786933	0.102327
H88	H	0.822904	-0.622628	0.111620
H89	H	0.986938	-0.000110	-0.481479
H90	H	0.805766	-0.213295	0.078173
