data_functionalizedCrystal
_audit_creation_method	'MofGen! by Chris Wilmer'
_symmetry_space_group_name_H-M	'P1'
_symmetry_Int_Tables_number	1
_symmetry_cell_setting	triclinic
loop_
_symmetry_equiv_pos_as_xyz
  x,y,z
_cell_length_a	12.759401
_cell_length_b	13.897447
_cell_length_c	12.759393
_cell_angle_alpha	90.031000
_cell_angle_beta	90.020938
_cell_angle_gamma	90.021055
loop_
_atom_site_label
_atom_site_type_symbol
_atom_site_fract_x
_atom_site_fract_y
_atom_site_fract_z
Zn1	Zn	1.606231	-0.383929	0.594016
Zn2	Zn	2.106231	0.116071	1.094016
Zn3	Zn	1.606107	-0.545255	0.418335
Zn4	Zn	2.106107	-0.045255	0.918335
Zn5	Zn	1.430530	-0.383980	0.418352
Zn6	Zn	1.930530	0.116020	0.918352
Zn7	Zn	1.430507	-0.545188	0.593972
Zn8	Zn	1.930507	-0.045188	1.093972
O9	O	1.518344	-0.464588	0.506169
O10	O	2.018344	0.035412	1.006169
O11	O	1.753236	-0.405336	0.570723
O12	O	2.253236	0.094664	1.070723
O13	O	1.582774	-0.523912	0.271316
O14	O	2.082774	-0.023912	0.771316
O15	O	1.453898	-0.248992	0.441679
O16	O	1.953898	0.251008	0.941679
O17	O	1.753145	-0.523862	0.441651
O18	O	2.253145	-0.023862	0.941651
O19	O	1.582985	-0.248954	0.570740
O20	O	2.082985	0.251046	1.070740
O21	O	1.453778	-0.405423	0.271328
O22	O	1.953778	0.094577	0.771328
O23	O	1.283506	-0.405358	0.441636
O24	O	1.783506	0.094642	0.941636
O25	O	1.453859	-0.523747	0.740999
O26	O	1.953859	-0.023747	1.240999
O27	O	1.283489	-0.523797	0.570664
O28	O	1.783489	-0.023797	1.070664
O29	O	1.582963	-0.405271	0.741032
O30	O	2.082963	0.094729	1.241032
O31	O	1.582752	-0.680228	0.441608
O32	O	2.082752	-0.180228	0.941608
O33	O	1.453739	-0.680179	0.570648
O34	O	1.953739	-0.180179	1.070648
C35	C	1.245376	-0.464576	0.506148
C36	C	1.745376	0.035424	1.006148
C37	C	1.128600	-0.464595	0.506164
C38	C	1.628600	0.035405	1.006164
C39	C	1.073757	-0.526359	0.573243
C40	C	1.573757	-0.026359	1.073243
C41	C	0.964033	-0.526363	0.573264
C42	C	1.464033	-0.026363	1.073264
C43	C	0.964005	-0.402834	0.439118
C44	C	1.464005	0.097166	0.939118
C45	C	1.073727	-0.402827	0.439103
C46	C	1.573727	0.097173	0.939103
C47	C	1.518258	-0.715203	0.506144
C48	C	2.018258	-0.215203	1.006144
C49	C	1.518318	-0.822416	0.506169
C50	C	2.018318	-0.322416	1.006169
C51	C	1.518369	-0.909486	0.506193
C52	C	2.018369	-0.409486	1.006193
C53	C	1.518442	-1.018719	0.506220
C54	C	2.018442	-0.518719	1.006220
C55	C	1.792377	-0.464601	0.506190
C56	C	2.292377	0.035399	1.006190
C57	C	1.909154	-0.464606	0.506200
C58	C	2.409154	0.035394	1.006200
C59	C	1.518422	-0.464496	0.780202
C60	C	2.018422	0.035504	1.280202
C61	C	1.518456	-0.464456	0.896979
C62	C	2.018456	0.035544	1.396979
C63	C	1.518458	-0.212995	0.506216
C64	C	2.018458	0.287005	1.006216
C65	C	1.518507	-0.105781	0.506236
C66	C	2.018507	0.394219	1.006236
C67	C	1.518326	-0.464611	0.233201
C68	C	2.018326	0.035389	0.733201
C69	C	1.518496	-0.464379	0.116425
C70	C	2.018496	0.035621	0.616425
C71	C	1.585685	-0.402756	0.951860
C72	C	2.085685	0.097244	1.451860
C73	C	1.585703	-0.402714	1.061584
C74	C	2.085703	0.097286	1.561584
C75	C	1.451259	-0.526082	1.061537
C76	C	1.951259	-0.026082	1.561537
C77	C	1.451237	-0.526118	0.951815
C78	C	1.951237	-0.026118	1.451815
H79	H	1.118431	-0.576652	0.627851
H80	H	1.618431	-0.076652	1.127851
O81	O	1.651059	-0.342912	1.115013
O82	O	2.151059	0.157088	1.615013
C83	C	1.718917	-0.397809	1.178469
C84	C	2.218917	0.102191	1.678469
H85	H	1.681832	-0.470901	1.194886
H86	H	2.181832	0.029099	1.694886
H87	H	1.733024	-0.358491	1.255635
H88	H	2.233024	0.141509	1.755635
H89	H	1.796765	-0.408426	1.136200
H90	H	2.296765	0.091574	1.636200
O91	O	1.650860	-0.342714	0.898640
O92	O	2.150860	0.157286	1.398640
C93	C	1.627961	-0.246570	0.925491
C94	C	2.127961	0.253430	1.425491
H95	H	1.544036	-0.241690	0.955638
H96	H	2.044036	0.258310	1.455638
H97	H	1.637019	-0.198936	0.853347
H98	H	2.137019	0.301064	1.353347
H99	H	1.684309	-0.221339	0.989198
H100	H	2.184309	0.278661	1.489198
H101	H	1.396483	-0.576361	0.907130
H102	H	1.896483	-0.076361	1.407130
O103	O	0.910649	-0.342978	0.373864
O104	O	1.410649	0.157022	0.873864
C105	C	0.847109	-0.397822	0.305927
C106	C	1.347109	0.102178	0.805927
H107	H	0.880149	-0.473782	0.299283
H108	H	1.380149	0.026218	0.799283
H109	H	0.845831	-0.362842	0.225142
H110	H	1.345831	0.137158	0.725142
H111	H	0.763969	-0.401190	0.338419
H112	H	1.263969	0.098810	0.838419
H113	H	1.396534	-0.576287	1.106198
H114	H	1.896534	-0.076287	1.606198
O115	O	0.910921	-0.586454	0.638456
O116	O	1.410921	-0.086454	1.138456
C117	C	0.982886	-0.640948	0.697658
C118	C	1.482886	-0.140948	1.197658
H119	H	1.061075	-0.644234	0.654604
H120	H	1.561075	-0.144234	1.154604
H121	H	0.951165	-0.716961	0.708724
H122	H	1.451165	-0.216961	1.208724
H123	H	0.994611	-0.605715	0.777517
H124	H	1.494611	-0.105715	1.277517
H125	H	1.118381	-0.352524	0.384479
H126	H	1.618381	0.147476	0.884479
