data_functionalizedCrystal
_audit_creation_method	'MofGen! by Chris Wilmer'
_symmetry_space_group_name_H-M	'P1'
_symmetry_Int_Tables_number	1
_symmetry_cell_setting	triclinic
loop_
_symmetry_equiv_pos_as_xyz
  x,y,z
_cell_length_a	14.908571
_cell_length_b	16.625546
_cell_length_c	16.625539
_cell_angle_alpha	89.969603
_cell_angle_beta	86.686754
_cell_angle_gamma	86.718495
loop_
_atom_site_label
_atom_site_type_symbol
_atom_site_fract_x
_atom_site_fract_y
_atom_site_fract_z
Zn1	Zn	1.379213	-0.392241	-0.526897
Zn2	Zn	1.712546	-0.058908	-0.193563
Zn3	Zn	2.045879	0.274425	0.139770
Zn4	Zn	1.379104	-0.527079	-0.392053
Zn5	Zn	1.712438	-0.193745	-0.058720
Zn6	Zn	2.045771	0.139588	0.274613
Zn7	Zn	1.228346	-0.384477	-0.384311
Zn8	Zn	1.561679	-0.051143	-0.050978
Zn9	Zn	1.895012	0.282190	0.282356
Zn10	Zn	1.228313	-0.519241	-0.519081
Zn11	Zn	1.561646	-0.185908	-0.185747
Zn12	Zn	1.894979	0.147426	0.147586
O13	O	1.303744	-0.455759	-0.455585
O14	O	1.637077	-0.122426	-0.122252
O15	O	1.970411	0.210907	0.211081
O16	O	1.505443	-0.416657	-0.515521
O17	O	1.838777	-0.083324	-0.182187
O18	O	2.172110	0.250009	0.151146
O19	O	1.359074	-0.508193	-0.278192
O20	O	1.692408	-0.174860	0.055141
O21	O	2.025741	0.158474	0.388474
O22	O	1.248418	-0.272677	-0.403256
O23	O	1.581751	0.060656	-0.069923
O24	O	1.915084	0.393989	0.263411
O25	O	1.505364	-0.515722	-0.416452
O26	O	1.838697	-0.182389	-0.083119
O27	O	2.172030	0.150945	0.250215
O28	O	1.359259	-0.278382	-0.508013
O29	O	1.692592	0.054951	-0.174680
O30	O	2.025926	0.388285	0.158654
O31	O	1.248313	-0.403424	-0.272504
O32	O	1.581646	-0.070090	0.060829
O33	O	1.914979	0.263243	0.394163
O34	O	1.102096	-0.395824	-0.395677
O35	O	1.435430	-0.062490	-0.062344
O36	O	1.768763	0.270843	0.270990
O37	O	1.248361	-0.502364	-0.632952
O38	O	1.581695	-0.169030	-0.299618
O39	O	1.915028	0.164303	0.033715
O40	O	1.102072	-0.494835	-0.494692
O41	O	1.435405	-0.161501	-0.161359
O42	O	1.768739	0.171832	0.171975
O43	O	1.359227	-0.409057	-0.638694
O44	O	1.692560	-0.075724	-0.305361
O45	O	2.025894	0.257609	0.027973
O46	O	1.359042	-0.638868	-0.408873
O47	O	1.692376	-0.305535	-0.075540
O48	O	2.025709	0.027798	0.257794
O49	O	1.248256	-0.633110	-0.502200
O50	O	1.581590	-0.299777	-0.168866
O51	O	1.914923	0.033557	0.164467
C52	C	1.069350	-0.443637	-0.443497
C53	C	1.402684	-0.110303	-0.110163
C54	C	1.736017	0.223030	0.223170
C55	C	0.969076	-0.438470	-0.438344
C56	C	1.302409	-0.105137	-0.105011
C57	C	1.635742	0.228197	0.228322
C58	C	0.780672	-0.532021	-0.531628
C59	C	1.114005	-0.198688	-0.198295
C60	C	1.447339	0.134645	0.135039
C61	C	0.686455	-0.527169	-0.526790
C62	C	1.019788	-0.193836	-0.193456
C63	C	1.353122	0.139498	0.139877
C64	C	0.686423	-0.423910	-0.423834
C65	C	1.019756	-0.090577	-0.090501
C66	C	1.353090	0.242756	0.242833
C67	C	0.780640	-0.428762	-0.428672
C68	C	1.113973	-0.095429	-0.095339
C69	C	1.447307	0.237904	0.237994
C70	C	0.827761	-0.482820	-0.482570
C71	C	1.161095	-0.149487	-0.149237
C72	C	1.494428	0.183846	0.184096
C73	C	0.921980	-0.487676	-0.487404
C74	C	1.255313	-0.154343	-0.154071
C75	C	1.588647	0.178991	0.179263
C76	C	0.921946	-0.384414	-0.384453
C77	C	1.255279	-0.051080	-0.051120
C78	C	1.588613	0.282253	0.282214
C79	C	0.827729	-0.379562	-0.379614
C80	C	1.161063	-0.046228	-0.046281
C81	C	1.494396	0.287105	0.287052
C82	C	1.303658	-0.665246	-0.455547
C83	C	1.636992	-0.331913	-0.122214
C84	C	1.970325	0.001421	0.211119
C85	C	1.303704	-0.754869	-0.455562
C86	C	1.637038	-0.421536	-0.122229
C87	C	1.970371	-0.088203	0.211105
C88	C	1.303862	-1.083053	-0.455654
C89	C	1.637195	-0.749720	-0.122321
C90	C	1.970529	-0.416386	0.211012
C91	C	1.303815	-0.991742	-0.455631
C92	C	1.637149	-0.658409	-0.122297
C93	C	1.970482	-0.325075	0.211036
C94	C	1.303782	-0.918964	-0.455608
C95	C	1.637116	-0.585631	-0.122274
C96	C	1.970449	-0.252297	0.211059
C97	C	1.303737	-0.827647	-0.455585
C98	C	1.637071	-0.494314	-0.122252
C99	C	1.970404	-0.160981	0.211082
C100	C	1.539053	-0.467930	-0.467722
C101	C	1.872386	-0.134597	-0.134388
C102	C	2.205719	0.198737	0.198945
C103	C	1.639327	-0.473116	-0.472893
C104	C	1.972661	-0.139783	-0.139560
C105	C	2.305994	0.193550	0.193773
C106	C	1.303803	-0.455702	-0.665897
C107	C	1.637136	-0.122369	-0.332564
C108	C	1.970469	0.210964	0.000769
C109	C	1.303828	-0.455678	-0.755520
C110	C	1.637161	-0.122345	-0.422187
C111	C	1.970494	0.210989	-0.088853
C112	C	1.303854	-0.245456	-0.455643
C113	C	1.637187	0.087877	-0.122309
C114	C	1.970521	0.421211	0.211024
C115	C	1.303901	-0.155837	-0.455667
C116	C	1.637234	0.177496	-0.122334
C117	C	1.970568	0.510829	0.211000
C118	C	1.303869	-0.455590	-1.083698
C119	C	1.637202	-0.122257	-0.750365
C120	C	1.970536	0.211077	-0.417031
C121	C	1.303855	-0.455617	-0.992389
C122	C	1.637188	-0.122284	-0.659055
C123	C	1.970522	0.211050	-0.325722
C124	C	1.303849	-0.455635	-0.919612
C125	C	1.637182	-0.122301	-0.586278
C126	C	1.970515	0.211032	-0.252945
C127	C	1.303834	-0.455660	-0.828297
C128	C	1.637167	-0.122327	-0.494963
C129	C	1.970500	0.211006	-0.161630
C130	C	1.303737	-0.455761	-0.246094
C131	C	1.637071	-0.122427	0.087239
C132	C	1.970404	0.210906	0.420572
C133	C	1.303887	-0.455567	-0.156481
C134	C	1.637220	-0.122234	0.176852
C135	C	1.970554	0.211100	0.510185
H136	H	0.648119	-0.567232	-0.566739
H137	H	0.981452	-0.233899	-0.233406
H138	H	1.314785	0.099435	0.099928
H139	H	0.648041	-0.379894	-0.379958
H140	H	0.981374	-0.046560	-0.046625
H141	H	1.314707	0.286773	0.286709
N142	N	0.776904	-0.321276	-0.321468
N143	N	1.110237	0.012058	0.011866
N144	N	1.443570	0.345391	0.345199
H145	H	0.710072	-0.325672	-0.325840
H146	H	1.043405	0.007661	0.007494
H147	H	1.376739	0.340995	0.340827
H148	H	0.793349	-0.334626	-0.264712
H149	H	1.126682	-0.001293	0.068621
H150	H	1.460015	0.332040	0.401954
N151	N	0.972804	-0.545976	-0.545538
N152	N	1.306137	-0.212643	-0.212204
N153	N	1.639471	0.120691	0.121129
H154	H	1.039636	-0.541588	-0.541159
H155	H	1.372970	-0.208255	-0.207826
H156	H	1.706303	0.125079	0.125508
H157	H	0.956311	-0.602697	-0.532042
H158	H	1.289645	-0.269363	-0.198708
H159	H	1.622978	0.063970	0.134625
H160	H	0.819039	-0.576042	-0.575509
H161	H	1.152372	-0.242708	-0.242176
H162	H	1.485706	0.090625	0.091157
N163	N	0.972734	-0.331348	-0.331530
N164	N	1.306067	0.001985	0.001803
N165	N	1.639401	0.335319	0.335136
H166	H	1.039571	-0.342625	-0.342770
H167	H	1.372904	-0.009291	-0.009436
H168	H	1.706238	0.324042	0.323897
H169	H	0.956291	-0.272929	-0.343332
H170	H	1.289624	0.060404	-0.009999
H171	H	1.622957	0.393738	0.323334
