data_functionalizedCrystal
_audit_creation_method	'MofGen! by Chris Wilmer'
_symmetry_space_group_name_H-M	'P1'
_symmetry_Int_Tables_number	1
_symmetry_cell_setting	triclinic
loop_
_symmetry_equiv_pos_as_xyz
  x,y,z
_cell_length_a	15.944551
_cell_length_b	17.038272
_cell_length_c	14.421503
_cell_angle_alpha	90.004327
_cell_angle_beta	89.996859
_cell_angle_gamma	87.305147
loop_
_atom_site_label
_atom_site_type_symbol
_atom_site_fract_x
_atom_site_fract_y
_atom_site_fract_z
O1	O	1.121728	0.100827	-0.077015
O2	O	1.455061	0.434160	0.256318
O3	O	1.788395	0.767493	0.589651
O4	O	0.878066	0.113259	-0.077039
O5	O	1.211399	0.446592	0.256295
O6	O	1.544733	0.779926	0.589628
O7	O	0.998449	-0.006773	-0.077020
O8	O	1.331782	0.326560	0.256314
O9	O	1.665116	0.659894	0.589647
O10	O	1.001345	0.220859	-0.077034
O11	O	1.334679	0.554192	0.256299
O12	O	1.668012	0.887525	0.589633
O13	O	0.998429	-0.006755	0.077204
O14	O	1.331762	0.326578	0.410537
O15	O	1.665096	0.659912	0.743870
O16	O	0.878046	0.113277	0.077185
O17	O	1.211379	0.446610	0.410518
O18	O	1.544713	0.779944	0.743852
O19	O	1.121708	0.100845	0.077208
O20	O	1.455041	0.434178	0.410541
O21	O	1.788375	0.767511	0.743875
Cu22	Cu	0.999875	0.107062	0.091278
Cu23	Cu	1.333209	0.440396	0.424612
Cu24	Cu	1.666542	0.773729	0.757945
Cu25	Cu	0.999899	0.107041	-0.091109
Cu26	Cu	1.333232	0.440375	0.242225
Cu27	Cu	1.666566	0.773708	0.575558
O28	O	1.001325	0.220877	0.077189
O29	O	1.334659	0.554210	0.410523
O30	O	1.667992	0.887543	0.743856
C31	C	0.846725	0.112752	0.000070
C32	C	1.180059	0.446085	0.333404
C33	C	1.513392	0.779419	0.666737
C34	C	0.753369	0.111205	0.000062
C35	C	1.086702	0.444538	0.333395
C36	C	1.420035	0.777871	0.666728
C37	C	0.995805	-0.035893	0.000092
C38	C	1.329138	0.297440	0.333425
C39	C	1.662471	0.630774	0.666758
C40	C	0.987945	-0.122688	0.000091
C41	C	1.321279	0.210645	0.333424
C42	C	1.654612	0.543978	0.666757
C43	C	0.532936	0.033105	0.000085
C44	C	0.866269	0.366438	0.333418
C45	C	1.199602	0.699771	0.666751
C46	C	0.474515	0.069363	-0.075958
C47	C	0.807848	0.402696	0.257375
C48	C	1.141182	0.736030	0.590709
C49	C	0.582443	0.108405	0.000073
C50	C	0.915776	0.441739	0.333406
C51	C	1.249110	0.775072	0.666739
C52	C	0.474519	0.069398	0.076094
C53	C	0.807852	0.402732	0.409428
C54	C	1.141185	0.736065	0.742761
C55	C	0.417337	0.105696	0.000088
C56	C	0.750670	0.439029	0.333421
C57	C	1.084004	0.772363	0.666754
C58	C	0.525252	0.144684	-0.076033
C59	C	0.858585	0.478017	0.257301
C60	C	1.191919	0.811351	0.590634
C61	C	0.525261	0.144709	0.076088
C62	C	0.858595	0.478042	0.409421
C63	C	1.191928	0.811376	0.742755
C64	C	0.466862	0.181022	0.000027
C65	C	0.800195	0.514355	0.333360
C66	C	1.133529	0.847689	0.666693
C67	C	0.677557	0.109964	0.000063
C68	C	1.010890	0.443297	0.333397
C69	C	1.344223	0.776631	0.666730
C70	C	0.322225	0.104143	0.000090
C71	C	0.655558	0.437476	0.333424
C72	C	0.988892	0.770810	0.666757
C73	C	1.060103	-0.172781	0.000098
C74	C	1.393436	0.160552	0.333432
C75	C	1.726770	0.493886	0.666765
C76	C	1.052713	-0.254334	0.000089
C77	C	1.386047	0.079000	0.333422
C78	C	1.719380	0.412333	0.666756
C79	C	0.973165	-0.285792	0.000078
C80	C	1.306499	0.047541	0.333412
C81	C	1.639832	0.380875	0.666745
C82	C	0.901002	-0.235693	0.000068
C83	C	1.234336	0.097640	0.333401
C84	C	1.567669	0.430974	0.666734
C85	C	0.908393	-0.154142	0.000071
C86	C	1.241726	0.179192	0.333404
C87	C	1.575059	0.512525	0.666737
C88	C	0.947056	-0.531558	0.000063
C89	C	1.280390	-0.198224	0.333396
C90	C	1.613723	0.135109	0.666730
C91	C	0.939671	-0.613115	0.000063
C92	C	1.273005	-0.279782	0.333396
C93	C	1.606338	0.053551	0.666730
C94	C	1.091383	-0.631751	0.000083
C95	C	1.424716	-0.298417	0.333416
C96	C	1.758050	0.034916	0.666749
C97	C	1.098766	-0.550197	0.000091
C98	C	1.432100	-0.216864	0.333424
C99	C	1.765433	0.116470	0.666758
C100	C	1.026603	-0.500105	0.000075
C101	C	1.359937	-0.166772	0.333409
C102	C	1.693270	0.166562	0.666742
C103	C	0.965610	-0.369152	0.000071
C104	C	1.298943	-0.035819	0.333405
C105	C	1.632277	0.297515	0.666738
C106	C	1.034159	-0.416747	0.000076
C107	C	1.367493	-0.083413	0.333409
C108	C	1.700826	0.249920	0.666742
C109	C	1.153049	0.101352	0.000097
C110	C	1.486382	0.434685	0.333431
C111	C	1.819716	0.768019	0.666764
C112	C	1.246405	0.102899	0.000100
C113	C	1.579739	0.436232	0.333433
C114	C	1.913072	0.769566	0.666766
C115	C	1.003969	0.249997	0.000076
C116	C	1.337303	0.583330	0.333409
C117	C	1.670636	0.916663	0.666743
C118	C	1.011829	0.336792	0.000071
C119	C	1.345162	0.670125	0.333404
C120	C	1.678495	1.003459	0.666737
N121	N	0.999865	0.107077	0.219560
N122	N	1.333198	0.440410	0.552893
N123	N	1.666531	0.773743	0.886226
N124	N	0.999916	0.107021	-0.219390
N125	N	1.333249	0.440354	0.113943
N126	N	1.666582	0.773687	0.447277
C127	C	0.944187	0.162555	0.469205
C128	C	1.277521	0.495888	0.802538
C129	C	1.610854	0.829221	1.135871
C130	C	1.021171	0.177734	0.531013
C131	C	1.354504	0.511067	0.864347
C132	C	1.687838	0.844400	1.197680
C133	C	0.999884	0.107058	0.408721
C134	C	1.333217	0.440391	0.742054
C135	C	1.666550	0.773725	1.075388
C136	C	0.922921	0.091897	0.531006
C137	C	1.256254	0.425231	0.864339
C138	C	1.589587	0.758564	1.197673
C139	C	0.999895	0.107042	0.591442
C140	C	1.333229	0.440375	0.924776
C141	C	1.666562	0.773709	1.258109
C142	C	1.076908	0.122272	0.469169
C143	C	1.410242	0.455606	0.802502
C144	C	1.743575	0.788939	1.135836
C145	C	0.978606	0.036405	0.469156
C146	C	1.311939	0.369739	0.802490
C147	C	1.645273	0.703072	1.135823
C148	C	1.055642	0.051554	0.530937
C149	C	1.388976	0.384888	0.864271
C150	C	1.722309	0.718221	1.197604
C151	C	0.999876	0.107070	0.303460
C152	C	1.333209	0.440403	0.636793
C153	C	1.666543	0.773736	0.970127
C154	C	0.999912	0.107030	0.696701
C155	C	1.333245	0.440363	1.030035
C156	C	1.666579	0.773697	1.363368
H157	H	0.561807	-0.029389	-0.000006
H158	H	0.895140	0.303945	0.333328
H159	H	1.228473	0.637278	0.666661
H160	H	1.142019	0.135160	0.442121
H161	H	1.475352	0.468493	0.775454
H162	H	1.808685	0.801827	1.108787
O163	O	1.118111	-0.010620	0.566627
O164	O	1.451445	0.322714	0.899961
O165	O	1.784778	0.656047	1.233294
H166	H	1.100948	-0.069081	0.540746
H167	H	1.434282	0.264252	0.874080
H168	H	1.767615	0.597585	1.207413
H169	H	0.849634	-0.113356	0.000064
H170	H	1.182968	0.219977	0.333397
H171	H	1.516301	0.553310	0.666731
O172	O	0.428852	0.263885	-0.000032
O173	O	0.762185	0.597218	0.333302
O174	O	1.095519	0.930552	0.666635
H175	H	0.389886	0.273346	0.063121
H176	H	0.723220	0.606680	0.396455
H177	H	1.056553	0.940013	0.729788
O178	O	1.130544	-0.308359	0.000112
O179	O	1.463878	0.024974	0.333446
O180	O	1.797211	0.358308	0.666779
H181	H	1.168356	-0.297172	-0.062732
H182	H	1.501689	0.036161	0.270601
H183	H	1.835022	0.369495	0.603934
O184	O	0.853870	-0.647051	0.000058
O185	O	1.187203	-0.313718	0.333391
O186	O	1.520537	0.019616	0.666725
H187	H	0.846890	-0.683775	-0.062794
H188	H	1.180224	-0.350442	0.270540
H189	H	1.513557	-0.017109	0.603873
O190	O	0.815204	-0.269624	0.000054
O191	O	1.148538	0.063710	0.333387
O192	O	1.481871	0.397043	0.666721
H193	H	0.766270	-0.221087	0.000040
H194	H	1.099603	0.112246	0.333373
H195	H	1.432937	0.445579	0.666706
O196	O	1.119958	-0.382825	0.000083
O197	O	1.453291	-0.049491	0.333417
O198	O	1.786625	0.283842	0.666750
H199	H	1.126942	-0.346116	0.062947
H200	H	1.460276	-0.012782	0.396280
H201	H	1.793609	0.320551	0.729614
H202	H	0.547520	0.176502	-0.140391
H203	H	0.880854	0.509835	0.192943
H204	H	1.214187	0.843169	0.526276
H205	H	0.888296	-0.490782	0.000051
H206	H	1.221629	-0.157449	0.333384
H207	H	1.554962	0.175885	0.666717
O208	O	0.881868	0.224763	0.433285
O209	O	1.215202	0.558096	0.766619
O210	O	1.548535	0.891429	1.099952
H211	H	0.899741	0.283349	0.458060
H212	H	1.233074	0.616682	0.791393
H213	H	1.566408	0.950015	1.124727
H214	H	0.857830	0.079082	0.558171
H215	H	1.191163	0.412415	0.891504
H216	H	1.524496	0.745748	1.224838
O217	O	0.444859	0.027170	-0.161106
O218	O	0.778192	0.360504	0.172228
O219	O	1.111526	0.693837	0.505561
H220	H	0.471460	-0.034212	-0.160946
H221	H	0.804793	0.299122	0.172388
H222	H	1.138126	0.632455	0.505721
O223	O	1.145902	-0.138851	0.000101
O224	O	1.479235	0.194482	0.333435
O225	O	1.812568	0.527815	0.666768
H226	H	1.194835	-0.187389	0.000093
H227	H	1.528168	0.145945	0.333426
H228	H	1.861501	0.479278	0.666760
O229	O	0.879815	-0.403088	0.000080
O230	O	1.213148	-0.069754	0.333413
O231	O	1.546481	0.263579	0.666747
H232	H	0.872828	-0.439807	-0.062775
H233	H	1.206161	-0.106473	0.270558
H234	H	1.539495	0.226860	0.603892
H235	H	1.039179	0.237476	0.558183
H236	H	1.372512	0.570810	0.891517
H237	H	1.705846	0.904143	1.224850
H238	H	0.960576	-0.023318	0.441965
H239	H	1.293909	0.310015	0.775298
H240	H	1.627242	0.643349	1.108631
H241	H	0.547656	0.176539	0.140376
H242	H	0.880990	0.509873	0.473709
H243	H	1.214323	0.843206	0.807042
O244	O	1.184563	-0.516263	0.000102
O245	O	1.517896	-0.182930	0.333435
O246	O	1.851229	0.150404	0.666769
H247	H	1.191560	-0.479550	-0.062751
H248	H	1.524893	-0.146217	0.270582
H249	H	1.858226	0.187116	0.603916
H250	H	0.452149	0.037543	0.140380
H251	H	0.785483	0.370876	0.473713
H252	H	1.118816	0.704209	0.807047
O253	O	1.169214	-0.685776	0.000093
O254	O	1.502547	-0.352442	0.333427
O255	O	1.835881	-0.019109	0.666760
H256	H	1.150715	-0.747769	0.000083
H257	H	1.484048	-0.414436	0.333417
H258	H	1.817382	-0.081102	0.666750
