data_functionalizedCrystal
_audit_creation_method	'MofGen! by Chris Wilmer'
_symmetry_space_group_name_H-M	'P1'
_symmetry_Int_Tables_number	1
_symmetry_cell_setting	triclinic
loop_
_symmetry_equiv_pos_as_xyz
  x,y,z
_cell_length_a	18.215407
_cell_length_b	21.295417
_cell_length_c	18.215399
_cell_angle_alpha	89.967848
_cell_angle_beta	89.980167
_cell_angle_gamma	90.030955
loop_
_atom_site_label
_atom_site_type_symbol
_atom_site_fract_x
_atom_site_fract_y
_atom_site_fract_z
Zn1	Zn	1.125043	-0.250608	-0.416094
Zn2	Zn	1.458377	0.082725	-0.082761
Zn3	Zn	1.791710	0.416059	0.250572
Zn4	Zn	1.124940	-0.355879	-0.293019
Zn5	Zn	1.458273	-0.022546	0.040314
Zn6	Zn	1.791606	0.310787	0.373648
Zn7	Zn	1.001976	-0.250629	-0.293042
Zn8	Zn	1.335309	0.082705	0.040292
Zn9	Zn	1.668642	0.416038	0.373625
Zn10	Zn	1.001930	-0.355844	-0.416044
Zn11	Zn	1.335263	-0.022511	-0.082711
Zn12	Zn	1.668596	0.310822	0.250623
O13	O	1.063472	-0.303240	-0.354550
O14	O	1.396805	0.030093	-0.021216
O15	O	1.730139	0.363427	0.312117
O16	O	1.228014	-0.264579	-0.399780
O17	O	1.561347	0.068755	-0.066446
O18	O	1.894680	0.402088	0.266887
O19	O	1.108604	-0.341941	-0.190038
O20	O	1.441937	-0.008608	0.143296
O21	O	1.775271	0.324726	0.476629
O22	O	1.018364	-0.162537	-0.309396
O23	O	1.351697	0.170797	0.023938
O24	O	1.685030	0.504130	0.357271
O25	O	1.227938	-0.341921	-0.309357
O26	O	1.561271	-0.008588	0.023976
O27	O	1.894604	0.324746	0.357310
O28	O	1.108781	-0.162521	-0.399802
O29	O	1.442114	0.170812	-0.066468
O30	O	1.775447	0.504145	0.266865
O31	O	1.018263	-0.264614	-0.190054
O32	O	1.351596	0.068720	0.143279
O33	O	1.684930	0.402053	0.476612
O34	O	0.898985	-0.264580	-0.309347
O35	O	1.232319	0.068754	0.023987
O36	O	1.565652	0.402087	0.357320
O37	O	1.018285	-0.341861	-0.519035
O38	O	1.351618	-0.008528	-0.185702
O39	O	1.684952	0.324805	0.147632
O40	O	0.898951	-0.341881	-0.399716
O41	O	1.232285	-0.008548	-0.066383
O42	O	1.565618	0.324786	0.266951
O43	O	1.108736	-0.264545	-0.519072
O44	O	1.442069	0.068789	-0.185739
O45	O	1.775403	0.402122	0.147595
O46	O	1.108559	-0.443964	-0.309308
O47	O	1.441893	-0.110631	0.024025
O48	O	1.775226	0.222703	0.357359
O49	O	1.018184	-0.443938	-0.399694
O50	O	1.351518	-0.110605	-0.066361
O51	O	1.684851	0.222728	0.266973
C52	C	0.872266	-0.303229	-0.354529
C53	C	1.205599	0.030104	-0.021195
C54	C	1.538932	0.363437	0.312138
C55	C	0.790467	-0.303240	-0.354537
C56	C	1.123800	0.030093	-0.021204
C57	C	1.457134	0.363427	0.312130
C58	C	0.602275	-0.343554	-0.401533
C59	C	0.935608	-0.010221	-0.068200
C60	C	1.268941	0.323113	0.265133
C61	C	0.525416	-0.343556	-0.401542
C62	C	0.858749	-0.010223	-0.068209
C63	C	1.192082	0.323111	0.265124
C64	C	0.525422	-0.262938	-0.307582
C65	C	0.858755	0.070396	0.025751
C66	C	1.192088	0.403729	0.359084
C67	C	0.602279	-0.262933	-0.307577
C68	C	0.935612	0.070400	0.025756
C69	C	1.268946	0.403734	0.359089
C70	C	0.640703	-0.303245	-0.354552
C71	C	0.974037	0.030089	-0.021218
C72	C	1.307370	0.363422	0.312115
C73	C	0.486987	-0.303251	-0.354566
C74	C	0.820321	0.030082	-0.021233
C75	C	1.153654	0.363415	0.312101
C76	C	0.403654	-0.303253	-0.354575
C77	C	0.736987	0.030080	-0.021242
C78	C	1.070320	0.363413	0.312091
C79	C	0.724042	-0.303242	-0.354543
C80	C	1.057376	0.030091	-0.021210
C81	C	1.390709	0.363424	0.312123
C82	C	1.063376	-0.466792	-0.354509
C83	C	1.396709	-0.133458	-0.021176
C84	C	1.730042	0.199875	0.312158
C85	C	1.063402	-0.536760	-0.354516
C86	C	1.396735	-0.203427	-0.021183
C87	C	1.730068	0.129907	0.312150
C88	C	1.110502	-0.569619	-0.307500
C89	C	1.443835	-0.236286	0.025833
C90	C	1.777168	0.097048	0.359166
C91	C	1.110536	-0.635361	-0.307517
C92	C	1.443869	-0.302028	0.025816
C93	C	1.777203	0.031305	0.359150
C94	C	1.063457	-0.668242	-0.354542
C95	C	1.396791	-0.334909	-0.021208
C96	C	1.730124	-0.001576	0.312125
C97	C	1.016354	-0.635375	-0.401566
C98	C	1.349687	-0.302042	-0.068233
C99	C	1.683021	0.031291	0.265100
C100	C	1.016326	-0.569634	-0.401554
C101	C	1.349660	-0.236301	-0.068220
C102	C	1.682993	0.097033	0.265113
N103	N	0.999079	-0.771508	-0.360145
N104	N	1.332412	-0.438175	-0.026811
N105	N	1.665745	-0.104842	0.306522
N106	N	0.999107	-0.833960	-0.360153
N107	N	1.332441	-0.500627	-0.026819
N108	N	1.665774	-0.167293	0.306514
C109	C	1.063540	-0.866317	-0.354584
C110	C	1.396873	-0.532984	-0.021250
C111	C	1.730207	-0.199650	0.312083
N112	N	1.127944	-0.833863	-0.348993
N113	N	1.461277	-0.500530	-0.015659
N114	N	1.794611	-0.167197	0.317674
N115	N	1.127915	-0.771406	-0.348981
N116	N	1.461248	-0.438073	-0.015648
N117	N	1.794581	-0.104740	0.317686
C118	C	1.063483	-0.739528	-0.354561
C119	C	1.396816	-0.406194	-0.021228
C120	C	1.730149	-0.072861	0.312106
C121	C	1.110681	-0.970462	-0.307584
C122	C	1.444015	-0.637128	0.025750
C123	C	1.777348	-0.303795	0.359083
C124	C	1.110717	-1.036205	-0.307605
C125	C	1.444050	-0.702872	0.025728
C126	C	1.777384	-0.369539	0.359061
C127	C	1.016528	-1.036218	-0.401651
C128	C	1.349862	-0.702885	-0.068317
C129	C	1.683195	-0.369551	0.265016
C130	C	1.016499	-0.970475	-0.401633
C131	C	1.349833	-0.637142	-0.068300
C132	C	1.683166	-0.303809	0.265034
C133	C	1.063575	-0.937601	-0.354595
C134	C	1.396908	-0.604268	-0.021262
C135	C	1.730241	-0.270935	0.312071
C136	C	1.255425	-0.303251	-0.354571
C137	C	1.588758	0.030082	-0.021238
C138	C	1.922092	0.363415	0.312095
C139	C	1.337224	-0.303256	-0.354581
C140	C	1.670557	0.030077	-0.021247
C141	C	2.003890	0.363410	0.312086
C142	C	1.063517	-0.303197	-0.546503
C143	C	1.396850	0.030137	-0.213169
C144	C	1.730184	0.363470	0.120164
C145	C	1.063536	-0.303178	-0.628302
C146	C	1.396869	0.030155	-0.294968
C147	C	1.730203	0.363488	0.038365
C148	C	1.063589	-0.139050	-0.354607
C149	C	1.396922	0.194284	-0.021273
C150	C	1.730256	0.527617	0.312060
C151	C	1.063639	-0.069082	-0.354631
C152	C	1.396972	0.264252	-0.021298
C153	C	1.730305	0.597585	0.312036
C154	C	1.110651	-0.262882	-0.816516
C155	C	1.443984	0.070451	-0.483183
C156	C	1.777317	0.403785	-0.149850
C157	C	1.110660	-0.262863	-0.893375
C158	C	1.443993	0.070470	-0.560042
C159	C	1.777326	0.403803	-0.226708
C160	C	1.016473	-0.343377	-0.893325
C161	C	1.349807	-0.010044	-0.559992
C162	C	1.683140	0.323289	-0.226659
C163	C	1.016461	-0.343392	-0.816468
C164	C	1.349795	-0.010059	-0.483134
C165	C	1.683128	0.323275	-0.149801
C166	C	1.063554	-0.303145	-0.778065
C167	C	1.396888	0.030188	-0.444732
C168	C	1.730221	0.363521	-0.111399
C169	C	1.063575	-0.303112	-0.931781
C170	C	1.396908	0.030221	-0.598448
C171	C	1.730242	0.363555	-0.265115
C172	C	1.063584	-0.303093	-1.015115
C173	C	1.396917	0.030241	-0.681782
C174	C	1.730251	0.363574	-0.348449
C175	C	1.063544	-0.303164	-0.694726
C176	C	1.396878	0.030170	-0.361393
C177	C	1.730211	0.363503	-0.028060
C178	C	1.063470	-0.303238	-0.163344
C179	C	1.396803	0.030095	0.169990
C180	C	1.730136	0.363429	0.503323
C181	C	1.063593	-0.303079	-0.081545
C182	C	1.396927	0.030254	0.251788
C183	C	1.730260	0.363588	0.585122
H184	H	1.148835	-0.542855	-0.269202
H185	H	1.482168	-0.209521	0.064132
H186	H	1.815502	0.123812	0.397465
H187	H	0.978024	-0.662151	-0.439855
H188	H	1.311357	-0.328818	-0.106522
H189	H	1.644690	0.004516	0.226811
H190	H	1.149009	-0.230076	-0.924678
H191	H	1.482342	0.103257	-0.591345
H192	H	1.815676	0.436591	-0.258012
Cl193	Cl	1.169751	-0.676679	-0.248406
Cl194	Cl	1.503084	-0.343346	0.084928
Cl195	Cl	1.836417	-0.010012	0.418261
Cl196	Cl	1.169860	-0.929131	-0.248452
Cl197	Cl	1.503193	-0.595798	0.084882
Cl198	Cl	1.836527	-0.262464	0.418215
Cl199	Cl	0.650593	-0.212250	-0.248515
Cl200	Cl	0.983927	0.121083	0.084819
Cl201	Cl	1.317260	0.454417	0.418152
Cl202	Cl	1.169850	-0.212284	-0.768241
Cl203	Cl	1.503183	0.121050	-0.434908
Cl204	Cl	1.836517	0.454383	-0.101575
Cl205	Cl	1.169940	-1.077515	-0.248499
Cl206	Cl	1.503273	-0.744181	0.084834
Cl207	Cl	1.836606	-0.410848	0.418167
H208	H	0.494127	-0.230118	-0.269336
H209	H	0.827460	0.103215	0.063997
H210	H	1.160794	0.436548	0.397330
Cl211	Cl	0.957278	-0.393974	-0.941608
Cl212	Cl	1.290611	-0.060640	-0.608274
Cl213	Cl	1.623945	0.272693	-0.274941
H214	H	0.633557	-0.376377	-0.439785
H215	H	0.966891	-0.043044	-0.106451
H216	H	1.300224	0.290290	0.226882
Cl217	Cl	0.477108	-0.394232	-0.460609
Cl218	Cl	0.810442	-0.060898	-0.127276
Cl219	Cl	1.143775	0.272435	0.206058
Cl220	Cl	0.957348	-1.077548	-0.460773
Cl221	Cl	1.290681	-0.744214	-0.127440
Cl222	Cl	1.624015	-0.410881	0.205893
Cl223	Cl	0.957109	-0.528323	-0.460664
Cl224	Cl	1.290442	-0.194990	-0.127330
Cl225	Cl	1.623776	0.138344	0.206003
Cl226	Cl	0.957281	-0.929164	-0.460738
Cl227	Cl	1.290614	-0.595831	-0.127405
Cl228	Cl	1.623947	-0.262498	0.205928
H229	H	0.978104	-0.376179	-0.785160
H230	H	1.311438	-0.042845	-0.451827
H231	H	1.644771	0.290488	-0.118494
