data_functionalizedCrystal
_audit_creation_method	'MofGen! by Chris Wilmer'
_symmetry_space_group_name_H-M	'P1'
_symmetry_Int_Tables_number	1
_symmetry_cell_setting	triclinic
loop_
_symmetry_equiv_pos_as_xyz
  x,y,z
_cell_length_a	17.640112
_cell_length_b	21.295417
_cell_length_c	17.640968
_cell_angle_alpha	101.234808
_cell_angle_beta	87.860920
_cell_angle_gamma	101.256239
loop_
_atom_site_label
_atom_site_type_symbol
_atom_site_fract_x
_atom_site_fract_y
_atom_site_fract_z
Zn1	Zn	1.247775	-0.018088	0.195079
Zn2	Zn	1.221981	-0.147966	0.068087
Zn3	Zn	1.095099	-0.059037	0.093722
Zn4	Zn	1.120723	-0.139680	0.220669
O5	O	1.171395	-0.091193	0.144389
O6	O	1.350625	-0.021647	0.156795
O7	O	1.183631	-0.156775	-0.034787
O8	O	1.115423	0.034499	0.107185
O9	O	1.331674	-0.117068	0.063494
O10	O	1.227593	0.064584	0.181652
O11	O	1.090412	-0.091439	-0.015953
O12	O	0.992227	-0.083404	0.132000
O13	O	1.159096	-0.102945	0.323549
O14	O	1.011052	-0.142652	0.225268
O15	O	1.252440	-0.013612	0.304748
O16	O	1.208478	-0.234971	0.088309
O17	O	1.134084	-0.228883	0.200410
C18	C	0.974084	-0.116573	0.184193
C19	C	0.889678	-0.127442	0.201239
C20	C	1.171287	-0.254765	0.144367
C21	C	1.171315	-0.324729	0.144369
C22	C	0.563037	-0.008607	0.014897
C23	C	0.483727	-0.018831	0.030925
C24	C	0.503351	-0.080669	0.127878
C25	C	0.582665	-0.070447	0.111861
C26	C	0.612502	-0.034416	0.055369
C27	C	0.632129	-0.096257	0.152332
C28	C	0.711436	-0.086038	0.136313
C29	C	0.741279	-0.050011	0.079823
C30	C	0.691809	-0.024198	0.039350
C31	C	0.602290	-0.132291	0.208820
C32	C	0.651755	-0.158101	0.249291
C33	C	0.731064	-0.147879	0.233277
C34	C	0.760907	-0.111851	0.176786
C35	C	0.780534	-0.173691	0.273749
C36	C	0.859841	-0.163473	0.257730
C37	C	0.840214	-0.101633	0.160767
C38	C	1.210105	-0.360729	0.086039
C39	C	1.210144	-0.426464	0.086049
C40	C	1.171378	-0.456199	0.144384
C41	C	1.132586	-0.420189	0.202724
C42	C	1.132555	-0.354454	0.202717
N43	N	1.106115	-0.566893	0.163575
N44	N	1.106146	-0.629339	0.163577
C45	C	1.171472	-0.654254	0.144410
N46	N	1.236764	-0.614366	0.125225
N47	N	1.236731	-0.551916	0.125220
C48	C	1.171408	-0.527477	0.144398
C49	C	1.210308	-0.761531	0.086087
C50	C	1.210349	-0.827266	0.086102
C51	C	1.132784	-0.820991	0.202775
C52	C	1.132750	-0.755256	0.202763
C53	C	1.171510	-0.725531	0.144415
C54	C	1.369475	-0.065714	0.104431
C55	C	1.453885	-0.054856	0.087403
C56	C	1.211503	-0.052786	0.342475
C57	C	1.228595	-0.036419	0.426887
C58	C	1.171527	0.073024	0.144424
C59	C	1.171584	0.143004	0.144438
C60	C	1.131486	-0.129399	-0.052935
C61	C	1.114541	-0.145569	-0.137376
C62	C	1.041841	-0.215148	0.753447
C63	C	1.057917	-0.199759	0.832762
C64	C	1.155108	-0.106745	0.813176
C65	C	1.139037	-0.122124	0.733858
C66	C	1.082403	-0.176327	0.704000
C67	C	1.179600	-0.083303	0.684411
C68	C	1.163533	-0.098683	0.605099
C69	C	1.106903	-0.152885	0.575235
C70	C	1.066336	-0.191707	0.624689
C71	C	1.236237	-0.029103	0.714269
C72	C	1.276800	0.009719	0.664822
C73	C	1.260729	-0.005659	0.585510
C74	C	1.204100	-0.059860	0.555646
C75	C	1.301296	0.033164	0.536056
C76	C	1.285229	0.017784	0.456745
C77	C	1.188033	-0.075241	0.476334
H78	H	0.864510	-0.072281	0.114778
H79	H	1.100967	-0.325141	0.250217
Br80	Br	0.848910	-0.036148	0.058075
Br81	Br	1.002860	-0.252451	0.899869
H82	H	1.201222	-0.062614	0.837497
Br83	Br	1.080181	-0.861336	0.281952
H84	H	1.101160	-0.725943	0.250258
Br85	Br	1.262906	-0.721187	0.006901
H86	H	1.141897	-0.119366	0.452027
H87	H	1.241941	-0.856576	0.038603
Br88	Br	0.964970	-0.288704	0.712920
H89	H	0.716105	0.005154	-0.006639
Br90	Br	0.603539	0.040301	-0.061763
H91	H	1.249319	-0.016583	0.778850
Br92	Br	1.085101	-0.173765	0.467596
Br93	Br	1.262720	-0.320387	0.006862
H94	H	1.241734	-0.455781	0.038549
H95	H	0.756228	-0.203033	0.319739
H96	H	1.020201	-0.235832	0.600381
Br97	Br	1.079982	-0.460539	0.281899
Br98	Br	1.353661	0.083275	0.705350
Br99	Br	0.494656	-0.146172	0.230547
Br100	Br	1.378164	0.106715	0.576585
H101	H	0.443455	0.002194	-0.002031
Br102	Br	0.611252	-0.207010	0.325944
Br103	Br	0.926976	-0.198505	0.312652
H104	H	0.479046	-0.110007	0.173871
Br105	Br	1.340283	0.070466	0.389632
