data_functionalizedCrystal
_audit_creation_method	'MofGen! by Chris Wilmer'
_symmetry_space_group_name_H-M	'P1'
_symmetry_Int_Tables_number	1
_symmetry_cell_setting	triclinic
loop_
_symmetry_equiv_pos_as_xyz
  x,y,z
_cell_length_a	12.837943
_cell_length_b	11.892095
_cell_length_c	12.837942
_cell_angle_alpha	85.697431
_cell_angle_beta	94.828940
_cell_angle_gamma	94.310562
loop_
_atom_site_label
_atom_site_type_symbol
_atom_site_fract_x
_atom_site_fract_y
_atom_site_fract_z
O1	O	-1.408367	-0.093982	-0.266110
O2	O	-0.908367	0.406018	0.233890
O3	O	-1.105234	-0.093989	-0.252667
O4	O	-0.605234	0.406011	0.247333
O5	O	-1.250078	-0.093979	-0.107822
O6	O	-0.750078	0.406021	0.392178
O7	O	-1.263522	-0.093992	-0.410955
O8	O	-0.763522	0.406008	0.089045
O9	O	-1.237999	0.094028	-0.119879
O10	O	-0.737999	0.594028	0.380121
O11	O	-1.093155	0.094018	-0.264723
O12	O	-0.593155	0.594018	0.235277
O13	O	-1.396288	0.094025	-0.278167
O14	O	-0.896288	0.594025	0.221833
Zn15	Zn	-1.242803	0.123871	-0.273359
Zn16	Zn	-0.742803	0.623871	0.226641
Zn17	Zn	-1.258718	-0.123836	-0.257474
Zn18	Zn	-0.758718	0.376164	0.242526
O19	O	-1.251443	0.094014	-0.423011
O20	O	-0.751443	0.594014	0.076989
C21	C	-1.060125	0.000014	-0.254153
C22	C	-0.560125	0.500014	0.245847
C23	C	-0.943710	0.000011	-0.240609
C24	C	-0.443710	0.500011	0.259391
N25	N	-1.231950	0.292925	-0.284200
N26	N	-0.731950	0.792925	0.215800
C27	C	-1.239497	0.000024	-0.074781
C28	C	-0.739497	0.500024	0.425219
C29	C	-1.225953	0.000022	0.041634
C30	C	-0.725953	0.500022	0.541634
C31	C	-1.441397	0.000020	-0.276680
C32	C	-0.941397	0.500020	0.223320
C33	C	-1.557812	0.000015	-0.290224
C34	C	-1.057812	0.500015	0.209776
C35	C	-0.718835	0.000020	-0.403439
C36	C	-0.218835	0.500020	0.096561
C37	C	-0.609453	0.000019	-0.390717
C38	C	-0.109453	0.500019	0.109283
C39	C	-0.615561	0.000015	-0.202446
C40	C	-0.115561	0.500015	0.297554
C41	C	-0.724943	0.000017	-0.215167
C42	C	-0.224943	0.500017	0.284833
C43	C	-0.776577	0.000017	-0.315667
C44	C	-0.276577	0.500017	0.184333
C45	C	-0.885961	0.000011	-0.328387
C46	C	-0.385961	0.500011	0.171613
C47	C	-0.892066	0.000015	-0.140117
C48	C	-0.392066	0.500015	0.359883
C49	C	-0.782684	0.000014	-0.127395
C50	C	-0.282684	0.500014	0.372605
N51	N	-1.269579	-0.292889	-0.246626
N52	N	-0.769579	0.207111	0.253374
C53	C	-1.345098	0.529580	-0.171130
C54	C	-0.845098	1.029580	0.328870
C55	C	-1.337519	0.647922	-0.178716
C56	C	-0.837519	1.147922	0.321284
C57	C	-1.209210	0.647951	-0.306952
C58	C	-0.709210	1.147951	0.193048
C59	C	-1.216788	0.529610	-0.299366
C60	C	-0.716788	1.029610	0.200634
C61	C	-1.284736	0.470428	-0.231454
C62	C	-0.784736	0.970428	0.268546
C63	C	-1.292319	0.352085	-0.223874
C64	C	-0.792319	0.852085	0.276126
C65	C	-1.164005	0.352116	-0.352104
C66	C	-0.664005	0.852116	0.147896
C67	C	-1.156426	0.470458	-0.359690
C68	C	-0.656426	0.970458	0.140310
C69	C	-1.262024	0.000009	-0.456052
C70	C	-0.762024	0.500009	0.043948
C71	C	-1.275569	0.000004	-0.572467
C72	C	-0.775569	0.500004	-0.072467
C73	C	-1.388784	0.000002	0.266509
C74	C	-0.888784	0.500002	0.766509
C75	C	-1.376062	-0.000000	0.375892
C76	C	-0.876062	0.500000	0.875892
C77	C	-1.187791	0.000007	0.369784
C78	C	-0.687791	0.500007	0.869784
C79	C	-1.200512	0.000009	0.260402
C80	C	-0.700512	0.500009	0.760402
C81	C	-1.301011	0.000008	0.208768
C82	C	-0.801011	0.500008	0.708768
C83	C	-1.313731	0.000019	0.099383
C84	C	-0.813731	0.500019	0.599383
C85	C	-1.125461	0.000018	0.093278
C86	C	-0.625461	0.500018	0.593278
C87	C	-1.112740	0.000016	0.202660
C88	C	-0.612740	0.500016	0.702660
H89	H	-0.928000	0.000013	-0.410219
H90	H	-0.428000	0.500013	0.089781
F91	F	-1.084113	0.533452	-0.431961
F92	F	-0.584113	1.033452	0.068039
F93	F	-0.773791	0.000007	-0.510395
F94	F	-0.273791	0.500007	-0.010395
H95	H	-1.153882	0.696151	-0.362237
H96	H	-0.653882	1.196151	0.137763
H97	H	-0.573495	0.000108	-0.120630
H98	H	-0.073495	0.500108	0.379370
F99	F	-1.099766	0.289151	-0.416313
F100	F	-0.599766	0.789151	0.083687
F101	F	-1.401763	0.710872	-0.114509
F102	F	-0.901763	1.210872	0.385491
F103	F	-1.005787	0.000008	0.257625
F104	F	-0.505787	0.500008	0.757625
F105	F	-1.420690	0.000025	0.044432
F106	F	-0.920690	0.500025	0.544432
H107	H	-1.347647	0.303901	-0.168579
H108	H	-0.847647	0.803901	0.331421
F109	F	-1.495739	0.000024	0.211553
F110	F	-0.995739	0.500024	0.711553
H111	H	-1.447536	-0.000009	0.422901
H112	H	-0.947536	0.499991	0.922901
F113	F	-1.080842	-0.000020	0.424756
F114	F	-0.580842	0.499980	0.924756
F115	F	-1.032041	0.000037	0.031817
F116	F	-0.532041	0.500037	0.531817
H117	H	-0.562444	0.000024	-0.462191
H118	H	-0.062444	0.500024	0.037809
H119	H	-0.740628	0.000026	-0.045572
H120	H	-0.240628	0.500026	0.454428
F121	F	-1.417421	0.466595	-0.098864
F122	F	-0.917421	0.966595	0.401136
F123	F	-0.953527	-0.000002	-0.046697
F124	F	-0.453527	0.499998	0.453303
