data_functionalizedCrystal
_audit_creation_method	'MofGen! by Chris Wilmer'
_symmetry_space_group_name_H-M	'P1'
_symmetry_Int_Tables_number	1
_symmetry_cell_setting	triclinic
loop_
_symmetry_equiv_pos_as_xyz
  x,y,z
_cell_length_a	19.188925
_cell_length_b	19.188930
_cell_length_c	11.804783
_cell_angle_alpha	76.675961
_cell_angle_beta	76.683120
_cell_angle_gamma	83.143665
loop_
_atom_site_label
_atom_site_type_symbol
_atom_site_fract_x
_atom_site_fract_y
_atom_site_fract_z
O1	O	0.913604	0.074593	0.099056
O2	O	1.413604	0.574593	0.599056
O3	O	0.710293	0.086332	0.099055
O4	O	1.210293	0.586332	0.599055
O5	O	0.817819	-0.021190	0.099032
O6	O	1.317819	0.478810	0.599032
O7	O	0.806078	0.182115	0.099079
O8	O	1.306078	0.682115	0.599079
O9	O	0.842885	0.003909	-0.099002
O10	O	1.342885	0.503909	0.400998
O11	O	0.735359	0.111431	-0.098980
O12	O	1.235359	0.611431	0.401020
O13	O	0.938671	0.099693	-0.098978
O14	O	1.438671	0.599693	0.401022
Cu15	Cu	0.839304	0.107854	-0.117061
Cu16	Cu	1.339304	0.607854	0.382939
Cu17	Cu	0.809660	0.078171	0.117138
Cu18	Cu	1.309660	0.578171	0.617138
O19	O	0.831145	0.207215	-0.098956
O20	O	1.331145	0.707215	0.401044
C21	C	0.696815	0.098502	0.000037
C22	C	1.196815	0.598502	0.500037
C23	C	0.619310	0.097363	0.000035
C24	C	1.119310	0.597363	0.500035
C25	C	0.829972	-0.034651	0.000011
C26	C	1.329972	0.465349	0.500011
C27	C	0.828833	-0.112154	0.000001
C28	C	1.328833	0.387846	0.500001
C29	C	0.057538	0.152825	0.000051
C30	C	0.557538	0.652825	0.500051
C31	C	0.130361	0.153901	0.000057
C32	C	0.630361	0.653901	0.500057
C33	C	0.175297	0.090811	0.000041
C34	C	0.675297	0.590811	0.500041
C35	C	0.147402	0.026636	0.000048
C36	C	0.647402	0.526636	0.500048
C37	C	0.074580	0.025561	0.000054
C38	C	0.574580	0.525561	0.500054
N39	N	0.304509	0.053680	-0.067382
N40	N	0.804509	0.553680	0.432618
N41	N	0.373687	0.054706	-0.067389
N42	N	0.873687	0.554706	0.432611
C43	C	0.394708	0.094046	0.000028
C44	C	0.894708	0.594046	0.500028
N45	N	0.343938	0.132334	0.067438
N46	N	0.843938	0.632334	0.567438
N47	N	0.274754	0.131311	0.067440
N48	N	0.774754	0.631311	0.567440
C49	C	0.254262	0.091969	0.000036
C50	C	0.754262	0.591969	0.500036
C51	C	0.501556	0.159382	0.000036
C52	C	1.001556	0.659382	0.500036
C53	C	0.574379	0.160454	0.000050
C54	C	1.074379	0.660454	0.500050
C55	C	0.591421	0.033189	0.000029
C56	C	1.091421	0.533189	0.500029
C57	C	0.518598	0.032117	0.000027
C58	C	1.018598	0.532117	0.500027
C59	C	0.473670	0.095216	0.000025
C60	C	0.973670	0.595216	0.500025
C61	C	0.891925	-0.157079	-0.000004
C62	C	1.391925	0.342921	0.499996
C63	C	0.890851	-0.229905	0.000015
C64	C	1.390851	0.270095	0.500015
C65	C	0.826684	-0.257801	0.000015
C66	C	1.326684	0.242199	0.500015
C67	C	0.763583	-0.212867	0.000027
C68	C	1.263583	0.287133	0.500027
C69	C	0.764658	-0.140044	0.000020
C70	C	1.264658	0.359956	0.500020
N71	N	0.786167	-0.357263	-0.067380
N72	N	1.286167	0.142737	0.432620
N73	N	0.785151	-0.426442	-0.067376
N74	N	1.285151	0.073558	0.432624
C75	C	0.823443	-0.477212	0.000040
C76	C	1.323443	0.022788	0.500040
N77	N	0.862802	-0.456190	0.067435
N78	N	1.362802	0.043810	0.567435
N79	N	0.863820	-0.387004	0.067426
N80	N	1.363820	0.112996	0.567426
C81	C	0.825512	-0.336764	0.000024
C82	C	1.325512	0.163236	0.500024
C83	C	0.885374	-0.601104	0.000057
C84	C	1.385374	-0.101104	0.500057
C85	C	0.884297	-0.673932	0.000083
C86	C	1.384297	-0.173932	0.500083
C87	C	0.757029	-0.656891	0.000083
C88	C	1.257029	-0.156891	0.500083
C89	C	0.758107	-0.584066	0.000069
C90	C	1.258107	-0.084066	0.500069
C91	C	0.822282	-0.556176	0.000050
C92	C	1.322282	-0.056176	0.500050
C93	C	0.952148	0.087522	0.000042
C94	C	1.452148	0.587522	0.500042
C95	C	1.029652	0.088660	0.000051
C96	C	1.529652	0.588660	0.500051
C97	C	0.818991	0.220675	0.000067
C98	C	1.318991	0.720675	0.500067
C99	C	0.820129	0.298177	0.000085
C100	C	1.320129	0.798177	0.500085
N101	N	0.860159	0.128731	-0.281784
N102	N	1.360159	0.628731	0.218216
C103	C	0.738704	0.007149	-0.655836
C104	C	1.238704	0.507149	-0.155836
C105	C	0.722914	-0.008648	-0.531188
C106	C	1.222914	0.491352	-0.031188
C107	C	0.757224	0.025695	-0.468831
C108	C	1.257224	0.525695	0.031169
C109	C	0.807327	0.075839	-0.531134
C110	C	1.307327	0.575839	-0.031134
C111	C	0.823123	0.091634	-0.655795
C112	C	1.323123	0.591634	-0.155795
C113	C	0.841642	0.110180	-0.468789
C114	C	1.341642	0.610180	0.031211
C115	C	0.891745	0.160323	-0.531093
C116	C	1.391745	0.660323	-0.031093
C117	C	0.907538	0.176116	-0.655741
C118	C	1.407538	0.676116	-0.155741
C119	C	0.873229	0.141773	-0.718098
C120	C	1.373229	0.641773	-0.218098
C121	C	0.825846	0.094385	-0.344129
C122	C	1.325846	0.594385	0.155871
C123	C	0.910265	0.178869	-0.344087
C124	C	1.410265	0.678869	0.155913
C125	C	0.926055	0.194667	-0.468736
C126	C	1.426055	0.694667	0.031264
N127	N	0.788810	0.057288	0.281860
N128	N	1.288810	0.557288	0.781860
H129	H	0.020961	0.204205	0.000055
H130	H	0.520961	0.704205	0.500055
H131	H	0.495894	-0.020132	0.000020
H132	H	0.995894	0.479868	0.500020
N133	N	0.958716	0.227330	-0.719411
N134	N	1.458716	0.727330	-0.219411
N135	N	1.013770	0.208770	-0.788967
N136	N	1.513770	0.708770	-0.288967
H137	H	1.049912	0.244942	-0.833938
H138	H	1.549912	0.744942	-0.333938
N139	N	0.158845	0.219453	0.000056
N140	N	0.658845	0.719453	0.500056
N141	N	0.118723	0.275783	0.000057
N142	N	0.618723	0.775783	0.500057
H143	H	0.138837	0.322081	0.000053
H144	H	0.638837	0.822081	0.500053
H145	H	0.713279	-0.103466	0.000024
H146	H	1.213279	0.396534	0.500024
H147	H	0.183994	-0.024732	0.000038
H148	H	0.683994	0.475268	0.500038
N149	N	0.950914	-0.572602	0.000068
N150	N	1.450914	-0.072602	0.500068
N151	N	0.951865	-0.507581	0.000060
N152	N	1.451865	-0.007581	0.500060
H153	H	0.998153	-0.487452	0.000071
H154	H	1.498153	0.012548	0.500071
H155	H	0.966850	0.235495	-0.519481
H156	H	1.466850	0.735495	-0.019481
N157	N	0.602879	0.225992	0.000060
N158	N	1.102879	0.725992	0.500060
N159	N	0.631048	0.230214	0.083536
N160	N	1.131048	0.730214	0.583536
H161	H	0.651179	0.276501	0.083543
H162	H	1.151179	0.776501	0.583543
H163	H	0.051876	-0.026692	0.000054
H164	H	0.551876	0.473308	0.500054
H165	H	0.704783	-0.679603	0.000090
H166	H	1.204783	-0.179603	0.500090
H167	H	0.628007	-0.018181	0.000024
H168	H	1.128007	0.481819	0.500024
H169	H	0.935675	-0.710511	0.000085
H170	H	1.435675	-0.210511	0.500085
N171	N	0.957471	-0.128581	-0.000025
N172	N	1.457471	0.371419	0.499975
N173	N	0.982833	-0.079275	-0.083507
N174	N	1.482833	0.420725	0.416493
H175	H	1.029125	-0.059147	-0.083522
H176	H	1.529125	0.440853	0.416478
N177	N	0.945314	0.213943	-0.280387
N178	N	1.445314	0.713943	0.219613
N179	N	0.931206	0.199834	-0.169090
N180	N	1.431206	0.699834	0.330910
H181	H	0.955959	0.224600	-0.124093
H182	H	1.455959	0.724600	0.375907
H183	H	0.706732	-0.547486	0.000067
H184	H	1.206732	-0.047486	0.500067
H185	H	0.785052	0.053558	-0.293414
H186	H	1.285052	0.553558	0.206586
N187	N	0.889372	0.157914	-0.845427
N188	N	1.389372	0.657914	-0.345427
N189	N	0.934111	0.202680	-0.901044
N190	N	1.434111	0.702680	-0.401044
H191	H	0.945512	0.214079	-0.990972
H192	H	1.445512	0.714079	-0.490972
N193	N	0.741090	0.009550	-0.341507
N194	N	1.241090	0.509550	0.158493
N195	N	0.696354	-0.035221	-0.285894
N196	N	1.196354	0.464779	0.214106
H197	H	0.684955	-0.046624	-0.195965
H198	H	1.184955	0.453376	0.304035
H199	H	0.682122	-0.049477	-0.480470
H200	H	1.182122	0.450523	0.019530
H201	H	0.710780	-0.020812	-0.706619
H202	H	1.210780	0.479188	-0.206619
N203	N	0.455669	0.223838	0.000034
N204	N	0.955669	0.723838	0.500034
N205	N	0.480579	0.281126	0.000043
N206	N	0.980579	0.781126	0.500043
H207	H	0.448174	0.326650	0.000041
H208	H	0.948174	0.826650	0.500041
N209	N	0.955309	-0.275793	-0.000013
N210	N	1.455309	0.224207	0.499987
N211	N	1.008594	-0.262789	-0.083503
N212	N	1.508594	0.237211	0.416497
H213	H	1.054119	-0.295195	-0.083527
H214	H	1.554119	0.204805	0.416473
N215	N	0.698044	-0.241371	0.000038
N216	N	1.198044	0.258629	0.500038
N217	N	0.697092	-0.306392	0.000044
N218	N	1.197092	0.193608	0.500044
H219	H	0.650802	-0.326524	0.000058
H220	H	1.150802	0.173476	0.500058
