data_functionalizedCrystal
_audit_creation_method	'MofGen! by Chris Wilmer'
_symmetry_space_group_name_H-M	'P1'
_symmetry_Int_Tables_number	1
_symmetry_cell_setting	triclinic
loop_
_symmetry_equiv_pos_as_xyz
  x,y,z
_cell_length_a	17.077404
_cell_length_b	19.077068
_cell_length_c	17.077396
_cell_angle_alpha	87.732878
_cell_angle_beta	90.019501
_cell_angle_gamma	92.327269
loop_
_atom_site_label
_atom_site_type_symbol
_atom_site_fract_x
_atom_site_fract_y
_atom_site_fract_z
Zn1	Zn	1.187475	-0.280197	0.456376
Zn2	Zn	1.687475	0.219803	0.956376
Zn3	Zn	1.182097	-0.397901	0.330375
Zn4	Zn	1.682097	0.102099	0.830375
Zn5	Zn	1.056205	-0.280222	0.325125
Zn6	Zn	1.556205	0.219778	0.825125
Zn7	Zn	1.050892	-0.397859	0.461596
Zn8	Zn	1.550892	0.102141	0.961596
O9	O	1.119167	-0.339045	0.393368
O10	O	1.619167	0.160955	0.893368
O11	O	1.296608	-0.295818	0.439674
O12	O	1.796608	0.204182	0.939674
O13	O	1.165371	-0.382318	0.219833
O14	O	1.665371	0.117682	0.719833
O15	O	1.078093	-0.181727	0.338154
O16	O	1.578093	0.318273	0.838154
O17	O	1.292657	-0.382294	0.347101
O18	O	1.792657	0.117706	0.847101
O19	O	1.174536	-0.181709	0.434583
O20	O	1.674536	0.318291	0.934583
O21	O	1.072878	-0.295860	0.215976
O22	O	1.572878	0.204140	0.715976
O23	O	0.945654	-0.295819	0.343216
O24	O	1.445654	0.204181	0.843216
O25	O	1.069036	-0.382223	0.570750
O26	O	1.569036	0.117777	1.070750
O27	O	0.941750	-0.382247	0.443481
O28	O	1.441750	0.117753	0.943481
O29	O	1.169383	-0.295777	0.566914
O30	O	1.669383	0.204223	1.066914
O31	O	1.160218	-0.496386	0.352163
O32	O	1.660218	0.003614	0.852163
O33	O	1.063822	-0.496356	0.448571
O34	O	1.563822	0.003644	0.948571
C35	C	0.915220	-0.339032	0.393346
C36	C	1.415220	0.160968	0.893346
C37	C	0.827970	-0.339043	0.393356
C38	C	1.327970	0.160957	0.893356
C39	C	0.784964	-0.384114	0.445486
C40	C	1.284964	0.115886	0.945486
C41	C	0.702984	-0.384116	0.445499
C42	C	1.202984	0.115884	0.945499
C43	C	0.664010	-0.339050	0.393376
C44	C	1.164010	0.160950	0.893376
C45	C	0.707021	-0.293974	0.341243
C46	C	1.207021	0.206026	0.841243
C47	C	0.789000	-0.293969	0.341235
C48	C	1.289000	0.206031	0.841235
C49	C	0.536151	-0.293988	0.341263
C50	C	1.036151	0.206012	0.841263
C51	C	0.454166	-0.293993	0.341270
C52	C	0.954166	0.206007	0.841270
C53	C	0.450134	-0.384134	0.445526
C54	C	0.950134	0.115866	0.945526
C55	C	0.532113	-0.384130	0.445518
C56	C	1.032113	0.115870	0.945518
C57	C	0.575119	-0.339055	0.393384
C58	C	1.075119	0.160945	0.893384
C59	C	1.110881	-0.521909	0.401521
C60	C	1.610881	-0.021909	0.901521
C61	C	1.107408	-0.600139	0.405035
C62	C	1.607408	-0.100139	0.905035
C63	C	1.156004	-0.636884	0.356533
C64	C	1.656004	-0.136884	0.856533
C65	C	1.152742	-0.710389	0.359843
C66	C	1.652742	-0.210389	0.859843
C67	C	1.100880	-0.747148	0.411651
C68	C	1.600880	-0.247148	0.911651
C69	C	1.052283	-0.710398	0.460158
C70	C	1.552283	-0.210398	0.960158
C71	C	1.055549	-0.636894	0.456852
C72	C	1.555549	-0.136894	0.956852
C73	C	1.085729	-0.966982	0.426921
C74	C	1.585729	-0.466982	0.926921
C75	C	1.082465	-1.040491	0.430222
C76	C	1.582465	-0.540491	0.930222
C77	C	1.182926	-1.040478	0.329907
C78	C	1.682926	-0.540478	0.829907
C79	C	1.186184	-0.966973	0.326602
C80	C	1.686184	-0.466973	0.826602
C81	C	1.137590	-0.930229	0.375112
C82	C	1.637590	-0.430229	0.875112
N83	N	1.097543	-0.822282	0.415033
N84	N	1.597543	-0.322282	0.915033
N85	N	1.140931	-0.855096	0.371733
N86	N	1.640931	-0.355096	0.871733
C87	C	1.323911	-0.339058	0.393391
C88	C	1.823911	0.160942	0.893391
C89	C	1.411160	-0.339064	0.393400
C90	C	1.911160	0.160936	0.893400
C91	C	1.119217	-0.338993	0.598110
C92	C	1.619217	0.161007	1.098110
C93	C	1.119238	-0.338971	0.685359
C94	C	1.619238	0.161029	1.185359
C95	C	1.127507	-0.155467	0.385201
C96	C	1.627507	0.344533	0.885201
C97	C	1.131061	-0.077237	0.381720
C98	C	1.631061	0.422763	0.881720
C99	C	1.119165	-0.339046	0.189420
C100	C	1.619165	0.160954	0.689420
C101	C	1.119305	-0.338869	0.102163
C102	C	1.619305	0.161131	0.602163
C103	C	1.171491	-0.293955	0.724353
C104	C	1.671491	0.206045	1.224353
C105	C	1.171501	-0.293931	0.806332
C106	C	1.671501	0.206069	1.306332
C107	C	1.119262	-0.338928	0.849316
C108	C	1.619262	0.161072	1.349316
C109	C	1.067004	-0.383946	0.810317
C110	C	1.567004	0.116054	1.310317
C111	C	1.066990	-0.383965	0.728339
C112	C	1.566990	0.116035	1.228339
C113	C	1.067038	-0.383904	0.981185
C114	C	1.567038	0.116096	1.481185
C115	C	1.067052	-0.383885	1.063169
C116	C	1.567052	0.116115	1.563169
C117	C	1.171549	-0.293870	1.059179
C118	C	1.671549	0.206130	1.559179
C119	C	1.171535	-0.293889	0.977201
C120	C	1.671535	0.206111	1.477201
C121	C	1.119277	-0.338908	0.938207
C122	C	1.619277	0.161092	1.438207
H123	H	0.675282	-0.257277	0.298808
H124	H	1.175282	0.242723	0.798808
N125	N	0.574143	-0.432737	0.501739
N126	N	1.074143	0.067263	1.001739
H127	H	0.609466	-0.404173	0.536889
H128	H	1.109466	0.095827	1.036889
H129	H	0.606623	-0.465306	0.471172
H130	H	1.106623	0.034694	0.971172
N131	N	1.033309	-0.927357	0.479230
N132	N	1.533309	-0.427357	0.979230
H133	H	1.066541	-0.896815	0.514269
H134	H	1.566541	-0.396815	1.014269
H135	H	0.999966	-0.961845	0.512496
H136	H	1.499966	-0.461845	1.012496
N137	N	1.227916	-0.245314	1.101231
N138	N	1.727916	0.254686	1.601231
H139	H	1.219997	-0.252126	1.159686
H140	H	1.719997	0.247874	1.659686
H141	H	1.217985	-0.195050	1.084661
H142	H	1.717985	0.304950	1.584661
N143	N	0.403755	-0.432754	0.501757
N144	N	0.903755	0.067246	1.001757
H145	H	0.345908	-0.425918	0.493857
H146	H	0.845908	0.074082	0.993857
H147	H	0.418605	-0.421866	0.557352
H148	H	0.918605	0.078134	1.057352
N149	N	0.826994	-0.432722	0.501707
N150	N	1.326994	0.067278	1.001707
H151	H	0.885454	-0.425883	0.493792
H152	H	1.385454	0.074117	0.993792
H153	H	0.810382	-0.482974	0.491638
H154	H	1.310382	0.017026	0.991638
N155	N	1.235347	-1.080103	0.277594
N156	N	1.735347	-0.580103	0.777594
H157	H	1.223754	-1.067354	0.220924
H158	H	1.723754	-0.567354	0.720924
H159	H	1.225391	-1.132234	0.287611
H160	H	1.725391	-0.632234	0.787611
N161	N	1.010626	-0.432511	0.686276
N162	N	1.510626	0.067489	1.186276
H163	H	0.977533	-0.461013	0.725944
H164	H	1.477533	0.038987	1.225944
H165	H	1.041086	-0.465095	0.653713
H166	H	1.541086	0.034905	1.153713
N167	N	1.010652	-0.432463	0.856686
N168	N	1.510652	0.067537	1.356686
H169	H	1.041071	-0.465074	0.892159
H170	H	1.541071	0.034926	1.392159
H171	H	0.977551	-0.460936	0.819498
H172	H	1.477551	0.039064	1.319498
N173	N	1.010711	-0.432416	1.109533
N174	N	1.510711	0.067584	1.609533
H175	H	0.977600	-0.460935	1.072393
H176	H	1.477600	0.039065	1.572393
H177	H	0.975698	-0.403752	1.142268
H178	H	1.475698	0.096248	1.642268
N179	N	1.211948	-0.597242	0.300658
N180	N	1.711948	-0.097242	0.800658
H181	H	1.206645	-0.545101	0.305921
H182	H	1.706645	-0.045101	0.805921
H183	H	1.199194	-0.610135	0.245164
H184	H	1.699194	-0.110135	0.745164
H185	H	1.192313	-0.740304	0.320346
H186	H	1.692313	-0.240304	0.820346
N187	N	0.412142	-0.245398	0.285030
N188	N	0.912142	0.254602	0.785030
H189	H	0.376837	-0.273976	0.249876
H190	H	0.876837	0.226024	0.749876
H191	H	0.451887	-0.216863	0.252060
H192	H	0.951887	0.283137	0.752060
H193	H	1.228414	-0.937045	0.284416
H194	H	1.728414	-0.437045	0.784416
H195	H	1.040242	-1.070418	0.472424
H196	H	1.540242	-0.570418	0.972424
H197	H	1.010059	-0.740332	0.502345
H198	H	1.510059	-0.240332	1.002345
H199	H	1.015978	-0.606976	0.496348
H200	H	1.515978	-0.106976	0.996348
H201	H	1.214032	-0.257315	0.689361
H202	H	1.714032	0.242685	1.189361
N203	N	1.227844	-0.245365	0.848391
N204	N	1.727844	0.254635	1.348391
H205	H	1.260934	-0.216862	0.808721
H206	H	1.760934	0.283138	1.308721
H207	H	1.262878	-0.273996	0.883695
H208	H	1.762878	0.226004	1.383695
N209	N	0.582538	-0.245369	0.285037
N210	N	1.082538	0.254631	0.785037
H211	H	0.545410	-0.216821	0.252017
H212	H	1.045410	0.283179	0.752017
H213	H	0.615241	-0.273976	0.249931
H214	H	1.115241	0.226024	0.749931
H215	H	1.214077	-0.257253	0.942205
H216	H	1.714077	0.242747	1.442205
H217	H	0.667972	-0.420818	0.487948
H218	H	1.167972	0.079182	0.987948
N219	N	0.835389	-0.245353	0.285014
N220	N	1.335389	0.254647	0.785014
H221	H	0.798262	-0.216804	0.251996
H222	H	1.298262	0.283196	0.751996
H223	H	0.868095	-0.273954	0.249906
H224	H	1.368095	0.226046	0.749906
H225	H	1.024472	-0.420552	0.949438
H226	H	1.524472	0.079448	1.449438
