data_functionalizedCrystal
_audit_creation_method	'MofGen! by Chris Wilmer'
_symmetry_space_group_name_H-M	'P1'
_symmetry_Int_Tables_number	1
_symmetry_cell_setting	triclinic
loop_
_symmetry_equiv_pos_as_xyz
  x,y,z
_cell_length_a	14.044220
_cell_length_b	14.044220
_cell_length_c	9.798715
_cell_angle_alpha	89.995876
_cell_angle_beta	90.001156
_cell_angle_gamma	93.188878
loop_
_atom_site_label
_atom_site_type_symbol
_atom_site_fract_x
_atom_site_fract_y
_atom_site_fract_z
O1	O	1.277167	0.230165	-0.113351
O2	O	1.000495	0.221860	-0.113386
O3	O	1.134678	0.087677	-0.113355
O4	O	1.142984	0.364348	-0.113381
O5	O	1.134667	0.087676	0.113627
O6	O	1.000485	0.221858	0.113597
O7	O	1.277156	0.230164	0.113631
Zn8	Zn	1.138819	0.226011	0.149652
Zn9	Zn	1.138833	0.226013	-0.149407
O10	O	1.142973	0.364347	0.113601
C11	C	0.964868	0.218223	0.000101
C12	C	0.858725	0.207379	0.000088
C13	C	0.664388	0.187553	0.000117
C14	C	0.613258	0.264467	0.000116
C15	C	0.505122	0.253435	0.000132
C16	C	0.772534	0.198583	0.000101
C17	C	1.131037	0.052054	0.000136
C18	C	1.120193	-0.054088	0.000136
C19	C	1.100366	-0.248426	0.000114
C20	C	1.177281	-0.299556	0.000119
C21	C	1.166249	-0.407692	0.000107
C22	C	1.111397	-0.140280	0.000126
C23	C	1.312783	0.233800	0.000141
C24	C	1.418926	0.244645	0.000145
C25	C	1.146614	0.399969	0.000107
C26	C	1.157459	0.506112	0.000097
N27	N	1.138816	0.226010	0.353752
N28	N	1.138843	0.226007	-0.353506
C29	C	1.195135	0.169402	0.421541
C30	C	1.195150	0.169399	0.578704
H31	H	0.650697	0.338600	0.000102
H32	H	1.026239	-0.285863	0.000101
Cl33	Cl	1.291738	-0.241757	0.000148
Cl34	Cl	1.269332	0.094343	0.331520
H35	H	0.626951	0.113425	0.000132
Cl36	Cl	1.269603	0.094575	0.668703
Cl37	Cl	1.064380	0.300832	0.443774
H38	H	1.090627	0.274478	0.588206
