data_functionalizedCrystal
_audit_creation_method	'MofGen! by Chris Wilmer'
_symmetry_space_group_name_H-M	'P1'
_symmetry_Int_Tables_number	1
_symmetry_cell_setting	triclinic
loop_
_symmetry_equiv_pos_as_xyz
  x,y,z
_cell_length_a	17.077404
_cell_length_b	18.101395
_cell_length_c	17.077396
_cell_angle_alpha	89.971698
_cell_angle_beta	89.982756
_cell_angle_gamma	90.031329
loop_
_atom_site_label
_atom_site_type_symbol
_atom_site_fract_x
_atom_site_fract_y
_atom_site_fract_z
Zn1	Zn	1.199992	-0.294819	-0.443848
Zn2	Zn	1.199886	-0.418670	-0.312585
Zn3	Zn	1.068729	-0.294847	-0.312596
Zn4	Zn	1.068673	-0.418624	-0.443808
O5	O	1.134320	-0.356740	-0.378209
O6	O	1.309825	-0.311256	-0.426448
O7	O	1.182466	-0.402275	-0.202739
O8	O	1.086210	-0.191210	-0.330029
O9	O	1.309747	-0.402248	-0.330009
O10	O	1.182648	-0.191190	-0.426459
O11	O	1.086106	-0.311303	-0.202748
O12	O	0.958875	-0.311259	-0.329990
O13	O	1.086114	-0.402170	-0.553660
O14	O	0.958834	-0.402197	-0.426391
O15	O	1.182594	-0.311211	-0.553690
O16	O	1.182412	-0.522296	-0.329970
O17	O	1.086011	-0.522263	-0.426379
C18	C	0.930372	-0.356726	-0.378188
C19	C	0.843123	-0.356738	-0.378197
C20	C	1.134215	-0.549150	-0.378186
C21	C	1.134242	-0.631464	-0.378203
C22	C	0.802131	-0.404162	-0.428312
C23	C	0.720151	-0.404163	-0.428325
C24	C	0.679163	-0.356745	-0.378218
C25	C	0.720160	-0.309317	-0.328100
C26	C	0.802139	-0.309312	-0.328092
C27	C	0.549290	-0.309331	-0.328119
C28	C	0.467305	-0.309337	-0.328126
C29	C	0.467302	-0.404183	-0.428352
C30	C	0.549281	-0.404178	-0.428344
C31	C	0.590272	-0.356750	-0.378225
C32	C	1.134414	-0.930555	-0.378245
C33	C	1.073902	-0.899240	-0.439054
C34	C	1.073614	-0.813622	-0.438863
C35	C	1.134329	-0.782173	-0.378225
C36	C	1.111935	-0.813326	-0.295495
C37	C	1.111545	-0.898971	-0.295859
C38	C	1.217453	-0.898898	-0.399437
C39	C	1.216965	-0.813247	-0.401252
C40	C	1.134282	-0.698313	-0.378208
C41	C	1.134459	-1.014415	-0.378256
C42	C	1.339064	-0.356754	-0.378231
C43	C	1.426314	-0.356760	-0.378241
C44	C	1.134360	-0.356682	-0.582954
C45	C	1.134376	-0.356658	-0.670203
C46	C	1.134447	-0.163578	-0.378250
C47	C	1.134501	-0.081264	-0.378267
C48	C	1.084217	-0.309283	-0.711197
C49	C	1.084230	-0.309266	-0.793178
C50	C	1.134407	-0.356621	-0.834163
C51	C	1.184568	-0.404001	-0.793163
C52	C	1.184551	-0.404021	-0.711184
C53	C	1.184602	-0.403955	-0.964033
C54	C	1.184621	-0.403934	-1.046018
C55	C	1.084281	-0.309200	-1.046027
C56	C	1.084264	-0.309220	-0.964048
C57	C	1.134427	-0.356599	-0.923054
C58	C	1.134326	-0.356744	-0.174261
C59	C	1.134461	-0.356559	-0.087012
H60	H	0.686780	-0.442780	-0.469133
H61	H	1.087625	-0.792557	-0.500206
N62	N	1.033002	-0.260878	-0.835069
N63	N	0.982973	-0.286914	-0.880806
H64	H	0.946793	-0.252738	-0.910395
H65	H	1.225402	-0.442593	-0.677808
H66	H	1.225457	-0.442530	-0.930659
N67	N	1.164409	-0.924976	-0.237066
N68	N	1.139698	-0.964581	-0.182397
H69	H	1.177026	-0.982948	-0.140871
H70	H	1.225419	-0.442562	-0.826540
H71	H	0.835498	-0.442778	-0.469113
N72	N	1.165475	-0.787785	-0.237092
N73	N	1.204702	-0.833158	-0.198302
H74	H	1.242515	-0.815119	-0.157054
N75	N	0.591153	-0.452606	-0.479532
N76	N	0.636934	-0.426606	-0.529594
H77	H	0.666508	-0.460808	-0.565747
N78	N	1.036594	-0.786495	-0.272575
N79	N	0.999263	-0.744440	-0.317026
H80	H	0.946052	-0.725490	-0.300843
N81	N	1.235900	-0.452290	-1.087873
N82	N	1.280693	-0.494579	-1.051264
H83	H	1.316918	-0.528724	-1.080823
H84	H	0.433923	-0.442798	-0.469163
H85	H	0.835513	-0.270691	-0.287287
H86	H	1.012064	-0.793199	-0.424826
N87	N	1.033025	-0.260807	-1.087885
N88	N	0.988229	-0.218529	-1.051282
H89	H	0.952032	-0.184351	-1.080846
H90	H	0.433935	-0.270716	-0.287333
H91	H	0.686781	-0.270705	-0.287305
H92	H	0.582662	-0.270704	-0.287314
N93	N	1.035405	-0.924135	-0.273337
N94	N	1.027382	-0.963754	-0.213901
H95	H	0.973606	-0.981525	-0.197995
H96	H	1.043409	-0.270656	-0.930680
N97	N	1.091352	-0.925006	-0.516250
N98	N	1.091570	-0.992738	-0.530463
H99	H	1.103915	-1.010933	-0.584984
N100	N	0.997161	-0.926327	-0.421663
N101	N	0.986841	-0.968595	-0.364680
H102	H	0.932644	-0.987728	-0.352395
H103	H	1.233852	-0.792883	-0.462136
N104	N	1.243061	-0.925936	-0.473824
N105	N	1.200416	-0.968872	-0.512126
H106	H	1.218494	-0.987970	-0.564664
H107	H	1.264434	-0.791835	-0.360190
N108	N	1.274003	-0.924301	-0.343870
N109	N	1.253346	-0.965539	-0.288877
H110	H	1.293278	-0.983482	-0.249629
N111	N	1.032966	-0.260897	-0.669348
N112	N	0.988187	-0.218600	-0.705964
H113	H	0.951989	-0.184424	-0.676411
