data_functionalizedCrystal
_audit_creation_method	'MofGen! by Chris Wilmer'
_symmetry_space_group_name_H-M	'P1'
_symmetry_Int_Tables_number	1
_symmetry_cell_setting	triclinic
loop_
_symmetry_equiv_pos_as_xyz
  x,y,z
_cell_length_a	12.759401
_cell_length_b	16.625546
_cell_length_c	12.759393
_cell_angle_alpha	89.963756
_cell_angle_beta	89.980163
_cell_angle_gamma	90.023993
loop_
_atom_site_label
_atom_site_type_symbol
_atom_site_fract_x
_atom_site_fract_y
_atom_site_fract_z
Zn1	Zn	1.606198	-0.320921	-0.593986
Zn2	Zn	1.606069	-0.455778	-0.418292
Zn3	Zn	1.430500	-0.320966	-0.418322
Zn4	Zn	1.430465	-0.455719	-0.593930
O5	O	1.518308	-0.388346	-0.506132
O6	O	1.753202	-0.338816	-0.570692
O7	O	1.582740	-0.437938	-0.271275
O8	O	1.453876	-0.208128	-0.441660
O9	O	1.753107	-0.437894	-0.441610
O10	O	1.582960	-0.208094	-0.570720
O11	O	1.453751	-0.338893	-0.271297
O12	O	1.283475	-0.338836	-0.441605
O13	O	1.453816	-0.437794	-0.740958
O14	O	1.283449	-0.437838	-0.570623
O15	O	1.582926	-0.338758	-0.741000
O16	O	1.582706	-0.568602	-0.441555
O17	O	1.453690	-0.568559	-0.570595
C18	C	1.245341	-0.388336	-0.506112
C19	C	1.128564	-0.388351	-0.506128
C20	C	1.073716	-0.439980	-0.573202
C21	C	0.963992	-0.439983	-0.573223
C22	C	0.963974	-0.336726	-0.439086
C23	C	1.073696	-0.336720	-0.439071
C24	C	1.518209	-0.597837	-0.506088
C25	C	1.518262	-0.687458	-0.506105
C26	C	1.518446	-1.015633	-0.506214
C27	C	1.518391	-0.924325	-0.506187
C28	C	1.518353	-0.851549	-0.506159
C29	C	1.518300	-0.760234	-0.506132
C30	C	1.792341	-0.388356	-0.506154
C31	C	1.909118	-0.388361	-0.506163
C32	C	1.518382	-0.388264	-0.780166
C33	C	1.518413	-0.388230	-0.896943
C34	C	1.518437	-0.178037	-0.506200
C35	C	1.518491	-0.088416	-0.506228
C36	C	1.451272	-0.336647	-0.951815
C37	C	1.451297	-0.336623	-1.061539
C38	C	1.585611	-0.439765	-1.061509
C39	C	1.585581	-0.439793	-0.951786
C40	C	1.518296	-0.388369	-0.233165
C41	C	1.518468	-0.388177	-0.116389
H42	H	0.919340	-0.482023	-0.627843
C43	C	1.659493	-0.496487	-1.121831
C44	C	1.778930	-0.489933	-1.106750
C45	C	1.852813	-0.546661	-1.167065
C46	C	1.807259	-0.609943	-1.242461
C47	C	1.687816	-0.616500	-1.257546
C48	C	1.613933	-0.559773	-1.197230
H49	H	1.812658	-0.443085	-1.050934
H50	H	1.941232	-0.541806	-1.155899
H51	H	1.861951	-0.651936	-1.287110
H52	H	1.654088	-0.663348	-1.313361
H53	H	1.525513	-0.564627	-1.208397
H54	H	1.118387	-0.482020	-0.627806
H55	H	1.118354	-0.294673	-0.384451
C56	C	0.903611	-0.279941	-0.365322
C57	C	0.828224	-0.216688	-0.411010
C58	C	0.767862	-0.159903	-0.337243
C59	C	0.782887	-0.166370	-0.217789
C60	C	0.858277	-0.229626	-0.172095
C61	C	0.918639	-0.286411	-0.245862
H62	H	0.817099	-0.211898	-0.499442
H63	H	0.712054	-0.113077	-0.371069
H64	H	0.738203	-0.124335	-0.163182
H65	H	0.869402	-0.234416	-0.083663
H66	H	0.974447	-0.333236	-0.212036
H67	H	1.396579	-0.294661	-0.907165
C68	C	1.377444	-0.279877	-1.121898
C69	C	1.258000	-0.286447	-1.106793
C70	C	1.184143	-0.229699	-1.167151
C71	C	1.229731	-0.166382	-1.242614
C72	C	1.349181	-0.159810	-1.257722
C73	C	1.423038	-0.216557	-1.197364
H74	H	1.224248	-0.333320	-1.050928
H75	H	1.095718	-0.234565	-1.155967
H76	H	1.175057	-0.124374	-1.287294
H77	H	1.382933	-0.112936	-1.313587
H78	H	1.511463	-0.211692	-1.208549
H79	H	1.640257	-0.481801	-0.907108
