data_functionalizedCrystal
_audit_creation_method	'MofGen! by Chris Wilmer'
_symmetry_space_group_name_H-M	'P1'
_symmetry_Int_Tables_number	1
_symmetry_cell_setting	triclinic
loop_
_symmetry_equiv_pos_as_xyz
  x,y,z
_cell_length_a	16.109296
_cell_length_b	11.892095
_cell_length_c	16.109301
_cell_angle_alpha	86.113381
_cell_angle_beta	96.539615
_cell_angle_gamma	86.104202
loop_
_atom_site_label
_atom_site_type_symbol
_atom_site_fract_x
_atom_site_fract_y
_atom_site_fract_z
O1	O	-1.108449	0.093953	0.101532
O2	O	-0.775116	0.427287	0.434865
O3	O	-0.441783	0.760620	0.768199
O4	O	-0.866387	0.093968	0.114835
O5	O	-0.533054	0.427301	0.448168
O6	O	-0.199721	0.760634	0.781502
O7	O	-0.994067	0.093948	-0.012847
O8	O	-0.660734	0.427282	0.320486
O9	O	-0.327401	0.760615	0.653820
O10	O	-0.980769	0.093972	0.229214
O11	O	-0.647436	0.427306	0.562547
O12	O	-0.314103	0.760639	0.895881
O13	O	-0.983422	-0.094057	-0.002217
O14	O	-0.650088	0.239276	0.331116
O15	O	-0.316755	0.572609	0.664449
O16	O	-0.855742	-0.094038	0.125465
O17	O	-0.522408	0.239295	0.458798
O18	O	-0.189075	0.572628	0.792131
O19	O	-1.097803	-0.094053	0.112161
O20	O	-0.764470	0.239281	0.445495
O21	O	-0.431137	0.572614	0.778828
Zn22	Zn	-0.975082	-0.123895	0.120501
Zn23	Zn	-0.641749	0.209438	0.453834
Zn24	Zn	-0.308416	0.542771	0.787167
Zn25	Zn	-0.989109	0.123810	0.106496
Zn26	Zn	-0.655775	0.457144	0.439829
Zn27	Zn	-0.322442	0.790477	0.773163
O28	O	-0.970124	-0.094034	0.239844
O29	O	-0.636790	0.239300	0.573177
O30	O	-0.303457	0.572633	0.906510
C31	C	-0.830090	-0.000034	0.119612
C32	C	-0.496756	0.333300	0.452945
C33	C	-0.163423	0.666633	0.786278
C34	C	-0.737794	-0.000029	0.117998
C35	C	-0.404461	0.333305	0.451331
C36	C	-0.071128	0.666638	0.784665
C37	C	-0.428795	-0.000044	0.188488
C38	C	-0.095461	0.333290	0.521822
C39	C	0.237872	0.666623	0.855155
C40	C	-0.515515	-0.000036	0.190011
C41	C	-0.182182	0.333297	0.523345
C42	C	0.151151	0.666630	0.856678
C43	C	-0.535389	-0.000036	0.038522
C44	C	-0.202055	0.333297	0.371856
C45	C	0.131278	0.666631	0.705189
C46	C	-0.448670	-0.000035	0.037000
C47	C	-0.115336	0.333298	0.370333
C48	C	0.217997	0.666631	0.703666
C49	C	-0.395374	-0.000045	0.111985
C50	C	-0.062041	0.333288	0.445319
C51	C	0.271292	0.666622	0.778652
C52	C	-0.568814	-0.000038	0.115031
C53	C	-0.235481	0.333295	0.448365
C54	C	0.097853	0.666628	0.781698
C55	C	-0.662841	-0.000030	0.116682
C56	C	-0.329507	0.333303	0.450016
C57	C	0.003826	0.666636	0.783349
C58	C	-0.301342	-0.000051	0.110334
C59	C	0.031992	0.333282	0.443668
C60	C	0.365325	0.666616	0.777001
N61	N	-0.965516	-0.292948	0.130058
N62	N	-0.632183	0.040385	0.463391
N63	N	-0.298849	0.373719	0.796725
C64	C	-1.065249	-0.529611	0.030379
C65	C	-0.731916	-0.196278	0.363713
C66	C	-0.398582	0.137056	0.697046
C67	C	-1.058568	-0.647952	0.037066
C68	C	-0.725235	-0.314618	0.370399
C69	C	-0.391902	0.018715	0.703733
C70	C	-0.945470	-0.647973	0.150113
C71	C	-0.612137	-0.314640	0.483447
C72	C	-0.278803	0.018694	0.816780
C73	C	-0.952151	-0.529632	0.143427
C74	C	-0.618818	-0.196299	0.476760
C75	C	-0.285484	0.137035	0.810093
C76	C	-1.012043	-0.470455	0.083559
C77	C	-0.678710	-0.137122	0.416892
C78	C	-0.345377	0.196211	0.750225
C79	C	-1.018727	-0.352112	0.076877
C80	C	-0.685394	-0.018779	0.410210
C81	C	-0.352061	0.314555	0.743543
C82	C	-0.905626	-0.352135	0.189919
C83	C	-0.572292	-0.018802	0.523253
C84	C	-0.238959	0.314531	0.856586
C85	C	-0.898945	-0.470476	0.196606
C86	C	-0.565612	-0.137143	0.529939
C87	C	-0.232278	0.196190	0.863273
C88	C	-0.134101	-0.000051	0.107390
C89	C	0.199233	0.333282	0.440723
C90	C	0.532566	0.666616	0.774057
C91	C	-0.226394	-0.000055	0.109019
C92	C	0.106939	0.333279	0.442352
C93	C	0.440273	0.666612	0.775685
C94	C	-0.988206	-0.000055	-0.038507
C95	C	-0.654872	0.333278	0.294826
C96	C	-0.321539	0.666612	0.628160
C97	C	-0.986590	-0.000057	-0.130802
C98	C	-0.653257	0.333277	0.202531
C99	C	-0.319924	0.666610	0.535865
N100	N	-0.998682	0.292863	0.096932
N101	N	-0.665348	0.626196	0.430265
N102	N	-0.332015	0.959530	0.763599
C103	C	-1.058599	-0.000043	-0.353077
C104	C	-0.725266	0.333290	-0.019743
C105	C	-0.391932	0.666624	0.313590
C106	C	-1.057076	-0.000033	-0.439798
C107	C	-0.723742	0.333300	-0.106464
C108	C	-0.390409	0.666633	0.226869
C109	C	-0.905587	-0.000029	-0.419921
C110	C	-0.572253	0.333304	-0.086587
C111	C	-0.238920	0.666638	0.246746
C112	C	-0.907112	-0.000030	-0.333202
C113	C	-0.573778	0.333303	0.000131
C114	C	-0.240445	0.666636	0.333465
C115	C	-0.983620	-0.000043	-0.299782
C116	C	-0.650287	0.333290	0.033551
C117	C	-0.316953	0.666624	0.366885
C118	C	-0.980572	-0.000032	-0.473222
C119	C	-0.647238	0.333301	-0.139888
C120	C	-0.313905	0.666634	0.193445
C121	C	-0.978919	-0.000022	-0.567248
C122	C	-0.645586	0.333311	-0.233915
C123	C	-0.312252	0.666645	0.099418
C124	C	-0.985273	-0.000051	-0.205750
C125	C	-0.651940	0.333282	0.127584
C126	C	-0.318606	0.666616	0.460917
C127	C	-0.975985	-0.000028	0.265503
C128	C	-0.642652	0.333306	0.598837
C129	C	-0.309319	0.666639	0.932170
C130	C	-0.977601	-0.000019	0.357798
C131	C	-0.644268	0.333315	0.691132
C132	C	-0.310934	0.666648	1.024465
H133	H	-1.114021	-0.481428	-0.018362
H134	H	-0.780688	-0.148095	0.314971
H135	H	-0.447355	0.185238	0.648305
N136	N	-0.848225	-0.288341	0.247279
N137	N	-0.514892	0.044992	0.580613
N138	N	-0.181558	0.378326	0.913946
H139	H	-0.856621	-0.308934	0.307453
H140	H	-0.523287	0.024399	0.640786
H141	H	-0.189954	0.357733	0.974119
H142	H	-0.861569	-0.204411	0.233894
H143	H	-0.528236	0.128922	0.567227
H144	H	-0.194902	0.462255	0.900560
H145	H	-0.421460	-0.000033	-0.025302
H146	H	-0.088127	0.333301	0.308031
H147	H	0.245207	0.666634	0.641364
N148	N	-0.551552	-0.000041	0.272531
N149	N	-0.218218	0.333293	0.605864
N150	N	0.115115	0.666626	0.939197
H151	H	-0.583147	-0.069732	0.280477
H152	H	-0.249814	0.263602	0.613810
H153	H	0.083519	0.596935	0.947144
H154	H	-0.590990	0.069702	0.272555
H155	H	-0.257657	0.403035	0.605889
H156	H	0.075677	0.736369	0.939222
N157	N	-0.371314	-0.000031	0.269362
N158	N	-0.037981	0.333302	0.602695
N159	N	0.295352	0.666635	0.936029
H160	H	-0.311306	-0.000032	0.256792
H161	H	0.022028	0.333301	0.590125
H162	H	0.355361	0.666634	0.923458
H163	H	-0.378189	-0.069724	0.306644
H164	H	-0.044856	0.263609	0.639978
H165	H	0.288478	0.596943	0.973311
H166	H	-1.067497	-0.303931	0.028131
H167	H	-0.734163	0.029402	0.361465
H168	H	-0.400830	0.362735	0.694798
H169	H	-1.101893	-0.696113	-0.006239
H170	H	-0.768559	-0.362780	0.327095
H171	H	-0.435226	-0.029447	0.660428
H172	H	-0.578792	-0.000031	-0.022528
H173	H	-0.245459	0.333302	0.310805
H174	H	0.087875	0.666636	0.644139
H175	H	-0.896702	-0.696170	0.198851
H176	H	-0.563368	-0.362837	0.532184
H177	H	-0.230035	-0.029503	0.865518
N178	N	-0.823070	-0.000020	-0.455966
N179	N	-0.489737	0.333313	-0.122633
N180	N	-0.156403	0.666647	0.210700
H181	H	-0.833480	-0.000023	-0.518989
H182	H	-0.500146	0.333310	-0.185656
H183	H	-0.166813	0.666643	0.147677
H184	H	-0.786317	-0.069716	-0.432530
H185	H	-0.452984	0.263617	-0.099197
H186	H	-0.119651	0.596951	0.234136
H187	H	-0.850180	-0.518672	0.245348
H188	H	-0.516846	-0.185338	0.578681
H189	H	-0.183513	0.147995	0.912014
N190	N	-1.141114	-0.000055	-0.317029
N191	N	-0.807781	0.333278	0.016305
N192	N	-0.474448	0.666612	0.349638
H193	H	-1.188382	-0.000052	-0.363953
H194	H	-0.855048	0.333282	-0.030620
H195	H	-0.521715	0.666615	0.302714
H196	H	-1.148992	0.069639	-0.285416
H197	H	-0.815658	0.402973	0.047917
H198	H	-0.482325	0.736306	0.381250
N199	N	-1.137947	-0.000050	-0.497277
N200	N	-0.804613	0.333284	-0.163943
N201	N	-0.471280	0.666617	0.169390
H202	H	-1.125375	-0.000044	-0.557285
H203	H	-0.792042	0.333289	-0.223952
H204	H	-0.458708	0.666623	0.109382
H205	H	-1.175237	0.069641	-0.490393
H206	H	-0.841904	0.402975	-0.157060
H207	H	-0.508571	0.736308	0.176274
N208	N	-0.826238	-0.000022	-0.275712
N209	N	-0.492905	0.333311	0.057621
N210	N	-0.159571	0.666644	0.390955
H211	H	-0.777538	-0.000022	-0.310040
H212	H	-0.444205	0.333312	0.023293
H213	H	-0.110872	0.666645	0.356626
H214	H	-0.819627	-0.069717	-0.235361
H215	H	-0.486294	0.263616	0.097972
H216	H	-0.152960	0.596950	0.431306
