data_functionalizedCrystal
_audit_creation_method	'MofGen! by Chris Wilmer'
_symmetry_space_group_name_H-M	'P1'
_symmetry_Int_Tables_number	1
_symmetry_cell_setting	triclinic
loop_
_symmetry_equiv_pos_as_xyz
  x,y,z
_cell_length_a	13.897449
_cell_length_b	25.639240
_cell_length_c	25.639234
_cell_angle_alpha	89.971713
_cell_angle_beta	89.987497
_cell_angle_gamma	90.033584
loop_
_atom_site_label
_atom_site_type_symbol
_atom_site_fract_x
_atom_site_fract_y
_atom_site_fract_z
Zn1	Zn	1.474498	-0.208191	-0.295615
Zn2	Zn	1.474380	-0.295613	-0.208168
Zn3	Zn	1.313218	-0.208195	-0.208190
Zn4	Zn	1.313126	-0.295598	-0.295569
O5	O	1.393806	-0.251899	-0.251886
O6	O	1.609464	-0.219792	-0.284025
O7	O	1.452991	-0.284025	-0.135006
O8	O	1.334699	-0.135029	-0.219815
O9	O	1.609377	-0.284021	-0.219778
O10	O	1.453191	-0.135026	-0.284046
O11	O	1.334585	-0.219799	-0.135022
O12	O	1.178224	-0.219784	-0.219771
O13	O	1.334544	-0.283995	-0.368741
O14	O	1.178157	-0.283999	-0.283968
O15	O	1.453103	-0.219778	-0.368774
O16	O	1.452902	-0.368776	-0.219734
O17	O	1.334430	-0.368765	-0.283947
C18	C	1.143191	-0.251891	-0.251867
C19	C	1.035977	-0.251900	-0.251872
C20	C	0.948908	-0.251902	-0.251881
C21	C	0.839675	-0.251906	-0.251897
C22	C	1.393669	-0.387742	-0.251845
C23	C	1.393699	-0.445856	-0.251845
C24	C	1.455535	-0.806179	-0.285391
C25	C	1.455563	-0.860783	-0.285401
O26	O	1.507976	-0.888986	-0.313882
N27	N	1.393939	-0.888138	-0.251936
C28	C	1.332276	-0.860886	-0.218462
O29	O	1.279862	-0.889168	-0.189998
C30	C	1.332243	-0.806283	-0.218454
C31	C	1.393878	-0.778931	-0.251918
C32	C	1.517164	-0.778826	-0.318852
C33	C	1.517137	-0.724226	-0.318841
C34	C	1.455480	-0.696978	-0.285368
C35	C	1.393851	-0.724330	-0.251906
C36	C	1.270576	-0.779032	-0.184983
C37	C	1.270548	-0.724425	-0.184978
C38	C	1.332183	-0.697073	-0.218442
C39	C	1.332167	-0.642481	-0.218422
N40	N	1.393791	-0.615126	-0.251887
C41	C	1.455447	-0.642374	-0.285360
C42	C	1.332348	-0.975557	-0.218481
C43	C	1.332385	-1.030159	-0.218485
C44	C	1.455671	-1.030052	-0.285426
C45	C	1.455638	-0.975449	-0.285418
C46	C	1.393972	-0.948202	-0.251946
C47	C	1.455386	-0.527709	-0.285333
C48	C	1.455356	-0.473104	-0.285318
C49	C	1.332066	-0.473216	-0.218379
C50	C	1.332100	-0.527816	-0.218393
C51	C	1.393762	-0.555062	-0.251874
O52	O	1.279778	-0.614244	-0.189958
O53	O	1.507844	-0.614086	-0.313824
C54	C	1.645398	-0.251908	-0.251904
C55	C	1.752612	-0.251911	-0.251912
C56	C	1.393826	-0.251884	-0.388259
C57	C	1.393835	-0.251878	-0.446373
C58	C	1.393969	-0.115526	-0.251938
C59	C	1.394038	-0.057412	-0.251961
C60	C	1.332166	-0.285251	-0.697543
C61	C	1.332149	-0.285262	-0.642939
O62	O	1.279623	-0.313689	-0.614682
N63	N	1.393872	-0.251836	-0.615647
C64	C	1.455609	-0.218392	-0.642962
O65	O	1.508107	-0.189961	-0.614734
C66	C	1.455620	-0.218378	-0.697565
C67	C	1.393900	-0.251810	-0.724854
C68	C	1.270450	-0.318680	-0.724832
C69	C	1.270468	-0.318669	-0.779433
C70	C	1.332202	-0.285228	-0.806744
C71	C	1.393918	-0.251799	-0.779455
C72	C	1.517351	-0.184931	-0.724879
C73	C	1.517357	-0.184920	-0.779486
C74	C	1.455637	-0.218352	-0.806776
C75	C	1.455671	-0.218347	-0.861367
N76	N	1.393948	-0.251774	-0.888659
C77	C	1.332214	-0.285214	-0.861348
C78	C	1.455579	-0.218423	-0.528291
C79	C	1.455573	-0.218439	-0.473689
C80	C	1.332112	-0.285309	-0.473670
C81	C	1.332123	-0.285295	-0.528273
C82	C	1.393856	-0.251850	-0.555583
C83	C	1.332258	-0.285188	-0.976013
C84	C	1.332284	-0.285176	-1.030618
C85	C	1.455742	-0.218304	-1.030633
C86	C	1.455719	-0.218318	-0.976032
C87	C	1.393969	-0.251762	-0.948723
O88	O	1.508167	-0.189933	-0.889658
O89	O	1.279716	-0.313636	-0.889582
C90	C	1.393841	-0.251876	-0.116043
C91	C	1.394019	-0.251735	-0.057929
H92	H	1.505550	-0.450835	-0.312568
C93	C	1.265574	-1.059947	-0.182171
C94	C	1.278800	-1.113599	-0.189331
C95	C	1.217272	-1.141053	-0.155885
H96	H	1.200713	-1.051082	-0.189757
H97	H	1.279742	-1.051045	-0.147036
H98	H	1.264626	-1.122498	-0.224459
H99	H	1.343648	-1.122479	-0.181741
H100	H	1.231440	-1.132152	-0.120749
H101	H	1.152415	-1.132185	-0.163474
H102	H	1.226244	-1.177460	-0.160735
H103	H	1.567372	-0.801006	-0.346113
H104	H	1.567322	-0.701959	-0.346091
C105	C	1.265038	-0.321671	-0.444105
C106	C	1.210997	-0.350954	-0.479686
C107	C	1.149213	-0.384458	-0.452470
H108	H	1.222950	-0.301727	-0.422807
H109	H	1.301882	-0.344485	-0.422809
H110	H	1.174157	-0.328143	-0.500973
H111	H	1.253061	-0.370909	-0.500986
H112	H	1.186056	-0.407273	-0.431174
H113	H	1.107131	-0.364510	-0.431172
H114	H	1.112546	-0.404334	-0.476607
H115	H	1.220386	-0.801293	-0.157733
C116	C	1.522542	-0.182195	-0.443970
C117	C	1.509336	-0.189363	-0.390303
C118	C	1.571012	-0.155982	-0.362912
H119	H	1.508519	-0.147045	-0.452871
H120	H	1.587370	-0.189847	-0.452886
H121	H	1.444523	-0.181707	-0.381390
H122	H	1.523366	-0.224506	-0.381386
H123	H	1.635840	-0.163634	-0.371829
H124	H	1.556983	-0.120834	-0.371818
H125	H	1.562066	-0.160844	-0.326497
C126	C	1.265054	-0.321507	-0.557966
C127	C	1.203281	-0.291896	-0.589327
C128	C	1.141489	-0.325237	-0.616690
H129	H	1.228198	-0.341436	-0.533936
H130	H	1.301902	-0.344276	-0.579294
H131	H	1.166436	-0.269136	-0.568000
H132	H	1.240110	-0.271967	-0.613366
H133	H	1.178337	-0.348006	-0.638018
H134	H	1.104640	-0.345165	-0.592656
H135	H	1.099575	-0.305151	-0.637974
H136	H	1.505826	-0.953182	-0.312668
H137	H	1.281919	-0.550088	-0.191140
C138	C	1.522435	-0.557191	-0.321706
C139	C	1.576409	-0.521541	-0.350996
C140	C	1.638194	-0.548679	-0.384502
H141	H	1.485626	-0.578493	-0.344521
H142	H	1.564559	-0.578475	-0.301748
H143	H	1.534291	-0.500265	-0.370953
H144	H	1.613238	-0.500237	-0.328195
H145	H	1.680318	-0.569964	-0.364543
H146	H	1.601377	-0.569981	-0.407313
H147	H	1.674829	-0.524495	-0.404375
H148	H	1.505984	-0.191099	-0.953812
H149	H	1.505874	-1.052248	-0.312682
H150	H	1.282135	-0.953375	-0.191220
C151	C	1.522726	-0.182094	-0.557846
C152	C	1.576790	-0.152837	-0.522252
C153	C	1.638662	-0.119370	-0.549455
H154	H	1.485975	-0.159257	-0.579153
H155	H	1.564789	-0.202079	-0.579131
H156	H	1.534732	-0.132853	-0.500976
H157	H	1.613560	-0.175660	-0.500944
H158	H	1.680725	-0.139355	-0.570741
H159	H	1.601904	-0.096536	-0.570762
H160	H	1.675358	-0.099519	-0.525310
H161	H	1.220329	-0.702243	-0.157722
H162	H	1.567611	-0.157707	-0.702670
C163	C	1.265161	-0.443531	-0.182097
C164	C	1.278315	-0.389859	-0.189265
C165	C	1.216684	-0.362496	-0.155859
H166	H	1.279260	-0.452430	-0.146953
H167	H	1.200325	-0.452474	-0.189725
H168	H	1.343136	-0.380919	-0.181633
H169	H	1.264210	-0.380944	-0.224402
H170	H	1.151848	-0.371438	-0.163488
H171	H	1.230788	-0.371399	-0.120717
H172	H	1.225594	-0.326076	-0.160722
H173	H	1.281966	-0.312417	-0.953785
C174	C	1.265162	-0.321494	-1.060151
C175	C	1.211076	-0.350770	-1.024542
C176	C	1.149226	-0.384225	-1.051726
H177	H	1.301929	-0.344320	-1.081448
H178	H	1.223112	-0.301500	-1.081445
H179	H	1.253121	-0.370763	-1.003257
H180	H	1.174289	-0.327958	-1.003244
H181	H	1.107175	-0.364230	-1.073020
H182	H	1.186000	-0.407047	-1.073023
H183	H	1.112515	-0.404089	-1.027570
C184	C	1.203615	-0.355035	-0.809080
C185	C	1.258194	-0.388556	-0.840408
C186	C	1.196639	-0.422071	-0.867715
H187	H	1.161587	-0.335096	-0.830428
H188	H	1.166872	-0.374979	-0.785000
H189	H	1.294919	-0.368614	-0.864485
H190	H	1.300219	-0.408506	-0.819073
H191	H	1.159897	-0.442015	-0.843635
H192	H	1.154614	-0.402128	-0.889060
H193	H	1.233662	-0.444822	-0.888970
C194	C	1.584492	-0.148587	-0.809042
C195	C	1.638551	-0.119324	-0.773452
C196	C	1.700414	-0.085855	-0.800658
H197	H	1.547735	-0.125753	-0.830350
H198	H	1.626558	-0.168571	-0.830327
H199	H	1.596489	-0.099341	-0.752176
H200	H	1.675327	-0.142143	-0.752142
H201	H	1.742481	-0.105839	-0.821943
H202	H	1.663650	-0.063025	-0.821966
H203	H	1.737107	-0.065999	-0.776514
C204	C	1.522660	-0.182018	-1.060386
C205	C	1.509437	-0.189157	-1.114045
C206	C	1.571051	-0.155732	-1.141470
H207	H	1.587500	-0.189637	-1.051504
H208	H	1.508569	-0.146878	-1.051478
H209	H	1.523534	-0.224288	-1.122948
H210	H	1.444609	-0.181534	-1.122942
H211	H	1.556960	-0.120592	-1.132563
H212	H	1.635888	-0.163353	-1.132584
H213	H	1.562082	-0.160567	-1.177881
C214	C	1.203384	-0.355050	-0.695280
C215	C	1.149364	-0.384327	-0.730877
C216	C	1.087585	-0.417847	-0.703677
H217	H	1.161282	-0.335118	-0.673979
H218	H	1.240229	-0.377868	-0.673990
H219	H	1.112522	-0.361512	-0.752158
H220	H	1.191441	-0.404269	-0.752180
H221	H	1.124430	-0.440665	-0.682387
H222	H	1.045489	-0.397911	-0.682376
H223	H	1.050931	-0.437719	-0.727825
