data_functionalizedCrystal
_audit_creation_method	'MofGen! by Chris Wilmer'
_symmetry_space_group_name_H-M	'P1'
_symmetry_Int_Tables_number	1
_symmetry_cell_setting	triclinic
loop_
_symmetry_equiv_pos_as_xyz
  x,y,z
_cell_length_a	16.109301
_cell_length_b	16.109301
_cell_length_c	14.586319
_cell_angle_alpha	89.994786
_cell_angle_beta	89.999213
_cell_angle_gamma	83.461481
loop_
_atom_site_label
_atom_site_type_symbol
_atom_site_fract_x
_atom_site_fract_y
_atom_site_fract_z
O1	O	1.103131	0.106866	-0.076185
O2	O	0.861069	0.120165	-0.076200
O3	O	0.988749	-0.007515	-0.076183
O4	O	0.975450	0.234547	-0.076203
O5	O	0.988741	-0.007517	0.076298
O6	O	0.861060	0.120164	0.076281
O7	O	1.103122	0.106864	0.076295
Cu8	Cu	0.982090	0.113514	0.090211
Cu9	Cu	0.982101	0.113516	-0.090115
O10	O	0.975441	0.234545	0.076278
C11	C	0.830090	0.119626	0.000038
C12	C	0.737794	0.118011	0.000033
C13	C	0.988206	-0.038491	0.000058
C14	C	0.986591	-0.130786	0.000059
C15	C	0.515522	0.190018	0.000038
C16	C	0.428801	0.188494	0.000044
C17	C	0.448676	0.037006	0.000052
C18	C	0.535394	0.038530	0.000053
C19	C	0.568815	0.115039	0.000041
C20	C	0.395376	0.111990	0.000046
C21	C	0.301350	0.110337	0.000053
C22	C	0.662847	0.116693	0.000036
C23	C	1.058599	-0.353059	0.000049
C24	C	1.057075	-0.439779	0.000041
C25	C	0.905586	-0.419905	0.000036
C26	C	0.907111	-0.333186	0.000037
C27	C	0.983620	-0.299766	0.000048
C28	C	0.980571	-0.473205	0.000039
C29	C	0.978918	-0.567231	0.000031
C30	C	0.985273	-0.205734	0.000055
C31	C	1.134101	0.107404	0.000055
C32	C	1.226397	0.109019	0.000054
C33	C	0.975984	0.265521	0.000035
C34	C	0.977600	0.357816	0.000028
N35	N	0.982089	0.113512	0.217042
N36	N	0.982109	0.113511	-0.216947
C37	C	1.038644	0.056994	0.452057
C38	C	1.038647	0.056992	0.548038
C39	C	0.925547	0.170032	0.548032
C40	C	0.925541	0.170030	0.452052
C41	C	0.982095	0.113511	0.404067
C42	C	0.982103	0.113512	0.596028
C43	C	0.982105	0.113510	0.700095
C44	C	0.982092	0.113512	0.299993
H45	H	0.385413	0.249550	0.000043
H46	H	0.542730	0.252317	0.000035
H47	H	0.421454	-0.025285	0.000067
O48	O	0.587051	-0.034386	0.000014
C49	C	0.538960	-0.102241	0.000039
H50	H	0.474231	-0.081127	-0.028832
H51	H	0.532792	-0.125696	0.073193
C52	C	0.661700	-0.199136	-0.024293
C53	C	0.582201	-0.173205	-0.059760
H54	H	0.688374	-0.242912	-0.061175
H55	H	0.694101	-0.153422	-0.024306
H56	H	0.656549	-0.218676	0.036669
H57	H	0.587354	-0.153656	-0.120715
H58	H	0.549802	-0.218918	-0.059758
O59	O	0.870574	0.225015	0.405572
C60	C	0.820651	0.274891	0.468504
H61	H	0.854738	0.275847	0.536919
H62	H	0.758901	0.247877	0.478721
C63	C	0.761620	0.363401	0.346998
C64	C	0.803489	0.364580	0.431025
H65	H	0.751030	0.418725	0.323879
H66	H	0.795252	0.329797	0.304599
H67	H	0.710166	0.340885	0.355524
H68	H	0.854946	0.387086	0.422496
H69	H	0.769866	0.398190	0.473422
O70	O	1.132989	-0.320731	0.000008
C71	C	1.198839	-0.386369	0.000027
H72	H	1.175544	-0.445269	-0.028839
H73	H	1.221970	-0.398654	0.073178
C74	C	1.299604	-0.289568	-0.024322
C75	C	1.270995	-0.361909	-0.059783
H76	H	1.344115	-0.274480	-0.061212
H77	H	1.255240	-0.245346	-0.024332
H78	H	1.318874	-0.299815	0.036637
H79	H	1.251716	-0.351658	-0.120736
H80	H	1.315357	-0.406129	-0.059785
H81	H	0.846050	-0.289792	0.000033
O82	O	1.129888	-0.491581	-0.000119
C83	C	1.133535	-0.542341	-0.079082
H84	H	1.091014	-0.510562	-0.134278
H85	H	1.112033	-0.605397	-0.061234
C86	C	1.276231	-0.594566	-0.047093
C87	C	1.224010	-0.555532	-0.114889
H88	H	1.332040	-0.602706	-0.069179
H89	H	1.273773	-0.560371	0.006108
H90	H	1.258302	-0.647109	-0.032226
H91	H	1.241933	-0.502986	-0.129747
H92	H	1.226473	-0.589718	-0.168094
O93	O	1.093604	0.002009	0.405585
C94	C	1.143529	-0.047862	0.468528
H95	H	1.109447	-0.048806	0.536949
H96	H	1.205282	-0.020851	0.478728
C97	C	1.202547	-0.136390	0.347048
C98	C	1.160683	-0.137556	0.431081
H99	H	1.213132	-0.191717	0.323948
H100	H	1.168914	-0.102790	0.304641
H101	H	1.254003	-0.113877	0.355559
H102	H	1.109224	-0.160059	0.422567
H103	H	1.194308	-0.171162	0.473486
H104	H	0.843295	-0.447127	0.000028
H105	H	1.084694	0.010969	0.587108
H106	H	0.879503	0.216049	0.587111
