data_functionalizedCrystal
_audit_creation_method	'MofGen! by Chris Wilmer'
_symmetry_space_group_name_H-M	'P1'
_symmetry_Int_Tables_number	1
_symmetry_cell_setting	triclinic
loop_
_symmetry_equiv_pos_as_xyz
  x,y,z
_cell_length_a	12.759401
_cell_length_b	18.050589
_cell_length_c	12.759401
_cell_angle_alpha	90.009545
_cell_angle_beta	90.002178
_cell_angle_gamma	90.028382
loop_
_atom_site_label
_atom_site_type_symbol
_atom_site_fract_x
_atom_site_fract_y
_atom_site_fract_z
Zn1	Zn	1.605987	-0.295767	0.593988
Zn2	Zn	2.105987	0.204233	1.093988
Zn3	Zn	1.605890	-0.419931	0.418311
Zn4	Zn	2.105890	0.080069	0.918311
Zn5	Zn	1.430339	-0.295760	0.418327
Zn6	Zn	1.930339	0.204240	0.918327
Zn7	Zn	1.430237	-0.419920	0.593952
Zn8	Zn	1.930237	0.080080	1.093952
O9	O	1.518113	-0.357845	0.506145
O10	O	2.018113	0.142155	1.006145
O11	O	1.752996	-0.312245	0.570692
O12	O	2.252996	0.187755	1.070692
O13	O	1.582606	-0.403462	0.271292
O14	O	2.082606	0.096538	0.771292
O15	O	1.453723	-0.191836	0.441651
O16	O	1.953723	0.308164	0.941651
O17	O	1.752924	-0.403468	0.441623
O18	O	2.252924	0.096532	0.941623
O19	O	1.582771	-0.191841	0.570708
O20	O	2.082771	0.308159	1.070708
O21	O	1.453629	-0.312234	0.271304
O22	O	1.953629	0.187766	0.771304
O23	O	1.283305	-0.312223	0.441616
O24	O	1.783305	0.187777	0.941616
O25	O	1.453548	-0.403449	0.740978
O26	O	1.953548	0.096551	1.240978
O27	O	1.283229	-0.403442	0.570647
O28	O	1.783229	0.096558	1.070647
O29	O	1.582671	-0.312234	0.741004
O30	O	2.082671	0.187766	1.241004
O31	O	1.582506	-0.523855	0.441588
O32	O	2.082506	-0.023855	0.941588
O33	O	1.453454	-0.523846	0.570631
O34	O	1.953454	-0.023846	1.070631
C35	C	1.245146	-0.357831	0.506130
C36	C	1.745146	0.142169	1.006130
C37	C	1.128369	-0.357843	0.506149
C38	C	1.628369	0.142157	1.006149
C39	C	1.073496	-0.405417	0.573224
C40	C	1.573496	0.094583	1.073224
C41	C	0.963772	-0.405427	0.573236
C42	C	1.463772	0.094573	1.073236
C43	C	0.963805	-0.310286	0.439088
C44	C	1.463805	0.189714	0.939088
C45	C	1.073527	-0.310273	0.439082
C46	C	1.573527	0.189727	0.939082
C47	C	1.073475	-0.460348	0.650671
C48	C	1.573475	0.039652	1.150671
C49	C	0.963751	-0.460358	0.650682
C50	C	1.463751	0.039642	1.150682
C51	C	1.517987	-0.550797	0.506127
C52	C	2.017987	-0.050797	1.006127
C53	C	1.518028	-0.633343	0.506155
C54	C	2.018028	-0.133343	1.006155
C55	C	1.447919	-0.832816	0.576304
C56	C	1.947919	-0.332816	1.076304
C57	C	1.422332	-0.882239	0.480436
C58	C	1.922332	-0.382239	0.980436
C59	C	1.518132	-0.784473	0.506168
C60	C	2.018132	-0.284473	1.006168
C61	C	1.543770	-0.882131	0.602048
C62	C	2.043770	-0.382131	1.102048
C63	C	1.518229	-0.930458	0.506190
C64	C	2.018229	-0.430458	1.006190
C65	C	1.492494	-0.832809	0.410249
C66	C	1.992494	-0.332809	0.910249
C67	C	1.613977	-0.832697	0.531926
C68	C	2.113977	-0.332697	1.031926
C69	C	1.588427	-0.882098	0.435992
C70	C	2.088427	-0.382098	0.935992
C71	C	1.518073	-0.700375	0.506157
C72	C	2.018073	-0.200375	1.006157
C73	C	1.518289	-1.014554	0.506190
C74	C	2.018289	-0.514554	1.006190
C75	C	1.792147	-0.357859	0.506159
C76	C	2.292147	0.142141	1.006159
C77	C	1.908923	-0.357865	0.506166
C78	C	2.408923	0.142135	1.006166
C79	C	1.518109	-0.357841	0.780178
C80	C	2.018109	0.142159	1.280178
C81	C	1.518107	-0.357839	0.896954
C82	C	2.018107	0.142161	1.396954
C83	C	1.518269	-0.164139	0.506185
C84	C	2.018269	0.335861	1.006185
C85	C	1.518336	-0.081593	0.506202
C86	C	2.018336	0.418407	1.006202
C87	C	1.585335	-0.310354	0.951832
C88	C	2.085335	0.189646	1.451832
C89	C	1.585329	-0.310355	1.061556
C90	C	2.085329	0.189645	1.561556
C91	C	1.450863	-0.405335	1.061516
C92	C	1.950863	0.094665	1.561516
C93	C	1.450865	-0.405329	0.951794
C94	C	1.950865	0.094671	1.451794
C95	C	1.662971	-0.255520	0.951856
C96	C	2.162971	0.244480	1.451856
C97	C	1.662965	-0.255522	1.061580
C98	C	2.162965	0.244478	1.561580
C99	C	1.518107	-0.357860	1.233177
C100	C	2.018107	0.142140	1.733177
C101	C	1.518099	-0.357847	1.116401
C102	C	2.018099	0.142153	1.616401
H103	H	1.103266	-0.445031	0.732077
H104	H	1.603266	0.054969	1.232077
H105	H	1.396118	-0.443994	0.907117
H106	H	1.896118	0.056006	1.407117
F107	F	1.666094	-0.910205	0.358394
F108	F	2.166094	-0.410205	0.858394
H109	H	0.929738	-0.439847	0.728033
H110	H	1.429738	0.060153	1.228033
H111	H	1.641230	-0.197999	0.922099
H112	H	2.141230	0.302001	1.422099
H113	H	0.933943	-0.517855	0.628751
H114	H	1.433943	-0.017855	1.128751
F115	F	1.624805	-0.184139	1.106087
F116	F	2.124805	0.315861	1.606087
F117	F	1.769304	-0.275658	1.100508
F118	F	2.269304	0.224342	1.600508
H119	H	0.919139	-0.271555	0.384485
H120	H	1.419139	0.228445	0.884485
H121	H	1.107480	-0.514948	0.621387
H122	H	1.607480	-0.014948	1.121387
H123	H	1.118201	-0.271529	0.384470
H124	H	1.618201	0.228471	0.884470
H125	H	1.740246	-0.276130	0.917820
H126	H	2.240246	0.223870	1.417820
H127	H	1.388455	-0.811175	0.635531
H128	H	1.888455	-0.311175	1.135531
H129	H	1.396115	-0.443998	1.106179
H130	H	1.896115	0.056002	1.606179
F131	F	1.316444	-0.910682	0.451961
F132	F	1.816444	-0.410682	0.951961
H133	H	1.470755	-0.811234	0.329152
H134	H	1.970755	-0.311234	0.829152
H135	H	1.565416	-0.903795	0.683123
H136	H	2.065416	-0.403795	1.183123
F137	F	1.719837	-0.804232	0.560436
F138	F	2.219837	-0.304232	1.060436
