data_functionalizedCrystal
_audit_creation_method	'MofGen! by Chris Wilmer'
_symmetry_space_group_name_H-M	'P1'
_symmetry_Int_Tables_number	1
_symmetry_cell_setting	triclinic
loop_
_symmetry_equiv_pos_as_xyz
  x,y,z
_cell_length_a	17.699083
_cell_length_b	14.971486
_cell_length_c	13.448316
_cell_angle_alpha	90.001801
_cell_angle_beta	89.992503
_cell_angle_gamma	96.551428
loop_
_atom_site_label
_atom_site_type_symbol
_atom_site_fract_x
_atom_site_fract_y
_atom_site_fract_z
O1	O	0.098633	-1.186608	-0.082580
O2	O	0.598633	-0.686608	0.417420
O3	O	0.110445	-0.926168	-0.082607
O4	O	0.610445	-0.426168	0.417393
O5	O	-0.005632	-1.063746	-0.082584
O6	O	0.494368	-0.563746	0.417416
O7	O	0.214710	-1.049030	-0.082603
O8	O	0.714710	-0.549030	0.417397
O9	O	-0.005639	-1.063729	0.082800
O10	O	0.494361	-0.563729	0.582800
O11	O	0.110438	-0.926150	0.082777
O12	O	0.610438	-0.426150	0.582777
O13	O	0.098626	-1.186591	0.082804
O14	O	0.598626	-0.686591	0.582804
Cu15	Cu	0.104531	-1.056369	0.097891
Cu16	Cu	0.604531	-0.556369	0.597891
Cu17	Cu	0.104540	-1.056390	-0.097694
Cu18	Cu	0.604540	-0.556390	0.402306
O19	O	0.214703	-1.049013	0.082781
O20	O	0.714703	-0.549013	0.582781
C21	C	-0.033834	-1.063210	0.000108
C22	C	0.466166	-0.563210	0.500108
C23	C	-0.117856	-1.061628	0.000109
C24	C	0.382144	-0.561628	0.500109
C25	C	0.109913	-0.892836	0.000082
C26	C	0.609913	-0.392836	0.500082
C27	C	0.108330	-0.793544	0.000071
C28	C	0.608330	-0.293544	0.500071
C29	C	0.099158	-1.219923	0.000114
C30	C	0.599158	-0.719923	0.500114
C31	C	0.100741	-1.319214	0.000117
C32	C	0.600741	-0.819214	0.500117
C33	C	-0.166278	-1.142384	0.000118
C34	C	0.333722	-0.642384	0.500118
C35	C	-0.245225	-1.140892	0.000110
C36	C	0.254775	-0.640892	0.500110
C37	C	-0.275748	-1.058644	0.000098
C38	C	0.224252	-0.558644	0.500098
C39	C	-0.227320	-0.977882	0.000085
C40	C	0.272680	-0.477882	0.500085
C41	C	-0.148374	-0.979375	0.000087
C42	C	0.351626	-0.479375	0.500087
C43	C	-0.545698	-0.971860	0.000076
C44	C	-0.045698	-0.471860	0.500076
C45	C	-0.624649	-0.970374	0.000077
C46	C	-0.124649	-0.470374	0.500077
C47	C	-0.642548	-1.133378	0.000099
C48	C	-0.142548	-0.633378	0.500099
C49	C	-0.563603	-1.134871	0.000101
C50	C	-0.063603	-0.634871	0.500101
C51	C	-0.515181	-1.054109	0.000083
C52	C	-0.015181	-0.554109	0.500083
C53	C	-0.429578	-1.055728	0.000090
C54	C	0.070422	-0.555728	0.500090
C55	C	-0.361350	-1.057024	0.000097
C56	C	0.138650	-0.557024	0.500097
C57	C	0.242905	-1.049549	0.000087
C58	C	0.742905	-0.549549	0.500087
C59	C	0.326927	-1.051131	0.000080
C60	C	0.826927	-0.551131	0.500080
N61	N	0.104525	-1.056361	0.235456
N62	N	0.604525	-0.556361	0.735456
C63	C	0.176522	-0.736085	0.000067
C64	C	0.676522	-0.236085	0.500067
C65	C	0.175030	-0.642790	0.000082
C66	C	0.675030	-0.142790	0.500082
C67	C	0.105346	-0.606958	0.000094
C68	C	0.605346	-0.106958	0.500094
C69	C	0.037148	-0.664425	0.000102
C70	C	0.537148	-0.164425	0.500102
C71	C	0.038641	-0.757717	0.000094
C72	C	0.538641	-0.257717	0.500094
C73	C	0.034042	-0.469973	0.000116
C74	C	0.534042	0.030027	0.500116
C75	C	0.032549	-0.376674	0.000122
C76	C	0.532549	0.123326	0.500122
C77	C	0.170431	-0.355046	0.000104
C78	C	0.670431	0.144954	0.500104
C79	C	0.171924	-0.448339	0.000096
C80	C	0.671924	0.051661	0.500096
C81	C	0.103726	-0.505799	0.000102
C82	C	0.603726	-0.005799	0.500102
N83	N	0.104540	-1.056404	-0.235258
N84	N	0.604540	-0.556404	0.264742
C85	C	0.053147	-1.117300	0.287506
C86	C	0.553147	-0.617300	0.787506
C87	C	0.053147	-1.117306	0.391610
C88	C	0.553147	-0.617306	0.891610
C89	C	0.104528	-1.056376	0.443660
C90	C	0.604528	-0.556376	0.943660
C91	C	0.155908	-0.995431	0.391602
C92	C	0.655908	-0.495431	0.891602
C93	C	0.155904	-0.995422	0.287501
C94	C	0.655904	-0.495422	0.787501
C95	C	0.155913	-0.995456	0.608582
C96	C	0.655913	-0.495456	1.108582
C97	C	0.155918	-0.995466	0.712691
C98	C	0.655918	-0.495466	1.212691
C99	C	0.053155	-1.117339	0.712691
C100	C	0.553155	-0.617339	1.212691
C101	C	0.053152	-1.117330	0.608590
C102	C	0.553152	-0.617330	1.108590
C103	C	0.104533	-1.056386	0.556539
C104	C	0.604533	-0.556386	1.056539
H105	H	-0.141433	-1.209360	0.000134
H106	H	0.358567	-0.709360	0.500134
C107	C	-0.044102	-0.337259	0.000141
C108	C	0.455898	0.162741	0.500141
H109	H	-0.084504	-0.384840	0.000157
H110	H	0.415496	0.115160	0.500157
H111	H	-0.047550	-0.301314	-0.057529
H112	H	0.452450	0.198686	0.442471
H113	H	-0.047545	-0.301316	0.057824
H114	H	0.452455	0.198684	0.557824
C115	C	-0.003374	-1.184322	0.230260
C116	C	0.496626	-0.684322	0.730260
H117	H	-0.033977	-1.220609	0.276173
H118	H	0.466023	-0.720609	0.776173
H119	H	0.023900	-1.221491	0.189636
H120	H	0.523900	-0.721491	0.689636
H121	H	-0.034930	-1.152208	0.189665
H122	H	0.465070	-0.652208	0.689665
C123	C	-0.039505	-0.625015	0.000114
C124	C	0.460495	-0.125015	0.500114
H125	H	-0.079904	-0.672601	0.000124
H126	H	0.420096	-0.172601	0.500124
H127	H	-0.042952	-0.589070	-0.057556
H128	H	0.457048	-0.089070	0.442444
H129	H	-0.042955	-0.589074	0.057797
H130	H	0.457045	-0.089074	0.557797
C131	C	-0.036370	-0.820923	0.000089
C132	C	0.463630	-0.320923	0.500089
H133	H	-0.078086	-0.786222	0.000087
H134	H	0.421914	-0.286222	0.500087
H135	H	-0.038659	-0.857771	0.057757
H136	H	0.461341	-0.357771	0.557757
H137	H	-0.038648	-0.857760	-0.057596
H138	H	0.461352	-0.357760	0.442404
H139	H	-0.252178	-0.910914	0.000069
H140	H	0.247822	-0.410914	0.500069
H141	H	0.233267	-0.765252	0.000056
H142	H	0.733267	-0.265252	0.500056
C143	C	0.250041	-0.579588	0.000074
C144	C	0.750041	-0.079588	0.500074
H145	H	0.291756	-0.614291	0.000053
H146	H	0.791756	-0.114291	0.500053
H147	H	0.252327	-0.542749	0.057750
H148	H	0.752327	-0.042749	0.557750
H149	H	0.252325	-0.542743	-0.057603
H150	H	0.752325	-0.042743	0.442397
H151	H	0.197751	-0.945826	0.566206
H152	H	0.697751	-0.445826	1.066206
C153	C	-0.530031	-1.225343	0.000109
C154	C	-0.030031	-0.725343	0.500109
H155	H	-0.570178	-1.273226	0.000104
H156	H	-0.070178	-0.773226	0.500104
H157	H	-0.499610	-1.229311	0.057781
H158	H	0.000390	-0.729311	0.557781
H159	H	-0.499603	-1.229314	-0.057572
H160	H	0.000397	-0.729314	0.442428
C161	C	-0.003362	-1.184346	0.448861
C162	C	0.496638	-0.684346	0.948861
H163	H	-0.033955	-1.220641	0.402952
H164	H	0.466045	-0.720641	0.902952
H165	H	-0.034918	-1.152256	0.489486
H166	H	0.465082	-0.652256	0.989486
H167	H	0.023930	-1.221519	0.489456
H168	H	0.523930	-0.721519	0.989456
C169	C	0.212405	-0.928382	0.448851
C170	C	0.712405	-0.428382	0.948851
H171	H	0.242992	-0.892074	0.402939
H172	H	0.742992	-0.392074	0.902939
H173	H	0.243968	-0.960461	0.489464
H174	H	0.743968	-0.460461	0.989464
H175	H	0.185100	-0.891223	0.489456
H176	H	0.685100	-0.391223	0.989456
C177	C	-0.003369	-1.184370	0.769942
C178	C	0.496631	-0.684370	1.269942
H179	H	0.003983	-1.175643	0.839396
H180	H	0.503983	-0.675643	1.339396
H181	H	0.004933	-1.244043	0.752875
H182	H	0.504933	-0.744043	1.252875
H183	H	-0.053898	-1.174762	0.752889
H184	H	0.446102	-0.674762	1.252889
H185	H	0.011317	-1.166948	0.566210
H186	H	0.511317	-0.666948	1.066210
C187	C	0.212387	-0.928389	0.769945
C188	C	0.712387	-0.428389	1.269945
H189	H	0.242967	-0.892067	0.724038
H190	H	0.742967	-0.392067	1.224038
H191	H	0.243961	-0.960439	0.810575
H192	H	0.743961	-0.460439	1.310575
H193	H	0.185054	-0.891248	0.810536
H194	H	0.685054	-0.391248	1.310536
H195	H	0.197740	-0.945799	0.245122
H196	H	0.697740	-0.445799	0.745122
H197	H	-0.284648	-1.206652	0.000120
H198	H	0.215352	-0.706652	0.500120
C199	C	-0.095107	-0.890546	0.000076
C200	C	0.404893	-0.390546	0.500076
H201	H	-0.043719	-0.903214	0.000068
H202	H	0.456281	-0.403214	0.500068
H203	H	-0.104369	-0.856802	0.057742
H204	H	0.395631	-0.356802	0.557742
H205	H	-0.104363	-0.856825	-0.057611
H206	H	0.395637	-0.356825	0.442389
C207	C	0.245449	-0.291848	0.000103
C208	C	0.745449	0.208152	0.500103
H209	H	0.287164	-0.326550	0.000082
H210	H	0.787164	0.173450	0.500082
H211	H	0.247735	-0.255008	0.057780
H212	H	0.747735	0.244992	0.557780
H213	H	0.247732	-0.255002	-0.057573
H214	H	0.747732	0.244998	0.442427
H215	H	-0.681983	-1.199138	0.000109
H216	H	-0.181983	-0.699138	0.500109
H217	H	-0.649498	-0.903394	0.000070
H218	H	-0.149498	-0.403394	0.500070
H219	H	-0.506282	-0.906099	0.000062
H220	H	-0.006282	-0.406099	0.500062
H221	H	0.228667	-0.477510	0.000076
H222	H	0.728667	0.022490	0.500076
H223	H	-0.021492	-0.516756	0.000122
H224	H	0.478508	-0.016756	0.500122
