data_functionalizedCrystal
_audit_creation_method	'MofGen! by Chris Wilmer'
_symmetry_space_group_name_H-M	'P1'
_symmetry_Int_Tables_number	1
_symmetry_cell_setting	triclinic
loop_
_symmetry_equiv_pos_as_xyz
  x,y,z
_cell_length_a	27.732048
_cell_length_b	11.026607
_cell_length_c	9.482900
_cell_angle_alpha	78.617830
_cell_angle_beta	99.228799
_cell_angle_gamma	95.614336
loop_
_atom_site_label
_atom_site_type_symbol
_atom_site_fract_x
_atom_site_fract_y
_atom_site_fract_z
O1	O	-0.659779	-0.125113	-0.120700
O2	O	-0.520961	-0.147025	-0.120742
O3	O	-0.578864	0.040368	-0.120719
O4	O	-0.601875	-0.312506	-0.120723
O5	O	-0.567080	0.002225	0.121069
O6	O	-0.509176	-0.185168	0.121045
O7	O	-0.647995	-0.163256	0.121088
Cu8	Cu	-0.577510	-0.177694	0.143144
Cu9	Cu	-0.591446	-0.132586	-0.142798
O10	O	-0.590091	-0.350649	0.121065
C11	C	-0.497020	-0.165636	0.000146
C12	C	-0.443242	-0.164248	0.000129
C13	C	-0.568728	0.066428	0.000172
C14	C	-0.556073	0.200906	0.000163
C15	C	-0.671935	-0.144645	0.000197
C16	C	-0.725715	-0.146031	0.000204
C17	C	-0.113604	-0.266274	0.000191
C18	C	0.088519	-0.261136	0.000204
O19	O	0.111382	-0.354433	0.000266
N20	N	0.117642	-0.150017	0.000203
C21	C	0.096233	-0.040177	0.000208
O22	O	0.125642	0.054452	0.000222
C23	C	-0.105889	-0.045318	0.000205
C24	C	-0.135011	-0.156442	0.000192
C25	C	-0.142726	-0.377389	0.000180
C26	C	-0.193254	-0.378671	0.000168
C27	C	-0.214660	-0.268839	0.000169
C28	C	-0.185539	-0.157724	0.000181
C29	C	-0.127297	0.064520	0.000220
C30	C	-0.177831	0.063224	0.000223
C31	C	-0.206953	-0.047900	0.000210
C32	C	-0.257473	-0.049173	0.000170
N33	N	-0.286597	-0.160292	0.000171
C34	C	-0.265190	-0.270125	0.000171
C35	C	0.202349	-0.037485	0.000206
C36	C	0.252879	-0.036199	0.000204
C37	C	0.245161	-0.257159	0.000204
C38	C	0.194630	-0.258442	0.000195
C39	C	0.173225	-0.148603	0.000208
C40	C	-0.371303	-0.272809	0.000146
C41	C	-0.421835	-0.274080	0.000129
C42	C	-0.414113	-0.053122	0.000137
C43	C	-0.363585	-0.051848	0.000147
C44	C	-0.342182	-0.161703	0.000156
O45	O	-0.280369	0.044071	0.000124
O46	O	-0.294607	-0.364745	0.000189
C47	C	-0.063076	-0.264992	0.000202
C48	C	-0.033955	-0.153877	0.000214
C49	C	-0.055361	-0.044044	0.000215
C50	C	0.016575	-0.152591	0.000212
C51	C	0.037982	-0.262424	0.000212
C52	C	0.008858	-0.373543	0.000213
C53	C	-0.041670	-0.374825	0.000202
C54	C	-0.026238	0.067074	0.000213
C55	C	0.024290	0.068348	0.000223
C56	C	0.045696	-0.041485	0.000222
C57	C	-0.600228	-0.376709	0.000171
C58	C	-0.612883	-0.511185	0.000171
N59	N	-0.567711	-0.209420	0.344260
C60	C	-0.591015	0.275366	0.000171
C61	C	-0.577937	0.414357	0.000162
N62	N	-0.601247	-0.100851	-0.343914
C63	C	-0.580407	-0.168333	0.583878
C64	C	-0.588555	-0.141928	0.416464
H65	H	-0.445545	-0.364574	0.000117
Cl66	Cl	-0.674022	0.428390	0.000183
H67	H	-0.516477	0.240059	0.000141
Cl68	Cl	0.035779	-0.511616	0.000207
Cl69	Cl	-0.543542	-0.287712	0.679773
Cl70	Cl	-0.638106	0.018539	0.560186
Cl71	Cl	-0.516799	0.474788	0.000128
Cl72	Cl	-0.625415	-0.022532	0.320570
Cl73	Cl	-0.530845	-0.328803	0.440154
H74	H	-0.216961	-0.469160	0.000157
Cl75	Cl	-0.344403	-0.410913	0.000156
Cl76	Cl	0.060894	0.208064	0.000221
H77	H	-0.125302	-0.466834	0.000185
H78	H	0.170922	-0.348930	0.000193
Cl79	Cl	0.272082	-0.395234	0.000209
Cl80	Cl	-0.652151	0.214933	0.000181
H81	H	0.184926	0.051964	0.000216
H82	H	-0.103594	0.155008	0.000232
Cl83	Cl	0.289481	0.103511	0.000185
H84	H	-0.195255	0.152670	0.000234
H85	H	-0.339874	0.038641	0.000136
Cl86	Cl	-0.441033	0.084945	0.000144
Cl87	Cl	-0.053140	0.205165	0.000214
H88	H	-0.065377	-0.465313	0.000193
