data_functionalizedCrystal
_audit_creation_method	'MofGen! by Chris Wilmer'
_symmetry_space_group_name_H-M	'P1'
_symmetry_Int_Tables_number	1
_symmetry_cell_setting	triclinic
loop_
_symmetry_equiv_pos_as_xyz
  x,y,z
_cell_length_a	11.792254
_cell_length_b	11.792254
_cell_length_c	9.798715
_cell_angle_alpha	89.996677
_cell_angle_beta	89.996361
_cell_angle_gamma	84.198598
loop_
_atom_site_label
_atom_site_type_symbol
_atom_site_fract_x
_atom_site_fract_y
_atom_site_fract_z
O1	O	1.506906	0.155633	-0.113491
O2	O	1.176568	0.171651	-0.113494
O3	O	1.349746	-0.001527	-0.113482
O4	O	1.333728	0.328811	-0.113502
O5	O	1.349733	-0.001528	0.113500
O6	O	1.176555	0.171650	0.113489
O7	O	1.506893	0.155632	0.113492
Zn8	Zn	1.341722	0.163641	0.149528
Zn9	Zn	1.341739	0.163642	-0.149530
O10	O	1.333715	0.328811	0.113480
C11	C	1.134271	0.170642	-0.000003
C12	C	1.008257	0.167621	-0.000004
C13	C	0.905921	0.165168	-0.000009
C14	C	0.777534	0.162099	-0.000010
C15	C	1.348730	-0.043818	0.000008
C16	C	1.345710	-0.169832	0.000007
C17	C	1.343256	-0.272168	0.000002
C18	C	1.340188	-0.400555	-0.000010
C19	C	1.549190	0.156642	-0.000002
C20	C	1.675204	0.159662	-0.000010
C21	C	1.334731	0.371102	-0.000013
C22	C	1.337751	0.497115	-0.000021
N23	N	1.341719	0.163640	0.353628
N24	N	1.341751	0.163634	-0.353630
C25	C	1.414432	0.090608	0.421410
C26	C	1.414450	0.090604	0.578572
H27	H	1.476668	0.028080	0.363091
H28	H	1.476708	0.028082	0.636862
Cl29	Cl	1.245635	0.260183	0.556390
H30	H	1.279475	0.226159	0.411949
