data_functionalizedCrystal
_audit_creation_method	'MofGen! by Chris Wilmer'
_symmetry_space_group_name_H-M	'P1'
_symmetry_Int_Tables_number	1
_symmetry_cell_setting	triclinic
loop_
_symmetry_equiv_pos_as_xyz
  x,y,z
_cell_length_a	8.559649
_cell_length_b	14.519709
_cell_length_c	7.681481
_cell_angle_alpha	95.761118
_cell_angle_beta	94.912730
_cell_angle_gamma	103.270595
loop_
_atom_site_label
_atom_site_type_symbol
_atom_site_fract_x
_atom_site_fract_y
_atom_site_fract_z
O1	O	2.104960	0.021481	-0.146415
O2	O	2.438293	0.354815	0.186918
O3	O	2.771627	0.688148	0.520251
O4	O	1.639890	-0.026138	-0.146434
O5	O	1.973224	0.307196	0.186899
O6	O	2.306557	0.640529	0.520233
O7	O	1.884761	0.132799	-0.146375
O8	O	2.218094	0.466132	0.186958
O9	O	2.551428	0.799465	0.520292
O10	O	1.860089	-0.137455	-0.146474
O11	O	2.193423	0.195878	0.186859
O12	O	2.526756	0.529212	0.520192
O13	O	1.914900	0.152401	0.146490
O14	O	2.248234	0.485734	0.479823
O15	O	2.581567	0.819067	0.813157
O16	O	1.670030	-0.006536	0.146431
O17	O	2.003363	0.326797	0.479764
O18	O	2.336696	0.660131	0.813098
O19	O	2.135100	0.041083	0.146450
O20	O	2.468433	0.374417	0.479783
O21	O	2.801766	0.707750	0.813116
Zn22	Zn	1.907350	0.020386	0.192939
Zn23	Zn	2.240683	0.353719	0.526272
Zn24	Zn	2.574017	0.687053	0.859606
Zn25	Zn	1.867640	-0.005440	-0.192923
Zn26	Zn	2.200973	0.327893	0.140410
Zn27	Zn	2.534307	0.661226	0.473743
O28	O	1.890229	-0.117853	0.146391
O29	O	2.223562	0.215480	0.479724
O30	O	2.556896	0.548813	0.813057
C31	C	1.595440	-0.019946	-0.000003
C32	C	1.928774	0.313388	0.333330
C33	C	2.262107	0.646721	0.666664
C34	C	1.418090	-0.030687	-0.000008
C35	C	1.751424	0.302646	0.333325
C36	C	2.084757	0.635979	0.666659
C37	C	1.898682	0.176877	0.000066
C38	C	2.232016	0.510211	0.333400
C39	C	2.565349	0.843544	0.666733
C40	C	1.895241	0.279013	0.000093
C41	C	2.228574	0.612347	0.333426
C42	C	2.561908	0.945680	0.666759
C43	C	1.882567	0.653002	0.000140
C44	C	2.215900	0.986336	0.333473
C45	C	2.549233	1.319669	0.666807
C46	C	1.886086	0.548946	0.000128
C47	C	2.219420	0.882279	0.333461
C48	C	2.552753	1.215613	0.666794
C49	C	1.888904	0.466011	0.000118
C50	C	2.222237	0.799344	0.333451
C51	C	2.555570	1.132678	0.666785
C52	C	1.892424	0.361948	0.000102
C53	C	2.225757	0.695282	0.333436
C54	C	2.559090	1.028615	0.666769
C55	C	2.179549	0.034891	0.000015
C56	C	2.512882	0.368224	0.333348
C57	C	2.846216	0.701558	0.666682
C58	C	2.356898	0.045632	0.000008
C59	C	2.690231	0.378965	0.333342
C60	C	3.023565	0.712299	0.666675
N61	N	1.934463	0.038013	0.456280
N62	N	2.267796	0.371346	0.789613
N63	N	2.601129	0.704680	1.122946
C64	C	1.876314	0.838072	0.000008
C65	C	2.209647	1.171405	0.333341
C66	C	2.542980	1.504739	0.666675
C67	C	1.879773	0.735948	0.000157
C68	C	2.213106	1.069281	0.333490
C69	C	2.546440	1.402615	0.666823
N70	N	1.840540	-0.023059	-0.456264
N71	N	2.173873	0.310274	-0.122931
N72	N	2.507207	0.643607	0.210403
H73	H	1.440196	0.119195	0.000034
H74	H	1.773530	0.452529	0.333368
H75	H	2.106863	0.785862	0.666701
N76	N	1.713517	-0.105628	0.444121
N77	N	2.046850	0.227705	0.777454
N78	N	2.380183	0.561039	1.110788
H79	H	1.735519	-0.167616	0.476084
H80	H	2.068852	0.165718	0.809417
H81	H	2.402185	0.499051	1.142750
H82	H	1.716644	-0.103537	0.313416
H83	H	2.049977	0.229797	0.646750
H84	H	2.383311	0.563130	0.980083
H85	H	1.334799	-0.104247	-0.000052
H86	H	1.668133	0.229086	0.333281
H87	H	2.001466	0.562419	0.666614
H88	H	2.030357	0.100349	0.531509
H89	H	2.363690	0.433682	0.864842
H90	H	2.697023	0.767015	1.198175
