data_functionalizedCrystal
_audit_creation_method	'MofGen! by Chris Wilmer'
_symmetry_space_group_name_H-M	'P1'
_symmetry_Int_Tables_number	1
_symmetry_cell_setting	triclinic
loop_
_symmetry_equiv_pos_as_xyz
  x,y,z
_cell_length_a	12.837943
_cell_length_b	13.596369
_cell_length_c	12.837942
_cell_angle_alpha	89.994711
_cell_angle_beta	85.171060
_cell_angle_gamma	90.004014
loop_
_atom_site_label
_atom_site_type_symbol
_atom_site_fract_x
_atom_site_fract_y
_atom_site_fract_z
O1	O	1.402337	0.081773	-0.272142
O2	O	1.099204	0.081779	-0.258699
O3	O	1.244049	0.081770	-0.113854
O4	O	1.257492	0.081782	-0.416987
O5	O	1.244032	-0.081813	-0.113844
O6	O	1.099187	-0.081804	-0.258689
O7	O	1.402320	-0.081810	-0.272132
Zn8	Zn	1.250751	-0.107779	-0.265409
Zn9	Zn	1.250773	0.107748	-0.265422
O10	O	1.257475	-0.081801	-0.416977
C11	C	1.060126	-0.000012	-0.254153
C12	C	0.943711	-0.000010	-0.240608
N13	N	1.250743	-0.254871	-0.265400
C14	C	0.718837	-0.000018	-0.403437
C15	C	0.609454	-0.000016	-0.390716
C16	C	0.615562	-0.000013	-0.202445
C17	C	0.724944	-0.000014	-0.215166
C18	C	0.776578	-0.000015	-0.315666
C19	C	0.885962	-0.000009	-0.328386
C20	C	0.892067	-0.000013	-0.140116
C21	C	0.782685	-0.000012	-0.127395
C22	C	1.250772	-0.656162	-0.265423
C23	C	1.250761	-0.544511	-0.265420
C24	C	1.250758	-0.455520	-0.265412
C25	C	1.250746	-0.343862	-0.265407
C26	C	1.441398	-0.000017	-0.276679
C27	C	1.557813	-0.000013	-0.290223
C28	C	1.239499	-0.000021	-0.074780
C29	C	1.225954	-0.000019	0.041635
N30	N	1.250788	0.254840	-0.265424
C31	C	1.262025	-0.000008	-0.456051
C32	C	1.275569	-0.000004	-0.572467
C33	C	1.388784	-0.000002	0.266510
C34	C	1.376062	0.000000	0.375892
C35	C	1.187791	-0.000006	0.369785
C36	C	1.200513	-0.000008	0.260402
C37	C	1.301012	-0.000007	0.208769
C38	C	1.313732	-0.000016	0.099384
C39	C	1.125462	-0.000016	0.093279
C40	C	1.112741	-0.000014	0.202661
H41	H	0.928000	-0.000012	-0.410218
H42	H	1.470614	-0.000010	0.224469
H43	H	0.573502	-0.000094	-0.120623
H44	H	1.447536	0.000008	0.422901
O45	O	0.732475	0.000165	-0.029797
C46	C	0.669372	0.084874	-0.016831
H47	H	0.700608	0.144085	-0.074094
H48	H	0.670832	0.113318	0.066564
H49	H	0.585652	0.065717	-0.032478
O50	O	1.090248	-0.000048	0.420116
C51	C	1.097848	-0.000014	0.529041
H52	H	1.177011	-0.030980	0.546604
H53	H	1.032895	-0.047505	0.568677
H54	H	1.089783	0.078467	0.559922
H55	H	1.030917	-0.000011	0.244717
H56	H	1.395564	-0.000019	0.057346
O57	O	0.948317	-0.000051	-0.054959
C58	C	1.055933	-0.000020	-0.087733
H59	H	1.068250	-0.030997	-0.170364
H60	H	1.099454	-0.047504	-0.032439
H61	H	1.087118	0.078462	-0.086896
O62	O	1.040082	-0.000065	0.037348
C63	C	0.948656	-0.000042	0.106381
H64	H	0.967185	-0.031002	0.185254
H65	H	0.886495	-0.047542	0.072652
H66	H	0.918360	0.078436	0.117060
O67	O	0.768884	0.000118	-0.501108
C68	C	0.740329	0.084855	-0.555262
H69	H	0.661780	0.113100	-0.519264
H70	H	0.733796	0.065807	-0.640943
H71	H	0.802320	0.144179	-0.549372
O72	O	0.553252	0.000118	-0.475898
C73	C	0.489827	0.084853	-0.474197
H74	H	0.476094	0.113099	-0.390564
H75	H	0.411615	0.065801	-0.505091
H76	H	0.530484	0.144177	-0.525559
