data_functionalizedCrystal
_audit_creation_method	'MofGen! by Chris Wilmer'
_symmetry_space_group_name_H-M	'P1'
_symmetry_Int_Tables_number	1
_symmetry_cell_setting	triclinic
loop_
_symmetry_equiv_pos_as_xyz
  x,y,z
_cell_length_a	17.077404
_cell_length_b	13.897448
_cell_length_c	17.077396
_cell_angle_alpha	90.027368
_cell_angle_beta	90.019501
_cell_angle_gamma	90.017917
loop_
_atom_site_label
_atom_site_type_symbol
_atom_site_fract_x
_atom_site_fract_y
_atom_site_fract_z
Zn1	Zn	1.200083	-0.384009	0.443849
Zn2	Zn	1.700083	0.115991	0.943849
Zn3	Zn	1.200002	-0.545322	0.312585
Zn4	Zn	1.700002	-0.045322	0.812585
Zn5	Zn	1.068815	-0.384043	0.312597
Zn6	Zn	1.568815	0.115957	0.812597
Zn7	Zn	1.068795	-0.545264	0.443809
Zn8	Zn	1.568795	-0.045264	0.943809
O9	O	1.134424	-0.464660	0.378210
O10	O	1.634424	0.035340	0.878210
O11	O	1.309919	-0.405417	0.426448
O12	O	1.809919	0.094583	0.926448
O13	O	1.182574	-0.523966	0.202740
O14	O	1.682574	-0.023966	0.702740
O15	O	1.086270	-0.249057	0.330029
O16	O	1.586270	0.250943	0.830029
O17	O	1.309860	-0.523933	0.330010
O18	O	1.809860	-0.023933	0.830010
O19	O	1.182712	-0.249032	0.426459
O20	O	1.682712	0.250968	0.926459
O21	O	1.086192	-0.405475	0.202748
O22	O	1.586192	0.094525	0.702748
O23	O	0.958965	-0.405420	0.329990
O24	O	1.458965	0.094580	0.829990
O25	O	1.086236	-0.523835	0.553661
O26	O	1.586236	-0.023835	1.053661
O27	O	0.958950	-0.523868	0.426391
O28	O	1.458950	-0.023868	0.926391
O29	O	1.182693	-0.405362	0.553690
O30	O	1.682693	0.094638	1.053690
O31	O	1.182555	-0.680296	0.329971
O32	O	1.682555	-0.180296	0.829971
O33	O	1.086157	-0.680254	0.426380
O34	O	1.586157	-0.180254	0.926380
C35	C	0.930476	-0.464642	0.378188
C36	C	1.430476	0.035358	0.878188
C37	C	0.843226	-0.464658	0.378198
C38	C	1.343226	0.035342	0.878198
C39	C	0.802249	-0.526427	0.428313
C40	C	1.302249	-0.026427	0.928313
C41	C	0.720268	-0.526429	0.428326
C42	C	1.220268	-0.026429	0.928326
C43	C	0.679267	-0.464666	0.378218
C44	C	1.179267	0.035334	0.878218
C45	C	0.720250	-0.402890	0.328100
C46	C	1.220250	0.097110	0.828100
C47	C	0.802229	-0.402884	0.328092
C48	C	1.302229	0.097116	0.828092
C49	C	0.549380	-0.402909	0.328119
C50	C	1.049380	0.097091	0.828119
C51	C	0.467395	-0.402916	0.328126
C52	C	0.967395	0.097084	0.828126
C53	C	0.467419	-0.526454	0.428353
C54	C	0.967419	-0.026454	0.928353
C55	C	0.549398	-0.526448	0.428345
C56	C	1.049398	-0.026448	0.928345
C57	C	0.590376	-0.464673	0.378226
C58	C	1.090376	0.035327	0.878226
C59	C	1.134366	-0.715274	0.378187
C60	C	1.634366	-0.215274	0.878187
C61	C	1.134414	-0.822488	0.378204
C62	C	1.634414	-0.322488	0.878204
C63	C	1.134496	-1.018783	0.378253
C64	C	1.634496	-0.518783	0.878253
C65	C	1.134448	-0.909550	0.378228
C66	C	1.634448	-0.409550	0.878228
C67	C	1.339168	-0.464678	0.378232
C68	C	1.839168	0.035322	0.878232
C69	C	1.426418	-0.464686	0.378242
C70	C	1.926418	0.035314	0.878242
C71	C	1.134471	-0.464588	0.582954
C72	C	1.634471	0.035412	1.082954
C73	C	1.134491	-0.464558	0.670204
C74	C	1.634491	0.035442	1.170204
C75	C	1.134502	-0.213067	0.378250
C76	C	1.634502	0.286933	0.878250
C77	C	1.134536	-0.105853	0.378267
C78	C	1.634536	0.394147	0.878267
C79	C	1.134421	-0.464661	0.174262
C80	C	1.634421	0.035339	0.674262
C81	C	1.134553	-0.464419	0.087013
C82	C	1.634553	0.035581	0.587013
C83	C	1.184718	-0.402864	0.711211
C84	C	1.684718	0.097136	1.211211
C85	C	1.184728	-0.402832	0.793191
C86	C	1.684728	0.097168	1.293191
C87	C	1.134514	-0.464500	0.834164
C88	C	1.634514	0.035500	1.334164
C89	C	1.084281	-0.526197	0.793151
C90	C	1.584281	-0.026197	1.293151
C91	C	1.084268	-0.526223	0.711172
C92	C	1.584268	-0.026223	1.211172
C93	C	1.084313	-0.526139	0.964021
C94	C	1.584313	-0.026139	1.464021
C95	C	1.084326	-0.526114	1.046006
C96	C	1.584326	-0.026114	1.546006
C97	C	1.184772	-0.402747	1.046040
C98	C	1.684772	0.097253	1.546040
C99	C	1.184759	-0.402774	0.964061
C100	C	1.684759	0.097226	1.464061
C101	C	1.134528	-0.464472	0.923055
C102	C	1.634528	0.035528	1.423055
H103	H	0.835626	-0.576725	0.469114
H104	H	1.335626	-0.076725	0.969114
Br105	Br	1.252932	-0.319145	0.848841
Br106	Br	1.752932	0.180855	1.348841
Br107	Br	1.016138	-0.609870	0.908370
Br108	Br	1.516138	-0.109870	1.408370
Br109	Br	1.252876	-0.319174	0.655613
Br110	Br	1.752876	0.180826	1.155613
Br111	Br	0.604991	-0.319069	0.260102
Br112	Br	1.104991	0.180931	0.760102
Br113	Br	1.016096	-0.609949	0.655519
Br114	Br	1.516096	-0.109949	1.155519
Br115	Br	0.664659	-0.610260	0.496345
Br116	Br	1.164659	-0.110260	0.996345
Br117	Br	0.605043	-0.610280	0.496341
Br118	Br	1.105043	-0.110280	0.996341
Br119	Br	0.664605	-0.319058	0.260104
Br120	Br	1.164605	0.180942	0.760104
H121	H	0.835591	-0.352580	0.287287
H122	H	1.335591	0.147420	0.787287
H123	H	0.434051	-0.576751	0.469164
H124	H	0.934051	-0.076751	0.969164
H125	H	1.225653	-0.352564	0.930704
H126	H	1.725653	0.147436	1.430704
Br127	Br	0.411750	-0.319101	0.260116
Br128	Br	0.911750	0.180899	0.760116
Br129	Br	1.252947	-0.319017	1.101691
Br130	Br	1.752947	0.180983	1.601691
H131	H	1.043436	-0.576327	1.079364
H132	H	1.543436	-0.076327	1.579364
Br133	Br	1.016127	-0.609884	0.848756
Br134	Br	1.516127	-0.109884	1.348756
