data_functionalizedCrystal
_audit_creation_method	'MofGen! by Chris Wilmer'
_symmetry_space_group_name_H-M	'P1'
_symmetry_Int_Tables_number	1
_symmetry_cell_setting	triclinic
loop_
_symmetry_equiv_pos_as_xyz
  x,y,z
_cell_length_a	16.625548
_cell_length_b	13.032721
_cell_length_c	13.032268
_cell_angle_alpha	103.289627
_cell_angle_beta	82.837807
_cell_angle_gamma	82.794397
loop_
_atom_site_label
_atom_site_type_symbol
_atom_site_fract_x
_atom_site_fract_y
_atom_site_fract_z
Zn1	Zn	1.119641	0.499057	0.654215
Zn2	Zn	1.452975	0.832391	0.987549
Zn3	Zn	1.786308	1.165724	1.320882
Zn4	Zn	1.119553	0.654142	0.499163
Zn5	Zn	1.452887	0.987475	0.832496
Zn6	Zn	1.786220	1.320808	1.165830
Zn7	Zn	1.004420	0.476555	0.476634
Zn8	Zn	1.337753	0.809888	0.809967
Zn9	Zn	1.671086	1.143222	1.143300
Zn10	Zn	0.965173	0.676619	0.676703
Zn11	Zn	1.298506	1.009952	1.010037
Zn12	Zn	1.631839	1.343286	1.343370
O13	O	1.052197	0.576593	0.576679
O14	O	1.385530	0.909927	0.910012
O15	O	1.718863	1.243260	1.243345
O16	O	1.232459	0.519640	0.633665
O17	O	1.565793	0.852974	0.966998
O18	O	1.899126	1.186307	1.300331
O19	O	1.120669	0.611760	0.347555
O20	O	1.454002	0.945094	0.680888
O21	O	1.787335	1.278427	1.014221
O22	O	1.036166	0.330909	0.481350
O23	O	1.369499	0.664242	0.814684
O24	O	1.702833	0.997576	1.148017
O25	O	1.232395	0.633580	0.519749
O26	O	1.565728	0.966914	0.853082
O27	O	1.899061	1.300247	1.186415
O28	O	1.120819	0.347442	0.611819
O29	O	1.454152	0.680775	0.945152
O30	O	1.787486	1.014108	1.278485
O31	O	1.036081	0.481288	0.331002
O32	O	1.369414	0.814621	0.664336
O33	O	1.702747	1.147955	0.997669
O34	O	0.886384	0.503083	0.503156
O35	O	1.219717	0.836416	0.836489
O36	O	1.553050	1.169750	1.169823
O37	O	0.969275	0.671889	0.822340
O38	O	1.302609	1.005223	1.155673
O39	O	1.635942	1.338556	1.489006
O40	O	0.857549	0.650069	0.650146
O41	O	1.190883	0.983403	0.983479
O42	O	1.524216	1.316736	1.316813
O43	O	1.082763	0.541436	0.805818
O44	O	1.416096	0.874769	1.139151
O45	O	1.749429	1.208102	1.472485
O46	O	1.082613	0.805754	0.541554
O47	O	1.415946	1.139088	0.874887
O48	O	1.749279	1.472421	1.208221
O49	O	0.969190	0.822268	0.671992
O50	O	1.302523	1.155602	1.005325
O51	O	1.635856	1.488935	1.338659
C52	C	1.021652	0.852553	0.611681
C53	C	1.354986	1.185886	0.945015
C54	C	1.688319	1.519219	1.278348
C55	C	1.008655	0.970614	0.626691
C56	C	1.341988	1.303947	0.960024
C57	C	1.675322	1.637280	1.293358
C58	C	0.842711	0.576574	0.576647
C59	C	1.176044	0.909908	0.909981
C60	C	1.509378	1.243241	1.243314
C61	C	0.753086	0.576595	0.576662
C62	C	1.086420	0.909928	0.909995
C63	C	1.419753	1.243262	1.243329
C64	C	1.021651	0.611680	0.853692
C65	C	1.354984	0.945013	1.187025
C66	C	1.688318	1.278346	1.520359
C67	C	1.008634	0.626632	0.971738
C68	C	1.341967	0.959965	1.305072
C69	C	1.675301	1.293298	1.638405
C70	C	0.424905	0.576608	0.576708
C71	C	0.758238	0.909941	0.910042
C72	C	1.091572	1.243274	1.243375
C73	C	0.516216	0.576601	0.576692
C74	C	0.849549	0.909934	0.910025
C75	C	1.182882	1.243268	1.243358
C76	C	0.588993	0.576602	0.576684
C77	C	0.922326	0.909935	0.910018
C78	C	1.255659	1.243269	1.243351
C79	C	0.680309	0.576594	0.576669
C80	C	1.013643	0.909927	0.910003
C81	C	1.346976	1.243261	1.243336
C82	C	1.262501	0.576613	0.576711
C83	C	1.595834	0.909947	0.910045
C84	C	1.929167	1.243280	1.243378
C85	C	1.352119	0.576622	0.576725
C86	C	1.685453	0.909955	0.910058
C87	C	2.018786	1.243288	1.243392
C88	C	1.082880	0.299559	0.541563
C89	C	1.416213	0.632893	0.874896
C90	C	1.749547	0.966226	1.208230
C91	C	1.095956	0.181504	0.526599
C92	C	1.429289	0.514837	0.859932
C93	C	1.762622	0.848171	1.193265
C94	C	1.059018	1.015050	0.568893
C95	C	1.392351	1.348383	0.902226
C96	C	1.725684	1.681716	1.235560
C97	C	1.045586	1.137072	0.584405
C98	C	1.378919	1.470405	0.917738
C99	C	1.712252	1.803738	1.251071
C100	C	1.082679	0.541567	0.300734
C101	C	1.416012	0.874900	0.634067
C102	C	1.749345	1.208233	0.967400
C103	C	1.095885	0.526316	0.182650
C104	C	1.429218	0.859649	0.515983
C105	C	1.762552	1.192982	0.849317
C106	C	1.058982	0.568752	1.016192
C107	C	1.392315	0.902085	1.349526
C108	C	1.725649	1.235418	1.682859
C109	C	1.045530	0.584204	1.138199
C110	C	1.378863	0.917537	1.471533
C111	C	1.712196	1.250870	1.804866
H112	H	1.112083	0.962760	0.507929
H113	H	1.445416	1.296093	0.841263
H114	H	1.778749	1.629426	1.174596
N115	N	1.129279	0.487973	0.946963
N116	N	1.462613	0.821306	1.280297
N117	N	1.795946	1.154639	1.613630
H118	H	1.123067	0.414495	0.956573
H119	H	1.456400	0.747829	1.289907
H120	H	1.789733	1.081162	1.623240
H121	H	1.128880	0.488493	0.869652
H122	H	1.462214	0.821827	1.202986
H123	H	1.795547	1.155160	1.536319
N124	N	0.938361	1.039871	0.707442
N125	N	1.271694	1.373204	1.040775
N126	N	1.605028	1.706538	1.374109
H127	H	0.906596	0.993452	0.743881
H128	H	1.239929	1.326785	1.077214
H129	H	1.573262	1.660119	1.410548
H130	H	0.960700	1.092071	0.762436
H131	H	1.294033	1.425405	1.095770
H132	H	1.627367	1.758738	1.429103
N133	N	0.975224	0.664987	1.207414
N134	N	1.308557	0.998321	1.540747
N135	N	1.641890	1.331654	1.874080
H136	H	0.975575	0.664569	1.284759
H137	H	1.308908	0.997903	1.618093
H138	H	1.642242	1.331236	1.951426
H139	H	0.981479	0.738419	1.197708
H140	H	1.314812	1.071752	1.531041
H141	H	1.648146	1.405085	1.864374
H142	H	1.149024	1.129216	0.465631
H143	H	1.482357	1.462549	0.798965
H144	H	1.815690	1.795883	1.132298
H145	H	1.148949	0.465313	1.130388
H146	H	1.482282	0.798646	1.463721
H147	H	1.815616	1.131979	1.797054
H148	H	0.955566	0.687617	1.024004
H149	H	1.288899	1.020951	1.357337
H150	H	1.622232	1.354284	1.690671
H151	H	0.992523	1.189362	0.645380
H152	H	1.325856	1.522695	0.978713
H153	H	1.659190	1.856028	1.312047
