data_functionalizedCrystal
_audit_creation_method	'MofGen! by Chris Wilmer'
_symmetry_space_group_name_H-M	'P1'
_symmetry_Int_Tables_number	1
_symmetry_cell_setting	triclinic
loop_
_symmetry_equiv_pos_as_xyz
  x,y,z
_cell_length_a	16.109301
_cell_length_b	7.681481
_cell_length_c	16.109301
_cell_angle_alpha	95.741881
_cell_angle_beta	83.461481
_cell_angle_gamma	84.275465
loop_
_atom_site_label
_atom_site_type_symbol
_atom_site_fract_x
_atom_site_fract_y
_atom_site_fract_z
O1	O	1.095274	0.146325	0.114735
O2	O	1.428608	0.479658	0.448068
O3	O	1.761941	0.812992	0.781402
O4	O	0.853211	0.146354	0.128036
O5	O	1.186544	0.479687	0.461369
O6	O	1.519877	0.813020	0.794703
O7	O	0.980893	0.146321	0.000353
O8	O	1.314226	0.479654	0.333687
O9	O	1.647560	0.812987	0.667020
O10	O	0.967592	0.146358	0.242417
O11	O	1.300925	0.479691	0.575751
O12	O	1.634258	0.813025	0.909084
O13	O	0.996609	-0.146541	-0.015398
O14	O	1.329942	0.186792	0.317936
O15	O	1.663275	0.520126	0.651269
O16	O	0.868926	-0.146508	0.112285
O17	O	1.202260	0.186825	0.445618
O18	O	1.535593	0.520159	0.778951
O19	O	1.110990	-0.146537	0.098984
O20	O	1.444323	0.186797	0.432317
O21	O	1.777657	0.520130	0.765651
Zn22	Zn	0.992453	-0.193021	0.103133
Zn23	Zn	1.325787	0.140313	0.436467
Zn24	Zn	1.659120	0.473646	0.769800
Zn25	Zn	0.971747	0.192838	0.123886
Zn26	Zn	1.305081	0.526171	0.457220
Zn27	Zn	1.638414	0.859504	0.790553
O28	O	0.983307	-0.146504	0.226666
O29	O	1.316641	0.186830	0.560000
O30	O	1.649974	0.520163	0.893333
C31	C	0.830093	-0.000074	0.119622
C32	C	1.163427	0.333260	0.452955
C33	C	1.496760	0.666593	0.786288
C34	C	0.737798	-0.000063	0.118007
C35	C	1.071131	0.333270	0.451341
C36	C	1.404464	0.666603	0.784674
N37	N	1.006591	-0.456358	0.088970
N38	N	1.339924	-0.123025	0.422303
N39	N	1.673257	0.210308	0.755636
C40	C	0.515526	-0.000073	0.190014
C41	C	0.848859	0.333261	0.523348
C42	C	1.182192	0.666594	0.856681
C43	C	0.428806	-0.000084	0.188490
C44	C	0.762139	0.333249	0.521823
C45	C	1.095473	0.666583	0.855156
C46	C	0.448681	-0.000100	0.037000
C47	C	0.782014	0.333233	0.370333
C48	C	1.115348	0.666566	0.703667
C49	C	0.535400	-0.000101	0.038525
C50	C	0.868733	0.333232	0.371858
C51	C	1.202067	0.666565	0.705192
C52	C	0.568819	-0.000079	0.115035
C53	C	0.902152	0.333255	0.448368
C54	C	1.235486	0.666588	0.781702
C55	C	0.395381	-0.000089	0.111986
C56	C	0.728714	0.333244	0.445319
C57	C	1.062047	0.666578	0.778652
C58	C	0.301355	-0.000101	0.110332
C59	C	0.634689	0.333232	0.443665
C60	C	0.968022	0.666565	0.776999
C61	C	0.662851	-0.000069	0.116689
C62	C	0.996184	0.333264	0.450022
C63	C	1.329517	0.666597	0.783356
C64	C	1.134107	-0.000105	0.107398
C65	C	1.467440	0.333228	0.440732
C66	C	1.800774	0.666561	0.774065
C67	C	1.226402	-0.000104	0.109013
C68	C	1.559735	0.333229	0.442347
C69	C	1.893069	0.666562	0.775680
C70	C	0.988212	-0.000111	-0.038497
C71	C	1.321546	0.333222	0.294836
C72	C	1.654879	0.666556	0.628170
C73	C	0.986597	-0.000113	-0.130792
C74	C	1.319931	0.333220	0.202541
C75	C	1.653264	0.666553	0.535874
N76	N	0.957617	0.456175	0.138043
N77	N	1.290950	0.789509	0.471377
N78	N	1.624283	1.122842	0.804710
C79	C	1.058604	-0.000094	-0.353064
C80	C	1.391937	0.333239	-0.019730
C81	C	1.725271	0.666573	0.313603
C82	C	1.057079	-0.000079	-0.439783
C83	C	1.390412	0.333254	-0.106450
C84	C	1.723746	0.666587	0.226883
C85	C	0.905590	-0.000068	-0.419908
C86	C	1.238923	0.333265	-0.086575
C87	C	1.572256	0.666598	0.246758
C88	C	0.907115	-0.000070	-0.333190
C89	C	1.240448	0.333263	0.000143
C90	C	1.573781	0.666596	0.333477
C91	C	0.983625	-0.000092	-0.299771
C92	C	1.316958	0.333241	0.033563
C93	C	1.650291	0.666575	0.366896
C94	C	0.980575	-0.000075	-0.473209
C95	C	1.313908	0.333258	-0.139875
C96	C	1.647242	0.666591	0.193458
C97	C	0.978921	-0.000060	-0.567234
C98	C	1.312254	0.333274	-0.233901
C99	C	1.645588	0.666607	0.099433
C100	C	0.985279	-0.000105	-0.205739
C101	C	1.318612	0.333229	0.127594
C102	C	1.651946	0.666562	0.460927
C103	C	0.975988	-0.000068	0.265517
C104	C	1.309321	0.333265	0.598850
C105	C	1.642655	0.666599	0.932184
C106	C	0.977602	-0.000054	0.357813
C107	C	1.310936	0.333279	0.691146
C108	C	1.644269	0.666613	1.024480
H109	H	0.542733	-0.000067	0.252313
H110	H	0.876066	0.333266	0.585646
H111	H	1.209400	0.666599	0.918980
H112	H	1.118135	-0.000077	-0.483172
H113	H	1.451468	0.333256	-0.149838
H114	H	1.784801	0.666590	0.183495
H115	H	0.578794	-0.000111	-0.022536
H116	H	0.912128	0.333222	0.310797
H117	H	1.245461	0.666556	0.644130
H118	H	0.907624	-0.468615	0.188133
H119	H	1.240957	-0.135281	0.521466
H120	H	1.574291	0.198052	0.854800
H121	H	0.385417	-0.000083	0.249545
H122	H	0.718751	0.333250	0.582879
H123	H	1.052084	0.666584	0.916212
H124	H	1.056593	-0.531577	0.038883
H125	H	1.389926	-0.198244	0.372216
H126	H	1.723259	0.135089	0.705550
H127	H	1.120903	-0.000108	-0.325857
H128	H	1.454236	0.333225	0.007477
H129	H	1.787570	0.666559	0.340810
H130	H	0.846054	-0.000064	-0.289796
H131	H	1.179387	0.333270	0.043538
H132	H	1.512720	0.666603	0.376871
H133	H	0.843298	-0.000054	-0.447130
H134	H	1.176631	0.333279	-0.113796
H135	H	1.509965	0.666613	0.219537
H136	H	0.421461	-0.000129	-0.025292
H137	H	0.754794	0.333204	0.308041
H138	H	1.088128	0.666537	0.641374
