data_functionalizedCrystal
_audit_creation_method	'MofGen! by Chris Wilmer'
_symmetry_space_group_name_H-M	'P1'
_symmetry_Int_Tables_number	1
_symmetry_cell_setting	triclinic
loop_
_symmetry_equiv_pos_as_xyz
  x,y,z
_cell_length_a	23.096457
_cell_length_b	23.096457
_cell_length_c	14.560438
_cell_angle_alpha	89.997959
_cell_angle_beta	59.999518
_cell_angle_gamma	60.000612
loop_
_atom_site_label
_atom_site_type_symbol
_atom_site_fract_x
_atom_site_fract_y
_atom_site_fract_z
Zr1	Zr	0.633749	0.557780	-0.120543
O2	O	0.754536	0.465335	-0.267183
O3	O	0.512961	0.586118	-0.075592
O4	O	0.633751	0.586121	-0.267193
O5	O	0.633745	0.465332	0.075559
O6	O	0.633752	0.681401	-0.267199
O7	O	0.633746	0.465332	-0.075582
O8	O	0.417682	0.681396	0.075541
O9	O	0.849815	0.465337	-0.267181
O10	O	0.562644	0.669313	-0.056423
O11	O	0.562641	0.598206	0.056376
O12	O	0.704856	0.598209	-0.169210
O13	O	0.704853	0.527103	-0.056411
Zr14	Zr	0.633748	0.709742	0.120500
Zr15	Zr	0.633751	0.709742	-0.120552
Zr16	Zr	0.633746	0.557781	0.120509
Zr17	Zr	0.785708	0.557784	-0.120539
Zr18	Zr	0.481789	0.709738	0.120497
O19	O	0.754536	0.681404	0.075549
O20	O	0.754540	0.681404	-0.267196
O21	O	0.754532	0.465335	0.075562
O22	O	0.512961	0.802187	0.267141
O23	O	0.512965	0.802187	-0.075605
O24	O	0.512957	0.586118	0.267153
O25	O	0.633752	0.802190	-0.075602
O26	O	0.633746	0.681402	0.267151
O27	O	0.633745	0.586121	0.267156
O28	O	0.633750	0.802190	0.075539
O29	O	0.849817	0.586126	-0.267188
O30	O	0.417680	0.681396	0.267145
O31	O	0.417682	0.802185	0.267138
O32	O	0.417684	0.802185	0.075534
O33	O	0.849813	0.465337	-0.075577
O34	O	0.849815	0.586126	-0.075584
O35	O	0.562641	0.669313	0.169167
O36	O	0.562644	0.740419	0.056368
O37	O	0.704856	0.669316	-0.056419
O38	O	0.704853	0.598210	0.056380
C39	C	0.443670	0.633756	-0.000026
C40	C	0.379160	0.633755	-0.000028
C41	C	-0.028871	0.581283	-0.083283
C42	C	0.031748	0.581277	-0.083282
C43	C	0.009570	0.633766	-0.000022
C44	C	-0.073236	0.686256	0.083260
C45	C	-0.133852	0.686256	0.083264
N46	N	0.065672	0.696014	0.025185
N47	N	0.123259	0.696010	0.025174
C48	C	0.192200	0.633767	-0.000026
N49	N	0.201387	0.571524	-0.025238
N50	N	0.143797	0.571527	-0.025233
C51	C	0.075292	0.633771	-0.000016
C52	C	0.340724	0.581271	-0.083298
C53	C	0.401342	0.581265	-0.083290
C54	C	0.296356	0.686250	0.083249
C55	C	0.235741	0.686251	0.083245
C56	C	0.257930	0.633762	-0.000034
C57	C	0.633745	0.443681	-0.000010
C58	C	0.633744	0.379169	-0.000007
C59	C	0.559513	0.385979	0.058856
C60	C	0.559512	0.325363	0.058861
C61	C	0.633746	0.257939	-0.000019
C62	C	0.707987	0.251132	-0.058884
C63	C	0.707986	0.311747	-0.058878
N64	N	0.689003	0.135144	-0.095845
N65	N	0.688999	0.077565	-0.095848
C66	C	0.633753	0.075306	-0.000039
N67	N	0.578500	0.132808	0.095773
N68	N	0.578502	0.190394	0.095775
C69	C	0.633755	0.192207	-0.000031
C70	C	0.559516	0.016392	0.058835
C71	C	0.559518	-0.044226	0.058843
C72	C	0.707995	-0.118458	-0.058914
C73	C	0.707991	-0.057840	-0.058911
C74	C	0.633749	0.009582	-0.000039
C75	C	0.823827	0.633766	-0.000017
C76	C	0.888337	0.633767	-0.000015
C77	C	0.633752	0.633761	-0.301541
C78	C	0.633753	0.633761	-0.403874
C79	C	0.633752	0.823841	-0.000032
C80	C	0.633753	0.888353	-0.000036
C81	C	0.633755	0.686251	-0.451953
C82	C	0.633747	0.686253	-0.548099
C83	C	0.633740	0.581268	-0.548081
C84	C	0.633741	0.581270	-0.451932
C85	C	0.586036	0.773171	-0.641667
C86	C	0.586052	0.825657	-0.689761
C87	C	0.633775	0.848143	-0.696411
C88	C	0.681503	0.818135	-0.654985
C89	C	0.681495	0.765644	-0.606902
C90	C	0.633752	0.743170	-0.600236
C91	C	0.681460	0.494352	-0.358368
C92	C	0.681457	0.441858	-0.310288
C93	C	0.633738	0.419365	-0.303640
C94	C	0.586023	0.449361	-0.345078
C95	C	0.586025	0.501855	-0.393158
C96	C	0.633743	0.524349	-0.399799
C97	C	0.633745	0.633761	0.301498
C98	C	0.633744	0.633761	0.403831
C99	C	0.443674	0.823837	-0.000037
C100	C	0.379164	0.888347	-0.000042
C101	C	0.443667	0.633757	0.301494
C102	C	0.379155	0.633755	0.403825
C103	C	0.443670	0.823837	0.301483
C104	C	0.379159	0.888347	0.403810
C105	C	0.823827	0.443685	-0.301525
C106	C	0.888337	0.379175	-0.403853
C107	C	0.823823	0.443686	-0.000006
C108	C	0.888333	0.379176	-0.000000
C109	C	0.823830	0.633766	-0.301536
C110	C	0.888342	0.633767	-0.403868
C111	C	0.348870	0.881524	-0.058930
C112	C	0.288264	0.942132	-0.058958
C113	C	0.257950	1.009562	-0.000090
C114	C	0.288251	1.016383	0.058800
C115	C	0.348859	0.955776	0.058820
C116	C	0.348860	0.670871	0.510767
C117	C	0.288252	0.670867	0.606927
C118	C	0.257938	0.633751	0.596143
C119	C	0.288239	0.596630	0.489191
C120	C	0.348849	0.596630	0.393033
C121	C	0.348866	0.955765	0.392985
C122	C	0.288259	1.016385	0.489123
C123	C	0.257944	1.009585	0.596086
C124	C	0.288243	0.942160	0.606910
C125	C	0.348853	0.881542	0.510772
C126	C	0.918639	0.311757	-0.393027
C127	C	0.979264	0.251138	-0.489166
C128	C	1.009583	0.257937	-0.596129
C129	C	0.979279	0.325362	-0.606952
C130	C	0.918659	0.385980	-0.510815
C131	C	0.918634	0.385998	0.058878
C132	C	0.979256	0.325390	0.058879
C133	C	1.009572	0.257960	0.000007
C134	C	0.979269	0.251139	-0.058878
C135	C	0.918652	0.311746	-0.058885
C136	C	0.918637	0.670891	-0.393048
C137	C	0.979245	0.670906	-0.489190
C138	C	1.009560	0.633793	-0.596151
C139	C	0.979259	0.596668	-0.606968
C140	C	0.918648	0.596657	-0.510827
H141	H	0.358793	0.538531	-0.151107
Cl142	Cl	0.466181	0.470735	0.132874
Cl143	Cl	1.017335	0.333981	0.132917
H144	H	0.373510	0.826649	0.519602
H145	H	0.499068	-0.038675	0.106784
H146	H	0.263548	0.566410	0.480427
Cl147	Cl	1.017331	0.717577	-0.475565
H148	H	0.893983	0.306182	-0.106827
H149	H	0.893964	0.701113	-0.305964
Cl150	Cl	0.526038	0.539566	-0.445253
Cl151	Cl	0.250181	0.933541	-0.132991
Cl152	Cl	1.085775	0.181774	0.000030
H153	H	0.208592	1.058950	0.674358
H154	H	0.263551	0.936634	0.694012
Cl155	Cl	0.801309	0.166370	-0.132899
Cl156	Cl	1.017385	0.166364	-0.132877
Cl157	Cl	0.633746	0.353363	-0.243209
Cl158	Cl	0.880536	0.303191	-0.258571
H159	H	0.373540	0.961315	0.305898
H160	H	0.263560	1.071293	0.106728
Cl161	Cl	0.526007	0.744929	-0.633264
Cl162	Cl	0.386969	0.796762	-0.132951
H163	H	1.058914	0.633807	-0.674426
H164	H	-0.201268	0.728997	0.151073
H165	H	1.003927	0.196243	-0.480331
H166	H	0.208598	1.058907	-0.000115
Cl167	Cl	0.741455	0.404139	-0.258210
H168	H	1.003951	0.566451	-0.694068
Cl169	Cl	1.085790	0.181723	-0.716978
Cl170	Cl	0.386930	0.964365	0.132868
H171	H	1.003972	0.330890	-0.694053
Cl172	Cl	0.880568	0.470732	-0.524444
H173	H	0.893955	0.440897	0.106825
H174	H	0.768438	-0.173355	-0.106856
H175	H	0.893988	0.566424	-0.519652
Cl176	Cl	0.466186	0.333919	0.132860
Cl177	Cl	0.135841	0.515292	-0.187973
Cl178	Cl	-0.101118	0.752240	0.187935
Cl179	Cl	-0.000973	0.515291	-0.187968
Cl180	Cl	0.741447	0.522633	-0.366713
H181	H	0.468758	0.538523	-0.151098
H182	H	0.278297	0.728985	0.151046
Cl183	Cl	0.131654	0.752238	0.187928
H184	H	0.768435	0.306197	-0.106809
Cl185	Cl	0.250177	1.101138	0.475490
Cl186	Cl	0.633794	0.914125	-0.756874
Cl187	Cl	0.466186	0.101153	0.132850
H188	H	0.768438	-0.063388	-0.106851
Cl189	Cl	0.386955	0.717540	0.524353
H190	H	0.633762	0.728994	-0.412825
H191	H	0.720370	0.836442	-0.660420
Cl192	Cl	0.526052	0.863381	-0.741835
Cl193	Cl	0.741489	0.727919	-0.554826
H194	H	0.208585	0.633756	0.674451
Cl195	Cl	0.633730	0.515280	-0.608505
Cl196	Cl	0.386923	0.549969	0.258595
Cl197	Cl	0.526035	0.421081	-0.336730
Cl198	Cl	0.250169	0.717540	0.741368
