data_functionalizedCrystal
_audit_creation_method	'MofGen! by Chris Wilmer'
_symmetry_space_group_name_H-M	'P1'
_symmetry_Int_Tables_number	1
_symmetry_cell_setting	triclinic
loop_
_symmetry_equiv_pos_as_xyz
  x,y,z
_cell_length_a	27.440280
_cell_length_b	27.440280
_cell_length_c	27.440280
_cell_angle_alpha	90.008003
_cell_angle_beta	60.007024
_cell_angle_gamma	59.999523
loop_
_atom_site_label
_atom_site_type_symbol
_atom_site_fract_x
_atom_site_fract_y
_atom_site_fract_z
Zr1	Zr	0.533349	-0.063938	0.469578
O2	O	0.635015	-0.141766	0.391773
O3	O	0.431683	-0.040073	0.493420
O4	O	0.533337	-0.141744	0.493433
O5	O	0.533371	0.040099	0.391761
O6	O	0.533328	-0.141734	0.573636
O7	O	0.533361	-0.040094	0.391760
O8	O	0.351488	0.040138	0.573612
O9	O	0.715211	-0.141773	0.391785
O10	O	0.473493	-0.029895	0.563454
O11	O	0.473507	0.029945	0.503601
O12	O	0.593191	-0.089760	0.503617
O13	O	0.593205	-0.029920	0.443763
Zr14	Zr	0.533349	0.063978	0.597494
Zr15	Zr	0.533334	-0.063922	0.597493
Zr16	Zr	0.533364	0.063962	0.469580
Zr17	Zr	0.661252	-0.063949	0.469597
Zr18	Zr	0.405446	0.063989	0.597476
O19	O	0.635015	0.040113	0.573653
O20	O	0.634994	-0.141743	0.573651
O21	O	0.635036	0.040090	0.391776
O22	O	0.431683	0.141806	0.675300
O23	O	0.431662	-0.040050	0.675297
O24	O	0.431705	0.141783	0.493422
O25	O	0.533328	-0.040059	0.675312
O26	O	0.533361	0.141785	0.573640
O27	O	0.533371	0.141775	0.493437
O28	O	0.533337	0.040134	0.675313
O29	O	0.715199	-0.141760	0.493459
O30	O	0.351500	0.141801	0.573613
O31	O	0.351488	0.141813	0.675288
O32	O	0.351476	0.040150	0.675286
O33	O	0.715223	-0.040110	0.391786
O34	O	0.715211	-0.040098	0.493461
O35	O	0.473507	0.089800	0.563456
O36	O	0.473493	0.029960	0.623310
O37	O	0.593191	-0.029905	0.563472
O38	O	0.593205	0.029935	0.503618
C39	C	0.373362	0.000034	0.533513
C40	C	0.319064	0.000039	0.533505
C41	C	0.040181	0.044211	0.577721
C42	C	0.091203	0.044214	0.577715
O43	O	0.080026	0.081782	0.615296
N44	N	0.160894	0.000027	0.533531
C45	C	0.179563	-0.044168	0.489352
O46	O	0.243525	-0.081753	0.451769
C47	C	0.128541	-0.044173	0.489360
C48	C	0.058850	0.000020	0.533544
C49	C	-0.029507	0.088400	0.621902
C50	C	-0.080525	0.088398	0.621906
C51	C	-0.061856	0.044208	0.577730
C52	C	0.007832	0.000019	0.533549
C53	C	0.147211	-0.088370	0.445185
C54	C	0.096182	-0.088371	0.445197
C55	C	0.026491	-0.044178	0.489381
C56	C	-0.024517	-0.044174	0.489377
N57	N	-0.094208	0.000012	0.533562
C58	C	-0.112877	0.044203	0.577739
C59	C	0.286708	-0.044157	0.489338
C60	C	0.337729	-0.044151	0.489327
C61	C	0.249365	0.044231	0.577691
C62	C	0.198344	0.044227	0.577699
C63	C	0.217017	0.000030	0.533523
C64	C	-0.220016	0.044196	0.577745
C65	C	-0.271035	0.044192	0.577744
C66	C	-0.182667	-0.044191	0.489382
C67	C	-0.131652	-0.044185	0.489380
C68	C	-0.150332	0.000011	0.533567
O69	O	-0.013392	-0.081725	0.451818
O70	O	-0.176840	0.081777	0.615320
C71	C	0.533330	-0.159962	0.533534
C72	C	0.533324	-0.214259	0.533533
C73	C	0.595842	-0.582242	0.502307
C74	C	0.595846	-0.633265	0.502309
O75	O	0.648984	-0.686229	0.475763
N76	N	0.533365	-0.627533	0.533542
C77	C	0.470877	-0.570774	0.564781
O78	O	0.417732	-0.570584	0.591348
C79	C	0.470873	-0.519753	0.564782
C80	C	0.533358	-0.525490	0.533542
C81	C	0.658322	-0.587976	0.471069
C82	C	0.658317	-0.536957	0.471067
C83	C	0.595834	-0.480204	0.502302
C84	C	0.533354	-0.474471	0.533539
C85	C	0.408386	-0.462996	0.596024
C86	C	0.408388	-0.411974	0.596024
C87	C	0.470873	-0.417710	0.564783
C88	C	0.470866	-0.366699	0.564772
N89	N	0.533347	-0.372431	0.533538
C90	C	0.595831	-0.429184	0.502303
C91	C	0.470888	-0.677924	0.564777
C92	C	0.470890	-0.728944	0.564772
C93	C	0.595860	-0.791431	0.502300
C94	C	0.595857	-0.740410	0.502302
C95	C	0.533368	-0.683656	0.533543
C96	C	0.595817	-0.322038	0.502300
C97	C	0.595808	-0.271012	0.502298
C98	C	0.470839	-0.208529	0.564772
C99	C	0.470848	-0.259551	0.564772
C100	C	0.533343	-0.316307	0.533534
O101	O	0.417756	-0.313716	0.591306
O102	O	0.648966	-0.429363	0.475747
C103	C	0.693336	0.000006	0.533560
C104	C	0.747634	0.000001	0.533568
C105	C	0.533368	-0.000000	0.373535
C106	C	0.533374	-0.000007	0.319232
C107	C	0.533368	0.160002	0.533539
C108	C	0.533374	0.214299	0.533539
C109	C	0.470857	0.031286	0.013769
C110	C	0.470853	0.031291	-0.037249
O111	O	0.417715	0.057885	-0.037073
N112	N	0.533333	0.000041	-0.094001
C113	C	0.595822	-0.031211	-0.099733
O114	O	0.648966	-0.057790	-0.152689
C115	C	0.595825	-0.031212	-0.048715
C116	C	0.533340	0.000034	0.008036
C117	C	0.408377	0.062530	0.070518
C118	C	0.408381	0.062524	0.121532
C119	C	0.470865	0.031273	0.115799
C120	C	0.533344	0.000028	0.059051
C121	C	0.658313	-0.062461	-0.054448
C122	C	0.658310	-0.062459	-0.003424
C123	C	0.595826	-0.031212	0.053327
C124	C	0.595832	-0.031229	0.104332
N125	N	0.533351	0.000020	0.161083
C126	C	0.470868	0.031272	0.166817
C127	C	0.595811	-0.031205	-0.206872
C128	C	0.595808	-0.031207	-0.257889
C129	C	0.470839	0.031296	-0.195401
C130	C	0.470842	0.031294	-0.144384
C131	C	0.533330	0.000045	-0.150120
C132	C	0.470881	0.031255	0.273949
C133	C	0.470891	0.031244	0.324966
C134	C	0.595860	-0.031256	0.262474
C135	C	0.595850	-0.031247	0.211462
C136	C	0.533356	0.000013	0.217203
O137	O	0.648943	-0.057808	0.104202
O138	O	0.417732	0.057853	0.219775
C139	C	0.533330	0.000040	0.693537
C140	C	0.533324	0.000047	0.747840
C141	C	0.373343	0.000054	0.693514
C142	C	0.319039	0.000066	0.747809
C143	C	0.373381	0.160016	0.533515
C144	C	0.319089	0.214318	0.533508
C145	C	0.373362	0.160037	0.693516
C146	C	0.319064	0.214345	0.747812
C147	C	0.693336	-0.159996	0.373556
C148	C	0.747634	-0.214305	0.319260
C149	C	0.693355	-0.000014	0.373559
C150	C	0.747660	-0.000026	0.319264
C151	C	0.693318	-0.159976	0.533557
C152	C	0.747609	-0.214278	0.533565
C153	C	0.293537	-0.031178	0.742063
C154	C	0.242519	-0.031179	0.793074
C155	C	0.217001	0.000067	0.849831
C156	C	0.242508	0.031312	0.855576
C157	C	0.293528	0.031309	0.804565
C158	C	0.293593	0.271067	0.564749
C159	C	0.242587	0.322094	0.564740
C160	C	0.217075	0.316370	0.533493
C161	C	0.242576	0.259614	0.502249
C162	C	0.293584	0.208589	0.502255
C163	C	0.293558	0.208612	0.804558
C164	C	0.242546	0.259636	0.855580
C165	C	0.217038	0.316391	0.849854
C166	C	0.242549	0.322122	0.793102
C167	C	0.293564	0.271099	0.742082
C168	C	0.773147	-0.208572	0.262514
C169	C	0.824175	-0.259596	0.211493
C170	C	0.849685	-0.316351	0.217219
C171	C	0.824171	-0.322082	0.273971
C172	C	0.773147	-0.271059	0.324991
C173	C	0.773167	0.031213	0.325010
C174	C	0.824199	0.031200	0.273999
C175	C	0.849719	-0.000048	0.217242
C176	C	0.824210	-0.031291	0.211497
C177	C	0.773182	-0.031281	0.262507
C178	C	0.773106	-0.208535	0.564817
C179	C	0.824112	-0.259551	0.564835
C180	C	0.849624	-0.316311	0.533597
C181	C	0.824123	-0.322053	0.502344
C182	C	0.773114	-0.271037	0.502330
H183	H	-0.235235	0.080185	0.613726
H184	H	0.175456	0.000065	0.891362
H185	H	0.314336	0.162383	0.476817
F186	F	0.851318	-0.253484	0.151099
F187	F	0.851375	-0.064543	0.151087
H188	H	0.709199	-0.541636	0.445630
F189	F	0.162786	0.370682	0.533493
H190	H	0.419999	-0.631713	0.590214
F191	F	0.215380	-0.064433	0.786947
F192	F	0.746037	-0.064527	0.256382
F193	F	0.341878	-0.351572	0.629280
F194	F	0.215340	0.064566	0.915986
H195	H	0.752379	-0.162364	0.257841
H196	H	0.203950	-0.124361	0.409209
H197	H	0.314360	0.275739	0.590193
F198	F	0.320660	0.064569	0.810690
H199	H	0.844869	-0.254865	0.590285
F200	F	0.215455	0.382492	0.597997
F201	F	0.662353	-0.064515	0.151062
F202	F	0.320699	0.148214	0.810666
F203	F	0.215416	0.253532	0.468997
F204	F	0.903989	-0.370649	0.162913
H205	H	-0.327782	0.080182	0.613725
F206	F	0.903914	-0.370603	0.533617
F207	F	0.404338	0.064552	-0.083988
H208	H	-0.137268	0.124383	0.657887
F209	F	0.662360	-0.746521	0.469054
H210	H	0.844903	-0.368274	0.476911
H211	H	0.221773	0.368338	0.788449
F212	F	0.341880	-0.456877	0.629275
F213	F	0.745962	-0.148131	0.598067
H214	H	-0.044720	0.124387	0.657879
H215	H	0.419966	-0.162313	0.590201
F216	F	0.215402	0.253524	0.915974
H217	H	0.141601	0.080212	0.613678
F218	F	0.306592	-0.091197	0.442312
H219	H	0.844948	-0.368298	0.278626
F220	F	0.229504	0.091262	0.624709
F221	F	0.745990	-0.277158	0.469059
F222	F	0.851337	0.064455	0.280126
F223	F	0.411897	-0.091180	0.442293
H224	H	0.646707	-0.368245	0.476864
F225	F	0.662356	-0.064507	0.256383
H226	H	0.419961	0.056740	-0.190741
F227	F	0.162743	0.370689	0.904160
H228	H	0.111395	-0.124363	0.409224
F229	F	0.746017	0.064472	0.385410
F230	F	0.404383	0.064502	0.385365
H231	H	0.891269	-0.000052	0.175711
H232	H	0.314324	0.275775	0.695878
F233	F	-0.057479	-0.091216	0.442351
F234	F	0.662313	-0.064472	-0.318284
H235	H	0.752376	-0.275733	0.371195
F236	F	0.341876	0.095785	0.181927
F237	F	-0.162809	-0.091218	0.442367
F238	F	0.662315	-0.277123	0.469042
F239	F	0.662324	-0.064471	-0.212985
H240	H	0.646737	-0.837650	0.476866
F241	F	0.724831	-0.648374	0.437822
F242	F	0.724819	-0.095714	-0.114838
F243	F	0.404385	-0.722831	0.598013
H244	H	0.419968	-0.254879	0.590202
F245	F	0.341867	0.095797	0.076632
F246	F	0.404367	0.064525	0.280068
F247	F	0.320688	-0.064439	0.681663
F248	F	0.724821	-0.095718	-0.009535
