data_functionalizedCrystal
_audit_creation_method	'MofGen! by Chris Wilmer'
_symmetry_space_group_name_H-M	'P1'
_symmetry_Int_Tables_number	1
_symmetry_cell_setting	triclinic
loop_
_symmetry_equiv_pos_as_xyz
  x,y,z
_cell_length_a	10.540539
_cell_length_b	19.288865
_cell_length_c	18.366186
_cell_angle_alpha	90.011479
_cell_angle_beta	89.994545
_cell_angle_gamma	96.169130
loop_
_atom_site_label
_atom_site_type_symbol
_atom_site_fract_x
_atom_site_fract_y
_atom_site_fract_z
O1	O	1.683714	-0.097883	-0.060499
O2	O	2.183714	0.402117	0.439501
O3	O	1.314095	-0.107106	-0.060515
O4	O	1.814095	0.392894	0.439485
O5	O	1.509585	-0.001436	-0.060492
O6	O	2.009585	0.498564	0.439508
O7	O	1.488224	-0.203554	-0.060522
O8	O	1.988224	0.296446	0.439478
O9	O	1.509552	-0.001430	0.060607
O10	O	2.009552	0.498570	0.560607
O11	O	1.314062	-0.107100	0.060585
O12	O	1.814062	0.392900	0.560585
O13	O	1.683681	-0.097878	0.060600
O14	O	2.183681	0.402122	0.560600
Zn15	Zn	1.498866	-0.102488	0.079820
Zn16	Zn	1.998866	0.397512	0.579820
Zn17	Zn	1.498910	-0.102495	-0.079734
Zn18	Zn	1.998910	0.397505	0.420266
O19	O	1.488191	-0.203548	0.060578
O20	O	1.988191	0.296452	0.560578
C21	C	1.508881	0.024448	0.000060
C22	C	2.008881	0.524448	0.500060
C23	C	1.506818	0.101566	0.000066
C24	C	2.006818	0.601566	0.500066
C25	C	1.266791	-0.106411	0.000033
C26	C	1.766791	0.393589	0.500033
C27	C	1.125889	-0.104342	0.000028
C28	C	1.625889	0.395658	0.500028
C29	C	1.730985	-0.098572	0.000051
C30	C	2.230985	0.401428	0.500051
C31	C	1.871887	-0.100641	0.000051
C32	C	2.371887	0.399359	0.500051
C33	C	2.053547	-0.179930	0.000295
C34	C	2.553547	0.320070	0.500295
C35	C	1.906975	-0.177833	0.000034
C36	C	2.406975	0.322167	0.500034
C37	C	1.934366	-0.063496	-0.069101
C38	C	2.434366	0.436504	0.430899
C39	C	2.080851	-0.066131	-0.069171
C40	C	2.580851	0.433869	0.430829
C41	C	2.081418	-0.064555	0.068541
C42	C	2.581418	0.435445	0.568541
C43	C	1.934452	-0.063844	0.069468
C44	C	2.434452	0.436156	0.569468
C45	C	1.488895	-0.229432	0.000024
C46	C	1.988895	0.270568	0.500024
C47	C	1.490958	-0.306549	0.000013
C48	C	1.990958	0.193451	0.500013
N49	N	1.498846	-0.102483	0.188711
N50	N	1.998846	0.397517	0.688711
C51	C	1.621522	0.145496	0.000075
C52	C	2.121522	0.645496	0.500075
C53	C	1.619584	0.217956	0.000063
C54	C	2.119584	0.717956	0.500063
C55	C	1.502935	0.246482	0.000058
C56	C	2.002935	0.746482	0.500058
C57	C	1.388215	0.202542	0.000045
C58	C	1.888215	0.702542	0.500045
C59	C	1.390157	0.130083	0.000049
C60	C	1.890157	0.630083	0.500049
C61	C	1.411223	0.355384	0.042472
C62	C	1.911223	0.855384	0.542472
C63	C	1.409286	0.427841	0.042472
C64	C	1.909286	0.927841	0.542472
C65	C	1.496941	0.469968	0.000041
C66	C	1.996941	0.969968	0.500041
C67	C	1.586555	0.439630	-0.042381
C68	C	2.086555	0.939630	0.457619
C69	C	1.588496	0.367172	-0.042377
C70	C	2.088496	0.867172	0.457623
C71	C	1.500816	0.325051	0.000052
C72	C	2.000816	0.825051	0.500052
C73	C	1.609552	0.592469	0.000036
C74	C	2.109552	1.092469	0.500036
C75	C	1.607609	0.664930	0.000020
C76	C	2.107609	1.164930	0.500020
C77	C	1.376237	0.649513	0.000009
C78	C	1.876237	1.149513	0.500009
C79	C	1.378183	0.577054	0.000018
C80	C	1.878183	1.077054	0.500018
C81	C	1.494844	0.548536	0.000035
C82	C	1.994844	1.048536	0.500035
N83	N	1.498941	-0.102495	-0.188625
N84	N	1.998941	0.397505	0.311375
C85	C	1.585437	-0.055716	0.226821
C86	C	2.085437	0.444284	0.726821
C87	C	1.585445	-0.055713	0.303049
C88	C	2.085445	0.444287	0.803049
C89	C	1.498874	-0.102489	0.341164
C90	C	1.998874	0.397511	0.841164
C91	C	1.412267	-0.149260	0.303044
C92	C	1.912267	0.350740	0.803044
C93	C	1.412253	-0.149257	0.226818
C94	C	1.912253	0.350743	0.726818
C95	C	1.481882	-0.165663	0.461914
C96	C	1.981882	0.334337	0.961914
C97	C	1.481905	-0.165667	0.538139
C98	C	1.981905	0.334333	1.038139
C99	C	1.498910	-0.102498	0.576271
C100	C	1.998910	0.397502	1.076271
C101	C	1.515919	-0.039322	0.538169
C102	C	2.015919	0.460678	1.038169
C103	C	1.515905	-0.039319	0.461942
C104	C	2.015905	0.460681	0.961942
C105	C	1.498879	-0.102497	0.423818
C106	C	1.998879	0.397503	0.923818
C107	C	1.585514	-0.055723	0.697036
C108	C	2.085514	0.444277	1.197036
C109	C	1.585514	-0.055719	0.773266
C110	C	2.085514	0.444281	1.273266
C111	C	1.412342	-0.149273	0.773259
C112	C	1.912342	0.350727	1.273259
C113	C	1.412336	-0.149271	0.697031
C114	C	1.912336	0.350729	1.197031
C115	C	1.498930	-0.102497	0.658925
C116	C	1.998930	0.397503	1.158925
H117	H	2.081474	-0.210421	0.049878
H118	H	2.581474	0.289579	0.549878
O119	O	2.117375	-0.102493	-0.137662
O120	O	2.617375	0.397507	0.362338
H121	H	2.184813	-0.066522	-0.169929
H122	H	2.684813	0.433478	0.330071
H123	H	1.336312	0.452536	0.077011
H124	H	1.836312	0.952536	0.577011
O125	O	1.904042	0.010704	0.075046
O126	O	2.404042	0.510704	0.575046
H127	H	1.852114	0.017760	0.126642
H128	H	2.352114	0.517760	0.626642
O129	O	1.731339	0.712312	0.000031
O130	O	2.231339	1.212312	0.500031
H131	H	1.736022	0.745676	-0.049333
H132	H	2.236022	1.245676	0.450667
H133	H	2.083071	-0.210300	-0.049027
H134	H	2.583071	0.289700	0.450973
O135	O	1.906429	0.011592	-0.072505
O136	O	2.406429	0.511592	0.427495
H137	H	1.847571	0.023259	-0.024832
H138	H	2.347571	0.523259	0.475168
O139	O	1.319007	-0.199746	0.814362
O140	O	1.819007	0.300254	1.314362
H141	H	1.258802	-0.232274	0.775051
H142	H	1.758802	0.267726	1.275051
H143	H	1.892917	-0.090988	0.120625
H144	H	2.392917	0.409012	0.620625
O145	O	1.877191	-0.097679	-0.137275
O146	O	2.377191	0.402321	0.362725
H147	H	1.804294	-0.141117	-0.122081
H148	H	2.304294	0.358883	0.377919
H149	H	1.341777	-0.187345	0.334081
H150	H	1.841777	0.312655	0.834081
H151	H	2.130057	-0.010616	-0.072315
H152	H	2.630057	0.489384	0.427685
O153	O	1.747349	0.114742	0.000087
O154	O	2.247349	0.614742	0.500087
H155	H	1.729434	0.056976	0.000094
H156	H	2.229434	0.556976	0.500094
H157	H	2.112422	-0.089535	0.120949
H158	H	2.612422	0.410465	0.620949
O159	O	1.850756	-0.216882	-0.065700
O160	O	2.350756	0.283118	0.434300
H161	H	1.928277	-0.237326	-0.097436
H162	H	2.428277	0.262674	0.402564
O163	O	1.685123	0.334445	-0.088140
O164	O	2.185123	0.834445	0.411860
H165	H	1.745745	0.375905	-0.117654
H166	H	2.245745	0.875905	0.382346
H167	H	1.529766	0.012117	0.569214
H168	H	2.029766	0.512117	1.069214
O169	O	2.145628	0.009296	0.069179
O170	O	2.645628	0.509296	0.569179
H171	H	2.208915	0.017657	0.020964
H172	H	2.708915	0.517657	0.520964
H173	H	1.468063	-0.217109	0.569156
H174	H	1.968063	0.282891	1.069156
H175	H	1.712993	0.253732	0.000067
H176	H	2.212993	0.753732	0.500067
H177	H	1.657931	0.473929	-0.076933
H178	H	2.157931	0.973929	0.423067
O179	O	1.316681	0.309948	0.088244
O180	O	1.816681	0.809948	0.588244
H181	H	1.254060	0.343216	0.117751
H182	H	1.754060	0.843216	0.617751
O183	O	1.678869	-0.005267	0.655917
O184	O	2.178869	0.494733	1.155917
H185	H	1.777777	-0.014622	0.670527
H186	H	2.277777	0.485378	1.170527
H187	H	1.656023	-0.017632	0.804296
H188	H	2.156023	0.482368	1.304296
H189	H	1.293238	0.225772	0.000039
H190	H	1.793238	0.725772	0.500039
O191	O	1.463549	-0.233800	0.420787
O192	O	1.963549	0.266200	0.920787
H193	H	1.451749	-0.277729	0.460086
H194	H	1.951749	0.222271	0.960086
O195	O	1.735370	0.561701	0.000039
O196	O	2.235370	1.061701	0.500039
H197	H	1.814809	0.604426	0.000029
H198	H	2.314809	1.104426	0.500029
O199	O	1.678852	-0.005270	0.344162
O200	O	2.178852	0.494730	0.844162
H201	H	1.664308	-0.013129	0.403569
H202	H	2.164308	0.486871	0.903569
H203	H	1.341831	-0.187356	0.666000
H204	H	1.841831	0.312644	1.166000
H205	H	1.281259	0.672738	0.000001
H206	H	1.781259	1.172738	0.500001
H207	H	1.284778	0.541284	0.000015
H208	H	1.784778	1.041284	0.500015
O209	O	1.266436	0.082693	0.000053
O210	O	1.766436	0.582693	0.500053
H211	H	1.184993	0.114699	0.000053
H212	H	1.684993	0.614699	0.500053
O213	O	1.678813	-0.005260	0.185718
O214	O	2.178813	0.494740	0.685718
H215	H	1.739017	0.027266	0.225031
H216	H	2.239017	0.527266	0.725031
H217	H	1.529751	0.012121	0.430922
H218	H	2.029751	0.512121	0.930922
O219	O	1.318865	-0.199706	0.185705
O220	O	1.818865	0.300294	0.685705
H221	H	1.258669	-0.232236	0.225011
H222	H	1.758669	0.267764	0.725011
H223	H	1.863725	-0.207064	0.049603
H224	H	2.363725	0.292936	0.549603
