data_functionalizedCrystal
_audit_creation_method	'MofGen! by Chris Wilmer'
_symmetry_space_group_name_H-M	'P1'
_symmetry_Int_Tables_number	1
_symmetry_cell_setting	triclinic
loop_
_symmetry_equiv_pos_as_xyz
  x,y,z
_cell_length_a	31.640172
_cell_length_b	31.640172
_cell_length_c	14.560438
_cell_angle_alpha	59.992865
_cell_angle_beta	90.005006
_cell_angle_gamma	59.998920
loop_
_atom_site_label
_atom_site_type_symbol
_atom_site_fract_x
_atom_site_fract_y
_atom_site_fract_z
Zr1	Zr	0.407162	0.462618	-0.120579
O2	O	0.339667	0.550809	-0.267279
O3	O	0.427855	0.374433	-0.075585
O4	O	0.427850	0.462615	-0.267220
O5	O	0.339674	0.462627	0.075496
O6	O	0.497407	0.462607	-0.267200
O7	O	0.339672	0.462627	-0.075644
O8	O	0.497416	0.304864	0.075600
O9	O	0.339665	0.620369	-0.267305
O10	O	0.488587	0.410696	-0.056408
O11	O	0.436678	0.410703	0.056370
O12	O	0.436672	0.514526	-0.169256
O13	O	0.384763	0.514533	-0.056477
Zr14	Zr	0.518099	0.462605	0.120503
Zr15	Zr	0.518097	0.462604	-0.120547
Zr16	Zr	0.407164	0.462619	0.120470
Zr17	Zr	0.407157	0.573559	-0.120621
Zr18	Zr	0.518104	0.351664	0.120544
O19	O	0.497406	0.550790	0.075509
O20	O	0.497403	0.550789	-0.267233
O21	O	0.339670	0.550810	0.075463
O22	O	0.585593	0.374414	0.267202
O23	O	0.585591	0.374413	-0.075540
O24	O	0.427857	0.374434	0.267156
O25	O	0.585587	0.462596	-0.075572
O26	O	0.497411	0.462608	0.267144
O27	O	0.427854	0.462616	0.267124
O28	O	0.585588	0.462596	0.075567
O29	O	0.427843	0.620358	-0.267279
O30	O	0.497417	0.304865	0.267202
O31	O	0.585596	0.304854	0.267228
O32	O	0.585595	0.304853	0.075626
O33	O	0.339666	0.620370	-0.075702
O34	O	0.427845	0.620359	-0.075677
O35	O	0.488589	0.410697	0.169179
O36	O	0.540497	0.410690	0.056400
O37	O	0.488583	0.514520	-0.056447
O38	O	0.436674	0.514527	0.056332
C39	C	0.462636	0.323842	0.000013
C40	C	0.462638	0.276745	0.000031
C41	C	0.424310	0.023075	-0.083348
C42	C	0.424306	-0.153906	-0.083379
O43	O	0.391727	-0.144195	-0.154244
N44	N	0.462627	-0.214362	-0.000089
C45	C	0.500954	-0.230574	0.083210
O46	O	0.533551	-0.286057	0.154046
C47	C	0.500959	-0.053593	0.083236
C48	C	0.462633	0.006864	-0.000053
C49	C	0.385986	0.083529	-0.166631
C50	C	0.385986	0.127772	-0.166619
C51	C	0.424309	0.111560	-0.083324
C52	C	0.462633	0.051106	-0.000041
C53	C	0.539288	-0.069805	0.166530
C54	C	0.539287	-0.025554	0.166527
C55	C	0.500960	0.034903	0.083238
C56	C	0.500955	0.079137	0.083266
N57	N	0.462634	0.139593	-0.000024
C58	C	0.424311	0.155805	-0.083319
C59	C	0.500948	-0.323489	0.083192
C60	C	0.500946	-0.367734	0.083187
C61	C	0.424298	-0.291062	-0.083404
C62	C	0.424298	-0.246817	-0.083393
C63	C	0.462626	-0.263032	-0.000098
C64	C	0.424313	0.248714	-0.083286
C65	C	0.424315	0.292957	-0.083264
C66	C	0.500964	0.216282	0.083323
C67	C	0.500961	0.172043	0.083305
C68	C	0.462633	0.188263	-0.000010
O69	O	0.533520	0.069470	0.154087
O70	O	0.391725	0.211291	-0.154158
C71	C	0.424310	-0.021167	-0.083360
C72	C	0.462633	-0.081621	-0.000077
C73	C	0.500956	-0.097832	0.083218
C74	C	0.462631	-0.125866	-0.000082
C75	C	0.424308	-0.109654	-0.083377
C76	C	0.385987	-0.049197	-0.166667
C77	C	0.385987	-0.004955	-0.166655
C78	C	0.539277	-0.158289	0.166507
C79	C	0.539274	-0.202528	0.166489
C80	C	0.500951	-0.186317	0.083194
C81	C	0.323867	0.462629	-0.000079
C82	C	0.276772	0.462635	-0.000092
C83	C	0.011865	0.408408	0.058889
C84	C	-0.165120	0.408397	0.058912
O85	O	-0.164959	0.362303	0.109049
N86	N	-0.214349	0.462595	0.000005
C87	C	-0.219330	0.516799	-0.058905
O88	O	-0.265263	0.562898	-0.108999
C89	C	-0.042346	0.516809	-0.058920
C90	C	0.006882	0.462608	-0.000019
C91	C	0.061091	0.354211	0.117787
C92	C	0.105334	0.354214	0.117776
C93	C	0.100352	0.408414	0.058867
C94	C	0.051126	0.462611	-0.000030
C95	C	-0.047328	0.571013	-0.117823
C96	C	-0.003077	0.571010	-0.117819
C97	C	0.046152	0.516809	-0.058918
C98	C	0.090386	0.516814	-0.058950
N99	N	0.139615	0.462616	-0.000043
C100	C	0.144598	0.408416	0.058865
C101	C	-0.312248	0.516790	-0.058895
C102	C	-0.356494	0.516788	-0.058893
C103	C	-0.302280	0.408386	0.058926
C104	C	-0.258034	0.408389	0.058917
C105	C	-0.263019	0.462593	0.000012
C106	C	0.237510	0.408427	0.058837
C107	C	0.281755	0.408435	0.058816
C108	C	0.227538	0.516837	-0.058997
C109	C	0.183296	0.516829	-0.058982
C110	C	0.188286	0.462619	-0.000057
O111	O	0.090265	0.562884	-0.109051
O112	O	0.190535	0.362325	0.108972
C113	C	-0.032378	0.408404	0.058901
C114	C	-0.081604	0.462601	0.000003
C115	C	-0.086587	0.516802	-0.058905
C116	C	-0.125850	0.462599	0.000005
C117	C	-0.120868	0.408399	0.058914
C118	C	-0.071639	0.354201	0.117820
C119	C	-0.027396	0.354204	0.117809
C120	C	-0.135816	0.570999	-0.117812
C121	C	-0.180057	0.570992	-0.117797
C122	C	-0.175074	0.516792	-0.058888
C123	C	0.601394	0.462594	0.000002
C124	C	0.648489	0.462588	0.000015
C125	C	0.462628	0.462611	-0.301555
C126	C	0.462628	0.462611	-0.403887
C127	C	0.462625	0.601381	-0.000090
C128	C	0.462623	0.648478	-0.000108
C129	C	0.424311	0.462617	-0.548136
C130	C	0.424309	0.462614	-0.451982
C131	C	0.500953	0.462604	-0.451945
C132	C	0.500957	0.462603	-0.548094
C133	C	0.395684	0.427786	-0.282741
C134	C	0.357354	0.427801	-0.234695
C135	C	0.306101	0.462646	-0.303785
C136	C	0.293168	0.497490	-0.420934
C137	C	0.331495	0.497480	-0.468980
C138	C	0.382754	0.462622	-0.399877
C139	C	0.529578	0.497436	-0.717341
C140	C	0.567903	0.497430	-0.765394
C141	C	0.619158	0.462589	-0.696311
C142	C	0.632091	0.427754	-0.579168
C143	C	0.593766	0.427760	-0.531115
C144	C	0.542511	0.462599	-0.600204
C145	C	0.462633	0.462612	0.301478
C146	C	0.462633	0.462612	0.403810
C147	C	0.601400	0.323825	0.000054
C148	C	0.648496	0.276722	0.000085
C149	C	0.462638	0.323843	0.301530
C150	C	0.462641	0.276746	0.403879
C151	C	0.601402	0.323825	0.301570
C152	C	0.648499	0.276722	0.403933
C153	C	0.323859	0.601398	-0.301647
C154	C	0.276761	0.648501	-0.404010
C155	C	0.323861	0.601398	-0.000130
C156	C	0.276764	0.648501	-0.000161
C157	C	0.462622	0.601380	-0.301606
C158	C	0.462620	0.648477	-0.403956
C159	C	0.643517	0.254605	-0.058796
C160	C	0.687765	0.210353	-0.058789
C161	C	0.736993	0.188215	0.000105
C162	C	0.741971	0.210336	0.058988
C163	C	0.697723	0.254591	0.058974
C164	C	0.489739	0.254625	0.510839
C165	C	0.489740	0.210379	0.607016
C166	C	0.462645	0.188251	0.596232
C167	C	0.435544	0.210376	0.489261
C168	C	0.435540	0.254624	0.393086
C169	C	0.697717	0.254599	0.393135
C170	C	0.741975	0.210347	0.489306
C171	C	0.737013	0.188216	0.596276
C172	C	0.687790	0.210344	0.607072
C173	C	0.643534	0.254598	0.510901
C174	C	0.227543	0.670630	-0.393211
C175	C	0.183286	0.714895	-0.489383
C176	C	0.188248	0.737028	-0.596352
C177	C	0.237471	0.714898	-0.607148
C178	C	0.281727	0.670636	-0.510978
C179	C	0.281744	0.670623	0.058709
C180	C	0.237495	0.714887	0.058676
C181	C	0.188268	0.737026	-0.000222
C182	C	0.183290	0.714903	-0.059100
C183	C	0.227537	0.670643	-0.059072
C184	C	0.489720	0.670591	-0.393135
C185	C	0.489727	0.714838	-0.489294
C186	C	0.462632	0.736973	-0.596273
C187	C	0.435531	0.714854	-0.607091
C188	C	0.435527	0.670606	-0.510933
H189	H	0.393101	0.342185	-0.151086
H190	H	0.701767	0.272611	0.306044
C191	C	0.405749	0.739188	-0.724778
N192	N	0.383323	0.757512	-0.813423
H193	H	0.143212	0.560964	-0.106959
C194	C	0.462640	0.785649	-0.702039
N195	N	0.462648	0.822313	-0.781699
H196	H	0.437417	0.399410	-0.226474
C197	C	0.519533	0.646248	-0.275468
N198	N	0.541992	0.627912	-0.186843
C199	C	0.688475	0.389426	-0.503171
N200	N	0.730944	0.360558	-0.445932
C201	C	0.335890	0.646281	0.123500
N202	N	0.376672	0.627952	0.172297
H203	H	0.223493	0.652611	-0.306120
C204	C	0.335866	0.646292	-0.522875
N205	N	0.376643	0.627957	-0.531845
H206	H	0.701785	0.272592	0.106928
H207	H	0.413456	0.652605	-0.519759
H208	H	0.393106	0.462623	-0.587293
C209	C	0.382145	-0.273237	-0.175034
N210	N	0.350399	-0.259815	-0.244052
C211	C	0.519539	0.739163	-0.477369
N212	N	0.541992	0.757483	-0.468383
H213	H	0.354781	0.176996	-0.234450
C214	C	0.382147	0.266565	-0.174929
N215	N	0.350385	0.280011	-0.243949
C216	C	0.129134	0.739254	-0.123865
N217	N	0.088343	0.757592	-0.172635
C218	C	0.543111	0.462586	-0.399021
N219	N	0.574867	0.462570	-0.359157
C220	C	0.519544	0.278961	0.522729
N221	N	0.541992	0.297291	0.531694
H222	H	0.773054	0.152182	0.674575
H223	H	0.241559	0.732892	0.106625
H224	H	0.143210	0.732907	-0.480571
H225	H	0.241580	0.364284	0.106820
C226	C	0.222051	0.646307	-0.123824
N227	N	0.217915	0.627979	-0.172596
H228	H	0.462652	0.152221	0.674553
C229	C	0.405744	0.186025	0.477417
N230	N	0.383302	0.167680	0.468499
C231	C	0.382139	-0.180316	-0.175023
N232	N	0.350384	-0.130227	-0.244045
H233	H	0.532165	0.203091	0.151142
C234	C	0.242920	0.739245	-0.724825
N235	N	0.247023	0.757581	-0.813463
H236	H	0.354779	0.096740	-0.234465
C237	C	0.139559	0.785713	-0.702133
N238	N	0.102884	0.822380	-0.781803
H239	H	0.152243	0.773066	-0.000235
H240	H	0.683702	0.192347	-0.106738
C241	C	0.371584	0.389468	-0.105833
N242	N	0.382299	0.360597	-0.008776
H243	H	0.413476	0.272629	0.305998
C244	C	0.796116	0.186009	0.477405
N245	N	0.836893	0.167677	0.468438
H246	H	0.511810	0.192370	0.694107
C247	C	0.682341	0.185989	0.724749
N248	N	0.678238	0.167640	0.813386
H249	H	0.532161	-0.336701	0.151025
C250	C	0.581451	-0.043397	0.258164
N251	N	0.613207	-0.056838	0.327187
C252	C	0.581462	-0.136302	0.258133
N253	N	0.613234	-0.186389	0.327125
H254	H	0.532150	-0.416958	0.151020
H255	H	0.782058	0.192305	0.106937
C256	C	0.543116	0.105538	0.174939
N257	N	0.574870	0.055448	0.243957
C258	C	0.343827	0.061545	-0.258287
N259	N	0.312071	0.111633	-0.327311
H260	H	0.354782	-0.036004	-0.234487
C261	C	0.581444	-0.269032	0.258111
N262	N	0.613210	-0.319120	0.327110
C263	C	0.159482	0.294587	0.182583
N264	N	0.200265	0.249673	0.231404
C265	C	0.335906	0.348807	0.123618
N266	N	0.376691	0.303896	0.172428
C267	C	0.066584	0.294581	0.182585
N268	N	0.070726	0.249664	0.231384
C269	C	-0.203885	0.348764	0.123720
N270	N	-0.163101	0.303851	0.172536
C271	C	0.785662	0.139530	0.000118
N272	N	0.822318	0.102858	0.000129
H273	H	-0.298230	0.364254	0.106885
C274	C	-0.317742	0.576423	-0.123715
N275	N	-0.321882	0.621339	-0.172545
H276	H	0.570486	-0.171498	0.234336
H277	H	-0.007142	0.615151	-0.165773
H278	H	-0.396575	0.560924	-0.106871
H279	H	-0.087405	0.615150	-0.165786
H280	H	0.012685	0.310068	0.165775
C281	C	-0.234207	0.630622	-0.182600
N282	N	-0.274991	0.675534	-0.231400
C283	C	-0.066166	0.294581	0.182622
N284	N	-0.062048	0.249677	0.231434
H285	H	0.223489	0.560965	-0.106963
H286	H	-0.139881	0.615137	-0.165785
H287	H	0.320965	0.525849	-0.564361
H288	H	0.251430	0.525868	-0.477182
H289	H	0.603460	0.272605	0.519709
C290	C	0.263940	0.462659	-0.250929
N291	N	0.232187	0.462664	-0.211111
H292	H	0.603438	0.272629	-0.106768
H293	H	0.650362	0.462593	-0.735448
C294	C	0.607994	0.389435	-0.402253
N295	N	0.618711	0.360569	-0.305195
H296	H	0.557369	0.525795	-0.860781
H297	H	0.487843	0.525802	-0.773603
