data_functionalizedCrystal
_audit_creation_method	'MofGen! by Chris Wilmer'
_symmetry_space_group_name_H-M	'P1'
_symmetry_Int_Tables_number	1
_symmetry_cell_setting	triclinic
loop_
_symmetry_equiv_pos_as_xyz
  x,y,z
_cell_length_a	19.121241
_cell_length_b	19.121449
_cell_length_c	19.076919
_cell_angle_alpha	90.071082
_cell_angle_beta	90.260442
_cell_angle_gamma	89.915403
loop_
_atom_site_label
_atom_site_type_symbol
_atom_site_fract_x
_atom_site_fract_y
_atom_site_fract_z
Zn1	Zn	1.067104	-0.251552	0.432899
Zn2	Zn	1.076698	-0.363700	0.310824
Zn3	Zn	0.954562	-0.251452	0.310403
Zn4	Zn	0.955211	-0.373326	0.422866
O5	O	1.013394	-0.310008	0.369248
O6	O	1.166318	-0.262443	0.421081
O7	O	1.064240	-0.344740	0.212613
O8	O	0.965205	-0.153526	0.330675
O9	O	1.173367	-0.344837	0.331393
O10	O	1.047888	-0.153600	0.420673
O11	O	0.974507	-0.262272	0.212304
O12	O	0.856707	-0.271605	0.320946
O13	O	0.966310	-0.361243	0.522351
O14	O	0.857184	-0.361146	0.403572
O15	O	1.048517	-0.271776	0.529723
O16	O	1.064869	-0.462916	0.321664
O17	O	0.975613	-0.469989	0.403980
C18	C	0.831550	-0.317410	0.361125
C19	C	0.753757	-0.320594	0.357666
C20	C	0.713541	-0.279265	0.402802
C21	C	0.640446	-0.282254	0.399546
C22	C	0.607568	-0.326575	0.351156
C23	C	0.647790	-0.367905	0.306015
C24	C	0.720883	-0.364912	0.309268
C25	C	0.387056	-0.337749	0.338991
C26	C	0.313957	-0.340740	0.335742
C27	C	0.306618	-0.255087	0.429272
C28	C	0.379713	-0.252102	0.432524
C29	C	0.419929	-0.293429	0.387381
C30	C	0.532853	-0.329632	0.347828
C31	C	0.494642	-0.290368	0.390706
C32	C	1.021371	-0.491847	0.361795
C33	C	1.024847	-0.569637	0.358633
C34	C	0.979980	-0.609890	0.399967
C35	C	0.983249	-0.682981	0.396993
C36	C	1.031389	-0.715819	0.352689
C37	C	1.076258	-0.675560	0.311350
C38	C	1.072985	-0.602470	0.314321
C39	C	1.043595	-0.936318	0.341574
C40	C	1.046866	-1.009414	0.338608
C41	C	0.953856	-1.016830	0.424250
C42	C	0.950590	-0.943738	0.427220
C43	C	0.995456	-0.903486	0.385879
C44	C	1.034733	-0.790530	0.349649
C45	C	0.992108	-0.828776	0.388914
C46	C	1.195947	-0.302577	0.377403
C47	C	1.273741	-0.299411	0.380879
C48	C	1.006416	-0.317595	0.552199
C49	C	1.003443	-0.320828	0.630162
C50	C	1.005404	-0.127459	0.376746
C51	C	1.001999	-0.049667	0.379941
C52	C	1.020382	-0.302398	0.187012
C53	C	1.023483	-0.298963	0.109064
C54	C	1.044844	-0.275768	0.670628
C55	C	1.042042	-0.278804	0.743882
C56	C	0.997841	-0.326903	0.776669
C57	C	0.956435	-0.371964	0.736198
C58	C	0.959234	-0.368925	0.662945
C59	C	0.984876	-0.340985	0.995340
C60	C	0.982081	-0.344022	1.068598
C61	C	1.067688	-0.250860	1.076278
C62	C	1.070486	-0.247828	1.003023
C63	C	1.029077	-0.292887	0.962558
N64	N	0.994977	-0.330008	0.851547
N65	N	1.031938	-0.289778	0.887682
H66	H	0.419791	-0.371401	0.302232
Br67	Br	1.123881	-0.189711	1.131198
Br68	Br	0.252037	-0.199003	0.490535
H69	H	1.086071	-1.036147	0.302531
Br70	Br	1.130478	-0.182551	0.958532
H71	H	0.951168	-0.377685	0.962401
H72	H	0.925513	-0.405610	0.629998
H73	H	1.080840	-0.236603	0.643939
Br74	Br	0.896442	-0.437238	0.780693
Br75	Br	0.892969	-1.071461	0.480351
Br76	Br	0.775464	-0.421002	0.248009
H77	H	1.080128	-0.903551	0.307914
H78	H	0.952910	-0.802038	0.424984
H79	H	0.911391	-0.917004	0.463296
Br80	Br	0.922088	-0.409301	1.113094
Br81	Br	0.539262	-0.230216	0.456372
H82	H	0.740304	-0.243176	0.442208
Br83	Br	0.424328	-0.191957	0.498205
Br84	Br	1.141590	-0.720124	0.251221
Br85	Br	0.603171	-0.428050	0.240337
Br86	Br	0.922362	-0.737609	0.453098
H87	H	0.607704	-0.248601	0.436302
H88	H	0.506076	-0.365718	0.308429
H89	H	0.940783	-0.583159	0.436047
Br90	Br	0.269338	-0.400915	0.270086
Br91	Br	1.133872	-0.547839	0.258216
Br92	Br	1.098266	-0.217680	0.798799
H93	H	1.073929	-0.817274	0.313577
