data_functionalizedCrystal
_audit_creation_method	'MofGen! by Chris Wilmer'
_symmetry_space_group_name_H-M	'P1'
_symmetry_Int_Tables_number	1
_symmetry_cell_setting	triclinic
loop_
_symmetry_equiv_pos_as_xyz
  x,y,z
_cell_length_a	14.044191
_cell_length_b	10.540539
_cell_length_c	13.101039
_cell_angle_alpha	93.398267
_cell_angle_beta	86.337551
_cell_angle_gamma	88.858634
loop_
_atom_site_label
_atom_site_type_symbol
_atom_site_fract_x
_atom_site_fract_y
_atom_site_fract_z
O1	O	1.264949	0.299888	-0.085156
O2	O	1.598283	0.633221	0.248178
O3	O	1.931616	0.966555	0.581511
O4	O	0.988906	0.288826	-0.085169
O5	O	1.322239	0.622159	0.248164
O6	O	1.655572	0.955493	0.581498
O7	O	1.133225	0.110288	-0.085161
O8	O	1.466559	0.443621	0.248173
O9	O	1.799892	0.776954	0.581506
O10	O	1.120630	0.478427	-0.085164
O11	O	1.453963	0.811760	0.248169
O12	O	1.787296	1.145093	0.581503
O13	O	1.122871	0.123121	0.085269
O14	O	1.456204	0.456454	0.418602
O15	O	1.789537	0.789787	0.751935
O16	O	0.978551	0.301659	0.085260
O17	O	1.311884	0.634993	0.418594
O18	O	1.645218	0.968326	0.751927
O19	O	1.254595	0.312721	0.085274
O20	O	1.587928	0.646054	0.418607
O21	O	1.921261	0.979388	0.751940
Zn22	Zn	1.114929	0.309228	0.112326
Zn23	Zn	1.448262	0.642561	0.445660
Zn24	Zn	1.781596	0.975894	0.778993
Zn25	Zn	1.128572	0.292320	-0.112222
Zn26	Zn	1.461905	0.625653	0.221112
Zn27	Zn	1.795238	0.958986	0.554445
O28	O	1.110275	0.491260	0.085265
O29	O	1.443609	0.824593	0.418599
O30	O	1.776942	1.157926	0.751932
C31	C	0.948381	0.290404	0.000044
C32	C	1.281715	0.623737	0.333377
C33	C	1.615048	0.957070	0.666711
C34	C	0.843058	0.275970	0.000039
C35	C	1.176391	0.609303	0.333372
C36	C	1.509725	0.942637	0.666705
C37	C	0.593285	0.351949	0.000048
C38	C	0.926619	0.685282	0.333382
C39	C	1.259952	1.018615	0.666715
C40	C	0.650221	0.249604	0.000047
C41	C	0.983555	0.582937	0.333381
C42	C	1.316888	0.916270	0.666714
C43	C	0.757525	0.264277	0.000043
C44	C	1.090859	0.597611	0.333376
C45	C	1.424192	0.930944	0.666709
C46	C	0.485971	0.337277	0.000053
C47	C	0.819305	0.670610	0.333386
C48	C	1.152638	1.003943	0.666720
C49	C	1.127103	0.069305	0.000052
C50	C	1.460437	0.402639	0.333385
C51	C	1.793770	0.735972	0.666719
C52	C	1.124278	-0.071929	0.000046
C53	C	1.457611	0.261405	0.333380
C54	C	1.790944	0.594738	0.666713
C55	C	1.016012	-0.266336	-0.000341
C56	C	1.349345	0.066997	0.332992
C57	C	1.682678	0.400330	0.666325
C58	C	1.018853	-0.119400	0.000042
C59	C	1.352187	0.213934	0.333376
C60	C	1.685520	0.547267	0.666709
C61	C	1.169100	-0.121127	0.097372
C62	C	1.502433	0.212206	0.430706
C63	C	1.835766	0.545540	0.764039
C64	C	1.165497	-0.268029	0.097454
C65	C	1.498830	0.065304	0.430787
C66	C	1.832163	0.398637	0.764121
C67	C	1.179416	-0.282924	-0.096356
C68	C	1.512749	0.050409	0.236978
C69	C	1.846083	0.383742	0.570311
C70	C	1.180465	-0.135941	-0.097642
C71	C	1.513799	0.197392	0.235691
C72	C	1.847132	0.530726	0.569024
C73	C	1.295119	0.311143	0.000058
C74	C	1.628453	0.644477	0.333392
C75	C	1.961786	0.977810	0.666725
C76	C	1.400443	0.325577	0.000057
C77	C	1.733776	0.658910	0.333390
C78	C	2.067110	0.992243	0.666724
C79	C	1.116397	0.532242	0.000050
C80	C	1.449730	0.865575	0.333384
C81	C	1.783064	1.198908	0.666717
C82	C	1.119223	0.673475	0.000049
C83	C	1.452557	1.006809	0.333383
C84	C	1.785890	1.340142	0.666716
N85	N	1.105625	0.320767	0.265574
N86	N	1.438958	0.654100	0.598908
N87	N	1.772292	0.987434	0.932241
N88	N	1.137883	0.280771	-0.265470
N89	N	1.471216	0.614104	0.067864
N90	N	1.804549	0.947438	0.401197
C91	C	1.092967	0.336478	0.474616
C92	C	1.426300	0.669812	0.807949
C93	C	1.759634	1.003145	1.141283
C94	C	1.150538	0.265063	0.525495
C95	C	1.483871	0.598397	0.858828
C96	C	1.817205	0.931730	1.192162
C97	C	1.143495	0.273805	0.641813
C98	C	1.476828	0.607139	0.975146
C99	C	1.810161	0.940472	1.308480
C100	C	1.100009	0.327738	0.358288
C101	C	1.433342	0.661071	0.691621
C102	C	1.766676	0.994405	1.024954
H103	H	0.618383	0.150958	-0.000024
H104	H	0.951716	0.484291	0.333309
H105	H	1.285049	0.817624	0.666643
Br106	Br	0.646357	0.516347	0.000036
Br107	Br	0.979690	0.849680	0.333370
Br108	Br	1.313024	1.183014	0.666703
Br109	Br	1.002006	0.449323	0.547611
Br110	Br	1.335339	0.782656	0.880944
Br111	Br	1.668672	1.115990	1.214277
H112	H	0.983171	-0.086087	-0.069725
H113	H	1.316504	0.247246	0.263608
H114	H	1.649838	0.580580	0.596942
H115	H	0.978607	-0.304403	-0.070136
H116	H	1.311940	0.028930	0.263198
H117	H	1.645274	0.362263	0.596531
Br118	Br	1.241909	0.152797	0.452501
Br119	Br	1.575243	0.486131	0.785834
Br120	Br	1.908576	0.819464	1.119167
Br121	Br	0.939672	-0.315619	0.114974
Br122	Br	1.273005	0.017715	0.448308
Br123	Br	1.606339	0.351048	0.781641
Br124	Br	0.944767	-0.047797	0.116509
Br125	Br	1.278100	0.285536	0.449843
Br126	Br	1.611433	0.618869	0.783176
H127	H	1.123581	-0.294543	0.170204
H128	H	1.456915	0.038791	0.503537
H129	H	1.790248	0.372124	0.836870
H130	H	1.246301	-0.090671	0.100995
H131	H	1.579634	0.242663	0.434328
H132	H	1.912967	0.575996	0.767661
Br133	Br	1.291415	-0.334652	0.104832
Br134	Br	1.624748	-0.001319	0.438166
Br135	Br	1.958082	0.332014	0.771499
H136	H	1.129456	-0.076638	0.169795
H137	H	1.462790	0.256695	0.503129
H138	H	1.796123	0.590028	0.836462
Br139	Br	1.126413	-0.082258	-0.217667
Br140	Br	1.459747	0.251075	0.115666
Br141	Br	1.793080	0.584408	0.449000
Br142	Br	1.309171	-0.083345	-0.107443
Br143	Br	1.642504	0.249988	0.225891
Br144	Br	1.975837	0.583321	0.559224
Br145	Br	1.306399	-0.348882	-0.097443
Br146	Br	1.639732	-0.015549	0.235890
Br147	Br	1.973066	0.317784	0.569223
Br148	Br	1.130007	-0.350505	-0.219307
Br149	Br	1.463341	-0.017172	0.114027
Br150	Br	1.796674	0.316161	0.447360
