data_functionalizedCrystal
_audit_creation_method	'MofGen! by Chris Wilmer'
_symmetry_space_group_name_H-M	'P1'
_symmetry_Int_Tables_number	1
_symmetry_cell_setting	triclinic
loop_
_symmetry_equiv_pos_as_xyz
  x,y,z
_cell_length_a	16.959454
_cell_length_b	16.959455
_cell_length_c	12.759393
_cell_angle_alpha	90.030463
_cell_angle_beta	89.970996
_cell_angle_gamma	89.984932
loop_
_atom_site_label
_atom_site_type_symbol
_atom_site_fract_x
_atom_site_fract_y
_atom_site_fract_z
Zn1	Zn	-0.314754	-1.208437	-0.594307
Zn2	Zn	-0.446951	-1.208344	-0.418629
Zn3	Zn	-0.314779	-1.076250	-0.418611
Zn4	Zn	-0.446883	-1.076230	-0.594236
O5	O	-0.380842	-1.142315	-0.506446
O6	O	-0.332308	-1.319036	-0.571040
O7	O	-0.429458	-1.190790	-0.271606
O8	O	-0.204165	-1.093832	-0.441940
O9	O	-0.429433	-1.318967	-0.441971
O10	O	-0.204146	-1.190949	-0.571022
O11	O	-0.332352	-1.093742	-0.271593
O12	O	-0.332285	-0.965636	-0.441871
O13	O	-0.429316	-1.093798	-0.741267
O14	O	-0.429341	-0.965622	-0.570902
O15	O	-0.332241	-1.190930	-0.741318
O16	O	-0.557553	-1.190771	-0.441902
O17	O	-0.557503	-1.093708	-0.570919
C18	C	-0.380809	-0.936949	-0.506377
C19	C	-0.380814	-0.849092	-0.506373
C20	C	-0.586208	-1.142249	-0.506428
C21	C	-0.674065	-1.142293	-0.506455
C22	C	-0.431341	-0.477570	-0.439155
C23	C	-0.330361	-0.477663	-0.573764
C24	C	-0.330351	-0.560209	-0.573745
C25	C	-0.380838	-0.601439	-0.506431
C26	C	-0.431334	-0.560124	-0.439136
C27	C	-0.279861	-0.601531	-0.641046
C28	C	-0.279849	-0.684082	-0.641030
C29	C	-0.330332	-0.725313	-0.573710
C30	C	-0.380831	-0.683993	-0.506411
C31	C	-0.431317	-0.725223	-0.439097
C32	C	-0.481812	-0.683904	-0.371793
C33	C	-0.481818	-0.601356	-0.371815
C34	C	-0.330327	-0.807862	-0.573687
C35	C	-0.431310	-0.807777	-0.439078
C36	C	-1.045544	-1.091848	-0.573618
C37	C	-1.045537	-1.193003	-0.439381
C38	C	-0.962991	-1.192975	-0.439371
C39	C	-0.921718	-1.142382	-0.506485
C40	C	-0.962990	-1.091817	-0.573608
C41	C	-0.921712	-1.243534	-0.372241
C42	C	-0.839161	-1.243508	-0.372228
C43	C	-0.797886	-1.192918	-0.439348
C44	C	-0.839164	-1.142351	-0.506475
C45	C	-0.797891	-1.091758	-0.573589
C46	C	-0.839167	-1.041195	-0.640722
C47	C	-0.921716	-1.041227	-0.640728
C48	C	-0.715338	-1.192886	-0.439342
C49	C	-0.715337	-1.091728	-0.573579
C50	C	-0.174674	-1.142403	-0.506487
C51	C	-0.086817	-1.142441	-0.506504
C52	C	-0.380768	-1.142373	-0.780479
C53	C	-0.380737	-1.142397	-0.897256
C54	C	-0.380867	-0.348483	-0.506496
C55	C	-0.380855	-0.436340	-0.506469
C56	C	-0.431241	-1.192951	-1.061861
C57	C	-0.431279	-1.192932	-0.952136
C58	C	-0.330160	-1.091872	-0.952106
C59	C	-0.330127	-1.091888	-1.061828
C60	C	-0.380858	-1.142303	-0.233478
C61	C	-0.380667	-1.142432	-0.116702
H62	H	-0.472421	-0.841341	-0.384258
H63	H	-0.288942	-1.050745	-1.106481
Br64	Br	-0.499831	-1.261545	-1.136330
Br65	Br	-0.261810	-0.863935	-0.665029
Br66	Br	-0.977728	-1.312195	-0.281169
H67	H	-0.289261	-0.444088	-0.628574
H68	H	-0.289011	-1.050722	-0.907413
Br69	Br	-0.659323	-1.261491	-0.348226
H70	H	-0.805553	-0.999998	-0.695362
H71	H	-0.805559	-1.284680	-0.317566
Br72	Br	-1.101558	-1.023235	-0.664731
H73	H	-0.238762	-0.567955	-0.695856
Br74	Br	-0.499922	-1.261494	-0.877712
Br75	Br	-0.211323	-0.740150	-0.732370
Br76	Br	-0.550335	-0.739870	-0.280451
H77	H	-0.522927	-0.567707	-0.317019
H78	H	-0.472451	-0.443925	-0.384354
H79	H	-0.955330	-1.000060	-0.695383
Br80	Br	-0.659330	-1.023068	-0.664676
H81	H	-1.079146	-1.234189	-0.384734
