data_functionalizedCrystal
_audit_creation_method	'MofGen! by Chris Wilmer'
_symmetry_space_group_name_H-M	'P1'
_symmetry_Int_Tables_number	1
_symmetry_cell_setting	triclinic
loop_
_symmetry_equiv_pos_as_xyz
  x,y,z
_cell_length_a	6.394989
_cell_length_b	16.992694
_cell_length_c	15.455313
_cell_angle_alpha	92.865953
_cell_angle_beta	87.251077
_cell_angle_gamma	88.582967
loop_
_atom_site_label
_atom_site_type_symbol
_atom_site_fract_x
_atom_site_fract_y
_atom_site_fract_z
O1	O	-0.452196	-1.041422	0.072013
O2	O	-0.447332	-0.813087	0.072039
O3	O	-0.146241	-0.930496	0.072026
O4	O	-0.753287	-0.924014	0.072026
O5	O	-0.129078	-0.937203	-0.072237
O6	O	-0.430169	-0.819794	-0.072224
O7	O	-0.435033	-1.048129	-0.072250
Cu8	Cu	-0.431034	-0.934574	-0.085409
Cu9	Cu	-0.451331	-0.926642	0.085198
O10	O	-0.736124	-0.930721	-0.072237
C11	C	-0.432490	-0.787166	-0.000089
C12	C	-0.413810	-0.699937	-0.000079
N13	N	-0.465593	-0.921064	0.205194
C14	C	-0.449875	-1.074050	-0.000120
C15	C	-0.468556	-1.161279	-0.000124
C16	C	-0.059624	-0.932567	-0.000102
C17	C	0.177264	-0.928650	-0.000100
N18	N	-0.416757	-0.940158	-0.205405
C19	C	-0.594058	-0.651478	-0.000080
C20	C	-0.576491	-0.569518	-0.000092
C21	C	-0.378675	-0.536019	-0.000097
C22	C	-0.198413	-0.584485	-0.000099
C23	C	-0.215981	-0.666443	-0.000093
C24	C	-0.305863	-0.291703	-0.000120
C25	C	-0.288308	-0.209738	-0.000123
C26	C	-0.666388	-0.194777	-0.000118
C27	C	-0.683939	-0.276738	-0.000107
C28	C	-0.503677	-0.325196	-0.000113
N29	N	-0.360715	-0.452243	-0.000106
N30	N	-0.521638	-0.408971	-0.000110
C31	C	-0.337958	-0.971043	0.250583
C32	C	-0.348739	-0.966823	0.341392
C33	C	-0.487145	-0.912619	0.386809
C34	C	-0.614794	-0.862638	0.341414
C35	C	-0.604022	-0.866862	0.250608
C36	C	-0.533634	-0.894402	0.658393
C37	C	-0.544391	-0.890179	0.749206
C38	C	-0.278338	-0.994366	0.749177
C39	C	-0.267570	-0.998583	0.658369
C40	C	-0.395226	-0.948604	0.612981
N41	N	-0.498163	-0.908302	0.479630
N42	N	-0.384217	-0.952925	0.520162
H43	H	-0.755141	-0.678746	-0.000075
H44	H	-0.723269	-0.530065	-0.000092
H45	H	-0.069204	-0.705898	-0.000092
H46	H	-0.813146	-0.155314	-0.000115
Br47	Br	-0.061218	-0.357458	-0.000131
Br48	Br	0.070056	-0.539023	-0.000114
H49	H	-0.225244	-1.015178	0.213610
Br50	Br	-0.079724	-1.072142	0.596728
H51	H	-0.707959	-0.826165	0.213653
H52	H	-0.845022	-0.304006	-0.000093
Br53	Br	-0.802652	-0.789079	0.403049
Br54	Br	-0.175527	-1.034656	0.402994
Br55	Br	-0.105610	-1.062374	0.810778
Br56	Br	-0.732236	-0.816606	0.810839
Br57	Br	-0.019824	-0.164277	-0.000148
Br58	Br	-0.706872	-0.826574	0.596801
