data_functionalizedCrystal
_audit_creation_method	'MofGen! by Chris Wilmer'
_symmetry_space_group_name_H-M	'P1'
_symmetry_Int_Tables_number	1
_symmetry_cell_setting	triclinic
loop_
_symmetry_equiv_pos_as_xyz
  x,y,z
_cell_length_a	18.215407
_cell_length_b	12.759400
_cell_length_c	18.215399
_cell_angle_alpha	89.974163
_cell_angle_beta	89.983176
_cell_angle_gamma	90.013614
loop_
_atom_site_label
_atom_site_type_symbol
_atom_site_fract_x
_atom_site_fract_y
_atom_site_fract_z
Zn1	Zn	1.125110	-0.418240	-0.416139
Zn2	Zn	1.625110	0.081760	0.083861
Zn3	Zn	1.125050	-0.593944	-0.293082
Zn4	Zn	1.625050	-0.093944	0.206918
Zn5	Zn	1.002049	-0.418281	-0.293086
Zn6	Zn	1.502049	0.081719	0.206914
Zn7	Zn	1.002034	-0.593878	-0.416107
Zn8	Zn	1.502034	-0.093878	0.083893
O9	O	1.063561	-0.506086	-0.354604
O10	O	1.563561	-0.006086	0.145396
O11	O	1.228086	-0.441557	-0.399827
O12	O	1.728086	0.058443	0.100173
O13	O	1.108715	-0.570687	-0.190099
O14	O	1.608715	-0.070687	0.309901
O15	O	1.018405	-0.271255	-0.309424
O16	O	1.518405	0.228745	0.190576
O17	O	1.228042	-0.570647	-0.309418
O18	O	1.728042	-0.070647	0.190582
O19	O	1.108817	-0.271224	-0.399831
O20	O	1.608817	0.228776	0.100169
O21	O	1.018347	-0.441628	-0.190102
O22	O	1.518347	0.058372	0.309898
O23	O	0.899063	-0.441565	-0.309394
O24	O	1.399063	0.058435	0.190606
O25	O	1.018379	-0.570534	-0.519096
O26	O	1.518379	-0.070534	-0.019096
O27	O	0.899051	-0.570575	-0.399777
O28	O	1.399051	-0.070575	0.100223
O29	O	1.108802	-0.441493	-0.519119
O30	O	1.608802	0.058507	-0.019119
O31	O	1.108700	-0.740957	-0.309387
O32	O	1.608700	-0.240957	0.190613
O33	O	1.018321	-0.740908	-0.399773
O34	O	1.518321	-0.240908	0.100227
C35	C	0.872354	-0.506068	-0.354583
C36	C	1.372354	-0.006068	0.145417
C37	C	0.790556	-0.506085	-0.354591
C38	C	1.290556	-0.006085	0.145409
C39	C	0.602375	-0.573367	-0.401594
C40	C	1.102375	-0.073367	0.098406
C41	C	0.525516	-0.573370	-0.401604
C42	C	1.025516	-0.073370	0.098396
C43	C	0.525498	-0.438824	-0.307629
C44	C	1.025498	0.061176	0.192371
C45	C	0.602356	-0.438816	-0.307624
C46	C	1.102356	0.061184	0.192376
C47	C	0.640792	-0.506094	-0.354606
C48	C	1.140792	-0.006094	0.145394
C49	C	0.487076	-0.506105	-0.354620
C50	C	0.987076	-0.006105	0.145380
C51	C	0.403742	-0.506108	-0.354630
C52	C	0.903742	-0.006108	0.145370
C53	C	0.724131	-0.506089	-0.354597
C54	C	1.224131	-0.006089	0.145403
C55	C	1.063522	-0.779053	-0.354592
C56	C	1.563522	-0.279053	0.145408
C57	C	1.063573	-0.895830	-0.354612
C58	C	1.563573	-0.395830	0.145388
C59	C	1.110627	-0.950596	-0.401725
C60	C	1.610627	-0.450596	0.098275
C61	C	1.110661	-1.060320	-0.401743
C62	C	1.610661	-0.560320	0.098257
C63	C	1.016585	-1.060502	-0.307528
C64	C	1.516585	-0.560502	0.192472
C65	C	1.016548	-0.950780	-0.307515
C66	C	1.516548	-0.450780	0.192485
C67	C	1.157652	-0.895646	-0.448822
C68	C	1.657652	-0.395646	0.051178
C69	C	1.204711	-0.950413	-0.495938
C70	C	1.704711	-0.450413	0.004062
C71	C	1.204745	-1.060137	-0.495956
C72	C	1.704745	-0.560137	0.004044
C73	C	1.157721	-1.115094	-0.448858
C74	C	1.657721	-0.615094	0.051142
C75	C	1.255514	-0.506105	-0.354625
C76	C	1.755514	-0.006105	0.145375
C77	C	1.337312	-0.506113	-0.354635
C78	C	1.837312	-0.006113	0.145365
C79	C	1.063595	-0.506002	-0.546557
C80	C	1.563595	-0.006002	-0.046557
C81	C	1.063610	-0.505966	-0.628356
C82	C	1.563610	-0.005966	-0.128356
C83	C	1.063620	-0.232053	-0.354632
C84	C	1.563620	0.267947	0.145368
C85	C	1.063645	-0.115276	-0.354643
C86	C	1.563645	0.384724	0.145357
C87	C	1.016595	-0.438720	-0.816552
C88	C	1.516595	0.061280	-0.316552
C89	C	1.016608	-0.438699	-0.893411
C90	C	1.516608	0.061301	-0.393411
C91	C	1.110713	-0.573087	-0.893397
C92	C	1.610713	-0.073087	-0.393397
C93	C	1.110696	-0.573113	-0.816540
C94	C	1.610696	-0.073113	-0.316540
C95	C	1.063638	-0.505923	-0.778119
C96	C	1.563638	-0.005923	-0.278119
C97	C	1.063668	-0.505876	-0.931835
C98	C	1.563668	-0.005876	-0.431835
C99	C	1.063682	-0.505854	-1.015169
C100	C	1.563682	-0.005854	-0.515169
C101	C	1.063623	-0.505947	-0.694780
C102	C	1.563623	-0.005947	-0.194780
C103	C	1.063568	-0.506094	-0.163398
C104	C	1.563568	-0.006094	0.336602
C105	C	1.063696	-0.505833	-0.081599
C106	C	1.563696	-0.005833	0.418401
H107	H	0.494194	-0.384051	-0.269377
H108	H	0.994194	0.115949	0.230623
H109	H	1.243056	-1.104725	-0.534326
H110	H	1.743056	-0.604725	-0.034326
C111	C	0.923590	-1.049665	-0.214401
C112	C	1.423590	-0.549665	0.285599
C113	C	0.964902	-1.120908	-0.255756
C114	C	1.464902	-0.620908	0.244244
H115	H	0.891681	-1.086959	-0.182441
H116	H	1.391681	-0.586959	0.317559
H117	H	0.955656	-1.006864	-0.186276
H118	H	1.455656	-0.506864	0.313724
H119	H	0.895406	-1.006868	-0.246442
H120	H	1.395406	-0.506868	0.253558
H121	H	0.993090	-1.163700	-0.223716
H122	H	1.493090	-0.663700	0.276284
H123	H	0.932832	-1.163727	-0.283884
H124	H	1.432832	-0.663727	0.216116
H125	H	0.633636	-0.384028	-0.269360
H126	H	1.133636	0.115972	0.230640
C127	C	0.594670	-0.706348	-0.494492
C128	C	1.094670	-0.206348	0.005508
C129	C	0.644625	-0.647305	-0.453244
C130	C	1.144625	-0.147305	0.046756
H131	H	0.620753	-0.751988	-0.526384
H132	H	1.120753	-0.251988	-0.026384
H133	H	0.564680	-0.746485	-0.462385
H134	H	1.064680	-0.246485	0.037615
H135	H	0.564706	-0.660609	-0.522692
H136	H	1.064706	-0.160609	-0.022692
H137	H	0.674586	-0.693044	-0.425040
H138	H	1.174586	-0.193044	0.074960
H139	H	0.674628	-0.607165	-0.485355
H140	H	1.174628	-0.107165	0.014645
C141	C	0.439127	-0.588149	-0.500590
C142	C	0.939127	-0.088149	-0.000590
C143	C	0.483289	-0.647321	-0.453255
C144	C	0.983289	-0.147321	0.046745
H145	H	0.413062	-0.633806	-0.532482
H146	H	0.913062	-0.133806	-0.032482
H147	H	0.405237	-0.548099	-0.472612
H148	H	0.905237	-0.048099	0.027388
H149	H	0.469136	-0.542425	-0.528788
H150	H	0.969136	-0.042425	-0.028788
H151	H	0.453280	-0.693040	-0.425053
H152	H	0.953280	-0.193040	0.074947
H153	H	0.517183	-0.687389	-0.481236
H154	H	1.017183	-0.187389	0.018764
C155	C	1.176567	-1.272330	-0.378899
C156	C	1.676567	-0.772330	0.121101
C157	C	1.157755	-1.235706	-0.448882
C158	C	1.657755	-0.735706	0.051118
H159	H	1.176585	-1.346789	-0.378915
H160	H	1.676585	-0.846789	0.121085
H161	H	1.224054	-1.247480	-0.366220
H162	H	1.724054	-0.747480	0.133780
H163	H	1.141811	-1.247573	-0.344102
H164	H	1.641811	-0.747573	0.155898
H165	H	1.192514	-1.260457	-0.483679
H166	H	1.692514	-0.760457	0.016321
H167	H	1.110261	-1.260567	-0.461570
H168	H	1.610261	-0.760567	0.038430
C169	C	1.006372	-0.297416	-0.730145
C170	C	1.506372	0.202584	-0.230145
C171	C	0.964864	-0.364873	-0.774321
C172	C	1.464864	0.135127	-0.274321
H173	H	0.974431	-0.251824	-0.704080
H174	H	1.474431	0.248176	-0.204080
H175	H	1.034379	-0.337441	-0.696256
H176	H	1.534379	0.162559	-0.196256
H177	H	1.038447	-0.257223	-0.760144
H178	H	1.538447	0.242777	-0.260144
H179	H	0.932792	-0.405073	-0.744321
H180	H	1.432792	0.094927	-0.244321
H181	H	0.936844	-0.324845	-0.808214
H182	H	1.436844	0.175155	-0.308214
H183	H	1.149027	-0.627790	-0.924689
H184	H	1.649027	-0.127790	-0.424689
H185	H	1.157631	-0.806303	-0.448811
H186	H	1.657631	-0.306303	0.051189
H187	H	0.978231	-0.906189	-0.269151
H188	H	1.478231	-0.406189	0.230849
C189	C	0.923597	-0.305855	-0.885699
C190	C	1.423597	0.194145	-0.385699
C191	C	0.964900	-0.364821	-0.935656
C192	C	1.464900	0.135179	-0.435656
H193	H	0.891677	-0.260241	-0.911781
H194	H	1.391677	0.239759	-0.411781
H195	H	0.895432	-0.351636	-0.855714
H196	H	1.395432	0.148364	-0.355714
H197	H	0.955673	-0.265684	-0.855730
H198	H	1.455673	0.234316	-0.355730
H199	H	0.932824	-0.404998	-0.965622
H200	H	1.432824	0.095002	-0.465622
H201	H	0.993067	-0.319035	-0.965654
H202	H	1.493067	0.180965	-0.465654
H203	H	1.242992	-0.905660	-0.534289
H204	H	1.742992	-0.405660	-0.034289
H205	H	1.149006	-0.627842	-0.785247
H206	H	1.649006	-0.127842	-0.285247
