data_functionalizedCrystal
_audit_creation_method	'MofGen! by Chris Wilmer'
_symmetry_space_group_name_H-M	'P1'
_symmetry_Int_Tables_number	1
_symmetry_cell_setting	triclinic
loop_
_symmetry_equiv_pos_as_xyz
  x,y,z
_cell_length_a	17.699077
_cell_length_b	15.944493
_cell_length_c	16.176319
_cell_angle_alpha	89.999072
_cell_angle_beta	89.993140
_cell_angle_gamma	83.377810
loop_
_atom_site_label
_atom_site_type_symbol
_atom_site_fract_x
_atom_site_fract_y
_atom_site_fract_z
O1	O	1.004243	0.106201	-0.068725
O2	O	1.504243	0.606201	0.431275
O3	O	0.783885	0.120026	-0.068728
O4	O	1.283885	0.620026	0.431272
O5	O	0.900104	-0.009177	-0.068733
O6	O	1.400104	0.490823	0.431267
O7	O	0.888024	0.235405	-0.068719
O8	O	1.388024	0.735405	0.431281
O9	O	0.900088	-0.009186	0.068760
O10	O	1.400088	0.490814	0.568760
O11	O	0.783869	0.120018	0.068766
O12	O	1.283869	0.620018	0.568766
O13	O	1.004227	0.106193	0.068768
O14	O	1.504227	0.606193	0.568768
Cu15	Cu	0.894047	0.113105	0.081321
Cu16	Cu	1.394047	0.613105	0.581321
Cu17	Cu	0.894066	0.113114	-0.081280
Cu18	Cu	1.394066	0.613114	0.418720
O19	O	0.888008	0.235396	0.068774
O20	O	1.388008	0.735396	0.568774
C21	C	0.755679	0.119528	0.000019
C22	C	1.255679	0.619528	0.500019
C23	C	0.671659	0.118044	0.000017
C24	C	1.171659	0.618044	0.500017
C25	C	0.632181	0.117341	0.074965
C26	C	1.132181	0.617341	0.574965
C27	C	0.553237	0.115933	0.074966
C28	C	1.053237	0.615933	0.574966
C29	C	0.513770	0.115235	0.000018
C30	C	1.013770	0.615235	0.500018
C31	C	0.553253	0.115936	-0.074936
C32	C	1.053253	0.615936	0.425064
C33	C	0.632197	0.117338	-0.074936
C34	C	1.132197	0.617338	0.425064
C35	C	0.234881	0.110284	-0.074938
C36	C	0.734881	0.610284	0.425062
C37	C	0.155931	0.108885	-0.074933
C38	C	0.655931	0.608885	0.425067
C39	C	0.155921	0.108879	0.074964
C40	C	0.655921	0.608879	0.574964
C41	C	0.234865	0.110280	0.074964
C42	C	0.734865	0.610280	0.574964
C43	C	0.274342	0.110977	0.000011
C44	C	0.774342	0.610977	0.500011
C45	C	0.359943	0.112501	0.000011
C46	C	0.859943	0.612501	0.500011
C47	C	0.428170	0.113717	0.000017
C48	C	0.928170	0.613717	0.500017
C49	C	0.899603	-0.040475	0.000010
C50	C	1.399603	0.459525	0.500010
C51	C	0.898122	-0.133721	-0.000000
C52	C	1.398122	0.366279	0.500000
C53	C	0.966532	-0.369626	0.000016
C54	C	1.466532	0.130374	0.500016
C55	C	0.929649	-0.420112	-0.067775
C56	C	1.429649	0.079888	0.432225
C57	C	0.895379	-0.304436	0.000010
C58	C	1.395379	0.195564	0.500010
C59	C	0.929617	-0.420096	0.067782
C60	C	1.429617	0.079904	0.567782
C61	C	0.892735	-0.469340	0.000023
C62	C	1.392735	0.030660	0.500023
C63	C	0.858516	-0.353693	-0.067838
C64	C	1.358516	0.146307	0.432162
C65	C	0.858494	-0.353674	0.067781
C66	C	1.358494	0.146326	0.567781
C67	C	0.821559	-0.404126	-0.000027
C68	C	1.321559	0.095874	0.499973
C69	C	0.896905	-0.209439	0.000001
C70	C	1.396905	0.290561	0.500001
C71	C	0.891204	-0.564334	0.000025
C72	C	1.391204	-0.064334	0.500025
C73	C	1.032433	0.106691	0.000020
C74	C	1.532433	0.606691	0.500020
C75	C	1.116453	0.108175	0.000017
C76	C	1.616453	0.608175	0.500017
C77	C	0.888509	0.266694	0.000029
C78	C	1.388509	0.766694	0.500029
C79	C	0.889990	0.359940	0.000034
C80	C	1.389990	0.859940	0.500034
N81	N	0.894039	0.113097	0.195686
N82	N	1.394039	0.613097	0.695686
N83	N	0.894079	0.113115	-0.195646
N84	N	1.394079	0.613115	0.304354
C85	C	0.945516	0.055909	0.238948
C86	C	1.445516	0.555909	0.738948
C87	C	0.945520	0.055908	0.325495
C88	C	1.445520	0.555908	0.825495
C89	C	0.894050	0.113100	0.368779
C90	C	1.394050	0.613100	0.868779
C91	C	0.842567	0.170291	0.325511
C92	C	1.342567	0.670291	0.825511
C93	C	0.842560	0.170287	0.238966
C94	C	1.342560	0.670287	0.738966
C95	C	0.842593	0.170307	0.674539
C96	C	1.342593	0.670307	1.174539
C97	C	0.842605	0.170308	0.761091
C98	C	1.342605	0.670308	1.261091
C99	C	0.945553	0.055928	0.761069
C100	C	1.445553	0.555928	1.261069
C101	C	0.945546	0.055924	0.674524
C102	C	1.445546	0.555924	1.174524
C103	C	0.894061	0.113112	0.631263
C104	C	1.394061	0.613112	1.131263
C105	C	0.894056	0.113111	0.537419
C106	C	1.394056	0.613111	1.037419
C107	C	0.894057	0.113106	0.462622
C108	C	1.394057	0.613106	0.962622
H109	H	0.521114	0.115362	-0.135961
H110	H	1.021114	0.615362	0.364039
O111	O	0.792494	0.225779	0.803102
O112	O	1.292494	0.725779	1.303102
C113	C	0.717578	0.212232	0.781962
C114	C	1.217578	0.712232	1.281962
H115	H	0.717225	0.144979	0.758173
H116	H	1.217225	0.644979	1.258173
H117	H	0.679602	0.221941	0.838890
H118	H	1.179602	0.721941	1.338890
H119	H	0.695326	0.258821	0.731733
H120	H	1.195326	0.758821	1.231733
H121	H	0.267014	0.110848	-0.135970
H122	H	0.767014	0.610848	0.364030
O123	O	1.039677	-0.351234	0.000031
O124	O	1.539677	0.148766	0.500031
C125	C	1.077441	-0.386489	0.070832
C126	C	1.577441	0.113511	0.570832
H127	H	1.047310	-0.441323	0.094233
H128	H	1.547310	0.058677	0.594233
H129	H	1.138805	-0.410353	0.054403
H130	H	1.638805	0.089647	0.554403
H131	H	1.076746	-0.336302	0.121108
H132	H	1.576746	0.163698	0.621108
O133	O	0.822559	-0.318990	0.136068
O134	O	1.322559	0.181010	0.636068
C135	C	0.760215	-0.261152	0.111767
C136	C	1.260215	0.238848	0.611767
H137	H	0.741505	-0.277505	0.046875
H138	H	1.241505	0.222495	0.546875
H139	H	0.711104	-0.264678	0.156762
H140	H	1.211104	0.235322	0.656762
H141	H	0.777623	-0.194505	0.112015
H142	H	1.277623	0.305495	0.612015
O143	O	0.965575	-0.454744	0.136070
O144	O	1.465575	0.045256	0.636070
C145	C	1.027081	-0.513714	0.111736
C146	C	1.527081	-0.013714	0.611736
H147	H	1.045619	-0.498244	0.046532
H148	H	1.545619	0.001756	0.546532
H149	H	1.076611	-0.510636	0.156256
H150	H	1.576611	-0.010636	0.656256
H151	H	1.008752	-0.579945	0.112743
H152	H	1.508752	-0.079945	0.612743
H153	H	0.987433	0.009341	0.203712
H154	H	1.487433	0.509341	0.703712
O155	O	0.273315	0.110994	0.147695
O156	O	0.773315	0.610994	0.647695
C157	C	0.351461	0.112358	0.131623
C158	C	0.851461	0.612358	0.631623
H159	H	0.359110	0.139141	0.067213
H160	H	0.859110	0.639141	0.567213
H161	H	0.376649	0.153647	0.179494
H162	H	0.876649	0.653647	0.679494
H163	H	0.381815	0.045391	0.135166
H164	H	0.881815	0.545391	0.635166
H165	H	0.959704	-0.449118	-0.125088
H166	H	1.459704	0.050882	0.374912
O167	O	0.822765	-0.319108	-0.136269
O168	O	1.322765	0.180892	0.363731
C169	C	0.824631	-0.230947	-0.135459
C170	C	1.324631	0.269053	0.364541
H171	H	0.873946	-0.215069	-0.095275
H172	H	1.373946	0.284931	0.404725
H173	H	0.832583	-0.207705	-0.201187
H174	H	1.332583	0.292295	0.298813
H175	H	0.768875	-0.198777	-0.109261
H176	H	1.268875	0.301223	0.390739
H177	H	0.760223	-0.419462	-0.000065
H178	H	1.260223	0.080538	0.499935
H179	H	0.664338	0.117912	-0.135967
H180	H	1.164338	0.617912	0.364033
H181	H	0.987436	0.009341	0.360719
H182	H	1.487436	0.509341	0.860719
O183	O	0.792536	0.225731	0.367648
O184	O	1.292536	0.725731	0.867648
C185	C	0.745848	0.180812	0.417709
C186	C	1.245848	0.680812	0.917709
H187	H	0.776006	0.115039	0.430670
H188	H	1.276006	0.615039	0.930670
H189	H	0.733876	0.215892	0.478570
H190	H	1.233876	0.715892	0.978570
H191	H	0.689911	0.175182	0.384372
H192	H	1.189911	0.675182	0.884372
H193	H	0.987461	0.009356	0.639285
H194	H	1.487461	0.509356	1.139285
H195	H	0.123770	0.108308	0.135995
H196	H	0.623770	0.608308	0.635995
H197	H	0.123800	0.108316	-0.135968
H198	H	0.623800	0.608316	0.364032
H199	H	0.987473	0.009360	0.796301
H200	H	1.487473	0.509360	1.296301
O201	O	0.792661	0.225980	0.632565
O202	O	1.292661	0.725980	1.132565
C203	C	0.804944	0.309113	0.653728
C204	C	1.304944	0.809113	1.153728
H205	H	0.865543	0.309432	0.677497
H206	H	1.365543	0.809432	1.177497
H207	H	0.796221	0.351287	0.596818
H208	H	1.296221	0.851287	1.096818
H209	H	0.763002	0.333842	0.703981
H210	H	1.263002	0.833842	1.203981
O211	O	0.792528	0.225923	0.197067
O212	O	1.292528	0.725923	0.697067
C213	C	0.747088	0.276391	0.253826
C214	C	1.247088	0.776391	0.753826
H215	H	0.778122	0.277300	0.315511
H216	H	1.278122	0.777300	0.815511
H217	H	0.735525	0.343488	0.228817
H218	H	1.235525	0.843488	0.728817
H219	H	0.690873	0.249194	0.263046
H220	H	1.190873	0.749194	0.763046
H221	H	0.664309	0.117916	0.135997
H222	H	1.164309	0.617916	0.635997
H223	H	0.521100	0.115346	0.135997
H224	H	1.021100	0.615346	0.635997
