data_functionalizedCrystal
_audit_creation_method	'MofGen! by Chris Wilmer'
_symmetry_space_group_name_H-M	'P1'
_symmetry_Int_Tables_number	1
_symmetry_cell_setting	triclinic
loop_
_symmetry_equiv_pos_as_xyz
  x,y,z
_cell_length_a	16.109318
_cell_length_b	17.019294
_cell_length_c	14.586319
_cell_angle_alpha	86.117240
_cell_angle_beta	90.000075
_cell_angle_gamma	83.431560
loop_
_atom_site_label
_atom_site_type_symbol
_atom_site_fract_x
_atom_site_fract_y
_atom_site_fract_z
O1	O	1.103030	0.101460	-0.084173
O2	O	1.436364	0.434793	0.249161
O3	O	1.769697	0.768127	0.582494
O4	O	0.860959	0.114064	-0.085186
O5	O	1.194292	0.447397	0.248147
O6	O	1.527626	0.780731	0.581481
O7	O	0.988748	-0.007072	-0.075609
O8	O	1.322081	0.326261	0.257725
O9	O	1.655414	0.659595	0.591058
O10	O	0.975242	0.222596	-0.093750
O11	O	1.308575	0.555929	0.239583
O12	O	1.641908	0.889263	0.572917
O13	O	0.988739	-0.007074	0.076872
O14	O	1.322072	0.326259	0.410206
O15	O	1.655406	0.659593	0.743539
O16	O	0.860950	0.114062	0.067295
O17	O	1.194284	0.447396	0.400628
O18	O	1.527617	0.780729	0.733962
O19	O	1.103022	0.101458	0.068308
O20	O	1.436355	0.434791	0.401642
O21	O	1.769688	0.768125	0.734975
Cu22	Cu	0.981985	0.107760	0.081724
Cu23	Cu	1.315318	0.441093	0.415058
Cu24	Cu	1.648652	0.774427	0.748391
Cu25	Cu	0.981996	0.107762	-0.098602
Cu26	Cu	1.315329	0.441095	0.234731
Cu27	Cu	1.648662	0.774429	0.568065
O28	O	0.975233	0.222594	0.058731
O29	O	1.308566	0.555928	0.392064
O30	O	1.641899	0.889261	0.725398
C31	C	0.829980	0.113550	-0.008907
C32	C	1.163314	0.446883	0.324426
C33	C	1.496647	0.780217	0.657759
C34	C	0.737687	0.112012	-0.008793
C35	C	1.071021	0.445346	0.324540
C36	C	1.404354	0.778679	0.657874
C37	C	0.438623	0.107046	-0.091502
C38	C	0.771956	0.440380	0.241831
C39	C	1.105290	0.773713	0.575165
C40	C	0.525343	0.108486	-0.091621
C41	C	0.858676	0.441819	0.241712
C42	C	1.192010	0.775153	0.575045
C43	C	0.525352	0.108473	0.074623
C44	C	0.858685	0.441807	0.407956
C45	C	1.192019	0.775140	0.741289
C46	C	0.438634	0.107028	0.074742
C47	C	0.771968	0.440361	0.408075
C48	C	1.105301	0.773695	0.741408
C49	C	0.395272	0.106318	-0.008324
C50	C	0.728605	0.439652	0.325010
C51	C	1.061938	0.772985	0.658343
C52	C	0.568709	0.109204	-0.008562
C53	C	0.902042	0.442537	0.324771
C54	C	1.235376	0.775870	0.658105
C55	C	0.662735	0.110765	-0.008691
C56	C	0.996068	0.444098	0.324643
C57	C	1.329401	0.777431	0.657976
C58	C	0.301240	0.104756	-0.008195
C59	C	0.634573	0.438089	0.325138
C60	C	0.967907	0.771423	0.658471
C61	C	0.988231	-0.036462	0.002951
C62	C	1.321564	0.296871	0.336285
C63	C	1.654898	0.630205	0.669618
C64	C	0.986695	-0.124032	0.009862
C65	C	1.320028	0.209301	0.343195
C66	C	1.653362	0.542635	0.676529
C67	C	0.985980	-0.165167	-0.070008
C68	C	1.319313	0.168166	0.263325
C69	C	1.652647	0.501499	0.596659
C70	C	0.984531	-0.247448	-0.063512
C71	C	1.317864	0.085885	0.269822
C72	C	1.651198	0.419219	0.603155
C73	C	0.983803	-0.288593	0.022856
C74	C	1.317137	0.044741	0.356189
C75	C	1.650470	0.378074	0.689522
C76	C	0.984516	-0.247452	0.102731
C77	C	1.317849	0.085882	0.436065
C78	C	1.651182	0.419215	0.769398
C79	C	0.985959	-0.165172	0.096234
C80	C	1.319292	0.168162	0.429568
C81	C	1.652625	0.501495	0.762901
C82	C	0.979441	-0.537025	0.046631
C83	C	1.312774	-0.203691	0.379964
C84	C	1.646108	0.129642	0.713298
C85	C	0.978001	-0.619311	0.053122
C86	C	1.311334	-0.285977	0.386456
C87	C	1.644667	0.047356	0.719789
C88	C	0.978014	-0.619301	-0.113122
C89	C	1.311348	-0.285968	0.220212
C90	C	1.644681	0.047365	0.553545
C91	C	0.979462	-0.537020	-0.119611
C92	C	1.312796	-0.203687	0.213722
C93	C	1.646129	0.129646	0.547055
C94	C	0.980170	-0.495886	-0.039735
C95	C	1.313504	-0.162552	0.293598
C96	C	1.646837	0.170781	0.626931
C97	C	0.982325	-0.372697	0.029498
C98	C	1.315658	-0.039364	0.362831
C99	C	1.648992	0.293969	0.696164
C100	C	0.981643	-0.411782	-0.046379
C101	C	1.314976	-0.078449	0.286955
C102	C	1.648309	0.254885	0.620288
C103	C	1.134000	0.101972	-0.007972
C104	C	1.467333	0.435305	0.325361
C105	C	1.800667	0.768639	0.658694
C106	C	1.226293	0.103510	-0.008093
C107	C	1.559627	0.436843	0.325241
C108	C	1.892960	0.770176	0.658574
C109	C	0.975749	0.251984	-0.019831
C110	C	1.309083	0.585317	0.313502
C111	C	1.642416	0.918651	0.646836
C112	C	0.977286	0.339554	-0.026748
C113	C	1.310619	0.672888	0.306586
C114	C	1.643952	1.006221	0.639919
N115	N	0.981984	0.107758	0.208556
N116	N	1.315317	0.441091	0.541890
N117	N	1.648650	0.774425	0.875223
N118	N	0.982003	0.107758	-0.225433
N119	N	1.315337	0.441091	0.107900
N120	N	1.648670	0.774424	0.441233
C121	C	1.038587	0.054137	0.447802
C122	C	1.371921	0.387470	0.781136
C123	C	1.705254	0.720804	1.114469
C124	C	1.038590	0.054135	0.543784
C125	C	1.371923	0.387468	0.877117
C126	C	1.705256	0.720802	1.210450
C127	C	0.925394	0.161381	0.535314
C128	C	1.258727	0.494715	0.868647
C129	C	1.592061	0.828048	1.201980
C130	C	0.925388	0.161379	0.439334
C131	C	1.258722	0.494712	0.772668
C132	C	1.592055	0.828046	1.106001
C133	C	0.981990	0.107758	0.395581
C134	C	1.315323	0.441091	0.728914
C135	C	1.648656	0.774424	1.062248
C136	C	0.981998	0.107758	0.587542
C137	C	1.315331	0.441092	0.920875
C138	C	1.648664	0.774425	1.254208
C139	C	0.982000	0.107757	0.691609
C140	C	1.315333	0.441090	1.024942
C141	C	1.648667	0.774423	1.358276
C142	C	0.981987	0.107758	0.291507
C143	C	1.315320	0.441091	0.624841
C144	C	1.648653	0.774425	0.958174
H145	H	0.403320	0.106468	-0.159139
H146	H	0.736653	0.439801	0.174194
H147	H	1.069986	0.773134	0.507528
F148	F	0.571477	0.109258	-0.180151
F149	F	0.904811	0.442591	0.153183
F150	F	1.238144	0.775924	0.486516
F151	F	0.865143	0.218449	0.383753
F152	F	1.198476	0.551782	0.717086
F153	F	1.531810	0.885116	1.050419
H154	H	0.560668	0.109053	0.142251
H155	H	0.894002	0.442386	0.475585
H156	H	1.227335	0.775719	0.808918
H157	H	0.403337	0.106434	0.142479
H158	H	0.736670	0.439768	0.475813
H159	H	1.070004	0.773101	0.809146
F160	F	0.982419	-0.367992	-0.138294
F161	F	1.315753	-0.034658	0.195039
F162	F	1.649086	0.298675	0.528373
H163	H	0.986577	-0.131674	-0.140338
H164	H	1.319910	0.201660	0.192996
H165	H	1.653244	0.534993	0.526329
H166	H	1.084674	0.010474	0.412181
H167	H	1.418008	0.343807	0.745514
H168	H	1.751341	0.677141	1.078847
H169	H	0.983952	-0.280937	-0.128551
H170	H	1.317286	0.052396	0.204783
H171	H	1.650619	0.385730	0.538116
H172	H	0.986529	-0.131679	0.161273
H173	H	1.319862	0.201654	0.494606
H174	H	1.653196	0.534988	0.827940
H175	H	0.980056	-0.503526	-0.189941
H176	H	1.313389	-0.170193	0.143393
H177	H	1.646723	0.163141	0.476726
F178	F	0.977260	-0.663085	-0.198125
F179	F	1.310594	-0.329752	0.135208
F180	F	1.643927	0.003581	0.468541
H181	H	0.981735	-0.406207	0.099818
H182	H	1.315068	-0.072873	0.433152
H183	H	1.648402	0.260460	0.766485
H184	H	0.879311	0.205040	0.570947
H185	H	1.212645	0.538373	0.904281
H186	H	1.545978	0.871707	1.237614
H187	H	0.977404	-0.652808	0.123456
H188	H	1.310737	-0.319475	0.456790
H189	H	1.644070	0.013859	0.790123
H190	H	0.980034	-0.503545	0.111672
H191	H	1.313368	-0.170212	0.445005
H192	H	1.646701	0.163122	0.778339
F193	F	0.983732	-0.291242	0.194650
F194	F	1.317065	0.042091	0.527984
F195	F	1.650399	0.375425	0.861317
H196	H	1.084676	0.010471	0.586300
H197	H	1.418009	0.343805	0.919633
H198	H	1.751342	0.677138	1.252967
