data_functionalizedCrystal
_audit_creation_method	'MofGen! by Chris Wilmer'
_symmetry_space_group_name_H-M	'P1'
_symmetry_Int_Tables_number	1
_symmetry_cell_setting	triclinic
loop_
_symmetry_equiv_pos_as_xyz
  x,y,z
_cell_length_a	15.625110
_cell_length_b	15.712078
_cell_length_c	16.776229
_cell_angle_alpha	89.996369
_cell_angle_beta	108.076441
_cell_angle_gamma	101.029093
loop_
_atom_site_label
_atom_site_type_symbol
_atom_site_fract_x
_atom_site_fract_y
_atom_site_fract_z
O1	O	1.233420	0.112903	0.290301
O2	O	0.975383	0.126350	0.215700
O3	O	1.070074	-0.006243	0.243080
O4	O	1.138729	0.245496	0.262921
O5	O	1.070053	-0.006251	0.375651
O6	O	0.975362	0.126342	0.348270
O7	O	1.233399	0.112894	0.422872
Zn8	Zn	1.104377	0.119617	0.406619
Zn9	Zn	1.104405	0.119628	0.231952
O10	O	1.138708	0.245487	0.395492
C11	C	0.941584	0.125737	0.272217
C12	C	0.840903	0.123910	0.243109
C13	C	1.058847	-0.038463	0.306122
C14	C	1.025416	-0.134459	0.296455
C15	C	0.699008	0.121341	0.129823
C16	C	0.793613	0.123057	0.157183
C17	C	0.793600	0.123052	0.301709
C18	C	0.698993	0.121341	0.274361
C19	C	0.651705	0.120484	0.188418
C20	C	0.651690	0.120484	0.332956
C21	C	0.557091	0.118767	0.305610
C22	C	0.509795	0.117909	0.219670
C23	C	0.557106	0.118768	0.161072
C24	C	0.698979	0.121334	0.418899
C25	C	0.651676	0.120476	0.477493
C26	C	0.557076	0.118767	0.450148
C27	C	0.509781	0.117908	0.364208
C28	C	0.509766	0.117907	0.508746
C29	C	0.415167	0.116191	0.481400
C30	C	0.415182	0.116192	0.336862
C31	C	1.309252	-0.501213	0.378507
C32	C	1.277818	-0.591413	0.369419
C33	C	1.120310	-0.570987	0.323881
C34	C	1.151731	-0.480783	0.332969
C35	C	1.246203	-0.445904	0.360281
C36	C	1.088681	-0.425474	0.314744
C37	C	1.120100	-0.335279	0.323827
C38	C	1.214568	-0.300393	0.351135
C39	C	1.277622	-0.355709	0.369364
C40	C	0.994209	-0.460355	0.287426
C41	C	0.931160	-0.405046	0.269200
C42	C	0.962579	-0.314849	0.278289
C43	C	1.057047	-0.279963	0.305598
C44	C	0.899525	-0.259533	0.260060
C45	C	0.930944	-0.169338	0.269143
C46	C	1.088466	-0.189768	0.314681
C47	C	1.267197	0.113508	0.366353
C48	C	1.367879	0.115335	0.395456
C49	C	1.149934	0.277708	0.332448
C50	C	1.183365	0.373704	0.342110
N51	N	1.104364	0.119609	0.525827
N52	N	1.104422	0.119629	0.112746
C53	C	1.146320	0.060921	0.579676
C54	C	1.146325	0.060920	0.663129
C55	C	1.104379	0.119612	0.692734
C56	C	1.062418	0.178303	0.638878
C57	C	1.062408	0.178299	0.555424
C58	C	1.062456	0.178320	0.975436
C59	C	1.062472	0.178322	1.058897
C60	C	1.146373	0.060942	1.083141
C61	C	1.146363	0.060937	0.999688
C62	C	1.104398	0.119625	0.945838
C63	C	1.104392	0.119624	0.855347
C64	C	1.104391	0.119618	0.783224
H65	H	0.376679	0.115505	0.266878
H66	H	1.028289	0.226107	0.931598
N67	N	1.411149	-0.463588	0.407980
H68	H	1.427673	-0.426630	0.461908
H69	H	1.446253	-0.512363	0.418106
N70	N	1.191543	-0.002391	0.547734
H71	H	1.242370	0.030715	0.527787
H72	H	1.218063	-0.039563	0.594539
N73	N	0.862931	-0.109690	0.249501
H74	H	0.872456	-0.071824	0.301405
H75	H	0.872482	-0.071858	0.203088
H76	H	0.690191	0.121170	0.547469
H77	H	1.240148	-0.226950	0.358530
H78	H	0.776008	0.122732	0.441161
H79	H	0.968631	-0.533799	0.280027
H80	H	1.028311	0.226117	1.082998
H81	H	1.165394	-0.161368	0.336929
N82	N	1.379517	-0.318079	0.398835
H83	H	1.414696	-0.366802	0.409009
H84	H	1.395994	-0.281096	0.354451
H85	H	0.660505	0.120655	0.059840
H86	H	1.028242	0.226088	0.511580
H87	H	1.043390	-0.599398	0.301641
N88	N	1.017180	0.241606	0.670813
H89	H	1.047797	0.302996	0.665129
H90	H	0.949880	0.231458	0.636834
N91	N	0.407762	0.116051	0.190172
H92	H	0.395320	0.169197	0.214944
H93	H	0.385052	0.115605	0.126836
H94	H	0.518603	0.118082	0.091089
H95	H	0.832125	0.123761	0.109462
H96	H	1.180540	0.013152	1.126994
N97	N	0.560772	0.118822	0.601437
H98	H	0.627878	0.120035	0.609869
H99	H	0.554593	0.172085	0.631207
H100	H	0.832114	0.123746	0.371684
N101	N	0.364142	0.115261	0.544596
H102	H	0.408338	0.115461	0.603152
H103	H	0.335775	0.168420	0.539783
N104	N	1.345826	-0.651070	0.389072
H105	H	1.410438	-0.615285	0.407750
H106	H	1.336217	-0.688945	0.435441
H107	H	0.854240	-0.433457	0.246960
N108	N	0.797635	-0.297157	0.230593
H109	H	0.787299	-0.362688	0.227600
H110	H	0.768722	-0.276941	0.271382
H111	H	1.180488	0.013132	0.706973
N112	N	1.191609	-0.002362	0.967758
H113	H	1.218188	-0.039543	1.014535
H114	H	1.144469	-0.040652	0.919518
