data_functionalizedCrystal
_audit_creation_method	'MofGen! by Chris Wilmer'
_symmetry_space_group_name_H-M	'P1'
_symmetry_Int_Tables_number	1
_symmetry_cell_setting	triclinic
loop_
_symmetry_equiv_pos_as_xyz
  x,y,z
_cell_length_a	27.732048
_cell_length_b	10.654550
_cell_length_c	9.130313
_cell_angle_alpha	90.000276
_cell_angle_beta	89.990549
_cell_angle_gamma	96.436207
loop_
_atom_site_label
_atom_site_type_symbol
_atom_site_fract_x
_atom_site_fract_y
_atom_site_fract_z
O1	O	0.067886	-1.664986	-0.121708
O2	O	0.074354	-1.299235	-0.121737
O3	O	0.000794	-1.493470	-0.121693
O4	O	0.141446	-1.470751	-0.121751
O5	O	0.000792	-1.493457	0.121905
O6	O	0.074351	-1.299222	0.121862
O7	O	0.067884	-1.664973	0.121891
Cu8	Cu	0.071117	-1.482096	0.144119
Cu9	Cu	0.071120	-1.482112	-0.143965
O10	O	0.141444	-1.470738	0.121848
C11	C	0.073878	-1.252451	0.000060
C12	C	0.072457	-1.113067	0.000050
C13	C	-0.017217	-1.492986	0.000110
C14	C	-0.070881	-1.491550	0.000122
N15	N	0.071115	-1.482094	0.346742
C16	C	-0.409038	-1.597290	0.000055
C17	C	-0.610730	-1.591962	0.000034
O18	O	-0.641384	-1.688653	-0.000022
N19	N	-0.630571	-1.476789	0.000027
C20	C	-0.599986	-1.362940	0.000015
O21	O	-0.621490	-1.264855	-0.000008
C22	C	-0.398294	-1.368269	0.000025
C23	C	-0.378456	-1.483449	0.000047
C24	C	-0.389199	-1.712461	0.000076
C25	C	-0.338779	-1.713792	0.000089
C26	C	-0.308197	-1.599951	0.000081
C27	C	-0.328036	-1.484780	0.000061
C28	C	-0.367709	-1.254421	0.000002
C29	C	-0.317284	-1.255764	0.000001
C30	C	-0.297446	-1.370944	0.000024
C31	C	-0.247034	-1.372271	0.000066
N32	N	-0.227193	-1.487444	0.000074
C33	C	-0.257774	-1.601284	0.000081
C34	C	-0.705877	-1.360150	0.000012
C35	C	-0.756300	-1.358817	0.000012
C36	C	-0.767041	-1.587840	0.000029
C37	C	-0.716617	-1.589171	0.000039
C38	C	-0.686036	-1.475323	0.000020
C39	C	-0.151888	-1.604070	0.000110
C40	C	-0.101463	-1.605391	0.000130
C41	C	-0.090726	-1.376369	0.000105
C42	C	-0.141147	-1.375047	0.000093
C43	C	-0.171727	-1.488908	0.000091
O44	O	-0.216352	-1.275631	0.000106
O45	O	-0.236261	-1.699354	0.000071
C46	C	-0.459458	-1.595959	0.000042
C47	C	-0.479296	-1.480788	0.000021
C48	C	-0.448715	-1.366947	0.000013
C49	C	-0.529719	-1.479455	0.000021
C50	C	-0.560301	-1.593296	0.000029
C51	C	-0.540460	-1.708469	0.000036
C52	C	-0.490040	-1.709799	0.000049
C53	C	-0.468556	-1.251774	0.000006
C54	C	-0.518976	-1.250453	-0.000006
C55	C	-0.549558	-1.364293	0.000002
C56	C	0.159455	-1.471221	0.000041
C57	C	0.213118	-1.472657	0.000020
C58	C	0.068360	-1.711757	0.000092
C59	C	0.069781	-1.851141	0.000092
C60	C	0.115768	-1.031761	0.000036
C61	C	0.114430	-0.900796	0.000063
C62	C	0.026466	-0.932457	0.000110
C63	C	0.027805	-1.063419	0.000094
N64	N	0.071118	-1.482123	-0.346587
C65	C	0.038557	-1.568130	0.423413
C66	C	0.038557	-1.568142	0.576750
C67	C	0.103678	-1.396079	0.576731
C68	C	0.103675	-1.396062	0.423397
H69	H	-0.085314	-1.699189	0.000152
H70	H	0.130189	-1.325996	0.360967
Br71	Br	-0.049213	-1.221879	0.000095
Br72	Br	-0.193382	-1.758597	0.000106
Br73	Br	-0.463125	-1.866124	0.000071
H74	H	-0.009888	-0.892018	0.000154
Br75	Br	-0.311864	-1.870117	0.000078
Br76	Br	-0.581973	-1.862965	0.000058
H77	H	-0.414094	-1.805169	0.000077
H78	H	0.149698	-0.834601	0.000054
H79	H	0.012044	-1.638181	0.361004
H80	H	-0.700469	-1.682961	0.000056
H81	H	-0.292386	-1.163052	-0.000017
Br82	Br	-0.005633	-1.684903	0.680800
H83	H	0.130189	-1.326035	0.639159
H84	H	-0.007466	-1.129623	0.000109
H85	H	-0.791950	-1.680533	0.000036
H86	H	-0.772447	-1.265026	0.000019
H87	H	-0.383852	-1.160629	-0.000025
Br88	Br	-0.664381	-1.205625	-0.000018
Br89	Br	-0.427059	-1.097260	-0.000012
Br90	Br	-0.168071	-1.218730	0.000097
H91	H	-0.535123	-1.156652	-0.000011
Br92	Br	0.176366	-1.099137	-0.000018
