data_functionalizedCrystal
_audit_creation_method	'MofGen! by Chris Wilmer'
_symmetry_space_group_name_H-M	'P1'
_symmetry_Int_Tables_number	1
_symmetry_cell_setting	triclinic
loop_
_symmetry_equiv_pos_as_xyz
  x,y,z
_cell_length_a	10.723024
_cell_length_b	14.519709
_cell_length_c	9.198806
_cell_angle_alpha	89.995869
_cell_angle_beta	89.996352
_cell_angle_gamma	84.074007
loop_
_atom_site_label
_atom_site_type_symbol
_atom_site_fract_x
_atom_site_fract_y
_atom_site_fract_z
O1	O	1.655978	0.129347	-0.120886
O2	O	1.292710	0.141728	-0.120892
O3	O	1.483976	0.001349	-0.120876
O4	O	1.464713	0.269727	-0.120902
O5	O	1.483960	0.001348	0.120909
O6	O	1.292695	0.141728	0.120893
O7	O	1.655963	0.129347	0.120899
Cu8	Cu	1.474328	0.135538	0.142973
Cu9	Cu	1.474345	0.135538	-0.142966
O10	O	1.464697	0.269727	0.120883
C11	C	1.246211	0.140827	0.000000
C12	C	1.107682	0.138132	-0.000001
C13	C	1.483070	-0.033016	0.000017
C14	C	1.480380	-0.135411	0.000018
C15	C	1.031965	0.216681	-0.000010
C16	C	0.888788	0.213896	-0.000012
C17	C	1.470476	-0.510357	-0.000020
C18	C	1.473227	-0.406035	-0.000009
C19	C	1.475428	-0.322887	0.000000
C20	C	1.478179	-0.218559	0.000008
C21	C	1.702462	0.130248	0.000003
C22	C	1.840991	0.132944	-0.000005
C23	C	1.465603	0.304091	-0.000013
C24	C	1.468293	0.406486	-0.000024
N25	N	1.474324	0.135537	0.344087
N26	N	1.474359	0.135532	-0.344080
C27	C	1.554633	0.076335	0.416290
C28	C	1.554653	0.076332	0.583703
H29	H	1.073139	0.285991	-0.000009
C30	C	1.304742	0.154638	0.515481
C31	C	1.381520	0.203959	0.427940
H32	H	1.247453	0.196882	0.567251
H33	H	1.259562	0.116098	0.456112
H34	H	1.355143	0.117498	0.582465
H35	H	1.331119	0.241094	0.360948
H36	H	1.426704	0.242515	0.487314
C37	C	0.676130	0.284350	-0.000019
C38	C	0.800967	0.304680	-0.000021
H39	H	0.621913	0.340399	-0.000016
H40	H	0.660908	0.249442	-0.084327
H41	H	0.660901	0.249433	0.084305
H42	H	0.816198	0.339591	-0.084351
H43	H	0.816194	0.339603	0.084296
H44	H	0.906045	0.065696	-0.000006
H45	H	1.066508	0.068822	-0.000032
H46	H	1.623371	0.025649	0.354170
C47	C	1.721713	-0.046834	0.568715
C48	C	1.647475	0.007903	0.667512
H49	H	1.779022	-0.089077	0.620461
H50	H	1.669599	-0.080273	0.509366
H51	H	1.766880	-0.008272	0.509332
H52	H	1.602300	-0.030659	0.726889
H53	H	1.699596	0.041344	0.726886
H54	H	1.405604	0.186222	0.593837
