data_functionalizedCrystal
_audit_creation_method	'MofGen! by Chris Wilmer'
_symmetry_space_group_name_H-M	'P1'
_symmetry_Int_Tables_number	1
_symmetry_cell_setting	triclinic
loop_
_symmetry_equiv_pos_as_xyz
  x,y,z
_cell_length_a	15.944499
_cell_length_b	15.944493
_cell_length_c	11.892095
_cell_angle_alpha	93.894412
_cell_angle_beta	86.098900
_cell_angle_gamma	83.476327
loop_
_atom_site_label
_atom_site_type_symbol
_atom_site_fract_x
_atom_site_fract_y
_atom_site_fract_z
O1	O	1.119903	0.102754	-0.094057
O2	O	0.875344	0.116157	-0.094043
O3	O	1.004328	-0.012824	-0.094060
O4	O	0.990919	0.231736	-0.094040
O5	O	0.993574	-0.002087	0.093949
O6	O	0.864590	0.126895	0.093966
O7	O	1.109149	0.113492	0.093952
Zn8	Zn	0.985162	0.121898	0.123809
Zn9	Zn	0.999331	0.107751	-0.123900
O10	O	0.980165	0.242473	0.093969
C11	C	0.838672	0.120977	-0.000037
C12	C	0.745424	0.119333	-0.000032
C13	C	0.998403	-0.038750	-0.000060
C14	C	0.996761	-0.131999	-0.000074
C15	C	0.453873	0.194266	-0.000043
C16	C	0.520213	0.150019	-0.092746
C17	C	0.409790	0.113355	-0.000059
C18	C	0.509596	0.160584	0.092616
C19	C	0.574698	0.116296	-0.000044
C20	C	0.474907	0.069081	-0.092839
C21	C	0.464278	0.079662	0.092607
C22	C	0.530602	0.035354	-0.000119
C23	C	0.314791	0.111662	-0.000068
C24	C	0.669696	0.117982	-0.000042
C25	C	1.072682	-0.367772	-0.000057
C26	C	1.037043	-0.423627	-0.092753
C27	C	0.993716	-0.302719	-0.000060
C28	C	1.026421	-0.413017	0.092609
C29	C	0.990780	-0.467627	-0.000042
C30	C	0.958102	-0.357350	-0.092832
C31	C	0.947487	-0.346731	0.092613
C32	C	0.911791	-0.402554	-0.000105
C33	C	0.995410	-0.207720	-0.000072
C34	C	0.989081	-0.562624	-0.000038
C35	C	1.145821	0.108672	-0.000057
C36	C	1.239070	0.110316	-0.000069
C37	C	0.986090	0.268399	-0.000033
C38	C	0.987733	0.361648	-0.000027
N39	N	0.975498	0.131553	0.292865
N40	N	1.009002	0.098090	-0.292956
C41	C	1.076249	0.030860	0.529499
C42	C	1.069500	0.037614	0.647842
C43	C	0.955247	0.151812	0.647895
C44	C	0.961996	0.145058	0.529552
C45	C	1.022500	0.084580	0.470359
C46	C	1.029253	0.077830	0.352014
C47	C	0.914996	0.192023	0.352069
C48	C	0.908247	0.198778	0.470412
H49	H	0.420534	0.261409	-0.000127
Br50	Br	1.100095	-0.479344	-0.223378
H51	H	0.843721	-0.418010	-0.000151
H52	H	0.929260	-0.333004	-0.171283
H53	H	0.909684	-0.313288	0.170988
H54	H	0.871232	0.235769	0.303903
H55	H	1.055304	-0.437478	0.170971
Br56	Br	1.158371	-0.051203	0.449162
H57	H	1.078520	0.028589	0.303819
H58	H	1.113267	-0.006131	0.695991
H59	H	0.905981	0.201046	0.696106
H60	H	0.858983	0.248016	0.518621
Br61	Br	0.535579	0.225104	0.223234
H62	H	0.544787	0.179768	-0.171109
H63	H	0.459423	0.030409	-0.171300
Br64	Br	1.186059	-0.341751	-0.000211
H65	H	0.563797	-0.031857	-0.000174
H66	H	0.439686	0.049944	0.170977
