data_functionalizedCrystal
_audit_creation_method	'MofGen! by Chris Wilmer'
_symmetry_space_group_name_H-M	'P1'
_symmetry_Int_Tables_number	1
_symmetry_cell_setting	triclinic
loop_
_symmetry_equiv_pos_as_xyz
  x,y,z
_cell_length_a	19.121063
_cell_length_b	12.827893
_cell_length_c	12.827885
_cell_angle_alpha	90.020999
_cell_angle_beta	92.403967
_cell_angle_gamma	87.532808
loop_
_atom_site_label
_atom_site_type_symbol
_atom_site_fract_x
_atom_site_fract_y
_atom_site_fract_z
Zn1	Zn	-0.279612	-1.579833	-0.608589
Zn2	Zn	-0.397078	-1.572234	-0.441281
Zn3	Zn	-0.279643	-1.405073	-0.433859
Zn4	Zn	-0.397023	-1.397570	-0.615972
O5	O	-0.338339	-1.488678	-0.524925
O6	O	-0.295205	-1.725061	-0.586411
O7	O	-0.381537	-1.550020	-0.294063
O8	O	-0.181354	-1.434575	-0.450841
O9	O	-0.381507	-1.719478	-0.463491
O10	O	-0.181332	-1.562971	-0.579214
O11	O	-0.295257	-1.427207	-0.288610
O12	O	-0.295203	-1.257842	-0.458001
O13	O	-0.381412	-1.421789	-0.761227
O14	O	-0.381441	-1.252330	-0.591799
O15	O	-0.295151	-1.555696	-0.755802
O16	O	-0.495355	-1.542745	-0.470651
O17	O	-0.495314	-1.414420	-0.598996
C18	C	-0.338320	-1.217169	-0.524896
C19	C	-0.338329	-1.101015	-0.524909
C20	C	-0.520819	-1.476972	-0.536453
C21	C	-0.598884	-1.472060	-0.541419
C22	C	-0.381076	-0.926482	-0.591034
C23	C	-0.381068	-1.046533	-0.591021
C24	C	-0.635558	-1.536616	-0.476986
C25	C	-0.708908	-1.532003	-0.481663
C26	C	-0.745585	-1.462827	-0.550769
C27	C	-0.708906	-1.398268	-0.615210
C28	C	-0.635556	-1.402888	-0.610537
C29	C	-0.967053	-1.445538	-0.568222
C30	C	-1.040408	-1.440921	-0.572888
C31	C	-1.040405	-1.574658	-0.439341
C32	C	-0.967054	-1.579267	-0.434671
C33	C	-0.930382	-1.514712	-0.499115
C34	C	-0.820561	-1.458107	-0.555549
C35	C	-0.855407	-1.519438	-0.494340
C36	C	-0.155147	-1.500458	-0.513376
C37	C	-0.077081	-1.505477	-0.508454
C38	C	-0.338271	-1.488753	-0.797491
C39	C	-0.338243	-1.488785	-0.913643
C40	C	-0.338353	-0.761247	-0.524947
C41	C	-0.338344	-0.877401	-0.524933
C42	C	-0.295550	-1.555055	-0.962743
C43	C	-0.295519	-1.555089	-1.082791
C44	C	-0.338355	-1.488666	-0.253416
C45	C	-0.338186	-1.488849	-0.137253
H46	H	-0.417668	-0.879625	-0.647629
O47	O	-0.294767	-0.933240	-0.457260
C48	C	-0.260525	-0.968901	-0.277450
C49	C	-0.309932	-0.905616	-0.353977
H50	H	-0.272758	-0.946574	-0.193930
H51	H	-0.268301	-1.055776	-0.289380
H52	H	-0.203899	-0.951150	-0.292397
H53	H	-0.366577	-0.923278	-0.339076
H54	H	-0.302095	-0.818760	-0.342029
O55	O	-0.381846	-1.421027	-0.969352
C56	C	-0.470983	-1.282752	-0.963682
C57	C	-0.421625	-1.359418	-0.900468
H58	H	-0.503167	-1.232936	-0.908017
H59	H	-0.438724	-1.230173	-1.012714
H60	H	-0.507635	-1.328452	-1.017128
H61	H	-0.384963	-1.313803	-0.846964
H62	H	-0.453928	-1.411997	-0.851505
H63	H	-0.301740	-1.058803	-0.468320
O64	O	-0.424691	-1.097053	-0.658439
C65	C	-0.464405	-1.262776	-0.719972
C66	C	-0.414977	-1.205691	-0.643547
H67	H	-0.456558	-1.350620	-0.707974
H68	H	-0.521054	-1.237825	-0.705083
H69	H	-0.452160	-1.242135	-0.803502
H70	H	-0.427159	-1.226304	-0.559989
H71	H	-0.358343	-1.230647	-0.658527
H72	H	-0.605701	-1.592942	-0.420707
O73	O	-0.744424	-1.594749	-0.418963
C74	C	-0.736681	-1.727921	-0.286048
C75	C	-0.696373	-1.656898	-0.356981
H76	H	-0.697849	-1.778202	-0.235934
H77	H	-0.771059	-1.677857	-0.233485
H78	H	-0.770984	-1.780337	-0.336274
H79	H	-0.662032	-1.604470	-0.306837
H80	H	-0.662040	-1.707025	-0.409550
H81	H	-1.070267	-1.384603	-0.629180
O82	O	-0.931538	-1.646565	-0.367523
C83	C	-0.939278	-1.778696	-0.235528
C84	C	-0.979588	-1.702546	-0.311542
H85	H	-0.978109	-1.823961	-0.190231
H86	H	-0.904905	-1.835543	-0.281324
H87	H	-0.904971	-1.732898	-0.178700
H88	H	-1.013933	-1.748258	-0.368387
H89	H	-1.013917	-1.645699	-0.265678
H90	H	-1.070271	-1.627216	-0.386876
O91	O	-0.252038	-1.622678	-0.906717
C92	C	-0.212348	-1.684233	-0.735982
C93	C	-0.261672	-1.607606	-0.799300
H94	H	-0.220109	-1.672059	-0.649123
H95	H	-0.224674	-1.767751	-0.758088
H96	H	-0.155701	-1.669568	-0.753867
H97	H	-0.318335	-1.622177	-0.781447
H98	H	-0.249285	-1.524114	-0.777184
O99	O	-0.251932	-1.622676	-1.133330
C100	C	-0.212208	-1.684404	-1.299068
C101	C	-0.261597	-1.607790	-1.241962
H102	H	-0.220016	-1.672410	-1.386907
H103	H	-0.155551	-1.669703	-1.274172
H104	H	-0.224529	-1.767879	-1.278392
H105	H	-0.249339	-1.524286	-1.262609
H106	H	-0.318239	-1.622581	-1.266862
O107	O	-0.931544	-1.382712	-0.630846
C108	C	-0.939294	-1.249594	-0.763815
C109	C	-0.979599	-1.320679	-0.692939
H110	H	-0.978128	-1.199439	-0.814051
H111	H	-0.905031	-1.197070	-0.713645
H112	H	-0.904877	-1.299711	-0.816273
H113	H	-1.014054	-1.270644	-0.640469
H114	H	-1.013817	-1.373209	-0.743171
H115	H	-0.605698	-1.350321	-0.663007
O116	O	-0.744609	-1.331211	-0.682396
C117	C	-0.827325	-1.311867	-0.828779
C118	C	-0.786949	-1.387926	-0.752746
H119	H	-0.861555	-1.357692	-0.885689
H120	H	-0.861765	-1.255098	-0.783000
H121	H	-0.788499	-1.266498	-0.873982
H122	H	-0.825724	-1.433366	-0.707523
H123	H	-0.752498	-1.444627	-0.798583
H124	H	-0.374742	-1.432114	-1.095025
H125	H	-0.850431	-1.401782	-0.611813
H126	H	-0.825543	-1.575765	-0.438077
