data_functionalizedCrystal
_audit_creation_method	'MofGen! by Chris Wilmer'
_symmetry_space_group_name_H-M	'P1'
_symmetry_Int_Tables_number	1
_symmetry_cell_setting	triclinic
loop_
_symmetry_equiv_pos_as_xyz
  x,y,z
_cell_length_a	12.837943
_cell_length_b	13.930277
_cell_length_c	12.837942
_cell_angle_alpha	90.003658
_cell_angle_beta	94.828940
_cell_angle_gamma	90.006059
loop_
_atom_site_label
_atom_site_type_symbol
_atom_site_fract_x
_atom_site_fract_y
_atom_site_fract_z
O1	O	1.402340	0.079813	0.272140
O2	O	1.099206	0.079819	0.258697
O3	O	1.244052	0.079810	0.113852
O4	O	1.257495	0.079821	0.416985
O5	O	1.244029	-0.079852	0.113846
O6	O	1.099184	-0.079843	0.258691
O7	O	1.402317	-0.079849	0.272134
Zn8	Zn	1.250747	-0.105196	0.265412
Zn9	Zn	1.250777	0.105165	0.265419
O10	O	1.257472	-0.079840	0.416980
C11	C	1.060126	-0.000012	0.254153
C12	C	0.943711	-0.000010	0.240608
N13	N	1.250734	-0.248762	0.265407
C14	C	0.718837	-0.000017	0.403437
C15	C	0.609454	-0.000016	0.390716
C16	C	0.615562	-0.000013	0.202445
C17	C	0.724944	-0.000014	0.215166
C18	C	0.776578	-0.000015	0.315666
C19	C	0.885962	-0.000009	0.328386
C20	C	0.892067	-0.000013	0.140116
C21	C	0.782685	-0.000012	0.127395
C22	C	1.186634	-0.701027	0.329528
C23	C	1.314948	-0.701004	0.201305
C24	C	1.314935	-0.600509	0.201300
C25	C	1.250772	-0.550268	0.265412
C26	C	1.186621	-0.600522	0.329528
C27	C	1.379092	-0.550247	0.137193
C28	C	1.379083	-0.449745	0.137187
C29	C	1.314913	-0.399502	0.201294
C30	C	1.250759	-0.449763	0.265412
C31	C	1.186596	-0.399522	0.329523
C32	C	1.122436	-0.449781	0.393637
C33	C	1.122452	-0.550280	0.393635
C34	C	1.314897	-0.299003	0.201295
C35	C	1.186584	-0.299017	0.329523
C36	C	1.441398	-0.000017	0.276679
C37	C	1.557813	-0.000012	0.290223
C38	C	1.239499	-0.000020	0.074780
C39	C	1.225954	-0.000019	-0.041635
N40	N	1.250797	0.248732	0.265417
C41	C	1.388784	-0.000002	-0.266510
C42	C	1.376062	0.000000	-0.375892
C43	C	1.187791	-0.000006	-0.369785
C44	C	1.200513	-0.000008	-0.260402
C45	C	1.301012	-0.000007	-0.208769
C46	C	1.313732	-0.000016	-0.099384
C47	C	1.125462	-0.000015	-0.093279
C48	C	1.112741	-0.000014	-0.202661
C49	C	1.262025	-0.000008	0.456052
C50	C	1.275569	-0.000003	0.572467
H51	H	0.928000	-0.000011	0.410218
C52	C	1.455138	-0.185987	0.192780
C53	C	1.385445	-0.243773	0.130848
H54	H	1.498705	-0.151900	0.149289
H55	H	1.416918	-0.141675	0.230932
H56	H	1.497068	-0.225200	0.240111
H57	H	1.343510	-0.204559	0.083522
H58	H	1.423668	-0.288090	0.092678
H59	H	1.395564	-0.000019	-0.057346
C60	C	1.490101	-0.731909	0.157817
C61	C	1.385468	-0.756221	0.130826
H62	H	1.533635	-0.766004	0.114302
H63	H	1.499264	-0.664870	0.148640
H64	H	1.508368	-0.748382	0.228811
H65	H	1.367199	-0.739742	0.059833
H66	H	1.376300	-0.823275	0.139994
C67	C	0.701818	-0.000011	0.588258
C68	C	0.775600	-0.000014	0.513902
H69	H	0.736862	-0.000014	0.656454
H70	H	0.659292	0.055663	0.579384
H71	H	0.659272	-0.055692	0.579373
H72	H	0.818141	0.055671	0.522782
H73	H	0.818143	-0.055694	0.522780
C74	C	1.422649	-0.581191	-0.037927
C75	C	1.449600	-0.605479	0.066714
H76	H	1.466179	-0.615292	-0.081441
H77	H	1.351666	-0.597664	-0.056217
H78	H	1.431845	-0.514146	-0.047091
H79	H	1.440397	-0.672524	0.075880
H80	H	1.520601	-0.589012	0.085010
H81	H	1.470614	-0.000010	-0.224469
C82	C	1.065515	-0.704346	0.450582
C83	C	1.051943	-0.605526	0.464115
H84	H	1.021993	-0.738453	0.494101
H85	H	1.047245	-0.720821	0.379596
H86	H	1.136511	-0.720784	0.468891
H87	H	0.980948	-0.589087	0.445799
H88	H	1.070207	-0.589044	0.535117
C89	C	0.948359	0.082060	-0.231132
C90	C	1.002277	-0.000013	-0.259427
H91	H	0.880165	0.082060	-0.266181
H92	H	0.943372	0.082048	-0.157733
H93	H	0.984967	0.137734	-0.250309
H94	H	0.965673	-0.055687	-0.240242
H95	H	1.007259	-0.000009	-0.332841
H96	H	0.562446	-0.000020	0.462189
H97	H	1.447536	0.000008	-0.422901
H98	H	1.105969	0.000003	-0.411844
C99	C	1.061359	-0.000015	0.077106
C100	C	1.028974	-0.000015	-0.029807
H101	H	1.001791	-0.000010	0.116289
H102	H	1.102106	-0.055690	0.093765
H103	H	1.102128	0.055666	0.093774
H104	H	0.988211	-0.055699	-0.046476
H105	H	0.988210	0.055666	-0.046473
C106	C	0.450592	-0.000027	0.099360
C107	C	0.558793	-0.000021	0.091983
H108	H	0.415547	-0.000028	0.031163
H109	H	0.431420	-0.055701	0.135948
H110	H	0.431426	0.055655	0.135956
H111	H	0.577960	-0.055708	0.055393
H112	H	0.577972	0.055658	0.055379
C113	C	0.887113	-0.000006	-0.047265
C114	C	0.955538	-0.000010	0.043627
H115	H	0.926299	0.000005	-0.106830
H116	H	0.844322	-0.055682	-0.048318
H117	H	0.844324	0.055674	-0.048296
H118	H	0.998321	-0.055693	0.044662
H119	H	0.998347	0.055672	0.044680
C120	C	1.059750	-0.309135	0.456272
C121	C	1.116055	-0.243795	0.400001
H122	H	1.016214	-0.275042	0.499786
H123	H	1.017797	-0.348338	0.408952
H124	H	1.107057	-0.348328	0.498253
H125	H	1.068748	-0.204607	0.358013
H126	H	1.158010	-0.204576	0.447327
H127	H	0.740630	-0.000022	0.045571
H128	H	1.070199	-0.408863	0.445842
H129	H	1.431324	-0.408830	0.084982
H130	H	1.134392	-0.741951	0.381726
