data_functionalizedCrystal
_audit_creation_method	'MofGen! by Chris Wilmer'
_symmetry_space_group_name_H-M	'P1'
_symmetry_Int_Tables_number	1
_symmetry_cell_setting	triclinic
loop_
_symmetry_equiv_pos_as_xyz
  x,y,z
_cell_length_a	14.044191
_cell_length_b	10.654550
_cell_length_c	9.730223
_cell_angle_alpha	89.999957
_cell_angle_beta	90.000766
_cell_angle_gamma	91.161647
loop_
_atom_site_label
_atom_site_type_symbol
_atom_site_fract_x
_atom_site_fract_y
_atom_site_fract_z
O1	O	-0.133232	1.681232	-0.114175
O2	O	-0.145925	1.317029	-0.114199
O3	O	-0.001558	1.493659	-0.114190
O4	O	-0.277599	1.504602	-0.114184
O5	O	-0.001554	1.493647	0.114390
O6	O	-0.145921	1.317017	0.114381
O7	O	-0.133228	1.681219	0.114405
Zn8	Zn	-0.139574	1.499116	0.150685
Zn9	Zn	-0.139579	1.499133	-0.150479
O10	O	-0.277595	1.504589	0.114396
C11	C	-0.144991	1.270131	0.000087
C12	C	-0.142203	1.130408	0.000078
C13	C	-0.227204	1.059467	0.000084
C14	C	-0.224578	0.928182	0.000107
C15	C	-0.051942	0.938791	0.000114
C16	C	-0.054569	1.070074	0.000100
C17	C	-0.312943	1.509383	0.000107
C18	C	-0.418263	1.523662	0.000109
C19	C	-0.668055	1.448496	0.000092
C20	C	-0.611092	1.549747	0.000101
C21	C	-0.503792	1.535229	0.000106
C22	C	-0.775365	1.463012	0.000088
C23	C	0.033790	1.488866	0.000096
C24	C	0.139110	1.474587	0.000084
C25	C	-0.134162	1.728117	0.000115
C26	C	-0.136950	1.867841	0.000116
N27	N	-0.139570	1.499113	0.356221
N28	N	-0.139576	1.499144	-0.356016
C29	C	-0.075671	1.577357	0.428151
C30	C	-0.075671	1.577370	0.572034
C31	C	-0.203478	1.420892	0.572044
C32	C	-0.203472	1.420874	0.428164
H33	H	0.019406	0.889651	0.000140
H34	H	-0.636240	1.350918	0.000089
H35	H	-0.023637	1.641063	0.369578
C36	C	-0.318077	0.850146	0.000107
H37	H	-0.303966	0.763317	0.000132
H38	H	-0.353971	0.869474	-0.079609
H39	H	-0.353974	0.869493	0.079822
H40	H	0.014653	1.127836	0.000099
H41	H	-0.023638	1.641081	0.630595
H42	H	-0.642909	1.647332	0.000008
C43	C	-0.273769	1.334813	0.349029
H44	H	-0.264606	1.346003	0.253036
H45	H	-0.337174	1.355555	0.372599
H46	H	-0.262876	1.249781	0.372617
C47	C	-0.323596	1.125831	0.000074
H48	H	-0.373843	1.064773	0.000093
H49	H	-0.328213	1.176817	-0.079642
H50	H	-0.328207	1.176829	0.079790
C51	C	-0.273773	1.334848	0.651186
H52	H	-0.264633	1.346074	0.747178
H53	H	-0.262884	1.249816	0.627624
H54	H	-0.337179	1.355593	0.627592
