data_functionalizedCrystal
_audit_creation_method	'MofGen! by Chris Wilmer'
_symmetry_space_group_name_H-M	'P1'
_symmetry_Int_Tables_number	1
_symmetry_cell_setting	triclinic
loop_
_symmetry_equiv_pos_as_xyz
  x,y,z
_cell_length_a	9.065218
_cell_length_b	10.654550
_cell_length_c	8.140239
_cell_angle_alpha	89.996625
_cell_angle_beta	89.997198
_cell_angle_gamma	84.750408
loop_
_atom_site_label
_atom_site_type_symbol
_atom_site_fract_x
_atom_site_fract_y
_atom_site_fract_z
O1	O	1.959391	0.184157	-0.136617
O2	O	1.530024	0.199263	-0.136620
O3	O	1.754580	0.009010	-0.136608
O4	O	1.734836	0.374410	-0.136629
O5	O	1.754567	0.009008	0.136619
O6	O	1.530011	0.199261	0.136607
O7	O	1.959379	0.184155	0.136610
Zn8	Zn	1.744693	0.191708	0.179989
Zn9	Zn	1.744710	0.191711	-0.179999
O10	O	1.734823	0.374408	0.136598
C11	C	1.475039	0.197810	-0.000006
C12	C	1.311220	0.193469	-0.000007
C13	C	1.753124	-0.037795	0.000005
C14	C	1.748786	-0.177255	0.000002
C15	C	1.881001	-0.256217	0.000002
C16	C	1.876917	-0.387254	-0.000018
C17	C	1.608391	-0.360354	-0.000031
C18	C	1.612477	-0.229320	-0.000023
C19	C	2.032639	-0.582482	-0.095750
C20	C	2.164861	-0.661449	-0.095722
C21	C	2.284719	-0.630803	0.000029
C22	C	2.272361	-0.521192	0.095790
C23	C	2.140137	-0.442232	0.095777
C24	C	2.020284	-0.472876	-0.000012
C25	C	1.456765	-0.034091	0.095723
C26	C	1.324539	0.044872	0.095721
C27	C	1.204668	0.014230	-0.000020
C28	C	1.217011	-0.095383	-0.095757
C29	C	1.349237	-0.174347	-0.095755
C30	C	1.469109	-0.143695	-0.000018
C31	C	2.014364	0.185608	-0.000007
C32	C	2.178183	0.189949	-0.000017
C33	C	1.736279	0.421213	-0.000018
C34	C	1.740616	0.560673	-0.000026
N35	N	1.744693	0.191705	0.425672
N36	N	1.744722	0.191704	-0.425682
H37	H	1.991993	-0.213831	0.000019
H38	H	1.935055	-0.607436	-0.173741
H39	H	1.096996	0.078524	0.000009
H40	H	2.369961	-0.496258	0.173771
C41	C	2.178303	-0.780295	-0.199990
C42	C	2.156368	-0.747834	-0.365437
C43	C	2.168764	-0.857281	-0.461527
H44	H	2.105686	-0.833903	-0.166584
H45	H	2.274227	-0.822939	-0.186368
H46	H	2.060457	-0.705209	-0.379051
H47	H	2.228977	-0.694241	-0.398892
H48	H	2.264688	-0.899926	-0.447905
H49	H	2.096146	-0.910882	-0.428107
H50	H	2.153897	-0.835271	-0.573794
H51	H	2.130073	-0.352992	0.173750
C52	C	1.086729	-0.128410	-0.199670
C53	C	0.968307	-0.035779	-0.179220
C54	C	0.848268	-0.066149	-0.274931
H55	H	1.057248	-0.207771	-0.166121
H56	H	1.115112	-0.132462	-0.312032
H57	H	0.939926	-0.031740	-0.066882
H58	H	0.997740	0.043590	-0.212779
H59	H	0.876651	-0.070201	-0.387293
H60	H	0.818800	-0.145511	-0.241374
H61	H	0.767909	-0.003299	-0.261080
H62	H	1.497413	-0.402762	-0.000049
C63	C	1.311251	0.163742	0.199942
C64	C	1.333302	0.131306	0.365381
C65	C	1.321088	0.240775	0.461429
H66	H	1.215372	0.206459	0.186442
H67	H	1.383915	0.217279	0.166385
H68	H	1.260642	0.077790	0.398927
H69	H	1.429177	0.088604	0.378931
H70	H	1.393752	0.294312	0.427873
H71	H	1.225208	0.283485	0.447916
H72	H	1.336061	0.218784	0.573687
H73	H	2.392377	-0.695107	0.000049
H74	H	1.359287	-0.263590	-0.173733
H75	H	1.554384	-0.009113	0.173652
