data_functionalizedCrystal
_audit_creation_method	'MofGen! by Chris Wilmer'
_symmetry_space_group_name_H-M	'P1'
_symmetry_Int_Tables_number	1
_symmetry_cell_setting	triclinic
loop_
_symmetry_equiv_pos_as_xyz
  x,y,z
_cell_length_a	18.050590
_cell_length_b	18.050589
_cell_length_c	18.050568
_cell_angle_alpha	89.906844
_cell_angle_beta	89.955174
_cell_angle_gamma	90.017386
loop_
_atom_site_label
_atom_site_type_symbol
_atom_site_fract_x
_atom_site_fract_y
_atom_site_fract_z
Zn1	Zn	1.135627	-0.295372	-0.419625
Zn2	Zn	1.468960	0.037961	-0.086292
Zn3	Zn	1.802293	0.371294	0.247042
Zn4	Zn	1.135438	-0.419718	-0.295444
Zn5	Zn	1.468772	-0.086385	0.037889
Zn6	Zn	1.802105	0.246949	0.371222
Zn7	Zn	1.011347	-0.295523	-0.295483
Zn8	Zn	1.344680	0.037810	0.037850
Zn9	Zn	1.678014	0.371144	0.371184
Zn10	Zn	1.011394	-0.419502	-0.419627
Zn11	Zn	1.344727	-0.086168	-0.086294
Zn12	Zn	1.678060	0.247165	0.247040
O13	O	1.073451	-0.357529	-0.357545
O14	O	1.406785	-0.024195	-0.024212
O15	O	1.740118	0.309138	0.309122
O16	O	1.239526	-0.311895	-0.403135
O17	O	1.572859	0.021439	-0.069802
O18	O	1.906193	0.354772	0.263531
O19	O	1.118879	-0.403397	-0.191525
O20	O	1.452212	-0.070064	0.141809
O21	O	1.785546	0.263270	0.475142
O22	O	1.027892	-0.191578	-0.311966
O23	O	1.361225	0.141755	0.021367
O24	O	1.694559	0.475088	0.354701
O25	O	1.239388	-0.403251	-0.311900
O26	O	1.572721	-0.069918	0.021433
O27	O	1.906055	0.263416	0.354767
O28	O	1.119200	-0.191468	-0.403173
O29	O	1.452533	0.141866	-0.069839
O30	O	1.785866	0.475199	0.263494
O31	O	1.027710	-0.312151	-0.191553
O32	O	1.361043	0.021182	0.141780
O33	O	1.694376	0.354515	0.475114
O34	O	0.907429	-0.311941	-0.311968
O35	O	1.240762	0.021392	0.021365
O36	O	1.574095	0.354725	0.354699
O37	O	1.027972	-0.402882	-0.523552
O38	O	1.361305	-0.069549	-0.190218
O39	O	1.694638	0.263785	0.143115
O40	O	0.907463	-0.403028	-0.403176
O41	O	1.240796	-0.069695	-0.069843
O42	O	1.574130	0.263639	0.263491
O43	O	1.119245	-0.311685	-0.523550
O44	O	1.452578	0.021649	-0.190217
O45	O	1.785912	0.354982	0.143116
O46	O	1.118924	-0.523614	-0.311902
O47	O	1.452258	-0.190281	0.021431
O48	O	1.785591	0.143053	0.354765
O49	O	1.027789	-0.523455	-0.403139
O50	O	1.361123	-0.190122	-0.069805
O51	O	1.694456	0.143212	0.263528
C52	C	0.880499	-0.357478	-0.357577
C53	C	1.213833	-0.024145	-0.024244
C54	C	1.547166	0.309189	0.309090
C55	C	0.797954	-0.357474	-0.357608
C56	C	1.131287	-0.024141	-0.024275
C57	C	1.464620	0.309193	0.309059
C58	C	0.598543	-0.407149	-0.407089
C59	C	0.931876	-0.073816	-0.073756
C60	C	1.265210	0.259517	0.259577
C61	C	0.549164	-0.339410	-0.425359
C62	C	0.882498	-0.006077	-0.092026
C63	C	1.215831	0.327256	0.241307
C64	C	0.646823	-0.357516	-0.357572
C65	C	0.980156	-0.024182	-0.024239
C66	C	1.313490	0.309151	0.309095
C67	C	0.549120	-0.425293	-0.339301
C68	C	0.882453	-0.091960	-0.005968
C69	C	1.215787	0.241373	0.327366
C70	C	0.500838	-0.357562	-0.357538
C71	C	0.834171	-0.024228	-0.024205
C72	C	1.167505	0.309105	0.309128
C73	C	0.598532	-0.289741	-0.375877
C74	C	0.931865	0.043593	-0.042544
C75	C	1.265199	0.376926	0.290789
C76	C	0.598492	-0.375669	-0.289787
C77	C	0.931825	-0.042336	0.043546
C78	C	1.265158	0.290997	0.376879
C79	C	0.549135	-0.307884	-0.308032
C80	C	0.882469	0.025449	0.025301
C81	C	1.215802	0.358783	0.358635
C82	C	0.730921	-0.357490	-0.357593
C83	C	1.064255	-0.024157	-0.024260
C84	C	1.397588	0.309177	0.309073
C85	C	0.416741	-0.357580	-0.357517
C86	C	0.750075	-0.024246	-0.024184
C87	C	1.083408	0.309087	0.309150
C88	C	1.073362	-0.550481	-0.357533
C89	C	1.406695	-0.217148	-0.024199
C90	C	1.740028	0.116186	0.309134
C91	C	1.073391	-0.633027	-0.357552
C92	C	1.406725	-0.299693	-0.024219
C93	C	1.740058	0.033640	0.309115
C94	C	1.023881	-0.832418	-0.407149
C95	C	1.357214	-0.499084	-0.073816
C96	C	1.690547	-0.165751	0.259517
C97	C	1.005729	-0.881937	-0.339387
C98	C	1.339062	-0.548604	-0.006053
C99	C	1.672396	-0.215270	0.327280
C100	C	1.073464	-0.784157	-0.357562
C101	C	1.406798	-0.450824	-0.024228
C102	C	1.740131	-0.117490	0.309105
C103	C	1.091653	-0.881719	-0.425332
C104	C	1.424986	-0.548386	-0.091999
C105	C	1.758319	-0.215053	0.241335
C106	C	1.073533	-0.930142	-0.357577
C107	C	1.406867	-0.596809	-0.024244
C108	C	1.740200	-0.263475	0.309090
C109	C	1.055277	-0.832589	-0.289763
C110	C	1.388610	-0.499256	0.043570
C111	C	1.721943	-0.165922	0.376903
C112	C	1.141232	-0.832367	-0.375754
C113	C	1.474565	-0.499034	-0.042421
C114	C	1.807899	-0.165700	0.290912
C115	C	1.123106	-0.881864	-0.307945
C116	C	1.456439	-0.548531	0.025388
C117	C	1.789772	-0.215197	0.358721
C118	C	1.073423	-0.700059	-0.357554
C119	C	1.406756	-0.366725	-0.024221
C120	C	1.740089	-0.033392	0.309113
C121	C	1.073575	-1.014239	-0.357577
C122	C	1.406909	-0.680905	-0.024244
C123	C	1.740242	-0.347572	0.309089
C124	C	1.267157	-0.357580	-0.357513
C125	C	1.600490	-0.024247	-0.024180
C126	C	1.933824	0.309086	0.309153
C127	C	1.349703	-0.357602	-0.357500
C128	C	1.683036	-0.024269	-0.024166
C129	C	2.016369	0.309064	0.309167
C130	C	1.073635	-0.357242	-0.551251
C131	C	1.406968	-0.023909	-0.217918
C132	C	1.740301	0.309424	0.115416
C133	C	1.073713	-0.357120	-0.633797
C134	C	1.407046	-0.023787	-0.300464
C135	C	1.740379	0.309546	0.032870
C136	C	1.073562	-0.163823	-0.357573
C137	C	1.406895	0.169510	-0.024240
C138	C	1.740228	0.502844	0.309093
C139	C	1.073609	-0.081277	-0.357586
C140	C	1.406942	0.252056	-0.024252
C141	C	1.740275	0.585389	0.309081
C142	C	1.073312	-0.357760	-0.164592
C143	C	1.406645	-0.024427	0.168741
C144	C	1.739978	0.308906	0.502074
C145	C	1.073377	-0.357673	-0.082047
C146	C	1.406711	-0.024340	0.251287
C147	C	1.740044	0.308993	0.584620
C148	C	1.123507	-0.406634	0.166832
C149	C	1.456840	-0.073300	0.500165
C150	C	1.790174	0.260033	0.833498
C151	C	1.141185	-0.338815	0.117221
C152	C	1.474518	-0.005482	0.450554
C153	C	1.807851	0.327851	0.783887
C154	C	1.073600	-0.357305	0.215073
C155	C	1.406933	-0.023972	0.548406
C156	C	1.740267	0.309362	0.881740
C157	C	1.055847	-0.425302	0.117602
C158	C	1.389181	-0.091968	0.450936
C159	C	1.722514	0.241365	0.784269
C160	C	1.073492	-0.357490	0.069088
C161	C	1.406826	-0.024156	0.402422
C162	C	1.740159	0.309177	0.735755
C163	C	1.091313	-0.289449	0.166549
C164	C	1.424647	0.043884	0.499883
C165	C	1.757980	0.377217	0.833216
C166	C	1.005945	-0.375982	0.166935
C167	C	1.339278	-0.042648	0.500269
C168	C	1.672611	0.290685	0.833602
C169	C	1.023596	-0.308117	0.117347
C170	C	1.356929	0.025217	0.450680
C171	C	1.690263	0.358550	0.784013
C172	C	1.073664	-0.357200	0.299171
C173	C	1.406997	-0.023867	0.632504
C174	C	1.740330	0.309467	0.965838
C175	C	1.073428	-0.357587	-0.015008
C176	C	1.406762	-0.024254	0.318325
C177	C	1.740095	0.309079	0.651659
H178	H	0.527496	-0.324071	-0.482669
H179	H	0.860829	0.009263	-0.149336
H180	H	1.194163	0.342596	0.183998
H181	H	1.107009	-0.903303	-0.482639
H182	H	1.440342	-0.569970	-0.149305
H183	H	1.773675	-0.236637	0.184028
C184	C	1.218588	-0.802926	-0.396562
C185	C	1.551921	-0.469593	-0.063228
C186	C	1.885255	-0.136260	0.270105
H187	H	1.237573	-0.774031	-0.356936
H188	H	1.570906	-0.440697	-0.023603
H189	H	1.904240	-0.107364	0.309730
H190	H	1.215038	-0.773150	-0.439853
H191	H	1.548371	-0.439817	-0.106520
H192	H	1.881704	-0.106483	0.226813
H193	H	1.250883	-0.843441	-0.405725
H194	H	1.584217	-0.510108	-0.072392
H195	H	1.917550	-0.176774	0.260941
C196	C	1.180622	-0.462807	0.196189
C197	C	1.513956	-0.129474	0.529522
C198	C	1.847289	0.203860	0.862855
H199	H	1.228632	-0.449477	0.179161
H200	H	1.561965	-0.116144	0.512494
H201	H	1.895299	0.217189	0.845828
H202	H	1.168521	-0.510919	0.178709
H203	H	1.501855	-0.177586	0.512042
H204	H	1.835188	0.155747	0.845376
H205	H	1.179959	-0.462665	0.248815
H206	H	1.513293	-0.129331	0.582148
H207	H	1.846626	0.204002	0.915481
H208	H	0.620145	-0.232424	-0.391381
H209	H	0.953478	0.100909	-0.058048
H210	H	1.286812	0.434242	0.275285
H211	H	0.981341	-0.266433	0.095764
H212	H	1.314674	0.066901	0.429097
H213	H	1.648008	0.400234	0.762430
C214	C	0.520006	-0.251147	-0.251445
C215	C	0.853339	0.082186	0.081888
C216	C	1.186673	0.415520	0.415221
H217	H	0.537017	-0.203060	-0.264534
H218	H	0.870350	0.130273	0.068799
H219	H	1.203684	0.463606	0.402133
H220	H	0.537643	-0.263615	-0.203451
H221	H	0.870976	0.069718	0.129882
H222	H	1.204310	0.403051	0.463216
H223	H	0.467379	-0.251753	-0.251456
H224	H	0.800713	0.081581	0.081878
H225	H	1.134046	0.414914	0.415211
H226	H	0.948452	-0.903726	-0.324013
H227	H	1.281786	-0.570393	0.009320
H228	H	1.615119	-0.237060	0.342654
H229	H	1.198353	-0.323093	0.095389
H230	H	1.531687	0.010241	0.428722
H231	H	1.865020	0.343574	0.762055
C232	C	0.519788	-0.502695	-0.318447
C233	C	0.853122	-0.169361	0.014886
C234	C	1.186455	0.163972	0.348219
H235	H	0.536712	-0.537879	-0.353694
H236	H	0.870045	-0.204545	-0.020361
H237	H	1.203378	0.128788	0.312973
H238	H	0.467167	-0.502037	-0.318146
H239	H	0.800501	-0.168704	0.015187
H240	H	1.133834	0.164629	0.348521
H241	H	0.537403	-0.515925	-0.270643
H242	H	0.870736	-0.182592	0.062690
H243	H	1.204070	0.150742	0.396023
C244	C	1.111632	-0.211850	0.195475
C245	C	1.444966	0.121484	0.528809
C246	C	1.778299	0.454817	0.862142
H247	H	1.111573	-0.212263	0.248106
H248	H	1.444906	0.121070	0.581439
H249	H	1.778240	0.454403	0.914773
H250	H	1.076365	-0.176845	0.178136
H251	H	1.409698	0.156488	0.511469
H252	H	1.743032	0.489821	0.844802
H253	H	1.159508	-0.198574	0.178039
H254	H	1.492841	0.134759	0.511372
H255	H	1.826175	0.468092	0.844705
C256	C	0.928740	-0.397248	0.196458
C257	C	1.262073	-0.063914	0.529792
C258	C	1.595407	0.269419	0.863125
H259	H	0.916237	-0.445534	0.179735
H260	H	1.249571	-0.112200	0.513069
H261	H	1.582904	0.221133	0.846402
H262	H	0.893128	-0.362765	0.178780
H263	H	1.226461	-0.029432	0.512114
H264	H	1.559795	0.303901	0.845447
H265	H	0.929231	-0.396583	0.249080
H266	H	1.262564	-0.063249	0.582414
H267	H	1.595897	0.270084	0.915747
H268	H	1.040877	-0.482728	0.096093
H269	H	1.374211	-0.149395	0.429427
H270	H	1.707544	0.183939	0.762760
H271	H	0.620238	-0.449049	-0.449012
H272	H	0.953572	-0.115716	-0.115678
H273	H	1.286905	0.217618	0.217655
C274	C	0.627794	-0.396419	-0.212393
C275	C	0.961127	-0.063085	0.120941
C276	C	1.294460	0.270248	0.454274
H277	H	0.610906	-0.444600	-0.199495
H278	H	0.944239	-0.111266	0.133838
H279	H	1.277572	0.222067	0.467172
H280	H	0.610142	-0.361670	-0.177079
H281	H	0.943475	-0.028336	0.156254
H282	H	1.276808	0.304997	0.489587
H283	H	0.680418	-0.395807	-0.212862
H284	H	1.013752	-0.062473	0.120471
H285	H	1.347085	0.270860	0.453805
C286	C	1.034440	-0.803562	-0.212325
C287	C	1.367773	-0.470229	0.121008
C288	C	1.701107	-0.136895	0.454341
H289	H	1.025794	-0.844254	-0.180008
H290	H	1.359127	-0.510921	0.153326
H291	H	1.692460	-0.177588	0.486659
H292	H	0.990843	-0.774294	-0.215718
H293	H	1.324177	-0.440961	0.117616
H294	H	1.657510	-0.107627	0.450949
H295	H	1.073839	-0.774238	-0.193471
H296	H	1.407172	-0.440904	0.139862
H297	H	1.740505	-0.107571	0.473195
C298	C	0.967157	-0.803082	-0.463716
C299	C	1.300490	-0.469749	-0.130383
C300	C	1.633823	-0.136416	0.202950
H301	H	0.919053	-0.820058	-0.450671
H302	H	1.252387	-0.486725	-0.117338
H303	H	1.585720	-0.153391	0.215996
H304	H	0.979580	-0.820626	-0.511731
H305	H	1.312913	-0.487293	-0.178398
H306	H	1.646247	-0.153960	0.154935
H307	H	0.967833	-0.750457	-0.463631
H308	H	1.301167	-0.417123	-0.130297
H309	H	1.634500	-0.083790	0.203036
H310	H	1.165067	-0.903437	-0.265969
H311	H	1.498400	-0.570103	0.067364
H312	H	1.831733	-0.236770	0.400698
