data_functionalizedCrystal
_audit_creation_method	'MofGen! by Chris Wilmer'
_symmetry_space_group_name_H-M	'P1'
_symmetry_Int_Tables_number	1
_symmetry_cell_setting	triclinic
loop_
_symmetry_equiv_pos_as_xyz
  x,y,z
_cell_length_a	10.654550
_cell_length_b	9.065215
_cell_length_c	8.140239
_cell_angle_alpha	90.002571
_cell_angle_beta	89.999482
_cell_angle_gamma	84.749814
loop_
_atom_site_label
_atom_site_type_symbol
_atom_site_fract_x
_atom_site_fract_y
_atom_site_fract_z
O1	O	1.668657	0.207233	0.136487
O2	O	1.303257	0.226977	0.136517
O3	O	1.493512	0.002421	0.136494
O4	O	1.478402	0.431789	0.136510
O5	O	1.493501	0.002419	-0.136733
O6	O	1.303246	0.226974	-0.136710
O7	O	1.668646	0.207231	-0.136740
Zn8	Zn	1.485945	0.217102	-0.180106
Zn9	Zn	1.485959	0.217106	0.179883
O10	O	1.478392	0.431786	-0.136717
C11	C	1.256448	0.225526	-0.000093
C12	C	1.116987	0.221189	-0.000081
C13	C	1.038024	0.353404	-0.000081
C14	C	0.906987	0.349320	-0.000110
C15	C	0.933889	0.080794	-0.000132
C16	C	1.064924	0.084880	-0.000115
C17	C	0.711759	0.505036	-0.095849
C18	C	0.632791	0.637258	-0.095821
C19	C	0.663435	0.757122	-0.000064
C20	C	0.773045	0.744769	0.095705
C21	C	0.852007	0.612545	0.095691
C22	C	0.821364	0.492687	-0.000104
C23	C	1.260153	-0.070828	0.095637
C24	C	1.339118	-0.203054	0.095636
C25	C	1.308477	-0.322930	-0.000111
C26	C	1.198864	-0.310592	-0.095855
C27	C	1.119900	-0.178366	-0.095853
C28	C	1.150549	-0.058489	-0.000109
C29	C	1.492055	-0.052559	-0.000117
C30	C	1.487716	-0.216378	-0.000112
C31	C	1.715455	0.208682	-0.000127
C32	C	1.854916	0.213019	-0.000127
C33	C	1.479848	0.486767	-0.000102
C34	C	1.484187	0.650586	-0.000097
N35	N	1.485944	0.217099	-0.425788
N36	N	1.485969	0.217097	0.425565
H37	H	0.891483	-0.030185	-0.000169
C38	C	0.806127	0.875102	0.199508
C39	C	0.713534	0.993556	0.178989
C40	C	0.743981	1.113653	0.274564
H41	H	0.810203	0.846861	0.311889
H42	H	0.885513	0.904479	0.165853
H43	H	0.634170	0.964182	0.212653
H44	H	0.709444	1.021841	0.066629
H45	H	0.823366	1.143030	0.240909
H46	H	0.748057	1.085397	0.386939
H47	H	0.681168	1.194042	0.260644
H48	H	1.080410	0.464395	-0.000066
C49	C	1.457982	-0.216344	0.199874
C50	C	1.425535	-0.194288	0.365308
C51	C	1.534996	-0.206507	0.461377
H52	H	1.500696	-0.312227	0.186374
H53	H	1.511525	-0.143686	0.166334
H54	H	1.372012	-0.266943	0.398838
H55	H	1.382836	-0.098410	0.378859
H56	H	1.588540	-0.133849	0.427837
H57	H	1.577703	-0.302391	0.447864
H58	H	1.512997	-0.191531	0.573632
H59	H	1.285117	0.026785	0.173599
H60	H	0.599130	0.864780	-0.000044
H61	H	1.030648	-0.168326	-0.173821
C62	C	1.165835	-0.440884	-0.199767
C63	C	1.258464	-0.559307	-0.179311
C64	C	1.228089	-0.679356	-0.275016
H65	H	1.086474	-0.470358	-0.166216
H66	H	1.161779	-0.412514	-0.312130
H67	H	1.262506	-0.587674	-0.066971
H68	H	1.337833	-0.529881	-0.212871
H69	H	1.224034	-0.650986	-0.387379
H70	H	1.148727	-0.708817	-0.241457
H71	H	1.290939	-0.759715	-0.261161
H72	H	0.941240	0.602481	0.173681
H73	H	0.686808	0.407450	-0.173850
H74	H	0.543547	0.647306	-0.173806
H75	H	1.372774	-0.430601	-0.000086
