data_functionalizedCrystal
_audit_creation_method	'MofGen! by Chris Wilmer'
_symmetry_space_group_name_H-M	'P1'
_symmetry_Int_Tables_number	1
_symmetry_cell_setting	triclinic
loop_
_symmetry_equiv_pos_as_xyz
  x,y,z
_cell_length_a	13.033293
_cell_length_b	16.625545
_cell_length_c	13.033255
_cell_angle_alpha	97.153062
_cell_angle_beta	74.801189
_cell_angle_gamma	97.195104
loop_
_atom_site_label
_atom_site_type_symbol
_atom_site_fract_x
_atom_site_fract_y
_atom_site_fract_z
Zn1	Zn	1.700224	-0.233626	-0.807154
Zn2	Zn	2.200224	0.266374	-0.307154
Zn3	Zn	1.677536	-0.353291	-0.629524
Zn4	Zn	2.177536	0.146709	-0.129524
Zn5	Zn	1.500032	-0.233642	-0.606960
Zn6	Zn	2.000032	0.266358	-0.106960
Zn7	Zn	1.522526	-0.383595	-0.784494
Zn8	Zn	2.022526	0.116405	-0.284494
O9	O	1.600080	-0.301038	-0.707033
O10	O	2.100080	0.198962	-0.207033
O11	O	1.845867	-0.236810	-0.802518
O12	O	2.345867	0.263190	-0.302518
O13	O	1.635080	-0.324743	-0.477894
O14	O	2.135080	0.175257	0.022106
O15	O	1.526670	-0.120803	-0.633557
O16	O	2.026670	0.379197	-0.133557
O17	O	1.829198	-0.324728	-0.672014
O18	O	2.329198	0.175272	-0.172014
O19	O	1.673750	-0.120791	-0.780638
O20	O	2.173750	0.379209	-0.280638
O21	O	1.504670	-0.236838	-0.461316
O22	O	2.004670	0.263162	0.038684
O23	O	1.354363	-0.266222	-0.611584
O24	O	1.854363	0.233778	-0.111584
O25	O	1.565007	-0.376377	-0.936137
O26	O	2.065007	0.123623	-0.436137
O27	O	1.370889	-0.376393	-0.742017
O28	O	1.870889	0.123607	-0.242017
O29	O	1.695561	-0.266195	-0.952785
O30	O	2.195561	0.233805	-0.452785
O31	O	1.656892	-0.470147	-0.650041
O32	O	2.156892	0.029853	-0.150041
O33	O	1.543007	-0.492412	-0.763896
O34	O	2.043007	0.007588	-0.263896
C35	C	1.324082	-0.324598	-0.671893
C36	C	1.824082	0.175402	-0.171893
C37	C	1.206013	-0.334699	-0.656886
C38	C	1.706013	0.165301	-0.156886
C39	C	1.161634	-0.295787	-0.714865
C40	C	1.661634	0.204213	-0.214865
C41	C	1.039603	-0.306226	-0.699356
C42	C	1.539603	0.193774	-0.199356
C43	C	1.599960	-0.510536	-0.706985
C44	C	2.099960	-0.010536	-0.206985
C45	C	1.600010	-0.600155	-0.707012
C46	C	2.100010	-0.100155	-0.207012
C47	C	1.600054	-0.672936	-0.707038
C48	C	2.100054	-0.172936	-0.207038
C49	C	1.600119	-0.764241	-0.707070
C50	C	2.100119	-0.264241	-0.207070
C51	C	1.600176	-0.837014	-0.707090
C52	C	2.100176	-0.337014	-0.207090
C53	C	1.600240	-0.928325	-0.707120
C54	C	2.100240	-0.428325	-0.207120
C55	C	1.877155	-0.277387	-0.742310
C56	C	2.377155	0.222613	-0.242310
C57	C	1.995227	-0.267308	-0.757344
C58	C	2.495227	0.232692	-0.257344
C59	C	1.635324	-0.324665	-0.984079
C60	C	2.135324	0.175335	-0.484079
C61	C	1.650343	-0.334733	-1.102139
C62	C	2.150343	0.165267	-0.602139
C63	C	1.600232	-0.090722	-0.707108
C64	C	2.100232	0.409278	-0.207108
C65	C	1.600296	-0.001098	-0.707140
C66	C	2.100296	0.498902	-0.207140
C67	C	1.608044	-0.306131	-1.268599
C68	C	2.108044	0.193869	-0.768599
C69	C	1.592512	-0.295724	-1.146576
C70	C	2.092512	0.204276	-0.646576
C71	C	1.565033	-0.277440	-0.431073
C72	C	2.065033	0.222560	0.068927
C73	C	1.550220	-0.267128	-0.313039
C74	C	2.050220	0.232872	0.186961
H75	H	1.153664	-0.375739	-0.595762
H76	H	1.653664	0.124261	-0.095762
N77	N	1.469418	-0.212678	-1.243797
N78	N	1.969418	0.287322	-0.743797
H79	H	1.395942	-0.233307	-1.253383
H80	H	1.895942	0.266693	-0.753383
H81	H	1.469867	-0.212975	-1.166473
H82	H	1.969867	0.287025	-0.666473
N83	N	0.970269	-0.360588	-0.618382
N84	N	1.470269	0.139412	-0.118382
H85	H	0.929713	-0.405588	-0.655649
H86	H	1.429713	0.094412	-0.155649
H87	H	1.016716	-0.385064	-0.581839
H88	H	1.516716	0.114936	-0.081839
N89	N	1.064549	-0.212932	-0.838306
N90	N	1.564549	0.287068	-0.338306
H91	H	1.141898	-0.213179	-0.837910
H92	H	1.641898	0.286821	-0.337910
H93	H	1.054874	-0.233678	-0.911698
H94	H	1.554874	0.266322	-0.411698
N95	N	1.511708	-0.241278	-1.077318
N96	N	2.011708	0.258722	-0.577318
H97	H	1.530686	-0.183888	-1.098689
H98	H	2.030686	0.316112	-0.598689
H99	H	1.438261	-0.261973	-1.086925
H100	H	1.938261	0.238027	-0.586925
N101	N	1.731150	-0.389182	-1.171382
N102	N	2.231150	0.110818	-0.671382
H103	H	1.730792	-0.388902	-1.248736
H104	H	2.230792	0.111098	-0.748736
H105	H	1.804583	-0.368519	-1.161708
H106	H	2.304583	0.131481	-0.661708
N107	N	1.230964	-0.241436	-0.795849
N108	N	1.730964	0.258564	-0.295849
H109	H	1.308313	-0.241692	-0.795460
H110	H	1.808313	0.258308	-0.295460
H111	H	1.221274	-0.262203	-0.869230
H112	H	1.721274	0.237797	-0.369230
N113	N	1.688840	-0.360582	-1.337847
N114	N	2.188840	0.139418	-0.837847
H115	H	1.688478	-0.360302	-1.415200
H116	H	2.188478	0.139698	-0.915200
H117	H	1.762276	-0.339924	-1.328178
H118	H	2.262276	0.160076	-0.828178
