data_functionalizedCrystal
_audit_creation_method	'MofGen! by Chris Wilmer'
_symmetry_space_group_name_H-M	'P1'
_symmetry_Int_Tables_number	1
_symmetry_cell_setting	triclinic
loop_
_symmetry_equiv_pos_as_xyz
  x,y,z
_cell_length_a	10.723024
_cell_length_b	11.792241
_cell_length_c	9.198806
_cell_angle_alpha	89.996670
_cell_angle_beta	89.996352
_cell_angle_gamma	84.330643
loop_
_atom_site_label
_atom_site_type_symbol
_atom_site_fract_x
_atom_site_fract_y
_atom_site_fract_z
O1	O	1.656767	0.159192	-0.120884
O2	O	1.293574	0.174430	-0.120889
O3	O	1.483984	0.001660	-0.120876
O4	O	1.466357	0.331962	-0.120897
O5	O	1.483969	0.001659	0.120909
O6	O	1.293559	0.174430	0.120896
O7	O	1.656751	0.159192	0.120901
Cu8	Cu	1.475154	0.166811	0.142976
Cu9	Cu	1.475172	0.166811	-0.142963
O10	O	1.466341	0.331962	0.120889
C11	C	1.247070	0.173321	0.000003
C12	C	1.108524	0.170003	0.000002
C13	C	1.033286	0.266676	-0.000005
C14	C	0.890091	0.263249	-0.000007
C15	C	1.482869	-0.040634	0.000016
C16	C	1.479555	-0.166655	0.000015
C17	C	1.473461	-0.397380	-0.000010
C18	C	1.476847	-0.268988	0.000004
C19	C	1.703256	0.160301	0.000006
C20	C	1.841801	0.163619	-0.000002
C21	C	1.467456	0.374255	-0.000007
C22	C	1.470770	0.500276	-0.000015
N23	N	1.475150	0.166810	0.344090
N24	N	1.475185	0.166803	-0.344077
C25	C	1.555099	0.093948	0.416292
C26	C	1.555118	0.093944	0.583704
H27	H	1.066928	0.084701	-0.000030
O28	O	0.813024	0.362018	-0.000273
C29	C	0.836152	0.425662	-0.125480
H30	H	0.880316	0.366130	-0.212998
H31	H	0.744066	0.470362	-0.167519
H32	H	0.902772	0.491957	-0.097169
H33	H	1.623570	0.031569	0.645795
O34	O	0.919040	0.064952	-0.000190
C35	C	0.995167	0.060649	-0.125432
H36	H	1.002236	0.150811	-0.167186
H37	H	1.092751	0.019235	-0.097267
H38	H	0.952075	0.008421	-0.213113
H39	H	1.074882	0.351978	-0.000002
O40	O	1.393693	0.241279	0.581710
C41	C	1.461289	0.311625	0.493679
H42	H	1.558534	0.266979	0.471005
H43	H	1.409442	0.329202	0.386596
H44	H	1.470549	0.395578	0.552247
O45	O	1.393452	0.241071	0.418351
C46	C	1.315913	0.179788	0.506386
H47	H	1.364778	0.091265	0.529030
H48	H	1.296730	0.226952	0.613483
H49	H	1.223532	0.171593	0.447835
H50	H	1.623528	0.031567	0.354171
