data_functionalizedCrystal
_audit_creation_method	'MofGen! by Chris Wilmer'
_symmetry_space_group_name_H-M	'P1'
_symmetry_Int_Tables_number	1
_symmetry_cell_setting	triclinic
loop_
_symmetry_equiv_pos_as_xyz
  x,y,z
_cell_length_a	12.759401
_cell_length_b	16.120484
_cell_length_c	12.759393
_cell_angle_alpha	92.863686
_cell_angle_beta	89.981827
_cell_angle_gamma	92.925560
loop_
_atom_site_label
_atom_site_type_symbol
_atom_site_fract_x
_atom_site_fract_y
_atom_site_fract_z
Zn1	Zn	1.584968	-0.331860	-0.615146
Zn2	Zn	2.084968	0.168140	-0.115146
Zn3	Zn	1.575920	-0.471296	-0.448359
Zn4	Zn	2.075920	0.028704	0.051641
Zn5	Zn	1.409268	-0.331902	-0.439488
Zn6	Zn	1.909268	0.168098	0.060512
Zn7	Zn	1.400320	-0.471234	-0.623996
Zn8	Zn	1.900320	0.028766	-0.123996
O9	O	1.492619	-0.401573	-0.531747
O10	O	1.992619	0.098427	-0.031747
O11	O	1.730788	-0.350365	-0.593030
O12	O	2.230788	0.149635	-0.093030
O13	O	1.553772	-0.452848	-0.300164
O14	O	2.053772	0.047152	0.199836
O15	O	1.440107	-0.215231	-0.455373
O16	O	1.940107	0.284769	0.044627
O17	O	1.724141	-0.452808	-0.470492
O18	O	2.224141	0.047192	0.029508
O19	O	1.569192	-0.215200	-0.584428
O20	O	2.069192	0.284800	-0.084428
O21	O	1.431334	-0.350436	-0.293647
O22	O	1.931334	0.149564	0.206353
O23	O	1.261061	-0.350376	-0.463955
O24	O	1.761061	0.149624	0.036045
O25	O	1.424855	-0.452702	-0.769841
O26	O	1.924855	0.047298	-0.269841
O27	O	1.254486	-0.452742	-0.599512
O28	O	1.754486	0.047258	-0.099512
O29	O	1.560515	-0.350305	-0.763339
O30	O	2.060515	0.149695	-0.263339
O31	O	1.545095	-0.587953	-0.479074
O32	O	2.045095	-0.087953	0.020926
O33	O	1.416082	-0.587907	-0.608114
O34	O	1.916082	-0.087907	-0.108114
C35	C	1.219653	-0.401557	-0.531732
C36	C	1.719653	0.098443	-0.031732
C37	C	1.102875	-0.401571	-0.531752
C38	C	1.602875	0.098429	-0.031752
C39	C	1.044612	-0.454959	-0.602231
C40	C	1.544612	0.045041	-0.102231
C41	C	0.934887	-0.454969	-0.602243
C42	C	1.434887	0.045031	-0.102243
C43	C	0.941699	-0.348202	-0.461288
C44	C	1.441699	0.151798	0.038712
C45	C	1.051422	-0.348188	-0.461282
C46	C	1.551422	0.151812	0.038718
C47	C	1.096065	-0.508342	-0.672701
C48	C	1.596065	-0.008342	-0.172701
C49	C	1.037801	-0.561734	-0.743185
C50	C	1.537801	-0.061734	-0.243185
C51	C	0.928077	-0.561745	-0.743197
C52	C	1.428077	-0.061745	-0.243197
C53	C	0.876616	-0.508363	-0.672725
C54	C	1.376616	-0.008363	-0.172725
C55	C	1.478664	-0.618180	-0.545540
C56	C	1.978664	-0.118180	-0.045540
C57	C	1.472791	-0.710846	-0.551476
C58	C	1.972791	-0.210846	-0.051476
C59	C	1.462073	-0.880506	-0.562334
C60	C	1.962073	-0.380506	-0.062334
C61	C	1.523354	-0.921799	-0.501178
C62	C	2.023354	-0.421799	-0.001178
C63	C	1.517390	-1.016204	-0.507220
C64	C	2.017390	-0.516204	-0.007220
C65	C	1.468035	-0.786093	-0.556294
C66	C	1.968035	-0.286093	-0.056294
C67	C	1.766651	-0.401589	-0.531763
C68	C	2.266651	0.098411	-0.031763
C69	C	1.883427	-0.401596	-0.531770
C70	C	2.383427	0.098404	-0.031770
C71	C	1.492696	-0.401492	-0.805776
C72	C	1.992696	0.098508	-0.305776
C73	C	1.492729	-0.401457	-0.922550
C74	C	1.992729	0.098543	-0.422550
C75	C	1.506657	-0.184120	-0.517924
C76	C	2.006657	0.315880	-0.017924
C77	C	1.512639	-0.091454	-0.512033
C78	C	2.012639	0.408546	-0.012033
C79	C	1.422148	-0.454723	-1.090521
C80	C	1.922148	0.045277	-0.590521
C81	C	1.422114	-0.454753	-0.980799
C82	C	1.922114	0.045247	-0.480799
C83	C	1.563376	-0.348121	-0.974029
C84	C	2.063376	0.151879	-0.474029
C85	C	1.563405	-0.348087	-1.083749
C86	C	2.063405	0.151913	-0.583749
C87	C	1.351535	-0.508028	-1.148765
C88	C	1.851535	-0.008028	-0.648765
C89	C	1.280887	-0.561363	-1.097294
C90	C	1.780887	-0.061363	-0.597294
C91	C	1.280852	-0.561394	-0.987572
C92	C	1.780852	-0.061394	-0.487572
C93	C	1.351467	-0.508089	-0.929321
C94	C	1.851467	-0.008089	-0.429321
C95	C	1.492606	-0.401593	-0.258781
C96	C	1.992606	0.098407	0.241219
C97	C	1.492792	-0.401393	-0.141992
C98	C	1.992792	0.098607	0.358008
H99	H	1.079709	-0.605191	-0.800567
H100	H	1.579709	-0.105191	-0.300567
H101	H	1.405133	-0.916053	-0.619223
H102	H	1.905133	-0.416053	-0.119223
C103	C	1.351423	-0.508124	-0.808622
C104	C	1.851423	-0.008124	-0.308622
N105	N	1.351392	-0.508155	-0.717714
N106	N	1.851392	-0.008155	-0.217714
C107	C	1.600274	-0.873775	-0.424307
C108	C	2.100274	-0.373775	0.075693
N109	N	1.658204	-0.837600	-0.366407
N110	N	2.158204	-0.337600	0.133593
C111	C	1.641052	-0.289495	-0.909948
C112	C	2.141052	0.210505	-0.409948
N113	N	1.699562	-0.245340	-0.861683
N114	N	2.199562	0.254660	-0.361683
C115	C	0.863989	-0.620480	-0.820727
C116	C	1.363989	-0.120480	-0.320727
N117	N	0.815721	-0.664726	-0.879118
N118	N	1.315721	-0.164726	-0.379118
H119	H	0.787271	-0.508368	-0.672749
H120	H	1.287271	-0.008368	-0.172749
C121	C	1.203206	-0.619988	-1.161372
C122	C	1.703206	-0.119988	-0.661372
N123	N	1.144694	-0.664143	-1.209634
N124	N	1.644694	-0.164143	-0.709634
C125	C	0.885087	-0.289491	-0.383768
C126	C	1.385087	0.210509	0.116232
N127	N	0.842447	-0.245271	-0.325376
N128	N	1.342447	0.254729	0.174624
H129	H	1.351557	-0.508011	-1.238107
H130	H	1.851557	-0.008011	-0.738107
H131	H	1.223319	-0.604815	-0.945667
H132	H	1.723319	-0.104815	-0.445667
H133	H	1.185408	-0.508340	-0.672698
H134	H	1.685408	-0.008340	-0.172698
C135	C	1.115515	-0.289461	-0.383748
C136	C	1.615515	0.210539	0.116252
N137	N	1.163790	-0.245226	-0.325348
N138	N	1.663790	0.254774	0.174652
C139	C	1.641120	-0.289424	-1.140370
C140	C	2.141120	0.210576	-0.640370
N141	N	1.699656	-0.245237	-1.183018
N142	N	2.199656	0.254763	-0.683018
