data_functionalizedCrystal
_audit_creation_method	'MofGen! by Chris Wilmer'
_symmetry_space_group_name_H-M	'P1'
_symmetry_Int_Tables_number	1
_symmetry_cell_setting	triclinic
loop_
_symmetry_equiv_pos_as_xyz
  x,y,z
_cell_length_a	23.096457
_cell_length_b	14.560438
_cell_length_c	14.560438
_cell_angle_alpha	60.000095
_cell_angle_beta	89.999077
_cell_angle_gamma	59.995403
loop_
_atom_site_label
_atom_site_type_symbol
_atom_site_fract_x
_atom_site_fract_y
_atom_site_fract_z
Zr1	Zr	0.557735	1.005306	-0.120563
O2	O	0.465275	1.196922	-0.267212
O3	O	0.586085	0.813694	-0.075605
O4	O	0.586074	1.005308	-0.267213
O5	O	0.465288	1.005306	0.075536
O6	O	0.681356	1.005304	-0.267216
O7	O	0.465286	1.005309	-0.075605
O8	O	0.681375	0.662542	0.075535
O9	O	0.465270	1.348068	-0.267215
O10	O	0.669277	0.892503	-0.056436
O11	O	0.598171	0.892503	0.056361
O12	O	0.598158	1.118104	-0.169233
O13	O	0.527052	1.118104	-0.056436
Zr14	Zr	0.709704	1.005296	0.120484
Zr15	Zr	0.709700	1.005300	-0.120569
Zr16	Zr	0.557739	1.005302	0.120489
Zr17	Zr	0.557726	1.246366	-0.120568
Zr18	Zr	0.709713	0.764237	0.120488
O19	O	0.681355	1.196908	0.075525
O20	O	0.681349	1.196914	-0.267220
O21	O	0.465281	1.196917	0.075533
O22	O	0.802164	0.813680	0.267133
O23	O	0.802158	0.813686	-0.075612
O24	O	0.586090	0.813688	0.267140
O25	O	0.802151	1.005296	-0.075616
O26	O	0.681365	1.005295	0.267133
O27	O	0.586083	1.005299	0.267136
O28	O	0.802153	1.005294	0.075525
O29	O	0.586061	1.348063	-0.267219
O30	O	0.681378	0.662539	0.267140
O31	O	0.802169	0.662535	0.267135
O32	O	0.802166	0.662538	0.075531
O33	O	0.465273	1.348065	-0.075611
O34	O	0.586064	1.348060	-0.075615
O35	O	0.669281	0.892499	0.169153
O36	O	0.740387	0.892498	0.056356
O37	O	0.669268	1.118099	-0.056441
O38	O	0.598162	1.118100	0.056357
C39	C	0.633731	0.703772	-0.000034
C40	C	0.633735	0.601436	-0.000032
C41	C	0.686209	0.373941	0.083223
C42	C	0.686226	0.470076	0.083229
C43	C	0.581227	0.636661	-0.083311
C44	C	0.581214	0.540527	-0.083320
C45	C	0.443635	1.005308	-0.000034
C46	C	0.379123	1.005311	-0.000031
C47	C	0.348818	1.005322	-0.083301
C48	C	0.288206	1.005310	-0.083301
C49	C	0.257892	1.005313	-0.000039
C50	C	0.288206	1.005295	0.083245
C51	C	0.348821	1.005294	0.083249
N52	N	0.139538	1.078849	0.025166
N53	N	0.081955	1.078853	0.025156
C54	C	0.075263	1.005314	-0.000045
N55	N	0.128324	0.931788	-0.025257
N56	N	0.185910	0.931790	-0.025251
C57	C	0.192165	1.005314	-0.000034
C58	C	-0.020764	1.005310	-0.083320
C59	C	-0.081374	1.005290	-0.083312
C60	C	-0.081378	1.005289	0.083230
C61	C	-0.020764	1.005295	0.083227
C62	C	0.009538	1.005312	-0.000054
C63	C	0.823804	1.005294	-0.000046
C64	C	0.888317	1.005292	-0.000048
C65	C	0.633715	1.005306	-0.301559
C66	C	0.633713	1.005308	-0.403892
C67	C	0.633708	1.306830	-0.000045
C68	C	0.633704	1.409166	-0.000047
C69	C	0.596591	1.123067	-0.510847
C70	C	0.596599	1.123061	-0.606996
C71	C	0.670853	0.887526	-0.489221
C72	C	0.670848	0.887534	-0.393075
C73	C	0.633724	1.005296	0.301480
C74	C	0.633726	1.005294	0.403812
C75	C	0.823815	0.703765	-0.000041
C76	C	0.888332	0.601427	-0.000041
C77	C	0.633736	0.703767	0.301485
C78	C	0.633741	0.601429	0.403820
C79	C	0.823820	0.703760	0.301479
C80	C	0.888338	0.601420	0.403811
C81	C	0.443619	1.306842	-0.301559
C82	C	0.379101	1.409183	-0.403891
C83	C	0.443624	1.306837	-0.000039
C84	C	0.379107	1.409176	-0.000039
C85	C	0.633703	1.306835	-0.301565
C86	C	0.633698	1.409173	-0.403900
C87	C	0.881511	0.553370	-0.058928
C88	C	0.942126	0.457225	-0.058950
C89	C	1.009560	0.409132	-0.000079
C90	C	1.016380	0.457199	0.058809
C91	C	0.955766	0.553348	0.058825
C92	C	0.955760	0.553359	0.392989
C93	C	1.016388	0.457213	0.489132
C94	C	1.009592	0.409123	0.596097
C95	C	0.942164	0.457193	0.606917
C96	C	0.881537	0.553344	0.510775
C97	C	0.311679	1.457255	-0.393069
C98	C	0.251051	1.553431	-0.489212
C99	C	0.257847	1.601526	-0.596177
C100	C	0.325275	1.553450	-0.606997
C101	C	0.385902	1.457283	-0.510855
C102	C	0.385928	1.457243	0.058838
C103	C	0.325313	1.553414	0.058834
C104	C	0.257879	1.601510	-0.000040
C105	C	0.251059	1.553439	-0.058924
C106	C	0.311673	1.457276	-0.058926
C107	C	0.670862	0.553346	0.510774
C108	C	0.670859	0.457198	0.606924
C109	C	0.596614	0.457220	0.489154
C110	C	0.596613	0.553373	0.393006
H111	H	0.538456	0.569220	-0.151136
O112	O	-0.114055	1.005268	0.173052
H113	H	-0.130174	1.093309	0.168973
H114	H	0.208529	1.679812	-0.000030
H115	H	0.208475	1.679832	-0.674453
H116	H	0.961330	0.592464	0.106784
O117	O	0.332601	1.605320	-0.722368
H118	H	0.279113	1.680254	-0.787393
O119	O	0.934844	0.405306	0.722293
H120	H	0.877777	0.454876	0.713681
O121	O	0.742856	0.432092	0.173039
H122	H	0.740269	0.373723	0.256991
O123	O	1.074988	0.305405	0.699786
H124	H	1.074954	0.217786	0.750558
H125	H	0.196146	1.592614	-0.106858
O126	O	0.011932	1.005317	-0.173130
H127	H	0.028068	0.917256	-0.169026
O128	O	0.458653	1.405400	0.122336
H129	H	0.488055	1.299332	0.187432
O130	O	0.963098	0.605234	0.277626
H131	H	1.020171	0.555663	0.286271
O132	O	0.255500	1.005355	-0.173134
H133	H	0.255638	0.917308	-0.133115
O134	O	0.011925	1.005292	0.173035
H135	H	-0.019337	1.005300	0.230931
H136	H	0.826608	0.592526	-0.106881
H137	H	0.306109	1.418143	-0.106868
H138	H	0.936559	0.418101	-0.106904
O139	O	0.742824	0.232260	0.173029
H140	H	0.773076	0.184472	0.132977
H141	H	1.058910	0.330840	-0.000100
H142	H	0.566353	1.218967	-0.519661
H143	H	0.701091	0.592475	0.519585
H144	H	0.566371	1.218953	-0.694080
H145	H	0.440798	1.418143	-0.519680
H146	H	0.538491	0.743624	-0.151108
O147	O	0.556584	0.605134	0.277676
H148	H	0.515528	0.711203	0.230994
O149	O	0.710906	0.405318	0.722284
H150	H	0.736727	0.454882	0.713644
H151	H	0.373495	1.005285	0.151059
H152	H	0.373489	1.005331	-0.151111
O153	O	1.089110	0.405361	0.477450
H154	H	1.083643	0.454941	0.386917
H155	H	0.330880	1.592537	0.106789
H156	H	0.263522	1.005295	0.151040
H157	H	0.566387	0.418080	0.480363
O158	O	0.710903	0.760496	-0.477546
H159	H	0.673434	0.754845	-0.518520
O160	O	-0.114067	1.005310	-0.173133
H161	H	-0.082815	1.005338	-0.231046
H162	H	0.701081	0.791634	-0.305981
O163	O	1.089115	0.405312	0.122316
H164	H	1.130111	0.330369	0.112416
O165	O	0.808818	0.605151	0.522453
H166	H	0.814285	0.555535	0.612986
H167	H	0.196154	1.592558	-0.480380
O168	O	0.304341	1.405397	-0.277705
H169	H	0.247268	1.455007	-0.286351
