data_functionalizedCrystal
_audit_creation_method	'MofGen! by Chris Wilmer'
_symmetry_space_group_name_H-M	'P1'
_symmetry_Int_Tables_number	1
_symmetry_cell_setting	triclinic
loop_
_symmetry_equiv_pos_as_xyz
  x,y,z
_cell_length_a	10.654550
_cell_length_b	16.109301
_cell_length_c	9.130313
_cell_angle_alpha	89.997330
_cell_angle_beta	89.996220
_cell_angle_gamma	83.973192
loop_
_atom_site_label
_atom_site_type_symbol
_atom_site_fract_x
_atom_site_fract_y
_atom_site_fract_z
O1	O	1.666250	0.116770	-0.121925
O2	O	1.300621	0.127896	-0.121902
O3	O	1.493479	0.001362	-0.121899
O4	O	1.473391	0.243304	-0.121928
O5	O	1.493477	0.001365	0.121700
O6	O	1.300618	0.127899	0.121697
O7	O	1.666248	0.116774	0.121674
Cu8	Cu	1.483433	0.122337	0.143928
Cu9	Cu	1.483435	0.122333	-0.144156
O10	O	1.473389	0.243308	0.121671
C11	C	1.253832	0.127080	-0.000099
C12	C	1.114422	0.124636	-0.000090
C13	C	1.033926	0.199138	-0.000120
C14	C	0.902936	0.196836	-0.000145
C15	C	0.932952	0.045526	-0.000116
C16	C	1.063939	0.047828	-0.000081
C17	C	1.016595	0.286496	-0.000143
C18	C	0.885606	0.284194	-0.000168
C19	C	1.492665	-0.029616	-0.000099
C20	C	1.490225	-0.121926	-0.000097
C21	C	1.598991	-0.343552	-0.000127
C22	C	1.596689	-0.430286	-0.000139
C23	C	1.367868	-0.411772	-0.000119
C24	C	1.370172	-0.325040	-0.000117
C25	C	1.485737	-0.290932	-0.000114
C26	C	1.481131	-0.464399	-0.000127
C27	C	1.478634	-0.558440	-0.000140
C28	C	1.488234	-0.196885	-0.000104
C29	C	1.713036	0.117589	-0.000132
C30	C	1.852446	0.120033	-0.000151
C31	C	1.474204	0.274286	-0.000132
C32	C	1.476643	0.366595	-0.000144
N33	N	1.483440	0.122339	0.346551
N34	N	1.483438	0.122324	-0.346779
C35	C	1.568859	0.066329	0.423204
C36	C	1.568856	0.066319	0.576541
C37	C	1.398010	0.178336	0.576558
C38	C	1.398008	0.178342	0.423223
C39	C	1.667500	0.001659	0.423195
C40	C	1.667497	0.001649	0.576532
H41	H	0.891833	-0.017009	-0.000131
H42	H	1.693091	-0.315785	-0.000127
C43	C	1.640115	-0.083497	0.367408
C44	C	1.640212	-0.083272	0.214059
C45	C	1.614996	-0.161700	0.162616
H46	H	1.559852	-0.095447	0.401936
H47	H	1.703229	-0.124902	0.401989
H48	H	1.577101	-0.041879	0.179492
H49	H	1.720465	-0.071336	0.179491
H50	H	1.678110	-0.203106	0.197197
H51	H	1.534734	-0.173644	0.197155
H52	H	1.615070	-0.161561	0.058565
H53	H	1.763815	0.015894	0.618141
C54	C	1.719614	-0.487456	-0.000453
C55	C	1.724994	-0.537766	-0.125805
C56	C	1.838227	-0.590432	-0.126158
H57	H	1.723597	-0.521759	0.084391
H58	H	1.788800	-0.454745	-0.000532
H59	H	1.655828	-0.570473	-0.125712
H60	H	1.721034	-0.503485	-0.210669
H61	H	1.907413	-0.557722	-0.126236
H62	H	1.842199	-0.624730	-0.041308
H63	H	1.841898	-0.624568	-0.211213
H64	H	1.277941	-0.282194	-0.000111
H65	H	1.129476	-0.012838	-0.000035
H66	H	1.328442	0.223942	0.360814
C67	C	1.055145	0.332190	0.135612
C68	C	1.114242	0.402068	0.093485
C69	C	1.149756	0.444185	0.218500
H70	H	1.111958	0.295903	0.192360
H71	H	0.982321	0.349661	0.192235
H72	H	1.187056	0.384597	0.036887
H73	H	1.057451	0.438375	0.036755
H74	H	1.076933	0.461656	0.275122
H75	H	1.206566	0.407892	0.275239
H76	H	1.189847	0.491606	0.189934
H77	H	1.051874	0.314310	-0.105318
C78	C	1.305060	0.239041	0.659731
C79	C	1.181672	0.224780	0.622464
C80	C	1.096012	0.280678	0.699067
H81	H	1.318494	0.294652	0.634673
H82	H	1.317207	0.231010	0.762044
H83	H	1.169530	0.232818	0.520174
H84	H	1.168198	0.169180	0.647527
H85	H	1.108159	0.272647	0.801380
H86	H	1.109457	0.336286	0.674002
H87	H	1.012284	0.271005	0.673802
H88	H	1.758409	0.021908	0.375628
C89	C	1.628132	-0.078876	0.640183
C90	C	1.726229	-0.117326	0.726434
C91	C	1.690008	-0.191496	0.785121
H92	H	1.610296	-0.115299	0.562860
H93	H	1.554859	-0.066677	0.698836
H94	H	1.799479	-0.129527	0.667784
H95	H	1.744078	-0.080926	0.803780
H96	H	1.616736	-0.179298	0.843774
H97	H	1.672172	-0.227913	0.707789
H98	H	1.756556	-0.217590	0.843660
C99	C	1.242367	-0.448761	-0.000412
C100	C	1.173915	-0.422094	-0.125751
C101	C	1.058303	-0.456158	-0.126078
H102	H	1.195584	-0.430769	0.084440
H103	H	1.257163	-0.507955	-0.000491
H104	H	1.159115	-0.362912	-0.125659
H105	H	1.220659	-0.440084	-0.210624
H106	H	1.073099	-0.515353	-0.126157
H107	H	1.011532	-0.438164	-0.041220
H108	H	1.011850	-0.438076	-0.211125
C109	C	0.824418	0.319298	0.140227
C110	C	0.874496	0.272462	0.259751
C111	C	0.818177	0.304778	0.389109
H112	H	0.735897	0.316501	0.135598
H113	H	0.840788	0.375790	0.151540
H114	H	0.858117	0.215985	0.248441
H115	H	0.963012	0.275256	0.264428
H116	H	0.834547	0.361269	0.400422
H117	H	0.729657	0.301978	0.384465
H118	H	0.852155	0.273009	0.470223
H119	H	0.843427	0.317108	-0.102126
