data_functionalizedCrystal
_audit_creation_method	'MofGen! by Chris Wilmer'
_symmetry_space_group_name_H-M	'P1'
_symmetry_Int_Tables_number	1
_symmetry_cell_setting	triclinic
loop_
_symmetry_equiv_pos_as_xyz
  x,y,z
_cell_length_a	6.817900
_cell_length_b	11.353959
_cell_length_c	10.773894
_cell_angle_alpha	107.082425
_cell_angle_beta	96.645922
_cell_angle_gamma	107.526623
loop_
_atom_site_label
_atom_site_type_symbol
_atom_site_fract_x
_atom_site_fract_y
_atom_site_fract_z
V1	V	-3.980486	-0.175628	-0.427091
O2	O	-3.935538	0.013371	-0.378636
O3	O	-3.964386	-0.352984	-0.462954
O4	O	-3.897273	-0.170763	-0.595667
O5	O	-4.003116	-0.170112	-0.245004
V6	V	-4.464439	-0.153278	-0.400601
O7	O	-4.240800	-0.224657	-0.485200
O8	O	-4.654322	-0.104249	-0.342492
O9	O	-4.257332	0.024078	-0.364739
O10	O	-4.626784	-0.342277	-0.449056
O11	O	-4.559206	-0.158794	-0.582688
O12	O	-4.324446	-0.158143	-0.232026
C13	C	-3.818372	-0.396287	-0.466224
C14	C	-3.886263	-0.541264	-0.496669
C15	C	-3.897067	-0.589539	-0.398124
C16	C	-3.967236	-0.739380	-0.429589
C17	C	-3.732760	-0.163845	-0.635510
C18	C	-3.746222	-0.161040	-0.773576
C19	C	-3.925181	-0.165901	-0.842494
C20	C	-3.939098	-0.163002	-0.985193
C21	C	-4.066691	0.067374	-0.361467
C22	C	-3.978036	0.212350	-0.331030
C23	C	-4.152302	-0.165066	-0.192177
C24	C	-4.118079	-0.167863	-0.054108
H25	H	-4.068088	-0.172198	-0.795850
H26	H	-4.009940	-0.808977	-0.537258
C27	C	-3.920411	-0.693660	-0.185568
C28	C	-4.044392	-0.601532	-0.140870
C29	C	-3.986792	-0.507549	0.004590
C30	C	-3.805212	-0.505694	0.105353
C31	C	-3.681220	-0.597825	0.060657
C32	C	-3.738820	-0.691808	-0.084803
H33	H	-4.178818	-0.602902	-0.215462
H34	H	-4.078580	-0.439348	0.037677
H35	H	-3.762573	-0.436123	0.213032
H36	H	-3.546794	-0.596455	0.135249
H37	H	-3.647032	-0.760010	-0.117890
C38	C	-3.943941	-0.635276	-0.642119
C39	C	-3.820007	-0.727429	-0.686833
C40	C	-3.877684	-0.821439	-0.832286
C41	C	-4.059295	-0.823295	-0.933026
C42	C	-4.183241	-0.731138	-0.888315
C43	C	-4.125564	-0.637129	-0.742861
H44	H	-3.685557	-0.726059	-0.612257
H45	H	-3.785930	-0.889659	-0.865384
H46	H	-4.101991	-0.892886	-1.040700
H47	H	-4.317690	-0.732509	-0.962890
H48	H	-4.217317	-0.568908	-0.709763
H49	H	-3.854380	-0.519939	-0.290463
H50	H	-3.796170	-0.156687	-1.031825
H51	H	-4.261007	-0.174175	-1.007476
H52	H	-3.603307	-0.154725	-0.820214
