data_functionalizedCrystal
_audit_creation_method	'MofGen! by Chris Wilmer'
_symmetry_space_group_name_H-M	'P1'
_symmetry_Int_Tables_number	1
_symmetry_cell_setting	triclinic
loop_
_symmetry_equiv_pos_as_xyz
  x,y,z
_cell_length_a	12.594517
_cell_length_b	12.594516
_cell_length_c	12.594509
_cell_angle_alpha	90.026199
_cell_angle_beta	90.021327
_cell_angle_gamma	90.015853
loop_
_atom_site_label
_atom_site_type_symbol
_atom_site_fract_x
_atom_site_fract_y
_atom_site_fract_z
Zn1	Zn	1.627267	-0.423716	0.601875
Zn2	Zn	1.627158	-0.601726	0.423903
Zn3	Zn	1.449271	-0.423761	0.423904
Zn4	Zn	1.449253	-0.601652	0.601833
O5	O	1.538237	-0.512714	0.512879
O6	O	1.776198	-0.447341	0.578284
O7	O	1.603522	-0.578169	0.274957
O8	O	1.472936	-0.274809	0.447530
O9	O	1.776118	-0.578124	0.447528
O10	O	1.603709	-0.274776	0.578285
O11	O	1.472830	-0.447419	0.274958
O12	O	1.300323	-0.447347	0.447489
O13	O	1.472905	-0.577998	0.750784
O14	O	1.300310	-0.578042	0.578213
O15	O	1.603691	-0.447269	0.750815
O16	O	1.603505	-0.750662	0.447488
O17	O	1.472799	-0.750608	0.578212
C18	C	1.261696	-0.512692	0.512847
C19	C	1.143391	-0.512709	0.512859
C20	C	1.074114	-0.441526	0.441894
C21	C	1.003303	-0.538615	0.415718
C22	C	1.003403	-0.415668	0.539054
C23	C	1.074138	-0.609849	0.486632
C24	C	1.074244	-0.486836	0.610013
C25	C	1.003465	-0.583991	0.583874
C26	C	1.538167	-0.789255	0.512868
C27	C	1.538235	-0.907560	0.512899
C28	C	1.467137	-0.976822	0.583950
C29	C	1.441204	-1.047688	0.486827
C30	C	1.564265	-1.047494	0.610039
C31	C	1.512250	-0.976867	0.415725
C32	C	1.635357	-0.976667	0.539002
C33	C	1.609460	-1.047500	0.441812
C34	C	1.815858	-0.512736	0.512911
C35	C	1.934163	-0.512745	0.512924
C36	C	1.538308	-0.512620	0.790500
C37	C	1.538339	-0.512581	0.908805
C38	C	1.538336	-0.235093	0.512912
C39	C	1.538378	-0.116787	0.512927
C40	C	1.538227	-0.512730	0.236338
C41	C	1.538403	-0.512470	0.118033
C42	C	1.467227	-0.583644	0.978042
C43	C	1.564347	-0.609650	1.048833
C44	C	1.441294	-0.486510	1.048813
C45	C	1.635510	-0.538638	0.978038
C46	C	1.512391	-0.415453	0.978012
C47	C	1.609579	-0.441422	1.048772
H48	H	0.972144	-0.560522	0.333584
C49	C	1.556540	-0.971680	0.230386
C50	C	1.482475	-0.935168	0.304808
H51	H	1.538157	-0.945928	0.161916
H52	H	1.556432	-1.047093	0.229719
H53	H	1.625260	-0.946764	0.249043
H54	H	1.413756	-0.960090	0.286155
H55	H	1.482572	-0.859739	0.305472
H56	H	1.359198	-0.464506	1.079902
H57	H	1.717406	-0.945451	0.561104
C58	C	1.336787	-0.715599	1.021844
C59	C	1.386108	-0.664891	0.936107
H60	H	1.286717	-0.765762	0.995952
H61	H	1.301391	-0.664353	1.064368
H62	H	1.388807	-0.751089	1.063349
H63	H	1.334089	-0.629395	0.894606
H64	H	1.421505	-0.716145	0.893565
C65	C	1.594606	-1.200545	0.719516
C66	C	1.593913	-1.089377	0.720921
H67	H	1.612897	-1.226396	0.787973
H68	H	1.645238	-1.224735	0.669144
H69	H	1.526145	-1.225894	0.700493
H70	H	1.662377	-1.064027	0.739936
H71	H	1.543280	-1.065176	0.771309
H72	H	1.105429	-0.464899	0.692122
C73	C	1.080183	-0.387720	0.259130
C74	C	1.116002	-0.360343	0.360786
H75	H	1.106050	-0.337606	0.209058
H76	H	1.004774	-0.387622	0.258155
H77	H	1.105451	-0.456494	0.241230
H78	H	1.090727	-0.291571	0.378690
H79	H	1.191427	-0.360430	0.361765
C80	C	1.690732	-1.200317	0.361907
C81	C	1.690708	-1.089147	0.360628
H82	H	1.740892	-1.226028	0.311789
H83	H	1.622005	-1.225699	0.343960
H84	H	1.709335	-1.224617	0.430839
H85	H	1.672097	-1.064846	0.291698
H86	H	1.759450	-1.063755	0.378568
C87	C	1.047770	-0.715954	0.714078
C88	C	0.961841	-0.665366	0.664924
H89	H	1.022069	-0.766198	0.764106
H90	H	1.090257	-0.664656	0.749501
H91	H	1.089249	-0.751333	0.661962
H92	H	0.920366	-0.629980	0.717039
H93	H	0.919336	-0.716673	0.629501
H94	H	1.586329	-0.691742	1.079941
C95	C	1.331932	-1.200974	0.456422
C96	C	1.330414	-1.089808	0.457026
H97	H	1.263535	-1.226972	0.438024
H98	H	1.350856	-1.226186	0.524927
H99	H	1.382425	-1.225154	0.405892
H100	H	1.279927	-1.065628	0.507563
H101	H	1.311477	-1.064586	0.388512
H102	H	0.972276	-0.333597	0.561146
H103	H	1.105080	-0.691955	0.464413
H104	H	1.717631	-0.560736	0.947080
H105	H	1.406905	-0.945788	0.643949
H106	H	1.669813	-0.381279	1.079632
H107	H	1.490382	-0.333385	0.946881
