data_functionalizedCrystal
_audit_creation_method	'MofGen! by Chris Wilmer'
_symmetry_space_group_name_H-M	'P1'
_symmetry_Int_Tables_number	1
_symmetry_cell_setting	triclinic
loop_
_symmetry_equiv_pos_as_xyz
  x,y,z
_cell_length_a	35.277628
_cell_length_b	35.288095
_cell_length_c	35.277682
_cell_angle_alpha	59.997929
_cell_angle_beta	89.998958
_cell_angle_gamma	60.000166
loop_
_atom_site_label
_atom_site_type_symbol
_atom_site_fract_x
_atom_site_fract_y
_atom_site_fract_z
O1	O	-0.323087	-0.271234	0.011271
O2	O	-0.267964	-0.193634	-0.011228
O3	O	-0.267962	-0.271233	0.066395
O4	O	-0.323089	-0.193635	-0.066351
O5	O	-0.204915	-0.334261	0.066394
O6	O	-0.204918	-0.256661	-0.011228
O7	O	-0.260040	-0.334261	0.011271
Zn8	Zn	-0.222469	-0.305468	0.000022
Zn9	Zn	-0.305535	-0.222427	0.000022
O10	O	-0.260043	-0.256662	-0.066351
C11	C	-0.163481	-0.071298	-0.023519
C12	C	-0.186872	-0.024531	-0.020298
C13	C	-0.117860	-0.093995	-0.023838
C14	C	-0.163483	-0.139918	-0.023524
C15	C	-0.186875	-0.166518	-0.020308
C16	C	-0.117862	-0.162510	-0.023843
C17	C	-0.094838	-0.139921	-0.023519
C18	C	-0.044836	-0.166525	-0.020298
C19	C	-0.186401	-0.093991	-0.023843
C20	C	-0.004439	-0.188019	-0.017694
C21	C	-0.205769	0.013252	-0.017695
C22	C	-0.205774	-0.188010	-0.017709
C23	C	0.046241	-0.214983	-0.014429
C24	C	-0.229477	0.060653	-0.014430
C25	C	-0.229483	-0.214971	-0.014450
C26	C	-0.500364	-0.466062	0.034181
C27	C	-0.477341	-0.511990	0.034503
C28	C	-0.431722	-0.466060	0.034178
C29	C	-0.408804	-0.511988	0.034500
C30	C	-0.431721	-0.534685	0.034181
C31	C	-0.477342	-0.443470	0.034500
C32	C	-0.665895	-0.342485	0.021756
C33	C	-0.712772	-0.317221	0.018243
C34	C	-0.736287	-0.338907	0.016481
C35	C	-0.787116	-0.311512	0.012664
C36	C	-0.712921	-0.385861	0.018236
C37	C	-0.666047	-0.411125	0.021755
C38	C	-0.642533	-0.389434	0.023515
C39	C	-0.389805	-0.687746	0.021758
C40	C	-0.368199	-0.731097	0.018245
C41	C	-0.322995	-0.752841	0.016478
C42	C	-0.299567	-0.799839	0.012662
C43	C	-0.299393	-0.731235	0.018230
C44	C	-0.320995	-0.687892	0.021751
C45	C	-0.366205	-0.666148	0.023512
C46	C	-0.389808	-0.342477	0.021744
C47	C	-0.368205	-0.317208	0.018222
C48	C	-0.322998	-0.338892	0.016457
C49	C	-0.299573	-0.311495	0.012637
C50	C	-0.299398	-0.385842	0.018210
C51	C	-0.321003	-0.411107	0.021730
C52	C	-0.366208	-0.389423	0.023501
C53	C	-0.591706	-0.416830	0.027326
C54	C	-0.551191	-0.438667	0.030366
C55	C	-0.408299	-0.438663	0.030360
C56	C	-0.389629	-0.416824	0.027317
C57	C	-0.408298	-0.581682	0.030365
C58	C	-0.389627	-0.619146	0.027325
C59	C	-0.432024	-0.061845	-0.438511
C60	C	-0.477645	-0.015917	-0.461431
C61	C	-0.432025	-0.061844	-0.369869
C62	C	-0.477645	-0.015916	-0.392892
C63	C	-0.500668	0.006779	-0.438513
C64	C	-0.409106	-0.084435	-0.392891
C65	C	-0.320834	-0.185425	-0.480424
C66	C	-0.299076	-0.210690	-0.502029
C67	C	-0.322531	-0.189005	-0.547237
C68	C	-0.298945	-0.216401	-0.570661
C69	C	-0.367745	-0.142051	-0.570839
C70	C	-0.389497	-0.116787	-0.549237
C71	C	-0.366040	-0.138476	-0.504027
C72	C	-0.666200	0.159838	-0.549704
C73	C	-0.713077	0.203188	-0.571462
C74	C	-0.736595	0.224934	-0.548009
C75	C	-0.787423	0.271931	-0.571594
C76	C	-0.713230	0.203329	-0.502796
C77	C	-0.666353	0.159987	-0.481041
C78	C	-0.642841	0.138241	-0.504500
C79	C	-0.320836	-0.185423	-0.204335
C80	C	-0.299080	-0.210691	-0.157455
C81	C	-0.322536	-0.189006	-0.133940
C82	C	-0.298950	-0.216402	-0.083110
C83	C	-0.367748	-0.142056	-0.157305
C84	C	-0.389502	-0.116792	-0.204182
C85	C	-0.366040	-0.138478	-0.227695
C86	C	-0.389632	-0.111079	-0.480604
C87	C	-0.408436	-0.089241	-0.461934
C88	C	-0.408437	-0.089240	-0.319041
C89	C	-0.389634	-0.111078	-0.278525
C90	C	-0.551496	0.053776	-0.462102
C91	C	-0.592011	0.091239	-0.480906
O92	O	0.196122	-0.334274	0.011291
O93	O	0.063378	-0.256674	-0.011208
O94	O	0.140994	-0.334276	0.066414
O95	O	0.118506	-0.256671	-0.066331
O96	O	0.140996	-0.271251	0.066419
O97	O	0.063380	-0.193649	-0.011203
O98	O	0.196124	-0.271249	0.011296
Zn99	Zn	0.129752	-0.222442	0.000047
Zn100	Zn	0.129750	-0.305480	0.000041
O101	O	0.118508	-0.193647	-0.066327
O102	O	-0.260036	0.184774	0.011294
O103	O	-0.204910	0.074561	-0.011204
O104	O	-0.204913	0.074554	0.066418
O105	O	-0.260033	0.184781	-0.066328
O106	O	-0.267961	0.074557	0.066413
O107	O	-0.267958	0.074564	-0.011209
O108	O	-0.323083	0.184777	0.011289
Zn109	Zn	-0.305531	0.129671	0.000039
Zn110	Zn	-0.222463	0.129667	0.000046
O111	O	-0.323081	0.184784	-0.066333
O112	O	-0.936929	0.397535	-0.602582
O113	O	-0.804185	0.287317	-0.547454
O114	O	-0.881802	0.287315	-0.547452
O115	O	-0.859312	0.397537	-0.602584
O116	O	-0.881801	0.287314	-0.610498
O117	O	-0.804183	0.287316	-0.610500
O118	O	-0.936927	0.397533	-0.665628
Zn119	Zn	-0.870555	0.342425	-0.648073
Zn120	Zn	-0.870557	0.342426	-0.565008
O121	O	-0.859310	0.397536	-0.665629
O122	O	-0.267961	-0.271234	-0.665316
O123	O	-0.323086	-0.193638	-0.610192
O124	O	-0.323085	-0.271236	-0.610189
O125	O	-0.267962	-0.193636	-0.665319
O126	O	-0.260038	-0.334264	-0.547142
O127	O	-0.260039	-0.256666	-0.547145
O128	O	-0.204914	-0.334262	-0.602269
Zn129	Zn	-0.222466	-0.305471	-0.564697
Zn130	Zn	-0.305534	-0.222429	-0.647764
O131	O	-0.204915	-0.256664	-0.602272
C132	C	-0.094840	-0.456607	0.293255
C133	C	-0.044837	-0.503376	0.316647
C134	C	-0.117862	-0.433912	0.316174
C135	C	-0.163483	-0.387984	0.224612
C136	C	-0.186875	-0.361381	0.174609
C137	C	-0.186401	-0.365393	0.247634
C138	C	-0.163483	-0.387984	0.293255
C139	C	-0.186874	-0.361382	0.316646
C140	C	-0.117862	-0.433912	0.247635
C141	C	-0.205772	-0.339889	0.335543
C142	C	-0.004440	-0.541160	0.335545
C143	C	-0.205773	-0.339888	0.134212
C144	C	-0.229480	-0.312925	0.359250
C145	C	0.046239	-0.588562	0.359254
C146	C	-0.229481	-0.312924	0.083532
C147	C	0.153295	-0.388013	0.293279
C148	C	0.150076	-0.361413	0.316673
C149	C	0.153614	-0.433940	0.316196
C150	C	0.153297	-0.388008	0.224634
C151	C	0.150079	-0.361403	0.174632
C152	C	0.153616	-0.433935	0.247655
C153	C	0.153293	-0.456633	0.293275
C154	C	0.150072	-0.503401	0.316665
C155	C	0.153617	-0.365420	0.247659
C156	C	0.147469	-0.541185	0.335561
C157	C	0.147474	-0.339922	0.335572
C158	C	0.147479	-0.339908	0.134234
C159	C	0.144204	-0.588587	0.359267
C160	C	0.144211	-0.312962	0.359282
C161	C	0.144218	-0.312942	0.083555
C162	C	-0.163482	-0.139963	0.293267
C163	C	-0.186875	-0.166567	0.316654
C164	C	-0.117861	-0.162559	0.316187
C165	C	-0.163482	-0.071333	0.224628
C166	C	-0.186873	-0.024557	0.174627
C167	C	-0.117860	-0.094033	0.247653
C168	C	-0.094838	-0.139967	0.293272
C169	C	-0.044835	-0.166574	0.316665
C170	C	-0.186401	-0.094030	0.247648
C171	C	-0.004438	-0.188070	0.335563
C172	C	-0.205773	-0.188061	0.335549
C173	C	-0.205771	0.013233	0.134231
C174	C	0.046242	-0.215038	0.359273
C175	C	-0.229482	-0.215026	0.359253
C176	C	-0.229479	0.060643	0.083553
C177	C	0.095627	0.006487	-0.438489
C178	C	0.095306	-0.016206	-0.461409
C179	C	0.095623	-0.062137	-0.369847
C180	C	0.095303	-0.084726	-0.392871
C181	C	0.095625	-0.062133	-0.438492
C182	C	0.095305	-0.016210	-0.392868
C183	C	0.108059	0.159543	-0.480399
C184	C	0.111575	0.202893	-0.502003
C185	C	0.113340	0.224640	-0.547210
C186	C	0.117161	0.271637	-0.570634
C187	C	0.111587	0.203038	-0.570814
C188	C	0.108065	0.159695	-0.549212
C189	C	0.106302	0.137948	-0.504002
C190	C	0.108054	-0.116452	-0.549685
C191	C	0.111568	-0.141562	-0.571444
C192	C	0.113332	-0.188519	-0.547992
C193	C	0.117148	-0.215753	-0.571578
C194	C	0.111577	-0.210363	-0.502779
C195	C	0.108055	-0.185249	-0.481023
C196	C	0.106297	-0.138292	-0.504481
C197	C	0.108046	-0.116473	-0.204312
C198	C	0.111564	-0.141591	-0.157432
C199	C	0.113326	-0.188548	-0.133918
C200	C	0.117142	-0.215786	-0.083088
C201	C	0.111574	-0.210388	-0.157283
C202	C	0.108058	-0.185270	-0.204161
C203	C	0.106290	-0.138308	-0.227673
C204	C	0.102487	0.090947	-0.480580
C205	C	0.099445	0.053484	-0.461911
C206	C	0.099438	-0.089371	-0.319019
C207	C	0.102477	-0.111078	-0.278503
C208	C	0.099442	-0.089362	-0.462081
C209	C	0.102482	-0.111066	-0.480886
O210	O	0.118477	-0.256700	0.452885
O211	O	0.140984	-0.334299	0.397762
O212	O	0.063360	-0.256699	0.397752
O213	O	0.196101	-0.334300	0.452895
O214	O	0.063367	-0.193672	0.334708
O215	O	0.140992	-0.271271	0.334718
O216	O	0.118484	-0.193673	0.389842
Zn217	Zn	0.129739	-0.222465	0.352270
Zn218	Zn	0.129729	-0.305506	0.435333
O219	O	0.196108	-0.271272	0.389852
C220	C	-0.500364	0.533998	-0.438484
C221	C	-0.477341	0.556591	-0.461399
C222	C	-0.431721	0.465364	-0.369840
C223	C	-0.408802	0.488061	-0.392859
C224	C	-0.431720	0.533995	-0.438478
C225	C	-0.477342	0.488064	-0.392865
C226	C	-0.665898	0.588334	-0.480407
C227	C	-0.712776	0.613450	-0.502014
C228	C	-0.736291	0.660414	-0.547220
C229	C	-0.787122	0.687654	-0.570647
C230	C	-0.712926	0.682257	-0.570819
C231	C	-0.666050	0.657138	-0.549214
C232	C	-0.642536	0.610174	-0.504006
C233	C	-0.389802	0.657585	-0.549654
C234	C	-0.368196	0.682850	-0.571408
C235	C	-0.322990	0.661164	-0.547952
C236	C	-0.299561	0.688558	-0.571532
C237	C	-0.299388	0.614205	-0.502740
C238	C	-0.320990	0.588935	-0.480990
C239	C	-0.366202	0.610633	-0.504452
C240	C	-0.389804	0.312282	-0.204314
C241	C	-0.368201	0.268929	-0.157436
C242	C	-0.322993	0.247179	-0.133918
C243	C	-0.299567	0.200174	-0.083089
C244	C	-0.299392	0.268786	-0.157278
C245	C	-0.320998	0.312139	-0.204154
C246	C	-0.366204	0.333881	-0.227670
C247	C	-0.591708	0.582942	-0.480581
C248	C	-0.551193	0.561234	-0.461909
C249	C	-0.408297	0.418359	-0.319013
C250	C	-0.389626	0.380890	-0.278499
C251	C	-0.408296	0.561393	-0.462062
C252	C	-0.389624	0.583232	-0.480862
H253	H	-0.223885	-0.074993	-0.024363
C254	C	-0.502308	-0.393548	0.035201
C255	C	-0.552596	-0.368582	0.035549
C256	C	-0.577559	-0.318663	0.036252
C257	C	-0.552234	-0.293710	0.036608
C258	C	-0.501944	-0.318676	0.036260
C259	C	-0.476981	-0.368594	0.035557
H260	H	-0.571345	-0.387054	0.035286
H261	H	-0.614787	-0.300182	0.036510
H262	H	-0.570713	-0.256757	0.037129
H263	H	-0.483194	-0.300204	0.036523
H264	H	-0.439752	-0.387075	0.035299
H265	H	0.154122	-0.452930	0.353678
H266	H	-0.099380	-0.199466	-0.024359
H267	H	-0.387425	-0.278978	0.016792
C268	C	-0.640033	0.536672	-0.430683
C269	C	-0.588471	0.509041	-0.406915
C270	C	-0.562604	0.457379	-0.357191
C271	C	-0.588300	0.433348	-0.331236
C272	C	-0.639866	0.460979	-0.355004
C273	C	-0.665732	0.512641	-0.404728
H274	H	-0.569446	0.526829	-0.426128
H275	H	-0.524432	0.436924	-0.339597
H276	H	-0.569152	0.395104	-0.294428
H277	H	-0.658890	0.443190	-0.335791
H278	H	-0.703905	0.533095	-0.422322
C279	C	-0.640347	-0.462768	0.023683
C280	C	-0.618738	-0.464284	-0.013894
C281	C	-0.593040	-0.515927	-0.011968
C282	C	-0.588950	-0.566054	0.027536
C283	C	-0.610559	-0.564540	0.065116
C284	C	-0.636258	-0.512897	0.063190
H285	H	-0.621766	-0.427176	-0.043139
H286	H	-0.577043	-0.517048	-0.039787
H287	H	-0.569926	-0.604283	0.028962
H288	H	-0.607532	-0.601649	0.094362
H289	H	-0.652254	-0.511777	0.091009
H290	H	-0.371321	-0.530978	0.035012
C291	C	-0.092903	-0.459571	0.366815
C292	C	-0.075133	-0.517771	0.405002
C293	C	-0.050180	-0.543429	0.455642
C294	C	-0.042997	-0.510887	0.468095
C295	C	-0.060768	-0.452684	0.429907
C296	C	-0.085721	-0.427026	0.379267
H297	H	-0.080450	-0.541863	0.395784
H298	H	-0.037025	-0.586515	0.483911
H299	H	-0.024525	-0.529881	0.505582
H300	H	-0.055451	-0.428592	0.439125
H301	H	-0.098875	-0.383940	0.350998
C302	C	-0.295036	-0.664127	0.023677
C303	C	-0.315129	-0.604957	-0.013900
C304	C	-0.289171	-0.581189	-0.011976
C305	C	-0.243119	-0.616592	0.027525
C306	C	-0.223024	-0.675765	0.065106
C307	C	-0.248982	-0.699533	0.063181
H308	H	-0.349221	-0.578746	-0.043144
H309	H	-0.304047	-0.537385	-0.039796
H310	H	-0.223904	-0.598998	0.028950
H311	H	-0.188932	-0.701976	0.094350
H312	H	-0.234106	-0.743337	0.091001
C313	C	-0.249669	-0.409702	0.016271
C314	C	-0.240048	-0.376489	-0.026140
C315	C	-0.190321	-0.400349	-0.028079
C316	C	-0.150214	-0.457421	0.012393
C317	C	-0.159833	-0.490637	0.054807
C318	C	-0.209560	-0.466777	0.056746
H319	H	-0.269739	-0.334237	-0.056103
H320	H	-0.183201	-0.375759	-0.059477
H321	H	-0.113403	-0.475083	0.010957
H322	H	-0.130142	-0.532889	0.084769
H323	H	-0.216680	-0.491367	0.088144
H324	H	-0.386847	-0.124399	-0.138156
C325	C	-0.738473	-0.265573	0.016307
C326	C	-0.721373	-0.266011	0.056781
C327	C	-0.747075	-0.214361	0.054844
C328	C	-0.789875	-0.162273	0.012432
C329	C	-0.806976	-0.161832	-0.028044
C330	C	-0.781275	-0.213482	-0.026107
H331	H	-0.689688	-0.304572	0.088179
H332	H	-0.734415	-0.214687	0.084808
H333	H	-0.808901	-0.124038	0.010998
H334	H	-0.838662	-0.123272	-0.059442
H335	H	-0.793935	-0.213156	-0.056071
H336	H	-0.099379	-0.074998	-0.024355
C337	C	-0.394160	0.245161	-0.131740
C338	C	-0.410811	0.221794	-0.148849
C339	C	-0.436771	0.198025	-0.123154
C340	C	-0.446079	0.197623	-0.080350
C341	C	-0.429427	0.220991	-0.063239
C342	C	-0.403468	0.244761	-0.088934
H343	H	-0.403921	0.222091	-0.180536
H344	H	-0.449097	0.180726	-0.135820
H345	H	-0.465295	0.180028	-0.061329
H346	H	-0.436318	0.220695	-0.031551
H347	H	-0.391142	0.262059	-0.076267
H348	H	-0.099381	-0.199518	0.353671
H349	H	-0.732075	0.720493	-0.607626
H350	H	-0.495827	-0.530983	0.035020
C351	C	-0.738787	-0.409714	0.016299
C352	C	-0.760441	-0.427068	0.053871
C353	C	-0.786306	-0.450923	0.051933
C354	C	-0.790519	-0.457425	0.012423
C355	C	-0.768864	-0.440071	-0.025152
C356	C	-0.742999	-0.416216	-0.023215
H357	H	-0.757323	-0.422255	0.083121
H358	H	-0.802336	-0.463769	0.079749
H359	H	-0.809666	-0.475084	0.010988
H360	H	-0.771982	-0.444883	-0.054403
H361	H	-0.726969	-0.403369	-0.051030
C362	C	-0.439231	-0.065146	-0.229883
C363	C	-0.479264	-0.065590	-0.212781
C364	C	-0.528995	-0.013943	-0.238483
C365	C	-0.538692	0.038147	-0.281286
C366	C	-0.498658	0.038593	-0.298390
C367	C	-0.448927	-0.013053	-0.272689
H368	H	-0.472087	-0.104152	-0.181094
H369	H	-0.558631	-0.014274	-0.225821
H370	H	-0.575505	0.076379	-0.300311
H371	H	-0.505835	0.077156	-0.330077
H372	H	-0.419292	-0.012723	-0.285350
H373	H	-0.301770	0.550701	-0.444180
C374	C	-0.393545	-0.118199	-0.620565
C375	C	-0.410160	-0.061128	-0.660677
C376	C	-0.435963	-0.037273	-0.710404
C377	C	-0.445150	-0.070489	-0.720019
C378	C	-0.428534	-0.127563	-0.679906
C379	C	-0.402731	-0.151417	-0.630178
H380	H	-0.403360	-0.036537	-0.653561
H381	H	-0.448263	0.004976	-0.740099
H382	H	-0.464251	-0.052830	-0.756830
H383	H	-0.435335	-0.152154	-0.687022
H384	H	-0.390431	-0.193667	-0.600484
H385	H	-0.426615	-0.670047	0.023195
C386	C	-0.394161	-0.754856	0.016311
C387	C	-0.374076	-0.814025	0.053884
C388	C	-0.400039	-0.837784	0.051948
C389	C	-0.446088	-0.802373	0.012440
C390	C	-0.466176	-0.743201	-0.025135
C391	C	-0.440212	-0.719442	-0.023200
H392	H	-0.339986	-0.840241	0.083132
H393	H	-0.385168	-0.881587	0.079764
H394	H	-0.465307	-0.819961	0.011008
H395	H	-0.500266	-0.716985	-0.054383
H396	H	-0.455083	-0.675639	-0.051016
C397	C	-0.092885	-0.068378	0.222686
C398	C	-0.042597	-0.093349	0.248011
C399	C	-0.017620	-0.067699	0.223045
C400	C	-0.042932	-0.017078	0.172756
C401	C	-0.093223	0.007896	0.147429
C402	C	-0.118199	-0.017754	0.172394
H403	H	-0.023857	-0.130825	0.285240
H404	H	0.019609	-0.086187	0.241795
H405	H	-0.024442	0.001910	0.154275
H406	H	-0.111962	0.045371	0.110199
H407	H	-0.155428	0.000733	0.153645
C408	C	-0.738477	0.589427	-0.476055
C409	C	-0.721380	0.532312	-0.459403
C410	C	-0.747082	0.508289	-0.433443
C411	C	-0.789880	0.541382	-0.424135
C412	C	-0.806979	0.598501	-0.440788
C413	C	-0.781278	0.622523	-0.466748
H414	H	-0.689696	0.507812	-0.466292
H415	H	-0.734424	0.466006	-0.421115
H416	H	-0.808906	0.523599	-0.404918
H417	H	-0.838663	0.623001	-0.433899
H418	H	-0.793936	0.664807	-0.479076
C419	C	-0.237040	-0.315469	0.222667
C420	C	-0.262360	-0.290502	0.172378
C421	C	-0.312996	-0.240580	0.147413
C422	C	-0.338313	-0.215627	0.172737
C423	C	-0.312992	-0.240595	0.223029
C424	C	-0.262356	-0.290516	0.247994
H425	H	-0.243619	-0.308973	0.153629
H426	H	-0.331740	-0.222098	0.110183
H427	H	-0.375797	-0.178673	0.154256
H428	H	-0.331733	-0.222123	0.241778
H429	H	-0.243613	-0.308999	0.285223
C430	C	-0.640350	0.681164	-0.575170
C431	C	-0.666212	0.732821	-0.624892
C432	C	-0.640512	0.756849	-0.650848
C433	C	-0.588950	0.729220	-0.627081
C434	C	-0.563085	0.677560	-0.577355
C435	C	-0.588784	0.653532	-0.551400
H436	H	-0.704384	0.753277	-0.642488
H437	H	-0.659660	0.795092	-0.687658
H438	H	-0.569925	0.747007	-0.646295
H439	H	-0.524912	0.657104	-0.559759
H440	H	-0.569637	0.615289	-0.514590
C441	C	-0.394158	0.734505	-0.621134
C442	C	-0.440205	0.784624	-0.631756
C443	C	-0.466168	0.836281	-0.681482
C444	C	-0.446085	0.837819	-0.720586
C445	C	-0.400036	0.787699	-0.709964
C446	C	-0.374073	0.736042	-0.660238
H447	H	-0.455074	0.783487	-0.602809
H448	H	-0.500257	0.873384	-0.689345
H449	H	-0.465305	0.876059	-0.757396
H450	H	-0.385167	0.788836	-0.738912
H451	H	-0.339984	0.698939	-0.652376
C452	C	0.106137	0.135933	-0.575173
C453	C	0.102268	0.088254	-0.551409
C454	C	0.100342	0.064490	-0.577370
C455	C	0.102285	0.088406	-0.627094
C456	C	0.106155	0.136088	-0.650861
C457	C	0.108081	0.159852	-0.624900
H458	H	0.100829	0.070547	-0.514598
H459	H	0.097477	0.029192	-0.559776
H460	H	0.100859	0.070815	-0.646312
H461	H	0.107594	0.153795	-0.687672
H462	H	0.110946	0.195150	-0.642494
C463	C	-0.249666	-0.755154	0.016291
C464	C	-0.240050	-0.755583	-0.026120
C465	C	-0.190323	-0.779501	-0.028061
C466	C	-0.150212	-0.802990	0.012410
C467	C	-0.159828	-0.802563	0.054825
C468	C	-0.209554	-0.778645	0.056766
H469	H	-0.269743	-0.738194	-0.056082
H470	H	-0.183205	-0.779817	-0.059460
H471	H	-0.113402	-0.820696	0.010974
H472	H	-0.130134	-0.819952	0.084787
H473	H	-0.216672	-0.778328	0.088164
C474	C	-0.502618	0.009743	-0.512067
C475	C	-0.477305	-0.015222	-0.537385
C476	C	-0.502279	0.010437	-0.588019
C477	C	-0.552566	0.061060	-0.613335
C478	C	-0.577882	0.086028	-0.588017
C479	C	-0.552908	0.060369	-0.537383
H480	H	-0.440077	-0.052699	-0.518645
H481	H	-0.483539	-0.008046	-0.606761
H482	H	-0.571053	0.080054	-0.650817
H483	H	-0.615109	0.123504	-0.606758
H484	H	-0.571648	0.078852	-0.518642
C485	C	-0.358459	-0.134341	-0.367927
C486	C	-0.333133	-0.159296	-0.393247
C487	C	-0.282484	-0.209191	-0.368288
C488	C	-0.257162	-0.234131	-0.318009
C489	C	-0.282488	-0.209176	-0.292686
C490	C	-0.333137	-0.159281	-0.317646
H491	H	-0.351878	-0.140834	-0.430469
H492	H	-0.263736	-0.227664	-0.387033
H493	H	-0.219668	-0.271066	-0.299533
H494	H	-0.263743	-0.227638	-0.255465
H495	H	-0.351885	-0.140808	-0.298900
C496	C	-0.249660	0.590344	-0.476937
C497	C	-0.210648	0.572997	-0.497152
C498	C	-0.160921	0.549138	-0.471348
C499	C	-0.150204	0.542625	-0.425328
C500	C	-0.189217	0.559972	-0.405110
C501	C	-0.238944	0.583832	-0.430915
H502	H	-0.218580	0.577817	-0.531221
H503	H	-0.132041	0.536296	-0.486314
H504	H	-0.113393	0.524963	-0.406226
H505	H	-0.181285	0.555152	-0.371042
H506	H	-0.267824	0.596673	-0.415948
H507	H	0.113009	-0.248624	-0.138135
H508	H	0.154138	-0.452930	0.229170
H509	H	-0.301784	-0.449335	0.023157
H510	H	-0.426617	-0.324814	0.023182
C511	C	0.154289	-0.315476	0.222679
C512	C	0.154611	-0.290496	0.247987
C513	C	0.155269	-0.240546	0.223003
C514	C	0.155605	-0.215575	0.172710
C515	C	0.155282	-0.240554	0.147399
C516	C	0.154624	-0.290505	0.172383
H517	H	0.154363	-0.308981	0.285220
H518	H	0.155508	-0.222054	0.241740
H519	H	0.156092	-0.178598	0.154215
H520	H	0.155530	-0.222069	0.110166
H521	H	0.154385	-0.308997	0.153646
C522	C	-0.092893	-0.459565	0.222661
C523	C	-0.042601	-0.510179	0.247973
C524	C	-0.017632	-0.535828	0.222997
C525	C	-0.042955	-0.510862	0.172710
C526	C	-0.093249	-0.460244	0.147395
C527	C	-0.118218	-0.434596	0.172370
H528	H	-0.023854	-0.528663	0.285201
H529	H	0.019599	-0.573298	0.241737
H530	H	-0.024471	-0.529848	0.154221
H531	H	-0.111997	-0.441760	0.110166
H532	H	-0.155449	-0.397125	0.153630
C533	C	-0.249348	-0.262334	-0.131754
C534	C	-0.210259	-0.263847	-0.110143
C535	C	-0.160525	-0.315487	-0.084442
C536	C	-0.149881	-0.365615	-0.080352
C537	C	-0.188972	-0.364104	-0.101963
C538	C	-0.238705	-0.312463	-0.127664
H539	H	-0.218137	-0.226737	-0.113171
H540	H	-0.131587	-0.316606	-0.068444
H541	H	-0.113065	-0.403843	-0.061327
H542	H	-0.181093	-0.401213	-0.098936
H543	H	-0.267643	-0.311345	-0.143662
H544	H	-0.646754	-0.324820	0.023190
H545	H	-0.301727	-0.203079	-0.223479
H546	H	-0.301729	-0.203089	-0.443614
C547	C	-0.295036	0.335903	-0.229851
C548	C	-0.245310	0.311980	-0.203986
C549	C	-0.219347	0.335744	-0.229682
C550	C	-0.243112	0.383431	-0.281243
C551	C	-0.292841	0.407357	-0.307111
C552	C	-0.318803	0.383593	-0.281415
H553	H	-0.227715	0.276677	-0.165814
H554	H	-0.182534	0.318033	-0.210532
H555	H	-0.223893	0.401023	-0.300264
H556	H	-0.310435	0.442660	-0.345282
H557	H	-0.355616	0.401305	-0.300564
H558	H	-0.496128	0.003076	-0.374407
C559	C	-0.237034	-0.068372	0.222669
C560	C	-0.262351	-0.093343	0.247975
C561	C	-0.312981	-0.067689	0.222994
C562	C	-0.338293	-0.017064	0.172707
C563	C	-0.312977	0.007910	0.147397
C564	C	-0.262347	-0.017744	0.172378
H565	H	-0.243613	-0.130821	0.285204
H566	H	-0.331722	-0.086176	0.241730
H567	H	-0.375772	0.001927	0.154214
H568	H	-0.331714	0.045388	0.110169
H569	H	-0.243606	0.000744	0.153643
C570	C	0.094605	-0.134652	-0.367905
C571	C	0.094261	-0.159623	-0.317615
C572	C	0.093564	-0.209548	-0.292650
C573	C	0.093212	-0.234501	-0.317975
C574	C	0.093556	-0.209529	-0.368268
C575	C	0.094252	-0.159605	-0.393233
H576	H	0.094522	-0.141152	-0.298865
H577	H	0.093310	-0.228033	-0.255420
H578	H	0.092696	-0.271458	-0.299495
H579	H	0.093294	-0.228001	-0.387018
H580	H	0.094507	-0.141119	-0.430463
C581	C	-0.249348	-0.262338	-0.476066
C582	C	-0.209312	-0.261899	-0.459407
C583	C	-0.159584	-0.313549	-0.433442
C584	C	-0.149891	-0.365638	-0.424137
C585	C	-0.189928	-0.366079	-0.440796
C586	C	-0.239656	-0.314429	-0.466761
H587	H	-0.216486	-0.223339	-0.466295
H588	H	-0.129946	-0.313223	-0.421110
H589	H	-0.113079	-0.403872	-0.404917
H590	H	-0.182754	-0.404640	-0.433908
H591	H	-0.269294	-0.314755	-0.479093
H592	H	-0.426308	-0.078556	-0.568458
H593	H	0.094791	0.002793	-0.498893
C594	C	-0.249661	0.244863	-0.131413
C595	C	-0.210649	0.185658	-0.109769
C596	C	-0.160920	0.161736	-0.083907
C597	C	-0.150203	0.197020	-0.079687
C598	C	-0.189216	0.256228	-0.101332
C599	C	-0.238945	0.280150	-0.127195
H600	H	-0.218581	0.159536	-0.112892
H601	H	-0.132040	0.117906	-0.067884
H602	H	-0.113391	0.179311	-0.060542
H603	H	-0.181284	0.282350	-0.098209
H604	H	-0.267825	0.323980	-0.143217
H605	H	-0.647059	0.142138	-0.568809
H606	H	0.094825	0.002760	-0.374372
H607	H	-0.732097	0.220775	-0.608274
H608	H	-0.732378	0.221040	-0.483702
H609	H	0.113001	-0.123813	-0.138408
H610	H	0.106608	-0.078237	-0.223453
H611	H	0.106623	0.141841	-0.443588
H612	H	-0.647332	0.142401	-0.444230
H613	H	0.106619	-0.078217	-0.568789
C614	C	0.113511	0.226649	-0.476038
C615	C	0.153018	0.191235	-0.429988
C616	C	0.154955	0.214990	-0.404022
C617	C	0.117385	0.274158	-0.424107
C618	C	0.077876	0.309575	-0.470160
C619	C	0.075938	0.285821	-0.496125
H620	H	0.180831	0.147432	-0.415118
H621	H	0.184203	0.188772	-0.369931
H622	H	0.118819	0.291743	-0.404886
H623	H	0.050062	0.353379	-0.485030
H624	H	0.046690	0.312039	-0.530217
H625	H	0.113022	0.220750	-0.607622
C626	C	0.113505	-0.117540	-0.621173
C627	C	0.073032	-0.060420	-0.661210
C628	C	0.074971	-0.036398	-0.710938
C629	C	0.117382	-0.069496	-0.720630
C630	C	0.157858	-0.126619	-0.680591
C631	C	0.155919	-0.150641	-0.630863
H632	H	0.041634	-0.035916	-0.654037
H633	H	0.045008	0.005889	-0.740577
H634	H	0.118817	-0.051713	-0.757442
H635	H	0.189256	-0.151123	-0.687764
H636	H	0.185882	-0.192928	-0.601224
C637	C	0.113513	-0.262012	-0.476979
C638	C	0.153022	-0.312226	-0.430963
C639	C	0.154960	-0.363878	-0.405162
C640	C	0.117390	-0.365316	-0.425378
C641	C	0.077878	-0.315101	-0.471397
C642	C	0.075939	-0.263449	-0.497197
H643	H	0.180836	-0.311162	-0.415996
H644	H	0.184210	-0.401050	-0.371096
H645	H	0.118825	-0.403552	-0.406279
H646	H	0.050063	-0.316165	-0.486364
H647	H	0.046690	-0.226277	-0.531263
H648	H	0.106623	-0.203035	-0.444212
H649	H	0.106630	-0.203055	-0.223182
H650	H	-0.371318	0.469063	-0.374372
H651	H	-0.495826	0.593550	-0.498882
H652	H	-0.495832	0.469078	-0.374381
H653	H	-0.426614	0.329984	-0.223458
H654	H	-0.426614	0.675254	-0.568760
