data_functionalizedCrystal
_audit_creation_method	'MofGen! by Chris Wilmer'
_symmetry_space_group_name_H-M	'P1'
_symmetry_Int_Tables_number	1
_symmetry_cell_setting	triclinic
loop_
_symmetry_equiv_pos_as_xyz
  x,y,z
_cell_length_a	17.699077
_cell_length_b	27.732064
_cell_length_c	16.776229
_cell_angle_alpha	89.997427
_cell_angle_beta	89.993415
_cell_angle_gamma	82.965000
loop_
_atom_site_label
_atom_site_type_symbol
_atom_site_fract_x
_atom_site_fract_y
_atom_site_fract_z
O1	O	1.003548	0.061113	-0.066270
O2	O	1.503548	0.561113	0.433730
O3	O	0.783100	0.069068	-0.066273
O4	O	1.283100	0.569068	0.433727
O5	O	0.900164	-0.005281	-0.066275
O6	O	1.400164	0.494719	0.433725
O7	O	0.886484	0.135462	-0.066269
O8	O	1.386484	0.635462	0.433731
O9	O	0.900149	-0.005286	0.066302
O10	O	1.400149	0.494714	0.566302
O11	O	0.783084	0.069064	0.066303
O12	O	1.283084	0.569064	0.566303
O13	O	1.003533	0.061108	0.066306
O14	O	1.503533	0.561108	0.566306
Zn15	Zn	0.893306	0.065085	0.087354
Zn16	Zn	1.393306	0.565085	0.587354
Zn17	Zn	0.893326	0.065091	-0.087321
Zn18	Zn	1.393326	0.565091	0.412679
O19	O	0.886469	0.135458	0.066308
O20	O	1.386469	0.635458	0.566308
C21	C	0.754898	0.068782	0.000014
C22	C	1.254898	0.568782	0.500014
C23	C	0.670887	0.067928	0.000013
C24	C	1.170887	0.567928	0.500013
C25	C	0.631414	0.067523	0.072281
C26	C	1.131414	0.567523	0.572281
C27	C	0.552479	0.066713	0.072282
C28	C	1.052479	0.566713	0.572282
C29	C	0.513016	0.066311	0.000014
C30	C	1.013016	0.566311	0.500014
C31	C	0.552495	0.066715	-0.072260
C32	C	1.052495	0.566715	0.427740
C33	C	0.631429	0.067521	-0.072260
C34	C	1.131429	0.567521	0.427740
C35	C	0.234160	0.063462	-0.072262
C36	C	0.734160	0.563462	0.427738
C37	C	0.155219	0.062657	-0.072256
C38	C	0.655219	0.562657	0.427744
C39	C	0.155209	0.062654	0.072280
C40	C	0.655209	0.562654	0.572280
C41	C	0.234144	0.063460	0.072280
C42	C	0.734144	0.563460	0.572280
C43	C	0.273616	0.063861	0.000007
C44	C	0.773616	0.563861	0.500007
C45	C	0.359207	0.064738	0.000007
C46	C	0.859207	0.564738	0.500007
C47	C	0.427426	0.065438	0.000013
C48	C	0.927426	0.565438	0.500013
C49	C	0.899867	-0.023291	0.000011
C50	C	1.399867	0.476709	0.500011
C51	C	0.898997	-0.076949	0.000003
C52	C	1.398997	0.423051	0.500003
C53	C	0.823892	-0.454291	-0.000001
C54	C	1.323892	0.045709	0.499999
C55	C	0.827096	-0.252619	-0.000002
C56	C	1.327096	0.247381	0.499998
O57	O	0.768816	-0.221575	-0.000034
O58	O	1.268816	0.278425	0.499966
N59	N	0.896513	-0.233243	-0.000001
N60	N	1.396513	0.266757	0.499999
C61	C	0.965133	-0.264288	-0.000005
C62	C	1.465133	0.235712	0.499995
O63	O	1.024250	-0.243180	-0.000012
O64	O	1.524250	0.256820	0.499988
C65	C	0.961929	-0.465959	-0.000010
C66	C	1.461929	0.034041	0.499990
C67	C	0.892507	-0.485332	-0.000002
C68	C	1.392507	0.014668	0.499998
C69	C	0.754476	-0.473664	0.000006
C70	C	1.254476	0.026336	0.500006
C71	C	0.753676	-0.524079	0.000010
C72	C	1.253676	-0.024079	0.500010
C73	C	0.822291	-0.555121	0.000008
C74	C	1.322291	-0.055121	0.500008
C75	C	0.891707	-0.535747	0.000002
C76	C	1.391707	-0.035747	0.500002
C77	C	1.030549	-0.497003	-0.000020
C78	C	1.530549	0.002997	0.499980
C79	C	1.029741	-0.547423	-0.000023
C80	C	1.529741	-0.047423	0.499977
C81	C	0.960320	-0.566797	-0.000015
C82	C	1.460320	-0.066797	0.499985
C83	C	0.959522	-0.617203	0.000005
C84	C	1.459522	-0.117203	0.500005
N85	N	0.890105	-0.636579	0.000004
N86	N	1.390105	-0.136579	0.500004
C87	C	0.821490	-0.605538	0.000006
C88	C	1.321490	-0.105538	0.500006
C89	C	0.966811	-0.158407	-0.000001
C90	C	1.466811	0.341593	0.499999
C91	C	0.967612	-0.107990	0.000002
C92	C	1.467612	0.392010	0.500002
C93	C	0.829574	-0.096324	0.000003
C94	C	1.329574	0.403676	0.500003
C95	C	0.828774	-0.146743	0.000007
C96	C	1.328774	0.353257	0.500007
C97	C	0.897394	-0.177784	-0.000002
C98	C	1.397394	0.322216	0.499998
C99	C	0.819814	-0.711413	0.000016
C100	C	1.319814	-0.211413	0.500016
C101	C	0.819020	-0.761833	0.000024
C102	C	1.319020	-0.261833	0.500024
C103	C	0.957058	-0.773495	0.000018
C104	C	1.457058	-0.273495	0.500018
C105	C	0.957853	-0.723079	0.000014
C106	C	1.457853	-0.223079	0.500014
C107	C	0.889225	-0.692039	0.000011
C108	C	1.389225	-0.192039	0.500011
O109	O	1.017770	-0.648275	0.000029
O110	O	1.517770	-0.148275	0.500029
O111	O	0.762381	-0.626655	-0.000004
O112	O	1.262381	-0.126655	0.499996
C113	C	0.824692	-0.403876	-0.000005
C114	C	1.324692	0.096124	0.499995
C115	C	0.894108	-0.384502	-0.000012
C116	C	1.394108	0.115498	0.499988
C117	C	0.962723	-0.415543	-0.000013
C118	C	1.462723	0.084457	0.499987
C119	C	0.894909	-0.334084	-0.000009
C120	C	1.394909	0.165916	0.499991
C121	C	0.826293	-0.303043	-0.000007
C122	C	1.326293	0.196957	0.499993
C123	C	0.756876	-0.322419	-0.000008
C124	C	1.256876	0.177581	0.499992
C125	C	0.756076	-0.372834	-0.000004
C126	C	1.256076	0.127166	0.499996
C127	C	1.032140	-0.396167	-0.000013
C128	C	1.532140	0.103833	0.499987
C129	C	1.032935	-0.345752	-0.000016
C130	C	1.532935	0.154248	0.499984
C131	C	0.964319	-0.314710	-0.000014
C132	C	1.464319	0.185290	0.499986
C133	C	1.031735	0.061395	0.000017
C134	C	1.531735	0.561395	0.500017
C135	C	1.115746	0.062249	0.000013
C136	C	1.615746	0.562249	0.500013
C137	C	0.886765	0.153468	0.000020
C138	C	1.386765	0.653468	0.500020
C139	C	0.887636	0.207125	0.000022
C140	C	1.387636	0.707125	0.500022
N141	N	0.893298	0.065081	0.206565
N142	N	1.393298	0.565081	0.706565
N143	N	0.893341	0.065092	-0.206532
N144	N	1.393341	0.565092	0.293468
C145	C	0.945150	0.032172	0.248282
C146	C	1.445150	0.532172	0.748282
C147	C	0.945154	0.032172	0.331734
C148	C	1.445154	0.532172	0.831734
C149	C	0.893309	0.065083	0.373468
C150	C	1.393309	0.565083	0.873468
C151	C	0.841452	0.097993	0.331746
C152	C	1.341452	0.597993	0.831746
C153	C	0.841445	0.097991	0.248295
C154	C	1.341445	0.597991	0.748295
C155	C	0.841479	0.098002	0.668293
C156	C	1.341479	0.598002	1.168293
C157	C	0.841492	0.098003	0.751750
C158	C	1.341492	0.598003	1.251750
C159	C	0.945188	0.032184	0.751732
C160	C	1.445188	0.532184	1.251732
C161	C	0.945181	0.032181	0.668281
C162	C	1.445181	0.532181	1.168281
C163	C	0.893322	0.065090	0.626566
C164	C	1.393322	0.565090	1.126566
C165	C	0.893317	0.065089	0.536078
C166	C	1.393317	0.565089	1.036078
C167	C	0.893317	0.065086	0.463955
C168	C	1.393317	0.565086	0.963955
H169	H	0.520346	0.066375	0.131130
H170	H	1.020346	0.566375	0.631130
C171	C	0.674816	0.067965	0.151783
C172	C	1.174816	0.567965	0.651783
N173	N	0.707504	0.068295	0.211667
N174	N	1.207504	0.568295	0.711667
H175	H	0.799236	0.124788	0.365731
H176	H	1.299236	0.624788	0.865731
H177	H	0.266270	0.063790	0.131129
H178	H	0.766270	0.563790	0.631129
H179	H	1.088017	-0.421437	-0.000015
H180	H	1.588017	0.078563	0.499985
C181	C	0.111785	0.062207	0.151783
C182	C	0.611785	0.562207	0.651783
N183	N	0.079078	0.061872	0.211663
N184	N	0.579078	0.561872	0.711663
H185	H	1.089470	-0.329983	-0.000016
H186	H	1.589470	0.170017	0.499984
H187	H	1.014381	-0.707305	0.000020
H188	H	1.514381	-0.207305	0.500020
H189	H	0.123091	0.062330	-0.131109
H190	H	0.623091	0.562330	0.368891
H191	H	0.266288	0.063787	-0.131111
H192	H	0.766288	0.563787	0.368889
C193	C	0.674848	0.067968	-0.151761
C194	C	1.174848	0.567968	0.348239
N195	N	0.707550	0.068302	-0.211644
N196	N	1.207550	0.568302	0.288356
H197	H	0.987400	0.005384	0.634304
H198	H	1.487400	0.505384	1.134304
H199	H	0.699546	-0.388603	0.000003
H200	H	1.199546	0.111397	0.500003
C201	C	0.784530	0.134265	0.622418
C202	C	1.284530	0.634265	1.122418
N203	N	0.741668	0.161602	0.587861
N204	N	1.241668	0.661602	1.087861
H205	H	1.012923	-0.798777	0.000021
H206	H	1.512923	-0.298777	0.500021
H207	H	1.024142	-0.092221	0.000008
H208	H	1.524142	0.407779	0.500008
C209	C	0.784410	0.134196	0.202408
C210	C	1.284410	0.634196	0.702408
N211	N	0.741450	0.161468	0.167846
N212	N	1.241450	0.661468	0.667846
C213	C	1.106919	-0.475704	-0.000031
C214	C	1.606919	0.024296	0.499969
N215	N	1.164446	-0.459663	-0.000043
N216	N	1.664446	0.040337	0.499957
H217	H	0.520359	0.066384	-0.131102
H218	H	1.020359	0.566384	0.368898
H219	H	0.762487	-0.777604	0.000034
H220	H	1.262487	-0.277604	0.500034
H221	H	0.763931	-0.686146	0.000013
H222	H	1.263931	-0.186146	0.500013
C223	C	1.002177	-0.004042	0.377618
C224	C	1.502177	0.495958	0.877618
N225	N	1.045122	-0.031324	0.412178
N226	N	1.545122	0.468676	0.912178
C227	C	0.677306	-0.545383	0.000008
C228	C	1.177306	-0.045383	0.500008
N229	N	0.619780	-0.561425	0.000003
N230	N	1.119780	-0.061425	0.500003
H231	H	0.698597	-0.448395	0.000004
H232	H	1.198597	0.051605	0.500004
C233	C	1.002229	-0.004020	0.797626
C234	C	1.502229	0.495980	1.297626
N235	N	1.045191	-0.031288	0.832192
N236	N	1.545191	0.468712	1.332192
C237	C	0.752406	-0.168048	0.000007
C238	C	1.252406	0.331952	0.500007
N239	N	0.694882	-0.184093	0.000005
N240	N	1.194882	0.315907	0.500005
C241	C	1.002183	-0.004033	0.202382
C242	C	1.502183	0.495967	0.702382
N243	N	1.045140	-0.031306	0.167812
N244	N	1.545140	0.468694	0.667812
H245	H	0.773705	-0.071042	0.000008
H246	H	1.273705	0.428958	0.500008
C247	C	1.042304	-0.192547	0.000004
C248	C	1.542304	0.307453	0.500004
N249	N	1.099167	-0.218259	0.000014
N250	N	1.599167	0.281741	0.500014
C251	C	1.105232	-0.581566	-0.000028
C252	C	1.605232	-0.081566	0.499972
N253	N	1.162091	-0.607281	-0.000028
N254	N	1.662091	-0.107281	0.499972
H255	H	0.799271	0.124804	0.785728
H256	H	1.299271	0.624804	1.285728
C257	C	0.681399	-0.288264	-0.000009
C258	C	1.181399	0.211736	0.499991
N259	N	0.624553	-0.262536	-0.000016
N260	N	1.124553	0.237464	0.499984
