data_functionalizedCrystal
_audit_creation_method	'MofGen! by Chris Wilmer'
_symmetry_space_group_name_H-M	'P1'
_symmetry_Int_Tables_number	1
_symmetry_cell_setting	triclinic
loop_
_symmetry_equiv_pos_as_xyz
  x,y,z
_cell_length_a	21.395361
_cell_length_b	16.120566
_cell_length_c	21.395355
_cell_angle_alpha	92.924055
_cell_angle_beta	89.978489
_cell_angle_gamma	92.873428
loop_
_atom_site_label
_atom_site_type_symbol
_atom_site_fract_x
_atom_site_fract_y
_atom_site_fract_z
Zn1	Zn	-0.298147	-1.274542	-0.402808
Zn2	Zn	0.201853	-0.774542	0.097192
Zn3	Zn	-0.402902	-1.274412	-0.298020
Zn4	Zn	0.097098	-0.774412	0.201980
Zn5	Zn	-0.292826	-1.135113	-0.292732
Zn6	Zn	0.207174	-0.635113	0.207268
Zn7	Zn	-0.397568	-1.135072	-0.397451
Zn8	Zn	0.102432	-0.635072	0.102549
O9	O	-0.347861	-1.204785	-0.347753
O10	O	0.152139	-0.704785	0.152247
O11	O	-0.316501	-1.391190	-0.393362
O12	O	0.183499	-0.891190	0.106638
O13	O	-0.388305	-1.255897	-0.209639
O14	O	0.111695	-0.755897	0.290361
O15	O	-0.205857	-1.153680	-0.307363
O16	O	0.294143	-0.653680	0.192637
O17	O	-0.393464	-1.391095	-0.316375
O18	O	0.106536	-0.891095	0.183625
O19	O	-0.209766	-1.256118	-0.388235
O20	O	0.290234	-0.756118	0.111765
O21	O	-0.307433	-1.153554	-0.205754
O22	O	0.192567	-0.653554	0.294246
O23	O	-0.302262	-1.018442	-0.302169
O24	O	0.197738	-0.518442	0.197831
O25	O	-0.384374	-1.153610	-0.485841
O26	O	0.115626	-0.653610	0.014159
O27	O	-0.379216	-1.018412	-0.379105
O28	O	0.120784	-0.518412	0.120895
O29	O	-0.311330	-1.256078	-0.489776
O30	O	0.188670	-0.756078	0.010224
O31	O	-0.489869	-1.255857	-0.311181
O32	O	0.010131	-0.755857	0.188819
O33	O	-0.485951	-1.153485	-0.384232
O34	O	0.014049	-0.653485	0.115768
C35	C	-0.339583	-0.988177	-0.339482
C36	C	0.160417	-0.488177	0.160518
C37	C	-0.336057	-0.895511	-0.335959
C38	C	0.163943	-0.395511	0.164041
C39	C	-0.510644	-1.204675	-0.347714
C40	C	-0.010644	-0.704675	0.152286
C41	C	-0.580287	-1.204704	-0.347721
C42	C	-0.080287	-0.704704	0.152279
C43	C	-0.615021	-1.258056	-0.309725
C44	C	-0.115021	-0.758056	0.190275
C45	C	-0.680458	-1.258095	-0.309741
C46	C	-0.180458	-0.758095	0.190259
C47	C	-0.711157	-1.204767	-0.347745
C48	C	-0.211157	-0.704767	0.152255
C49	C	-0.676415	-1.151410	-0.385747
C50	C	-0.176415	-0.651410	0.114253
C51	C	-0.610979	-1.151379	-0.385736
C52	C	-0.110979	-0.651379	0.114264
C53	C	-0.812008	-1.129700	-0.349795
C54	C	-0.312008	-0.629700	0.150205
C55	C	-0.877442	-1.129730	-0.349802
C56	C	-0.377442	-0.629730	0.150198
C57	C	-0.912982	-1.204864	-0.347785
C58	C	-0.412982	-0.704864	0.152215
C59	C	-0.883079	-1.279970	-0.345747
C60	C	-0.383079	-0.779970	0.154253
C61	C	-0.817644	-1.279938	-0.345736
C62	C	-0.317644	-0.779938	0.154264
C63	C	-0.782111	-1.204795	-0.347762
C64	C	-0.282111	-0.704795	0.152238
C65	C	-1.018670	-1.258263	-0.309805
C66	C	-0.518670	-0.758263	0.190195
C67	C	-1.084108	-1.258303	-0.309825
C68	C	-0.584108	-0.758303	0.190175
C69	C	-1.080064	-1.151611	-0.385828
C70	C	-0.580064	-0.651611	0.114172
C71	C	-1.014627	-1.151578	-0.385811
C72	C	-0.514627	-0.651578	0.114189
C73	C	-0.983934	-1.204903	-0.347796
C74	C	-0.483934	-0.704903	0.152204
C75	C	-0.329605	-0.725850	-0.329532
C76	C	0.170395	-0.225850	0.170468
C77	C	-0.366171	-0.684560	-0.365978
C78	C	0.133829	-0.184560	0.134022
C79	C	-0.362581	-0.590155	-0.362402
C80	C	0.137419	-0.090155	0.137598
C81	C	-0.333194	-0.820264	-0.333107
C82	C	0.166806	-0.320264	0.166893
C83	C	-0.184443	-1.204918	-0.347806
C84	C	0.315557	-0.704918	0.152194
C85	C	-0.114803	-1.204975	-0.347829
C86	C	0.385197	-0.704975	0.152171
C87	C	-0.347851	-1.204854	-0.511179
C88	C	0.152149	-0.704854	-0.011179
C89	C	-0.347846	-1.204884	-0.580821
C90	C	0.152154	-0.704884	-0.080821
C91	C	-0.356173	-0.422238	-0.356045
C92	C	0.143827	0.077762	0.143955
C93	C	-0.359720	-0.514904	-0.359553
C94	C	0.140280	-0.014904	0.140447
C95	C	-0.309810	-1.258236	-0.615584
C96	C	0.190190	-0.758236	-0.115584
C97	C	-0.309783	-1.258235	-0.681020
C98	C	0.190217	-0.758235	-0.181020
C99	C	-0.347804	-1.204890	-0.711690
C100	C	0.152196	-0.704890	-0.211690
C101	C	-0.385843	-1.151527	-0.676918
C102	C	0.114157	-0.651527	-0.176918
C103	C	-0.385864	-1.151524	-0.611484
C104	C	0.114136	-0.651524	-0.111484
C105	C	-0.403967	-1.198269	-0.815100
C106	C	0.096033	-0.698269	-0.315100
C107	C	-0.403947	-1.198278	-0.880533
C108	C	0.096053	-0.698278	-0.380533
C109	C	-0.347738	-1.204895	-0.913511
C110	C	0.152262	-0.704895	-0.413511
C111	C	-0.291548	-1.211521	-0.881047
C112	C	0.208452	-0.711521	-0.381047
C113	C	-0.291569	-1.211518	-0.815613
C114	C	0.208431	-0.711518	-0.315613
C115	C	-0.347785	-1.204887	-0.782642
C116	C	0.152215	-0.704887	-0.282642
C117	C	-0.309669	-1.258249	-1.019227
C118	C	0.190331	-0.758249	-0.519227
C119	C	-0.309641	-1.258242	-1.084663
C120	C	0.190359	-0.758242	-0.584663
C121	C	-0.385706	-1.151539	-1.080560
C122	C	0.114294	-0.651539	-0.580560
C123	C	-0.385729	-1.151541	-1.015125
C124	C	0.114271	-0.651541	-0.515125
C125	C	-0.347711	-1.204901	-0.984462
C126	C	0.152289	-0.704901	-0.484462
C127	C	-0.347827	-1.204764	-0.184964
C128	C	0.152173	-0.704764	0.315036
C129	C	-0.347661	-1.204896	-0.115328
C130	C	0.152339	-0.704896	0.384672
H131	H	-0.590033	-1.301479	-0.278773
H132	H	-0.090033	-0.801479	0.221227
H133	H	-0.245818	-1.216910	-0.789184
H134	H	0.254182	-0.716910	-0.289184
H135	H	-0.295606	-0.690301	-0.295647
H136	H	0.204394	-0.190301	0.204353
H137	H	-0.416797	-1.108091	-0.701894
H138	H	0.083203	-0.608091	-0.201894
H139	H	-0.912014	-1.341150	-0.344105
H140	H	-0.412014	-0.841150	0.155895
C141	C	-1.122316	-1.316998	-0.268024
C142	C	-0.622316	-0.816998	0.231976
N143	N	-1.151095	-1.361206	-0.236537
N144	N	-0.651095	-0.861206	0.263463
C145	C	-0.267844	-1.316938	-0.985495
C146	C	0.232156	-0.816938	-0.485495
N147	N	-0.236340	-1.361142	-0.960090
N148	N	0.263660	-0.861142	-0.460090
H149	H	-0.400171	-0.720111	-0.399867
H150	H	0.099829	-0.220111	0.100133
H151	H	-0.278853	-1.301685	-0.590623
H152	H	0.221147	-0.801685	-0.090623
H153	H	-0.708744	-1.301544	-0.278801
H154	H	-0.208744	-0.801544	0.221199
C155	C	-0.267943	-1.316934	-0.719267
C156	C	0.232057	-0.816934	-0.219267
N157	N	-0.236430	-1.361149	-0.748073
N158	N	0.263570	-0.861149	-0.248073
C159	C	-0.229713	-1.218798	-0.917317
C160	C	0.270287	-0.718798	-0.417317
N161	N	-0.183141	-1.224281	-0.944639
N162	N	0.316859	-0.724281	-0.444639
H163	H	-0.416836	-1.108074	-0.583180
H164	H	0.083164	-0.608074	-0.083180
H165	H	-0.278664	-1.301687	-1.112966
H166	H	0.221336	-0.801687	-0.612966
C167	C	-0.427530	-1.092859	-1.114294
C168	C	0.072470	-0.592859	-0.614294
N169	N	-0.459032	-1.048659	-1.139705
N170	N	0.040968	-0.548659	-0.639705
C171	C	-0.427575	-1.092852	-0.976884
C172	C	0.072425	-0.592852	-0.476884
N173	N	-0.459094	-1.048642	-0.948081
N174	N	0.040906	-0.548642	-0.448081
C175	C	-0.984906	-1.316933	-0.267998
C176	C	-0.484906	-0.816933	0.232002
N177	N	-0.959477	-1.361127	-0.236511
N178	N	-0.459477	-0.861127	0.263489
H179	H	-0.449700	-1.192888	-0.906960
H180	H	0.050300	-0.692888	-0.406960
C181	C	-0.784754	-1.362553	-0.343494
C182	C	-0.284754	-0.862553	0.156506
N183	N	-0.759981	-1.424779	-0.341807
N184	N	-0.259981	-0.924779	0.158193
H185	H	-1.105059	-1.108193	-0.416774
H186	H	-0.605059	-0.608193	0.083226
H187	H	-0.701415	-1.107991	-0.416691
H188	H	-0.201415	-0.607991	0.083309
C189	C	-0.465806	-1.191005	-0.778832
C190	C	0.034194	-0.691005	-0.278832
N191	N	-0.512383	-1.185540	-0.751516
N192	N	-0.012383	-0.685540	-0.251516
H193	H	-0.986345	-1.108130	-0.416748
H194	H	-0.486345	-0.608130	0.083252
H195	H	-0.783077	-1.068513	-0.351439
H196	H	-0.283077	-0.568513	0.148561
C197	C	-0.910328	-1.047113	-0.352042
C198	C	-0.410328	-0.547113	0.147958
N199	N	-0.935097	-0.984883	-0.353729
N200	N	-0.435097	-0.484883	0.146271
C201	C	-0.572771	-1.092695	-0.427543
C202	C	-0.072771	-0.592695	0.072457
N203	N	-0.543991	-1.048496	-0.459036
N204	N	-0.043991	-0.548496	0.040964
