data_functionalizedCrystal
_audit_creation_method	'MofGen! by Chris Wilmer'
_symmetry_space_group_name_H-M	'P1'
_symmetry_Int_Tables_number	1
_symmetry_cell_setting	triclinic
loop_
_symmetry_equiv_pos_as_xyz
  x,y,z
_cell_length_a	22.863218
_cell_length_b	22.862586
_cell_length_c	22.858745
_cell_angle_alpha	60.006856
_cell_angle_beta	60.013818
_cell_angle_gamma	59.991795
loop_
_atom_site_label
_atom_site_type_symbol
_atom_site_fract_x
_atom_site_fract_y
_atom_site_fract_z
O1	O	0.081006	-0.854581	0.714630
O2	O	0.030492	-0.665350	0.575795
O3	O	0.150314	-0.785089	0.575706
O4	O	-0.038816	-0.734841	0.714718
O5	O	0.190066	-0.745348	0.615369
O6	O	0.070244	-0.625609	0.615458
O7	O	0.120758	-0.814840	0.754293
Zn8	Zn	0.101812	-0.713914	0.691173
Zn9	Zn	0.049438	-0.766275	0.638915
O10	O	0.000936	-0.695100	0.754381
N11	N	0.137558	-0.678184	0.726840
N12	N	0.013698	-0.802011	0.603247
C13	C	0.187224	-0.518558	0.776483
C14	C	0.187235	-0.628552	0.776467
C15	C	0.214753	-0.601061	0.803961
C16	C	0.334724	-0.580392	0.740801
C17	C	0.409718	-0.605392	0.715784
C18	C	0.409746	-0.726732	0.762051
C19	C	0.334754	-0.701730	0.787070
C20	C	0.205297	-0.481049	0.702756
C21	C	0.180267	-0.406048	0.677779
C22	C	0.119099	-0.406071	0.800259
C23	C	0.144128	-0.481071	0.825236
C24	C	0.113501	-0.610437	0.794610
C25	C	0.088492	-0.635428	0.769607
C26	C	0.210943	-0.696652	0.708337
C27	C	0.235956	-0.671660	0.733331
C28	C	0.113585	-0.610461	0.923980
C29	C	0.088635	-0.635476	0.998978
C30	C	0.211128	-0.696714	0.998930
C31	C	0.236077	-0.671700	0.923930
C32	C	0.187303	-0.628571	0.886457
C33	C	0.297246	-0.628559	0.776441
C34	C	-0.117796	-0.823430	0.581283
C35	C	-0.007671	-0.823587	0.471446
C36	C	-0.007879	-0.933535	0.581483
C37	C	-0.007861	-0.823583	0.581554
C38	C	-0.035301	-0.851035	0.553942
N39	N	0.446162	-0.678198	0.726752
O40	O	0.691234	-0.690164	0.550341
O41	O	0.691462	-0.829422	0.739388
O42	O	0.691373	-0.829102	0.619485
O43	O	0.691323	-0.690484	0.670244
O44	O	0.572233	-0.789455	0.659278
O45	O	0.572322	-0.789775	0.779181
O46	O	0.572094	-0.650517	0.590134
Zn47	Zn	0.553292	-0.713851	0.690976
Zn48	Zn	0.710264	-0.766088	0.638547
O49	O	0.572183	-0.650837	0.710037
N50	N	0.817394	-0.801741	0.602763
N51	N	0.137538	-0.369628	0.726874
O52	O	-0.038795	-0.124419	0.714761
O53	O	0.150256	-0.124417	0.575522
O54	O	0.030331	-0.124432	0.575860
O55	O	0.081131	-0.124404	0.714423
O56	O	0.070086	-0.243584	0.615573
O57	O	0.190011	-0.243569	0.615236
O58	O	0.000960	-0.243571	0.754474
Zn59	Zn	0.101797	-0.262488	0.691160
Zn60	Zn	0.049419	-0.105500	0.638836
O61	O	0.120885	-0.243556	0.754137
N62	N	0.013669	0.001640	0.603123
N63	N	0.137749	-0.678230	1.035381
O64	O	0.125655	-0.854547	1.280566
O65	O	-0.013567	-0.665426	1.280590
O66	O	-0.013245	-0.785328	1.280537
O67	O	0.125333	-0.734644	1.280618
O68	O	0.026456	-0.745599	1.161392
O69	O	0.026134	-0.625697	1.161444
O70	O	0.165355	-0.814817	1.161420
Zn71	Zn	0.102048	-0.713949	1.142516
Zn72	Zn	0.049740	-0.766294	1.299495
O73	O	0.165033	-0.694915	1.161473
N74	N	0.014038	-0.802020	1.406629
C75	C	0.045634	-0.621635	0.576499
C76	C	0.194019	-0.769918	0.576389
C77	C	0.105616	-0.858555	0.753588
C78	C	-0.042769	-0.710272	0.753698
C79	C	0.631920	-0.828776	0.783102
C80	C	0.631811	-0.828380	0.634616
C81	C	0.631633	-0.651162	0.546422
C82	C	0.631745	-0.651559	0.694907
C83	C	0.193900	-0.183846	0.576155
C84	C	0.045437	-0.184012	0.576622
C85	C	-0.042734	-0.183994	0.753792
C86	C	0.105780	-0.183977	0.753375
C87	C	-0.012889	-0.621735	1.221020
C88	C	-0.012483	-0.770211	1.220931
C89	C	0.164678	-0.858508	1.220991
C90	C	0.164280	-0.710023	1.221052
H91	H	0.028603	-0.620718	1.029520
O92	O	0.032367	-0.184073	0.524784
C93	C	-0.038054	-0.184070	0.550882
H94	H	-0.056884	-0.206602	0.611904
H95	H	-0.039086	-0.218692	0.529097
H96	H	-0.075133	-0.126914	0.532748
H97	H	0.248339	-0.780632	0.532734
O98	O	0.118589	-0.923454	0.805520
C99	C	0.188997	-0.967890	0.779540
H100	H	0.207895	-0.948369	0.718519
H101	H	0.189970	-1.025313	0.801421
H102	H	0.226059	-0.965922	0.797673
O103	O	0.216204	-0.697170	1.221196
C104	C	0.235506	-0.746299	1.282893
H105	H	0.189618	-0.767290	1.326013
H106	H	0.247117	-0.718388	1.303622
H107	H	0.285390	-0.792944	1.268935
H108	H	-0.097027	-0.183996	0.797505
O109	O	-0.107601	-0.697370	0.805712
C110	C	-0.152123	-0.626979	0.779805
H111	H	-0.117626	-0.592963	0.733799
H112	H	-0.186441	-0.602989	0.824762
H113	H	-0.188305	-0.628064	0.759907
O114	O	0.632025	-0.880867	0.847903
C115	C	0.632020	-0.855067	0.892496
H116	H	0.654525	-0.809057	0.858055
H117	H	0.666659	-0.900080	0.926790
H118	H	0.574872	-0.835202	0.928701
O119	O	0.631737	-0.880358	0.621778
C120	C	0.570069	-0.899662	0.670898
H121	H	0.549525	-0.885396	0.720558
H122	H	0.583995	-0.959764	0.686897
H123	H	0.526822	-0.869436	0.644958
H124	H	0.248082	-0.183515	0.532333
H125	H	0.116656	-0.183968	0.796904
O126	O	0.631421	-0.598933	0.481709
C127	C	0.569692	-0.538589	0.491203
H128	H	0.526615	-0.555887	0.543675
H129	H	0.548925	-0.512946	0.444755
H130	H	0.583619	-0.498137	0.492858
O131	O	-0.064969	-0.556909	1.221058
C132	C	-0.039178	-0.512331	1.221069
H133	H	0.006810	-0.546789	1.243635
H134	H	-0.084197	-0.478005	1.255665
H135	H	-0.019292	-0.476152	1.163916
O136	O	-0.064312	-0.783225	1.220810
C137	C	-0.038218	-0.853649	1.220788
H138	H	0.022802	-0.872524	1.198280
H139	H	-0.059993	-0.854652	1.186135
H140	H	-0.056362	-0.890715	1.277930
O141	O	0.216803	-0.923300	1.220886
C142	C	0.233453	-0.936141	1.159152
H143	H	0.186100	-0.902703	1.138570
H144	H	0.245155	-0.995381	1.173009
H145	H	0.282565	-0.920723	1.115958
O146	O	0.066106	-0.568598	0.887691
C147	C	-0.004312	-0.557959	0.936892
H148	H	-0.004142	-0.603181	0.990343
H149	H	-0.039938	-0.557560	0.915238
H150	H	-0.025797	-0.504534	0.944880
O151	O	0.631694	-0.599675	0.707989
C152	C	0.631784	-0.625782	0.778392
H153	H	0.609280	-0.671791	0.812286
H154	H	0.597186	-0.580925	0.802520
H155	H	0.688957	-0.645738	0.777302
H156	H	0.250848	-0.731818	1.029432
H157	H	0.073825	-0.575337	0.829731
O158	O	0.307715	-0.689338	0.887593
C159	C	0.345409	-0.732779	0.936752
H160	H	0.309667	-0.723214	0.990221
H161	H	0.395452	-0.718725	0.915070
H162	H	0.361589	-0.791523	0.944716
H163	H	0.028452	-0.620662	0.784363
H164	H	0.295996	-0.686402	0.718551
O165	O	0.258311	-0.738416	0.666334
C166	C	0.301642	-0.700533	0.603451
H167	H	0.272656	-0.640532	0.593046
H168	H	0.312972	-0.713937	0.556197
H169	H	0.354337	-0.716496	0.610258
O170	O	0.298456	-0.748615	0.821647
C171	C	0.347647	-0.818560	0.825672
H172	H	0.401088	-0.815707	0.781368
H173	H	0.325970	-0.849338	0.818886
H174	H	0.355658	-0.847194	0.880016
H175	H	0.440287	-0.786313	0.770693
H176	H	0.440232	-0.566167	0.686761
H177	H	0.240384	-0.511568	0.663058
O178	O	0.298403	-0.509295	0.730444
C179	C	0.347569	-0.472143	0.693603
H180	H	0.401042	-0.510640	0.702242
H181	H	0.325911	-0.426914	0.714842
H182	H	0.355512	-0.448833	0.633938
H183	H	0.194981	-0.375507	0.617742
H184	H	0.084019	-0.375548	0.839959
H185	H	0.129402	-0.511613	0.885274
H186	H	0.034845	-0.567275	0.532897
