data_functionalizedCrystal
_audit_creation_method	'MofGen! by Chris Wilmer'
_symmetry_space_group_name_H-M	'P1'
_symmetry_Int_Tables_number	1
_symmetry_cell_setting	triclinic
loop_
_symmetry_equiv_pos_as_xyz
  x,y,z
_cell_length_a	25.639243
_cell_length_b	25.639240
_cell_length_c	25.639234
_cell_angle_alpha	89.971713
_cell_angle_beta	89.986440
_cell_angle_gamma	90.035481
loop_
_atom_site_label
_atom_site_type_symbol
_atom_site_fract_x
_atom_site_fract_y
_atom_site_fract_z
Zn1	Zn	0.799234	-0.208164	-0.295630
Zn2	Zn	0.799170	-0.295587	-0.208183
Zn3	Zn	0.711814	-0.208171	-0.208203
Zn4	Zn	0.711765	-0.295575	-0.295582
O5	O	0.755496	-0.251874	-0.251900
O6	O	0.872391	-0.219763	-0.284041
O7	O	0.787576	-0.283999	-0.135020
O8	O	0.723458	-0.135005	-0.219829
O9	O	0.872344	-0.283992	-0.219794
O10	O	0.787685	-0.135000	-0.284061
O11	O	0.723396	-0.219775	-0.135035
O12	O	0.638642	-0.219763	-0.219783
O13	O	0.723374	-0.283972	-0.368754
O14	O	0.638606	-0.283978	-0.283980
O15	O	0.787637	-0.219751	-0.368789
O16	O	0.787528	-0.368750	-0.219749
O17	O	0.723312	-0.368741	-0.283960
C18	C	0.619653	-0.251871	-0.251879
C19	C	0.561539	-0.251882	-0.251882
C20	C	0.201195	-0.218483	-0.285409
C21	C	0.146591	-0.218482	-0.285412
O22	O	0.118370	-0.190076	-0.313891
N23	N	0.119257	-0.251873	-0.251914
C24	C	0.146530	-0.285262	-0.218407
O25	O	0.118266	-0.313663	-0.189914
C26	C	0.201133	-0.285259	-0.218401
C27	C	0.228464	-0.251870	-0.251905
C28	C	0.228526	-0.185096	-0.318909
C29	C	0.283127	-0.185098	-0.318907
C30	C	0.310396	-0.218485	-0.285403
C31	C	0.283065	-0.251872	-0.251903
C32	C	0.228406	-0.318645	-0.184892
C33	C	0.283013	-0.318640	-0.184889
C34	C	0.310344	-0.285251	-0.218393
C35	C	0.364935	-0.285261	-0.218396
N36	N	0.392269	-0.251870	-0.251894
C37	C	0.364999	-0.218483	-0.285398
C38	C	0.031859	-0.285264	-0.218420
C39	C	-0.022743	-0.285270	-0.218428
C40	C	-0.022678	-0.218489	-0.285432
C41	C	0.031925	-0.218487	-0.285427
C42	C	0.059193	-0.251874	-0.251918
C43	C	0.479665	-0.218488	-0.285390
C44	C	0.534270	-0.218494	-0.285386
C45	C	0.534201	-0.285272	-0.218380
C46	C	0.479600	-0.285269	-0.218385
C47	C	0.452333	-0.251872	-0.251892
O48	O	0.393190	-0.313652	-0.189930
O49	O	0.393270	-0.190082	-0.313881
C50	C	0.755422	-0.387717	-0.251859
C51	C	0.755438	-0.445831	-0.251859
C52	C	0.788956	-0.806153	-0.285405
C53	C	0.788971	-0.860757	-0.285416
O54	O	0.817381	-0.888959	-0.313897
N55	N	0.755568	-0.888113	-0.251950
C56	C	0.722145	-0.860862	-0.218475
O57	O	0.693734	-0.889145	-0.190011
C58	C	0.722127	-0.806259	-0.218467
C59	C	0.755535	-0.778906	-0.251932
C60	C	0.822361	-0.778799	-0.318867
C61	C	0.822346	-0.724199	-0.318856
C62	C	0.788926	-0.696952	-0.285383
C63	C	0.755520	-0.724305	-0.251920
C64	C	0.688701	-0.779009	-0.184996
C65	C	0.688686	-0.724402	-0.184991
C66	C	0.722094	-0.697049	-0.218455
C67	C	0.722085	-0.642457	-0.218435
N68	N	0.755488	-0.615101	-0.251901
C69	C	0.788908	-0.642348	-0.285375
C70	C	0.722184	-0.975533	-0.218494
C71	C	0.722203	-1.030135	-0.218499
C72	C	0.789029	-1.030026	-0.285441
C73	C	0.789012	-0.975423	-0.285433
C74	C	0.755586	-0.948177	-0.251960
C75	C	0.788875	-0.527683	-0.285348
C76	C	0.788858	-0.473078	-0.285332
C77	C	0.722031	-0.473192	-0.218392
C78	C	0.722049	-0.527792	-0.218406
C79	C	0.755473	-0.555037	-0.251888
O80	O	0.693689	-0.614221	-0.189971
O81	O	0.817309	-0.614059	-0.313839
C82	C	0.891869	-0.251878	-0.251921
C83	C	0.949983	-0.251880	-0.251930
C84	C	0.755507	-0.251859	-0.388273
C85	C	0.755512	-0.251853	-0.446387
C86	C	0.755584	-0.115501	-0.251952
C87	C	0.755622	-0.057387	-0.251975
C88	C	0.722085	-0.285227	-0.697556
C89	C	0.722076	-0.285238	-0.642952
O90	O	0.693605	-0.313666	-0.614695
N91	N	0.755532	-0.251811	-0.615661
C92	C	0.788996	-0.218366	-0.642976
O93	O	0.817451	-0.189933	-0.614749
C94	C	0.789002	-0.218352	-0.697580
C95	C	0.755547	-0.251785	-0.724868
C96	C	0.688632	-0.318657	-0.724845
C97	C	0.688642	-0.318646	-0.779446
C98	C	0.722105	-0.285204	-0.806758
C99	C	0.755557	-0.251774	-0.779469
C100	C	0.822462	-0.184904	-0.724894
C101	C	0.822465	-0.184893	-0.779501
C102	C	0.789011	-0.218326	-0.806790
C103	C	0.789029	-0.218321	-0.861381
N104	N	0.755573	-0.251749	-0.888673
C105	C	0.722111	-0.285190	-0.861361
C106	C	0.788979	-0.218397	-0.528306
C107	C	0.788976	-0.218413	-0.473703
C108	C	0.722055	-0.285286	-0.473683
C109	C	0.722062	-0.285272	-0.528286
C110	C	0.755523	-0.251825	-0.555597
C111	C	0.722135	-0.285164	-0.976026
C112	C	0.722149	-0.285152	-1.030631
C113	C	0.789068	-0.218278	-1.030647
C114	C	0.789055	-0.218292	-0.976047
C115	C	0.755585	-0.251737	-0.948737
O116	O	0.817484	-0.189906	-0.889673
O117	O	0.693655	-0.313613	-0.889595
C118	C	0.755515	-0.251851	-0.116057
C119	C	0.755611	-0.251710	-0.057943
H120	H	0.054058	-0.312457	-0.191135
H121	H	0.694906	-0.312380	-1.052847
C122	C	0.093354	-0.211318	-0.355769
C123	C	0.061965	-0.181783	-0.322253
H124	H	0.111895	-0.188656	-0.378506
H125	H	0.117412	-0.231193	-0.335815
H126	H	0.072042	-0.234128	-0.375723
H127	H	0.083277	-0.158975	-0.302296
H128	H	0.037904	-0.161899	-0.342209
C129	C	0.299968	-0.159743	-0.407487
C130	C	0.313162	-0.148388	-0.355730
H131	H	0.318506	-0.137074	-0.430219
H132	H	0.308908	-0.194876	-0.415072
H133	H	0.263543	-0.154971	-0.412273
H134	H	0.349587	-0.153163	-0.350943
H135	H	0.304226	-0.113246	-0.348142
H136	H	0.694966	-0.953352	-0.191232
H137	H	0.206162	-0.345834	-0.157609
H138	H	0.849705	-0.157679	-0.702685
C139	C	0.622626	-0.729999	-0.118828
C140	C	0.651943	-0.694454	-0.148195
H141	H	0.599946	-0.711510	-0.096110
H142	H	0.602621	-0.751297	-0.141595
H143	H	0.645432	-0.751290	-0.098855
H144	H	0.629137	-0.673166	-0.168171
H145	H	0.671950	-0.673147	-0.125425
H146	H	0.694875	-0.312394	-0.953797
C147	C	0.167170	-0.114771	-0.326331
C148	C	0.198558	-0.148394	-0.355743
H149	H	0.148675	-0.092112	-0.349076
H150	H	0.143074	-0.134652	-0.306390
H151	H	0.188479	-0.094739	-0.303588
H152	H	0.177249	-0.168429	-0.378484
H153	H	0.222657	-0.128511	-0.375694
C154	C	0.818517	-0.389329	-0.315043
C155	C	0.825582	-0.443011	-0.322120
H156	H	0.841190	-0.370770	-0.337752
H157	H	0.783384	-0.380408	-0.322660
H158	H	0.826194	-0.380402	-0.279918
H159	H	0.817901	-0.451939	-0.357244
H160	H	0.860723	-0.451936	-0.314506
C161	C	0.622489	-0.384739	-0.773924
C162	C	0.651861	-0.355391	-0.809437
H163	H	0.599777	-0.407421	-0.792438
H164	H	0.645254	-0.404745	-0.752627
H165	H	0.602509	-0.361953	-0.752628
H166	H	0.671844	-0.378177	-0.830730
H167	H	0.629093	-0.335384	-0.830742
H168	H	-0.044891	-0.191302	-0.312711
C169	C	0.888611	-0.118789	-0.774033
C170	C	0.859251	-0.148128	-0.809521
H171	H	0.911323	-0.096096	-0.792566
H172	H	0.865838	-0.098796	-0.752741
H173	H	0.908590	-0.141581	-0.752729
H174	H	0.839269	-0.125336	-0.830822
H175	H	0.882026	-0.168122	-0.830821
H176	H	0.816301	-0.191071	-0.953827
C177	C	0.854927	-0.522076	-0.351517
C178	C	0.825613	-0.557625	-0.322153
H179	H	0.877610	-0.540561	-0.374235
H180	H	0.832124	-0.500786	-0.371485
H181	H	0.874935	-0.500777	-0.328744
H182	H	0.805602	-0.578921	-0.344926
H183	H	0.848420	-0.578924	-0.302183
C184	C	0.859322	-0.913951	-0.292764
C185	C	0.825732	-0.945360	-0.322221
H186	H	0.881993	-0.895397	-0.315479
H187	H	0.839417	-0.889906	-0.272837
H188	H	0.879342	-0.935252	-0.270006
H189	H	0.805709	-0.924059	-0.344977
H190	H	0.845639	-0.969408	-0.342158
C191	C	0.818784	-0.188570	-1.114364
C192	C	0.825847	-0.181518	-1.060676
H193	H	0.841486	-0.165872	-1.132903
H194	H	0.826417	-0.223693	-1.123299
H195	H	0.783657	-0.180918	-1.123303
H196	H	0.860973	-0.189174	-1.051736
H197	H	0.818217	-0.146387	-1.051737
H198	H	0.694849	-0.550065	-0.191153
H199	H	0.661380	-0.345889	-0.702614
H200	H	0.305212	-0.345827	-0.157601
H201	H	0.661496	-0.801271	-0.157745
H202	H	0.694819	-0.312496	-0.550501
H203	H	0.849548	-0.701931	-0.346107
C204	C	0.418142	-0.355588	-0.210986
C205	C	0.449553	-0.321972	-0.181562
H206	H	0.399597	-0.378247	-0.188249
H207	H	0.394088	-0.335702	-0.230932
H208	H	0.439440	-0.375621	-0.233725
H209	H	0.428255	-0.301937	-0.158825
H210	H	0.473610	-0.341861	-0.161606
C211	C	0.550965	-0.373769	-0.192738
C212	C	0.564184	-0.321971	-0.181555
H213	H	0.569481	-0.396422	-0.170004
H214	H	0.514540	-0.378548	-0.187939
H215	H	0.559919	-0.381465	-0.227854
H216	H	0.555227	-0.314273	-0.146441
H217	H	0.600618	-0.317189	-0.186350
C218	C	-0.017308	-0.351277	-0.152198
C219	C	-0.052782	-0.321975	-0.181603
H220	H	-0.035853	-0.373934	-0.129459
H221	H	0.003981	-0.371308	-0.174939
H222	H	0.003999	-0.328461	-0.132245
H223	H	-0.074086	-0.344791	-0.201559
H224	H	-0.074080	-0.301944	-0.158858
C225	C	0.888417	-0.773192	-0.385026
C226	C	0.859104	-0.808743	-0.355663
H227	H	0.911107	-0.791677	-0.407739
H228	H	0.865614	-0.751908	-0.405000
H229	H	0.908418	-0.751888	-0.362252
H230	H	0.839100	-0.830045	-0.378437
H231	H	0.881910	-0.830037	-0.335688
C232	C	0.818715	-1.113686	-0.315180
C233	C	0.825762	-1.059984	-0.322241
H234	H	0.841389	-1.132180	-0.337901
H235	H	0.826399	-1.122646	-0.280064
H236	H	0.783579	-1.122652	-0.322797
H237	H	0.860897	-1.051017	-0.314621
H238	H	0.818081	-1.051019	-0.357365
C239	C	0.656148	-1.024745	-0.152331
C240	C	0.685483	-1.060198	-0.181711
H241	H	0.633474	-1.043304	-0.129623
H242	H	0.678938	-1.003443	-0.132351
H243	H	0.636130	-1.003448	-0.175095
H244	H	0.705504	-1.081492	-0.158947
H245	H	0.662690	-1.081509	-0.201691
H246	H	0.694822	-0.450999	-0.191137
H247	H	0.694808	-0.312515	-0.451436
C248	C	0.855124	-0.152312	-0.479222
C249	C	0.825754	-0.181665	-0.443711
H250	H	0.877825	-0.129621	-0.460706
H251	H	0.875109	-0.175090	-0.500512
H252	H	0.832353	-0.132311	-0.500525
H253	H	0.848525	-0.201669	-0.422411
H254	H	0.805767	-0.158884	-0.422413
H255	H	0.816232	-0.191161	-0.550539
H256	H	0.556520	-0.191304	-0.312670
H257	H	0.457470	-0.191292	-0.312673
