data_functionalizedCrystal
_audit_creation_method	'MofGen! by Chris Wilmer'
_symmetry_space_group_name_H-M	'P1'
_symmetry_Int_Tables_number	1
_symmetry_cell_setting	triclinic
loop_
_symmetry_equiv_pos_as_xyz
  x,y,z
_cell_length_a	11.026607
_cell_length_b	9.130307
_cell_length_c	11.026660
_cell_angle_alpha	90.002093
_cell_angle_beta	108.585426
_cell_angle_gamma	90.003126
loop_
_atom_site_label
_atom_site_type_symbol
_atom_site_fract_x
_atom_site_fract_y
_atom_site_fract_z
O1	O	1.726727	0.121784	0.533620
O2	O	1.360147	0.121787	0.472857
O3	O	1.513057	0.121785	0.319950
O4	O	1.573817	0.121787	0.686527
O5	O	1.513041	-0.121814	0.319939
O6	O	1.360131	-0.121812	0.472845
O7	O	1.726710	-0.121815	0.533609
Cu8	Cu	1.543419	-0.144056	0.503226
Cu9	Cu	1.543439	0.144028	0.503240
O10	O	1.573800	-0.121812	0.686515
C11	C	1.312480	-0.000011	0.461642
C12	C	1.170466	-0.000010	0.428225
N13	N	1.543414	-0.346679	0.503218
C14	C	1.116816	-0.000008	0.520494
C15	C	0.970037	-0.000007	0.485958
C16	C	1.355077	-0.346738	0.314775
C17	C	1.260921	-0.423434	0.220553
C18	C	1.260940	-0.576767	0.220557
C19	C	1.355121	-0.653408	0.314794
C20	C	1.449277	-0.576712	0.409015
C21	C	1.449251	-0.423375	0.408999
C22	C	1.637607	-0.576653	0.597461
C23	C	1.637596	-0.423319	0.597455
C24	C	1.731789	-0.653294	0.691698
C25	C	1.825952	-0.576597	0.785917
C26	C	1.825931	-0.423255	0.785909
C27	C	1.731752	-0.346623	0.691676
C28	C	1.774378	-0.000013	0.544824
C29	C	1.916392	-0.000005	0.578241
C30	C	1.501840	-0.000012	0.272285
C31	C	1.468424	-0.000003	0.130272
N32	N	1.543451	0.346651	0.503240
C33	C	1.526166	-0.000009	-0.070154
C34	C	1.560705	-0.000006	0.076624
C35	C	1.585018	-0.000013	0.734180
C36	C	1.618433	-0.000012	0.876193
H37	H	1.179548	-0.000016	0.625056
H38	H	1.363854	0.000003	0.067548
H39	H	1.355060	-0.221886	0.314755
C40	C	1.929540	-0.660911	0.889567
N41	N	2.007566	-0.724423	0.967635
C42	C	1.157475	-0.339118	0.116749
N43	N	1.079613	-0.275615	0.038510
H44	H	1.184265	-0.639213	0.143838
H45	H	1.107734	0.000027	0.323663
H46	H	1.355119	-0.778260	0.314797
C47	C	1.731719	-0.177952	0.691659
N48	N	1.731686	-0.050907	0.691646
C49	C	1.384902	-0.000022	-0.154893
N50	N	1.278499	-0.000038	-0.218718
C51	C	1.701976	-0.000009	0.161359
N52	N	1.808379	-0.000015	0.225183
H53	H	1.731792	-0.778146	0.691699
C54	C	1.759697	-0.000015	-0.039068
N55	N	1.866100	-0.000021	0.024757
H56	H	0.907310	0.000030	0.381389
H57	H	0.979118	-0.000014	0.682810
H58	H	1.902599	-0.360818	0.862641
