data_functionalizedCrystal
_audit_creation_method	'MofGen! by Chris Wilmer'
_symmetry_space_group_name_H-M	'P1'
_symmetry_Int_Tables_number	1
_symmetry_cell_setting	triclinic
loop_
_symmetry_equiv_pos_as_xyz
  x,y,z
_cell_length_a	18.101395
_cell_length_b	18.215407
_cell_length_c	18.215399
_cell_angle_alpha	90.020595
_cell_angle_beta	89.973573
_cell_angle_gamma	89.968975
loop_
_atom_site_label
_atom_site_type_symbol
_atom_site_fract_x
_atom_site_fract_y
_atom_site_fract_z
Zn1	Zn	-0.294839	-1.125040	-0.416139
Zn2	Zn	0.038495	-0.791707	-0.082805
Zn3	Zn	0.371828	-0.458373	0.250528
Zn4	Zn	-0.418685	-1.124935	-0.293076
Zn5	Zn	-0.085352	-0.791602	0.040258
Zn6	Zn	0.247981	-0.458269	0.373591
Zn7	Zn	-0.294862	-1.001973	-0.293084
Zn8	Zn	0.038471	-0.668639	0.040249
Zn9	Zn	0.371805	-0.335306	0.373582
Zn10	Zn	-0.418643	-1.001925	-0.416099
Zn11	Zn	-0.085309	-0.668592	-0.082766
Zn12	Zn	0.248024	-0.335259	0.250568
O13	O	-0.356757	-1.063468	-0.354599
O14	O	-0.023424	-0.730135	-0.021266
O15	O	0.309910	-0.396802	0.312067
O16	O	-0.311275	-1.228010	-0.399827
O17	O	0.022058	-0.894677	-0.066494
O18	O	0.355391	-0.561344	0.266840
O19	O	-0.402287	-1.108600	-0.190092
O20	O	-0.068954	-0.775267	0.143241
O21	O	0.264380	-0.441933	0.476574
O22	O	-0.191226	-1.018362	-0.309428
O23	O	0.142107	-0.685028	0.023905
O24	O	0.475441	-0.351695	0.357239
O25	O	-0.402265	-1.227933	-0.309413
O26	O	-0.068931	-0.894600	0.023920
O27	O	0.264402	-0.561267	0.357254
O28	O	-0.191209	-1.108779	-0.399835
O29	O	0.142124	-0.775445	-0.066502
O30	O	0.475458	-0.442112	0.266831
O31	O	-0.311315	-1.018260	-0.190099
O32	O	0.022019	-0.684927	0.143234
O33	O	0.355352	-0.351593	0.476568
O34	O	-0.311274	-0.898982	-0.309390
O35	O	0.022060	-0.565649	0.023944
O36	O	0.355393	-0.232316	0.357277
O37	O	-0.402193	-1.018281	-0.519088
O38	O	-0.068859	-0.684947	-0.185755
O39	O	0.264474	-0.351614	0.147578
O40	O	-0.402215	-0.898947	-0.399768
O41	O	-0.068882	-0.565614	-0.066434
O42	O	0.264452	-0.232281	0.266899
O43	O	-0.311234	-1.108733	-0.519118
O44	O	0.022099	-0.775399	-0.185784
O45	O	0.355432	-0.442066	0.147549
O46	O	-0.522312	-1.108554	-0.309375
O47	O	-0.188979	-0.775221	0.023959
O48	O	0.144354	-0.441887	0.357292
O49	O	-0.522281	-1.018179	-0.399759
O50	O	-0.188948	-0.684846	-0.066426
O51	O	0.144385	-0.351512	0.266907
C52	C	-0.356743	-0.872262	-0.354576
C53	C	-0.023409	-0.538929	-0.021242
C54	C	0.309924	-0.205595	0.312091
C55	C	-0.356754	-0.790463	-0.354583
C56	C	-0.023421	-0.457130	-0.021250
C57	C	0.309912	-0.123797	0.312084
C58	C	-0.404180	-0.602270	-0.401581
C59	C	-0.070847	-0.268937	-0.068248
C60	C	0.262486	0.064396	0.265085
C61	C	-0.404182	-0.525412	-0.401590
C62	C	-0.070849	-0.192078	-0.068256
C63	C	0.262485	0.141255	0.265077
C64	C	-0.309338	-0.525418	-0.307620
C65	C	0.023995	-0.192085	0.025713
C66	C	0.357328	0.141248	0.359047
C67	C	-0.309333	-0.602276	-0.307616
C68	C	0.024000	-0.268942	0.025717
C69	C	0.357333	0.064391	0.359050
C70	C	-0.356759	-0.640700	-0.354596
C71	C	-0.023425	-0.307366	-0.021262
C72	C	0.309908	0.025967	0.312071
C73	C	-0.356765	-0.486984	-0.354608
C74	C	-0.023432	-0.153650	-0.021274
C75	C	0.309902	0.179683	0.312059
C76	C	-0.356766	-0.403650	-0.354616
C77	C	-0.023433	-0.070317	-0.021283
C78	C	0.309900	0.263017	0.312050
C79	C	-0.356756	-0.724039	-0.354588
C80	C	-0.023423	-0.390705	-0.021255
C81	C	0.309910	-0.057372	0.312078
C82	C	-0.549168	-1.063370	-0.354578
C83	C	-0.215834	-0.730037	-0.021244
C84	C	0.117499	-0.396703	0.312089
C85	C	-0.631482	-1.063395	-0.354593
C86	C	-0.298148	-0.730062	-0.021260
C87	C	0.035185	-0.396728	0.312074
C88	C	-0.930573	-1.063557	-0.354633
C89	C	-0.597239	-0.730223	-0.021299
C90	C	-0.263906	-0.396890	0.312034
C91	C	-0.899259	-1.006827	-0.411641
C92	C	-0.565925	-0.673494	-0.078308
C93	C	-0.232592	-0.340160	0.255025
C94	C	-0.813641	-1.006557	-0.411463
C95	C	-0.480308	-0.673224	-0.078130
C96	C	-0.146974	-0.339891	0.255204
C97	C	-0.782190	-1.063476	-0.354614
C98	C	-0.448857	-0.730143	-0.021280
C99	C	-0.115524	-0.396810	0.312053
C100	C	-0.813340	-1.042479	-0.277052
C101	C	-0.480007	-0.709145	0.056281
C102	C	-0.146674	-0.375812	0.389614
C103	C	-0.898986	-1.042113	-0.277393
C104	C	-0.565652	-0.708780	0.055940
C105	C	-0.232319	-0.375446	0.389273
C106	C	-0.898917	-1.141408	-0.374503
C107	C	-0.565583	-0.808075	-0.041169
C108	C	-0.232250	-0.474741	0.292164
C109	C	-0.813266	-1.140950	-0.376204
C110	C	-0.479932	-0.807617	-0.042870
C111	C	-0.146599	-0.474284	0.290463
C112	C	-0.698331	-1.063432	-0.354598
C113	C	-0.364997	-0.730099	-0.021265
C114	C	-0.031664	-0.396766	0.312069
C115	C	-1.014432	-1.063599	-0.354643
C116	C	-0.681099	-0.730265	-0.021310
C117	C	-0.347765	-0.396932	0.312024
C118	C	-0.163595	-1.063587	-0.354637
C119	C	0.169738	-0.730254	-0.021304
C120	C	0.503071	-0.396921	0.312029
C121	C	-0.081281	-1.063638	-0.354653
C122	C	0.252052	-0.730305	-0.021320
C123	C	0.585386	-0.396971	0.312013
C124	C	-0.356706	-1.063513	-0.546552
C125	C	-0.023373	-0.730180	-0.213219
C126	C	0.309961	-0.396847	0.120114
C127	C	-0.356684	-1.063532	-0.628351
C128	C	-0.023351	-0.730199	-0.295018
C129	C	0.309982	-0.396866	0.038315
C130	C	-0.356770	-0.255421	-0.354620
C131	C	-0.023437	0.077912	-0.021287
C132	C	0.309897	0.411245	0.312046
C133	C	-0.356769	-0.337220	-0.354621
C134	C	-0.023436	-0.003887	-0.021287
C135	C	0.309897	0.329447	0.312046
C136	C	-0.309278	-1.110648	-0.816562
C137	C	0.024055	-0.777314	-0.483228
C138	C	0.357389	-0.443981	-0.149895
C139	C	-0.309256	-1.110656	-0.893420
C140	C	0.024077	-0.777323	-0.560087
C141	C	0.357410	-0.443990	-0.226754
C142	C	-0.403976	-1.016469	-0.893379
C143	C	-0.070643	-0.683136	-0.560045
C144	C	0.262691	-0.349802	-0.226712
C145	C	-0.403993	-1.016457	-0.816521
C146	C	-0.070660	-0.683124	-0.483188
C147	C	0.262673	-0.349790	-0.149855
C148	C	-0.356645	-1.063551	-0.778115
C149	C	-0.023312	-0.730217	-0.444782
C150	C	0.310021	-0.396884	-0.111448
C151	C	-0.356607	-1.063571	-0.931831
C152	C	-0.023273	-0.730238	-0.598498
C153	C	0.310060	-0.396905	-0.265164
C154	C	-0.356584	-1.063580	-1.015165
C155	C	-0.023250	-0.730247	-0.681831
C156	C	0.310083	-0.396914	-0.348498
C157	C	-0.356667	-1.063541	-0.694776
C158	C	-0.023334	-0.730207	-0.361443
C159	C	0.309999	-0.396874	-0.028109
C160	C	-0.356755	-1.063466	-0.163393
C161	C	-0.023421	-0.730133	0.169940
C162	C	0.309912	-0.396799	0.503274
C163	C	-0.356568	-1.063590	-0.081595
C164	C	-0.023234	-0.730256	0.251739
C165	C	0.310099	-0.396923	0.585072
H166	H	-0.442795	-0.633553	-0.439837
H167	H	-0.109462	-0.300220	-0.106504
H168	H	0.223872	0.033114	0.226830
H169	H	-0.270722	-1.148992	-0.785293
H170	H	0.062611	-0.815659	-0.451960
H171	H	0.395944	-0.482325	-0.118627
H172	H	-0.442796	-0.494126	-0.439851
H173	H	-0.109463	-0.160792	-0.106518
H174	H	0.223870	0.172541	0.226816
N175	N	-0.786510	-0.971847	-0.255548
N176	N	-0.453177	-0.638514	0.077785
N177	N	-0.119844	-0.305181	0.411119
N178	N	-0.718596	-0.961089	-0.249439
N179	N	-0.385263	-0.627755	0.083894
N180	N	-0.051930	-0.294422	0.417227
H181	H	-0.699647	-0.911204	-0.234254
H182	H	-0.366314	-0.577871	0.099079
H183	H	-0.032981	-0.244538	0.432413
H184	H	-0.442527	-0.978129	-0.924659
H185	H	-0.109193	-0.644796	-0.591325
H186	H	0.224140	-0.311462	-0.257992
H187	H	-0.270684	-1.149006	-0.924721
H188	H	0.062649	-0.815673	-0.591387
H189	H	0.395983	-0.482340	-0.258054
H190	H	-0.442565	-0.978100	-0.785217
H191	H	-0.109232	-0.644766	-0.451884
H192	H	0.224102	-0.311433	-0.118550
N193	N	-0.788025	-0.934164	-0.394954
N194	N	-0.454692	-0.600830	-0.061621
N195	N	-0.121358	-0.267497	0.271713
N196	N	-0.833400	-0.883682	-0.383522
N197	N	-0.500067	-0.550349	-0.050189
N198	N	-0.166734	-0.217015	0.283145
H199	H	-0.815311	-0.832550	-0.371861
H200	H	-0.481977	-0.499217	-0.038527
H201	H	-0.148644	-0.165884	0.294806
N202	N	-0.260902	-0.486156	-0.259639
N203	N	0.072432	-0.152823	0.073694
N204	N	0.405765	0.180510	0.407028
N205	N	-0.260912	-0.417534	-0.259648
N206	N	0.072422	-0.084201	0.073686
N207	N	0.405755	0.249132	0.407019
H208	H	-0.226703	-0.389805	-0.225759
H209	H	0.106630	-0.056472	0.107574
H210	H	0.439963	0.276861	0.440908
H211	H	-0.792578	-1.019695	-0.468974
H212	H	-0.459244	-0.686361	-0.135641
H213	H	-0.125911	-0.353028	0.197693
N214	N	-0.260880	-0.641524	-0.259619
N215	N	0.072453	-0.308191	0.073714
N216	N	0.405786	0.025143	0.407047
N217	N	-0.218543	-0.607210	-0.217675
N218	N	0.114790	-0.273877	0.115658
N219	N	0.448123	0.059456	0.448992
H220	H	-0.184322	-0.634929	-0.183781
H221	H	0.149011	-0.301596	0.149553
H222	H	0.482344	0.031738	0.482886
H223	H	-0.920845	-0.949472	-0.398645
H224	H	-0.587512	-0.616139	-0.065312
H225	H	-0.254178	-0.282806	0.268021
N226	N	-0.924988	-1.023187	-0.484030
N227	N	-0.591655	-0.689854	-0.150697
N228	N	-0.258322	-0.356520	0.182637
N229	N	-0.966710	-1.076843	-0.494452
N230	N	-0.633377	-0.743509	-0.161119
N231	N	-0.300043	-0.410176	0.172215
H232	H	-0.984868	-1.088413	-0.545582
H233	H	-0.651534	-0.755079	-0.212249
H234	H	-0.318201	-0.421746	0.121085
N235	N	-0.924123	-0.970721	-0.256273
N236	N	-0.590789	-0.637387	0.077060
N237	N	-0.257456	-0.304054	0.410394
N238	N	-0.878413	-0.921512	-0.241385
N239	N	-0.545080	-0.588178	0.091948
N240	N	-0.211746	-0.254845	0.425281
H241	H	-0.896162	-0.871089	-0.226468
H242	H	-0.562829	-0.537755	0.106865
H243	H	-0.229495	-0.204422	0.440198
H244	H	-0.919702	-1.081640	-0.233469
H245	H	-0.586369	-0.748306	0.099864
H246	H	-0.253036	-0.414973	0.433198
H247	H	-0.792969	-1.082498	-0.233418
H248	H	-0.459636	-0.749164	0.099915
H249	H	-0.126303	-0.415831	0.433248
H250	H	-0.920466	-1.160552	-0.430096
H251	H	-0.587132	-0.827219	-0.096763
H252	H	-0.253799	-0.493885	0.236570
N253	N	-0.787719	-1.160809	-0.447811
N254	N	-0.454386	-0.827476	-0.114478
N255	N	-0.121052	-0.494142	0.218855
N256	N	-0.746775	-1.118103	-0.482855
N257	N	-0.413442	-0.784770	-0.149522
N258	N	-0.080109	-0.451436	0.183811
H259	H	-0.728730	-1.132125	-0.533430
H260	H	-0.395396	-0.798792	-0.200096
H261	H	-0.062063	-0.465458	0.133237
H262	H	-0.919166	-1.183674	-0.332981
H263	H	-0.585833	-0.850340	0.000352
H264	H	-0.252499	-0.517007	0.333686
N265	N	-0.786403	-1.196773	-0.327905
N266	N	-0.453070	-0.863440	0.005428
N267	N	-0.119736	-0.530107	0.338761
N268	N	-0.743731	-1.180293	-0.276554
N269	N	-0.410398	-0.846959	0.056780
N270	N	-0.077064	-0.513626	0.390113
H271	H	-0.724761	-1.219715	-0.242435
H272	H	-0.391428	-0.886382	0.090898
H273	H	-0.058095	-0.553049	0.424232
