data_functionalizedCrystal
_audit_creation_method	'MofGen! by Chris Wilmer'
_symmetry_space_group_name_H-M	'P1'
_symmetry_Int_Tables_number	1
_symmetry_cell_setting	triclinic
loop_
_symmetry_equiv_pos_as_xyz
  x,y,z
_cell_length_a	25.639242
_cell_length_b	19.805405
_cell_length_c	19.805399
_cell_angle_alpha	89.970699
_cell_angle_beta	90.027395
_cell_angle_gamma	89.978063
loop_
_atom_site_label
_atom_site_type_symbol
_atom_site_fract_x
_atom_site_fract_y
_atom_site_fract_z
Zn1	Zn	0.799297	0.269560	0.382853
Zn2	Zn	1.299297	0.769560	0.882853
Zn3	Zn	0.799231	0.382748	0.269661
Zn4	Zn	1.299231	0.882748	0.769661
Zn5	Zn	0.711865	0.269569	0.269662
Zn6	Zn	1.211865	0.769569	0.769662
Zn7	Zn	0.711837	0.382703	0.382792
Zn8	Zn	1.211837	0.882703	0.882792
O9	O	0.755557	0.326145	0.326242
O10	O	1.255557	0.826145	0.826242
O11	O	0.872453	0.284589	0.367863
O12	O	1.372453	0.784589	0.867863
O13	O	0.787626	0.367757	0.174945
O14	O	1.287626	0.867757	0.674945
O15	O	0.723502	0.174852	0.284703
O16	O	1.223502	0.674852	0.784703
O17	O	0.872405	0.367748	0.284701
O18	O	1.372405	0.867748	0.784701
O19	O	0.787738	0.174844	0.367863
O20	O	1.287738	0.674844	0.867863
O21	O	0.723439	0.284606	0.174945
O22	O	1.223439	0.784606	0.674945
O23	O	0.638696	0.284562	0.284644
O24	O	1.138696	0.784562	0.784644
O25	O	0.723454	0.367672	0.477517
O26	O	1.223454	0.867672	0.977517
O27	O	0.638675	0.367681	0.367760
O28	O	1.138675	0.867681	0.867760
O29	O	0.787711	0.284545	0.477561
O30	O	1.287711	0.784545	0.977561
O31	O	0.787599	0.477459	0.284643
O32	O	1.287599	0.977459	0.784643
O33	O	0.723391	0.477426	0.367760
O34	O	1.223391	0.977426	0.867760
C35	C	0.619715	0.326118	0.326196
C36	C	1.119715	0.826118	0.826196
C37	C	0.561601	0.326123	0.326193
C38	C	1.061601	0.826123	0.826193
C39	C	0.755499	0.502001	0.326209
C40	C	1.255499	1.002001	0.826209
C41	C	0.755521	0.577233	0.326218
C42	C	1.255521	1.077233	0.826218
C43	C	0.755587	0.326102	0.502785
C44	C	1.255587	0.826102	1.002785
C45	C	0.755599	0.326084	0.578017
C46	C	1.255599	0.826084	1.078017
C47	C	0.201236	0.369497	0.369480
C48	C	0.701236	0.869497	0.869480
C49	C	0.146631	0.369502	0.369490
C50	C	0.646631	0.869502	0.869490
O51	O	0.118393	0.406347	0.406256
O52	O	0.618393	0.906347	0.906256
N53	N	0.119318	0.326164	0.326286
N54	N	0.619318	0.826164	0.826286
C55	C	0.146612	0.282814	0.283073
C56	C	0.646612	0.782814	0.783073
O57	O	0.118366	0.245952	0.246326
O58	O	0.618366	0.745952	0.746326
C59	C	0.201216	0.282807	0.283067
C60	C	0.701216	0.782807	0.783067
C61	C	0.228526	0.326152	0.326269
C62	C	0.728526	0.826152	0.826269
C63	C	0.228546	0.412839	0.412679
C64	C	0.728546	0.912839	0.912679
C65	C	0.283147	0.412835	0.412667
C66	C	0.783147	0.912835	0.912667
C67	C	0.310437	0.369491	0.369456
C68	C	0.810437	0.869491	0.869456
C69	C	0.283126	0.326149	0.326257
C70	C	0.783126	0.826149	0.826257
C71	C	0.228508	0.239454	0.239858
C72	C	0.728508	0.739454	0.739858
C73	C	0.283116	0.239451	0.239855
C74	C	0.783116	0.739451	0.739855
C75	C	0.310426	0.282796	0.283057
C76	C	0.810426	0.782796	0.783057
C77	C	0.365017	0.282801	0.283034
C78	C	0.865017	0.782801	0.783034
N79	N	0.392330	0.326139	0.326239
N80	N	0.892330	0.826139	0.826239
C81	C	0.365040	0.369483	0.369450
C82	C	0.865040	0.869483	0.869450
C83	C	0.031942	0.282831	0.283092
C84	C	0.531942	0.782831	0.783092
C85	C	-0.022661	0.282841	0.283094
C86	C	0.477339	0.782841	0.783094
C87	C	-0.022638	0.369528	0.369513
C88	C	0.477362	0.869528	0.869513
C89	C	0.031966	0.369521	0.369506
C90	C	0.531966	0.869521	0.869506
C91	C	0.059255	0.326169	0.326296
C92	C	0.559255	0.826169	0.826296
C93	C	0.479705	0.369473	0.369421
C94	C	0.979705	0.869473	0.869421
C95	C	0.534311	0.369468	0.369404
C96	C	1.034311	0.869468	0.869404
C97	C	0.534283	0.282779	0.282988
C98	C	1.034283	0.782779	0.782988
C99	C	0.479682	0.282787	0.283003
C100	C	0.979682	0.782787	0.783003
C101	C	0.452395	0.326136	0.326225
C102	C	0.952395	0.826136	0.826225
O103	O	0.393290	0.245973	0.246290
O104	O	0.893290	0.745973	0.746290
O105	O	0.393293	0.406333	0.406197
O106	O	0.893293	0.906333	0.906197
C107	C	0.891930	0.326172	0.326289
C108	C	1.391930	0.826172	0.826289
C109	C	0.950044	0.326184	0.326308
C110	C	1.450044	0.826184	0.826308
C111	C	0.755631	0.149602	0.326290
C112	C	1.255631	0.649602	0.826290
C113	C	0.755662	0.074370	0.326310
C114	C	1.255662	0.574370	0.826310
C115	C	0.788987	0.612572	0.282984
C116	C	1.288987	1.112572	0.782984
C117	C	0.789009	0.683260	0.282999
C118	C	1.289009	1.183260	0.782999
C119	C	0.755563	0.718609	0.326245
C120	C	1.255563	1.218609	0.826245
C121	C	0.722095	0.683265	0.369483
C122	C	1.222095	1.183265	0.869483
C123	C	0.722076	0.612578	0.369471
C124	C	1.222076	1.112578	0.869471
C125	C	0.722173	0.968338	0.369534
C126	C	1.222173	1.468338	0.869534
C127	C	0.722193	1.039030	0.369541
C128	C	1.222193	1.539030	0.869541
C129	C	0.789105	1.039021	0.283061
C130	C	1.289105	1.539021	0.783061
C131	C	0.789086	0.968334	0.283049
C132	C	1.289086	1.468334	0.783049
C133	C	0.755621	0.932996	0.326290
C134	C	1.255621	1.432996	0.826290
C135	C	0.755598	0.856348	0.326274
C136	C	1.255598	1.356348	0.826274
C137	C	0.755583	0.795256	0.326258
C138	C	1.255583	1.295256	0.826258
C139	C	0.755558	0.326139	0.150386
C140	C	1.255558	0.826139	0.650386
C141	C	0.755647	0.325966	0.075154
C142	C	1.255647	0.825966	0.575154
C143	C	0.789058	0.282798	0.613385
C144	C	1.289058	0.782798	1.113385
C145	C	0.789064	0.282779	0.684074
C146	C	1.289064	0.782779	1.184074
C147	C	0.755612	0.326049	0.719393
C148	C	1.255612	0.826049	1.219393
C149	C	0.722149	0.369337	0.684019
C150	C	1.222149	0.869337	1.184019
C151	C	0.722142	0.369352	0.613332
C152	C	1.222142	0.869352	1.113332
C153	C	0.722179	0.369274	0.969093
C154	C	1.222179	0.869274	1.469093
C155	C	0.722190	0.369256	1.039785
C156	C	1.222190	0.869256	1.539785
C157	C	0.789101	0.282700	1.039834
C158	C	1.289101	0.782700	1.539834
C159	C	0.789093	0.282716	0.969147
C160	C	1.289093	0.782716	1.469147
C161	C	0.755629	0.326001	0.933780
C162	C	1.255629	0.826001	1.433780
C163	C	0.755623	0.326020	0.857132
C164	C	1.255623	0.826020	1.357132
C165	C	0.755621	0.326033	0.796040
C166	C	1.255621	0.826033	1.296040
H167	H	0.556544	0.404768	0.404585
H168	H	1.056544	0.904768	0.904585
H169	H	0.816311	0.247533	0.712867
H170	H	1.316311	0.747533	1.212867
H171	H	0.694948	0.404493	1.068540
H172	H	1.194948	0.904493	1.568540
H173	H	0.694938	0.404529	0.940305
H174	H	1.194938	0.904529	1.440305
H175	H	0.816300	0.247565	0.584634
H176	H	1.316300	0.747565	1.084634
H177	H	0.694958	1.067809	0.404762
H178	H	1.194958	1.567809	0.904762
O179	O	0.821604	0.240619	0.934944
O180	O	1.321604	0.740619	1.434944
C181	C	0.851147	0.202419	0.981320
C182	C	1.351147	0.702419	1.481320
H183	H	0.829739	0.200060	1.031700
H184	H	1.329739	0.700060	1.531700
H185	H	0.856742	0.149096	0.960913
H186	H	1.356742	0.649096	1.460913
H187	H	0.890847	0.227210	0.988846
H188	H	1.390847	0.727210	1.488846
H189	H	0.816347	0.247453	1.068639
H190	H	1.316347	0.747453	1.568639
O191	O	0.689702	0.411347	0.718430
O192	O	1.189702	0.911347	1.218430
C193	C	0.696874	0.402041	0.788406
C194	C	1.196874	0.902041	1.288406
H195	H	0.737235	0.379882	0.798084
H196	H	1.237235	0.879882	1.298084
H197	H	0.693308	0.452734	0.815254
H198	H	1.193308	0.952734	1.315254
H199	H	0.665880	0.365985	0.808463
H200	H	1.165880	0.865985	1.308463
H201	H	0.694826	0.583805	0.404678
H202	H	1.194826	1.083805	0.904678
O203	O	0.821682	1.073373	0.241164
O204	O	1.321682	1.573373	0.741164
C205	C	0.855439	1.114205	0.279759
C206	C	1.355439	1.614205	0.779759
H207	H	0.858627	1.092864	0.333070
H208	H	1.358627	1.592864	0.833070
H209	H	0.895691	1.114971	0.255345
H210	H	1.395691	1.614971	0.755345
H211	H	0.839298	1.167797	0.282072
H212	H	1.339298	1.667797	0.782072
H213	H	0.816220	0.583796	0.247766
H214	H	1.316220	1.083796	0.747766
O215	O	0.058425	0.240797	0.241009
O216	O	0.558425	0.740797	0.741009
C217	C	0.045033	0.255498	0.173529
C218	C	0.545033	0.755498	0.673529
H219	H	0.030012	0.309569	0.170023
H220	H	0.530012	0.809569	0.670023
H221	H	0.080925	0.249619	0.140089
H222	H	0.580925	0.749619	0.640089
H223	H	0.013334	0.219195	0.155909
H224	H	0.513334	0.719195	0.655909
O225	O	0.689702	0.411503	0.578999
O226	O	1.189702	0.911503	1.078999
C227	C	0.701098	0.478959	0.596270
C228	C	1.201098	0.978959	1.096270
H229	H	0.742866	0.482374	0.615726
H230	H	1.242866	0.982374	1.115726
H231	H	0.696583	0.512406	0.549770
H232	H	1.196583	1.012406	1.049770
H233	H	0.673062	0.496642	0.637278
H234	H	1.173062	0.996642	1.137278
O235	O	0.453284	0.411645	0.411428
O236	O	0.953284	0.911645	0.911428
C237	C	0.489107	0.449881	0.449563
C238	C	0.989107	0.949881	0.949563
H239	H	0.528013	0.452180	0.421820
H240	H	1.028013	0.952180	0.921820
H241	H	0.473326	0.503222	0.456693
H242	H	0.973326	1.003222	0.956693
H243	H	0.494949	0.425160	0.501011
H244	H	0.994949	0.925160	1.001011
H245	H	0.457445	0.247493	0.247823
H246	H	0.957445	0.747493	0.747823
O247	O	0.821601	0.933922	0.241135
O248	O	1.321601	1.433922	0.741135
C249	C	0.855349	0.892988	0.279713
C250	C	1.355349	1.392988	0.779713
H251	H	0.836882	0.882384	0.330979
H252	H	1.336882	1.382384	0.830979
H253	H	0.862355	0.843292	0.252147
H254	H	1.362355	1.343292	0.752147
H255	H	0.894100	0.920188	0.287208
H256	H	1.394100	1.420188	0.787208
H257	H	0.305378	0.448130	0.447848
H258	H	0.805378	0.948130	0.947848
O259	O	0.202123	0.455013	0.454678
O260	O	0.702123	0.955013	0.954678
C261	C	0.237947	0.493247	0.492811
C262	C	0.737947	0.993247	0.992811
H263	H	0.276855	0.495536	0.465072
H264	H	0.776855	0.995536	0.965072
H265	H	0.222171	0.546591	0.499934
H266	H	0.722171	1.046591	0.999934
H267	H	0.243784	0.468531	0.544263
H268	H	0.743784	0.968531	1.044263
O269	O	0.058469	0.411550	0.411573
O270	O	0.558469	0.911550	0.911573
C271	C	0.045144	0.396857	0.479058
C272	C	0.545144	0.896857	0.979058
H273	H	0.030149	0.342791	0.482573
H274	H	0.530149	0.842791	0.982573
H275	H	0.081064	0.402728	0.512488
H276	H	0.581064	0.902728	1.012488
H277	H	0.013446	0.433171	0.496684
H278	H	0.513446	0.933171	0.996684
O279	O	-0.049234	0.411567	0.411472
O280	O	0.450766	0.911567	0.911472
C281	C	-0.103283	0.402283	0.402200
C282	C	0.396717	0.902283	0.902200
H283	H	-0.110732	0.350021	0.380123
H284	H	0.389268	0.850021	0.880123
H285	H	-0.124016	0.406935	0.452892
H286	H	0.375984	0.906935	0.952892
H287	H	-0.118806	0.442385	0.366087
H288	H	0.381194	0.942385	0.866087
H289	H	0.816260	0.712030	0.247793
H290	H	1.316260	1.212030	0.747793
H291	H	-0.044892	0.247552	0.247908
H292	H	0.455108	0.747552	0.747908
H293	H	0.694865	0.712051	0.404698
H294	H	1.194865	1.212051	0.904698
O295	O	0.202069	0.197280	0.197872
O296	O	0.702069	0.697280	0.697872
C297	C	0.237875	0.159036	0.159730
C298	C	0.737875	0.659036	0.659730
H299	H	0.276810	0.156739	0.187457
H300	H	0.776810	0.656739	0.687457
H301	H	0.222117	0.105695	0.152616
H302	H	0.722117	0.605695	0.652616
H303	H	0.243653	0.183748	0.108275
H304	H	0.743653	0.683748	0.608275
O305	O	0.309682	0.197434	0.197844
O306	O	0.809682	0.697434	0.697844
C307	C	0.341225	0.235909	0.154037
C308	C	0.841225	0.735909	0.654037
H309	H	0.349405	0.287234	0.177812
H310	H	0.849405	0.787234	0.677812
H311	H	0.379624	0.208323	0.145008
H312	H	0.879624	0.708323	0.645008
H313	H	0.320153	0.243280	0.103870
H314	H	0.820153	0.743280	0.603870
H315	H	0.556512	0.247491	0.247805
H316	H	1.056512	0.747491	0.747805
H317	H	0.694923	0.939572	0.404740
H318	H	1.194923	1.439572	0.904740
