data_functionalizedCrystal
_audit_creation_method	'MofGen! by Chris Wilmer'
_symmetry_space_group_name_H-M	'P1'
_symmetry_Int_Tables_number	1
_symmetry_cell_setting	triclinic
loop_
_symmetry_equiv_pos_as_xyz
  x,y,z
_cell_length_a	15.297328
_cell_length_b	15.298073
_cell_length_c	15.298431
_cell_angle_alpha	91.583285
_cell_angle_beta	91.658564
_cell_angle_gamma	69.203409
loop_
_atom_site_label
_atom_site_type_symbol
_atom_site_fract_x
_atom_site_fract_y
_atom_site_fract_z
Zn1	Zn	-0.016759	-1.250197	0.729792
Zn2	Zn	0.483241	-0.750197	1.229792
Zn3	Zn	-0.190381	-1.241197	0.607394
Zn4	Zn	0.309619	-0.741197	1.107394
Zn5	Zn	-0.067996	-1.118943	0.565047
Zn6	Zn	0.432004	-0.618943	1.065047
Zn7	Zn	-0.199140	-1.067721	0.729638
Zn8	Zn	0.300860	-0.567721	1.229638
O9	O	-0.118569	-1.169515	0.657968
O10	O	0.381431	-0.669515	1.157968
O11	O	-0.014681	-1.376533	0.731343
O12	O	0.485319	-0.876533	1.231343
O13	O	-0.191923	-1.242650	0.481671
O14	O	0.308077	-0.742650	0.981671
O15	O	0.066346	-1.161558	0.569244
O16	O	0.566346	-0.661558	1.069244
O17	O	-0.142240	-1.369921	0.641418
O18	O	0.357760	-0.869921	1.141418
O19	O	0.103990	-1.257989	0.690281
O20	O	0.603990	-0.757989	1.190281
O21	O	-0.102008	-1.152831	0.450559
O22	O	0.397992	-0.652831	0.950559
O23	O	-0.110502	-0.984619	0.569094
O24	O	0.389498	-0.484619	1.069094
O25	O	-0.157170	-1.074257	0.849764
O26	O	0.342830	-0.574257	1.349764
O27	O	-0.206853	-0.946986	0.690017
O28	O	0.293147	-0.446986	1.190017
O29	O	-0.023175	-1.208321	0.849878
O30	O	0.476825	-0.708321	1.349878
O31	O	-0.319088	-1.192982	0.641268
O32	O	0.180912	-0.692982	1.141268
O33	O	-0.325524	-1.065530	0.731080
O34	O	0.174476	-0.565530	1.231080
C35	C	-0.165188	-0.932735	0.624944
C36	C	0.334812	-0.432735	1.124944
C37	C	-0.185151	-0.831432	0.610840
C38	C	0.314849	-0.331432	1.110840
C39	C	0.023916	-0.559527	0.758759
C40	C	0.523916	-0.059527	1.258759
C41	C	0.042671	-0.654704	0.772016
C42	C	0.542671	-0.154704	1.272016
C43	C	-0.014283	-0.698891	0.731723
C44	C	0.485717	-0.198891	1.231723
C45	C	-0.089994	-0.647891	0.678171
C46	C	0.410006	-0.147891	1.178171
C47	C	-0.108755	-0.552702	0.664918
C48	C	0.391245	-0.052702	1.164918
C49	C	-0.146954	-0.692066	0.637882
C50	C	0.353046	-0.192066	1.137882
C51	C	-0.222666	-0.641066	0.584330
C52	C	0.277334	-0.141066	1.084330
C53	C	-0.241422	-0.545887	0.571079
C54	C	0.258578	-0.045887	1.071079
C55	C	-0.184469	-0.501700	0.611372
C56	C	0.315531	-0.001700	1.111372
C57	C	-0.128194	-0.787255	0.651135
C58	C	0.371806	-0.287255	1.151135
C59	C	-0.260865	-0.780430	0.557294
C60	C	0.239135	-0.280430	1.057294
C61	C	-0.279619	-0.685253	0.544037
C62	C	0.220381	-0.185253	1.044037
C63	C	-0.355369	-1.122743	0.690774
C64	C	0.144631	-0.622743	1.190774
C65	C	-0.456653	-1.102813	0.704849
C66	C	0.043347	-0.602813	1.204849
C67	C	-0.507629	-1.027050	0.758184
C68	C	-0.007629	-0.527050	1.258184
C69	C	-0.602788	-1.008328	0.771417
C70	C	-0.102788	-0.508328	1.271417
C71	C	-0.646978	-1.065372	0.731322
C72	C	-0.146978	-0.565372	1.231322
C73	C	-0.596000	-1.141141	0.677991
C74	C	-0.096000	-0.641141	1.177991
C75	C	-0.500833	-1.159860	0.664751
C76	C	-0.000833	-0.659860	1.164751
C77	C	-0.640182	-1.198182	0.637889
C78	C	-0.140182	-0.698182	1.137889
C79	C	-0.589204	-1.273951	0.584558
C80	C	-0.089204	-0.773951	1.084558
C81	C	-0.494047	-1.292667	0.571321
C82	C	0.005953	-0.792667	1.071321
C83	C	-0.449857	-1.235623	0.611416
C84	C	0.050143	-0.735623	1.111416
C85	C	-0.735348	-1.179462	0.651129
C86	C	-0.235348	-0.679462	1.151129
C87	C	-0.728553	-1.312272	0.557696
C88	C	-0.228553	-0.812272	1.057696
C89	C	-0.633394	-1.330994	0.544463
C90	C	-0.133394	-0.830994	1.044463
C91	C	0.119163	-1.216491	0.625056
C92	C	0.619163	-0.716491	1.125056
C93	C	0.220471	-1.236509	0.611031
C94	C	0.720471	-0.736509	1.111031
C95	C	-0.085434	-1.136579	0.881834
C96	C	0.414566	-0.636579	1.381834
C97	C	-0.071314	-1.122544	0.977232
C98	C	0.428686	-0.622544	1.477232
C99	C	-0.071762	-0.407221	0.691112
C100	C	0.428238	0.092779	1.191112
C101	C	-0.051798	-0.508525	0.705213
C102	C	0.448202	-0.008525	1.205213
C103	C	-0.151499	-1.202387	0.434971
C104	C	0.348501	-0.702387	0.934971
C105	C	-0.165327	-1.216650	0.339563
C106	C	0.334673	-0.716650	0.839563
C107	C	-0.017864	-1.069185	1.005844
C108	C	0.482136	-0.569185	1.505844
C109	C	-0.004601	-1.055987	1.095474
C110	C	0.495399	-0.555987	1.595474
C111	C	-0.044781	-1.096151	1.156501
C112	C	0.455219	-0.596151	1.656501
C113	C	-0.098227	-1.149517	1.127889
C114	C	0.401773	-0.649517	1.627889
C115	C	-0.111497	-1.162711	1.038250
C116	C	0.388503	-0.662711	1.538250
C117	C	-0.138414	-1.189677	1.188906
C118	C	0.361586	-0.689677	1.688906
C119	C	-0.191861	-1.243042	1.160294
C120	C	0.308139	-0.743042	1.660294
C121	C	-0.205128	-1.256234	1.070664
C122	C	0.294872	-0.756234	1.570664
C123	C	-0.164948	-1.216070	1.009637
C124	C	0.335052	-0.716070	1.509637
C125	C	-0.125144	-1.176483	1.278545
C126	C	0.374856	-0.676483	1.778545
C127	C	-0.218778	-1.270008	1.310950
C128	C	0.281222	-0.770008	1.810950
C129	C	-0.232041	-1.283207	1.221320
C130	C	0.267959	-0.783207	1.721320
H131	H	-0.303078	-0.504362	0.527481
H132	H	0.196922	-0.004362	1.027481
Cl133	Cl	-0.784101	-1.383984	0.507281
Cl134	Cl	-0.284101	-0.883984	1.007281
H135	H	0.014839	-1.036483	0.956150
H136	H	0.514839	-0.536483	1.456150
Cl137	Cl	-0.057954	-1.109400	1.314503
Cl138	Cl	0.442046	-0.609400	1.814503
H139	H	-0.033978	-1.085403	1.229480
H140	H	0.466022	-0.585403	1.729480
Cl141	Cl	0.062544	-0.988860	1.131438
Cl142	Cl	0.562544	-0.488860	1.631438
Cl143	Cl	0.095496	-0.503970	0.809419
Cl144	Cl	0.595496	-0.003970	1.309419
H145	H	-0.248662	-1.299674	1.047372
H146	H	0.251338	-0.799674	1.547372
H147	H	-0.275558	-1.326657	1.198011
H148	H	0.224442	-0.826657	1.698011
Cl149	Cl	-0.429964	-1.387916	0.504273
Cl150	Cl	0.070036	-0.887916	1.004273
Cl151	Cl	-0.452073	-0.955346	0.808580
Cl152	Cl	0.047927	-0.455346	1.308580
Cl153	Cl	-0.330193	-1.259234	0.594881
Cl154	Cl	0.169807	-0.759234	1.094881
Cl155	Cl	-0.569297	-1.426243	0.477420
Cl156	Cl	-0.069297	-0.926243	0.977420
H157	H	-0.175740	-1.226817	0.936652
H158	H	0.324260	-0.726817	1.436652
H159	H	-0.776844	-1.117774	0.694555
H160	H	-0.276844	-0.617774	1.194555
H161	H	-0.251493	-1.302717	1.360639
H162	H	0.248507	-0.802717	1.860639
H163	H	-0.066548	-0.828771	0.694736
H164	H	0.433452	-0.328771	1.194736
H165	H	0.000994	-0.776390	0.742517
H166	H	0.500994	-0.276390	1.242517
H167	H	0.104313	-0.696221	0.815621
H168	H	0.604313	-0.196221	1.315621
H169	H	-0.307245	-0.816405	0.524488
H170	H	0.192755	-0.316405	1.024488
Cl171	Cl	-0.208041	-0.382044	0.594706
Cl172	Cl	0.291959	0.117956	1.094706
H173	H	-0.724460	-1.050125	0.742100
H174	H	-0.224460	-0.550125	1.242100
H175	H	-0.644290	-0.946632	0.814832
H176	H	-0.144290	-0.446632	1.314832
Cl177	Cl	-0.374797	-0.621127	0.476717
Cl178	Cl	0.125203	-0.121127	0.976717
