data_functionalizedCrystal
_audit_creation_method	'MofGen! by Chris Wilmer'
_symmetry_space_group_name_H-M	'P1'
_symmetry_Int_Tables_number	1
_symmetry_cell_setting	triclinic
loop_
_symmetry_equiv_pos_as_xyz
  x,y,z
_cell_length_a	25.639239
_cell_length_b	19.805407
_cell_length_c	19.805399
_cell_angle_alpha	90.016510
_cell_angle_beta	89.969866
_cell_angle_gamma	89.965164
loop_
_atom_site_label
_atom_site_type_symbol
_atom_site_fract_x
_atom_site_fract_y
_atom_site_fract_z
Zn1	Zn	-0.208209	-1.034660	-0.382707
Zn2	Zn	-0.295646	-1.034556	-0.269517
Zn3	Zn	-0.208220	-0.921480	-0.269533
Zn4	Zn	-0.295610	-0.921414	-0.382664
O5	O	-0.251921	-0.978027	-0.326105
O6	O	-0.219818	-1.129363	-0.367704
O7	O	-0.284068	-1.019540	-0.174802
O8	O	-0.135053	-0.936565	-0.284570
O9	O	-0.284057	-1.129286	-0.284543
O10	O	-0.135046	-1.019718	-0.367719
O11	O	-0.219837	-0.936464	-0.174814
O12	O	-0.219802	-0.826755	-0.284529
O13	O	-0.283996	-0.936452	-0.477387
O14	O	-0.284007	-0.826706	-0.367646
O15	O	-0.219784	-1.019654	-0.477418
O16	O	-0.368806	-1.019476	-0.284502
O17	O	-0.368780	-0.936351	-0.367630
C18	C	-0.251902	-0.802171	-0.326085
C19	C	-0.251906	-0.726939	-0.326092
C20	C	-0.218516	-0.691636	-0.369459
C21	C	-0.218517	-0.620947	-0.369459
C22	C	-0.251913	-0.585564	-0.326097
C23	C	-0.285305	-0.620872	-0.282725
C24	C	-0.285300	-0.691560	-0.282721
C25	C	-0.285324	-0.335799	-0.282739
C26	C	-0.285327	-0.265107	-0.282747
C27	C	-0.218541	-0.265187	-0.369477
C28	C	-0.218536	-0.335874	-0.369473
C29	C	-0.251926	-0.371176	-0.326100
C30	C	-0.251924	-0.447825	-0.326098
C31	C	-0.251919	-0.508917	-0.326101
C32	C	-0.387764	-0.977914	-0.326074
C33	C	-0.445878	-0.977927	-0.326084
C34	C	-0.806242	-1.021423	-0.282894
C35	C	-0.860846	-1.021450	-0.282903
O36	O	-0.889084	-1.058314	-0.246147
N37	N	-0.888160	-0.978146	-0.326150
C38	C	-0.860867	-0.934819	-0.369396
O39	O	-0.889114	-0.897989	-0.406183
C40	C	-0.806264	-0.934796	-0.369390
C41	C	-0.778953	-0.978098	-0.326135
C42	C	-0.778931	-1.064722	-0.239643
C43	C	-0.724330	-1.064695	-0.239633
C44	C	-0.697041	-1.021369	-0.282874
C45	C	-0.724352	-0.978071	-0.326125
C46	C	-0.778972	-0.891473	-0.412639
C47	C	-0.724365	-0.891455	-0.412629
C48	C	-0.697053	-0.934756	-0.369374
C49	C	-0.642462	-0.934718	-0.369357
N50	N	-0.615148	-0.978021	-0.326109
C51	C	-0.642438	-1.021347	-0.282868
C52	C	-0.975538	-0.934870	-0.369407
C53	C	-1.030140	-0.934888	-0.369410
C54	C	-1.030115	-1.021520	-0.282917
C55	C	-0.975512	-1.021498	-0.282911
C56	C	-0.948224	-0.978173	-0.326159
C57	C	-0.527772	-1.021286	-0.282851
C58	C	-0.473167	-1.021252	-0.282843
C59	C	-0.473196	-0.934623	-0.369337
C60	C	-0.527797	-0.934654	-0.369343
C61	C	-0.555084	-0.977990	-0.326097
O62	O	-0.614190	-0.897874	-0.406095
O63	O	-0.614184	-1.058177	-0.246094
C64	C	-0.115548	-0.978160	-0.326151
C65	C	-0.057434	-0.978217	-0.326171
C66	C	-0.251885	-0.978057	-0.502648
C67	C	-0.251869	-0.978070	-0.577880
C68	C	-0.251937	-0.154570	-0.326120
C69	C	-0.251933	-0.229802	-0.326111
C70	C	-0.218421	-0.934824	-0.613230
C71	C	-0.218411	-0.934834	-0.683918
C72	C	-0.251847	-0.978092	-0.719256
C73	C	-0.285299	-1.021340	-0.683901
C74	C	-0.285311	-1.021327	-0.613214
C75	C	-0.285250	-1.021393	-0.968975
C76	C	-0.285234	-1.021405	-1.039667
C77	C	-0.218350	-0.934900	-1.039679
C78	C	-0.218362	-0.934887	-0.968992
C79	C	-0.251816	-0.978132	-0.933643
C80	C	-0.251827	-0.978120	-0.856995
C81	C	-0.251833	-0.978108	-0.795903
C82	C	-0.251920	-0.978037	-0.150249
C83	C	-0.251788	-0.978155	-0.075018
H84	H	-0.312512	-0.364534	-0.247422
Br85	Br	-1.067198	-0.876110	-0.428105
H86	H	-0.312526	-1.056558	-0.712679
H87	H	-0.191191	-0.899602	-0.584463
Br88	Br	-0.436150	-0.875830	-0.428022
H89	H	-0.191176	-0.899616	-0.712697
H90	H	-0.191328	-0.592206	-0.404774
H91	H	-0.191344	-0.364680	-0.404786
H92	H	-0.312493	-0.592058	-0.247415
H93	H	-0.953322	-0.899584	-0.404622
Br94	Br	-0.687274	-1.123474	-0.180937
H95	H	-0.801144	-1.100006	-0.204431
H96	H	-0.191133	-0.899664	-0.940224
H97	H	-0.312496	-1.056599	-0.940202
H98	H	-0.191323	-0.720440	-0.404772
Br99	Br	-0.330614	-1.080118	-1.087625
H100	H	-0.191112	-0.899687	-1.068468
Br101	Br	-0.330617	-0.739473	-0.223863
H102	H	-0.312544	-1.056547	-0.584433
H103	H	-0.191352	-0.236435	-0.404792
H104	H	-0.312523	-0.236300	-0.247434
Br105	Br	-0.436105	-1.080021	-0.224134
H106	H	-0.953279	-1.056758	-0.247690
Br107	Br	-1.067161	-1.080317	-0.224229
Br108	Br	-0.564796	-1.080100	-0.224160
H109	H	-0.801199	-0.856209	-0.447859
H110	H	-0.702149	-0.856175	-0.447849
H111	H	-0.550035	-0.899396	-0.404567
