data_functionalizedCrystal
_audit_creation_method	'MofGen! by Chris Wilmer'
_symmetry_space_group_name_H-M	'P1'
_symmetry_Int_Tables_number	1
_symmetry_cell_setting	triclinic
loop_
_symmetry_equiv_pos_as_xyz
  x,y,z
_cell_length_a	10.654562
_cell_length_b	10.654550
_cell_length_c	9.130313
_cell_angle_alpha	90.000110
_cell_angle_beta	89.996930
_cell_angle_gamma	95.512497
loop_
_atom_site_label
_atom_site_type_symbol
_atom_site_fract_x
_atom_site_fract_y
_atom_site_fract_z
O1	O	1.667825	-0.176469	-0.121892
O2	O	1.302348	-0.193259	-0.121873
O3	O	1.493490	-0.002125	-0.121877
O4	O	1.476683	-0.367603	-0.121887
O5	O	1.493487	-0.002130	0.121721
O6	O	1.302346	-0.193264	0.121726
O7	O	1.667822	-0.176474	0.121707
Cu8	Cu	1.485084	-0.184869	0.143959
Cu9	Cu	1.485087	-0.184863	-0.144125
O10	O	1.476681	-0.367608	0.121711
C11	C	1.255549	-0.192025	-0.000071
C12	C	1.116107	-0.188327	-0.000064
C13	C	1.050575	-0.186605	0.132710
C14	C	0.919553	-0.183140	0.132686
C15	C	0.919605	-0.183125	-0.132899
C16	C	1.050626	-0.186580	-0.132873
C17	C	1.050543	-0.186619	0.286044
C18	C	0.919521	-0.183154	0.286019
C19	C	1.492254	0.044671	-0.000080
C20	C	1.488563	0.184114	-0.000085
C21	C	1.714621	-0.177708	-0.000098
C22	C	1.854064	-0.181406	-0.000115
N23	N	1.485091	-0.184873	0.346582
C24	C	1.477916	-0.414403	-0.000090
C25	C	1.481608	-0.553847	-0.000094
C26	C	1.601103	0.263595	-0.000086
C27	C	1.597627	0.394615	-0.000096
C28	C	1.369059	0.366662	-0.000097
C29	C	1.372537	0.235644	-0.000098
C30	C	1.733066	0.279734	-0.000079
C31	C	1.729589	0.410755	-0.000089
N32	N	1.485089	-0.184850	-0.346748
C33	C	1.569750	-0.100268	0.423232
C34	C	1.569747	-0.100253	0.576568
C35	C	1.400421	-0.269459	0.576592
C36	C	1.400419	-0.269467	0.423258
C37	C	1.667513	-0.002582	0.423219
C38	C	1.667510	-0.002567	0.576556
H39	H	0.873234	-0.269952	0.344882
O40	O	1.105941	-0.083175	0.356293
C41	C	1.237871	-0.086840	0.356156
H42	H	1.260990	-0.188395	0.341906
H43	H	1.280893	-0.026948	0.262027
C44	C	1.264241	0.090164	0.519909
C45	C	1.292637	-0.034569	0.502420
H46	H	1.298026	0.122412	0.610128
H47	H	1.175358	0.092637	0.519998
H48	H	1.300094	0.140059	0.441460
H49	H	1.256770	-0.084464	0.580859
H50	H	1.381515	-0.037049	0.502348
H51	H	1.080117	-0.278215	0.333618
H52	H	1.636997	0.088657	0.624107
O53	O	1.114200	-0.188461	-0.261889
C54	C	1.068919	-0.296165	-0.342718
H55	H	1.023622	-0.371120	-0.265044
H56	H	0.995878	-0.269599	-0.425522
C57	C	1.234946	-0.256390	-0.519483
C58	C	1.179321	-0.348455	-0.424081
H59	H	1.303045	-0.288642	-0.569678
H60	H	1.265451	-0.183824	-0.465031
H61	H	1.174066	-0.234260	-0.588473
H62	H	1.240196	-0.370572	-0.355082
H63	H	1.148829	-0.421026	-0.478523
O64	O	1.642135	0.112614	0.373478
C65	C	1.743891	0.165378	0.287679
H66	H	1.833136	0.120845	0.319348
H67	H	1.722415	0.146522	0.166914
C68	C	1.653890	0.363335	0.275417
C69	C	1.763504	0.308647	0.314322
H70	H	1.665986	0.451711	0.291845
H71	H	1.585332	0.327787	0.333217
H72	H	1.636005	0.347610	0.174781
H73	H	1.781378	0.324360	0.414960
H74	H	1.832065	0.344202	0.256540
H75	H	1.779310	0.452511	0.101852
H76	H	1.331483	-0.338332	0.639038
O77	O	1.794813	0.244656	-0.121543
C78	C	1.901103	0.184120	-0.079259
H79	H	1.930592	0.214875	0.036301
H80	H	1.876624	0.077597	-0.081524
C81	C	1.974225	0.182572	-0.328044
C82	C	2.010450	0.220353	-0.186116
H83	H	2.041674	0.204916	-0.393961
H84	H	1.902613	0.223351	-0.356534
H85	H	1.953825	0.093804	-0.329911
H86	H	2.030834	0.309120	-0.184247
H87	H	2.082068	0.179589	-0.157629
O88	O	1.263333	0.158256	-0.000180
C89	C	1.291276	0.031564	-0.000146
H90	H	1.389975	0.025683	-0.046248
H91	H	1.286825	-0.006285	0.116718
C92	C	1.073264	-0.040529	-0.039075
C93	C	1.194484	-0.047754	-0.095710
H94	H	1.013555	-0.089459	-0.098017
H95	H	1.054436	0.044825	-0.039092
H96	H	1.069572	-0.072068	0.058311
H97	H	1.198178	-0.016200	-0.193086
H98	H	1.213310	-0.133105	-0.095711
H99	H	0.889932	-0.091561	0.333601
H100	H	1.274594	0.408635	-0.000109
H101	H	0.866275	-0.181703	-0.241027
O102	O	1.318299	-0.351821	0.348870
C103	C	1.339755	-0.476340	0.386379
H104	H	1.440308	-0.477902	0.428517
H105	H	1.270467	-0.512561	0.475396
C106	C	1.197456	-0.559398	0.198426
C107	C	1.320961	-0.561319	0.250169
H108	H	1.185858	-0.611820	0.114409
H109	H	1.182997	-0.475508	0.173158
H110	H	1.139731	-0.589579	0.272620
H111	H	1.378684	-0.531123	0.175982
H112	H	1.335430	-0.645206	0.275421
H113	H	1.775086	0.244103	0.105100
O114	O	1.777050	0.465052	-0.125705
C115	C	1.705850	0.415369	-0.246148
H116	H	1.656750	0.319052	-0.215967
H117	H	1.632168	0.481775	-0.276353
C118	C	1.854241	0.519798	-0.414750
C119	C	1.793944	0.401495	-0.377685
H120	H	1.908579	0.511245	-0.495892
H121	H	1.902208	0.553276	-0.333607
H122	H	1.792828	0.575125	-0.439911
H123	H	1.855356	0.346176	-0.352507
H124	H	1.745990	0.368008	-0.458828
H125	H	1.764021	-0.024090	0.618167
H126	H	1.758697	-0.033174	0.375655
