data_functionalizedCrystal
_audit_creation_method	'MofGen! by Chris Wilmer'
_symmetry_space_group_name_H-M	'P1'
_symmetry_Int_Tables_number	1
_symmetry_cell_setting	triclinic
loop_
_symmetry_equiv_pos_as_xyz
  x,y,z
_cell_length_a	11.169417
_cell_length_b	15.297510
_cell_length_c	11.169409
_cell_angle_alpha	99.641876
_cell_angle_beta	90.019824
_cell_angle_gamma	80.290975
loop_
_atom_site_label
_atom_site_type_symbol
_atom_site_fract_x
_atom_site_fract_y
_atom_site_fract_z
Zn1	Zn	1.752150	0.359064	0.761150
Zn2	Zn	2.252150	0.859064	1.261150
Zn3	Zn	1.717239	0.509956	0.595182
Zn4	Zn	2.217239	1.009956	1.095182
Zn5	Zn	1.551423	0.359119	0.560497
Zn6	Zn	2.051423	0.859119	1.060497
Zn7	Zn	1.516660	0.509883	0.795810
Zn8	Zn	2.016660	1.009883	1.295810
O9	O	1.634368	0.434505	0.678160
O10	O	2.134368	0.934505	1.178160
O11	O	1.915467	0.379088	0.739144
O12	O	2.415467	0.879088	1.239144
O13	O	1.695181	0.490001	0.422643
O14	O	2.195181	0.990001	0.922643
O15	O	1.607210	0.232867	0.558093
O16	O	2.107210	0.732867	1.058093
O17	O	1.889818	0.489948	0.617208
O18	O	2.389818	0.989948	1.117208
O19	O	1.754683	0.232827	0.705512
O20	O	2.254683	0.732827	1.205512
O21	O	1.573357	0.379181	0.397160
O22	O	2.073357	0.879181	0.897160
O23	O	1.378864	0.379110	0.591701
O24	O	1.878864	0.879110	1.091701
O25	O	1.547960	0.489823	0.959149
O26	O	2.047960	0.989823	1.459149
O27	O	1.353323	0.489876	0.764584
O28	O	1.853323	0.989876	1.264584
O29	O	1.720974	0.379016	0.933685
O30	O	2.220974	0.879016	1.433685
O31	O	1.661472	0.636191	0.650816
O32	O	2.161472	1.136191	1.150816
O33	O	1.514107	0.636137	0.798217
O34	O	2.014107	1.136137	1.298217
C35	C	1.322546	0.434492	0.678141
C36	C	1.822546	0.934492	1.178141
C37	C	1.189143	0.434508	0.678166
C38	C	1.689143	0.934508	1.178166
C39	C	1.580262	0.668898	0.732067
C40	C	2.080262	1.168898	1.232067
C41	C	1.557224	0.769172	0.755169
C42	C	2.057224	1.269172	1.255169
C43	C	1.799452	1.051814	0.513524
C44	C	2.299452	1.551814	1.013524
C45	C	1.821096	0.957602	0.491812
C46	C	2.321096	1.457602	0.991812
C47	C	1.755131	0.910490	0.557650
C48	C	2.255131	1.410490	1.057650
C49	C	1.667516	0.957599	0.645202
C50	C	2.167516	1.457599	1.145202
C51	C	1.645864	1.051821	0.666910
C52	C	2.145864	1.551821	1.166910
C53	C	1.601542	0.910496	0.711036
C54	C	2.101542	1.410496	1.211036
C55	C	1.513928	0.957606	0.798588
C56	C	2.013928	1.457606	1.298588
C57	C	1.492280	1.051818	0.820292
C58	C	1.992280	1.551818	1.320292
C59	C	1.558245	1.098930	0.754454
C60	C	2.058245	1.598930	1.254454
C61	C	1.623195	0.816275	0.689328
C62	C	2.123195	1.316275	1.189328
C63	C	1.469606	0.816281	0.842714
C64	C	1.969606	1.316281	1.342714
C65	C	1.447962	0.910493	0.864426
C66	C	1.947962	1.410493	1.364426
C67	C	1.947407	0.434520	0.678179
C68	C	2.447407	0.934520	1.178179
C69	C	2.080805	0.434526	0.678187
C70	C	2.580805	0.934526	1.178187
C71	C	1.634483	0.434405	0.991179
C72	C	2.134483	0.934405	1.491179
C73	C	1.634532	0.434362	1.124569
C74	C	2.134532	0.934362	1.624569
C75	C	1.688707	1.199198	0.624080
C76	C	2.188707	1.699198	1.124080
C77	C	1.711834	1.098924	0.601068
C78	C	2.211834	1.598924	1.101068
C79	C	1.634337	0.434540	0.366343
C80	C	2.134337	0.934540	0.866343
C81	C	1.634579	0.434329	0.232895
C82	C	2.134579	0.934329	0.732895
H83	H	1.694530	0.777926	0.618042
H84	H	2.194530	1.277926	1.118042
H85	H	1.540630	1.175646	0.772130
H86	H	2.040630	1.675646	1.272130
H87	H	1.892429	0.919249	0.420526
H88	H	2.392429	1.419249	0.920526
O89	O	1.870625	1.102624	0.442548
O90	O	2.370625	1.602624	0.942548
H91	H	1.840862	1.176052	0.472368
H92	H	2.340862	1.676052	0.972368
H93	H	1.772757	0.833778	0.539965
H94	H	2.272757	1.333778	1.039965
O95	O	1.397773	1.102635	0.914710
O96	O	1.897773	1.602635	1.414710
H97	H	1.422485	1.084491	1.004744
H98	H	1.922485	1.584491	1.504744
O99	O	1.353447	0.961306	0.958838
O100	O	1.853447	1.461306	1.458838
H101	H	1.349468	1.034734	0.962856
H102	H	1.849468	1.534734	1.462856
O103	O	1.398452	0.765481	0.913741
O104	O	1.898452	1.265481	1.413741
H105	H	1.428237	0.692053	0.883949
H106	H	1.928237	1.192053	1.383949
