data_functionalizedCrystal
_audit_creation_method	'MofGen! by Chris Wilmer'
_symmetry_space_group_name_H-M	'P1'
_symmetry_Int_Tables_number	1
_symmetry_cell_setting	triclinic
loop_
_symmetry_equiv_pos_as_xyz
  x,y,z
_cell_length_a	18.215407
_cell_length_b	18.050590
_cell_length_c	18.215399
_cell_angle_alpha	89.968856
_cell_angle_beta	89.985640
_cell_angle_gamma	90.015996
loop_
_atom_site_label
_atom_site_type_symbol
_atom_site_fract_x
_atom_site_fract_y
_atom_site_fract_z
Zn1	Zn	1.125082	-0.295700	-0.416063
Zn2	Zn	1.625082	0.204300	0.083937
Zn3	Zn	1.125011	-0.419900	-0.292995
Zn4	Zn	1.625011	0.080100	0.207005
Zn5	Zn	1.002021	-0.295723	-0.293016
Zn6	Zn	1.502021	0.204277	0.206984
Zn7	Zn	1.001995	-0.419847	-0.416026
Zn8	Zn	1.501995	0.080153	0.083974
O9	O	1.063527	-0.357793	-0.354525
O10	O	1.563527	0.142207	0.145475
O11	O	1.228057	-0.312188	-0.399745
O12	O	1.728057	0.187812	0.100255
O13	O	1.108677	-0.403460	-0.190014
O14	O	1.608677	0.096540	0.309986
O15	O	1.018387	-0.191795	-0.309363
O16	O	1.518387	0.308205	0.190637
O17	O	1.228005	-0.403437	-0.309328
O18	O	1.728005	0.096563	0.190672
O19	O	1.108799	-0.191779	-0.399765
O20	O	1.608799	0.308221	0.100235
O21	O	1.018318	-0.312227	-0.190029
O22	O	1.518318	0.187773	0.309971
O23	O	0.899034	-0.312176	-0.309326
O24	O	1.399034	0.187824	0.190674
O25	O	1.018341	-0.403347	-0.519015
O26	O	1.518341	0.096653	-0.019015
O27	O	0.899014	-0.403369	-0.399701
O28	O	1.399014	0.096631	0.100299
O29	O	1.108773	-0.312137	-0.519043
O30	O	1.608773	0.187863	-0.019043
O31	O	1.108651	-0.523818	-0.309291
O32	O	1.608651	-0.023818	0.190709
O33	O	1.018272	-0.523779	-0.399681
O34	O	1.518272	-0.023779	0.100319
C35	C	0.872321	-0.357770	-0.354512
C36	C	1.372321	0.142230	0.145488
C37	C	0.790522	-0.357778	-0.354524
C38	C	1.290522	0.142222	0.145476
C39	C	0.602355	-0.310362	-0.401679
C40	C	1.102355	0.189638	0.098321
C41	C	0.525496	-0.310369	-0.401681
C42	C	1.025496	0.189631	0.098319
C43	C	0.525452	-0.405244	-0.307384
C44	C	1.025452	0.094756	0.192616
C45	C	0.602309	-0.405233	-0.307379
C46	C	1.102309	0.094767	0.192621
C47	C	0.640759	-0.357794	-0.354530
C48	C	1.140759	0.142206	0.145470
C49	C	0.487043	-0.357811	-0.354538
C50	C	0.987043	0.142189	0.145462
C51	C	0.403709	-0.357818	-0.354541
C52	C	0.903709	0.142182	0.145459
C53	C	0.724098	-0.357785	-0.354527
C54	C	1.224098	0.142215	0.145473
C55	C	1.063471	-0.550745	-0.354496
C56	C	1.563471	-0.050745	0.145504
C57	C	1.063514	-0.633291	-0.354508
C58	C	1.563514	-0.133291	0.145492
C59	C	1.112765	-0.832735	-0.305423
C60	C	1.612765	-0.332735	0.194577
C61	C	1.130738	-0.882066	-0.372589
C62	C	1.630738	-0.382066	0.127411
C63	C	1.063556	-0.784421	-0.354537
C64	C	1.563556	-0.284421	0.145463
C65	C	1.045657	-0.882172	-0.287401
C66	C	1.545657	-0.382172	0.212599
C67	C	1.063597	-0.930406	-0.354560
C68	C	1.563597	-0.430406	0.145440
C69	C	1.081564	-0.832664	-0.421739
C70	C	1.581564	-0.332664	0.078261
C71	C	0.996451	-0.832766	-0.336506
C72	C	1.496451	-0.332766	0.163494
C73	C	1.014399	-0.882074	-0.403718
C74	C	1.514399	-0.382074	0.096282
C75	C	1.063533	-0.700323	-0.354523
C76	C	1.563533	-0.200323	0.145477
C77	C	1.063619	-1.014503	-0.354581
C78	C	1.563619	-0.514503	0.145419
C79	C	1.255480	-0.357816	-0.354539
C80	C	1.755480	0.142184	0.145461
C81	C	1.337279	-0.357826	-0.354544
C82	C	1.837279	0.142174	0.145456
C83	C	1.063562	-0.357733	-0.546478
C84	C	1.563562	0.142267	-0.046478
C85	C	1.063577	-0.357708	-0.628277
C86	C	1.563577	0.142292	-0.128277
C87	C	1.063604	-0.164087	-0.354571
C88	C	1.563604	0.335913	0.145429
C89	C	1.063637	-0.081541	-0.354590
C90	C	1.563637	0.418459	0.145410
C91	C	1.016566	-0.310171	-0.816480
C92	C	1.516566	0.189829	-0.316480
C93	C	1.016579	-0.310156	-0.893339
C94	C	1.516579	0.189844	-0.393339
C95	C	1.110675	-0.405156	-0.893312
C96	C	1.610675	0.094844	-0.393312
C97	C	1.110658	-0.405174	-0.816455
C98	C	1.610658	0.094826	-0.316455
C99	C	1.063605	-0.357678	-0.778041
C100	C	1.563605	0.142322	-0.278041
C101	C	1.063635	-0.357645	-0.931757
C102	C	1.563635	0.142355	-0.431757
C103	C	1.063649	-0.357629	-1.015091
C104	C	1.563649	0.142371	-0.515091
C105	C	1.063590	-0.357694	-0.694702
C106	C	1.563590	0.142306	-0.194702
C107	C	1.063535	-0.357798	-0.163319
C108	C	1.563535	0.142202	0.336681
C109	C	1.063663	-0.357614	-0.081520
C110	C	1.563663	0.142386	0.418480
H111	H	0.494231	-0.271744	-0.440074
H112	H	0.994231	0.228256	0.059926
C113	C	1.101945	-0.725869	-0.497702
C114	C	1.601945	-0.225869	0.002298
C115	C	1.102121	-0.803438	-0.498419
C116	C	1.602121	-0.303438	0.001581
H117	H	1.114642	-0.707828	-0.545039
H118	H	1.614642	-0.207828	-0.045039
H119	H	1.054415	-0.708585	-0.484813
H120	H	1.554415	-0.208585	0.015187
H121	H	1.136668	-0.708590	-0.462776
H122	H	1.636668	-0.208590	0.037224
H123	H	1.067394	-0.820718	-0.533342
H124	H	1.567394	-0.320718	-0.033342
H125	H	1.149658	-0.820730	-0.511317
H126	H	1.649658	-0.320730	-0.011317
H127	H	0.494137	-0.443868	-0.268996
H128	H	0.994137	0.056132	0.231004
C129	C	0.955394	-0.885575	-0.191370
C130	C	1.455394	-0.385575	0.308630
C131	C	1.025189	-0.911530	-0.210746
C132	C	1.525189	-0.411530	0.289254
H133	H	0.942762	-0.903702	-0.144048
H134	H	1.442762	-0.403702	0.355952
H135	H	0.955677	-0.832960	-0.190701
H136	H	1.455677	-0.332960	0.309299
H137	H	0.920406	-0.902472	-0.226217
H138	H	1.420406	-0.402472	0.273783
H139	H	1.060177	-0.894628	-0.175903
H140	H	1.560177	-0.394628	0.324097
H141	H	1.024911	-0.964155	-0.211410
H142	H	1.524911	-0.464155	0.288590
H143	H	1.187505	-0.903723	-0.387854
H144	H	1.687505	-0.403723	0.112146
H145	H	0.972803	-0.903601	-0.445311
H146	H	1.472803	-0.403601	0.054689
C147	C	0.594552	-0.499025	-0.214172
C148	C	1.094552	0.000975	0.285828
C149	C	0.644529	-0.457376	-0.255551
C150	C	1.144529	0.042624	0.244449
H151	H	0.620619	-0.531215	-0.182180
H152	H	1.120619	-0.031215	0.317820
H153	H	0.564572	-0.466640	-0.186080
H154	H	1.064572	0.033360	0.313920
H155	H	0.564580	-0.527475	-0.246196
H156	H	1.064580	-0.027475	0.253804
H157	H	0.674498	-0.428922	-0.223527
H158	H	1.174498	0.071078	0.276473
H159	H	0.674522	-0.489766	-0.283645
H160	H	1.174522	0.010234	0.216355
H161	H	0.939701	-0.811093	-0.321221
H162	H	1.439701	-0.311093	0.178779
C163	C	1.239215	-0.828366	-0.268488
C164	C	1.739215	-0.328366	0.231512
C165	C	1.168957	-0.803480	-0.249411
C166	C	1.668957	-0.303480	0.250589
H167	H	1.273905	-0.810300	-0.233913
H168	H	1.773905	-0.310300	0.266087
H169	H	1.239923	-0.880981	-0.268418
H170	H	1.739923	-0.380981	0.231582
H171	H	1.251469	-0.810684	-0.316067
H172	H	1.751469	-0.310684	0.183933
H173	H	1.156700	-0.821167	-0.201833
H174	H	1.656700	-0.321167	0.298167
H175	H	1.168247	-0.750854	-0.249473
H176	H	1.668247	-0.250854	0.250527
C177	C	0.923549	-0.216277	-0.824229
C178	C	1.423549	0.283723	-0.324229
C179	C	0.964837	-0.257973	-0.774254
C180	C	1.464837	0.242027	-0.274254
H181	H	0.891608	-0.184057	-0.798160
H182	H	1.391608	0.315943	-0.298160
H183	H	0.955628	-0.187863	-0.854212
H184	H	1.455628	0.312137	-0.354212
H185	H	0.895400	-0.248635	-0.854198
H186	H	1.395400	0.251365	-0.354198
H187	H	0.992990	-0.225615	-0.744289
H188	H	1.492990	0.274385	-0.244289
H189	H	0.932754	-0.286389	-0.744258
H190	H	1.432754	0.213611	-0.244258
C191	C	0.917599	-0.299814	-0.979756
C192	C	1.417599	0.200186	-0.479756
C193	C	0.964868	-0.257937	-0.935587
C194	C	1.464868	0.242063	-0.435587
H195	H	0.885669	-0.267574	-1.005833
H196	H	1.385669	0.232426	-0.505833
H197	H	0.945623	-0.328084	-1.013635
H198	H	1.445623	0.171916	-0.513635
H199	H	0.889439	-0.332174	-0.949750
H200	H	1.389439	0.167826	-0.449750
H201	H	0.993032	-0.225580	-0.965594
H202	H	1.493032	0.274420	-0.465594
H203	H	0.936841	-0.229654	-0.901704
H204	H	1.436841	0.270346	-0.401704
H205	H	1.148985	-0.443826	-0.924598
H206	H	1.648985	0.056174	-0.424598
C207	C	1.203680	-0.499075	-0.824143
C208	C	1.703680	0.000925	-0.324143
C209	C	1.162369	-0.457396	-0.774197
C210	C	1.662369	0.042604	-0.274197
H211	H	1.235603	-0.531310	-0.798052
H212	H	1.735603	-0.031310	-0.298052
H213	H	1.171614	-0.527472	-0.854109
H214	H	1.671614	-0.027472	-0.354109
H215	H	1.231848	-0.466707	-0.854132
H216	H	1.731848	0.033293	-0.354132
H217	H	1.134196	-0.489765	-0.744211
H218	H	1.634196	0.010235	-0.244211
H219	H	1.194439	-0.428997	-0.744218
H220	H	1.694439	0.071003	-0.244218
H221	H	0.633658	-0.271731	-0.440070
H222	H	1.133658	0.228269	0.059930
