data_functionalizedCrystal
_audit_creation_method	'MofGen! by Chris Wilmer'
_symmetry_space_group_name_H-M	'P1'
_symmetry_Int_Tables_number	1
_symmetry_cell_setting	triclinic
loop_
_symmetry_equiv_pos_as_xyz
  x,y,z
_cell_length_a	12.759395
_cell_length_b	17.077402
_cell_length_c	17.077396
_cell_angle_alpha	90.031388
_cell_angle_beta	89.985232
_cell_angle_gamma	89.975580
loop_
_atom_site_label
_atom_site_type_symbol
_atom_site_fract_x
_atom_site_fract_y
_atom_site_fract_z
Zn1	Zn	1.606149	0.312464	-0.443788
Zn2	Zn	1.606033	0.443742	-0.312519
Zn3	Zn	1.430465	0.312498	-0.312541
Zn4	Zn	1.430415	0.443695	-0.443747
O5	O	1.518266	0.378100	-0.378149
O6	O	1.753155	0.329883	-0.426382
O7	O	1.582715	0.426366	-0.202675
O8	O	1.453840	0.202646	-0.329977
O9	O	1.753069	0.426333	-0.329939
O10	O	1.582915	0.202621	-0.426404
O11	O	1.453727	0.329942	-0.202691
O12	O	1.283437	0.329896	-0.329938
O13	O	1.453754	0.426253	-0.553600
O14	O	1.283400	0.426286	-0.426335
O15	O	1.582866	0.329838	-0.553629
O16	O	1.582667	0.553583	-0.329900
O17	O	1.453641	0.553548	-0.426314
C18	C	1.245298	0.378090	-0.378135
C19	C	1.128521	0.378105	-0.378148
C20	C	1.518164	0.582047	-0.378117
C21	C	1.518217	0.669297	-0.378130
C22	C	1.518317	0.378036	-0.582893
C23	C	1.518340	0.378009	-0.670143
C24	C	1.128521	0.478638	-0.478364
C25	C	1.073661	0.528911	-0.528474
C26	C	0.963939	0.528920	-0.528483
C27	C	0.909076	0.478650	-0.478379
C28	C	0.963936	0.428377	-0.428269
C29	C	1.073661	0.428375	-0.428263
C30	C	0.963936	0.327841	-0.328059
C31	C	1.073658	0.327835	-0.328044
C32	C	0.909073	0.277571	-0.277954
C33	C	0.963934	0.227301	-0.227839
C34	C	1.073662	0.227294	-0.227831
C35	C	1.128519	0.277562	-0.277934
C36	C	1.792299	0.378110	-0.378163
C37	C	1.909076	0.378114	-0.378169
C38	C	1.518396	0.173355	-0.378197
C39	C	1.518452	0.086105	-0.378218
C40	C	1.585469	0.710279	-0.327982
C41	C	1.585520	0.792260	-0.328002
C42	C	1.518314	0.833257	-0.378167
C43	C	1.451058	0.792269	-0.428321
C44	C	1.451013	0.710290	-0.428304
C45	C	1.451156	0.963139	-0.428351
C46	C	1.451199	1.045123	-0.428366
C47	C	1.585663	1.045109	-0.328048
C48	C	1.585618	0.963130	-0.328031
C49	C	1.518361	0.922148	-0.378185
C50	C	1.585599	0.428126	-1.045951
C51	C	1.585573	0.428149	-0.963971
C52	C	1.518407	0.377953	-0.922992
C53	C	1.451256	0.327738	-0.963998
C54	C	1.451278	0.327719	-1.045977
C55	C	1.451217	0.327778	-0.793128
C56	C	1.451196	0.327795	-0.711143
C57	C	1.585511	0.428208	-0.711122
C58	C	1.585533	0.428189	-0.793101
C59	C	1.518384	0.377972	-0.834101
C60	C	1.518274	0.378106	-0.174201
C61	C	1.518456	0.377912	-0.086951
H62	H	1.217863	0.478641	-0.478355
H63	H	1.217860	0.277563	-0.277930
H64	H	1.640283	0.825624	-0.287165
H65	H	1.640337	0.929750	-0.287179
H66	H	1.396251	0.676923	-0.469141
H67	H	1.396507	0.286920	-0.677780
H68	H	1.118323	0.186350	-0.187030
H69	H	1.640298	0.468997	-1.079311
H70	H	0.919255	0.186371	-0.187052
Cl71	Cl	1.669956	0.658749	-0.264908
H72	H	1.640235	0.469047	-0.930592
H73	H	0.819732	0.277579	-0.277969
H74	H	1.396536	0.286886	-0.826507
H75	H	1.640231	0.469059	-0.826464
Cl76	Cl	1.670204	1.096629	-0.264991
Cl77	Cl	1.669925	0.491340	-0.659579
Cl78	Cl	1.366833	0.264624	-0.912481
Cl79	Cl	0.894968	0.592116	-0.591484
H80	H	1.396493	1.078501	-0.469230
Cl81	Cl	1.366575	0.843808	-0.491391
Cl82	Cl	1.366605	0.911619	-0.491403
Cl83	Cl	1.142636	0.592110	-0.591453
Cl84	Cl	0.771139	0.478653	-0.478404
Cl85	Cl	1.366871	0.264587	-1.097520
