data_functionalizedCrystal
_audit_creation_method	'MofGen! by Chris Wilmer'
_symmetry_space_group_name_H-M	'P1'
_symmetry_Int_Tables_number	1
_symmetry_cell_setting	triclinic
loop_
_symmetry_equiv_pos_as_xyz
  x,y,z
_cell_length_a	10.654541
_cell_length_b	17.699083
_cell_length_c	16.176319
_cell_angle_alpha	90.001389
_cell_angle_beta	89.993456
_cell_angle_gamma	96.116528
loop_
_atom_site_label
_atom_site_type_symbol
_atom_site_fract_x
_atom_site_fract_y
_atom_site_fract_z
O1	O	0.158809	-1.005088	-0.068630
O2	O	0.179471	-0.784840	-0.068657
O3	O	-0.013688	-0.900029	-0.068638
O4	O	0.351968	-0.889899	-0.068649
O5	O	-0.013701	-0.900013	0.068855
O6	O	0.179458	-0.784824	0.068836
O7	O	0.158797	-1.005072	0.068863
Cu8	Cu	0.169126	-0.894946	0.081404
Cu9	Cu	0.169141	-0.894965	-0.081198
O10	O	0.351956	-0.889883	0.068844
C11	C	-0.060480	-0.899277	0.000108
C12	C	-0.199884	-0.897053	0.000106
C13	C	0.178724	-0.756631	0.000086
C14	C	0.176503	-0.672599	0.000076
C15	C	0.159543	-1.033281	0.000118
C16	C	0.161764	-1.117313	0.000123
C17	C	-0.230266	-1.034792	0.000134
C18	C	-0.310947	-1.102614	0.000149
C19	C	-0.441929	-1.100519	0.000146
C20	C	-0.492230	-1.030596	0.000126
C21	C	-0.411549	-0.962775	0.000110
C22	C	-0.280566	-0.964876	0.000116
C23	C	-0.381167	-0.825037	0.000077
C24	C	-0.250185	-0.827130	0.000086
C25	C	-0.431468	-0.755114	0.000056
C26	C	-0.350786	-0.687291	0.000047
C27	C	-0.219798	-0.689388	0.000051
C28	C	-0.169504	-0.759308	0.000071
C29	C	0.398747	-0.890634	0.000096
C30	C	0.538151	-0.892859	0.000092
N31	N	0.169115	-0.894939	0.195769
C32	C	0.289883	-0.624698	0.000072
C33	C	0.287789	-0.545741	0.000083
C34	C	0.172313	-0.514687	0.000091
C35	C	0.058924	-0.562594	0.000097
C36	C	0.061020	-0.641549	0.000092
C37	C	0.050470	-0.244177	0.000118
C38	C	0.048383	-0.165216	0.000120
C39	C	0.277239	-0.148369	0.000109
C40	C	0.279335	-0.227324	0.000104
C41	C	0.165946	-0.275224	0.000114
C42	C	0.168219	-0.360838	0.000104
C43	C	0.170039	-0.429075	0.000096
N44	N	0.169142	-0.894979	-0.195563
C45	C	0.083620	-0.945960	0.239042
C46	C	0.083618	-0.945964	0.325589
C47	C	0.169120	-0.894949	0.368862
C48	C	0.254620	-0.843923	0.325583
C49	C	0.254614	-0.843916	0.239037
C50	C	0.254643	-0.843949	0.674611
C51	C	0.254645	-0.843961	0.761163
C52	C	0.083647	-0.945997	0.761162
C53	C	0.083642	-0.945990	0.674617
C54	C	0.169137	-0.894961	0.631346
C55	C	0.169136	-0.894956	0.537502
C56	C	0.169128	-0.894957	0.462704
H57	H	-0.269977	-1.159544	0.000173
O58	O	-0.619443	-1.028463	0.000223
C59	C	-0.654901	-0.989989	0.071431
H60	H	-0.570559	-0.950981	0.095173
H61	H	-0.735054	-0.954730	0.055399
H62	H	-0.687765	-1.033143	0.121299
H63	H	-0.538121	-0.753413	0.000049
H64	H	-0.045657	-0.139935	0.000128
H65	H	-0.391753	-0.630364	0.000025
H66	H	-0.041858	-0.283168	0.000127
O67	O	0.337629	-0.794440	0.367743
C68	C	0.319285	-0.805374	0.453411
H69	H	0.272225	-0.865300	0.465228
H70	H	0.414410	-0.797452	0.486291
H71	H	0.256390	-0.762211	0.477985
H72	H	-0.062854	-0.761023	0.000079
H73	H	0.014000	-0.987505	0.203815
O74	O	0.000534	-0.995607	0.367495
C75	C	-0.074941	-1.040626	0.310743
H76	H	-0.023459	-1.041733	0.249044
H77	H	-0.094199	-1.100970	0.335740
H78	H	-0.168195	-1.015579	0.301556
O79	O	-0.141606	-0.623433	0.000070
C80	C	-0.214097	-0.561275	0.000027
H81	H	-0.311923	-0.579966	0.026060
H82	H	-0.165642	-0.513702	0.039932
H83	H	-0.223345	-0.539895	-0.065942
H84	H	-0.507621	-1.155746	0.000152
O85	O	0.397890	-0.499177	0.000218
C86	C	0.403520	-0.452989	0.071418
H87	H	0.339225	-0.481566	0.121197
H88	H	0.504707	-0.444638	0.095306
H89	H	0.371182	-0.395415	0.055326
O90	O	0.402028	-0.654896	-0.000084
C91	C	0.410083	-0.700073	-0.071287
H92	H	0.344517	-0.681060	-0.121053
H93	H	0.511316	-0.693512	-0.095194
H94	H	0.380933	-0.762177	-0.055191
O95	O	-0.053141	-0.532305	0.000070
C96	C	-0.030681	-0.452345	0.000092
H97	H	0.067377	-0.434319	-0.025943
H98	H	-0.104557	-0.427719	-0.039822
H99	H	-0.036704	-0.430339	0.066055
O100	O	-0.049151	-0.688052	-0.000055
C101	C	-0.119286	-0.673870	-0.071250
H102	H	-0.052905	-0.647234	-0.121023
H103	H	-0.169810	-0.729617	-0.095153
H104	H	-0.191857	-0.633296	-0.055146
O105	O	0.391590	-0.257396	-0.000016
C106	C	0.460682	-0.232987	-0.071236
H107	H	0.426619	-0.178057	-0.094972
H108	H	0.565292	-0.222574	-0.055225
H109	H	0.446007	-0.278590	-0.121102
O110	O	0.387306	-0.101760	-0.000003
C111	C	0.392960	-0.055594	-0.071218
H112	H	0.293294	-0.051077	-0.094950
H113	H	0.439921	0.003491	-0.055201
H114	H	0.450234	-0.081864	-0.121088
O115	O	0.000463	-0.995572	0.632711
C116	C	-0.074981	-1.040619	0.689464
H117	H	-0.076330	-1.009590	0.751162
H118	H	-0.175297	-1.051638	0.664467
H119	H	-0.034323	-1.097054	0.698655
H120	H	0.014029	-0.987545	0.796403
H121	H	0.324273	-0.802416	0.796394
O122	O	0.337817	-0.794358	0.632713
C123	C	0.413263	-0.749325	0.689468
H124	H	0.414617	-0.780371	0.751154
H125	H	0.513578	-0.738298	0.664456
H126	H	0.372603	-0.692893	0.698688
H127	H	0.324232	-0.802368	0.203805
H128	H	-0.123616	-1.036505	0.000147
