data_functionalizedCrystal
_audit_creation_method	'MofGen! by Chris Wilmer'
_symmetry_space_group_name_H-M	'P1'
_symmetry_Int_Tables_number	1
_symmetry_cell_setting	triclinic
loop_
_symmetry_equiv_pos_as_xyz
  x,y,z
_cell_length_a	15.995280
_cell_length_b	14.472310
_cell_length_c	15.538191
_cell_angle_alpha	89.998969
_cell_angle_beta	65.367846
_cell_angle_gamma	89.986254
loop_
_atom_site_label
_atom_site_type_symbol
_atom_site_fract_x
_atom_site_fract_y
_atom_site_fract_z
O1	O	-1.074224	0.076847	-0.121111
O2	O	-0.574224	0.576847	0.378889
O3	O	-0.825862	0.076844	-0.136175
O4	O	-0.325862	0.576844	0.363825
O5	O	-0.998389	0.076850	0.008500
O6	O	-0.498389	0.576850	0.508500
O7	O	-0.901698	0.076840	-0.265786
O8	O	-0.401698	0.576840	0.234214
O9	O	-0.998353	-0.076832	0.008492
O10	O	-0.498353	0.423168	0.508492
O11	O	-0.825827	-0.076838	-0.136184
O12	O	-0.325827	0.423162	0.363816
O13	O	-1.074189	-0.076835	-0.121119
O14	O	-0.574189	0.423165	0.378881
Cu15	Cu	-0.950004	-0.090869	-0.128652
Cu16	Cu	-0.450004	0.409131	0.371348
Cu17	Cu	-0.950047	0.090878	-0.128642
Cu18	Cu	-0.450047	0.590878	0.371358
O19	O	-0.901662	-0.076842	-0.265795
O20	O	-0.401662	0.423158	0.234205
C21	C	-0.794834	0.000003	-0.135569
C22	C	-0.294834	0.500003	0.364431
C23	C	-0.702438	0.000002	-0.133736
C24	C	-0.202438	0.500002	0.366264
N25	N	-0.949981	-0.218700	-0.128659
N26	N	-0.449981	0.281300	0.371341
C27	C	-0.366745	0.000016	-0.127001
C28	C	0.133255	0.500016	0.372999
C29	C	-0.358322	0.000355	-0.231418
C30	C	0.141678	0.500355	0.268582
C31	C	-0.454396	0.000004	-0.233398
C32	C	0.045604	0.500004	0.266602
C33	C	-0.533286	0.000010	-0.130343
C34	C	-0.033286	0.500010	0.369657
C35	C	-0.520029	-0.087745	-0.078145
C36	C	-0.020029	0.412255	0.421855
C37	C	-0.423619	-0.087814	-0.076893
C38	C	0.076381	0.412186	0.423107
C39	C	-0.424452	0.086951	-0.074751
C40	C	0.075548	0.586951	0.425249
C41	C	-0.519771	0.088106	-0.078616
C42	C	-0.019771	0.588106	0.421384
C43	C	-0.627410	0.000003	-0.132226
C44	C	-0.127410	0.500003	0.367774
C45	C	-0.272622	0.000016	-0.125115
C46	C	0.227378	0.500016	0.374885
C47	C	-0.950047	-0.592791	-0.128638
C48	C	-0.450047	-0.092791	0.371362
C49	C	-0.857579	-0.553629	-0.205792
C50	C	-0.357579	-0.053629	0.294208
C51	C	-0.857653	-0.446541	-0.206073
C52	C	-0.357653	0.053459	0.293927
C53	C	-0.950013	-0.407200	-0.128649
C54	C	-0.450013	0.092800	0.371351
C55	C	-1.030863	-0.446037	-0.150093
C56	C	-0.530863	0.053963	0.349907
C57	C	-1.030309	-0.553159	-0.150642
C58	C	-0.530309	-0.053159	0.349358
C59	C	-0.962513	-0.553317	-0.029811
C60	C	-0.462513	-0.053317	0.470189
C61	C	-0.960309	-0.446190	-0.030471
C62	C	-0.460309	0.053810	0.469529
C63	C	-0.950001	-0.302312	-0.128652
C64	C	-0.450001	0.197688	0.371348
C65	C	-0.950064	-0.697679	-0.128637
C66	C	-0.450064	-0.197679	0.371363
C67	C	-0.105211	0.000010	-0.121738
C68	C	0.394789	0.500010	0.378262
C69	C	-0.197592	0.000023	-0.123608
C70	C	0.302408	0.500023	0.376392
C71	C	-1.008488	0.000012	0.043594
C72	C	-0.508488	0.500012	0.543594
C73	C	-1.038621	0.000022	0.148177
C74	C	-0.538621	0.500022	0.648177
N75	N	-0.950079	0.218709	-0.128628
N76	N	-0.450079	0.718709	0.371372
C77	C	-0.891563	-0.000002	-0.300889
C78	C	-0.391563	0.499998	0.199111
C79	C	-0.861430	-0.000005	-0.405471
C80	C	-0.361430	0.499995	0.094529
C81	C	-0.739252	-0.000001	0.435882
C82	C	-0.239252	0.499999	0.935882
C83	C	-0.767588	-0.000003	0.534156
C84	C	-0.267588	0.499997	1.034156
C85	C	-0.926973	-0.000001	0.556644
C86	C	-0.426973	0.499999	1.056644
C87	C	-0.898650	0.000005	0.458370
C88	C	-0.398650	0.500005	0.958370
C89	C	-0.804788	0.000004	0.397996
C90	C	-0.304788	0.500004	0.897996
C91	C	-0.964186	0.000011	0.420485
C92	C	-0.464186	0.500011	0.920485
C93	C	-0.935865	0.000012	0.322219
C94	C	-0.435865	0.500012	0.822219
C95	C	-0.842008	0.000008	0.261839
C96	C	-0.342008	0.500008	0.761839
C97	C	-0.776467	0.000006	0.299731
C98	C	-0.276467	0.500006	0.799731
C99	C	-1.058047	0.000006	0.480860
C100	C	-0.558047	0.500006	0.980860
C101	C	-1.123584	0.000011	0.442974
C102	C	-0.623584	0.500011	0.942974
C103	C	-1.095263	0.000019	0.344707
C104	C	-0.595263	0.500019	0.844707
C105	C	-1.001406	0.000015	0.284328
C106	C	-0.501406	0.500015	0.784328
C107	C	-1.160804	0.000022	0.306816
C108	C	-0.660804	0.500022	0.806816
C109	C	-1.132483	0.000023	0.208550
C110	C	-0.632483	0.500023	0.708550
C111	C	-0.973085	0.000016	0.186062
C112	C	-0.473085	0.500016	0.686062
H113	H	-0.461013	0.062912	-0.274272
H114	H	0.038987	0.562912	0.225728
Br115	Br	-0.440072	0.087945	0.053353
Br116	Br	0.059928	0.587945	0.553353
H117	H	-0.662820	0.000005	0.386722
H118	H	-0.162820	0.500005	0.886722
Br119	Br	-0.612823	0.096948	0.046762
Br120	Br	-0.112823	0.596948	0.546762
Br121	Br	-1.069108	-0.401575	0.069708
Br122	Br	-0.569108	0.098425	0.569708
Br123	Br	-1.146224	-0.403569	-0.058921
Br124	Br	-0.646224	0.096431	0.441079
H125	H	-0.796593	-0.420285	-0.193300
H126	H	-0.296593	0.079715	0.306700
Br127	Br	-1.021198	-0.401313	-0.268849
Br128	Br	-0.521198	0.098687	0.231151
H129	H	-0.906457	-0.580385	-0.009184
H130	H	-0.406457	-0.080385	0.490816
H131	H	-0.714213	-0.000021	0.564997
H132	H	-0.214213	0.499979	1.064997
Br133	Br	-0.360575	-0.197154	-0.137163
Br134	Br	0.139425	0.302846	0.362837
H135	H	-0.796245	-0.579417	-0.193229
H136	H	-0.296245	-0.079417	0.306771
Br137	Br	-0.531543	0.196317	-0.141926
Br138	Br	-0.031543	0.696317	0.358074
Br139	Br	-0.291295	0.105250	-0.298504
Br140	Br	0.208705	0.605250	0.201496
Br141	Br	-0.535071	-0.196606	-0.138569
Br142	Br	-0.035071	0.303394	0.361431
Br143	Br	-0.861435	-0.403888	-0.003340
Br144	Br	-0.361435	0.096112	0.496660
Br145	Br	-1.145810	-0.596340	-0.060438
Br146	Br	-0.645810	-0.096340	0.439562
Br147	Br	-0.611547	-0.093175	0.048257
Br148	Br	-0.111547	0.406825	0.548257
Br149	Br	-0.839084	-0.598462	-0.327346
Br150	Br	-0.339084	-0.098462	0.172654
H151	H	-0.432336	-0.091796	-0.000334
H152	H	0.067664	0.408204	0.499666
Br153	Br	-1.250963	0.000002	0.524918
Br154	Br	-0.750963	0.500002	1.024918
Br155	Br	-1.096484	-0.000007	0.614222
Br156	Br	-0.596484	0.499993	1.114222
Br157	Br	-1.221425	0.000008	0.157128
Br158	Br	-0.721425	0.500008	0.657128
Br159	Br	-0.649082	0.000017	0.217786
Br160	Br	-0.149082	0.500017	0.717786
Br161	Br	-0.845699	0.000028	0.104117
Br162	Br	-0.345699	0.500028	0.604117
Br163	Br	-0.289651	-0.103948	-0.298144
Br164	Br	0.210349	0.396052	0.201856
H165	H	-1.237226	0.000013	0.355986
H166	H	-0.737226	0.500013	0.855986
Br167	Br	-0.839159	-0.403811	-0.328322
Br168	Br	-0.339159	0.096189	0.171678
Br169	Br	-1.019605	-0.594796	-0.270767
Br170	Br	-0.519605	-0.094796	0.229233
H171	H	-1.030295	-0.578641	0.027604
H172	H	-0.530295	-0.078641	0.527604
H173	H	-0.460284	-0.063013	-0.274531
H174	H	0.039716	0.436987	0.225469
Br175	Br	-0.360737	0.197814	-0.129153
Br176	Br	0.139263	0.697814	0.370847
H177	H	-0.818950	0.000004	0.181826
H178	H	-0.318950	0.500004	0.681826
H179	H	-1.003395	-0.000004	0.605813
H180	H	-0.503395	0.499996	1.105813
