data_functionalizedCrystal
_audit_creation_method	'MofGen! by Chris Wilmer'
_symmetry_space_group_name_H-M	'P1'
_symmetry_Int_Tables_number	1
_symmetry_cell_setting	triclinic
loop_
_symmetry_equiv_pos_as_xyz
  x,y,z
_cell_length_a	6.394989
_cell_length_b	16.992694
_cell_length_c	16.053802
_cell_angle_alpha	92.750953
_cell_angle_beta	87.356563
_cell_angle_gamma	88.582967
loop_
_atom_site_label
_atom_site_type_symbol
_atom_site_fract_x
_atom_site_fract_y
_atom_site_fract_z
O1	O	-0.435392	-1.047996	-0.069315
O2	O	-0.430522	-0.819664	-0.069340
O3	O	-0.129434	-0.937071	-0.069328
O4	O	-0.736480	-0.930589	-0.069327
O5	O	-0.145934	-0.930608	0.069530
O6	O	-0.447022	-0.813201	0.069518
O7	O	-0.451892	-1.041533	0.069543
Zn8	Zn	-0.452077	-0.926341	0.091577
Zn9	Zn	-0.430337	-0.934856	-0.091374
O10	O	-0.752980	-0.924126	0.069531
C11	C	-0.432511	-0.787158	0.000086
C12	C	-0.413828	-0.699930	0.000076
N13	N	-0.466913	-0.920535	0.216437
C14	C	-0.449903	-1.074039	0.000115
C15	C	-0.468585	-1.161268	0.000119
C16	C	-0.059648	-0.932558	0.000098
C17	C	0.177241	-0.928641	0.000097
N18	N	-0.415486	-0.940668	-0.216234
C19	C	-0.594076	-0.651471	0.000077
C20	C	-0.576512	-0.569510	0.000089
C21	C	-0.378698	-0.536010	0.000093
C22	C	-0.198436	-0.584476	0.000095
C23	C	-0.216003	-0.666435	0.000089
C24	C	-0.305891	-0.291692	0.000116
C25	C	-0.288337	-0.209727	0.000119
C26	C	-0.666415	-0.194766	0.000114
C27	C	-0.683964	-0.276728	0.000103
C28	C	-0.503703	-0.325186	0.000109
N29	N	-0.360739	-0.452234	0.000102
N30	N	-0.521664	-0.408961	0.000106
C31	C	-0.338851	-0.970511	0.260136
C32	C	-0.349250	-0.966457	0.347542
C33	C	-0.487723	-0.912431	0.391248
C34	C	-0.615790	-0.862449	0.347543
C35	C	-0.605379	-0.866500	0.260138
C36	C	-0.533141	-0.894737	0.652656
C37	C	-0.543548	-0.890692	0.740067
C38	C	-0.277004	-0.994700	0.740060
C39	C	-0.266614	-0.998749	0.652654
C40	C	-0.394673	-0.948764	0.608956
N41	N	-0.498361	-0.908288	0.480591
N42	N	-0.384023	-0.952904	0.519615
H43	H	-0.755158	-0.678739	0.000073
H44	H	-0.127244	-0.182455	0.000122
H45	H	-0.637416	-0.854039	0.617084
H46	H	-0.845044	-0.303997	0.000090
H47	H	-0.709658	-0.825803	0.224559
O48	O	-0.750579	-0.810004	0.389902
C49	C	-0.957305	-0.825811	0.368546
H50	H	-0.954588	-0.859024	0.305082
H51	H	-1.034462	-0.863258	0.417731
C52	C	-1.085900	-0.706832	0.442455
C53	C	-1.082564	-0.747619	0.364503
H54	H	-1.163171	-0.658601	0.439965
H55	H	-0.946627	-0.696183	0.456846
H56	H	-1.150193	-0.738047	0.483434
H57	H	-1.018249	-0.716408	0.323528
H58	H	-1.221830	-0.758261	0.350105
O59	O	-0.751654	-0.522480	-0.000062
C60	C	-0.862408	-0.541307	-0.071973
H61	H	-0.750640	-0.570542	-0.122238
H62	H	-0.992397	-0.583466	-0.055723
C63	C	-1.096050	-0.429523	-0.042843
C64	C	-0.958770	-0.465424	-0.104581
H65	H	-1.155500	-0.382717	-0.062955
H66	H	-1.021439	-0.416840	0.005607
H67	H	-1.204356	-0.464663	-0.029307
H68	H	-0.850454	-0.430288	-0.118108
H69	H	-1.033366	-0.478100	-0.153034
H70	H	-0.813173	-0.155303	0.000110
H71	H	-0.226101	-1.014509	0.224557
H72	H	-0.159108	-0.331137	0.000121
H73	H	-0.153858	-1.042741	0.617070
H74	H	-0.069225	-0.705890	0.000088
O75	O	-0.224795	-1.015094	0.389862
C76	C	-0.100328	-1.063642	0.332544
H77	H	-0.178833	-1.068251	0.270233
H78	H	0.060519	-1.037053	0.323262
C79	C	0.020825	-1.140702	0.443172
C80	C	-0.075606	-1.146369	0.366644
H81	H	0.036084	-1.191732	0.464207
H82	H	-0.063024	-1.107994	0.481790
H83	H	0.154854	-1.118542	0.435427
H84	H	-0.209641	-1.168520	0.374392
H85	H	0.008222	-1.179083	0.328028
H86	H	-0.172742	-1.035394	0.775647
H87	H	-0.037372	-0.557194	0.000111
H88	H	-0.656317	-0.846695	0.775648
