data_functionalizedCrystal
_audit_creation_method	'MofGen! by Chris Wilmer'
_symmetry_space_group_name_H-M	'P1'
_symmetry_Int_Tables_number	1
_symmetry_cell_setting	triclinic
loop_
_symmetry_equiv_pos_as_xyz
  x,y,z
_cell_length_a	19.188930
_cell_length_b	19.188930
_cell_length_c	18.266242
_cell_angle_alpha	90.011475
_cell_angle_beta	89.977082
_cell_angle_gamma	96.855221
loop_
_atom_site_label
_atom_site_type_symbol
_atom_site_fract_x
_atom_site_fract_y
_atom_site_fract_z
O1	O	0.926149	-0.087169	-0.061124
O2	O	1.259483	0.246165	0.272209
O3	O	1.592816	0.579498	0.605542
O4	O	0.722838	-0.098903	-0.061075
O5	O	1.056171	0.234430	0.272258
O6	O	1.389505	0.567764	0.605591
O7	O	0.830361	0.008620	-0.061087
O8	O	1.163694	0.341953	0.272246
O9	O	1.497027	0.675286	0.605580
O10	O	0.818627	-0.194691	-0.061113
O11	O	1.151960	0.138642	0.272221
O12	O	1.485293	0.471975	0.605554
O13	O	0.830343	0.008625	0.060675
O14	O	1.163676	0.341959	0.394008
O15	O	1.497009	0.675292	0.727342
O16	O	0.722820	-0.098897	0.060687
O17	O	1.056153	0.234436	0.394020
O18	O	1.389486	0.567769	0.727353
O19	O	0.926131	-0.087163	0.060638
O20	O	1.259464	0.246170	0.393971
O21	O	1.592798	0.579503	0.727304
Zn22	Zn	0.824473	-0.093029	0.079994
Zn23	Zn	1.157806	0.240304	0.413328
Zn24	Zn	1.491139	0.573637	0.746661
Zn25	Zn	0.824497	-0.093037	-0.080432
Zn26	Zn	1.157830	0.240297	0.252901
Zn27	Zn	1.491163	0.573630	0.586234
O28	O	0.818608	-0.194686	0.060649
O29	O	1.151942	0.138647	0.393983
O30	O	1.485275	0.471981	0.727316
C31	C	0.696818	-0.098520	-0.000188
C32	C	1.030151	0.234813	0.333145
C33	C	1.363485	0.568146	0.666479
C34	C	0.619313	-0.097380	-0.000169
C35	C	0.952647	0.235954	0.333165
C36	C	1.285980	0.569287	0.666498
C37	C	0.574389	-0.160470	-0.000188
C38	C	0.907723	0.172863	0.333145
C39	C	1.241056	0.506196	0.666479
C40	C	0.501566	-0.159399	-0.000196
C41	C	0.834899	0.173935	0.333137
C42	C	1.168232	0.507268	0.666471
C43	C	0.473669	-0.095233	-0.000199
C44	C	0.807002	0.238101	0.333134
C45	C	1.140336	0.571434	0.666468
C46	C	0.518603	-0.032133	-0.000175
C47	C	0.851936	0.301200	0.333158
C48	C	1.185270	0.634533	0.666491
C49	C	0.591425	-0.033207	-0.000160
C50	C	0.924758	0.300126	0.333173
C51	C	1.258092	0.633460	0.666506
N52	N	0.365695	-0.046188	-0.041663
N53	N	0.699028	0.287146	0.291670
N54	N	1.032362	0.620479	0.625003
N55	N	0.296516	-0.045172	-0.041679
N56	N	0.629850	0.288161	0.291654
N57	N	0.963183	0.621495	0.624987
C58	C	0.254260	-0.091994	-0.000243
C59	C	0.587594	0.241339	0.333090
C60	C	0.920927	0.574672	0.666423
N61	N	0.283795	-0.139881	0.041200
N62	N	0.617128	0.193452	0.374533
N63	N	0.950462	0.526785	0.707867
N64	N	0.352980	-0.140899	0.041213
N65	N	0.686313	0.192434	0.374546
N66	N	1.019646	0.525768	0.707879
C67	C	0.394707	-0.094062	-0.000215
C68	C	0.728040	0.239272	0.333118
C69	C	1.061373	0.572605	0.666452
C70	C	0.130372	-0.153928	-0.000270
C71	C	0.463705	0.179406	0.333063
C72	C	0.797039	0.512739	0.666396
C73	C	0.057547	-0.152853	-0.000274
C74	C	0.390881	0.180480	0.333060
C75	C	0.724214	0.513813	0.666393
C76	C	0.074586	-0.025586	-0.000261
C77	C	0.407919	0.307747	0.333073
C78	C	0.741253	0.641080	0.666406
C79	C	0.147409	-0.026662	-0.000250
C80	C	0.480743	0.306671	0.333083
C81	C	0.814076	0.640004	0.666417
C82	C	0.175298	-0.090835	-0.000258
C83	C	0.508631	0.242498	0.333075
C84	C	0.841964	0.575832	0.666408
C85	C	0.829972	0.034634	-0.000204
C86	C	1.163305	0.367967	0.333130
C87	C	1.496638	0.701300	0.666463
C88	C	0.828831	0.112138	-0.000197
C89	C	1.162164	0.445471	0.333136
C90	C	1.495498	0.778805	0.666469
C91	C	0.952151	-0.087546	-0.000252
C92	C	1.285485	0.245787	0.333082
C93	C	1.618818	0.579121	0.666415
C94	C	1.029656	-0.088687	-0.000276
C95	C	1.362989	0.244647	0.333058
C96	C	1.696322	0.577980	0.666391
C97	C	0.818997	-0.220700	-0.000236
C98	C	1.152331	0.112634	0.333098
C99	C	1.485664	0.445967	0.666431
C100	C	0.820138	-0.298204	-0.000247
C101	C	1.153471	0.035129	0.333086
C102	C	1.486805	0.368462	0.666420
N103	N	0.824461	-0.093024	0.189481
N104	N	1.157795	0.240309	0.522815
N105	N	1.491128	0.573643	0.856148
C106	C	0.891922	0.157062	-0.000209
C107	C	1.225255	0.490395	0.333124
C108	C	1.558589	0.823729	0.666458
C109	C	0.890850	0.229886	-0.000220
C110	C	1.224184	0.563219	0.333113
C111	C	1.557517	0.896552	0.666446
C112	C	0.826684	0.257782	-0.000206
C113	C	1.160017	0.591116	0.333128
C114	C	1.493351	0.924449	0.666461
C115	C	0.763585	0.212849	-0.000198
C116	C	1.096918	0.546182	0.333135
C117	C	1.430252	0.879515	0.666469
C118	C	0.764658	0.140026	-0.000194
C119	C	1.097992	0.473360	0.333140
C120	C	1.431325	0.806693	0.666473
N121	N	0.777631	0.365789	0.041244
N122	N	1.110964	0.699123	0.374578
N123	N	1.444297	1.032456	0.707911
N124	N	0.776615	0.434968	0.041242
N125	N	1.109948	0.768301	0.374575
N126	N	1.443282	1.101635	0.707909
C127	C	0.823446	0.477191	-0.000220
C128	C	1.156779	0.810524	0.333114
C129	C	1.490113	1.143858	0.666447
N130	N	0.871341	0.447624	-0.041669
N131	N	1.204675	0.780957	0.291664
N132	N	1.538008	1.114290	0.624997
N133	N	0.872359	0.378439	-0.041664
N134	N	1.205692	0.711772	0.291670
N135	N	1.539025	1.045106	0.625003
C136	C	0.825513	0.336745	-0.000210
C137	C	1.158846	0.670078	0.333123
C138	C	1.492180	1.003412	0.666456
C139	C	0.885379	0.601079	-0.000245
C140	C	1.218712	0.934413	0.333089
C141	C	1.552046	1.267746	0.666422
C142	C	0.884305	0.673904	-0.000261
C143	C	1.217638	1.007238	0.333073
C144	C	1.550971	1.340571	0.666406
C145	C	0.757038	0.656865	-0.000231
C146	C	1.090371	0.990199	0.333103
C147	C	1.423704	1.323532	0.666436
C148	C	0.758114	0.584042	-0.000222
C149	C	1.091447	0.917376	0.333111
C150	C	1.424781	1.250709	0.666444
C151	C	0.822287	0.556154	-0.000226
C152	C	1.155620	0.889487	0.333108
C153	C	1.488953	1.222821	0.666441
N154	N	0.824513	-0.093037	-0.189919
N155	N	1.157847	0.240297	0.143414
N156	N	1.491180	0.573630	0.476747
C157	C	0.872088	-0.045436	0.227785
C158	C	1.205421	0.287897	0.561118
C159	C	1.538755	0.621230	0.894452
C160	C	0.872092	-0.045433	0.304430
C161	C	1.205426	0.287900	0.637763
C162	C	1.538759	0.621234	0.971097
C163	C	0.824477	-0.093030	0.342768
C164	C	1.157810	0.240304	0.676102
C165	C	1.491144	0.573637	1.009435
C166	C	0.776841	-0.140621	0.304455
C167	C	1.110175	0.192712	0.637789
C168	C	1.443508	0.526046	0.971122
C169	C	0.776834	-0.140618	0.227812
C170	C	1.110167	0.192715	0.561145
C171	C	1.443500	0.526048	0.894479
N172	N	0.815401	-0.154837	0.463094
N173	N	1.148735	0.178496	0.796427
N174	N	1.482068	0.511830	1.129761
N175	N	0.815413	-0.154838	0.535902
N176	N	1.148746	0.178496	0.869236
N177	N	1.482080	0.511829	1.202569
C178	C	0.824496	-0.093040	0.573691
C179	C	1.157830	0.240294	0.907024
C180	C	1.491163	0.573627	1.240357
N181	N	0.833582	-0.031239	0.535920
N182	N	1.166915	0.302094	0.869254
N183	N	1.500248	0.635427	1.202587
N184	N	0.833574	-0.031240	0.463106
N185	N	1.166907	0.302094	0.796439
N186	N	1.500240	0.635427	1.129772
C187	C	0.824480	-0.093038	0.425875
C188	C	1.157813	0.240296	0.759209
C189	C	1.491146	0.573629	1.092542
C190	C	0.872131	-0.045444	0.695101
C191	C	1.205464	0.287889	1.028435
C192	C	1.538797	0.621222	1.361768
C193	C	0.872130	-0.045440	0.771748
C194	C	1.205463	0.287893	1.105081
C195	C	1.538797	0.621226	1.438414
C196	C	0.776882	-0.140634	0.771772
C197	C	1.110216	0.192699	1.105105
C198	C	1.443549	0.526032	1.438438
C199	C	0.776879	-0.140632	0.695127
C200	C	1.110213	0.192701	1.028460
C201	C	1.443546	0.526034	1.361794
C202	C	0.824507	-0.093038	0.656796
C203	C	1.157841	0.240295	0.990130
C204	C	1.491174	0.573628	1.323463
H205	H	0.153080	-0.206181	-0.000267
H206	H	0.486413	0.127153	0.333067
H207	H	0.819746	0.460486	0.666400
C208	C	0.628402	0.074931	-0.062740
C209	C	0.961735	0.408264	0.270593
C210	C	1.295068	0.741598	0.603927
C211	C	0.640812	0.036147	-0.000147
C212	C	0.974145	0.369480	0.333186
C213	C	1.307479	0.702813	0.666520
H214	H	0.658896	0.117745	-0.062734
H215	H	0.992229	0.451078	0.270599
H216	H	1.325563	0.784411	0.603933
H217	H	0.581046	0.084754	-0.062740
H218	H	0.914380	0.418087	0.270594
H219	H	1.247713	0.751420	0.603927
H220	H	0.636859	0.048599	-0.105197
H221	H	0.970192	0.381932	0.228137
H222	H	1.303526	0.715266	0.561470
H223	H	0.632349	0.062477	0.042310
H224	H	0.965683	0.395810	0.375643
H225	H	1.299016	0.729143	0.708977
H226	H	0.688179	0.026326	-0.000141
H227	H	1.021512	0.359659	0.333193
H228	H	1.354845	0.692992	0.666526
C229	C	0.735463	-0.261596	0.328037
C230	C	1.068796	0.071737	0.661370
C231	C	1.402129	0.405070	0.994704
C232	C	0.724499	-0.192941	0.346590
C233	C	1.057832	0.140392	0.679924
C234	C	1.391165	0.473726	1.013257
H235	H	0.703141	-0.293894	0.354046
H236	H	1.036475	0.039439	0.687379
H237	H	1.369808	0.372772	1.020712
H238	H	0.782029	-0.269064	0.340575
H239	H	1.115362	0.064269	0.673908
H240	H	1.448695	0.397603	1.007242
H241	H	0.728641	-0.268395	0.276907
H242	H	1.061975	0.064939	0.610240
H243	H	1.395308	0.398272	0.943573
H244	H	0.731325	-0.186141	0.397720
H245	H	1.064658	0.147192	0.731053
H246	H	1.397992	0.480526	1.064387
H247	H	0.677922	-0.185471	0.334057
H248	H	1.011255	0.147863	0.667390
H249	H	1.344588	0.481196	1.000724
C250	C	0.632213	0.574518	-0.000182
C251	C	0.965546	0.907851	0.333151
C252	C	1.298879	1.241184	0.666484
C253	C	0.688761	0.534657	-0.000196
C254	C	1.022095	0.867990	0.333137
C255	C	1.355428	1.201323	0.666470
H256	H	0.589396	0.544027	-0.000163
H257	H	0.922729	0.877361	0.333170
H258	H	1.256063	1.210694	0.666504
H259	H	0.634445	0.603262	-0.042644
H260	H	0.967778	0.936595	0.290689
H261	H	1.301111	1.269929	0.624022
H262	H	0.634441	0.603289	0.042278
H263	H	0.967775	0.936622	0.375612
H264	H	1.301108	1.269956	0.708945
H265	H	0.686535	0.505889	-0.042660
H266	H	1.019869	0.839222	0.290673
H267	H	1.353202	1.172556	0.624007
H268	H	0.686528	0.505900	0.042270
H269	H	1.019862	0.839233	0.375603
H270	H	1.353195	1.172567	0.708937
H271	H	0.910868	-0.006681	0.196579
H272	H	1.244201	0.326653	0.529912
H273	H	1.577534	0.659986	0.863245
H274	H	0.711340	0.235567	-0.000187
H275	H	1.044674	0.568900	0.333146
H276	H	1.378007	0.902233	0.666479
H277	H	0.910910	-0.006688	0.663892
H278	H	1.244243	0.326645	0.997225
H279	H	1.577577	0.659979	1.330558
C280	C	0.048025	-0.278757	-0.000304
C281	C	0.381358	0.054576	0.333030
C282	C	0.714691	0.387909	0.666363
C283	C	0.008163	-0.222209	-0.000296
C284	C	0.341496	0.111125	0.333038
C285	C	0.674830	0.444458	0.666371
H286	H	0.017535	-0.321574	-0.000322
H287	H	0.350868	0.011759	0.333012
H288	H	0.684201	0.345093	0.666345
H289	H	0.076758	-0.276532	0.042160
H290	H	0.410091	0.056802	0.375493
H291	H	0.743425	0.390135	0.708827
H292	H	0.076807	-0.276521	-0.042763
H293	H	0.410140	0.056812	0.290571
H294	H	0.743474	0.390145	0.623904
H295	H	-0.020616	-0.224442	0.042166
H296	H	0.312718	0.108892	0.375500
H297	H	0.646051	0.442225	0.708833
H298	H	-0.020582	-0.224435	-0.042764
H299	H	0.312751	0.108898	0.290570
H300	H	0.646084	0.442231	0.623903
H301	H	0.910911	-0.006685	0.802935
H302	H	1.244245	0.326649	1.136269
H303	H	1.577578	0.659982	1.469602
H304	H	0.910877	-0.006680	0.335623
H305	H	1.244210	0.326654	0.668956
H306	H	1.577544	0.659987	1.002289
C307	C	0.939168	0.793098	-0.000293
C308	C	1.272502	1.126432	0.333040
C309	C	1.605835	1.459765	0.666374
C310	C	0.953660	0.723289	-0.000281
C311	C	1.286993	1.056623	0.333052
C312	C	1.620326	1.389956	0.666386
H313	H	0.981987	0.823586	-0.000311
H314	H	1.315320	1.156919	0.333022
H315	H	1.648653	1.490253	0.666356
H316	H	0.912846	0.801543	0.042169
H317	H	1.246179	1.134877	0.375502
H318	H	1.579512	1.468210	0.708836
H319	H	0.912854	0.801511	-0.042753
H320	H	1.246187	1.134845	0.290580
H321	H	1.579521	1.468178	0.623913
H322	H	0.979970	0.714875	0.042183
H323	H	1.313303	1.048208	0.375516
H324	H	1.646636	1.381542	0.708849
H325	H	0.979994	0.714841	-0.042747
H326	H	1.313327	1.048174	0.290586
H327	H	1.646660	1.381508	0.623919
H328	H	0.704792	0.679578	-0.000222
H329	H	1.038126	1.012911	0.333111
H330	H	1.371459	1.346245	0.666444
C331	C	0.960419	0.529043	-0.062847
C332	C	1.293752	0.862376	0.270486
C333	C	1.627085	1.195709	0.603819
C334	C	0.955913	0.570414	-0.000259
C335	C	1.289246	0.903747	0.333074
C336	C	1.622579	1.237080	0.666408
H337	H	1.003961	0.510109	-0.062853
H338	H	1.337295	0.843442	0.270481
H339	H	1.670628	1.176776	0.603814
H340	H	0.957365	0.557087	-0.105303
H341	H	1.290698	0.890420	0.228031
H342	H	1.624031	1.223753	0.561364
H343	H	0.922991	0.491867	-0.062825
H344	H	1.256324	0.825200	0.270509
H345	H	1.589657	1.158534	0.603842
H346	H	0.993338	0.607593	-0.000284
H347	H	1.326672	0.940926	0.333049
H348	H	1.660005	1.274259	0.666382
H349	H	0.958974	0.542368	0.042207
H350	H	1.292307	0.875701	0.375541
H351	H	1.625641	1.209035	0.708874
C352	C	0.761383	-0.235676	0.141607
C353	C	1.094717	0.097657	0.474940
C354	C	1.428050	0.430991	0.808273
C355	C	0.724484	-0.192936	0.185703
C356	C	1.057817	0.140398	0.519036
C357	C	1.391151	0.473731	0.852369
H358	H	0.729065	-0.267972	0.115607
H359	H	1.062398	0.065361	0.448940
H360	H	1.395731	0.398694	0.782274
H361	H	0.790361	-0.260718	0.171488
H362	H	1.123695	0.072616	0.504822
H363	H	1.457028	0.405949	0.838155
H364	H	0.789741	-0.207322	0.107811
H365	H	1.123074	0.126011	0.441144
H366	H	1.456407	0.459344	0.774477
H367	H	0.696131	-0.221289	0.219503
H368	H	1.029464	0.112044	0.552836
H369	H	1.362797	0.445378	0.886169
H370	H	0.695494	-0.167892	0.155819
H371	H	1.028827	0.165441	0.489152
H372	H	1.362161	0.498775	0.822485
H373	H	0.713281	0.103448	-0.000184
H374	H	1.046614	0.436782	0.333149
H375	H	1.379947	0.770115	0.666483
H376	H	0.738100	-0.179386	0.663938
H377	H	1.071433	0.153948	0.997271
H378	H	1.404767	0.487281	1.330605
C379	C	-0.029475	0.032568	-0.000286
C380	C	0.303858	0.365901	0.333047
C381	C	0.637191	0.699235	0.666380
C382	C	0.043931	0.044948	-0.000268
C383	C	0.377264	0.378281	0.333065
C384	C	0.710597	0.711614	0.666399
H385	H	-0.048401	0.076115	-0.000294
H386	H	0.284932	0.409448	0.333039
H387	H	0.618266	0.742782	0.666372
H388	H	-0.044929	0.006609	0.042168
H389	H	0.288405	0.339942	0.375502
H390	H	0.621738	0.673275	0.708835
H391	H	-0.044879	0.006594	-0.042754
H392	H	0.288455	0.339927	0.290579
H393	H	0.621788	0.673261	0.623912
H394	H	0.059335	0.070917	0.042203
H395	H	0.392668	0.404251	0.375536
H396	H	0.726001	0.737584	0.708869
H397	H	0.059391	0.070918	-0.042727
H398	H	0.392724	0.404251	0.290606
H399	H	0.726057	0.737585	0.623940
C400	C	0.681830	-0.156023	0.858005
C401	C	1.015163	0.177310	1.191338
C402	C	1.348497	0.510644	1.524672
C403	C	0.724540	-0.192953	0.813905
C404	C	1.057874	0.140380	1.147238
C405	C	1.391207	0.473714	1.480571
H406	H	0.649517	-0.188323	0.884021
H407	H	0.982850	0.145010	1.217354
H408	H	1.316184	0.478343	1.550687
H409	H	0.656807	-0.127027	0.828124
H410	H	0.990140	0.206306	1.161458
H411	H	1.323473	0.539640	1.494791
H412	H	0.710202	-0.127681	0.891787
H413	H	1.043535	0.205652	1.225120
H414	H	1.376869	0.538985	1.558453
H415	H	0.696168	-0.221291	0.780119
H416	H	1.029502	0.112042	1.113452
H417	H	1.362835	0.445376	1.446786
H418	H	0.749565	-0.221961	0.843788
H419	H	1.082899	0.111372	1.177121
H420	H	1.416232	0.444706	1.510455
H421	H	0.597091	-0.212725	-0.000196
H422	H	0.930424	0.120609	0.333137
H423	H	1.263758	0.453942	0.666470
H424	H	0.464982	-0.210776	-0.000210
H425	H	0.798315	0.122557	0.333124
H426	H	1.131648	0.455890	0.666457
H427	H	0.495885	0.020111	-0.000188
H428	H	0.829218	0.353444	0.333145
H429	H	1.162552	0.686778	0.666479
C430	C	0.156934	0.099239	-0.000247
C431	C	0.490267	0.432572	0.333086
C432	C	0.823600	0.765906	0.666420
C433	C	0.196795	0.042690	-0.000240
C434	C	0.530128	0.376023	0.333093
C435	C	0.863462	0.709357	0.666427
H436	H	0.187424	0.142055	-0.000244
H437	H	0.520757	0.475389	0.333090
H438	H	0.854091	0.808722	0.666423
H439	H	0.128155	0.097015	0.042206
H440	H	0.461488	0.430348	0.375539
H441	H	0.794822	0.763681	0.708873
H442	H	0.128197	0.097002	-0.042717
H443	H	0.461530	0.430336	0.290617
H444	H	0.794864	0.763669	0.623950
H445	H	0.225528	0.044924	0.042233
H446	H	0.558861	0.378257	0.375566
H447	H	0.892195	0.711590	0.708899
H448	H	0.225586	0.044916	-0.042697
H449	H	0.558919	0.378249	0.290636
H450	H	0.892252	0.711582	0.623969
H451	H	0.944176	0.134360	-0.000214
H452	H	1.277509	0.467694	0.333119
H453	H	1.610843	0.801027	0.666452
H454	H	0.942228	0.266470	-0.000233
H455	H	1.275561	0.599803	0.333100
H456	H	1.608895	0.933137	0.666434
