data_functionalizedCrystal
_audit_creation_method	'MofGen! by Chris Wilmer'
_symmetry_space_group_name_H-M	'P1'
_symmetry_Int_Tables_number	1
_symmetry_cell_setting	triclinic
loop_
_symmetry_equiv_pos_as_xyz
  x,y,z
_cell_length_a	14.044220
_cell_length_b	14.853567
_cell_length_c	13.330367
_cell_angle_alpha	90.004582
_cell_angle_beta	89.994700
_cell_angle_gamma	91.588096
loop_
_atom_site_label
_atom_site_type_symbol
_atom_site_fract_x
_atom_site_fract_y
_atom_site_fract_z
O1	O	0.123767	-1.206175	-0.083357
O2	O	0.138510	-0.944883	-0.083374
O3	O	-0.006851	-1.071607	-0.083356
O4	O	0.269128	-1.079451	-0.083375
O5	O	-0.006854	-1.071587	0.083491
O6	O	0.138507	-0.944863	0.083473
O7	O	0.123764	-1.206154	0.083490
Cu8	Cu	0.131135	-1.075507	0.098716
Cu9	Cu	0.131139	-1.075531	-0.098600
O10	O	0.269125	-1.079431	0.083472
C11	C	0.137841	-0.911231	0.000047
C12	C	0.135839	-0.810989	0.000041
C13	C	-0.042172	-1.068163	0.000068
C14	C	-0.147411	-1.057921	0.000069
C15	C	0.124433	-1.239806	0.000067
C16	C	0.126435	-1.340048	0.000067
C17	C	-0.340097	-1.039197	0.000053
C18	C	-0.397635	-1.111836	0.000055
C19	C	-0.504852	-1.101418	0.000046
C20	C	-0.232870	-1.049614	0.000062
C21	C	0.304446	-1.082874	0.000046
C22	C	0.409685	-1.093116	0.000039
N23	N	0.131132	-1.075496	0.237498
C24	C	0.041029	-0.390944	0.000070
C25	C	0.213721	-0.383345	0.000057
C26	C	0.215604	-0.477528	0.000054
C27	C	0.130197	-0.528423	0.000057
C28	C	0.042908	-0.485135	0.000064
C29	C	0.302891	-0.520822	0.000037
C30	C	0.304777	-0.615011	0.000032
C31	C	0.219369	-0.665908	0.000043
C32	C	0.132077	-0.622615	0.000051
C33	C	0.046670	-0.673510	0.000054
C34	C	-0.040623	-0.630218	0.000069
C35	C	-0.042499	-0.536032	0.000074
C36	C	0.221246	-0.760094	0.000038
C37	C	0.048550	-0.767702	0.000048
N38	N	0.131135	-1.075548	-0.237381
C39	C	0.195480	-1.019413	0.710112
C40	C	0.066791	-1.131672	0.710097
C41	C	0.066788	-1.131662	0.605078
C42	C	0.131133	-1.075527	0.552572
C43	C	0.195481	-1.019403	0.605084
C44	C	0.002448	-1.187792	0.552558
C45	C	0.002443	-1.187785	0.447534
C46	C	0.066784	-1.131644	0.395025
C47	C	0.131134	-1.075517	0.447544
C48	C	0.195479	-1.019382	0.395038
C49	C	0.259825	-0.963249	0.447555
C50	C	0.259822	-0.963262	0.552576
C51	C	0.066787	-1.131631	0.290004
C52	C	0.195480	-1.019372	0.290010
H53	H	-0.366371	-1.181849	-0.000008
F54	F	0.263955	-0.959671	0.766002
H55	H	-0.021000	-0.809134	0.000054
F56	F	-0.001681	-1.191418	0.765977
H57	H	-0.371358	-0.969191	0.000046
H58	H	0.292318	-0.795338	0.000027
F59	F	-0.131516	-0.684395	0.000065
H60	H	-0.113569	-0.500776	0.000110
H61	H	-0.030044	-0.355691	0.000086
F62	F	0.304612	-0.329177	0.000041
F63	F	0.328309	-0.903514	0.391663
F64	F	0.393780	-0.466652	0.000019
H65	H	0.375856	-0.650251	0.000020
H66	H	0.247874	-0.973656	0.247266
F67	F	0.328300	-0.903528	0.608472
F68	F	-0.066040	-1.247522	0.391649
H69	H	-0.049936	-1.233500	0.595312
H70	H	0.014402	-1.177338	0.247250
