data_functionalizedCrystal
_audit_creation_method	'MofGen! by Chris Wilmer'
_symmetry_space_group_name_H-M	'P1'
_symmetry_Int_Tables_number	1
_symmetry_cell_setting	triclinic
loop_
_symmetry_equiv_pos_as_xyz
  x,y,z
_cell_length_a	23.532407
_cell_length_b	22.010155
_cell_length_c	9.065218
_cell_angle_alpha	90.006172
_cell_angle_beta	96.067719
_cell_angle_gamma	90.003069
loop_
_atom_site_label
_atom_site_type_symbol
_atom_site_fract_x
_atom_site_fract_y
_atom_site_fract_z
O1	O	0.756578	0.050447	-0.179054
O2	O	0.590905	0.050465	-0.204964
O3	O	0.677166	0.050454	0.022802
O4	O	0.670317	0.050457	-0.406820
O5	O	0.677151	-0.050596	0.022768
O6	O	0.590890	-0.050586	-0.204998
O7	O	0.756563	-0.050603	-0.179088
Cu8	Cu	0.673725	-0.059821	-0.192046
Cu9	Cu	0.673743	0.059682	-0.192006
O10	O	0.670302	-0.050593	-0.406854
C11	C	0.569676	-0.000058	-0.204321
C12	C	0.506445	-0.000052	-0.202338
C13	C	0.108240	-0.000078	-0.324683
C14	C	0.048826	-0.000082	-0.322840
O15	O	0.012914	-0.000103	-0.436255
N16	N	0.025206	-0.000082	-0.187433
C17	C	0.061003	-0.000084	-0.053860
O18	O	0.035456	-0.000085	0.061484
C19	C	0.120415	-0.000085	-0.055704
C20	C	0.144032	-0.000079	-0.191120
C21	C	0.131857	-0.000073	-0.460088
C22	C	0.191267	-0.000068	-0.461930
C23	C	0.227059	-0.000069	-0.328367
C24	C	0.203442	-0.000074	-0.192962
C25	C	0.156211	-0.000092	0.077867
C26	C	0.215627	-0.000093	0.076011
C27	C	0.239244	-0.000087	-0.059405
C28	C	0.298644	-0.000070	-0.061242
N29	N	0.322264	-0.000070	-0.196649
C30	C	0.286472	-0.000069	-0.330211
C31	C	-0.063768	-0.000084	-0.049997
C32	C	-0.123180	-0.000079	-0.048151
C33	C	-0.135352	-0.000078	-0.317131
C34	C	-0.075939	-0.000079	-0.318976
C35	C	-0.040148	-0.000084	-0.185404
C36	C	0.411237	-0.000058	-0.334070
C37	C	0.470653	-0.000051	-0.335900
C38	C	0.482820	-0.000056	-0.066921
C39	C	0.423410	-0.000060	-0.065089
C40	C	0.387619	-0.000063	-0.198676
O41	O	0.334591	-0.000051	0.052114
O42	O	0.312027	-0.000076	-0.445536
N43	N	0.673716	-0.143874	-0.192074
C44	C	0.711942	-0.563658	-0.091165
C45	C	0.711945	-0.627265	-0.091155
O46	O	0.744423	-0.660161	-0.005378
N47	N	0.673743	-0.659081	-0.191975
C48	C	0.635532	-0.627286	-0.292802
O49	O	0.603038	-0.660188	-0.378555
C50	C	0.635527	-0.563679	-0.292804
C51	C	0.673735	-0.531867	-0.191987
C52	C	0.750147	-0.531845	0.009645
C53	C	0.750145	-0.468242	0.009632
C54	C	0.711938	-0.436451	-0.091190
C55	C	0.673733	-0.468264	-0.191999
C56	C	0.597314	-0.531885	-0.393622
C57	C	0.597312	-0.468274	-0.393615
C58	C	0.635520	-0.436462	-0.292798
C59	C	0.635525	-0.372869	-0.292834
N60	N	0.673726	-0.341054	-0.192014
C61	C	0.711933	-0.372845	-0.091192
C62	C	0.635544	-0.760863	-0.292788
C63	C	0.635552	-0.824469	-0.292795
C64	C	0.711964	-0.824444	-0.091145
C65	C	0.711959	-0.760838	-0.091147
C66	C	0.673746	-0.729048	-0.191968
C67	C	0.711926	-0.239274	-0.091226
C68	C	0.711922	-0.175665	-0.091252
C69	C	0.635509	-0.175695	-0.292895
C70	C	0.635514	-0.239298	-0.292875
C71	C	0.673725	-0.271086	-0.192029
O72	O	0.603061	-0.339934	-0.378563
O73	O	0.744416	-0.339935	-0.005440
C74	C	0.777791	-0.000079	-0.179731
C75	C	0.841023	-0.000082	-0.181714
C76	C	0.676500	-0.000070	0.077739
C77	C	0.674532	-0.000067	0.241485
N78	N	0.673757	0.143735	-0.191967
C79	C	0.670968	-0.000068	-0.461791
C80	C	0.672936	-0.000067	-0.625537
H81	H	-0.056715	-0.000077	-0.429243
H82	H	0.102721	-0.000074	-0.568857
O83	O	-0.025164	-0.000085	0.094079
H84	H	-0.033645	0.041104	0.158925
H85	H	0.781259	-0.557724	0.091753
O86	O	0.372644	-0.000059	-0.478157
H87	H	0.345287	-0.041250	-0.483791
O88	O	0.753140	-0.273554	0.017537
H89	H	0.781133	-0.302537	-0.044198
H90	H	0.781255	-0.442344	0.091730
O91	O	-0.173964	-0.000089	-0.461194
H92	H	-0.201329	0.041091	-0.466772
H93	H	-0.142403	-0.000075	0.062118
H94	H	0.210490	-0.000063	-0.572199
H95	H	0.604445	-0.850366	-0.374904
H96	H	0.511972	-0.000054	0.041822
H97	H	0.136993	-0.000097	0.188137
O98	O	0.753131	-0.141358	0.017512
H99	H	0.728786	-0.112377	0.088883
H100	H	0.244767	-0.000098	0.184784
H101	H	0.743071	-0.734940	-0.009053
H102	H	0.404180	-0.000056	0.045177
H103	H	0.743073	-0.850340	-0.009049
H104	H	0.604429	-0.734983	-0.374901
O105	O	0.556124	-0.566188	-0.502414
H106	H	0.529563	-0.533386	-0.572518
O107	O	0.556100	-0.433985	-0.502367
H108	H	0.529538	-0.466797	-0.572471
O109	O	0.594303	-0.141396	-0.401632
H110	H	0.567736	-0.174199	-0.471747
O111	O	0.594307	-0.273616	-0.401612
H112	H	0.567738	-0.240821	-0.471716
H113	H	0.489878	-0.000046	-0.446177
