data_functionalizedCrystal
_audit_creation_method	'MofGen! by Chris Wilmer'
_symmetry_space_group_name_H-M	'P1'
_symmetry_Int_Tables_number	1
_symmetry_cell_setting	triclinic
loop_
_symmetry_equiv_pos_as_xyz
  x,y,z
_cell_length_a	10.489716
_cell_length_b	10.489746
_cell_length_c	10.268362
_cell_angle_alpha	90.001713
_cell_angle_beta	89.996705
_cell_angle_gamma	95.464781
loop_
_atom_site_label
_atom_site_type_symbol
_atom_site_fract_x
_atom_site_fract_y
_atom_site_fract_z
O1	O	-0.179995	1.694035	0.108219
O2	O	-0.196881	1.322839	0.108242
O3	O	-0.002838	1.516899	0.108215
O4	O	-0.374038	1.499974	0.108246
O5	O	-0.002845	1.516881	-0.108386
O6	O	-0.196888	1.322820	-0.108359
O7	O	-0.180002	1.694016	-0.108382
Cu8	Cu	-0.188445	1.508416	-0.128148
Cu9	Cu	-0.188438	1.508438	0.128008
O10	O	-0.374044	1.499955	-0.108355
C11	C	-0.195608	1.275298	-0.000056
C12	C	-0.191788	1.133669	-0.000048
C13	C	-0.066063	0.980822	-0.000077
C14	C	-0.128924	1.058201	-0.106863
C15	C	-0.128946	1.058175	0.106688
C16	C	-0.247906	0.958699	-0.106955
C17	C	-0.247912	0.958668	0.106692
C18	C	-0.310860	1.035998	-0.000120
C19	C	-0.421573	1.501236	-0.000050
C20	C	-0.563204	1.505041	-0.000039
C21	C	-0.660876	1.386037	-0.000050
C22	C	-0.738249	1.448931	0.106731
C23	C	-0.738191	1.448939	-0.106820
C24	C	-0.638712	1.567886	0.106830
C25	C	-0.638648	1.567876	-0.106817
C26	C	-0.715972	1.630858	-0.000010
C27	C	0.044690	1.515618	-0.000087
C28	C	0.186322	1.511814	-0.000090
C29	C	-0.181275	1.741557	-0.000081
C30	C	-0.185095	1.883186	-0.000080
N31	N	-0.188450	1.508410	-0.308314
C32	C	-0.188451	1.508419	-0.426156
C33	C	-0.188439	1.508435	-0.573994
N34	N	-0.188423	1.508455	0.308174
H35	H	-0.078677	1.101674	-0.197155
H36	H	-0.740404	1.734449	0.000038
N37	N	-0.065865	1.112696	0.219934
N38	N	0.049855	1.099542	0.238919
H39	H	0.094417	1.138048	0.318892
N40	N	-0.629928	1.256179	0.000104
N41	N	-0.666120	1.183318	0.091949
H42	H	-0.644264	1.091606	0.092063
H43	H	-0.781751	1.398703	0.197019
H44	H	-0.298124	0.915408	-0.197340
H45	H	0.037440	0.956111	-0.000193
N46	N	-0.584052	1.630821	-0.220094
N47	N	-0.616169	1.590198	-0.330905
H48	H	-0.577609	1.634643	-0.410918
N49	N	-0.584392	1.630884	0.220210
N50	N	-0.466124	1.638056	0.238550
H51	H	-0.427756	1.682547	0.318623
H52	H	-0.414440	1.060465	-0.000170
N53	N	-0.792734	1.385886	-0.220072
N54	N	-0.873987	1.291415	-0.208203
H55	H	-0.912512	1.246876	-0.288180
N56	N	-0.310884	0.904111	0.219974
N57	N	-0.270261	0.936236	0.330782
H58	H	-0.314727	0.897706	0.410799
