data_functionalizedCrystal
_audit_creation_method	'MofGen! by Chris Wilmer'
_symmetry_space_group_name_H-M	'P1'
_symmetry_Int_Tables_number	1
_symmetry_cell_setting	triclinic
loop_
_symmetry_equiv_pos_as_xyz
  x,y,z
_cell_length_a	18.050589
_cell_length_b	13.897449
_cell_length_c	13.897441
_cell_angle_alpha	90.018596
_cell_angle_beta	89.973098
_cell_angle_gamma	89.970500
loop_
_atom_site_label
_atom_site_type_symbol
_atom_site_fract_x
_atom_site_fract_y
_atom_site_fract_z
Zn1	Zn	-0.295618	-1.474612	-0.545399
Zn2	Zn	-0.419820	-1.474482	-0.384108
Zn3	Zn	-0.295651	-1.313307	-0.384118
Zn4	Zn	-0.419773	-1.313253	-0.545361
O5	O	-0.357715	-1.393913	-0.464747
O6	O	-0.312099	-1.609576	-0.524016
O7	O	-0.403382	-1.453070	-0.249128
O8	O	-0.191722	-1.334781	-0.405532
O9	O	-0.403350	-1.609481	-0.405516
O10	O	-0.191697	-1.453291	-0.524025
O11	O	-0.312156	-1.334655	-0.249135
O12	O	-0.312110	-1.178318	-0.405495
O13	O	-0.403270	-1.334689	-0.680348
O14	O	-0.403302	-1.178278	-0.523960
O15	O	-0.312054	-1.453239	-0.680376
O16	O	-0.523738	-1.453018	-0.405479
O17	O	-0.523704	-1.334564	-0.523951
C18	C	-0.357705	-1.143299	-0.464725
C19	C	-0.357719	-1.036085	-0.464738
C20	C	-0.550667	-1.393797	-0.464731
C21	C	-0.633213	-1.393835	-0.464756
C22	C	-0.357653	-1.393972	-0.716340
C23	C	-0.357626	-1.393998	-0.823554
C24	C	-0.832672	-1.329483	-0.529158
C25	C	-0.882117	-1.305969	-0.441140
C26	C	-0.784344	-1.393930	-0.464769
C27	C	-0.881981	-1.417491	-0.552797
C28	C	-0.930329	-1.394020	-0.464789
C29	C	-0.832701	-1.370370	-0.376703
C30	C	-0.832560	-1.481933	-0.488420
C31	C	-0.881983	-1.458453	-0.400341
C32	C	-0.700245	-1.393876	-0.464758
C33	C	-1.014425	-1.394074	-0.464789
C34	C	-0.164010	-1.394057	-0.464784
C35	C	-0.081464	-1.394118	-0.464800
C36	C	-0.357726	-1.645506	-0.464769
C37	C	-0.357730	-1.752720	-0.464779
C38	C	-0.357722	-0.839790	-0.464763
C39	C	-0.357718	-0.949023	-0.464747
C40	C	-0.357605	-1.394017	-0.910624
C41	C	-0.357572	-1.394045	-1.019856
C42	C	-0.357724	-1.393910	-0.214132
C43	C	-0.357541	-1.394072	-0.106919
H44	H	-0.811020	-1.274902	-0.583534
N45	N	-0.909139	-1.442433	-0.646179
N46	N	-0.893327	-1.391191	-0.717173
H47	H	-0.912506	-1.408798	-0.783126
N48	N	-0.908970	-1.526868	-0.331958
N49	N	-0.893031	-1.518077	-0.244881
H50	H	-0.912091	-1.566391	-0.196582
N51	N	-0.805223	-1.575220	-0.513522
N52	N	-0.821888	-1.646580	-0.463263
H53	H	-0.802578	-1.712465	-0.480998
H54	H	-0.811144	-1.350392	-0.302246
H55	H	-0.903901	-1.231591	-0.421153
