data_functionalizedCrystal
_audit_creation_method	'MofGen! by Chris Wilmer'
_symmetry_space_group_name_H-M	'P1'
_symmetry_Int_Tables_number	1
_symmetry_cell_setting	triclinic
loop_
_symmetry_equiv_pos_as_xyz
  x,y,z
_cell_length_a	15.944493
_cell_length_b	14.421503
_cell_length_c	10.654550
_cell_angle_alpha	89.994499
_cell_angle_beta	83.979973
_cell_angle_gamma	90.007064
loop_
_atom_site_label
_atom_site_type_symbol
_atom_site_fract_x
_atom_site_fract_y
_atom_site_fract_z
O1	O	1.115495	0.077097	0.161602
O2	O	0.871055	0.077101	0.181647
O3	O	0.998895	0.077096	-0.011189
O4	O	0.987655	0.077103	0.354438
O5	O	0.998874	-0.077128	-0.011161
O6	O	0.871033	-0.077122	0.181675
O7	O	1.115474	-0.077126	0.161631
Cu8	Cu	0.993252	-0.091206	0.171656
Cu9	Cu	0.993277	0.091181	0.171622
O10	O	0.987633	-0.077121	0.354467
C11	C	0.839745	-0.000010	0.180842
C12	C	0.746482	-0.000008	0.178386
C13	C	0.511379	-0.000005	0.291893
C14	C	0.460456	-0.076051	0.230697
C15	C	0.575734	-0.000010	0.173834
C16	C	0.460481	0.076001	0.230641
C17	C	0.410799	-0.000008	0.169447
C18	C	0.526040	-0.076118	0.112670
C19	C	0.526068	0.076002	0.112631
C20	C	0.475178	-0.000062	0.051348
C21	C	0.670749	-0.000012	0.176365
C22	C	0.315788	-0.000013	0.166907
N23	N	0.993240	-0.219487	0.171679
C24	C	0.934116	-0.469138	0.260806
C25	C	1.010159	-0.530942	0.285163
C26	C	0.993260	-0.408649	0.171649
C27	C	0.917237	-0.530939	0.147321
C28	C	0.993273	-0.591370	0.171623
C29	C	1.069342	-0.469092	0.196062
C30	C	0.976370	-0.469083	0.058171
C31	C	1.052468	-0.530859	0.082480
C32	C	0.993252	-0.303388	0.171667
C33	C	0.993290	-0.696629	0.171603
C34	C	1.146784	-0.000013	0.162435
C35	C	1.240047	-0.000009	0.164892
C36	C	0.998059	-0.000015	-0.057962
C37	C	0.995590	-0.000012	-0.197373
N38	N	0.993295	0.219462	0.171589
C39	C	1.070860	-0.000016	-0.277856
C40	C	1.068535	-0.000009	-0.408846
C41	C	0.915663	0.000002	-0.378857
C42	C	0.917989	0.000002	-0.247869
C43	C	1.148461	-0.000029	-0.227359
C44	C	1.223738	-0.000034	-0.307843
C45	C	1.221413	-0.000028	-0.438833
C46	C	1.143811	-0.000016	-0.489339
C47	C	0.988469	-0.000008	0.401239
C48	C	0.990939	-0.000005	0.540650
H49	H	0.554570	-0.140472	0.062854
H50	H	0.554735	0.140293	0.062799
C51	C	1.309095	-0.000046	-0.252284
N52	N	1.373388	-0.000057	-0.210438
C53	C	1.029470	-0.567659	0.414790
N54	N	1.044008	-0.595314	0.512428
C55	C	0.830374	-0.567637	0.119531
N56	N	0.764947	-0.595273	0.098608
H57	H	0.431798	-0.140338	0.280567
C58	C	0.421796	0.162848	0.298008
N59	N	0.392663	0.228258	0.348757
C60	C	0.533295	-0.000104	0.429271
N61	N	0.549805	-0.000184	0.532741
H62	H	0.459123	-0.000108	-0.050423
C63	C	1.120119	-0.567256	-0.019389
N64	N	1.171077	-0.594677	-0.096107
H65	H	0.884151	-0.442038	0.336264
C66	C	1.304217	-0.000034	-0.527363
N67	N	1.366589	-0.000045	-0.594041
C68	C	1.156224	-0.432548	0.224007
N69	N	1.221661	-0.405020	0.245061
C70	C	0.957019	-0.432341	-0.071416
N71	N	0.942435	-0.404664	-0.169020
H72	H	1.150363	-0.000037	-0.120702
H73	H	1.141924	-0.000001	-0.596001
H74	H	0.852483	0.000010	-0.419990
C75	C	0.835187	-0.000001	-0.159333
N76	N	0.772819	-0.000002	-0.092647
