data_functionalizedCrystal
_audit_creation_method	'MofGen! by Chris Wilmer'
_symmetry_space_group_name_H-M	'P1'
_symmetry_Int_Tables_number	1
_symmetry_cell_setting	triclinic
loop_
_symmetry_equiv_pos_as_xyz
  x,y,z
_cell_length_a	10.686220
_cell_length_b	16.625546
_cell_length_c	10.686551
_cell_angle_alpha	85.590142
_cell_angle_beta	90.308082
_cell_angle_gamma	94.404440
loop_
_atom_site_label
_atom_site_type_symbol
_atom_site_fract_x
_atom_site_fract_y
_atom_site_fract_z
Zn1	Zn	1.972246	-0.196578	-0.562364
Zn2	Zn	2.305579	0.136755	-0.229030
Zn3	Zn	2.638912	0.470088	0.104303
Zn4	Zn	1.955985	-0.342520	-0.352588
Zn5	Zn	2.289318	-0.009187	-0.019255
Zn6	Zn	2.622652	0.324146	0.314078
Zn7	Zn	1.746360	-0.217205	-0.368679
Zn8	Zn	2.079693	0.116129	-0.035345
Zn9	Zn	2.413026	0.449462	0.297988
Zn10	Zn	1.762416	-0.340886	-0.578366
Zn11	Zn	2.095749	-0.007553	-0.245033
Zn12	Zn	2.429082	0.325780	0.088300
O13	O	1.859251	-0.274297	-0.465499
O14	O	2.192585	0.059036	-0.132166
O15	O	2.525918	0.392369	0.201167
O16	O	2.145632	-0.207989	-0.521106
O17	O	2.478965	0.125344	-0.187772
O18	O	2.812299	0.458677	0.145561
O19	O	1.914653	-0.335213	-0.179176
O20	O	2.247987	-0.001880	0.154157
O21	O	2.581320	0.331454	0.487490
O22	O	1.776409	-0.101630	-0.394408
O23	O	2.109743	0.231703	-0.061075
O24	O	2.443076	0.565036	0.272258
O25	O	2.133686	-0.315212	-0.366985
O26	O	2.467019	0.018121	-0.033651
O27	O	2.800352	0.351454	0.299682
O28	O	1.942367	-0.086476	-0.536708
O29	O	2.275700	0.246857	-0.203374
O30	O	2.609034	0.580191	0.129959
O31	O	1.760642	-0.243144	-0.190998
O32	O	2.093976	0.090189	0.142336
O33	O	2.427309	0.423522	0.475669
O34	O	1.572946	-0.241560	-0.409925
O35	O	1.906279	0.091773	-0.076592
O36	O	2.239613	0.425107	0.256741
O37	O	1.803775	-0.312427	-0.751790
O38	O	2.137108	0.020906	-0.418457
O39	O	2.470441	0.354239	-0.085123
O40	O	1.584742	-0.332428	-0.563982
O41	O	1.918075	0.000905	-0.230648
O42	O	2.251409	0.334239	0.102685
O43	O	1.957936	-0.206405	-0.740033
O44	O	2.291269	0.126928	-0.406700
O45	O	2.624602	0.460262	-0.073366
O46	O	1.930222	-0.455142	-0.382502
O47	O	2.263555	-0.121809	-0.049168
O48	O	2.596889	0.211525	0.284165
O49	O	1.788007	-0.453942	-0.548380
O50	O	2.121341	-0.120608	-0.215046
O51	O	2.454674	0.212725	0.118287
C52	C	1.533328	-0.289055	-0.490437
C53	C	1.866661	0.044278	-0.157103
C54	C	2.199994	0.377611	0.176230
C55	C	1.393898	-0.295387	-0.501135
C56	C	1.727232	0.037946	-0.167802
C57	C	2.060565	0.371280	0.165532
C58	C	1.859129	-0.483797	-0.465456
C59	C	2.192462	-0.150463	-0.132123
C60	C	2.525795	0.182870	0.201211
C61	C	1.859194	-0.573414	-0.465470
C62	C	2.192528	-0.240080	-0.132137
C63	C	2.525861	0.093253	0.201196
C64	C	1.859423	-0.901572	-0.465584
C65	C	2.192756	-0.568239	-0.132251
C66	C	2.526090	-0.234906	0.201082
C67	C	1.859356	-0.810269	-0.465556
C68	C	2.192689	-0.476935	-0.132223
C69	C	2.526022	-0.143602	0.201110
C70	C	1.859308	-0.737496	-0.465527
C71	C	2.192641	-0.404163	-0.132193
C72	C	2.525974	-0.070829	0.201140
C73	C	1.859242	-0.646186	-0.465500
C74	C	2.192576	-0.312853	-0.132167
C75	C	2.525909	0.020480	0.201167
C76	C	2.186448	-0.259482	-0.440465
C77	C	2.519781	0.073851	-0.107132
C78	C	2.853115	0.407184	0.226202
C79	C	2.325880	-0.253169	-0.429797
C80	C	2.659213	0.080164	-0.096464
C81	C	2.992546	0.413498	0.236870
C82	C	1.884460	-0.256933	-0.792702
C83	C	2.217793	0.076400	-0.459368
C84	C	2.551127	0.409734	-0.126035
C85	C	1.895202	-0.249534	-0.932136
C86	C	2.228536	0.083800	-0.598802
C87	C	2.561869	0.417133	-0.265469
C88	C	1.859411	-0.063977	-0.465568
C89	C	2.192744	0.269356	-0.132234
C90	C	2.526078	0.602689	0.201099
C91	C	1.859479	0.025649	-0.465597
C92	C	2.192812	0.358982	-0.132264
C93	C	2.526146	0.692315	0.201070
C94	C	1.834213	-0.291533	-0.139565
C95	C	2.167547	0.041801	0.193769
C96	C	2.500880	0.375134	0.527102
C97	C	1.823714	-0.298694	-0.000113
C98	C	2.157047	0.034639	0.333221
C99	C	2.490381	0.367972	0.666554
H100	H	1.345458	-0.336383	-0.570392
H101	H	1.678791	-0.003049	-0.237059
H102	H	2.012124	0.330284	0.096274
H103	H	1.754295	-0.346446	-0.951639
H104	H	2.087628	-0.013113	-0.618306
H105	H	2.420962	0.320221	-0.284972
H106	H	1.374314	-0.212182	-0.360536
H107	H	1.707647	0.121152	-0.027203
H108	H	2.040980	0.454485	0.306131
H109	H	1.964635	-0.201784	-0.980614
H110	H	2.297968	0.131549	-0.647281
H111	H	2.631301	0.464883	-0.313948
