data_functionalizedCrystal
_audit_creation_method	'MofGen! by Chris Wilmer'
_symmetry_space_group_name_H-M	'P1'
_symmetry_Int_Tables_number	1
_symmetry_cell_setting	triclinic
loop_
_symmetry_equiv_pos_as_xyz
  x,y,z
_cell_length_a	10.540539
_cell_length_b	9.016244
_cell_length_c	13.339070
_cell_angle_alpha	89.998676
_cell_angle_beta	100.077393
_cell_angle_gamma	90.005301
loop_
_atom_site_label
_atom_site_type_symbol
_atom_site_fract_x
_atom_site_fract_y
_atom_site_fract_z
O1	O	1.734608	0.123263	0.142923
O2	O	1.369785	0.123280	0.156390
O3	O	1.510327	0.123269	0.002091
O4	O	1.594067	0.123274	0.297223
O5	O	1.510300	-0.123411	0.002094
O6	O	1.369758	-0.123400	0.156393
O7	O	1.734581	-0.123418	0.142927
Cu8	Cu	1.552167	-0.145933	0.149660
Cu9	Cu	1.552199	0.145796	0.149656
O10	O	1.594040	-0.123407	0.297226
C11	C	1.322125	-0.000058	0.155382
C12	C	1.180147	-0.000051	0.152360
N13	N	1.552154	-0.351119	0.149663
C14	C	0.957257	-0.000628	0.036583
C15	C	1.104919	-0.000057	0.039646
C16	C	1.136978	0.140811	0.206601
C17	C	0.989123	0.140914	0.202754
C18	C	0.989385	-0.139608	0.205051
C19	C	1.136721	-0.141454	0.206090
C20	C	1.476562	-0.586146	0.231926
C21	C	1.476896	-0.414255	0.232234
C22	C	1.693082	-0.413464	0.173737
C23	C	1.692715	-0.585408	0.174320
C24	C	1.488043	-0.585663	0.043056
C25	C	1.485233	-0.413708	0.043747
C26	C	1.782242	-0.000077	0.143935
C27	C	1.924220	-0.000074	0.146956
C28	C	1.496168	-0.000068	-0.035699
C29	C	1.454004	-0.000060	-0.148306
N30	N	1.552220	0.350982	0.149646
C31	C	1.781847	-0.000077	-0.510730
C32	C	1.821466	-0.000093	-0.404931
C33	C	1.729604	-0.000084	-0.340770
C34	C	1.598116	-0.000061	-0.382417
C35	C	1.558493	-0.000056	-0.488227
C36	C	1.506250	-0.000064	-0.318266
C37	C	1.374763	-0.000040	-0.359914
C38	C	1.335146	-0.000035	-0.465713
C39	C	1.427008	-0.000044	-0.529874
C40	C	1.545873	-0.000068	-0.212457
C41	C	1.322519	-0.000047	-0.189954
C42	C	1.282900	-0.000032	-0.295752
C43	C	1.608199	-0.000066	0.335016
C44	C	1.650362	-0.000064	0.447622
H45	H	0.913483	-0.101649	-0.007944
N46	N	1.200838	0.000008	-0.508258
N47	N	1.153833	0.104000	-0.564785
H48	H	1.058977	0.104033	-0.594832
N49	N	1.756480	-0.635707	0.271884
N50	N	1.697265	-0.714115	0.325749
H51	H	1.742294	-0.749630	0.394659
N52	N	1.148598	-0.000001	-0.338317
N53	N	1.113247	0.000010	-0.432786
H54	H	1.018395	0.000033	-0.462850
H55	H	1.928523	-0.000114	-0.371029
N56	N	1.140144	-0.126704	-0.013907
N57	N	1.255486	-0.147941	-0.020808
H58	H	1.280359	-0.237386	-0.058636
H59	H	1.856627	-0.000096	-0.562979
H60	H	1.132026	0.101092	-0.003337
H61	H	1.521030	-0.629339	0.310558
N62	N	0.900411	0.125366	-0.019072
N63	N	0.915471	0.145261	-0.108984
H64	H	0.875316	0.234240	-0.148293
N65	N	1.228690	-0.000050	-0.124411
N66	N	1.264082	-0.000055	-0.029946
H67	H	1.197823	-0.000062	0.016350
N68	N	0.936615	0.272996	0.152442
N69	N	0.950080	0.297993	0.062728
H70	H	0.913003	0.391279	0.027191
N71	N	0.963574	0.148985	0.304433
N72	N	0.849913	0.150514	0.319707
H73	H	0.831870	0.156229	0.391516
H74	H	1.188956	-0.149958	0.288266
H75	H	1.521750	-0.373108	0.311314
N76	N	1.556716	-0.636676	-0.033763
N77	N	1.652504	-0.719330	-0.010252
H78	H	1.701010	-0.755367	-0.064497
N79	N	1.200415	0.147375	0.310441
N80	N	1.278336	0.048073	0.345710
H81	H	1.323141	0.052703	0.419048
H82	H	1.394757	-0.000025	-0.616026
H83	H	1.166735	0.245643	0.168919
H84	H	1.381375	-0.372962	0.025499
N85	N	1.680174	-0.000115	-0.169921
N86	N	1.750501	-0.104110	-0.189275
H87	H	1.845360	-0.104144	-0.159235
N88	N	1.546269	-0.359782	-0.036750
N89	N	1.640510	-0.273967	-0.017279
H90	H	1.683627	-0.235880	-0.074127
H91	H	1.752269	-0.372564	0.115445
H92	H	0.969907	-0.140558	0.286464
N93	N	0.934187	-0.273544	0.159289
N94	N	0.846138	-0.267781	0.083292
H95	H	0.807148	-0.362367	0.050963
N96	N	1.171078	-0.272205	0.156367
N97	N	1.144821	-0.397270	0.187639
H98	H	1.169072	-0.489613	0.152512
H99	H	1.373342	-0.372106	0.217748
N100	N	1.757174	-0.359436	0.270199
N101	N	1.712792	-0.387795	0.349042
H102	H	1.758048	-0.349640	0.417172
N103	N	1.346377	-0.638122	0.214060
N104	N	1.305287	-0.712890	0.280528
H105	H	1.213343	-0.749619	0.267911
H106	H	1.752754	-0.626995	0.116805
N107	N	1.359378	-0.640111	0.014344
N108	N	1.313416	-0.726284	0.072101
H109	H	1.222542	-0.764733	0.051838
H110	H	1.761870	-0.000097	-0.254624
