data_functionalizedCrystal
_audit_creation_method	'MofGen! by Chris Wilmer'
_symmetry_space_group_name_H-M	'P1'
_symmetry_Int_Tables_number	1
_symmetry_cell_setting	triclinic
loop_
_symmetry_equiv_pos_as_xyz
  x,y,z
_cell_length_a	19.288864
_cell_length_b	19.188930
_cell_length_c	17.766277
_cell_angle_alpha	89.988508
_cell_angle_beta	89.976791
_cell_angle_gamma	83.140512
loop_
_atom_site_label
_atom_site_type_symbol
_atom_site_fract_x
_atom_site_fract_y
_atom_site_fract_z
O1	O	0.921360	0.087099	-0.062844
O2	O	0.719100	0.098849	-0.062794
O3	O	0.826066	-0.008682	-0.062806
O4	O	0.814393	0.194630	-0.062832
O5	O	0.826048	-0.008688	0.062383
O6	O	0.719081	0.098843	0.062395
O7	O	0.921341	0.087094	0.062345
Cu8	Cu	0.820209	0.092968	0.073800
Cu9	Cu	0.820231	0.092974	-0.074250
O10	O	0.814374	0.194625	0.062356
C11	C	0.693214	0.098468	-0.000193
C12	C	0.616110	0.097333	-0.000173
C13	C	0.571419	0.160427	-0.000193
C14	C	0.498972	0.159361	-0.000201
C15	C	0.471219	0.095197	-0.000204
C16	C	0.515921	0.032095	-0.000180
C17	C	0.588366	0.033163	-0.000164
C18	C	0.362960	0.044759	-0.044082
C19	C	0.290515	0.043694	-0.044103
C20	C	0.247773	0.091900	-0.000249
C21	C	0.277483	0.141184	0.043614
C22	C	0.349929	0.142252	0.043630
C23	C	0.392665	0.094032	-0.000221
C24	C	0.124526	0.153843	-0.000277
C25	C	0.052078	0.152774	-0.000281
C26	C	0.069028	0.025506	-0.000267
C27	C	0.141475	0.026576	-0.000256
C28	C	0.169219	0.090747	-0.000265
C29	C	0.825679	-0.034696	-0.000209
C30	C	0.824544	-0.112200	-0.000202
C31	C	0.887309	-0.157129	-0.000214
C32	C	0.886243	-0.229953	-0.000226
C33	C	0.822408	-0.257844	-0.000211
C34	C	0.759636	-0.212906	-0.000203
C35	C	0.760704	-0.140084	-0.000199
N36	N	0.773608	-0.365848	0.042405
N37	N	0.772598	-0.435026	0.042403
C38	C	0.819187	-0.477253	-0.000225
N39	N	0.866835	-0.447689	-0.042841
N40	N	0.867847	-0.378504	-0.042836
C41	C	0.821243	-0.336807	-0.000216
C42	C	0.880800	-0.601146	-0.000251
C43	C	0.879731	-0.673971	-0.000268
C44	C	0.753122	-0.656922	-0.000237
C45	C	0.754193	-0.584099	-0.000228
C46	C	0.818034	-0.556216	-0.000231
C47	C	0.947227	0.087475	-0.000258
C48	C	1.024330	0.088609	-0.000283
C49	C	0.814762	0.220638	-0.000242
C50	C	0.815896	0.298143	-0.000253
N51	N	0.820199	0.092963	0.177931
N52	N	0.820247	0.092974	-0.178380
C53	C	0.867579	0.045372	0.217312
C54	C	0.867583	0.045368	0.296114
C55	C	0.820213	0.092969	0.335531
C56	C	0.772824	0.140564	0.296140
C57	C	0.772817	0.140561	0.217340
C58	C	0.810919	0.156585	0.460362
C59	C	0.810931	0.156589	0.539161
C60	C	0.820232	0.092977	0.578578
C61	C	0.829535	0.029359	0.539185
C62	C	0.829528	0.029356	0.460385
C63	C	0.820216	0.092977	0.420977
C64	C	0.867619	0.045378	0.703405
C65	C	0.867618	0.045374	0.782208
C66	C	0.772863	0.140575	0.782233
C67	C	0.772861	0.140573	0.703431
C68	C	0.820242	0.092976	0.664022
H69	H	0.397756	0.005502	-0.079797
H70	H	0.624755	-0.018218	-0.000148
H71	H	0.493320	-0.020148	-0.000193
H72	H	0.939293	-0.134431	-0.000220
N73	N	0.916009	-0.003243	0.822450
N74	N	0.959050	0.018790	0.866408
H75	H	0.993221	-0.015549	0.894834
N76	N	0.260176	-0.006658	-0.088893
N77	N	0.225396	-0.049758	-0.058251
H78	H	0.203971	-0.085323	-0.089883
N79	N	0.915979	-0.003238	0.336369
N80	N	0.894090	-0.046518	0.380373
H81	H	0.928271	-0.080843	0.408804
H82	H	0.937355	-0.266541	-0.000239
N83	N	0.687910	-0.685392	-0.000230
N84	N	0.645654	-0.671537	-0.052991
H85	H	0.599595	-0.691646	-0.052990
H86	H	0.930844	-0.710552	-0.000281
H87	H	0.374116	0.182379	0.079348
N88	N	0.152883	0.219382	-0.000269
N89	N	0.217567	0.220327	-0.000257
H90	H	0.237594	0.266614	-0.000250
H91	H	0.803334	0.208389	0.428276
N92	N	0.946002	-0.572646	-0.000274
N93	N	0.946948	-0.507626	-0.000269
H94	H	0.992996	-0.487498	-0.000287
N95	N	0.694436	-0.241405	-0.000194
N96	N	0.693491	-0.306425	-0.000197
H97	H	0.647442	-0.326552	-0.000195
N98	N	0.006433	0.217234	-0.000292
N99	N	0.031218	0.274519	-0.000298
H100	H	-0.001019	0.320046	-0.000305
H101	H	0.734234	0.179316	0.185275
H102	H	0.709591	-0.103502	-0.000189
N103	N	0.839029	-0.035629	0.420159
N104	N	0.847335	-0.092424	0.455352
H105	H	0.854044	-0.138321	0.426943
N106	N	0.690080	-0.538201	-0.000190
N107	N	0.676546	-0.495678	0.052589
H108	H	0.631263	-0.463262	0.052615
H109	H	0.734291	0.179330	0.814326
H110	H	0.906158	0.006613	0.185228
H111	H	0.837108	-0.022440	0.571277
N112	N	0.915933	-0.003331	0.663156
N113	N	0.958173	-0.045884	0.698332
H114	H	0.992263	-0.080318	0.669909
H115	H	0.046433	-0.026738	-0.000317
N116	N	0.724458	0.189193	0.663211
N117	N	0.682164	0.231688	0.698410
H118	H	0.647975	0.266026	0.670006
N119	N	0.801438	0.221577	0.579384
N120	N	0.793128	0.278368	0.544185
H121	H	0.786424	0.324268	0.572590
H122	H	0.594003	0.212680	-0.000201
N123	N	0.724428	0.189176	0.336401
N124	N	0.681390	0.167131	0.380401
H125	H	0.647206	0.201462	0.408836
N126	N	0.453308	0.223812	-0.000211
N127	N	0.455687	0.266540	0.052552
H128	H	0.423438	0.312059	0.052545
N129	N	0.233839	0.190453	0.088394
N130	N	0.187779	0.232365	0.057731
H131	H	0.156954	0.267167	0.089349
N132	N	0.187121	-0.037880	-0.000238
N133	N	0.162336	-0.095166	-0.000238
H134	H	0.194573	-0.140693	-0.000222
