data_functionalizedCrystal
_audit_creation_method	'MofGen! by Chris Wilmer'
_symmetry_space_group_name_H-M	'P1'
_symmetry_Int_Tables_number	1
_symmetry_cell_setting	triclinic
loop_
_symmetry_equiv_pos_as_xyz
  x,y,z
_cell_length_a	8.559649
_cell_length_b	8.559649
_cell_length_c	7.681481
_cell_angle_alpha	94.930900
_cell_angle_beta	85.090457
_cell_angle_gamma	69.778664
loop_
_atom_site_label
_atom_site_type_symbol
_atom_site_fract_x
_atom_site_fract_y
_atom_site_fract_z
O1	O	-2.109643	0.037779	-0.146556
O2	O	-1.634161	-0.045999	-0.146528
O3	O	-1.913793	0.233632	-0.146543
O4	O	-1.830012	-0.241852	-0.146541
O5	O	-1.948219	0.268120	0.146313
O6	O	-1.668588	-0.011512	0.146328
O7	O	-2.144069	0.072266	0.146300
Zn8	Zn	-1.911795	0.035853	0.192811
Zn9	Zn	-1.866436	-0.009586	-0.193039
O10	O	-1.864438	-0.207365	0.146314
C11	C	-1.591066	-0.035104	-0.000097
C12	C	-1.411368	-0.054002	-0.000086
C13	C	-1.937355	0.311184	-0.000118
C14	C	-1.956252	0.490882	-0.000129
C15	C	-1.187166	0.061373	-0.000120
C16	C	-1.366868	0.080275	-0.000094
C17	C	-1.840876	-0.284918	-0.000114
C18	C	-1.821976	-0.464617	-0.000114
N19	N	-1.942762	0.066866	0.456144
N20	N	-1.835483	-0.040584	-0.456372
H21	H	-1.692558	0.436006	-0.000101
O22	O	-1.705021	-0.171489	0.453745
C23	C	-1.767327	-0.273291	0.347118
H24	H	-1.898931	-0.196223	0.319648
H25	H	-1.772083	-0.383503	0.418059
C26	C	-1.489547	-0.434375	0.205658
C27	C	-1.651181	-0.339715	0.171907
H28	H	-1.417901	-0.475356	0.097583
H29	H	-1.447569	-0.365794	0.277499
H30	H	-1.493534	-0.526206	0.264780
H31	H	-1.647195	-0.247876	0.112806
H32	H	-1.693157	-0.408283	0.100052
O33	O	-2.073357	0.197907	0.545652
C34	C	-2.061193	0.349944	0.500774
H35	H	-1.982994	0.326377	0.366889
H36	H	-1.998618	0.402231	0.604515
C37	C	-2.334114	0.506168	0.656908
C38	C	-2.238080	0.477226	0.492462
H39	H	-2.443225	0.584685	0.651788
H40	H	-2.342308	0.403739	0.687150
H41	H	-2.281948	0.549732	0.743342
H42	H	-2.290235	0.433643	0.406036
H43	H	-2.229899	0.579650	0.462205
H44	H	-1.311988	-0.183423	-0.000098
H45	H	-1.466256	0.209702	-0.000100
H46	H	-2.085681	0.590271	-0.000123
