data_functionalizedCrystal
_audit_creation_method	'MofGen! by Chris Wilmer'
_symmetry_space_group_name_H-M	'P1'
_symmetry_Int_Tables_number	1
_symmetry_cell_setting	triclinic
loop_
_symmetry_equiv_pos_as_xyz
  x,y,z
_cell_length_a	15.297979
_cell_length_b	12.594510
_cell_length_c	12.594516
_cell_angle_alpha	89.966810
_cell_angle_beta	99.679194
_cell_angle_gamma	80.290333
loop_
_atom_site_label
_atom_site_type_symbol
_atom_site_fract_x
_atom_site_fract_y
_atom_site_fract_z
Zn1	Zn	1.379390	-0.884011	-0.142297
Zn2	Zn	1.379292	-0.706017	-0.320346
Zn3	Zn	1.228506	-0.675178	-0.173138
Zn4	Zn	1.228485	-0.853100	-0.351014
O5	O	1.303919	-0.779577	-0.246699
O6	O	1.505636	-0.886242	-0.140175
O7	O	1.359258	-0.552973	-0.300891
O8	O	1.248571	-0.702911	-0.020091
O9	O	1.505564	-0.755470	-0.270987
O10	O	1.359425	-0.856340	0.002568
O11	O	1.248477	-0.530317	-0.192738
O12	O	1.102245	-0.672938	-0.222474
O13	O	1.248535	-1.006153	-0.323254
O14	O	1.102229	-0.803656	-0.353159
O15	O	1.359404	-1.028863	-0.169912
O16	O	1.359238	-0.725497	-0.473370
O17	O	1.248440	-0.833559	-0.495901
C18	C	1.069500	-0.731597	-0.294492
C19	C	0.969214	-0.711096	-0.314963
C20	C	0.922062	-0.633270	-0.392580
C21	C	0.827839	-0.614014	-0.411817
C22	C	0.780759	-0.672576	-0.353433
C23	C	0.827911	-0.750398	-0.275809
C24	C	0.922144	-0.769662	-0.256576
C25	C	0.780841	-0.808968	-0.217429
C26	C	0.827994	-0.886791	-0.139805
C27	C	0.922217	-0.906051	-0.120575
C28	C	0.969296	-0.847489	-0.178960
C29	C	0.686609	-0.789704	-0.236661
C30	C	0.686691	-0.926097	-0.100657
C31	C	0.780914	-0.945353	-0.081421
C32	C	1.303978	-1.057210	-0.246564
C33	C	1.304004	-1.175521	-0.246506
C34	C	1.364323	-1.257130	-0.163094
C35	C	1.282034	-1.311089	-0.153825
C36	C	1.386341	-1.332371	-0.255690
C37	C	1.221671	-1.227912	-0.237196
C38	C	1.326032	-1.249200	-0.339095
C39	C	1.243687	-1.303115	-0.329875
C40	C	1.539253	-0.827744	-0.198720
C41	C	1.639538	-0.848271	-0.178274
C42	C	1.303851	-0.779548	-0.523254
C43	C	1.303904	-0.779588	-0.641548
C44	C	1.303911	-0.503034	-0.246746
C45	C	1.304061	-0.384760	-0.246468
C46	C	1.243691	-0.838337	-0.793848
C47	C	1.325945	-0.881276	-0.706157
C48	C	1.221658	-0.736699	-0.727666
C49	C	1.386350	-0.822656	-0.764603
C50	C	1.282007	-0.678022	-0.786130
C51	C	1.364318	-0.720936	-0.698459
C52	C	1.304011	-0.779634	0.030941
C53	C	1.304051	-0.779658	0.149255
H54	H	0.648226	-0.726341	-0.299864
H55	H	1.152044	-1.182712	-0.229319
H56	H	0.648359	-0.973784	-0.053117
H57	H	1.046021	-0.863160	-0.163298
H58	H	0.960606	-0.969429	-0.057379
H59	H	1.192771	-0.888049	-0.835311
H60	H	0.704038	-0.656893	-0.369100
H61	H	0.819319	-1.008717	-0.018219
H62	H	1.415359	-0.671295	-0.657165
H63	H	1.415244	-1.236515	-0.092538
H64	H	1.263421	-1.338420	-0.075510
H65	H	1.192642	-1.323505	-0.400410
H66	H	1.344670	-1.221853	-0.417383
H67	H	1.455948	-1.377701	-0.263475
H68	H	1.344534	-0.967199	-0.671177
H69	H	1.455987	-0.859059	-0.781254
H70	H	1.263394	-0.592118	-0.821139
H71	H	0.789454	-0.550651	-0.475019
H72	H	0.960403	-0.585602	-0.440113
H73	H	1.152041	-0.700396	-0.710878
