data_functionalizedCrystal
_audit_creation_method	'MofGen! by Chris Wilmer'
_symmetry_space_group_name_H-M	'P1'
_symmetry_Int_Tables_number	1
_symmetry_cell_setting	triclinic
loop_
_symmetry_equiv_pos_as_xyz
  x,y,z
_cell_length_a	13.339070
_cell_length_b	10.540539
_cell_length_c	11.804365
_cell_angle_alpha	101.953828
_cell_angle_beta	74.875130
_cell_angle_gamma	100.077393
loop_
_atom_site_label
_atom_site_type_symbol
_atom_site_fract_x
_atom_site_fract_y
_atom_site_fract_z
O1	O	1.367200	0.619505	-0.099049
O2	O	1.072067	0.535766	-0.099045
O3	O	1.226367	0.395225	-0.099046
O4	O	1.212901	0.760047	-0.099049
O5	O	1.185745	0.432172	0.099010
O6	O	1.031446	0.572714	0.099011
O7	O	1.326579	0.656453	0.099007
Cu8	Cu	1.175303	0.617957	0.117093
Cu9	Cu	1.223343	0.574262	-0.117131
O10	O	1.172279	0.796994	0.099007
C11	C	1.013965	0.540095	-0.000017
C12	C	0.901358	0.497931	-0.000015
C13	C	0.538938	0.825770	-0.000037
C14	C	0.644738	0.865388	-0.000042
C15	C	0.708898	0.773527	-0.000035
C16	C	0.667248	0.642042	-0.000023
C17	C	0.561440	0.602418	-0.000028
C18	C	0.731400	0.550175	-0.000026
C19	C	0.689750	0.418690	-0.000014
C20	C	0.583951	0.379073	-0.000018
C21	C	0.519791	0.470934	-0.000025
C22	C	0.837208	0.589799	-0.000021
C23	C	0.859710	0.366447	-0.000012
C24	C	0.753910	0.326829	-0.000007
C25	C	1.205047	0.366051	-0.000020
C26	C	1.202026	0.224072	-0.000026
C27	C	1.086340	0.001099	-0.000469
C28	C	1.089311	0.148845	-0.000023
C29	C	1.233073	0.202001	0.113073
C30	C	1.229207	0.054163	0.113168
C31	C	1.277693	0.012410	-0.112059
C32	C	1.279038	0.159467	-0.113554
C33	C	1.384682	0.652124	-0.000024
C34	C	1.497290	0.694286	-0.000034
C35	C	1.193600	0.826168	-0.000021
C36	C	1.196622	0.968145	-0.000023
N37	N	1.141522	0.648691	0.281834
N38	N	1.257132	0.543521	-0.281872
C39	C	1.338253	0.469692	0.655781
C40	C	1.363807	0.446436	0.531120
C41	C	1.308237	0.496997	0.468792
C42	C	1.227110	0.570820	0.531138
C43	C	1.201559	0.594087	0.655812
C44	C	1.171544	0.621392	0.468823
C45	C	1.090417	0.695214	0.531169
C46	C	1.064869	0.718477	0.655831
C47	C	1.120438	0.667916	0.718159
C48	C	1.197095	0.598125	0.344149
C49	C	1.060402	0.722520	0.344180
C50	C	1.034847	0.745776	0.468842
H51	H	0.433639	0.438683	-0.000020
H52	H	0.871108	0.696856	-0.000026
O53	O	0.977377	0.798114	0.723073
H54	H	0.968953	0.805809	0.820232
H55	H	1.362617	0.210424	-0.120385
O56	O	0.539022	0.237260	-0.000002
H57	H	0.601404	0.180040	0.000019
O58	O	1.000462	0.777060	0.276964
H59	H	0.939770	0.832319	0.341260
O60	O	0.823009	0.816252	-0.000021
H61	H	0.841189	0.923116	-0.000016
H62	H	0.719985	0.219769	-0.000008
H63	H	0.968792	0.805885	0.519620
H64	H	0.911950	0.291645	-0.000012
H65	H	1.258795	-0.047568	-0.197781
O66	O	0.689658	1.007198	-0.000027
H67	H	0.627268	1.064422	-0.000014
O68	O	0.469741	0.924843	-0.000034
H69	H	0.389173	0.875200	-0.000026
H70	H	1.256509	0.171189	-0.197222
H71	H	1.063258	0.161776	-0.081097
H72	H	1.383495	0.428540	0.706537
H73	H	1.058450	-0.057807	-0.081574
H74	H	1.314985	0.253353	0.117277
H75	H	1.029674	0.191100	0.081187
H76	H	1.025454	-0.029177	0.080183
H77	H	1.263149	0.538019	0.293398
O78	O	1.153129	0.019581	0.225146
H79	H	1.119438	0.108398	0.278716
H80	H	1.099630	0.686846	0.819669
O81	O	1.160305	0.262212	0.224569
H82	H	1.101976	0.307892	0.199718
O83	O	1.385747	-0.013570	-0.113088
H84	H	1.385165	-0.119717	-0.116494
O85	O	1.335173	0.028476	0.120000
H86	H	1.395242	0.057474	0.041843
O87	O	1.335780	0.471897	0.334335
H88	H	1.401518	0.412056	0.301452
H89	H	1.429860	0.386332	0.480362
