data_functionalizedCrystal
_audit_creation_method	'MofGen! by Chris Wilmer'
_symmetry_space_group_name_H-M	'P1'
_symmetry_Int_Tables_number	1
_symmetry_cell_setting	triclinic
loop_
_symmetry_equiv_pos_as_xyz
  x,y,z
_cell_length_a	10.723024
_cell_length_b	14.519709
_cell_length_c	13.596369
_cell_angle_alpha	90.006934
_cell_angle_beta	90.005008
_cell_angle_gamma	84.074007
loop_
_atom_site_label
_atom_site_type_symbol
_atom_site_fract_x
_atom_site_fract_y
_atom_site_fract_z
O1	O	1.655980	0.129351	0.081787
O2	O	1.292712	0.141732	0.081791
O3	O	1.483978	0.001352	0.081780
O4	O	1.464715	0.269731	0.081798
O5	O	1.483959	0.001345	-0.081803
O6	O	1.292693	0.141724	-0.081792
O7	O	1.655961	0.129343	-0.081796
Zn8	Zn	1.474324	0.135533	-0.107766
Zn9	Zn	1.474349	0.135543	0.107761
O10	O	1.464695	0.269723	-0.081785
C11	C	1.246211	0.140827	-0.000000
C12	C	1.107682	0.138132	0.000001
C13	C	1.031965	0.216681	0.000007
C14	C	0.888788	0.213896	0.000008
C15	C	1.483070	-0.033016	-0.000011
C16	C	1.480380	-0.135411	-0.000012
C17	C	1.470476	-0.510357	0.000014
C18	C	1.473227	-0.406035	0.000006
C19	C	1.475428	-0.322887	-0.000000
C20	C	1.478179	-0.218559	-0.000006
C21	C	1.702462	0.130248	-0.000002
C22	C	1.840991	0.132944	0.000003
C23	C	1.465603	0.304091	0.000009
C24	C	1.468293	0.406486	0.000016
N25	N	1.474316	0.135525	-0.254858
C26	C	1.474347	0.135544	-0.656149
C27	C	1.474335	0.135542	-0.544497
C28	C	1.474332	0.135535	-0.455507
C29	C	1.474319	0.135532	-0.343848
N30	N	1.474367	0.135543	0.254853
H31	H	1.073139	0.285991	0.000006
H32	H	0.906045	0.065696	0.000004
Br33	Br	0.780355	0.325982	0.000028
Br34	Br	1.039071	0.022603	-0.000018
