data_functionalizedCrystal
_audit_creation_method	'MofGen! by Chris Wilmer'
_symmetry_space_group_name_H-M	'P1'
_symmetry_Int_Tables_number	1
_symmetry_cell_setting	triclinic
loop_
_symmetry_equiv_pos_as_xyz
  x,y,z
_cell_length_a	15.698487
_cell_length_b	19.377372
_cell_length_c	19.377372
_cell_angle_alpha	86.406704
_cell_angle_beta	72.112718
_cell_angle_gamma	72.112958
loop_
_atom_site_label
_atom_site_type_symbol
_atom_site_fract_x
_atom_site_fract_y
_atom_site_fract_z
Zr1	Zr	1.122149	-0.172913	0.607287
O2	O	1.227043	-0.256259	0.523943
O3	O	0.966760	-0.147365	0.632837
O4	O	1.096902	-0.276165	0.652745
O5	O	1.134424	-0.025857	0.488331
O6	O	1.134427	-0.291865	0.754347
O7	O	1.096900	-0.127459	0.504035
O8	O	0.901626	-0.061465	0.718735
O9	O	1.367225	-0.256257	0.523942
O10	O	1.077380	-0.148183	0.719558
O11	O	1.077379	-0.060642	0.632014
O12	O	1.230605	-0.212288	0.655453
O13	O	1.230604	-0.124746	0.567909
Zr14	Zr	1.241843	-0.035909	0.744284
Zr15	Zr	1.181997	-0.197953	0.769330
Zr16	Zr	1.181995	-0.010869	0.582241
Zr17	Zr	1.345723	-0.172909	0.607287
Zr18	Zr	1.018268	-0.035913	0.744284
O19	O	1.397232	-0.061457	0.718733
O20	O	1.312139	-0.291862	0.754346
O21	O	1.312136	-0.025854	0.488330
O22	O	1.136949	0.047437	0.827628
O23	O	1.051856	-0.182968	0.863241
O24	O	1.051853	0.083040	0.597225
O25	O	1.229568	-0.182965	0.863240
O26	O	1.267089	0.067343	0.698826
O27	O	1.229564	0.083043	0.597224
O28	O	1.267091	-0.081363	0.847536
O29	O	1.414796	-0.276160	0.652744
O30	O	0.949196	0.067338	0.698827
O31	O	0.996767	0.047435	0.827629
O32	O	0.949197	-0.081368	0.847537
O33	O	1.414794	-0.127453	0.504034
O34	O	1.462365	-0.147357	0.632836
O35	O	1.133387	0.003466	0.696118
O36	O	1.133388	-0.084075	0.783662
O37	O	1.286613	-0.148180	0.719557
O38	O	1.286612	-0.060639	0.632013
C39	C	0.902338	-0.104416	0.675786
C40	C	0.807425	-0.104417	0.675787
C41	C	1.107135	-0.073090	0.473095
C42	C	1.081728	-0.062460	0.404304
C43	C	1.256854	0.098281	0.644456
C44	C	1.282260	0.167073	0.633824
C45	C	0.633647	-0.104403	0.675783
C46	C	0.730349	-0.104409	0.675783
C47	C	1.461653	-0.104406	0.675785
C48	C	1.556566	-0.104405	0.675784
C49	C	1.107138	-0.307103	0.707115
C50	C	1.081732	-0.375895	0.717747
C51	C	0.965928	0.560621	0.766189
C52	C	0.989824	0.625252	0.756195
C53	C	1.149779	0.558322	0.689275
C54	C	1.125895	0.493685	0.699260
C55	C	1.033969	0.494841	0.737718
C56	C	1.193936	0.427905	0.670789
C57	C	1.170055	0.363273	0.680777
C58	C	1.078133	0.364421	0.719236
C59	C	1.010087	0.430209	0.747706
C60	C	1.285864	0.426750	0.632335
C61	C	1.353904	0.360969	0.603865
C62	C	1.330022	0.296337	0.613848
C63	C	1.238100	0.297485	0.652306
C64	C	1.398068	0.230549	0.585377
C65	C	1.374186	0.165917	0.595365
C66	C	1.214219	0.232853	0.662294
C67	C	1.398065	-0.194809	0.010752
C68	C	1.374170	-0.184811	-0.053879
C69	C	1.214216	-0.117891	0.013051
C70	C	1.238098	-0.127881	0.077689
C71	C	1.330024	-0.166341	0.076533
C72	C	1.170057	-0.099413	0.143470
C73	C	1.193936	-0.109405	0.208102
C74	C	1.285857	-0.147865	0.206954
C75	C	1.353903	-0.176333	0.141165
C76	C	1.078129	-0.060957	0.144625
C77	C	1.010088	-0.032489	0.210405
C78	C	1.033969	-0.042476	0.275039
C79	C	1.125890	-0.080936	0.273890
C80	C	0.965922	-0.014008	0.340827
C81	C	0.989802	-0.024000	0.405460
C82	C	1.149769	-0.090928	0.338523
C83	C	1.256857	-0.135732	0.878476
C84	C	1.282264	-0.146362	0.947267
C85	C	0.977199	-0.135736	0.878477
C86	C	0.907693	-0.146368	0.947269
C87	C	0.977196	0.098276	0.644457
C88	C	0.907689	0.167067	0.633825
C89	C	1.052057	0.066956	0.847148
C90	C	1.007957	0.125116	0.905307
C91	C	1.311935	-0.275777	0.504423
C92	C	1.356035	-0.333938	0.446264
C93	C	1.386792	-0.073085	0.473094
C94	C	1.456298	-0.062454	0.404302
C95	C	1.386795	-0.307098	0.707114
C96	C	1.456302	-0.375888	0.717746
C97	C	0.845814	-0.184831	0.946113
C98	C	0.780510	-0.194835	1.010746
C99	C	0.777082	-0.166370	1.076533
C100	C	0.838970	-0.127906	1.077687
C101	C	0.904277	-0.117907	1.013055
C102	C	0.904286	0.232842	0.662292
C103	C	0.838990	0.297484	0.652298
C104	C	0.777094	0.296349	0.613841
C105	C	0.780502	0.230567	0.585369
C106	C	0.845801	0.165927	0.595359
C107	C	0.987250	0.106732	0.978322
C108	C	0.945826	0.161372	1.032976
C109	C	0.925103	0.234397	1.014612
C110	C	0.945815	0.252780	0.941589
C111	C	0.987245	0.198140	0.886937
C112	C	1.376752	-0.315554	0.373249
C113	C	1.418204	-0.370194	0.318595
C114	C	1.438932	-0.443218	0.336959
C115	C	1.418214	-0.461602	0.409982
C116	C	1.376769	-0.406962	0.464634
C117	C	1.518184	-0.023998	0.405459
C118	C	1.583506	-0.014012	0.340828
C119	C	1.586936	-0.042478	0.275042
C120	C	1.525046	-0.080940	0.273887
C121	C	1.459730	-0.090930	0.338518
C122	C	1.518182	-0.374730	0.756208
C123	C	1.583487	-0.439362	0.766212
C124	C	1.586916	-0.505151	0.737749
C125	C	1.525028	-0.506307	0.699287
C126	C	1.459719	-0.441677	0.689287
H127	H	1.139360	0.233797	0.693603
H128	H	1.633874	-0.438406	0.797529
H129	H	0.928965	0.146391	1.092431
C130	C	0.849573	-0.216154	0.873755
N131	N	0.852403	-0.239753	0.819257
H132	H	0.928937	0.312243	0.926647
C133	C	0.712404	0.229330	0.543071
N134	N	0.661106	0.228400	0.511216
C135	C	0.705260	0.367461	0.602866
N136	N	0.651152	0.421024	0.594606
H137	H	1.004096	0.213119	0.827485
H138	H	0.891368	0.278881	1.059120
H139	H	1.640099	-0.557772	0.745896
H140	H	1.527850	-0.104115	0.220315
C141	C	1.455029	-0.218636	0.139895
N142	N	1.531194	-0.250498	0.138940
C143	C	1.391667	-0.442961	0.646964
N144	N	1.340413	-0.443933	0.615083
H145	H	1.640125	-0.034339	0.222421
H146	H	1.435064	-0.355212	0.259141
H147	H	1.527830	-0.559881	0.676115
H148	H	0.935228	0.431153	0.779015
C149	C	0.705231	-0.177370	1.147624
N150	N	0.651108	-0.185654	1.201166
H151	H	1.472679	-0.487703	0.292451
C152	C	1.051863	0.293324	0.730222
N153	N	1.032076	0.239773	0.738495
C154	C	0.914954	0.007320	0.477822
N155	N	0.858576	0.030910	0.532326
H156	H	0.848559	0.112373	0.572179
H157	H	1.409340	-0.122242	0.337566
C158	C	1.514423	-0.302371	0.787528
N159	N	1.511593	-0.247872	0.811126
H160	H	1.359875	-0.256097	0.358283
C161	C	1.499191	-0.237112	0.009482
N162	N	1.575355	-0.268974	0.008527
H163	H	1.004116	0.047276	0.993288
H164	H	1.359898	-0.421940	0.524086
C165	C	0.864803	0.561891	0.808494
N166	N	0.788640	0.562845	0.840359
H167	H	0.836168	-0.104733	1.131260
H168	H	0.935242	-0.001176	0.211336
C169	C	1.441009	-0.541934	0.430171
N170	N	1.458172	-0.602442	0.445375
H171	H	0.934410	0.678814	0.779381
C172	C	1.514432	0.007319	0.477818
N173	N	1.511616	0.030905	0.532318
C174	C	1.651570	0.028305	0.342113
N175	N	1.702832	0.060179	0.343083
C176	C	0.712435	-0.237140	1.009460
N177	N	0.661160	-0.269002	1.008488
C178	C	1.455022	0.359707	0.561566
N179	N	1.531186	0.358755	0.529706
H180	H	1.429584	-0.207998	-0.107441
H181	H	1.305305	0.479379	0.624206
C182	C	1.499187	0.229288	0.543085
N183	N	1.575353	0.228337	0.511231
C184	C	0.835249	0.369835	0.683631
N185	N	0.832432	0.424327	0.707234
C186	C	1.250895	-0.133231	0.337253
N187	N	1.327059	-0.165093	0.336298
H188	H	0.954654	-0.086583	1.014005
H189	H	1.224627	0.557391	0.657964
H190	H	1.429592	0.112355	0.572181
C191	C	1.113100	-0.075585	0.014312
N192	N	1.036940	-0.043717	0.015264
H193	H	1.058688	-0.052828	0.091995
C194	C	0.864806	0.028292	0.342087
N195	N	0.788643	0.060154	0.343038
H196	H	1.305297	-0.156001	0.259583
H197	H	0.954679	0.233780	0.693607
