data_functionalizedCrystal
_audit_creation_method	'MofGen! by Chris Wilmer'
_symmetry_space_group_name_H-M	'P1'
_symmetry_Int_Tables_number	1
_symmetry_cell_setting	triclinic
loop_
_symmetry_equiv_pos_as_xyz
  x,y,z
_cell_length_a	10.654541
_cell_length_b	16.992694
_cell_length_c	15.455313
_cell_angle_alpha	92.857794
_cell_angle_beta	92.691200
_cell_angle_gamma	92.423924
loop_
_atom_site_label
_atom_site_type_symbol
_atom_site_fract_x
_atom_site_fract_y
_atom_site_fract_z
O1	O	0.261289	-1.045242	-0.072021
O2	O	0.258364	-0.816942	-0.072047
O3	O	0.077541	-0.936342	-0.072028
O4	O	0.442112	-0.925843	-0.072040
O5	O	0.087836	-0.929514	0.072233
O6	O	0.268659	-0.810114	0.072214
O7	O	0.271584	-1.038414	0.072240
Cu8	Cu	0.271061	-0.923641	0.085399
Cu9	Cu	0.258886	-0.931716	-0.085206
O10	O	0.452407	-0.919015	0.072221
C11	C	0.259751	-0.784296	0.000080
C12	C	0.248531	-0.697191	0.000071
C13	C	0.035824	-0.932158	0.000102
C14	C	-0.103819	-0.929852	0.000100
C15	C	0.270197	-1.071061	0.000111
C16	C	0.281416	-1.158166	0.000115
C17	C	-0.119450	-1.072627	0.000127
C18	C	-0.192868	-1.142928	0.000142
C19	C	-0.324074	-1.140757	0.000139
C20	C	-0.381864	-1.068277	0.000119
C21	C	-0.308446	-0.997977	0.000103
C22	C	-0.177238	-1.000155	0.000109
C23	C	-0.292816	-0.855204	0.000070
C24	C	-0.161609	-0.857373	0.000079
C25	C	-0.350606	-0.782725	0.000050
C26	C	-0.277188	-0.712422	0.000041
C27	C	-0.145974	-0.714596	0.000045
C28	C	-0.088191	-0.787072	0.000064
C29	C	0.494124	-0.923199	0.000089
C30	C	0.633766	-0.925505	0.000085
N31	N	0.279624	-0.917967	0.205394
C32	C	0.356782	-0.647539	0.000068
C33	C	0.346233	-0.565694	0.000080
C34	C	0.227433	-0.533504	0.000089
C35	C	0.119174	-0.583162	0.000095
C36	C	0.129724	-0.665005	0.000089
C37	C	0.183707	-0.289667	0.000114
C38	C	0.173165	-0.207818	0.000117
C39	C	0.400226	-0.190356	0.000105
C40	C	0.410765	-0.272201	0.000093
C41	C	0.302507	-0.321852	0.000103
N42	N	0.216648	-0.449846	0.000099
N43	N	0.313293	-0.405508	0.000100
N44	N	0.250314	-0.937396	-0.205201
C45	C	0.202836	-0.968710	0.250796
C46	C	0.209324	-0.964427	0.341603
C47	C	0.292608	-0.909403	0.387007
C48	C	0.369399	-0.858655	0.341598
C49	C	0.362903	-0.862935	0.250793
C50	C	0.320610	-0.890928	0.658585
C51	C	0.327102	-0.886653	0.749397
C52	C	0.167025	-0.992424	0.749396
C53	C	0.160543	-0.996703	0.658588
C54	C	0.237329	-0.945952	0.613188
N55	N	0.299244	-0.905025	0.479826
N56	N	0.230685	-0.950326	0.520370
H57	H	-0.145800	-1.201939	0.000167
H58	H	0.135024	-1.013519	0.213834
H59	H	0.018643	-0.788849	0.000073
O60	O	0.416938	-0.827302	0.798367
H61	H	0.408563	-0.832862	0.869136
H62	H	0.453522	-0.673741	0.000060
H63	H	0.104508	-1.033743	0.786369
O64	O	0.538901	-0.306921	0.000106
H65	H	0.612406	-0.258643	0.000119
O66	O	0.126504	-1.019168	0.390562
H67	H	0.065026	-0.983874	0.431937
H68	H	-0.488700	-1.066517	0.000105
O69	O	0.459230	-0.799311	0.390570
H70	H	0.556945	-0.810659	0.373119
H71	H	0.076419	-0.181613	0.000124
H72	H	0.383135	-0.849605	0.621627
H73	H	0.434383	-0.525270	0.000077
O74	O	0.445723	-0.808193	0.201831
H75	H	0.385995	-0.771725	0.160486
H76	H	-0.457442	-0.780962	0.000042
H77	H	0.092727	-1.041507	0.621623
H78	H	0.095555	-0.330084	0.000123
H79	H	-0.086204	-0.657348	0.000029
H80	H	0.488363	-0.149921	0.000098
H81	H	0.022445	-0.556946	0.000114
O82	O	0.012971	-0.718565	0.000094
H83	H	-0.047690	-0.709829	-0.058703
O84	O	-0.339520	-0.634256	0.000027
H85	H	-0.403117	-0.632639	-0.058772
O86	O	0.022067	-1.074962	0.000143
H87	H	0.049114	-1.109136	-0.058647
H88	H	-0.383851	-1.198002	0.000145
