data_functionalizedCrystal
_audit_creation_method	'MofGen! by Chris Wilmer'
_symmetry_space_group_name_H-M	'P1'
_symmetry_Int_Tables_number	1
_symmetry_cell_setting	triclinic
loop_
_symmetry_equiv_pos_as_xyz
  x,y,z
_cell_length_a	16.109301
_cell_length_b	11.804365
_cell_length_c	16.109301
_cell_angle_alpha	78.174178
_cell_angle_beta	83.461481
_cell_angle_gamma	101.842029
loop_
_atom_site_label
_atom_site_type_symbol
_atom_site_fract_x
_atom_site_fract_y
_atom_site_fract_z
O1	O	1.119920	0.098953	0.090088
O2	O	0.877862	0.098973	0.103384
O3	O	1.005539	0.098950	-0.024293
O4	O	0.992244	0.098976	0.217765
O5	O	0.971926	-0.099100	0.009286
O6	O	0.844249	-0.099077	0.136963
O7	O	1.086308	-0.099097	0.123667
Cu8	Cu	0.962210	-0.117170	0.133381
Cu9	Cu	1.001960	0.117047	0.093670
O10	O	0.958631	-0.099074	0.251343
C11	C	0.830081	-0.000050	0.119634
C12	C	0.737787	-0.000043	0.118018
N13	N	0.934257	-0.281906	0.161310
C14	C	0.515513	-0.000049	0.190027
C15	C	0.428792	-0.000057	0.188504
C16	C	0.448664	-0.000068	0.037017
C17	C	0.535383	-0.000068	0.038542
C18	C	0.568806	-0.000053	0.115048
C19	C	0.395366	-0.000060	0.112001
C20	C	0.301338	-0.000069	0.110349
C21	C	0.662839	-0.000047	0.116701
C22	C	1.097043	-0.655883	-0.001352
C23	C	1.118188	-0.531225	-0.022484
C24	C	1.072207	-0.468889	0.023462
C25	C	1.005078	-0.531224	0.090545
C26	C	0.983935	-0.655894	0.111684
C27	C	0.959099	-0.468900	0.136499
C28	C	0.891970	-0.531234	0.203582
C29	C	0.870830	-0.655892	0.224717
C30	C	0.916811	-0.718228	0.178770
C31	C	0.980241	-0.344230	0.115360
C32	C	0.867133	-0.344240	0.228396
C33	C	0.845988	-0.468898	0.249528
C34	C	1.134089	-0.000071	0.107416
C35	C	1.226385	-0.000070	0.109031
C36	C	0.988194	-0.000075	-0.038478
C37	C	0.986578	-0.000077	-0.130773
N38	N	1.029919	0.281782	0.065734
C39	C	1.058588	-0.000064	-0.353048
C40	C	1.057066	-0.000054	-0.439770
C41	C	0.905578	-0.000046	-0.419897
C42	C	0.907103	-0.000048	-0.333178
C43	C	0.983609	-0.000062	-0.299755
C44	C	0.980562	-0.000051	-0.473196
C45	C	0.978911	-0.000040	-0.567224
C46	C	0.985261	-0.000071	-0.205722
C47	C	0.975977	-0.000046	0.265528
C48	C	0.977593	-0.000037	0.357822
H49	H	0.542722	-0.000046	0.252324
H50	H	1.089426	-0.367387	0.006253
H51	H	1.034898	-0.293488	0.060741
Cl52	Cl	1.154768	-0.000079	-0.311034
H53	H	1.118122	-0.000052	-0.483159
Cl54	Cl	0.809404	-0.000028	-0.461921
H55	H	0.846043	-0.000043	-0.289785
H56	H	1.134479	-0.706645	-0.038751
Cl57	Cl	0.361798	-0.000053	0.282767
H58	H	0.421439	-0.000087	-0.025271
H59	H	0.578776	-0.000075	-0.022518
H60	H	1.172844	-0.480477	-0.077102
Cl61	Cl	0.890224	-0.874948	0.205334
Cl62	Cl	0.786449	-0.734257	0.309058
H63	H	0.829693	-0.293487	0.265812
Cl64	Cl	0.761600	-0.547274	0.333860
