data_functionalizedCrystal
_audit_creation_method	'MofGen! by Chris Wilmer'
_symmetry_space_group_name_H-M	'P1'
_symmetry_Int_Tables_number	1
_symmetry_cell_setting	triclinic
loop_
_symmetry_equiv_pos_as_xyz
  x,y,z
_cell_length_a	10.489711
_cell_length_b	10.489741
_cell_length_c	14.048226
_cell_angle_alpha	89.993872
_cell_angle_beta	89.992023
_cell_angle_gamma	84.533091
loop_
_atom_site_label
_atom_site_type_symbol
_atom_site_fract_x
_atom_site_fract_y
_atom_site_fract_z
O1	O	1.694079	0.179790	-0.079195
O2	O	1.322879	0.196722	-0.079189
O3	O	1.516925	0.002657	-0.079186
O4	O	1.500032	0.373855	-0.079197
O5	O	1.516902	0.002646	0.079135
O6	O	1.322855	0.196711	0.079133
O7	O	1.694055	0.179778	0.079127
Zn8	Zn	1.508451	0.188243	0.104267
Zn9	Zn	1.508483	0.188258	-0.104329
O10	O	1.500009	0.373843	0.079124
C11	C	1.275334	0.195446	-0.000027
C12	C	1.133703	0.191644	-0.000025
C13	C	0.951317	0.308348	-0.000040
C14	C	1.043474	0.250059	-0.078097
C15	C	1.043424	0.250016	0.077995
C16	C	0.973523	0.126516	-0.078167
C17	C	0.973463	0.126490	0.077995
C18	C	1.065593	0.068111	-0.000081
C19	C	1.515638	-0.044880	-0.000026
C20	C	1.511820	-0.186509	-0.000028
C21	C	1.388354	-0.254636	-0.000033
C22	C	1.446667	-0.346770	0.078027
C23	C	1.446719	-0.346733	-0.078065
C24	C	1.570184	-0.276778	0.078097
C25	C	1.570219	-0.276732	-0.078066
C26	C	1.628622	-0.368839	0.000013
C27	C	1.741600	0.181055	-0.000037
C28	C	1.883231	0.184857	-0.000045
C29	C	1.501296	0.421381	-0.000038
C30	C	1.505114	0.563010	-0.000043
N31	N	1.508439	0.188231	0.246627
N32	N	1.508505	0.188259	-0.246689
C33	C	1.594391	0.102335	0.296446
C34	C	1.594400	0.102335	0.396104
C35	C	1.508462	0.188237	0.445941
C36	C	1.422501	0.274137	0.396115
C37	C	1.422487	0.274131	0.296459
C38	C	1.422538	0.274147	0.603829
C39	C	1.422553	0.274155	0.703491
C40	C	1.594450	0.102351	0.703474
C41	C	1.594436	0.102344	0.603818
C42	C	1.508477	0.188246	0.553999
H43	H	0.901626	0.409850	-0.000120
H44	H	1.352523	0.344076	0.436697
H45	H	1.730226	-0.418274	0.000055
H46	H	1.074478	0.302319	-0.144089
H47	H	0.942724	0.074318	-0.144236
Cl48	Cl	1.141968	-0.088737	-0.000138
H49	H	1.286841	-0.204974	0.000047
H50	H	1.394472	-0.377687	-0.144065
Cl51	Cl	1.702440	-0.005657	0.233805
Cl52	Cl	1.314424	0.382115	0.233830
Cl53	Cl	0.925544	0.045875	0.179893
H54	H	1.664441	0.032407	0.744043
H55	H	1.394415	-0.377781	0.144022
Cl56	Cl	1.091207	0.330712	0.179881
Cl57	Cl	1.650759	-0.229201	0.180099
Cl58	Cl	1.650824	-0.228796	-0.179964
H59	H	1.664387	0.032391	0.436667
Cl60	Cl	1.314468	0.382138	0.541203
Cl61	Cl	1.702480	-0.005640	0.541165
H62	H	1.352572	0.344105	0.744063
