data_functionalizedCrystal
_audit_creation_method	'MofGen! by Chris Wilmer'
_symmetry_space_group_name_H-M	'P1'
_symmetry_Int_Tables_number	1
_symmetry_cell_setting	triclinic
loop_
_symmetry_equiv_pos_as_xyz
  x,y,z
_cell_length_a	12.759401
_cell_length_b	19.121063
_cell_length_c	19.120904
_cell_angle_alpha	94.741613
_cell_angle_beta	92.424516
_cell_angle_gamma	92.470439
loop_
_atom_site_label
_atom_site_type_symbol
_atom_site_fract_x
_atom_site_fract_y
_atom_site_fract_z
Zn1	Zn	1.561003	-0.297081	-0.409736
Zn2	Zn	2.061003	0.202919	0.090264
Zn3	Zn	1.560873	-0.409728	-0.297087
Zn4	Zn	2.060873	0.090272	0.202913
Zn5	Zn	1.393146	-0.292085	-0.292093
Zn6	Zn	1.893146	0.207915	0.207907
Zn7	Zn	1.377429	-0.414712	-0.414712
Zn8	Zn	1.877429	0.085288	0.085288
O9	O	1.473113	-0.353402	-0.353407
O10	O	1.973113	0.146598	0.146593
O11	O	1.708006	-0.312030	-0.394801
O12	O	2.208006	0.187970	0.105199
O13	O	1.545147	-0.389946	-0.197964
O14	O	2.045147	0.110054	0.302036
O15	O	1.422045	-0.194285	-0.303526
O16	O	1.922045	0.305715	0.196474
O17	O	1.707910	-0.394791	-0.312038
O18	O	2.207910	0.105209	0.187962
O19	O	1.545368	-0.197956	-0.389958
O20	O	2.045368	0.302044	0.110042
O21	O	1.421919	-0.303514	-0.194295
O22	O	1.921919	0.196486	0.305705
O23	O	1.244041	-0.308347	-0.308351
O24	O	1.744041	0.191653	0.191649
O25	O	1.395258	-0.403285	-0.512512
O26	O	1.895258	0.096715	-0.012512
O27	O	1.232494	-0.398440	-0.398438
O28	O	1.732494	0.101560	0.101562
O29	O	1.530128	-0.316862	-0.508857
O30	O	2.030128	0.183138	-0.008857
O31	O	1.529907	-0.508852	-0.316863
O32	O	2.029907	-0.008852	0.183137
O33	O	1.395131	-0.512514	-0.403281
O34	O	1.895131	-0.012514	0.096719
C35	C	1.200147	-0.353393	-0.353393
C36	C	1.700147	0.146607	0.146607
C37	C	1.083369	-0.353406	-0.353404
C38	C	1.583369	0.146594	0.146596
C39	C	1.460827	-0.536214	-0.361169
C40	C	1.960827	-0.036214	0.138831
C41	C	1.455665	-0.614423	-0.364513
C42	C	1.955665	-0.114423	0.135487
C43	C	1.022522	-0.400383	-0.400245
C44	C	1.522522	0.099617	0.099755
C45	C	0.912797	-0.400387	-0.400259
C46	C	1.412797	0.099613	0.099741
C47	C	0.924775	-0.306434	-0.306585
C48	C	1.424775	0.193566	0.193415
C49	C	1.034499	-0.306428	-0.306575
C50	C	1.534499	0.193572	0.193425
C51	C	1.523461	-0.649238	-0.321128
C52	C	2.023461	-0.149238	0.178872
C53	C	1.518612	-0.722723	-0.324277
C54	C	2.018612	-0.222723	0.175723
C55	C	1.445963	-0.761393	-0.370808
C56	C	1.945963	-0.261393	0.129192
C57	C	1.378165	-0.726573	-0.414198
C58	C	1.878165	-0.226573	0.085802
C59	C	1.383019	-0.653089	-0.411052
C60	C	1.883019	-0.153089	0.088948
C61	C	1.427798	-0.983365	-0.382560
C62	C	1.927798	-0.483365	0.117440
C63	C	1.422947	-1.056854	-0.385701
C64	C	1.922947	-0.556854	0.114299
C65	C	1.563396	-1.052999	-0.295781
C66	C	2.063396	-0.552999	0.204219
C67	C	1.568240	-0.979513	-0.292636
C68	C	2.068240	-0.479513	0.207364
C69	C	1.500445	-0.944700	-0.336028
C70	C	2.000445	-0.444700	0.163972
C71	C	1.441003	-0.836507	-0.374027
C72	C	1.941003	-0.336507	0.125973
C73	C	1.505411	-0.869587	-0.332813
C74	C	2.005411	-0.369587	0.167187
C75	C	1.747144	-0.353412	-0.353422
C76	C	2.247144	0.146588	0.146578
C77	C	1.863920	-0.353416	-0.353428
C78	C	2.363920	0.146584	0.146572
C79	C	1.460954	-0.361186	-0.536928
C80	C	1.960954	0.138814	-0.036928
C81	C	1.455773	-0.364504	-0.615134
C82	C	1.955773	0.135496	-0.115134
C83	C	1.485474	-0.169876	-0.345630
C84	C	1.985474	0.330124	0.154370
C85	C	1.490742	-0.091669	-0.342316
C86	C	1.990742	0.408331	0.157684
C87	C	1.523555	-0.321069	-0.649973
C88	C	2.023555	0.178931	-0.149973
C89	C	1.518674	-0.324183	-0.723455
C90	C	2.018674	0.175817	-0.223455
C91	C	1.446015	-0.370737	-0.762097
C92	C	1.946015	0.129263	-0.262097
C93	C	1.378226	-0.414173	-0.727253
C94	C	1.878226	0.085827	-0.227253
C95	C	1.383103	-0.411055	-0.653772
C96	C	1.883103	0.088945	-0.153772
C97	C	1.427773	-0.382400	-0.984058
C98	C	1.927773	0.117600	-0.484058
C99	C	1.422904	-0.385516	-1.057545
C100	C	1.922904	0.114484	-0.557545
C101	C	1.563351	-0.295525	-1.053742
C102	C	2.063351	0.204475	-0.553742
C103	C	1.568226	-0.292413	-0.980260
C104	C	2.068226	0.207587	-0.480260
C105	C	1.500433	-0.335848	-0.945422
C106	C	2.000433	0.164152	-0.445422
C107	C	1.441027	-0.373923	-0.837208
C108	C	1.941027	0.126077	-0.337208
C109	C	1.505417	-0.332658	-0.870312
C110	C	2.005417	0.167342	-0.370312
C111	C	1.485288	-0.345597	-0.170598
C112	C	1.985288	0.154403	0.329402
C113	C	1.490686	-0.342081	-0.092384
C114	C	1.990686	0.157919	0.407616
H115	H	1.062308	-0.438635	-0.438377
H116	H	1.562308	0.061365	0.061623
H117	H	1.618592	-1.081352	-0.260454
H118	H	2.118592	-0.581352	0.239546
H119	H	0.863259	-0.438639	-0.438402
H120	H	1.363259	0.061361	0.061598
Br121	Br	1.604009	-0.269470	-0.817868
Br122	Br	2.104009	0.230530	-0.317868
Br123	Br	0.858445	-0.242680	-0.243035
Br124	Br	1.358445	0.257320	0.256965
Br125	Br	1.117084	-0.242662	-0.243008
Br126	Br	1.617084	0.257338	0.256992
H127	H	1.319017	-0.758064	-0.452088
H128	H	1.819017	-0.258064	0.047912
Br129	Br	1.622052	-0.596764	-0.257969
Br130	Br	2.122052	-0.096764	0.242031
Br131	Br	1.291014	-0.605840	-0.469938
Br132	Br	1.791014	-0.105840	0.030062
Br133	Br	1.279610	-0.477350	-0.779695
Br134	Br	1.779610	0.022650	-0.279695
H135	H	1.627395	-0.254507	-0.948802
H136	H	2.127395	0.245493	-0.448802
H137	H	1.573817	-0.751066	-0.288948
H138	H	2.073817	-0.251066	0.211052
Br139	Br	1.666852	-0.927038	-0.229493
Br140	Br	2.166852	-0.427038	0.270507
H141	H	1.363799	-1.088338	-0.423605
H142	H	1.863799	-0.588338	0.076395
Br143	Br	1.335792	-0.936128	-0.441450
Br144	Br	1.835792	-0.436128	0.058550
H145	H	1.582725	-0.283162	-0.618516
H146	H	2.082725	0.216838	-0.118516
H147	H	1.573872	-0.288815	-0.751818
H148	H	2.073872	0.211185	-0.251818
H149	H	1.327897	-0.446417	-0.625406
H150	H	1.827897	0.053583	-0.125406
H151	H	1.564566	-0.838101	-0.294930
H152	H	2.064566	-0.338101	0.205070
H153	H	1.381850	-0.868000	-0.411911
H154	H	1.881850	-0.368000	0.088089
H155	H	1.618543	-0.260162	-1.082115
H156	H	2.118543	0.239838	-0.582115
Br157	Br	1.324285	-0.448698	-1.109988
Br158	Br	1.824285	0.051302	-0.609988
H159	H	1.372586	-0.417777	-0.955703
H160	H	1.872586	0.082223	-0.455703
H161	H	1.381872	-0.411830	-0.868679
H162	H	1.881872	0.088170	-0.368679
