data_functionalizedCrystal
_audit_creation_method	'MofGen! by Chris Wilmer'
_symmetry_space_group_name_H-M	'P1'
_symmetry_Int_Tables_number	1
_symmetry_cell_setting	triclinic
loop_
_symmetry_equiv_pos_as_xyz
  x,y,z
_cell_length_a	13.033293
_cell_length_b	13.032127
_cell_length_c	13.034296
_cell_angle_alpha	76.643561
_cell_angle_beta	76.645775
_cell_angle_gamma	103.318992
loop_
_atom_site_label
_atom_site_type_symbol
_atom_site_fract_x
_atom_site_fract_y
_atom_site_fract_z
Zn1	Zn	1.685614	-0.101470	-0.792453
Zn2	Zn	1.632687	-0.309412	-0.584536
Zn3	Zn	1.477712	-0.154318	-0.584548
Zn4	Zn	1.477718	-0.309308	-0.739535
O5	O	1.568433	-0.218627	-0.675268
O6	O	1.830456	-0.106980	-0.787014
O7	O	1.589977	-0.310998	-0.432662
O8	O	1.527438	0.004580	-0.634279
O9	O	1.791571	-0.259754	-0.634259
O10	O	1.680183	0.043407	-0.787026
O11	O	1.476117	-0.197052	-0.432670
O12	O	1.325850	-0.196952	-0.582966
O13	O	1.527448	-0.259578	-0.898430
O14	O	1.325854	-0.310823	-0.696834
O15	O	1.680189	-0.106880	-0.937310
O16	O	1.589983	-0.461286	-0.582946
O17	O	1.476127	-0.461210	-0.696822
C18	C	1.286476	-0.259611	-0.634159
C19	C	1.165853	-0.277167	-0.616594
C20	C	1.131315	-0.209492	-0.684431
C21	C	1.006646	-0.227635	-0.666279
C22	C	1.527345	-0.500623	-0.634168
C23	C	1.509872	-0.621243	-0.616636
C24	C	1.559559	-0.780393	-0.666336
C25	C	1.577628	-0.655725	-0.684461
C26	C	1.851491	-0.177484	-0.716538
C27	C	1.972113	-0.159951	-0.734125
C28	C	1.609723	-0.177323	-0.958351
C29	C	1.627318	-0.159721	-1.078984
C30	C	1.609714	0.064478	-0.716556
C31	C	1.627305	0.185120	-0.734151
C32	C	1.559590	-0.227425	-1.113529
C33	C	1.577774	-0.209235	-1.238209
C34	C	1.527377	-0.259684	-0.393307
C35	C	1.510036	-0.276949	-0.272750
H36	H	1.103126	-0.348536	-0.545076
H37	H	1.488147	-0.298860	-1.050801
O38	O	1.662932	-0.124033	-1.313180
C39	C	1.758760	-0.028287	-1.505804
C40	C	1.662266	-0.124804	-1.421019
H41	H	1.758267	-0.028892	-1.593010
H42	H	1.749255	0.053278	-1.493655
H43	H	1.840252	-0.037841	-1.493502
H44	H	1.580729	-0.115356	-1.433270
H45	H	1.671868	-0.206332	-1.433190
H46	H	0.943922	-0.299009	-0.594756
H47	H	1.649005	-0.592958	-0.755946
O48	O	1.474453	-0.855161	-0.580937
C49	C	1.389988	-0.924778	-0.383564
C50	C	1.486419	-0.840032	-0.480179
H51	H	1.399643	-0.912590	-0.302077
H52	H	1.308397	-0.912573	-0.392900
H53	H	1.390576	-1.011972	-0.384194
H54	H	1.485936	-0.752803	-0.479609
H55	H	1.567967	-0.852333	-0.470807
O56	O	1.424579	-0.696067	-0.531456
C57	C	1.227274	-0.765601	-0.446618
C58	C	1.323762	-0.680824	-0.543153
H59	H	1.145742	-0.753291	-0.456029
H60	H	1.227770	-0.852835	-0.447176
H61	H	1.236893	-0.753388	-0.365128
H62	H	1.314208	-0.692935	-0.624692
H63	H	1.323236	-0.593621	-0.542497
O64	O	1.424818	-0.362092	-1.197781
C65	C	1.329064	-0.457920	-1.005159
C66	C	1.425598	-0.361440	-1.089940
H67	H	1.329677	-0.457440	-0.917951
H68	H	1.247520	-0.448373	-1.017312
H69	H	1.338578	-0.539431	-1.017459
H70	H	1.416191	-0.279885	-1.077691
H71	H	1.507105	-0.371085	-1.077764
O72	O	1.047080	-0.074881	-0.819427
C73	C	1.239689	0.020830	-0.915229
C74	C	1.154910	-0.075565	-0.818599
H75	H	1.326889	0.020323	-0.914577
H76	H	1.227541	0.011201	-0.996738
H77	H	1.227390	0.102386	-0.905861
H78	H	1.167158	-0.157165	-0.827860
H79	H	1.167080	-0.065839	-0.737126
H80	H	1.698768	-0.088293	-1.141713
O81	O	1.712332	-0.739900	-0.819474
C82	C	1.766621	-0.588323	-0.986664
C83	C	1.670225	-0.673158	-0.890080
H84	H	1.732612	-0.534356	-1.043788
H85	H	1.823787	-0.534168	-0.952894
H86	H	1.814834	-0.633701	-1.034856
H87	H	1.621928	-0.627871	-0.841850
H88	H	1.613138	-0.727310	-0.923921
O89	O	1.206286	-0.124427	-0.769726
C90	C	1.398897	-0.028716	-0.865520
C91	C	1.314115	-0.125113	-0.768894
H92	H	1.486096	-0.029224	-0.864865
H93	H	1.386753	-0.038341	-0.947032
H94	H	1.386598	0.052839	-0.856150
H95	H	1.326363	-0.206712	-0.778157
H96	H	1.326282	-0.115390	-0.687419
