data_functionalizedCrystal
_audit_creation_method	'MofGen! by Chris Wilmer'
_symmetry_space_group_name_H-M	'P1'
_symmetry_Int_Tables_number	1
_symmetry_cell_setting	triclinic
loop_
_symmetry_equiv_pos_as_xyz
  x,y,z
_cell_length_a	8.597340
_cell_length_b	8.597304
_cell_length_c	17.766277
_cell_angle_alpha	82.293845
_cell_angle_beta	97.692772
_cell_angle_gamma	86.359595
loop_
_atom_site_label
_atom_site_type_symbol
_atom_site_fract_x
_atom_site_fract_y
_atom_site_fract_z
O1	O	2.085986	0.234298	0.057501
O2	O	2.585986	0.734298	0.557501
O3	O	1.629342	0.252275	0.026718
O4	O	2.129342	0.752275	0.526718
O5	O	1.866647	0.014956	0.057502
O6	O	2.366647	0.514956	0.557502
O7	O	1.848681	0.471617	0.026718
O8	O	2.348681	0.971617	0.526718
O9	O	1.866605	0.014943	0.182688
O10	O	2.366605	0.514943	0.682688
O11	O	1.629300	0.252262	0.151905
O12	O	2.129300	0.752262	0.651905
O13	O	2.085944	0.234285	0.182688
O14	O	2.585944	0.734285	0.682688
Cu15	Cu	1.857618	0.243272	0.178727
Cu16	Cu	2.357618	0.743272	0.678727
Cu17	Cu	1.857668	0.243288	0.030679
Cu18	Cu	2.357668	0.743288	0.530679
O19	O	1.848639	0.471604	0.151905
O20	O	2.348639	0.971604	0.651905
C21	C	1.570821	0.250338	0.085643
C22	C	2.070821	0.750338	0.585643
C23	C	1.396511	0.244568	0.074711
C24	C	1.896511	0.744568	0.574711
C25	C	1.864695	-0.043552	0.123762
C26	C	2.364695	0.456448	0.623762
C27	C	1.858921	-0.217868	0.134689
C28	C	2.358921	0.282132	0.634689
C29	C	2.144465	0.236222	0.123762
C30	C	2.644465	0.736222	0.623762
C31	C	2.318775	0.241991	0.134688
C32	C	2.818775	0.741991	0.634688
C33	C	1.850591	0.530112	0.085642
C34	C	2.350591	1.030112	0.585642
C35	C	1.856365	0.704428	0.074711
C36	C	2.356365	1.204428	0.574711
N37	N	1.857594	0.243261	0.282856
N38	N	2.357594	0.743261	0.782856
N39	N	1.857704	0.243287	-0.073449
N40	N	2.357704	0.743287	0.426551
C41	C	1.962708	0.138229	0.335873
C42	C	2.462708	0.638229	0.835873
C43	C	1.962717	0.138222	0.414676
C44	C	2.462717	0.638222	0.914676
C45	C	1.857627	0.243274	0.440458
C46	C	2.357627	0.743274	0.940458
C47	C	1.752493	0.348313	0.387430
C48	C	2.252493	0.848313	0.887430
C49	C	1.752476	0.348307	0.308630
C50	C	2.252476	0.848307	0.808630
C51	C	1.839255	0.385928	0.554852
C52	C	2.339255	0.885928	1.054852
C53	C	1.839283	0.385937	0.633652
C54	C	2.339283	0.885937	1.133652
C55	C	1.857669	0.243293	0.683506
C56	C	2.357669	0.743293	1.183506
C57	C	1.876061	0.100636	0.654553
C58	C	2.376061	0.600636	1.154553
C59	C	1.876045	0.100629	0.575752
C60	C	2.376045	0.600629	1.075752
C61	C	1.857633	0.243292	0.525903
C62	C	2.357633	0.743292	1.025903
C63	C	1.962799	0.138245	0.821971
C64	C	2.462799	0.638245	1.321971
C65	C	1.962797	0.138236	0.900774
C66	C	2.462797	0.638236	1.400774
C67	C	1.752581	0.348341	0.873527
C68	C	2.252581	0.848341	1.373527
C69	C	1.752575	0.348337	0.794725
C70	C	2.252575	0.848337	1.294725
C71	C	1.857693	0.243291	0.768952
C72	C	2.357693	0.743291	1.268952
H73	H	1.329704	0.242360	0.014993
H74	H	1.829704	0.742360	0.514993
H75	H	1.385576	0.244189	0.194403
H76	H	1.885576	0.744189	0.694403
H77	H	1.858588	-0.228741	0.014996
H78	H	2.358588	0.271259	0.514996
H79	H	1.856675	-0.284704	0.194406
H80	H	2.356675	0.215296	0.694406
H81	H	2.048297	0.052691	0.314892
H82	H	2.548297	0.552691	0.814892
H83	H	2.048316	0.052689	0.457850
H84	H	2.548316	0.552689	0.957850
H85	H	1.666987	0.433870	0.751556
H86	H	2.166987	0.933870	1.251556
H87	H	1.891016	-0.015528	0.552181
H88	H	2.391016	0.484472	1.052181
H89	H	1.891033	-0.015518	0.695143
H90	H	2.391033	0.484482	1.195143
H91	H	2.048388	0.052705	0.800986
H92	H	2.548388	0.552705	1.300986
H93	H	2.048389	0.052698	0.943943
H94	H	2.548389	0.552698	1.443943
H95	H	1.667009	0.433870	0.894518
H96	H	2.167009	0.933870	1.394518
H97	H	1.824317	0.502097	0.657220
H98	H	2.324317	1.002097	1.157220
H99	H	1.824256	0.502093	0.514265
H100	H	2.324256	1.002093	1.014265
H101	H	1.666925	0.433846	0.408426
H102	H	2.166925	0.933846	0.908426
H103	H	1.666878	0.433838	0.265461
H104	H	2.166878	0.933838	0.765461
