data_functionalizedCrystal
_audit_creation_method	'MofGen! by Chris Wilmer'
_symmetry_space_group_name_H-M	'P1'
_symmetry_Int_Tables_number	1
_symmetry_cell_setting	triclinic
loop_
_symmetry_equiv_pos_as_xyz
  x,y,z
_cell_length_a	16.120484
_cell_length_b	17.639874
_cell_length_c	17.640618
_cell_angle_alpha	92.132527
_cell_angle_beta	97.807374
_cell_angle_gamma	76.502643
loop_
_atom_site_label
_atom_site_type_symbol
_atom_site_fract_x
_atom_site_fract_y
_atom_site_fract_z
Zn1	Zn	-0.023898	-1.246920	0.196449
Zn2	Zn	-0.195227	-1.214818	0.078967
Zn3	Zn	-0.077913	-1.092250	0.098084
Zn4	Zn	-0.184289	-1.113974	0.230942
O5	O	-0.120332	-1.166991	0.151110
O6	O	-0.028597	-1.349595	0.158428
O7	O	-0.206848	-1.176033	-0.023265
O8	O	0.045473	-1.117110	0.104697
O9	O	-0.154472	-1.326010	0.072115
O10	O	0.085157	-1.230746	0.176965
O11	O	-0.120658	-1.085982	-0.009220
O12	O	-0.110052	-0.988198	0.138144
O13	O	-0.135830	-1.154136	0.331134
O14	O	-0.188206	-1.004159	0.235754
O15	O	-0.017992	-1.251811	0.305792
O16	O	-0.309996	-1.197098	0.105562
O17	O	-0.301961	-1.123009	0.217217
C18	C	-0.153804	-0.968452	0.192767
C19	C	-0.168139	-0.883520	0.210607
C20	C	-0.011372	-0.562624	0.015547
C21	C	-0.024856	-0.482819	0.032321
C22	C	-0.106427	-0.499452	0.133806
C23	C	-0.092946	-0.579261	0.117042
C24	C	-0.045419	-0.610841	0.057911
C25	C	-0.126993	-0.627478	0.159407
C26	C	-0.113517	-0.707279	0.142642
C27	C	-0.065994	-0.738864	0.083512
C28	C	-0.031943	-0.690642	0.041146
C29	C	-0.174526	-0.595896	0.218534
C30	C	-0.208572	-0.644113	0.260898
C31	C	-0.195091	-0.723917	0.244137
C32	C	-0.147568	-0.755502	0.185008
C33	C	-0.229143	-0.772139	0.286503
C34	C	-0.215667	-0.851940	0.269738
C35	C	-0.134092	-0.835303	0.168243
C36	C	-0.336105	-1.158951	0.163070
C37	C	-0.428396	-1.155588	0.168197
C38	C	-0.597367	-1.149454	0.177571
C39	C	-0.642429	-1.184667	0.124633
C40	C	-0.736451	-1.181254	0.129849
C41	C	-0.503337	-1.152866	0.172356
C42	C	0.096292	-1.175086	0.139116
C43	C	0.188604	-1.178535	0.134005
C44	C	-0.069666	-1.208978	0.346388
C45	C	-0.048075	-1.226870	0.429604
C46	C	-0.086721	-0.366303	0.109283
C47	C	-0.072376	-0.451235	0.091437
C48	C	-0.170733	-1.125213	-0.043420
C49	C	-0.192065	-1.107477	-0.126679
C50	C	0.043703	-1.302938	0.533701
C51	C	0.023408	-1.286119	0.455508
C52	C	-0.099289	-1.184413	0.481888
C53	C	-0.079002	-1.201221	0.560085
C54	C	-0.007505	-1.260484	0.585984
C55	C	-0.130210	-1.158767	0.612369
C56	C	-0.109927	-1.175576	0.690558
C57	C	-0.038435	-1.234839	0.716463
C58	C	0.012778	-1.277293	0.664174
C59	C	-0.201710	-1.099508	0.586467
C60	C	-0.252919	-1.057054	0.638751
C61	C	-0.232632	-1.073859	0.716942
C62	C	-0.161140	-1.133122	0.742848
C63	C	-0.283845	-1.031405	0.769232
C64	C	-0.263562	-1.048214	0.847421
C65	C	-0.140857	-1.149931	0.821037
H66	H	-0.095376	-0.861019	0.120103
C67	C	-0.640001	-1.105705	0.243197
C68	C	-0.636039	-1.027343	0.241563
C69	C	-0.675304	-0.987019	0.302009
H70	H	-0.698452	-1.109085	0.238089
H71	H	-0.610858	-1.128122	0.290424
H72	H	-0.665183	-1.004932	0.194348
H73	H	-0.577598	-1.023939	0.246682
H74	H	-0.646161	-1.009436	0.349236
H75	H	-0.733753	-0.990405	0.296895
H76	H	-0.672614	-0.933848	0.300912
H77	H	-0.082629	-1.198180	0.842127
C78	C	-0.260066	-0.609946	0.325199
C79	C	-0.219600	-0.645988	0.394217
C80	C	-0.267011	-0.614543	0.453470
H81	H	-0.263241	-0.555522	0.329223
H82	H	-0.316503	-0.618604	0.314556
H83	H	-0.163179	-0.637324	0.404859
H84	H	-0.216425	-0.700410	0.390220
H85	H	-0.323448	-0.623201	0.442827
H86	H	-0.270184	-0.560120	0.457486
H87	H	-0.239567	-0.638998	0.500305
H88	H	0.027345	-0.588340	-0.032593
C89	C	-0.319306	-1.002141	0.904097
C90	C	-0.403615	-1.011598	0.886128
C91	C	-0.454996	-0.969161	0.938315
H92	H	-0.297102	-1.020592	0.954399
H93	H	-0.319184	-0.948479	0.901373
H94	H	-0.403734	-1.065248	0.888859
H95	H	-0.425844	-0.993142	0.835834
H96	H	-0.454873	-0.915500	0.935591
H97	H	-0.432785	-0.987616	0.988614
H98	H	-0.512207	-0.975566	0.926126
H99	H	-0.267846	-0.746413	0.334642
H100	H	0.065115	-1.320693	0.412940
C101	C	-0.599583	-1.228204	0.059009
C102	C	-0.513503	-1.222949	0.066798
C103	C	-0.474007	-1.263031	0.006355
H104	H	-0.602084	-1.281426	0.059935
H105	H	-0.628678	-1.205723	0.011794
H106	H	-0.484416	-1.245434	0.114001
H107	H	-0.510978	-1.169737	0.065863
H108	H	-0.503102	-1.240550	-0.040861
H109	H	-0.476514	-1.316251	0.007286
H110	H	-0.415600	-1.259466	0.011628
H111	H	-0.021923	-1.248525	0.780130
H112	H	0.071006	-1.325543	0.685263
C113	C	-0.361430	-0.966974	0.741231
C114	C	-0.351183	-0.896128	0.775118
C115	C	-0.422648	-0.836763	0.749354
H116	H	-0.366261	-0.962935	0.687189
H117	H	-0.412029	-0.978796	0.754825
H118	H	-0.300598	-0.884308	0.761520
H119	H	-0.346362	-0.900141	0.829159
H120	H	-0.473247	-0.848585	0.762947
H121	H	-0.427473	-0.832732	0.695312
H122	H	-0.415709	-0.788689	0.772348
C123	C	-0.177030	-1.120180	0.453783
C124	C	-0.251463	-1.137852	0.473844
C125	C	-0.323098	-1.078707	0.447955
H126	H	-0.170340	-1.072001	0.476665
H127	H	-0.181830	-1.116262	0.399722
H128	H	-0.246663	-1.141762	0.527894
H129	H	-0.258181	-1.186021	0.450963
H130	H	-0.327898	-1.074788	0.393894
H131	H	-0.316399	-1.030531	0.470839
H132	H	-0.373610	-1.090692	0.461556
C133	C	0.121345	-1.367333	0.561675
C134	C	0.161846	-1.400927	0.499151
C135	C	0.233361	-1.460253	0.524891
H136	H	0.160600	-1.346096	0.596288
H137	H	0.103121	-1.406036	0.586924
H138	H	0.180072	-1.362231	0.473914
H139	H	0.122615	-1.422180	0.464532
H140	H	0.215138	-1.498957	0.550141
H141	H	0.272610	-1.439010	0.559505
H142	H	0.260846	-1.483059	0.482473
C143	C	-0.330659	-0.992821	0.610645
C144	C	-0.405092	-1.010493	0.630706
C145	C	-0.476727	-0.951348	0.604817
H146	H	-0.323970	-0.944642	0.633528
H147	H	-0.335460	-0.988903	0.556584
H148	H	-0.400293	-1.014403	0.684757
H149	H	-0.411810	-1.058662	0.607825
H150	H	-0.481528	-0.947429	0.550756
H151	H	-0.470029	-0.903172	0.627702
H152	H	-0.527239	-0.963333	0.618419
H153	H	-0.218225	-1.085827	0.522799
H154	H	-0.055025	-0.803844	0.069862
H155	H	0.006774	-0.716358	-0.006993
C156	C	-0.157964	-0.465022	0.198000
C157	C	-0.162464	-0.384818	0.203627
C158	C	-0.209921	-0.353080	0.262763
H159	H	-0.214436	-0.473575	0.187377
H160	H	-0.130620	-0.489339	0.244926
H161	H	-0.189810	-0.360509	0.156711
H162	H	-0.106005	-0.376243	0.214261
H163	H	-0.182576	-0.377397	0.309690
H164	H	-0.266390	-0.361638	0.252135
H165	H	-0.212973	-0.298660	0.266594
C166	C	0.012222	-0.430603	-0.013740
C167	C	0.056743	-0.475347	-0.069098
C168	C	0.090917	-0.427274	-0.111537
H169	H	-0.033150	-0.391251	-0.038179
H170	H	0.050590	-0.407003	0.019466
H171	H	0.018378	-0.498934	-0.102299
H172	H	0.102127	-0.514697	-0.044680
H173	H	0.129285	-0.403675	-0.078331
H174	H	0.045540	-0.387925	-0.135970
H175	H	0.121135	-0.457627	-0.149097
H176	H	-0.243390	-0.891200	0.304236
H177	H	-0.185496	-0.530916	0.232181
