data_functionalizedCrystal
_audit_creation_method	'MofGen! by Chris Wilmer'
_symmetry_space_group_name_H-M	'P1'
_symmetry_Int_Tables_number	1
_symmetry_cell_setting	triclinic
loop_
_symmetry_equiv_pos_as_xyz
  x,y,z
_cell_length_a	14.971482
_cell_length_b	17.699092
_cell_length_c	13.448316
_cell_angle_alpha	89.995078
_cell_angle_beta	89.993798
_cell_angle_gamma	83.449488
loop_
_atom_site_label
_atom_site_type_symbol
_atom_site_fract_x
_atom_site_fract_y
_atom_site_fract_z
O1	O	1.186614	0.098620	-0.082675
O2	O	0.926173	0.110434	-0.082680
O3	O	1.063748	-0.005644	-0.082675
O4	O	1.049039	0.214698	-0.082680
O5	O	1.063731	-0.005651	0.082709
O6	O	0.926156	0.110427	0.082704
O7	O	1.186597	0.098612	0.082709
Cu8	Cu	1.056375	0.104519	0.097807
Cu9	Cu	1.056395	0.104527	-0.097778
O10	O	1.049022	0.214690	0.082704
C11	C	0.892842	0.109903	0.000012
C12	C	0.793550	0.108321	0.000010
C13	C	0.746898	0.107572	0.090162
C14	C	0.653605	0.106073	0.090163
C15	C	0.606964	0.105329	0.000011
C16	C	0.653622	0.106076	-0.090148
C17	C	0.746915	0.107569	-0.090148
C18	C	0.459171	0.102966	-0.090141
C19	C	0.365872	0.101475	-0.090141
C20	C	0.365861	0.101471	0.090169
C21	C	0.459153	0.102963	0.090169
C22	C	0.505805	0.103712	0.000010
C23	C	1.063211	-0.033846	0.000015
C24	C	1.061626	-0.117867	0.000011
C25	C	1.060893	-0.157333	-0.090141
C26	C	1.059398	-0.236279	-0.090142
C27	C	1.058643	-0.275760	0.000009
C28	C	1.059373	-0.236289	0.090168
C29	C	1.060862	-0.157343	0.090168
C30	C	1.053369	-0.554668	0.090170
C31	C	1.051883	-0.633620	0.090162
C32	C	1.051906	-0.633605	-0.090141
C33	C	1.053394	-0.554659	-0.090141
C34	C	1.054120	-0.515194	0.000017
C35	C	1.055739	-0.429591	0.000017
C36	C	1.057030	-0.361362	0.000010
C37	C	1.219928	0.099144	0.000015
C38	C	1.319220	0.100726	0.000010
C39	C	1.049559	0.242892	0.000012
C40	C	1.051144	0.326914	0.000010
N41	N	1.056367	0.104513	0.235372
N42	N	1.056410	0.104528	-0.235342
C43	C	1.117304	0.053134	0.287414
C44	C	1.117309	0.053134	0.391517
C45	C	1.056382	0.104516	0.443576
C46	C	0.995438	0.155896	0.391527
C47	C	0.995429	0.155893	0.287425
C48	C	0.995463	0.155901	0.608507
C49	C	0.995473	0.155906	0.712615
C50	C	1.117343	0.053142	0.712599
C51	C	1.117334	0.053139	0.608497
C52	C	1.056392	0.104521	0.556455
H53	H	0.615640	0.105465	-0.163551
H54	H	1.166928	0.011297	0.433890
H55	H	0.327873	0.100862	0.163580
N56	N	1.058709	-0.278821	-0.187405
H57	H	1.003584	-0.259004	-0.226887
H58	H	1.114473	-0.271100	-0.226642
N59	N	1.183044	-0.002279	0.552342
H60	H	1.222575	0.026700	0.509136
H61	H	1.221591	-0.034817	0.601166
N62	N	0.315569	0.100653	-0.187375
H63	H	0.249390	0.099595	-0.173691
H64	H	0.324520	0.147792	-0.226762
N65	N	0.929767	0.211321	0.768780
H66	H	0.939942	0.265054	0.750653
H67	H	0.866331	0.202449	0.750674
H68	H	1.061446	-0.125210	0.163579
H69	H	1.053978	-0.522548	0.163582
N70	N	1.051130	-0.676174	-0.187385
H71	H	1.051847	-0.639184	-0.244494
H72	H	1.105947	-0.715008	-0.191292
N73	N	1.054215	-0.512077	-0.187375
H74	H	1.053522	-0.549058	-0.244488
H75	H	0.999406	-0.473236	-0.191301
H76	H	1.061513	-0.125194	-0.163553
N77	N	1.051070	-0.676206	0.187402
H78	H	1.051753	-0.639226	0.244517
H79	H	0.995026	-0.702879	0.191319
N80	N	1.183078	-0.002276	0.768722
H81	H	1.173838	0.005518	0.842570
H82	H	1.172868	-0.055985	0.750535
N83	N	0.929730	0.211315	0.552372
H84	H	0.891135	0.243868	0.601145
H85	H	0.963895	0.244821	0.509165
N86	N	0.929727	0.211314	0.447680
H87	H	0.939907	0.265046	0.429549
H88	H	0.866294	0.202443	0.429563
N89	N	1.058567	-0.278868	0.187406
H90	H	1.057521	-0.334870	0.173728
H91	H	1.114255	-0.271149	0.226764
H92	H	0.497152	0.103576	-0.163558
H93	H	1.166922	0.011297	0.245034
N94	N	0.797237	0.108371	-0.187382
H95	H	0.753536	0.107674	-0.244494
H96	H	0.828593	0.155872	-0.191315
H97	H	0.945807	0.197729	0.245053
H98	H	0.615627	0.105451	0.163574
N99	N	0.797194	0.108380	0.187402
H100	H	0.788310	0.061237	0.226817
H101	H	0.863353	0.109471	0.173646
N102	N	0.509461	0.103777	0.187401
H103	H	0.465753	0.103077	0.244517
H104	H	0.555526	0.057515	0.191331
