data_functionalizedCrystal
_audit_creation_method	'MofGen! by Chris Wilmer'
_symmetry_space_group_name_H-M	'P1'
_symmetry_Int_Tables_number	1
_symmetry_cell_setting	triclinic
loop_
_symmetry_equiv_pos_as_xyz
  x,y,z
_cell_length_a	19.188928
_cell_length_b	22.610064
_cell_length_c	19.188930
_cell_angle_alpha	90.001060
_cell_angle_beta	96.855705
_cell_angle_gamma	89.975098
loop_
_atom_site_label
_atom_site_type_symbol
_atom_site_fract_x
_atom_site_fract_y
_atom_site_fract_z
O1	O	-0.926151	0.049420	0.087150
O2	O	-0.426151	0.549420	0.587150
O3	O	-0.722839	0.049372	0.098886
O4	O	-0.222839	0.549372	0.598886
O5	O	-0.830362	0.049386	-0.008638
O6	O	-0.330362	0.549386	0.491362
O7	O	-0.818628	0.049406	0.194674
O8	O	-0.318628	0.549406	0.694674
O9	O	-0.830343	-0.048983	-0.008622
O10	O	-0.330343	0.451017	0.491378
O11	O	-0.722820	-0.048997	0.098902
O12	O	-0.222820	0.451003	0.598902
O13	O	-0.926132	-0.048949	0.087166
O14	O	-0.426132	0.451051	0.587166
Zn15	Zn	-0.824473	-0.064592	0.093036
Zn16	Zn	-0.324473	0.435408	0.593036
Zn17	Zn	-0.824498	0.065014	0.093016
Zn18	Zn	-0.324498	0.565014	0.593016
O19	O	-0.818609	-0.048963	0.194690
O20	O	-0.318609	0.451037	0.694690
C21	C	-0.696819	0.000181	0.098514
C22	C	-0.196819	0.500181	0.598514
C23	C	-0.619314	0.000162	0.097374
C24	C	-0.119314	0.500162	0.597374
N25	N	-0.824461	-0.153044	0.093050
N26	N	-0.324461	0.346956	0.593050
C27	C	-0.574390	0.000176	0.160465
C28	C	-0.074390	0.500176	0.660465
C29	C	-0.501566	0.000179	0.159394
C30	C	-0.001566	0.500179	0.659394
C31	C	-0.473670	0.000181	0.095229
C32	C	0.026330	0.500181	0.595229
C33	C	-0.518603	0.000163	0.032129
C34	C	-0.018603	0.500163	0.532129
C35	C	-0.591426	0.000154	0.033202
C36	C	-0.091426	0.500154	0.533202
N37	N	-0.365696	0.033674	0.046177
N38	N	0.134304	0.533674	0.546177
N39	N	-0.296517	0.033684	0.045162
N40	N	0.203483	0.533684	0.545162
C41	C	-0.254261	0.000207	0.091992
C42	C	0.245739	0.500207	0.591992
N43	N	-0.283795	-0.033273	0.139886
N44	N	0.216205	0.466727	0.639886
N45	N	-0.352980	-0.033280	0.140903
N46	N	0.147020	0.466720	0.640903
C47	C	-0.394707	0.000190	0.094058
C48	C	0.105293	0.500190	0.594058
C49	C	-0.130372	0.000224	0.153927
C50	C	0.369628	0.500224	0.653927
C51	C	-0.057547	0.000224	0.152853
C52	C	0.442453	0.500224	0.652853
C53	C	-0.074586	0.000214	0.025586
C54	C	0.425414	0.500214	0.525586
C55	C	-0.147409	0.000208	0.026661
C56	C	0.352591	0.500208	0.526661
C57	C	-0.175298	0.000216	0.090833
C58	C	0.324702	0.500216	0.590833
C59	C	-0.872111	-0.561679	0.045411
C60	C	-0.372111	-0.061679	0.545411
C61	C	-0.872115	-0.623599	0.045406
C62	C	-0.372115	-0.123599	0.545406
O63	O	-0.912599	-0.655613	0.004913
O64	O	-0.412599	-0.155613	0.504913
N65	N	-0.824498	-0.654581	0.093001
N66	N	-0.324498	-0.154581	0.593001
C67	C	-0.776869	-0.623640	0.140599
C68	C	-0.276869	-0.123640	0.640599
O69	O	-0.736366	-0.655678	0.181082
O70	O	-0.236366	-0.155678	0.681082
C71	C	-0.776862	-0.561721	0.140601
C72	C	-0.276862	-0.061721	0.640601
C73	C	-0.824488	-0.530742	0.093007
C74	C	-0.324488	-0.030742	0.593007
C75	C	-0.919732	-0.530700	-0.002178
C76	C	-0.419732	-0.030700	0.497822
C77	C	-0.919729	-0.468785	-0.002172
C78	C	-0.419729	0.031215	0.497828
C79	C	-0.872106	-0.437848	0.045424
C80	C	-0.372106	0.062152	0.545424
C81	C	-0.824485	-0.468827	0.093014
C82	C	-0.324485	0.031173	0.593014
C83	C	-0.729231	-0.530781	0.188195
C84	C	-0.229231	-0.030781	0.688195
C85	C	-0.729228	-0.468858	0.188192
C86	C	-0.229228	0.031142	0.688192
C87	C	-0.776853	-0.437879	0.140599
C88	C	-0.276853	0.062121	0.640599
C89	C	-0.776858	-0.375974	0.140616
C90	C	-0.276858	0.124026	0.640616
N91	N	-0.824475	-0.344992	0.093021
N92	N	-0.324475	0.155008	0.593021
C93	C	-0.872099	-0.375929	0.045425
C94	C	-0.372099	0.124071	0.545425
C95	C	-0.776885	-0.753674	0.140593
C96	C	-0.276885	-0.253674	0.640593
C97	C	-0.776894	-0.815591	0.140595
C98	C	-0.276894	-0.315591	0.640595
C99	C	-0.872139	-0.815546	0.045401
C100	C	-0.372139	-0.315546	0.545401
C101	C	-0.872133	-0.753627	0.045402
C102	C	-0.372133	-0.253627	0.545402
C103	C	-0.824502	-0.722692	0.092998
C104	C	-0.324502	-0.222692	0.592998
C105	C	-0.872090	-0.245902	0.045442
C106	C	-0.372090	0.254098	0.545442
C107	C	-0.872085	-0.183981	0.045454
C108	C	-0.372085	0.316019	0.545454
C109	C	-0.776837	-0.184031	0.140645
C110	C	-0.276837	0.315969	0.640645
C111	C	-0.776844	-0.245947	0.140636
C112	C	-0.276844	0.254053	0.640636
C113	C	-0.824474	-0.276881	0.093028
C114	C	-0.324474	0.223119	0.593028
O115	O	-0.736393	-0.343922	0.181087
O116	O	-0.236393	0.156078	0.681087
O117	O	-0.912589	-0.343883	0.004943
O118	O	-0.412589	0.156117	0.504943
C119	C	0.047848	0.000233	0.087540
C120	C	0.547848	0.500233	0.587540
C121	C	-0.029656	0.000224	0.088686
C122	C	0.470344	0.500224	0.588686
C123	C	-0.829973	0.000199	-0.034641
C124	C	-0.329973	0.500199	0.465359
C125	C	-0.828832	0.000194	-0.112145
C126	C	-0.328832	0.500194	0.387855
N127	N	-0.824516	0.153467	0.092996
N128	N	-0.324516	0.653467	0.592996
C129	C	-0.891923	0.000206	-0.157070
C130	C	-0.391923	0.500206	0.342930
C131	C	-0.890851	0.000215	-0.229893
C132	C	-0.390851	0.500215	0.270107
C133	C	-0.826685	0.000201	-0.257789
C134	C	-0.326685	0.500201	0.242211
C135	C	-0.763586	0.000192	-0.212855
C136	C	-0.263586	0.500192	0.287145
C137	C	-0.764659	0.000188	-0.140033
C138	C	-0.264659	0.500188	0.359967
N139	N	-0.777631	-0.033288	-0.365789
N140	N	-0.277631	0.466712	0.134211
N141	N	-0.776616	-0.033286	-0.434967
N142	N	-0.276616	0.466714	0.065033
C143	C	-0.823447	0.000212	-0.477198
C144	C	-0.323447	0.500212	0.022802
N145	N	-0.871343	0.033700	-0.447638
N146	N	-0.371343	0.533700	0.052362
N147	N	-0.872360	0.033696	-0.378454
N148	N	-0.372360	0.533696	0.121546
C149	C	-0.825514	0.000205	-0.336752
C150	C	-0.325514	0.500205	0.163248
C151	C	-0.885380	0.000235	-0.601087
C152	C	-0.385380	0.500235	-0.101087
C153	C	-0.884306	0.000248	-0.673912
C154	C	-0.384306	0.500248	-0.173912
C155	C	-0.757039	0.000218	-0.656872
C156	C	-0.257039	0.500218	-0.156872
C157	C	-0.758115	0.000211	-0.584049
C158	C	-0.258115	0.500211	-0.084049
C159	C	-0.822287	0.000217	-0.556161
C160	C	-0.322287	0.500217	-0.056161
C161	C	-0.818998	0.000225	0.220693
C162	C	-0.318998	0.500225	0.720693
C163	C	-0.820139	0.000234	0.298197
C164	C	-0.320139	0.500234	0.798197
H165	H	-0.597092	0.000183	0.212720
H166	H	-0.097092	0.500183	0.712720
Br167	Br	-0.712209	-0.142036	0.205240
Br168	Br	-0.212209	0.357964	0.705240
H169	H	-0.935684	0.000261	-0.710489
H170	H	-0.435684	0.500261	-0.210489
Br171	Br	-0.440586	0.000194	0.245024
Br172	Br	0.059414	0.500194	0.745024
H173	H	-0.706739	0.000198	-0.547470
H174	H	-0.206739	0.500198	-0.047470
Br175	Br	-0.676502	0.000179	-0.250712
Br176	Br	-0.176502	0.500179	0.249288
H177	H	-0.020970	0.000232	0.204231
H178	H	0.479030	0.500232	0.704231
H179	H	-0.944177	0.000213	-0.134369
H180	H	-0.444177	0.500213	0.365631
H181	H	-0.628004	0.000143	-0.018176
H182	H	-0.128004	0.500143	0.481824
Br183	Br	-0.679029	0.000174	-0.079059
Br184	Br	-0.179029	0.500174	0.420941
Br185	Br	-0.712269	-0.857627	0.205200
Br186	Br	-0.212269	-0.357627	0.705200
H187	H	-0.704793	0.000209	-0.679584
H188	H	-0.204793	0.500209	-0.179584
Br189	Br	-0.036735	0.000206	-0.061498
Br190	Br	0.463265	0.500206	0.438502
H191	H	-0.495885	0.000173	-0.020115
H192	H	0.004115	0.500173	0.479885
Br193	Br	-0.936772	-0.857545	-0.019194
Br194	Br	-0.436772	-0.357545	0.480806
H195	H	-0.738100	-0.728489	0.179356
H196	H	-0.238100	-0.228489	0.679356
Br197	Br	-0.168225	0.000230	0.241015
Br198	Br	0.331775	0.500230	0.741015
H199	H	-0.183988	0.000200	-0.024715
H200	H	0.316012	0.500200	0.475285
Br201	Br	-0.984372	-0.572675	-0.066782
Br202	Br	-0.484372	-0.072675	0.433218
H203	H	-0.910869	-0.158760	0.006698
H204	H	-0.410869	0.341240	0.506698
Br205	Br	-0.936730	-0.287873	-0.019170
Br206	Br	-0.436730	0.212127	0.480830
H207	H	-0.910913	-0.728408	0.006648
H208	H	-0.410913	-0.228408	0.506648
Br209	Br	-0.984362	-0.426749	-0.066769
Br210	Br	-0.484362	0.073251	0.433231
Br211	Br	-0.972469	0.000236	-0.563235
Br212	Br	-0.472469	0.500236	-0.063235
H213	H	-0.690450	-0.555996	0.226949
H214	H	-0.190450	-0.055996	0.726949
Br215	Br	-0.664579	-0.426878	0.252787
Br216	Br	-0.164579	0.073122	0.752787
H217	H	-0.738070	-0.271170	0.179397
H218	H	-0.238070	0.228830	0.679397
H219	H	-0.942229	0.000228	-0.266478
H220	H	-0.442229	0.500228	0.233522
