data_functionalizedCrystal
_audit_creation_method	'MofGen! by Chris Wilmer'
_symmetry_space_group_name_H-M	'P1'
_symmetry_Int_Tables_number	1
_symmetry_cell_setting	triclinic
loop_
_symmetry_equiv_pos_as_xyz
  x,y,z
_cell_length_a	17.038272
_cell_length_b	26.210047
_cell_length_c	17.038272
_cell_angle_alpha	90.004020
_cell_angle_beta	91.111556
_cell_angle_gamma	90.010815
loop_
_atom_site_label
_atom_site_type_symbol
_atom_site_fract_x
_atom_site_fract_y
_atom_site_fract_z
O1	O	1.048768	0.042366	0.170536
O2	O	0.820957	0.042381	0.167828
O3	O	0.933508	0.042369	0.055276
O4	O	0.936216	0.042377	0.283088
O5	O	0.933470	-0.042489	0.055273
O6	O	0.820919	-0.042477	0.167825
O7	O	1.048730	-0.042492	0.170533
Cu8	Cu	0.934821	-0.050233	0.169179
Cu9	Cu	0.934866	0.050121	0.169182
O10	O	0.936178	-0.042481	0.283085
C11	C	0.791645	-0.000047	0.165364
C12	C	0.704361	-0.000041	0.158016
N13	N	0.934795	-0.120817	0.169177
C14	C	0.658752	-0.000039	0.225479
C15	C	0.576740	-0.000046	0.218570
C16	C	0.540339	-0.000052	0.144197
C17	C	0.585954	-0.000055	0.076728
C18	C	0.667965	-0.000052	0.083638
C19	C	0.292951	-0.000066	0.119787
C20	C	0.210935	-0.000068	0.112882
C21	C	0.201726	-0.000060	0.254725
C22	C	0.283739	-0.000054	0.261628
C23	C	0.329347	-0.000060	0.194159
C24	C	0.456510	-0.000058	0.137133
C25	C	0.413174	-0.000058	0.201224
C26	C	0.985655	-0.473333	0.219999
C27	C	0.985678	-0.686991	0.220000
O28	O	1.028902	-0.714615	0.263202
N29	N	0.934884	-0.713711	0.169176
C30	C	0.884084	-0.687013	0.118343
O31	O	0.840887	-0.714642	0.075108
C32	C	0.884066	-0.473355	0.118339
C33	C	0.934857	-0.446638	0.169173
C34	C	1.036443	-0.446616	0.270828
C35	C	1.036434	-0.393204	0.270831
C36	C	0.985636	-0.366510	0.220004
C37	C	0.934848	-0.393227	0.169175
C38	C	0.833270	-0.446658	0.067503
C39	C	0.833272	-0.393240	0.067505
C40	C	0.884063	-0.366523	0.118339
C41	C	0.884041	-0.313121	0.118350
N42	N	0.934835	-0.286401	0.169175
C43	C	0.985633	-0.313096	0.220002
C44	C	0.884097	-0.799186	0.118350
C45	C	0.884100	-0.852600	0.118352
C46	C	0.985695	-0.852575	0.220008
C47	C	0.985687	-0.799160	0.220010
C48	C	0.934891	-0.772466	0.169175
C49	C	0.985609	-0.200928	0.220003
C50	C	0.985593	-0.147512	0.220003
C51	C	0.884001	-0.147541	0.118344
C52	C	0.884014	-0.200953	0.118347
C53	C	0.934824	-0.227645	0.169179
O54	O	0.840846	-0.285465	0.075165
O55	O	1.028835	-0.285457	0.263219
C56	C	0.985664	-0.526744	0.219997
C57	C	0.934876	-0.553461	0.169168
C58	C	0.884078	-0.526767	0.118341
C59	C	0.934879	-0.606875	0.169170
C60	C	0.985677	-0.633570	0.219997
C61	C	1.036471	-0.606850	0.270822
C62	C	1.036462	-0.553439	0.270824
C63	C	0.833285	-0.553486	0.067517
C64	C	0.833297	-0.606898	0.067519
C65	C	0.884095	-0.633592	0.118346
C66	C	1.078042	-0.000064	0.172997
C67	C	1.165326	-0.000066	0.180346
C68	C	0.931027	-0.000060	0.025982
C69	C	0.923679	-0.000059	-0.061301
N70	N	0.934898	0.120705	0.169179
C71	C	0.991142	-0.000064	-0.106911
C72	C	0.984233	-0.000059	-0.188923
C73	C	0.909860	-0.000052	-0.225324
C74	C	0.842391	-0.000046	-0.179708
C75	C	0.849301	-0.000047	-0.097698
C76	C	0.885449	-0.000043	-0.472712
C77	C	0.878545	-0.000043	-0.554728
C78	C	1.020387	-0.000056	-0.563937
C79	C	1.027291	-0.000060	-0.481924
C80	C	0.959822	-0.000051	-0.436316
C81	C	0.902796	-0.000048	-0.309153
C82	C	0.966886	-0.000051	-0.352488
C83	C	0.938660	-0.000051	0.312379
C84	C	0.946008	-0.000048	0.399663
H85	H	0.688384	-0.000034	0.286042
H86	H	1.039170	-0.000064	-0.226054
Br87	Br	0.764333	-0.482903	-0.001488
Br88	Br	0.161534	-0.000087	0.011940
H89	H	0.791929	-0.628646	0.026126
Br90	Br	1.105392	-0.482834	0.339817
H91	H	0.556310	-0.000067	0.016172
Br92	Br	0.407102	-0.000065	0.036200
Br93	Br	0.514844	-0.000042	0.310133
H94	H	1.027046	-0.777411	0.261404
H95	H	0.705099	-0.000053	0.028702
H96	H	1.077821	-0.531691	0.312218
H97	H	0.791919	-0.531757	0.026125
Br98	Br	1.054636	-0.888814	0.288986
H99	H	0.164583	-0.000056	0.309653
Br100	Br	1.054521	-0.111256	0.289004
H101	H	1.077828	-0.628594	0.312210
Br102	Br	1.054567	-0.237144	0.288990
Br103	Br	0.815062	-0.111303	0.049371
Br104	Br	0.741455	-0.000028	-0.229109
Br105	Br	1.128229	-0.000053	-0.432528
Br106	Br	1.105355	-0.356954	0.339837
H107	H	0.330076	-0.000072	0.064848
Br108	Br	0.764338	-0.357016	-0.001497
Br109	Br	0.815152	-0.888852	0.049375
H110	H	0.842646	-0.222707	0.076963
Br111	Br	0.815137	-0.762967	0.049368
Br112	Br	0.801863	-0.000034	-0.358561
H113	H	0.794365	-0.000043	-0.060564
H114	H	1.051705	-0.000073	-0.077279
Br115	Br	1.067819	-0.000056	-0.303086
H116	H	1.075316	-0.000062	-0.601079
Br117	Br	0.777603	-0.000040	-0.604129
H118	H	0.830511	-0.000036	-0.435587
H119	H	0.442816	-0.000056	0.261778
Br120	Br	0.333134	-0.000040	0.362567
