data_functionalizedCrystal
_audit_creation_method	'MofGen! by Chris Wilmer'
_symmetry_space_group_name_H-M	'P1'
_symmetry_Int_Tables_number	1
_symmetry_cell_setting	triclinic
loop_
_symmetry_equiv_pos_as_xyz
  x,y,z
_cell_length_a	19.077105
_cell_length_b	17.640280
_cell_length_c	19.077271
_cell_angle_alpha	76.990907
_cell_angle_beta	89.892926
_cell_angle_gamma	76.093206
loop_
_atom_site_label
_atom_site_type_symbol
_atom_site_fract_x
_atom_site_fract_y
_atom_site_fract_z
Zn1	Zn	1.123449	-0.348276	-0.380422
Zn2	Zn	1.154280	-0.488236	-0.238799
Zn3	Zn	1.010750	-0.348725	-0.258136
Zn4	Zn	1.030076	-0.477408	-0.353420
O5	O	1.079639	-0.415661	-0.307694
O6	O	1.226684	-0.371186	-0.364844
O7	O	1.140055	-0.474450	-0.142218
O8	O	1.004709	-0.236238	-0.293750
O9	O	1.249335	-0.474014	-0.260794
O10	O	1.087509	-0.235908	-0.383593
O11	O	1.034604	-0.371952	-0.156424
O12	O	0.914169	-0.361451	-0.267567
O13	O	1.037647	-0.455558	-0.456148
O14	O	0.928368	-0.455994	-0.337572
O15	O	1.106248	-0.360686	-0.475987
O16	O	1.158795	-0.599228	-0.234611
O17	O	1.067543	-0.591272	-0.318822
C18	C	0.895561	-0.407597	-0.301738
C19	C	0.816815	-0.404165	-0.299203
C20	C	0.787249	-0.451857	-0.334376
C21	C	0.713256	-0.448622	-0.331999
C22	C	0.668832	-0.397699	-0.294446
C23	C	0.698402	-0.350001	-0.259273
C24	C	0.772393	-0.353233	-0.261654
C25	C	0.446746	-0.382743	-0.283430
C26	C	0.372751	-0.379517	-0.281050
C27	C	0.387609	-0.478137	-0.353778
C28	C	0.461601	-0.481367	-0.356152
C29	C	0.491165	-0.433667	-0.320982
N30	N	0.593199	-0.394392	-0.292014
N31	N	0.566795	-0.436969	-0.323418
C32	C	1.118630	-0.624401	-0.271704
C33	C	1.135374	-0.713703	-0.256333
C34	C	0.952713	-0.986834	-0.424732
C35	C	0.968450	-1.070748	-0.410266
C36	C	1.063522	-1.078965	-0.322670
C37	C	1.047796	-0.995050	-0.337131
C38	C	0.992390	-0.948991	-0.388162
C39	C	1.087473	-0.957208	-0.300562
C40	C	1.071746	-0.873301	-0.315019
C41	C	1.016341	-0.827236	-0.366046
C42	C	0.976663	-0.865084	-0.402620
C43	C	1.142875	-1.003268	-0.249527
C44	C	1.182552	-0.965425	-0.212958
C45	C	1.166829	-0.881517	-0.227419
C46	C	1.111424	-0.835452	-0.278446
C47	C	1.206507	-0.843668	-0.190845
C48	C	1.190780	-0.759761	-0.205302
C49	C	1.095697	-0.751545	-0.292903
C50	C	1.264435	-0.423758	-0.313674
C51	C	1.343184	-0.427209	-0.316222
C52	C	1.070665	-0.406864	-0.492494
C53	C	1.066840	-0.403115	-0.571244
C54	C	1.040514	-0.206107	-0.343841
C55	C	1.023842	-0.116807	-0.359244
C56	C	1.039424	-0.376292	-1.015320
C57	C	1.043020	-0.379811	-0.941326
C58	C	1.099717	-0.434940	-0.896931
C59	C	1.152826	-0.486548	-0.926534
C60	C	1.149232	-0.483024	-1.000527
C61	C	1.116355	-0.451199	-0.674841
C62	C	1.119944	-0.454721	-0.600842
C63	C	1.010138	-0.347983	-0.615640
C64	C	1.006547	-0.344467	-0.689633
C65	C	1.059657	-0.396071	-0.719231
N66	N	1.103393	-0.438541	-0.821297
N67	N	1.055984	-0.392466	-0.794864
C68	C	1.088608	-0.424368	-0.123625
C69	C	1.092527	-0.427897	-0.044918
H70	H	0.662225	-0.308535	-0.228700
O71	O	0.991358	-0.329648	-0.912686
C72	C	0.940554	-0.280223	-0.967739
H73	H	0.941680	-0.310515	-1.014726
H74	H	0.954727	-0.219969	-0.986977
C75	C	0.863006	-0.229502	-0.880708
C76	C	0.864385	-0.266711	-0.938415
H77	H	0.816022	-0.221163	-0.862619
H78	H	0.897235	-0.262798	-0.843617
H79	H	0.874821	-0.179295	-0.896747
H80	H	0.852580	-0.316921	-0.922373
H81	H	0.830152	-0.233423	-0.975503
O82	O	1.236294	-1.010130	-0.163289
C83	C	1.220468	-0.992317	-0.095698
H84	H	1.159733	-0.967002	-0.094208
H85	H	1.250228	-0.946120	-0.086844
C86	C	1.319619	-1.100555	-0.037667
C87	C	1.245023	-1.069469	-0.035835
H88	H	1.334768	-1.148144	-0.000740
H89	H	1.330284	-1.112554	-0.083205
H90	H	1.344410	-1.062050	-0.030291
H91	H	1.220234	-1.107970	-0.043220
H92	H	1.234355	-1.057478	0.009703
O93	O	0.922888	-0.820215	-0.452195
C94	C	0.917505	-0.738043	-0.457095
H95	H	0.971169	-0.730040	-0.437684
H96	H	0.872891	-0.714239	-0.422067
C97	C	0.833490	-0.701080	-0.559829
C98	C	0.899403	-0.691249	-0.535993
H99	H	0.822320	-0.672214	-0.608496
H100	H	0.837114	-0.756441	-0.556526
H101	H	0.796319	-0.681244	-0.530632
H102	H	0.936574	-0.711095	-0.565184
H103	H	0.895784	-0.635891	-0.539303
O104	O	0.898856	-0.942206	-0.474313
C105	C	0.867224	-0.993596	-0.503515
H106	H	0.877403	-1.054691	-0.464108
H107	H	0.892190	-1.001061	-0.556646
C108	C	0.772695	-0.882083	-0.565278
C109	C	0.785191	-0.957119	-0.516873
H110	H	0.722094	-0.859582	-0.573521
H111	H	0.794007	-0.847460	-0.545606
H112	H	0.793505	-0.888314	-0.609548
H113	H	0.764389	-0.950886	-0.472602
H114	H	0.763874	-0.991741	-0.536538
H115	H	0.689187	-0.487458	-0.360640
O116	O	0.504645	-0.530851	-0.392691
C117	C	0.462685	-0.572269	-0.423210
H118	H	0.403674	-0.536943	-0.429691
H119	H	0.467464	-0.634135	-0.386408
C120	C	0.562587	-0.625048	-0.489548
C121	C	0.490110	-0.581656	-0.497513
H122	H	0.579506	-0.630842	-0.535380
H123	H	0.590858	-0.597147	-0.468984
H124	H	0.566560	-0.676598	-0.458877
H125	H	0.486139	-0.530104	-0.528176
H126	H	0.461839	-0.609549	-0.518083
H127	H	0.363530	-0.516970	-0.382412
H128	H	1.223088	-0.728950	-0.175523
H129	H	0.336580	-0.338040	-0.250475
O130	O	0.830347	-0.501232	-0.370971
C131	C	0.805581	-0.479656	-0.444032
H132	H	0.773075	-0.414416	-0.458110
H133	H	0.769792	-0.520007	-0.453676
C134	C	0.910709	-0.569837	-0.474503
C135	C	0.870789	-0.489706	-0.491795
H136	H	0.950931	-0.576040	-0.503967
H137	H	0.927393	-0.584376	-0.425280
H138	H	0.880877	-0.603454	-0.482540
H139	H	0.900618	-0.456092	-0.483750
H140	H	0.854111	-0.475162	-0.541018
O141	O	0.929954	-1.107636	-0.445707
C142	C	0.955725	-1.191572	-0.422019
H143	H	0.983778	-1.206642	-0.366141
H144	H	0.995830	-1.214988	-0.461202
C145	C	0.857354	-1.212760	-0.487324
C146	C	0.891803	-1.231270	-0.418692
H147	H	0.817925	-1.237249	-0.485275
H148	H	0.839992	-1.156211	-0.503286
H149	H	0.890781	-1.232275	-0.519970
H150	H	0.858378	-1.211747	-0.386050
H151	H	0.909158	-1.287817	-0.402724
O152	O	0.951441	-0.290839	-0.732660
C153	C	0.905331	-0.246057	-0.690666
H154	H	0.936392	-0.247060	-0.639338
H155	H	0.857394	-0.273491	-0.675982
C156	C	0.839608	-0.157495	-0.797004
C157	C	0.877760	-0.158722	-0.733966
H158	H	0.822598	-0.103624	-0.823713
H159	H	0.870672	-0.187667	-0.825297
H160	H	0.799666	-0.180361	-0.784758
H161	H	0.917706	-0.135866	-0.746212
H162	H	0.846702	-0.128544	-0.705676
H163	H	1.159601	-0.493221	-0.698929
O164	O	1.200911	-0.533123	-1.029213
C165	C	1.269123	-0.519508	-1.016459
H166	H	1.267434	-0.491248	-0.968109
H167	H	1.283253	-0.477265	-1.065999
C168	C	1.328900	-0.634586	-1.060306
C169	C	1.326828	-0.599882	-1.000917
H170	H	1.364497	-0.684163	-1.050721
H171	H	1.282945	-0.643757	-1.068901
H172	H	1.340673	-0.599375	-1.101583
H173	H	1.315047	-0.635088	-0.959643
H174	H	1.372783	-0.590719	-0.992314
H175	H	0.966899	-0.305968	-0.591533
O176	O	1.175002	-0.508383	-0.557769
C177	C	1.173575	-0.586917	-0.561525
H178	H	1.144052	-0.584830	-0.614087
H179	H	1.144211	-0.614357	-0.514042
C180	C	1.287823	-0.641020	-0.494208
C181	C	1.251568	-0.638457	-0.558769
H182	H	1.335933	-0.672814	-0.492505
H183	H	1.288784	-0.588111	-0.491675
H184	H	1.263345	-0.663885	-0.454646
H185	H	1.276041	-0.615583	-0.598329
H186	H	1.250614	-0.691364	-0.561309
H187	H	1.003533	-0.758914	-0.377811
H188	H	0.470808	-0.343908	-0.254785
O189	O	1.117330	-1.123829	-0.273137
C190	C	1.122686	-1.206003	-0.268197
H191	H	1.098942	-1.213859	-0.320129
H192	H	1.091492	-1.230198	-0.220816
C193	C	1.231910	-1.242824	-0.192868
C194	C	1.202753	-1.252472	-0.256655
H195	H	1.281299	-1.271489	-0.185745
H196	H	1.228301	-1.187462	-0.196194
H197	H	1.205909	-1.262985	-0.153391
H198	H	1.228749	-1.232302	-0.296131
H199	H	1.206369	-1.307832	-0.253335
H200	H	0.796463	-0.314393	-0.233017
H201	H	1.198993	-0.531432	-0.890382
O202	O	1.260395	-0.888452	-0.141367
C203	C	1.313240	-0.937044	-0.174854
H204	H	1.310131	-0.909279	-0.235159
H205	H	1.303126	-0.999575	-0.165608
C206	C	1.392646	-0.977259	-0.068393
C207	C	1.388831	-0.943154	-0.142460
H208	H	1.439274	-0.981032	-0.048409
H209	H	1.357042	-0.944524	-0.045830
H210	H	1.384214	-1.029365	-0.060698
H211	H	1.397254	-0.891045	-0.150153
H212	H	1.424437	-0.975880	-0.165023
O213	O	0.984290	-0.322849	-1.058451
C214	C	0.944997	-0.364542	-1.091895
H215	H	0.953515	-0.428689	-1.058542
H216	H	0.964693	-0.365598	-1.148205
C217	C	0.853500	-0.243219	-1.138380
C218	C	0.863957	-0.322003	-1.097412
H219	H	0.803511	-0.216978	-1.141786
H220	H	0.879974	-0.215129	-1.115851
H221	H	0.869919	-0.244110	-1.185301
H222	H	0.847548	-0.321111	-1.050489
H223	H	0.837479	-0.350093	-1.119933
H224	H	1.050585	-0.714042	-0.334463
H225	H	1.155680	-1.071590	-0.237760
