data_functionalizedCrystal
_audit_creation_method	'MofGen! by Chris Wilmer'
_symmetry_space_group_name_H-M	'P1'
_symmetry_Int_Tables_number	1
_symmetry_cell_setting	triclinic
loop_
_symmetry_equiv_pos_as_xyz
  x,y,z
_cell_length_a	12.827893
_cell_length_b	12.594516
_cell_length_c	12.827885
_cell_angle_alpha	89.971598
_cell_angle_beta	90.019272
_cell_angle_gamma	89.973108
loop_
_atom_site_label
_atom_site_type_symbol
_atom_site_fract_x
_atom_site_fract_y
_atom_site_fract_z
Zn1	Zn	1.597587	0.423686	0.590859
Zn2	Zn	2.097587	0.923686	1.090859
Zn3	Zn	1.597447	0.601702	0.416123
Zn4	Zn	2.097447	1.101702	0.916123
Zn5	Zn	1.422829	0.423738	0.416132
Zn6	Zn	1.922829	0.923738	0.916132
Zn7	Zn	1.422779	0.601623	0.590823
Zn8	Zn	1.922779	1.101623	1.090823
O9	O	1.510161	0.512687	0.503484
O10	O	2.010161	1.012687	1.003484
O11	O	1.743805	0.447311	0.567691
O12	O	2.243805	0.947311	1.067691
O13	O	1.574245	0.578150	0.269888
O14	O	2.074245	1.078150	0.769888
O15	O	1.446090	0.274786	0.439329
O16	O	1.946090	0.774786	0.939329
O17	O	1.743701	0.578099	0.439313
O18	O	2.243701	1.078099	0.939313
O19	O	1.574485	0.274747	0.567700
O20	O	2.074485	0.774747	1.067700
O21	O	1.445954	0.447401	0.269895
O22	O	1.945954	0.947401	0.769895
O23	O	1.276586	0.447324	0.439294
O24	O	1.776586	0.947324	0.939294
O25	O	1.446006	0.577965	0.737064
O26	O	1.946006	1.077965	1.237064
O27	O	1.276550	0.578016	0.567639
O28	O	1.776550	1.078016	1.067639
O29	O	1.574437	0.447235	0.737090
O30	O	2.074437	0.947235	1.237090
O31	O	1.574197	0.750637	0.439279
O32	O	2.074197	1.250637	0.939279
O33	O	1.445870	0.750580	0.567630
O34	O	1.945870	1.250580	1.067630
C35	C	1.238651	0.512668	0.503464
C36	C	1.738651	1.012668	1.003464
C37	C	1.122497	0.512685	0.503481
C38	C	1.622497	1.012685	1.003481
C39	C	1.510041	0.789229	0.503472
C40	C	2.010041	1.289229	1.003472
C41	C	1.510086	0.907534	0.503502
C42	C	2.010086	1.407534	1.003502
C43	C	1.070764	0.448082	0.567105
C44	C	1.570764	0.948082	1.067105
C45	C	0.950713	0.448098	0.567123
C46	C	1.450713	0.948098	1.067123
C47	C	1.440269	0.976794	0.573263
C48	C	1.940269	1.476794	1.073263
C49	C	1.414794	1.047663	0.477907
C50	C	1.914794	1.547663	0.977907
C51	C	1.535618	1.047464	0.598873
C52	C	2.035618	1.547464	1.098873
C53	C	1.484561	0.976844	0.408096
C54	C	1.984561	1.476844	0.908096
C55	C	1.605429	0.976639	0.529126
C56	C	2.105429	1.476639	1.029126
C57	C	1.579990	1.047476	0.433705
C58	C	2.079990	1.547476	0.933705
C59	C	1.782731	0.512708	0.503505
C60	C	2.282731	1.012708	1.003505
C61	C	1.898884	0.512717	0.503514
C62	C	2.398884	1.012717	1.003514
C63	C	1.510232	0.512585	0.776055
C64	C	2.010232	1.012585	1.276055
C65	C	1.510262	0.512542	0.892208
C66	C	2.010262	1.012542	1.392208
C67	C	1.510263	1.235067	0.503518
C68	C	2.010263	1.735067	1.003518
C69	C	1.510189	1.116761	0.503528
C70	C	2.010189	1.616761	1.003528
C71	C	1.510150	0.512712	0.231974
C72	C	2.010150	1.012712	0.731974
C73	C	1.510322	0.512456	0.115822
C74	C	2.010322	1.012456	0.615822
C75	C	1.573820	0.447840	0.944006
C76	C	2.073820	0.947840	1.444006
C77	C	1.573853	0.447793	1.064056
C78	C	2.073853	0.947793	1.564056
H79	H	1.115349	0.392757	0.621559
H80	H	1.615349	0.892757	1.121559
H81	H	1.557172	1.078485	0.679517
H82	H	2.057172	1.578485	1.179517
F83	F	1.439198	0.584871	1.057609
F84	F	1.939198	1.084871	1.557609
F85	F	1.439162	0.584898	0.950408
F86	F	1.939162	1.084898	1.450408
H87	H	1.685991	0.945422	0.550823
H88	H	2.185991	1.445422	1.050823
F89	F	1.362985	0.936225	0.650263
F90	F	1.862985	1.436225	1.150263
F91	F	0.892565	0.375808	0.638329
F92	F	1.392565	0.875808	1.138329
H93	H	1.628207	0.392477	0.899475
H94	H	2.128207	0.892477	1.399475
F95	F	1.657222	1.087787	0.356524
F96	F	2.157222	1.587787	0.856524
H97	H	0.943367	0.568035	0.449046
H98	H	1.443367	1.068035	0.949046
F99	F	1.064227	0.584991	0.432293
F100	F	1.564227	1.084991	0.932293
F101	F	1.644985	0.375392	1.122275
F102	F	2.144985	0.875392	1.622275
H103	H	1.334214	1.078883	0.456256
H104	H	1.834214	1.578883	0.956256
F105	F	1.456269	0.936470	0.302658
F106	F	1.956269	1.436470	0.802658
