data_functionalizedCrystal
_audit_creation_method	'MofGen! by Chris Wilmer'
_symmetry_space_group_name_H-M	'P1'
_symmetry_Int_Tables_number	1
_symmetry_cell_setting	triclinic
loop_
_symmetry_equiv_pos_as_xyz
  x,y,z
_cell_length_a	10.686220
_cell_length_b	10.685594
_cell_length_c	18.215399
_cell_angle_alpha	94.349131
_cell_angle_beta	94.351112
_cell_angle_gamma	98.404471
loop_
_atom_site_label
_atom_site_type_symbol
_atom_site_fract_x
_atom_site_fract_y
_atom_site_fract_z
Zn1	Zn	1.901801	-0.356281	-0.347072
Zn2	Zn	2.401801	0.143719	0.152928
Zn3	Zn	1.885416	-0.568562	-0.234239
Zn4	Zn	2.385416	-0.068562	0.265761
Zn5	Zn	1.689542	-0.372626	-0.234237
Zn6	Zn	2.189542	0.127374	0.265763
Zn7	Zn	1.673264	-0.584787	-0.367470
Zn8	Zn	2.173264	-0.084787	0.132530
O9	O	1.787506	-0.470564	-0.295754
O10	O	2.287506	0.029436	0.204246
O11	O	2.077245	-0.370809	-0.323568
O12	O	2.577245	0.129191	0.176432
O13	O	1.859388	-0.542621	-0.131258
O14	O	2.359388	-0.042621	0.368742
O15	O	1.731367	-0.192827	-0.240667
O16	O	2.231367	0.307173	0.259333
O17	O	2.065208	-0.526771	-0.240670
O18	O	2.565208	-0.026771	0.259330
O19	O	1.887314	-0.180818	-0.323566
O20	O	2.387314	0.319182	0.176434
O21	O	1.715480	-0.398667	-0.131257
O22	O	2.215480	0.101333	0.368743
O23	O	1.509765	-0.414400	-0.260446
O24	O	2.009765	0.085600	0.239554
O25	O	1.703625	-0.554425	-0.467745
O26	O	2.203625	-0.054425	0.032255
O27	O	1.497806	-0.570274	-0.358333
O28	O	1.997806	-0.070274	0.141667
O29	O	1.871530	-0.386542	-0.452758
O30	O	2.371530	0.113458	0.047242
O31	O	1.843605	-0.748345	-0.260450
O32	O	2.343605	-0.248345	0.239550
O33	O	1.687738	-0.760266	-0.358335
O34	O	2.187738	-0.260266	0.141665
C35	C	1.762162	-0.800360	-0.311620
C36	C	2.262162	-0.300360	0.188380
C37	C	1.751435	-0.941440	-0.318427
C38	C	2.251435	-0.441440	0.181573
C39	C	1.457731	-0.495873	-0.311603
C40	C	1.957731	0.004127	0.188397
C41	C	1.316649	-0.506730	-0.318402
C42	C	1.816649	-0.006730	0.181598
C43	C	2.118569	-0.445157	-0.279844
C44	C	2.618569	0.054843	0.220156
C45	C	2.259648	-0.434330	-0.273064
C46	C	2.759648	0.065670	0.226936
C47	C	1.787590	-0.470470	-0.487699
C48	C	2.287590	0.029530	0.012301
C49	C	1.787626	-0.470431	-0.569495
C50	C	2.287626	0.029569	-0.069495
C51	C	1.812984	-0.139477	-0.279841
C52	C	2.312984	0.360523	0.220159
C53	C	1.823841	0.001612	-0.273060
C54	C	2.323841	0.501612	0.226940
C55	C	1.875089	-0.382936	-0.749882
C56	C	2.375089	0.117064	-0.249882
C57	C	1.875107	-0.382898	-0.826738
C58	C	2.375107	0.117102	-0.326738
C59	C	1.700267	-0.557722	-0.842333
C60	C	2.200267	-0.057722	-0.342333
C61	C	1.700245	-0.557753	-0.765478
C62	C	2.200245	-0.057753	-0.265478
C63	C	1.787662	-0.470362	-0.719254
C64	C	2.287662	0.029638	-0.219254
C65	C	1.787703	-0.470292	-0.872965
C66	C	2.287703	0.029708	-0.372965
C67	C	1.787722	-0.470252	-0.956296
C68	C	2.287722	0.029748	-0.456296
C69	C	1.787642	-0.470400	-0.635917
C70	C	2.287642	0.029600	-0.135917
C71	C	1.787502	-0.470560	-0.104548
C72	C	2.287502	0.029440	0.395452
C73	C	1.787740	-0.470223	-0.022724
C74	C	2.287740	0.029777	0.477276
H75	H	1.894043	-0.939214	-0.229014
H76	H	2.394043	-0.439214	0.270986
F77	F	1.968166	-0.289855	-0.859330
F78	F	2.468166	0.210145	-0.359330
F79	F	1.607183	-0.650803	-0.732880
F80	F	2.107183	-0.150803	-0.232880
H81	H	1.681239	-1.000620	-0.362480
H82	H	2.181239	-0.500620	0.137520
H83	H	1.318778	-0.364040	-0.229046
H84	H	1.818778	0.135960	0.270954
H85	H	1.257512	-0.577033	-0.362419
H86	H	1.757512	-0.077033	0.137581
H87	H	1.946267	-0.311773	-0.712248
H88	H	2.446267	0.188227	-0.212248
F89	F	1.607241	-0.650730	-0.891533
F90	F	2.107241	-0.150730	-0.391533
