data_functionalizedCrystal
_audit_creation_method	'MofGen! by Chris Wilmer'
_symmetry_space_group_name_H-M	'P1'
_symmetry_Int_Tables_number	1
_symmetry_cell_setting	triclinic
loop_
_symmetry_equiv_pos_as_xyz
  x,y,z
_cell_length_a	21.295411
_cell_length_b	21.295418
_cell_length_c	21.295417
_cell_angle_alpha	90.046319
_cell_angle_beta	90.021644
_cell_angle_gamma	90.043738
loop_
_atom_site_label
_atom_site_type_symbol
_atom_site_fract_x
_atom_site_fract_y
_atom_site_fract_z
Zn1	Zn	-0.356234	-0.962356	0.250415
Zn2	Zn	-0.250959	-0.962258	0.355667
Zn3	Zn	-0.250943	-0.857079	0.250445
Zn4	Zn	-0.356155	-0.857048	0.355680
O5	O	-0.303573	-0.909685	0.303052
O6	O	-0.342308	-1.050432	0.264360
O7	O	-0.162867	-0.948278	0.341716
O8	O	-0.264937	-0.871098	0.162351
O9	O	-0.264963	-1.050361	0.341688
O10	O	-0.342293	-0.948444	0.162330
O11	O	-0.162856	-0.871003	0.264410
O12	O	-0.264861	-0.768985	0.264422
O13	O	-0.444255	-0.871046	0.341709
O14	O	-0.342160	-0.768963	0.341738
O15	O	-0.444313	-0.948415	0.264372
O16	O	-0.264887	-0.948248	0.443758
O17	O	-0.342175	-0.870951	0.443767
C18	C	-0.303500	-0.746134	0.303085
C19	C	-0.303484	-0.676166	0.303114
C20	C	-0.303538	-0.909603	0.466603
C21	C	-0.303544	-0.909625	0.536571
C22	C	-0.467763	-0.909738	0.303038
C23	C	-0.537731	-0.909760	0.303033
C24	C	-0.570629	-0.950044	0.262761
C25	C	-0.636371	-0.950043	0.262734
C26	C	-0.669214	-0.909765	0.302989
C27	C	-0.636308	-0.869473	0.343263
C28	C	-0.570567	-0.869470	0.343285
N29	N	-0.772428	-0.904908	0.358058
N30	N	-0.834879	-0.904914	0.358036
C31	C	-0.867289	-0.909769	0.302926
N32	N	-0.834888	-0.914629	0.247837
N33	N	-0.772430	-0.914627	0.247860
C34	C	-0.740499	-0.909763	0.302970
C35	C	-0.971472	-0.950054	0.262621
C36	C	-1.037216	-0.950049	0.262593
C37	C	-1.037151	-0.869482	0.343128
C38	C	-0.971409	-0.869484	0.343151
C39	C	-0.938573	-0.909773	0.302898
C40	C	-0.140021	-0.909670	0.303019
C41	C	-0.070054	-0.909769	0.302848
C42	C	-0.303646	-1.073876	0.303019
C43	C	-0.303677	-1.143844	0.303005
C44	C	-0.343674	-0.643304	0.343426
C45	C	-0.343702	-0.577561	0.343410
C46	C	-0.303530	-0.544683	0.303090
C47	C	-0.263337	-0.577553	0.262770
C48	C	-0.263315	-0.643294	0.262783
N49	N	-0.248472	-0.441407	0.298163
N50	N	-0.248495	-0.378956	0.298155
C51	C	-0.303596	-0.346608	0.303050
N52	N	-0.358675	-0.379072	0.307965
N53	N	-0.358650	-0.441529	0.307976
C54	C	-0.303550	-0.473398	0.303072
C55	C	-0.343820	-0.242461	0.343346
C56	C	-0.343849	-0.176717	0.343326
C57	C	-0.263479	-0.176710	0.262690
C58	C	-0.263455	-0.242453	0.262707
C59	C	-0.303625	-0.275324	0.303038
C60	C	-0.303622	-0.909785	0.138861
C61	C	-0.303642	-0.909828	0.068893
C62	C	-0.263342	-0.949910	0.569412
C63	C	-0.263356	-0.949939	0.635155
C64	C	-0.303566	-0.909673	0.668054
C65	C	-0.343776	-0.869386	0.635205
C66	C	-0.343765	-0.869362	0.569464
N67	N	-0.308340	-0.854606	0.771336
N68	N	-0.308347	-0.854630	0.833787
C69	C	-0.303602	-0.909743	0.866129
N70	N	-0.298838	-0.964832	0.833659
N71	N	-0.298828	-0.964807	0.771202
C72	C	-0.303582	-0.909695	0.739339
C73	C	-0.263413	-0.950063	0.970255
C74	C	-0.263431	-0.950094	1.035999
C75	C	-0.343848	-0.869535	1.036048
C76	C	-0.343833	-0.869510	0.970305
C77	C	-0.303612	-0.909773	0.937413
H78	H	-0.663162	-0.982846	0.229937
H79	H	-0.230773	-0.149942	0.229857
H80	H	-0.376384	-0.670063	0.376266
O81	O	-0.224351	-0.274281	0.223532
C82	C	-0.188910	-0.231167	0.187928
H83	H	-0.186699	-0.184276	0.213699
H84	H	-0.139319	-0.250114	0.181143
H85	H	-0.212054	-0.224249	0.140152
O86	O	-0.382767	-0.545727	0.382627
C87	C	-0.418231	-0.588838	0.418211
H88	H	-0.392428	-0.635670	0.420366
H89	H	-0.424862	-0.569797	0.467812
H90	H	-0.466079	-0.595907	0.395229
O91	O	-0.382925	-0.830338	0.667132
C92	C	-0.445679	-0.844050	0.651008
H93	H	-0.448916	-0.894331	0.632876
H94	H	-0.476777	-0.838628	0.694232
H95	H	-0.462087	-0.810280	0.612878
H96	H	-0.944736	-0.982857	0.229842
O97	O	-0.668236	-0.830438	0.382437
C98	C	-0.706297	-0.866254	0.423066
H99	H	-0.686519	-0.915829	0.426950
H100	H	-0.707022	-0.843457	0.471515
H101	H	-0.756124	-0.868437	0.403588
H102	H	-0.230593	-0.982696	0.542633
H103	H	-0.376591	-0.836752	1.062833
H104	H	-0.543782	-0.836663	0.376078
O105	O	-0.224293	-0.545716	0.223545
C106	C	-0.188802	-0.588822	0.187978
H107	H	-0.214575	-0.635714	0.185844
H108	H	-0.182185	-0.569867	0.138368
H109	H	-0.140948	-0.595740	0.210960
H110	H	-0.230619	-0.982746	0.661899
O111	O	-1.069246	-0.989209	0.223555
C112	C	-1.107297	-1.029852	0.259373
H113	H	-1.117125	-1.007621	0.307079
H114	H	-1.153534	-1.038298	0.233714
H115	H	-1.082001	-1.076500	0.266289
H116	H	-0.230664	-0.982850	0.943473
H117	H	-1.063891	-0.836680	0.375898
O118	O	-0.939546	-0.830334	0.382333
C119	C	-0.982628	-0.794769	0.417847
H120	H	-1.029509	-0.820554	0.420008
H121	H	-0.963625	-0.788021	0.467451
H122	H	-0.989587	-0.746976	0.394799
O123	O	-0.382754	-0.274424	0.382584
C124	C	-0.346828	-0.312380	0.423190
H125	H	-0.297250	-0.292508	0.427002
H126	H	-0.369508	-0.313100	0.471667
H127	H	-0.344677	-0.362222	0.403735
O128	O	-0.382730	-0.830194	0.537490
C129	C	-0.346831	-0.789528	0.499545
H130	H	-0.299151	-0.811749	0.489698
H131	H	-0.372451	-0.781062	0.453310
H132	H	-0.339863	-0.742892	0.524941
H133	H	-0.230588	-0.670050	0.229954
O134	O	-0.382910	-0.144890	0.382548
C135	C	-0.418367	-0.188004	0.418135
H136	H	-0.392562	-0.234836	0.420283
H137	H	-0.424990	-0.168967	0.467739
H138	H	-0.466219	-0.195074	0.395162
O139	O	-0.224318	-0.989249	1.067805
C140	C	-0.188829	-1.024789	1.024673
H141	H	-0.186610	-0.998987	0.977843
H142	H	-0.139244	-1.031532	1.043688
H143	H	-0.211935	-1.072586	1.017609
H144	H	-0.376567	-0.836704	0.943564
H145	H	-0.543898	-0.982850	0.229984
