data_functionalizedCrystal
_audit_creation_method	'MofGen! by Chris Wilmer'
_symmetry_space_group_name_H-M	'P1'
_symmetry_Int_Tables_number	1
_symmetry_cell_setting	triclinic
loop_
_symmetry_equiv_pos_as_xyz
  x,y,z
_cell_length_a	13.262390
_cell_length_b	14.044190
_cell_length_c	12.376457
_cell_angle_alpha	102.316217
_cell_angle_beta	63.168449
_cell_angle_gamma	88.642439
loop_
_atom_site_label
_atom_site_type_symbol
_atom_site_fract_x
_atom_site_fract_y
_atom_site_fract_z
O1	O	1.514407	0.019998	-0.559626
O2	O	1.190595	0.053048	-0.460073
O3	O	1.347632	-0.101187	-0.508330
O4	O	1.357370	0.174234	-0.511368
O5	O	1.308383	-0.062678	-0.308257
O6	O	1.151346	0.091557	-0.259999
O7	O	1.475158	0.058507	-0.359552
Zn8	Zn	1.307020	0.081146	-0.278010
Zn9	Zn	1.358733	0.030409	-0.541615
O10	O	1.318121	0.212742	-0.311295
C11	C	1.129279	0.073992	-0.347218
C12	C	1.005051	0.079013	-0.309024
C13	C	0.740461	0.009187	-0.637620
C14	C	0.857180	0.004464	-0.673507
C15	C	0.894154	0.023101	-0.582389
C16	C	0.814396	0.046462	-0.455378
C17	C	0.697666	0.051177	-0.419488
C18	C	0.851359	0.065092	-0.364257
C19	C	0.771601	0.088452	-0.237246
C20	C	0.654883	0.093168	-0.201362
C21	C	0.617909	0.074530	-0.292480
C22	C	0.968089	0.060376	-0.400148
C23	C	0.925294	0.102366	-0.182016
C24	C	0.808575	0.107089	-0.146129
C25	C	1.323750	-0.117010	-0.406981
C26	C	1.311053	-0.221530	-0.403068
C27	C	1.377892	-0.475533	-0.423661
C28	C	1.287868	-0.412909	-0.395976
C29	C	1.300771	-0.306416	-0.399923
C30	C	1.364990	-0.582035	-0.419715
C31	C	1.536474	0.037563	-0.472410
C32	C	1.660704	0.032540	-0.510612
C33	C	1.342003	0.228565	-0.412646
C34	C	1.354702	0.333083	-0.416568
N35	N	1.271736	0.115772	-0.098109
N36	N	1.394025	-0.004224	-0.721519
C37	C	1.475928	-0.084620	0.194128
C38	C	1.500618	-0.108854	0.068201
C39	C	1.443399	-0.052700	0.026617
C40	C	1.361488	0.027693	0.110973
C41	C	1.336803	0.051934	0.236910
C42	C	1.304273	0.083854	0.069400
C43	C	1.222362	0.164247	0.153755
C44	C	1.197680	0.188484	0.279680
C45	C	1.254899	0.132330	0.321264
C46	C	1.328958	0.059613	-0.056538
C47	C	1.189833	0.196167	-0.013755
C48	C	1.165144	0.220402	0.112171
H49	H	1.033017	0.041358	-0.503561
O50	O	1.228262	0.158470	0.457092
H51	H	1.246673	0.234298	0.482622
O52	O	0.700585	-0.010927	-0.735888
H53	H	0.729729	0.042848	-0.794019
H54	H	1.201106	-0.439272	-0.369308
O55	O	1.128092	0.256732	-0.058581
H56	H	1.159004	0.226361	-0.160315
O57	O	0.722728	0.132419	-0.009072
H58	H	0.731590	0.206342	0.037146
H59	H	1.395651	-0.005843	-0.125210
H60	H	1.130993	0.253951	0.348361
O61	O	0.965162	0.122492	-0.083732
H62	H	0.890094	0.139521	0.010615
O63	O	0.492015	0.079627	-0.253777
H64	H	0.442763	0.099003	-0.150152
H65	H	1.522515	-0.130329	0.227994
O66	O	1.492813	-0.440620	-0.458970
H67	H	1.485036	-0.361238	-0.456554
H68	H	1.098450	0.285860	0.180869
H69	H	1.463505	-0.072435	-0.075919
H70	H	1.567310	-0.174308	-0.000477
H71	H	0.989193	0.019256	-0.611616
O72	O	0.943203	-0.020724	-0.810485
H73	H	0.897886	-0.032881	-0.867816
H74	H	0.589946	0.112172	-0.097942
