data_functionalizedCrystal
_audit_creation_method	'MofGen! by Chris Wilmer'
_symmetry_space_group_name_H-M	'P1'
_symmetry_Int_Tables_number	1
_symmetry_cell_setting	triclinic
loop_
_symmetry_equiv_pos_as_xyz
  x,y,z
_cell_length_a	12.827892
_cell_length_b	12.759401
_cell_length_c	12.827885
_cell_angle_alpha	89.980361
_cell_angle_beta	89.970214
_cell_angle_gamma	90.016917
loop_
_atom_site_label
_atom_site_type_symbol
_atom_site_fract_x
_atom_site_fract_y
_atom_site_fract_z
Zn1	Zn	-0.415940	1.606248	-0.590854
Zn2	Zn	0.084060	2.106248	-0.090854
Zn3	Zn	-0.590717	1.606141	-0.416114
Zn4	Zn	-0.090717	2.106141	0.083886
Zn5	Zn	-0.415996	1.430551	-0.416127
Zn6	Zn	0.084004	1.930551	0.083873
Zn7	Zn	-0.590644	1.430536	-0.590813
Zn8	Zn	-0.090644	1.930536	-0.090813
O9	O	-0.503324	1.518369	-0.503477
O10	O	-0.003324	2.018369	-0.003477
O11	O	-0.439132	1.753255	-0.567686
O12	O	0.060868	2.253255	-0.067686
O13	O	-0.567594	1.582810	-0.269880
O14	O	-0.067594	2.082810	0.230120
O15	O	-0.269752	1.453908	-0.439327
O16	O	0.230248	1.953908	0.060673
O17	O	-0.567540	1.753176	-0.439305
O18	O	-0.067540	2.253176	0.060695
O19	O	-0.269711	1.582992	-0.567698
O20	O	0.230289	2.082992	-0.067698
O21	O	-0.439227	1.453804	-0.269889
O22	O	0.060773	1.953804	0.230111
O23	O	-0.439156	1.283528	-0.439288
O24	O	0.060844	1.783528	0.060712
O25	O	-0.567416	1.453884	-0.737055
O26	O	-0.067416	1.953884	-0.237055
O27	O	-0.567469	1.283517	-0.567629
O28	O	-0.067469	1.783517	-0.067629
O29	O	-0.439061	1.582978	-0.737084
O30	O	0.060939	2.082978	-0.237084
O31	O	-0.736944	1.582796	-0.439266
O32	O	-0.236944	2.082796	0.060734
O33	O	-0.736890	1.453780	-0.567617
O34	O	-0.236890	1.953780	-0.067617
C35	C	-0.503311	1.245402	-0.503456
C36	C	-0.003311	1.745402	-0.003456
C37	C	-0.503331	1.128625	-0.503472
C38	C	-0.003331	1.628625	-0.003472
C39	C	-0.570246	1.073785	-0.570194
C40	C	-0.070246	1.573785	-0.070194
C41	C	-0.570250	0.964061	-0.570215
C42	C	-0.070250	1.464061	-0.070215
C43	C	-0.436422	0.964026	-0.436782
C44	C	0.063578	1.464026	0.063218
C45	C	-0.436413	1.073748	-0.436768
C46	C	0.063587	1.573748	0.063232
C47	C	-0.774834	1.518303	-0.503458
C48	C	-0.274834	2.018303	-0.003458
C49	C	-0.890987	1.518371	-0.503486
C50	C	-0.390987	2.018371	-0.003486
C51	C	-0.942764	1.582288	-0.440044
C52	C	-0.442764	2.082288	0.059956
C53	C	-1.062814	1.582360	-0.440070
C54	C	-0.562814	2.082360	0.059930
C55	C	-0.230754	1.518463	-0.503518
C56	C	0.269246	2.018463	-0.003518
C57	C	-0.114601	1.518504	-0.503536
C58	C	0.385399	2.018504	-0.003536
C59	C	-0.503224	1.518441	-0.776047
C60	C	-0.003224	2.018441	-0.276047
C61	C	-0.503181	1.518472	-0.892200
C62	C	-0.003181	2.018472	-0.392200
C63	C	-0.503338	1.792402	-0.503498
C64	C	-0.003338	2.292402	-0.003498
C65	C	-0.503344	1.909179	-0.503507
C66	C	-0.003344	2.409179	-0.003507
C67	C	-0.439648	1.454657	-0.943990
C68	C	0.060352	1.954657	-0.443990
C69	C	-0.439603	1.454687	-1.064040
C70	C	0.060397	1.954687	-0.564040
C71	C	-0.503349	1.518357	-0.231967
C72	C	-0.003349	2.018357	0.268033
C73	C	-0.503097	1.518530	-0.115814
C74	C	-0.003097	2.018530	0.384186
H75	H	-0.381917	1.118400	-0.382434
H76	H	0.118083	1.618400	0.117566
O77	O	-0.635104	0.910743	-0.635138
O78	O	-0.135104	1.410743	-0.135138
C79	C	-0.575698	0.847305	-0.702733
C80	C	-0.075698	1.347305	-0.202733
H81	H	-0.493399	0.880393	-0.709328
H82	H	0.006601	1.380393	-0.209328
H83	H	-0.613594	0.846094	-0.783088
H84	H	-0.113594	1.346094	-0.283088
H85	H	-0.572063	0.764133	-0.670444
H86	H	-0.072063	1.264133	-0.170444
H87	H	-0.557541	1.573128	-0.936738
H88	H	-0.057541	2.073128	-0.436738
O89	O	-0.944238	1.453295	-0.568362
O90	O	-0.444238	1.953295	-0.068362
C91	C	-1.007249	1.513171	-0.635886
C92	C	-0.507249	2.013171	-0.135886
H93	H	-1.023449	1.592836	-0.599089
H94	H	-0.523449	2.092836	-0.099089
H95	H	-1.084073	1.470487	-0.649801
H96	H	-0.584073	1.970487	-0.149801
H97	H	-0.965179	1.524607	-0.713366
H98	H	-0.465179	2.024607	-0.213366
O99	O	-0.371521	0.910555	-0.372021
O100	O	0.128479	1.410555	0.127979
C101	C	-0.385856	0.801951	-0.386358
C102	C	0.114144	1.301951	0.113642
H103	H	-0.466548	0.786963	-0.420440
H104	H	0.033452	1.286963	0.079560
H105	H	-0.378670	0.760214	-0.308101
H106	H	0.121330	1.260214	0.191899
H107	H	-0.323944	0.770856	-0.442124
H108	H	0.176056	1.270856	0.057876
O109	O	-0.374860	1.389389	-1.117209
O110	O	0.125140	1.889389	-0.617209
C111	C	-0.434388	1.321603	-1.180350
C112	C	0.065612	1.821603	-0.680350
H113	H	-0.516676	1.315052	-1.147381
H114	H	-0.016676	1.815052	-0.647381
H115	H	-0.396593	1.240762	-1.181690
H116	H	0.103407	1.740762	-0.681690
H117	H	-0.438029	1.354180	-1.263033
H118	H	0.061971	1.854180	-0.763033
O119	O	-0.567885	1.583864	-1.062745
O120	O	-0.067885	2.083864	-0.562745
C121	C	-0.545088	1.688615	-1.089373
C122	C	-0.045088	2.188615	-0.589373
H123	H	-0.461620	1.693987	-1.119456
H124	H	0.038380	2.193987	-0.619456
H125	H	-0.554058	1.740434	-1.017550
H126	H	-0.054058	2.240434	-0.517550
H127	H	-0.601150	1.716128	-1.152642
H128	H	-0.101150	2.216128	-0.652642
O129	O	-0.635350	1.127140	-0.634847
O130	O	-0.135350	1.627140	-0.134847
C131	C	-0.702756	1.190584	-0.575233
C132	C	-0.202756	1.690584	-0.075233
H133	H	-0.709119	1.157480	-0.492921
H134	H	-0.209119	1.657480	0.007079
H135	H	-0.783221	1.191828	-0.612895
H136	H	-0.283221	1.691828	-0.112895
H137	H	-0.670436	1.273747	-0.571679
H138	H	-0.170436	1.773747	-0.071679
O139	O	-0.374829	1.389546	-0.890705
O140	O	0.125171	1.889546	-0.390705
C141	C	-0.389318	1.403998	-0.782703
C142	C	0.110682	1.903998	-0.282703
H143	H	-0.423567	1.485075	-0.767903
H144	H	0.076433	1.985075	-0.267903
H145	H	-0.311095	1.396927	-0.741157
H146	H	0.188905	1.896927	-0.241157
H147	H	-0.445004	1.341680	-0.751715
H148	H	0.054996	1.841680	-0.251715
H149	H	-0.898218	1.636961	-0.385713
H150	H	-0.398218	2.136961	0.114287
H151	H	-1.107341	1.637079	-0.385753
H152	H	-0.607341	2.137079	0.114247
H153	H	-1.070082	1.463775	-0.557850
H154	H	-0.570082	1.963775	-0.057850
