data_functionalizedCrystal
_audit_creation_method	'MofGen! by Chris Wilmer'
_symmetry_space_group_name_H-M	'P1'
_symmetry_Int_Tables_number	1
_symmetry_cell_setting	triclinic
loop_
_symmetry_equiv_pos_as_xyz
  x,y,z
_cell_length_a	15.995350
_cell_length_b	15.072220
_cell_length_c	15.995350
_cell_angle_alpha	89.998899
_cell_angle_beta	83.492375
_cell_angle_gamma	90.008851
loop_
_atom_site_label
_atom_site_type_symbol
_atom_site_fract_x
_atom_site_fract_y
_atom_site_fract_z
O1	O	1.110996	0.073703	0.107921
O2	O	0.867221	0.073721	0.121249
O3	O	0.995772	0.073710	-0.007303
O4	O	0.982444	0.073713	0.236472
O5	O	0.995740	-0.073855	-0.007296
O6	O	0.867189	-0.073844	0.121256
O7	O	1.110964	-0.073862	0.107928
Zn8	Zn	0.989071	-0.097283	0.114593
Zn9	Zn	0.989113	0.097141	0.114584
O10	O	0.982413	-0.073852	0.236480
C11	C	0.836010	-0.000060	0.120701
C12	C	0.743060	-0.000053	0.119049
N13	N	0.989049	-0.229971	0.114599
C14	C	0.405312	-0.000071	0.113117
C15	C	0.452746	-0.000401	0.021565
C16	C	0.549436	-0.000063	0.023217
C17	C	0.572873	-0.000063	0.116060
C18	C	0.531804	0.084201	0.161212
C19	C	0.435168	0.084266	0.158912
C20	C	0.434793	-0.083543	0.160812
C21	C	0.531738	-0.084651	0.160790
C22	C	0.667570	-0.000055	0.117727
C23	C	0.310614	-0.000073	0.111452
C24	C	0.989112	-0.589173	0.114580
C25	C	0.920095	-0.551560	0.183135
C26	C	0.920254	-0.448735	0.183385
C27	C	0.989080	-0.410969	0.114590
C28	C	1.076445	-0.448266	0.133671
C29	C	1.076058	-0.551124	0.134159
C30	C	0.971542	-0.551272	0.026741
C31	C	0.969537	-0.448409	0.027327
C32	C	0.989067	-0.310255	0.114593
C33	C	0.989130	-0.689886	0.114579
C34	C	1.142175	-0.000080	0.108476
C35	C	1.235125	-0.000081	0.110127
C36	C	0.995205	-0.000070	-0.038494
C37	C	0.993553	-0.000065	-0.131444
N38	N	0.989142	0.229830	0.114571
C39	C	0.987621	-0.000068	-0.469192
C40	C	0.896069	0.000270	-0.421758
C41	C	0.897721	-0.000063	-0.325068
C42	C	0.990564	-0.000066	-0.301631
C43	C	1.035702	-0.084335	-0.342705
C44	C	1.033402	-0.084405	-0.439341
C45	C	1.035330	0.083404	-0.439707
C46	C	1.035308	0.084518	-0.342761
C47	C	0.992231	-0.000068	-0.206934
C48	C	0.985956	-0.000072	-0.563890
C49	C	0.982980	-0.000069	0.267671
C50	C	0.984631	-0.000069	0.360621
H51	H	0.577852	-0.060467	-0.012275
N52	N	0.549509	0.088152	0.246783
N53	N	0.490509	0.087873	0.305146
H54	H	0.503014	0.090663	0.365581
N55	N	0.850330	-0.075110	-0.446301
N56	N	0.784327	-0.064455	-0.480117
H57	H	0.752022	-0.117695	-0.497443
N58	N	0.852876	-0.075969	-0.290114
N59	N	0.820264	-0.128868	-0.337140
H60	H	0.788591	-0.182482	-0.312455
N61	N	0.838649	-0.417272	0.169413
N62	N	0.808359	-0.437206	0.103215
H63	H	0.750668	-0.415056	0.093460
H64	H	0.862238	0.060344	-0.296649
N65	N	0.429542	-0.076254	-0.024307
N66	N	0.377768	-0.130953	0.009934
H67	H	0.361395	-0.184542	-0.022454
H68	H	0.577307	0.060446	-0.012521
N69	N	1.120016	0.084111	-0.479529
N70	N	1.168268	0.021042	-0.468392
H71	H	1.228077	0.021535	-0.496515
H72	H	0.854945	-0.576317	0.171953
H73	H	1.000460	-0.147395	-0.457639
H74	H	0.402920	0.088090	0.226128
H75	H	0.416873	0.147255	0.125979
H76	H	0.403031	-0.084113	0.228312
N77	N	0.888913	-0.417829	0.009169
N78	N	0.845961	-0.368641	0.060262
H79	H	0.789019	-0.347038	0.047440
H80	H	1.103910	-0.087471	-0.328579
H81	H	0.414244	-0.147414	0.130885
N82	N	0.567443	0.162867	0.121879
N83	N	0.623076	0.157090	0.060603
H84	H	0.648256	0.212646	0.032827
N85	N	0.551046	-0.091032	0.245713
N86	N	0.625931	-0.096369	0.260586
H87	H	0.639578	-0.100865	0.320563
N88	N	0.565979	-0.162849	0.119424
N89	N	0.620477	-0.156375	0.057231
H90	H	0.644665	-0.211601	0.028013
H91	H	1.021872	-0.575595	-0.024275
N92	N	1.142452	-0.582357	0.073952
N93	N	1.154011	-0.663825	0.063607
H94	H	1.200916	-0.685882	0.021103
H95	H	0.931160	-0.577399	0.247952
N96	N	0.934282	-0.417863	0.265174
N97	N	0.943994	-0.472284	0.322246
H98	H	0.953888	-0.450483	0.380017
N99	N	1.117724	-0.089216	-0.479788
N100	N	1.178081	-0.092518	-0.436620
H101	H	1.237632	-0.095922	-0.465182
H102	H	1.091540	-0.575106	0.198219
N103	N	0.850158	0.076072	-0.444992
N104	N	0.822046	0.130840	-0.390204
H105	H	0.789617	0.184377	-0.406615
N106	N	0.428168	0.074981	-0.024135
N107	N	0.375869	0.128947	0.010430
H108	H	0.358509	0.182188	-0.021843
N109	N	1.142414	-0.417591	0.072695
N110	N	1.140974	-0.435673	-0.003394
H111	H	1.187564	-0.414008	-0.046461
N112	N	1.096327	-0.415933	0.213117
N113	N	1.046299	-0.365433	0.255814
H114	H	1.060336	-0.342597	0.311926
H115	H	0.909219	-0.577258	0.008392
N116	N	1.028500	-0.416152	-0.039666
N117	N	1.086146	-0.364819	-0.024117
H118	H	1.127795	-0.342036	-0.071429
N119	N	0.996335	-0.162996	-0.307094
N120	N	0.935045	-0.157213	-0.251477
H121	H	0.907236	-0.212766	-0.226327
H122	H	1.005411	0.147274	-0.460250
N123	N	0.993954	0.162719	-0.308517
N124	N	0.931759	0.156252	-0.254020
H125	H	0.902550	0.211481	-0.229830
H126	H	1.103014	0.089603	-0.327400
