data_functionalizedCrystal
_audit_creation_method	'MofGen! by Chris Wilmer'
_symmetry_space_group_name_H-M	'P1'
_symmetry_Int_Tables_number	1
_symmetry_cell_setting	triclinic
loop_
_symmetry_equiv_pos_as_xyz
  x,y,z
_cell_length_a	27.732048
_cell_length_b	27.732048
_cell_length_c	9.616153
_cell_angle_alpha	89.992780
_cell_angle_beta	89.998655
_cell_angle_gamma	82.642655
loop_
_atom_site_label
_atom_site_type_symbol
_atom_site_fract_x
_atom_site_fract_y
_atom_site_fract_z
O1	O	0.640929	0.057515	-0.115481
O2	O	0.500136	0.066260	-0.115525
O3	O	0.574905	-0.008509	-0.115475
O4	O	0.566160	0.132284	-0.115531
O5	O	0.574895	-0.008507	0.115816
O6	O	0.500125	0.066262	0.115766
O7	O	0.640919	0.057517	0.115810
Zn8	Zn	0.570520	0.061890	0.152511
Zn9	Zn	0.570534	0.061887	-0.152226
O10	O	0.566149	0.132286	0.115760
C11	C	0.482124	0.066078	0.000115
C12	C	0.428469	0.065525	0.000099
C13	C	0.089654	0.106229	0.000143
C14	C	-0.112006	0.104178	0.000157
O15	O	-0.143262	0.141398	0.000202
N16	N	-0.131130	0.059843	0.000172
C17	C	-0.099835	0.016017	0.000193
O18	O	-0.120728	-0.021740	0.000220
C19	C	0.101824	0.018068	0.000189
C20	C	0.120944	0.062407	0.000160
C21	C	0.108775	0.150563	0.000116
C22	C	0.159187	0.151075	0.000105
C23	C	0.190477	0.107253	0.000122
C24	C	0.171356	0.062919	0.000149
C25	C	0.133117	-0.025757	0.000220
C26	C	0.183535	-0.025240	0.000223
C27	C	0.202655	0.019098	0.000194
C28	C	0.253059	0.019609	0.000155
N29	N	0.272183	0.063944	0.000140
C30	C	0.240892	0.107766	0.000123
C31	C	-0.205709	0.014943	0.000192
C32	C	-0.256124	0.014430	0.000190
C33	C	-0.268291	0.102591	0.000157
C34	C	-0.217876	0.103104	0.000148
C35	C	-0.186585	0.059278	0.000177
C36	C	0.346761	0.108839	0.000099
C37	C	0.397178	0.109347	0.000083
C38	C	0.409341	0.021186	0.000123
C39	C	0.358929	0.020678	0.000133
C40	C	0.327639	0.064508	0.000125
O41	O	0.284343	-0.017592	0.000125
O42	O	0.261794	0.145518	0.000127
C43	C	0.039242	0.105716	0.000154
C44	C	0.020120	0.061382	0.000182
C45	C	0.051411	0.017560	0.000199
C46	C	-0.030294	0.060869	0.000180
C47	C	-0.061585	0.104691	0.000164
C48	C	-0.042461	0.149026	0.000149
C49	C	0.007951	0.149539	0.000138
C50	C	0.032287	-0.026775	0.000214
C51	C	-0.018125	-0.027284	0.000223
C52	C	-0.049416	0.016538	0.000206
C53	C	0.574716	-0.026515	0.000174
C54	C	0.574164	-0.080170	0.000185
C55	C	0.614867	-0.418985	0.000127
C56	C	0.612816	-0.620645	0.000107
O57	O	0.650037	-0.651900	0.000057
N58	N	0.568481	-0.639768	0.000094
C59	C	0.524656	-0.608474	0.000077
O60	O	0.486899	-0.629367	0.000052
C61	C	0.526707	-0.406815	0.000087
C62	C	0.571045	-0.387694	0.000114
C63	C	0.659202	-0.399864	0.000152
C64	C	0.659714	-0.349452	0.000164
C65	C	0.615892	-0.318161	0.000152
C66	C	0.571557	-0.337282	0.000127
C67	C	0.482882	-0.375521	0.000061
C68	C	0.483399	-0.325104	0.000060
C69	C	0.527737	-0.305983	0.000086
C70	C	0.528247	-0.255580	0.000127
N71	N	0.572583	-0.236456	0.000139
C72	C	0.616405	-0.267747	0.000152
C73	C	0.523582	-0.714348	0.000075
C74	C	0.523069	-0.764762	0.000075
C75	C	0.611230	-0.776930	0.000101
C76	C	0.611742	-0.726514	0.000111
C77	C	0.567917	-0.695224	0.000087
C78	C	0.617477	-0.161878	0.000179
C79	C	0.617986	-0.111461	0.000198
C80	C	0.529825	-0.099298	0.000164
C81	C	0.529316	-0.149710	0.000153
C82	C	0.573147	-0.180999	0.000156
O83	O	0.491047	-0.224296	0.000160
O84	O	0.654156	-0.246844	0.000147
C85	C	0.614355	-0.469397	0.000114
C86	C	0.570021	-0.488518	0.000089
C87	C	0.526198	-0.457228	0.000076
C88	C	0.569508	-0.538933	0.000089
C89	C	0.613330	-0.570223	0.000101
C90	C	0.657665	-0.551100	0.000114
C91	C	0.658177	-0.500688	0.000127
C92	C	0.481863	-0.476351	0.000064
C93	C	0.481355	-0.526764	0.000053
C94	C	0.525177	-0.558054	0.000065
C95	C	0.658931	0.057699	0.000167
C96	C	0.712586	0.058252	0.000173
C97	C	0.566338	0.150292	0.000108
C98	C	0.566891	0.203947	0.000087
N99	N	0.570515	0.061891	0.360485
N100	N	0.570543	0.061882	-0.360200
C101	C	0.530400	0.101758	0.580828
C102	C	0.530485	0.101903	0.419661
C103	C	0.620872	0.072531	0.418945
C104	C	0.620652	0.072812	0.580163
C105	C	0.560778	0.011247	0.580413
C106	C	0.559613	0.011596	0.419186
H107	H	0.209009	-0.060929	0.000247
H108	H	0.434827	-0.014492	0.000132
O109	O	0.704931	-0.584855	0.000139
H110	H	0.726174	-0.578093	-0.094117
O111	O	0.632633	0.120873	0.365442
H112	H	0.636780	0.145420	0.454604
H113	H	0.651438	0.044246	0.380612
H114	H	0.629314	0.109729	0.617740
O115	O	-0.076217	0.196292	0.000149
H116	H	-0.099483	0.198165	-0.094108
H117	H	0.694889	-0.425336	0.000157
O118	O	0.707538	-0.328836	0.000154
H119	H	0.728579	-0.341440	0.094415
O120	O	-0.197256	0.150926	0.000145
H121	H	-0.209853	0.171967	-0.094126
O122	O	0.661384	0.035785	0.631853
H123	H	0.681153	0.017760	0.541695
O124	O	-0.171963	-0.032329	0.000222
H125	H	-0.178720	-0.053561	-0.094047
H126	H	0.646911	-0.802415	0.000112
O127	O	0.595869	-0.029510	0.365862
H128	H	0.594045	-0.030672	0.250626
O129	O	-0.302044	0.149859	0.000160
H130	H	-0.340311	0.142048	0.000179
H131	H	0.647846	-0.710950	0.000132
O132	O	0.433530	-0.547385	0.000034
H133	H	0.412500	-0.534785	-0.094250
O134	O	0.665809	-0.090837	0.000225
H135	H	0.668154	-0.068150	-0.094035
O136	O	0.075029	0.197832	0.000092
H137	H	0.096803	0.228742	0.000064
O138	O	-0.276745	-0.033391	0.000218
H139	H	-0.246513	-0.063774	0.000248
O140	O	0.112501	-0.073579	0.000281
H141	H	0.142736	-0.103960	0.000319
O142	O	0.313017	0.156111	0.000079
H143	H	0.334790	0.187022	0.000045
O144	O	0.706002	-0.480073	0.000137
H145	H	0.708350	-0.457404	0.094414
O146	O	0.538688	0.151688	0.368533
H147	H	0.538772	0.151967	0.253111
H148	H	0.446177	-0.450879	0.000050
O149	O	-0.038743	-0.075110	0.000270
H150	H	-0.026147	-0.096156	-0.093979
H151	H	0.493042	0.095619	0.380137
O152	O	0.480642	0.093588	0.632241
H153	H	0.483989	0.061022	0.700381
H154	H	0.343360	-0.015426	0.000136
H155	H	0.412743	0.145454	0.000058
O156	O	0.481493	-0.170332	0.000141
H157	H	0.479144	-0.193014	0.094408
O158	O	0.538490	0.151263	0.634451
H159	H	0.509959	0.179139	0.592207
O160	O	0.475247	-0.785384	0.000064
H161	H	0.444864	-0.755151	0.000043
H162	H	0.023514	0.185643	0.000116
O163	O	0.513218	-0.002429	0.634308
H164	H	0.483062	0.025556	0.601989
H165	H	0.653168	-0.187348	0.000177
H166	H	0.447710	-0.299629	0.000038
O167	O	0.066034	-0.074043	0.000230
H168	H	0.044262	-0.104954	0.000234
H169	H	0.487892	-0.688875	0.000055
O170	O	0.179808	0.198897	0.000115
H171	H	0.149573	0.229279	0.000128
O172	O	0.435060	-0.396138	0.000027
H173	H	0.404679	-0.365902	0.000001
O174	O	0.482560	-0.065545	0.000148
H175	H	0.490370	-0.027277	0.000145
O176	O	0.510545	0.000885	0.368603
H177	H	0.493989	0.031251	0.301921
H178	H	0.590057	-0.018422	0.618549
