data_functionalizedCrystal
_audit_creation_method	'MofGen! by Chris Wilmer'
_symmetry_space_group_name_H-M	'P1'
_symmetry_Int_Tables_number	1
_symmetry_cell_setting	triclinic
loop_
_symmetry_equiv_pos_as_xyz
  x,y,z
_cell_length_a	17.077404
_cell_length_b	12.759399
_cell_length_c	17.077396
_cell_angle_alpha	89.973998
_cell_angle_beta	89.981638
_cell_angle_gamma	90.013086
loop_
_atom_site_label
_atom_site_type_symbol
_atom_site_fract_x
_atom_site_fract_y
_atom_site_fract_z
Zn1	Zn	1.200097	-0.418323	-0.443832
Zn2	Zn	1.200022	-0.594024	-0.312572
Zn3	Zn	1.068829	-0.418353	-0.312583
Zn4	Zn	1.068815	-0.593954	-0.443798
O5	O	1.134441	-0.506164	-0.378196
O6	O	1.309934	-0.441647	-0.426430
O7	O	1.182593	-0.570762	-0.202727
O8	O	1.086279	-0.271328	-0.330012
O9	O	1.309879	-0.570733	-0.329994
O10	O	1.182721	-0.271306	-0.426441
O11	O	1.086206	-0.441698	-0.202735
O12	O	0.958980	-0.441631	-0.329979
O13	O	1.086255	-0.570615	-0.553650
O14	O	0.958970	-0.570644	-0.426383
O15	O	1.182708	-0.441580	-0.553675
O16	O	1.182580	-0.741036	-0.329961
O17	O	1.086182	-0.740985	-0.426372
C18	C	0.930493	-0.506134	-0.378179
C19	C	0.843243	-0.506146	-0.378190
C20	C	0.802282	-0.439051	-0.428481
C21	C	0.720302	-0.439057	-0.428485
C22	C	0.679284	-0.506166	-0.378201
C23	C	0.720250	-0.573265	-0.327904
C24	C	0.802229	-0.573252	-0.327897
C25	C	0.549380	-0.573289	-0.327923
C26	C	0.467395	-0.573303	-0.327931
C27	C	0.467453	-0.439094	-0.428511
C28	C	0.549432	-0.439081	-0.428504
C29	C	0.590393	-0.506182	-0.378208
C30	C	1.134392	-0.779131	-0.378179
C31	C	1.134444	-0.895908	-0.378197
C32	C	1.184695	-0.950761	-0.328053
C33	C	1.184746	-1.060485	-0.328079
C34	C	1.084286	-1.060492	-0.428396
C35	C	1.084240	-0.950770	-0.428373
C36	C	1.277400	-1.210365	-0.300146
C37	C	1.327645	-1.265222	-0.249989
C38	C	1.339725	-1.229674	-0.173399
C39	C	1.301549	-1.139270	-0.146949
C40	C	1.251299	-1.084419	-0.197102
C41	C	1.239233	-1.119965	-0.273703
C42	C	0.991585	-0.800889	-0.456298
C43	C	0.941330	-0.746035	-0.506447
C44	C	0.929242	-0.781581	-0.583039
C45	C	0.967404	-0.871988	-0.609486
C46	C	1.017658	-0.926842	-0.559337
C47	C	1.029748	-0.891288	-0.482746
C48	C	1.339185	-0.506194	-0.378215
C49	C	1.426435	-0.506207	-0.378222
C50	C	1.134488	-0.506086	-0.582941
C51	C	1.134508	-0.506053	-0.670191
C52	C	1.134510	-0.232130	-0.378232
C53	C	1.134540	-0.115354	-0.378246
C54	C	1.184733	-0.438859	-0.711195
C55	C	1.184742	-0.438824	-0.793176
C56	C	1.134531	-0.505989	-0.834150
C57	C	1.084300	-0.573187	-0.793140
C58	C	1.084288	-0.573216	-0.711161
C59	C	1.084332	-0.573124	-0.964010
C60	C	1.084346	-0.573096	-1.045995
C61	C	1.184787	-0.438732	-1.046025
C62	C	1.184774	-0.438761	-0.964046
C63	C	1.134545	-0.505960	-0.923041
C64	C	1.134438	-0.506165	-0.174249
C65	C	1.134570	-0.505902	-0.086999
H66	H	1.225575	-0.906094	-0.287197
O67	O	1.054706	-1.014611	-0.585165
C68	C	1.075251	-1.133776	-0.692649
C69	C	1.033256	-1.034358	-0.663505
H70	H	1.057911	-1.149785	-0.755984
H71	H	1.141318	-1.121944	-0.688968
H72	H	1.057570	-1.203249	-0.654542
H73	H	1.050873	-0.964837	-0.701588
H74	H	0.967197	-1.046279	-0.667168
H75	H	0.686846	-0.627901	-0.286958
O76	O	0.589258	-0.638522	-0.279177
C77	C	0.681764	-0.780378	-0.268439
C78	C	0.636664	-0.706549	-0.323724
H79	H	0.720090	-0.835411	-0.304434
H80	H	0.720186	-0.732127	-0.227465
H81	H	0.638354	-0.828302	-0.232484
H82	H	0.680017	-0.658610	-0.359730
H83	H	0.598230	-0.754860	-0.364647
H84	H	0.835578	-0.627888	-0.286944
O85	O	1.313261	-1.104926	-0.072494
C86	C	1.302957	-1.144095	0.065173
C87	C	1.289669	-1.183133	-0.019107
H88	H	1.283875	-1.207297	0.108359
H89	H	1.367716	-1.126007	0.074120
H90	H	1.267065	-1.070037	0.075430
H91	H	1.325513	-1.257214	-0.029423
H92	H	1.224894	-1.201150	-0.028014
H93	H	0.434099	-0.384456	-0.469462
H94	H	1.001429	-0.771932	-0.393933
H95	H	0.957561	-0.900931	-0.671854
O96	O	0.904134	-0.658307	-0.480755
C97	C	0.780417	-0.573584	-0.456377
C98	C	0.822439	-0.673010	-0.485470
H99	H	0.714360	-0.585428	-0.460194
H100	H	0.797625	-0.557571	-0.393005
H101	H	0.798167	-0.504109	-0.494449
H102	H	0.804711	-0.742547	-0.447456
H103	H	0.805230	-0.688931	-0.548854
H104	H	1.043381	-0.627922	-0.677776
H105	H	1.220218	-1.010812	-0.175568
H106	H	1.043457	-0.627786	-1.079354
O107	O	1.388585	-1.283057	-0.124789
C108	C	1.474972	-1.430921	-0.109342
C109	C	1.419670	-1.370549	-0.164473
H110	H	1.500107	-1.501683	-0.141399
H111	H	1.524762	-1.377294	-0.090064
H112	H	1.440937	-1.458518	-0.055719
H113	H	1.453637	-1.342945	-0.218133
H114	H	1.369880	-1.424216	-0.183687
O115	O	0.880341	-0.728432	-0.631757
C116	C	0.763596	-0.734624	-0.710834
C117	C	0.818883	-0.794928	-0.655646
H118	H	0.713903	-0.788367	-0.730178
H119	H	0.738324	-0.663914	-0.678818
H120	H	0.797671	-0.706961	-0.764412
H121	H	0.784862	-0.822662	-0.602058
H122	H	0.844157	-0.865588	-0.687721
H123	H	0.835673	-0.384406	-0.469430
O124	O	1.233535	-0.373514	-0.671517
C125	C	1.333189	-0.240279	-0.680209
C126	C	1.277949	-0.314216	-0.725238
H127	H	1.369124	-0.192333	-0.723623
H128	H	1.297196	-0.185282	-0.641852
H129	H	1.374183	-0.288550	-0.641807
H130	H	1.236944	-0.266030	-0.763683
H131	H	1.313991	-0.369217	-0.763546
O132	O	0.680634	-0.373848	-0.477412
C133	C	0.689343	-0.240686	-0.577140
C134	C	0.734363	-0.314506	-0.521782
H135	H	0.732762	-0.192673	-0.613016
H136	H	0.650993	-0.288945	-0.618177
H137	H	0.650934	-0.185736	-0.541162
H138	H	0.772813	-0.369470	-0.557697
H139	H	0.772663	-0.266182	-0.480743
O140	O	1.035527	-0.638517	-0.924298
C141	C	0.935907	-0.771787	-0.932915
C142	C	0.991136	-0.697788	-0.977986
H143	H	0.899991	-0.819712	-0.976302
H144	H	0.971908	-0.826802	-0.894565
H145	H	0.894895	-0.723567	-0.894503
H146	H	1.032159	-0.745924	-1.016441
H147	H	0.955087	-0.642770	-1.016287
H148	H	0.434000	-0.627950	-0.286986
O149	O	1.265815	-1.244919	-0.374566
C150	C	1.324589	-1.285385	-0.499234
C151	C	1.337823	-1.246254	-0.414970
H152	H	1.382794	-1.286456	-0.531930
H153	H	1.299063	-1.367927	-0.497659
H154	H	1.282092	-1.230666	-0.530514
H155	H	1.380335	-1.300896	-0.383641
H156	H	1.363310	-1.163693	-0.416601
H157	H	1.358728	-1.338829	-0.271532
H158	H	0.582827	-0.384442	-0.469454
O159	O	1.035541	-1.113951	-0.477056
C160	C	0.991117	-1.282986	-0.521580
C161	C	1.046351	-1.222579	-0.466422
H162	H	0.999849	-1.370822	-0.513013
H163	H	0.927804	-1.261569	-0.507732
H164	H	1.004847	-1.261276	-0.584875
H165	H	1.032691	-1.244257	-0.403108
H166	H	1.109648	-1.244002	-0.480337
H167	H	1.225642	-0.384110	-0.826558
O168	O	1.233496	-0.373473	-1.085973
C169	C	1.278048	-0.313895	-1.212280
C170	C	1.222836	-0.387833	-1.167133
H171	H	1.269459	-0.325495	-1.277905
H172	H	1.264275	-0.229164	-1.196221
H173	H	1.341330	-0.332341	-1.196129
H174	H	1.159534	-0.369481	-1.183259
H175	H	1.236676	-0.472542	-1.183196
H176	H	1.225665	-0.384075	-0.930686
H177	H	1.043414	-0.627870	-0.826508
