data_functionalizedCrystal
_audit_creation_method	'MofGen! by Chris Wilmer'
_symmetry_space_group_name_H-M	'P1'
_symmetry_Int_Tables_number	1
_symmetry_cell_setting	triclinic
loop_
_symmetry_equiv_pos_as_xyz
  x,y,z
_cell_length_a	14.044220
_cell_length_b	14.853567
_cell_length_c	12.503552
_cell_angle_alpha	93.525201
_cell_angle_beta	93.839943
_cell_angle_gamma	91.588096
loop_
_atom_site_label
_atom_site_type_symbol
_atom_site_fract_x
_atom_site_fract_y
_atom_site_fract_z
O1	O	0.118299	-1.210931	-0.089249
O2	O	0.618299	-0.710931	0.410751
O3	O	0.133041	-0.949641	-0.089268
O4	O	0.633041	-0.449641	0.410732
O5	O	-0.012319	-1.076364	-0.089248
O6	O	0.487681	-0.576364	0.410752
O7	O	0.263659	-1.084209	-0.089269
O8	O	0.763659	-0.584209	0.410731
O9	O	-0.001378	-1.066822	0.089393
O10	O	0.498622	-0.566822	0.589393
O11	O	0.143983	-0.940099	0.089373
O12	O	0.643983	-0.440099	0.589373
O13	O	0.129240	-1.201390	0.089392
O14	O	0.629240	-0.701390	0.589392
Cu15	Cu	0.137611	-1.069873	0.105694
Cu16	Cu	0.637611	-0.569873	0.605694
Cu17	Cu	0.124671	-1.081157	-0.105570
Cu18	Cu	0.624671	-0.581157	0.394430
O19	O	0.274601	-1.074667	0.089372
O20	O	0.774601	-0.574667	0.589372
C21	C	-0.042167	-1.068159	0.000073
C22	C	0.457833	-0.568159	0.500073
C23	C	-0.147406	-1.057918	0.000073
C24	C	0.352594	-0.557918	0.500073
C25	C	0.137844	-0.911229	0.000051
C26	C	0.637844	-0.411229	0.500051
C27	C	0.135842	-0.810987	0.000044
C28	C	0.635842	-0.310987	0.500044
C29	C	0.124438	-1.239802	0.000072
C30	C	0.624438	-0.739802	0.500072
C31	C	0.126440	-1.340045	0.000071
C32	C	0.626440	-0.840045	0.500071
C33	C	-0.340094	-1.039194	0.000057
C34	C	0.159906	-0.539194	0.500057
C35	C	-0.397631	-1.111833	0.000059
C36	C	0.102369	-0.611833	0.500059
C37	C	-0.504849	-1.101415	0.000049
C38	C	-0.004849	-0.601415	0.500049
C39	C	-0.232866	-1.049611	0.000066
C40	C	0.267134	-0.549611	0.500066
C41	C	0.304449	-1.082872	0.000049
C42	C	0.804449	-0.582872	0.500049
C43	C	0.409688	-1.093114	0.000042
C44	C	0.909688	-0.593114	0.500042
N45	N	0.146711	-1.061943	0.254286
N46	N	0.646711	-0.561943	0.754286
C47	C	0.041033	-0.390940	0.000075
C48	C	0.541033	0.109060	0.500075
C49	C	0.213725	-0.383342	0.000061
C50	C	0.713725	0.116658	0.500061
C51	C	0.215607	-0.477525	0.000057
C52	C	0.715607	0.022475	0.500057
C53	C	0.130201	-0.528420	0.000061
C54	C	0.630201	-0.028420	0.500061
C55	C	0.042912	-0.485132	0.000068
C56	C	0.542912	0.014868	0.500068
C57	C	0.302894	-0.520820	0.000039
C58	C	0.802894	-0.020820	0.500039
C59	C	0.304779	-0.615009	0.000035
C60	C	0.804779	-0.115009	0.500035
C61	C	0.219372	-0.665905	0.000046
C62	C	0.719372	-0.165905	0.500046
C63	C	0.132080	-0.622612	0.000054
C64	C	0.632080	-0.122612	0.500054
C65	C	0.046674	-0.673507	0.000058
C66	C	0.546674	-0.173507	0.500058
C67	C	-0.040619	-0.630214	0.000074
C68	C	0.459381	-0.130214	0.500074
C69	C	-0.042494	-0.536028	0.000079
C70	C	0.457506	-0.036028	0.500079
C71	C	0.221248	-0.760092	0.000040
C72	C	0.721248	-0.260092	0.500040
C73	C	0.048553	-0.767699	0.000051
C74	C	0.548553	-0.267699	0.500051
N75	N	0.115563	-1.089094	-0.254161
N76	N	0.615563	-0.589094	0.245839
C77	C	0.102173	-1.100754	0.526725
C78	C	0.602173	-0.600754	1.026725
C79	C	0.160098	-1.050286	0.473393
C80	C	0.660098	-0.550286	0.973393
C81	C	0.152648	-1.056774	0.351470
C82	C	0.652648	-0.556774	0.851470
C83	C	0.109622	-1.094267	0.648658
C84	C	0.609622	-0.594267	1.148658
H85	H	-0.366372	-1.181849	-0.000009
H86	H	0.133628	-0.681849	0.499991
H87	H	-0.371355	-0.969188	0.000049
H88	H	0.128645	-0.469188	0.500049
H89	H	0.215286	-1.002206	0.519301
H90	H	0.715286	-0.502206	1.019301
H91	H	-0.020996	-0.809131	0.000058
H92	H	0.479004	-0.309131	0.500058
H93	H	-0.030038	-0.355687	0.000092
H94	H	0.469962	0.144313	0.500092
C95	C	-0.133238	-0.685633	0.000130
C96	C	0.366762	-0.185633	0.500130
C97	C	-0.112899	-0.777380	0.000139
C98	C	0.387101	-0.277380	0.500139
C99	C	-0.198191	-0.828461	0.000204
C100	C	0.301809	-0.328461	0.500204
H101	H	-0.172911	-0.675191	-0.062143
H102	H	0.327089	-0.175191	0.437857
H103	H	-0.165214	-0.668497	0.062457
H104	H	0.334786	-0.168497	0.562457
H105	H	-0.080938	-0.794510	-0.062182
H106	H	0.419062	-0.294510	0.437818
H107	H	-0.073240	-0.787850	0.062407
H108	H	0.426760	-0.287850	0.562407
H109	H	-0.230167	-0.811325	0.062532
H110	H	0.269833	-0.311325	0.562532
H111	H	-0.237858	-0.818012	-0.062069
H112	H	0.262142	-0.318012	0.437931
H113	H	-0.184402	-0.890716	0.000221
H114	H	0.315598	-0.390716	0.500221
C115	C	-0.137170	-0.488861	0.000034
C116	C	0.362830	0.011139	0.500034
C117	C	-0.120535	-0.395485	0.000005
C118	C	0.379465	0.104515	0.500005
C119	C	-0.207726	-0.352004	-0.000055
C120	C	0.292274	0.147996	0.499945
H121	H	-0.168601	-0.502427	0.062315
H122	H	0.331399	-0.002427	0.562315
H123	H	-0.176165	-0.509131	-0.062285
H124	H	0.323835	-0.009131	0.437715
H125	H	-0.081554	-0.375223	0.062318
H126	H	0.418446	0.124777	0.562318
H127	H	-0.089118	-0.381893	-0.062271
H128	H	0.410882	0.118107	0.437729
H129	H	-0.246721	-0.372273	-0.062374
H130	H	0.253279	0.127727	0.437626
H131	H	-0.239150	-0.365577	0.062227
H132	H	0.260850	0.134423	0.562227
H133	H	-0.196451	-0.288645	-0.000084
H134	H	0.303549	0.211355	0.499916
C135	C	0.306364	-0.327982	-0.000111
C136	C	0.806364	0.172018	0.499889
C137	C	0.304689	-0.278573	-0.092003
C138	C	0.804689	0.221427	0.407997
C139	C	0.390009	-0.227552	-0.092189
C140	C	0.890009	0.272448	0.407811
H141	H	0.358694	-0.367148	-0.000170
H142	H	0.858694	0.132852	0.499830
H143	H	0.313036	-0.287708	0.062153
H144	H	0.813036	0.212292	0.562153
H145	H	0.298028	-0.318843	-0.154252
H146	H	0.798028	0.181157	0.345748
H147	H	0.252377	-0.239391	-0.091964
H148	H	0.752377	0.260609	0.408036
H149	H	0.396681	-0.187277	-0.029924
H150	H	0.896681	0.312723	0.470076
H151	H	0.442333	-0.266724	-0.092245
H152	H	0.942333	0.233276	0.407755
H153	H	0.388881	-0.194016	-0.154531
H154	H	0.888881	0.305984	0.345469
C155	C	0.399487	-0.662125	0.000178
C156	C	0.899487	-0.162125	0.500178
C157	C	0.411234	-0.711097	0.092064
C158	C	0.911234	-0.211097	0.592064
C159	C	0.498459	-0.754526	0.092222
C160	C	0.998459	-0.254526	0.592222
H161	H	0.450172	-0.618427	0.000226
H162	H	0.950172	-0.118427	0.500226
H163	H	0.399993	-0.702080	-0.062091
H164	H	0.899993	-0.202080	0.437909
H165	H	0.410737	-0.671145	0.154317
H166	H	0.910737	-0.171145	0.654317
H167	H	0.360571	-0.754810	0.092035
H168	H	0.860571	-0.254810	0.592035
H169	H	0.498965	-0.794481	0.029953
H170	H	0.998965	-0.294481	0.529953
H171	H	0.549137	-0.710822	0.092267
H172	H	1.049137	-0.210822	0.592267
H173	H	0.506437	-0.787765	0.154560
H174	H	1.006437	-0.287765	0.654560
H175	H	0.046990	-1.148832	0.480822
H176	H	0.546990	-0.648832	0.980822
C177	C	0.315969	-0.807157	-0.000198
C178	C	0.815969	-0.307157	0.499802
C179	C	0.316468	-0.865894	-0.092120
C180	C	0.816468	-0.365894	0.407880
C181	C	0.403719	-0.909256	-0.092380
C182	C	0.903719	-0.409256	0.407620
H183	H	0.324200	-0.840491	0.062024
H184	H	0.824200	-0.340491	0.562024
H185	H	0.366590	-0.763387	-0.000262
H186	H	0.866590	-0.263387	0.499738
H187	H	0.265862	-0.909658	-0.092046
H188	H	0.765862	-0.409658	0.407954
H189	H	0.308253	-0.832583	-0.154357
H190	H	0.808253	-0.332583	0.345643
H191	H	0.454339	-0.865486	-0.092445
H192	H	0.954339	-0.365486	0.407555
H193	H	0.411942	-0.942585	-0.030154
H194	H	0.911942	-0.442585	0.469846
H195	H	0.404072	-0.949108	-0.154753
H196	H	0.904072	-0.449108	0.345247
H197	H	0.372426	-0.479375	0.000025
H198	H	0.872426	0.020625	0.500025
