data_functionalizedCrystal
_audit_creation_method	'MofGen! by Chris Wilmer'
_symmetry_space_group_name_H-M	'P1'
_symmetry_Int_Tables_number	1
_symmetry_cell_setting	triclinic
loop_
_symmetry_equiv_pos_as_xyz
  x,y,z
_cell_length_a	12.759401
_cell_length_b	12.594516
_cell_length_c	12.759393
_cell_angle_alpha	89.970876
_cell_angle_beta	89.981504
_cell_angle_gamma	90.016214
loop_
_atom_site_label
_atom_site_type_symbol
_atom_site_fract_x
_atom_site_fract_y
_atom_site_fract_z
Zn1	Zn	1.606246	-0.423675	-0.593999
Zn2	Zn	1.606136	-0.601694	-0.418327
Zn3	Zn	1.430547	-0.423730	-0.418339
Zn4	Zn	1.430532	-0.601612	-0.593968
O5	O	1.518365	-0.512678	-0.506158
O6	O	1.753252	-0.447300	-0.570704
O7	O	1.582804	-0.578144	-0.271307
O8	O	1.453907	-0.274777	-0.441658
O9	O	1.753171	-0.578090	-0.441638
O10	O	1.582991	-0.274736	-0.570715
O11	O	1.453800	-0.447395	-0.271316
O12	O	1.283524	-0.447316	-0.441628
O13	O	1.453880	-0.577951	-0.740993
O14	O	1.283513	-0.578005	-0.570663
O15	O	1.582976	-0.447221	-0.741016
O16	O	1.582789	-0.750629	-0.441608
O17	O	1.453774	-0.750569	-0.570651
C18	C	1.245398	-0.512658	-0.506144
C19	C	1.128621	-0.512676	-0.506163
C20	C	1.073781	-0.580834	-0.573240
C21	C	0.964057	-0.580848	-0.573251
C22	C	0.964023	-0.444541	-0.439099
C23	C	1.073745	-0.444523	-0.439094
C24	C	1.128657	-0.648987	-0.640308
C25	C	1.073816	-0.717152	-0.707390
C26	C	0.964092	-0.717165	-0.707402
C27	C	0.909209	-0.649014	-0.640331
C28	C	1.518296	-0.789219	-0.506148
C29	C	1.518363	-0.907524	-0.506179
C30	C	1.448185	-0.976783	-0.576316
C31	C	1.422585	-1.047654	-0.480449
C32	C	1.544058	-1.047453	-0.602062
C33	C	1.492713	-0.976836	-0.410261
C34	C	1.614230	-0.976629	-0.531938
C35	C	1.588667	-1.047468	-0.436006
C36	C	1.792398	-0.512698	-0.506173
C37	C	1.909175	-0.512707	-0.506179
C38	C	1.518439	-0.512570	-0.780192
C39	C	1.518470	-0.512525	-0.896968
C40	C	1.518463	-0.235057	-0.506192
C41	C	1.518505	-0.116752	-0.506206
C42	C	1.585700	-0.444447	-0.951844
C43	C	1.585725	-0.444409	-1.061568
C44	C	1.451288	-0.580534	-1.061531
C45	C	1.451258	-0.580567	-0.951809
C46	C	1.652912	-0.376405	-0.897003
C47	C	1.720147	-0.308323	-0.951879
C48	C	1.720172	-0.308284	-1.061603
C49	C	1.652962	-0.376328	-1.116451
C50	C	1.518352	-0.512708	-0.233191
C51	C	1.518525	-0.512454	-0.116415
H52	H	0.919444	-0.772661	-0.762030
H53	H	1.118397	-0.389014	-0.384482
N54	N	1.382607	-0.650113	-0.895732
N55	N	1.382597	-0.650132	-0.797767
H56	H	1.334110	-0.699250	-0.758159
N57	N	1.240735	-0.648983	-0.640336
N58	N	1.289729	-0.626842	-0.722337
H59	H	1.368886	-0.626842	-0.722362
N60	N	0.797128	-0.649027	-0.640368
N61	N	0.748172	-0.709882	-0.700271
H62	H	0.669016	-0.709894	-0.700298
H63	H	1.774861	-0.252918	-0.907214
H64	H	1.774911	-0.252841	-1.106280
N65	N	1.652990	-0.376267	-1.228532
N66	N	1.713017	-0.315472	-1.277519
H67	H	1.713041	-0.315430	-1.356676
N68	N	1.652907	-0.376437	-0.784924
N69	N	1.712922	-0.315686	-0.735968
H70	H	1.712920	-0.315710	-0.656812
N71	N	1.382643	-0.650026	-1.117571
N72	N	1.382680	-0.649987	-1.215536
H73	H	1.334200	-0.699068	-1.255115
N74	N	1.129889	-0.786746	-0.775901
N75	N	1.227854	-0.786725	-0.775885
H76	H	1.267455	-0.835876	-0.824273
H77	H	0.919328	-0.389056	-0.384493
H78	H	1.388731	-0.945746	-0.635542
H79	H	1.341578	-1.078874	-0.458684
N80	N	1.663209	-1.086169	-0.361549
N81	N	1.757832	-1.062023	-0.370356
H82	H	1.810475	-1.089358	-0.317770
H83	H	1.470943	-0.945945	-0.329163
H84	H	1.565734	-1.078472	-0.683138
N85	N	1.715831	-0.937475	-0.559308
N86	N	1.754921	-0.960020	-0.646335
H87	H	1.826678	-0.932367	-0.665677
