data_functionalizedCrystal
_audit_creation_method	'MofGen! by Chris Wilmer'
_symmetry_space_group_name_H-M	'P1'
_symmetry_Int_Tables_number	1
_symmetry_cell_setting	triclinic
loop_
_symmetry_equiv_pos_as_xyz
  x,y,z
_cell_length_a	17.699083
_cell_length_b	11.792241
_cell_length_c	16.776229
_cell_angle_alpha	89.993219
_cell_angle_beta	89.998886
_cell_angle_gamma	83.738215
loop_
_atom_site_label
_atom_site_type_symbol
_atom_site_fract_x
_atom_site_fract_y
_atom_site_fract_z
O1	O	1.004843	0.143527	-0.066177
O2	O	0.784565	0.162200	-0.066203
O3	O	0.900050	-0.012371	-0.066184
O4	O	0.889358	0.318098	-0.066196
O5	O	0.900034	-0.012382	0.066393
O6	O	0.784549	0.162189	0.066374
O7	O	1.004828	0.143516	0.066400
Zn8	Zn	0.894686	0.152851	0.087436
Zn9	Zn	0.894706	0.152865	-0.087239
O10	O	0.889343	0.318087	0.066381
C11	C	0.756356	0.161525	0.000082
C12	C	0.672328	0.159518	0.000072
C13	C	0.899370	-0.054660	0.000104
C14	C	0.897360	-0.180649	0.000103
C15	C	0.624253	0.261988	0.000069
C16	C	0.545299	0.260095	0.000079
C17	C	0.514422	0.155731	0.000087
C18	C	0.562503	0.053254	0.000093
C19	C	0.641455	0.055148	0.000089
C20	C	0.244099	0.045613	0.000113
C21	C	0.165141	0.043727	0.000116
C22	C	0.147944	0.250560	0.000104
C23	C	0.226896	0.252454	0.000099
C24	C	0.274970	0.149977	0.000109
C25	C	0.360580	0.152031	0.000099
C26	C	0.428814	0.153676	0.000091
C27	C	0.893664	-0.411317	0.000090
C28	C	0.895718	-0.282956	0.000097
C29	C	1.033036	0.144190	0.000113
C30	C	1.117065	0.146198	0.000118
C31	C	0.890022	0.360375	0.000091
C32	C	0.892032	0.486365	0.000087
N33	N	0.894678	0.152841	0.206647
N34	N	0.894721	0.152866	-0.206450
C35	C	0.945830	0.075572	0.248373
C36	C	0.945834	0.075571	0.331825
C37	C	0.894689	0.152845	0.373550
C38	C	0.843531	0.230117	0.331819
C39	C	0.843524	0.230112	0.248368
C40	C	0.843559	0.230139	0.668366
C41	C	0.843571	0.230141	0.751822
C42	C	0.945869	0.075599	0.751823
C43	C	0.945862	0.075593	0.668372
C44	C	0.894702	0.152861	0.626648
C45	C	0.894697	0.152860	0.536160
C46	C	0.894697	0.152853	0.464037
H47	H	0.506159	0.343536	0.000075
H48	H	0.801869	0.293030	0.214396
H49	H	0.140005	-0.041263	0.000123
O50	O	0.793816	0.305024	0.372438
C51	C	0.746873	0.244330	0.420709
H52	H	0.776657	0.155461	0.433216
H53	H	0.690904	0.236721	0.388558
C54	C	0.694387	0.417504	0.484613
C55	C	0.730971	0.308358	0.499980
H56	H	0.684574	0.457001	0.533509
H57	H	0.726011	0.458397	0.452090
H58	H	0.647750	0.411148	0.457819
H59	H	0.777611	0.314715	0.526764
H60	H	0.699354	0.267468	0.532510
H61	H	0.649386	0.346973	0.000061
O62	O	0.532549	-0.048156	0.000241
C63	C	0.557090	-0.110628	0.068895
H64	H	0.573760	-0.049601	0.116885
H65	H	0.608283	-0.174009	0.053372
C66	C	0.471754	-0.250643	0.041088
C67	C	0.492221	-0.175687	0.100033
H68	H	0.431741	-0.290779	0.060294
H69	H	0.455222	-0.208557	-0.005167
H70	H	0.514420	-0.303450	0.028158
H71	H	0.449558	-0.122873	0.112955
H72	H	0.508745	-0.217766	0.146291
O73	O	0.995665	0.000637	0.792318
C74	C	1.070657	0.018927	0.771900
H75	H	1.071395	0.109799	0.748957
H76	H	1.092623	-0.044019	0.723460
C77	C	1.120995	-0.110427	0.874205
C78	C	1.121903	0.001187	0.846032
H79	H	1.152607	-0.121374	0.919932
H80	H	1.070472	-0.122753	0.887959
H81	H	1.139298	-0.162869	0.833831
H82	H	1.103590	0.053626	0.886402
H83	H	1.172424	0.013522	0.832287
H84	H	0.252031	0.337438	0.000089
H85	H	0.801903	0.293055	0.634401
O86	O	0.101135	0.350005	0.000137
C87	C	0.024828	0.325964	0.000126
H88	H	0.021435	0.236827	0.025234
H89	H	0.002011	0.330329	-0.063477
C90	C	-0.018955	0.523695	0.021274
C91	C	-0.023123	0.414218	0.052119
H92	H	-0.048534	0.578136	0.053343
H93	H	0.032454	0.539893	0.021279
H94	H	-0.037967	0.527316	-0.031727
H95	H	-0.004102	0.410594	0.105115
H96	H	-0.074530	0.398021	0.052125
H97	H	0.283232	-0.037830	0.000122
H98	H	0.987482	0.012652	0.214406
H99	H	0.680598	-0.028294	0.000091
H100	H	0.987486	0.012653	0.365798
H101	H	0.987512	0.012674	0.634402
O102	O	0.793808	0.305245	0.792232
C103	C	0.748661	0.373460	0.737512
H104	H	0.747612	0.326928	0.678030
H105	H	0.773568	0.457734	0.728624
C106	C	0.668406	0.454140	0.843152
C107	C	0.667112	0.396985	0.770097
H108	H	0.618103	0.468657	0.863252
H109	H	0.698824	0.408187	0.880019
H110	H	0.689165	0.524362	0.835736
H111	H	0.646362	0.326758	0.777516
H112	H	0.636689	0.442927	0.733232
