data_functionalizedCrystal
_audit_creation_method	'MofGen! by Chris Wilmer'
_symmetry_space_group_name_H-M	'P1'
_symmetry_Int_Tables_number	1
_symmetry_cell_setting	triclinic
loop_
_symmetry_equiv_pos_as_xyz
  x,y,z
_cell_length_a	13.635800
_cell_length_b	19.386002
_cell_length_c	17.078453
_cell_angle_alpha	77.975092
_cell_angle_beta	80.694390
_cell_angle_gamma	60.386057
loop_
_atom_site_label
_atom_site_type_symbol
_atom_site_fract_x
_atom_site_fract_y
_atom_site_fract_z
V1	V	2.058679	-0.247280	0.109582
O2	O	2.108079	-0.242657	-0.005456
O3	O	1.979783	-0.245507	0.217466
O4	O	2.079028	-0.355164	0.107813
O5	O	2.008146	-0.132241	0.104956
V6	V	2.301808	-0.233530	0.095832
O7	O	2.186309	-0.277441	0.139744
O8	O	2.399276	-0.203369	0.065670
O9	O	2.269100	-0.235302	-0.012052
O10	O	2.311106	-0.238153	0.210870
O11	O	2.411039	-0.348569	0.100458
O12	O	2.169855	-0.125646	0.097601
V13	V	2.558679	-0.247280	0.109582
O14	O	2.608079	-0.242657	-0.005456
O15	O	2.479783	-0.245507	0.217466
O16	O	2.579028	-0.355164	0.107813
O17	O	2.508146	-0.132241	0.104956
V18	V	2.801808	-0.233530	0.095832
O19	O	2.686309	-0.277441	0.139744
O20	O	2.899276	-0.203369	0.065670
O21	O	2.769100	-0.235302	-0.012052
O22	O	2.811106	-0.238153	0.210870
O23	O	2.911039	-0.348569	0.100458
O24	O	2.669855	-0.125646	0.097601
C25	C	1.887536	-0.241585	0.243768
C26	C	1.863969	-0.240855	0.331964
C27	C	1.809015	-0.167861	0.362110
C28	C	1.786879	-0.167164	0.444978
C29	C	1.819692	-0.239462	0.497698
C30	C	1.874655	-0.312462	0.467547
C31	C	1.896797	-0.313158	0.384681
C32	C	2.014133	-0.381462	0.103894
C33	C	2.071051	-0.469658	0.103161
C34	C	2.188501	-0.515131	0.106777
C35	C	2.241975	-0.597999	0.106088
C36	C	2.177996	-0.635394	0.101789
C37	C	2.060536	-0.589915	0.098170
C38	C	2.007064	-0.507047	0.098853
C39	C	2.328190	-0.882799	0.099316
C40	C	2.381672	-0.965674	0.098635
C41	C	2.563108	-0.973753	0.106552
C42	C	2.509626	-0.890883	0.107240
C43	C	2.392172	-0.845410	0.103616
N44	N	2.232653	-0.720100	0.101087
N45	N	2.337518	-0.760706	0.104313
C46	C	2.193016	-0.239222	-0.038350
C47	C	2.206203	-0.239957	-0.126545
C48	C	2.566419	-0.099343	0.101522
C49	C	2.499122	-0.011147	0.102251
C50	C	2.299110	-0.236345	-0.172018
C51	C	2.311485	-0.237022	-0.254888
C52	C	2.230956	-0.241319	-0.292284
C53	C	2.138040	-0.244929	-0.246805
C54	C	2.125661	-0.244246	-0.163937
C55	C	2.258674	-0.243782	-0.539690
C56	C	2.271062	-0.244468	-0.622564
C57	C	2.444506	-0.236559	-0.630641
C58	C	2.432123	-0.235881	-0.547770
C59	C	2.339205	-0.239487	-0.502300
N60	N	2.243606	-0.242014	-0.376990
N61	N	2.326553	-0.238786	-0.417596
C62	C	2.387536	-0.241585	0.243768
C63	C	2.363969	-0.240855	0.331964
C64	C	2.066419	-0.099343	0.101522
C65	C	1.999122	-0.011147	0.102251
C66	C	2.514133	-0.381462	0.103894
C67	C	2.571051	-0.469658	0.103161
C68	C	2.693016	-0.239222	-0.038350
C69	C	2.706203	-0.239957	-0.126545
C70	C	1.880864	0.026241	0.106544
C71	C	1.817618	0.109112	0.107219
C72	C	1.872632	0.154592	0.103607
C73	C	1.990902	0.117198	0.099312
C74	C	2.054146	0.034330	0.098631
C75	C	2.688503	-0.515116	0.106769
C76	C	2.741999	-0.597984	0.106070
C77	C	2.678040	-0.635393	0.101769
C78	C	2.560577	-0.589928	0.098158
C79	C	2.507084	-0.507061	0.098851
C80	C	2.799116	-0.236341	-0.172005
C81	C	2.811511	-0.237019	-0.254876
C82	C	2.730996	-0.241318	-0.292285
C83	C	2.638074	-0.244932	-0.246820
C84	C	2.625675	-0.244249	-0.163951
H85	H	1.782283	-0.108985	0.319194
H86	H	2.364691	-0.232851	-0.141576
H87	H	1.742122	-0.107717	0.469514
F88	F	1.796119	-0.238708	0.585891
H89	H	2.497701	-0.232383	-0.517329
F90	F	2.526782	-0.248100	-0.115577
H91	H	2.864687	-0.232841	-0.141557
F92	F	1.909569	-0.389401	0.523667
H93	H	2.232555	-0.845790	0.096394
F94	F	1.992446	-0.629715	0.093593
F95	F	2.180009	-0.005454	0.094072
F96	F	1.882061	-0.458650	0.094998
H97	H	2.411445	-0.470054	0.095914
H98	H	2.887180	-0.234077	-0.291882
F99	F	1.955279	-0.390852	0.352607
F100	F	2.410362	-0.233166	-0.303282
F101	F	2.543389	-0.232718	-0.679040
H102	H	2.329564	-0.996118	0.095131
H103	H	2.837643	-0.634991	0.109014
F104	F	2.734988	-0.723590	0.101034
F105	F	2.756596	-0.475318	0.111348
F106	F	2.185349	-0.249044	-0.662360
H107	H	1.821122	0.222066	0.104172
H108	H	2.240606	-0.484691	0.110283
H109	H	2.508512	-0.620399	0.094656
F110	F	2.159777	-0.247610	-0.491309
F111	F	2.577727	-0.851092	0.111818
F112	F	2.366976	-0.646393	0.109945
F113	F	2.552388	-0.249503	-0.286646
H114	H	2.658741	-1.010785	0.109500
F115	F	2.052327	-0.249491	-0.286608
F116	F	2.026776	-0.248090	-0.115542
H117	H	1.836049	-0.010778	0.109484
F118	F	1.691749	0.148893	0.111796
H119	H	2.035682	0.154241	0.096369
H120	H	2.741104	-0.241874	-0.359763
