data_functionalizedCrystal
_audit_creation_method	'MofGen! by Chris Wilmer'
_symmetry_space_group_name_H-M	'P1'
_symmetry_Int_Tables_number	1
_symmetry_cell_setting	triclinic
loop_
_symmetry_equiv_pos_as_xyz
  x,y,z
_cell_length_a	16.625548
_cell_length_b	21.295417
_cell_length_c	16.625539
_cell_angle_alpha	90.032326
_cell_angle_beta	90.020568
_cell_angle_gamma	90.030770
loop_
_atom_site_label
_atom_site_type_symbol
_atom_site_fract_x
_atom_site_fract_y
_atom_site_fract_z
Zn1	Zn	1.232640	-0.250590	0.455887
Zn2	Zn	1.232526	-0.355864	0.321045
Zn3	Zn	1.097802	-0.250614	0.321067
Zn4	Zn	1.097755	-0.355827	0.455834
O5	O	1.165181	-0.303224	0.388458
O6	O	1.345457	-0.264560	0.438012
O7	O	1.214627	-0.341927	0.208215
O8	O	1.115755	-0.162522	0.338983
O9	O	1.345374	-0.341904	0.338944
O10	O	1.214820	-0.162504	0.438034
O11	O	1.115645	-0.264601	0.208232
O12	O	0.984963	-0.264566	0.338932
O13	O	1.115676	-0.341842	0.568674
O14	O	0.984929	-0.341866	0.437945
O15	O	1.214775	-0.264525	0.568712
O16	O	1.214581	-0.443948	0.338893
O17	O	1.115566	-0.443922	0.437923
C18	C	0.955690	-0.303215	0.388436
C19	C	0.866069	-0.303226	0.388445
C20	C	0.537893	-0.303230	0.388480
C21	C	0.629202	-0.303227	0.388468
C22	C	0.701978	-0.303229	0.388462
C23	C	0.793292	-0.303225	0.388451
C24	C	1.165078	-0.466775	0.388417
C25	C	1.165108	-0.536744	0.388427
C26	C	1.216661	-0.569544	0.440040
C27	C	1.216690	-0.635286	0.440060
C28	C	1.165173	-0.668226	0.388452
C29	C	1.113609	-0.635418	0.336836
C30	C	1.113577	-0.569677	0.336823
N31	N	1.159082	-0.771490	0.317887
N32	N	1.159117	-0.833941	0.317901
C33	C	1.165267	-0.866301	0.388489
N34	N	1.171396	-0.833850	0.459063
N35	N	1.171364	-0.771392	0.459047
C36	C	1.165203	-0.739511	0.388461
C37	C	1.216855	-0.970387	0.440128
C38	C	1.216877	-1.036130	0.440149
C39	C	1.113801	-1.036260	0.336918
C40	C	1.113774	-0.970518	0.336904
C41	C	1.165305	-0.937585	0.388508
C42	C	1.375490	-0.303233	0.388481
C43	C	1.465111	-0.303237	0.388491
C44	C	1.165233	-0.303177	0.598767
C45	C	1.165256	-0.303157	0.688388
C46	C	1.165306	-0.139033	0.388517
C47	C	1.165359	-0.069065	0.388542
C48	C	1.165175	-0.303225	0.178967
C49	C	1.165309	-0.303068	0.089347
C50	C	1.165293	-0.303086	1.016564
C51	C	1.165280	-0.303108	0.925256
C52	C	1.165275	-0.303122	0.852479
C53	C	1.165261	-0.303143	0.761165
H54	H	1.258664	-0.661998	0.482098
N55	N	1.060910	-0.536161	0.284110
N56	N	1.009500	-0.499498	0.312431
H57	H	0.972301	-0.475827	0.275203
N58	N	1.060986	-0.669071	0.284130
N59	N	1.061022	-0.727768	0.284148
H60	H	1.023852	-0.751537	0.246926
H61	H	1.258812	-0.943571	0.482149
N62	N	1.269330	-0.535911	0.492724
N63	N	1.320714	-0.499226	0.464364
H64	H	1.357926	-0.475477	0.501565
H65	H	1.071850	-1.063079	0.294903
H66	H	1.258858	-1.062835	0.482182
H67	H	1.071798	-0.943810	0.294872
