data_functionalizedCrystal
_audit_creation_method	'MofGen! by Chris Wilmer'
_symmetry_space_group_name_H-M	'P1'
_symmetry_Int_Tables_number	1
_symmetry_cell_setting	triclinic
loop_
_symmetry_equiv_pos_as_xyz
  x,y,z
_cell_length_a	6.817900
_cell_length_b	16.255748
_cell_length_c	16.255661
_cell_angle_alpha	95.347428
_cell_angle_beta	103.488922
_cell_angle_gamma	103.490428
loop_
_atom_site_label
_atom_site_type_symbol
_atom_site_fract_x
_atom_site_fract_y
_atom_site_fract_z
V1	V	-4.026718	-0.117775	-0.264162
O2	O	-4.014190	0.004956	-0.258836
O3	O	-3.978277	-0.232852	-0.262642
O4	O	-3.978280	-0.116272	-0.379242
O5	O	-4.014186	-0.112431	-0.141429
V6	V	-4.510357	-0.103059	-0.249447
O7	O	-4.287724	-0.150057	-0.296440
O8	O	-4.699549	-0.070777	-0.217170
O9	O	-4.335592	0.012018	-0.250968
O10	O	-4.640282	-0.225790	-0.254774
O11	O	-4.640286	-0.108403	-0.372181
O12	O	-4.335588	-0.104562	-0.134368
C13	C	-3.823268	-0.260896	-0.258548
C14	C	-3.864948	-0.354974	-0.258072
C15	C	-3.800462	-0.634058	-0.252241
C16	C	-3.906949	-0.591123	-0.324865
C17	C	-4.015121	-0.693616	-0.256396
C18	C	-3.834252	-0.568919	-0.184633
C19	C	-3.941325	-0.527229	-0.257218
C20	C	-4.122189	-0.651929	-0.329071
C21	C	-4.049434	-0.629719	-0.188775
C22	C	-4.156080	-0.586816	-0.261419
C23	C	-4.057627	-0.789466	-0.255923
C24	C	-3.898837	-0.431382	-0.257697
C25	C	-3.823272	-0.112186	-0.407282
C26	C	-3.864952	-0.111718	-0.501362
C27	C	-3.775508	-0.106135	-0.724167
C28	C	-3.931928	-0.178192	-0.793821
C29	C	-3.941336	-0.110842	-0.673609
C30	C	-3.859207	-0.037960	-0.771590
C31	C	-4.015104	-0.109991	-0.839990
C32	C	-4.097238	-0.182963	-0.742033
C33	C	-4.024455	-0.042667	-0.719786
C34	C	-4.181011	-0.114745	-0.789421
C35	C	-3.898835	-0.111332	-0.577760
C36	C	-4.057622	-0.109507	-0.935837
C37	C	-4.153942	0.040057	-0.255059
C38	C	-4.091501	0.134135	-0.255540
C39	C	-4.153938	-0.108651	-0.106323
C40	C	-4.091497	-0.109114	-0.012242
H41	H	-4.306188	-0.566087	-0.265325
Br42	Br	-4.088778	0.052838	-0.666029
H43	H	-4.109985	-0.646981	-0.131226
Br44	Br	-3.867486	-0.273693	-0.847537
H45	H	-3.712080	-0.532888	-0.123606
Br46	Br	-3.489242	-0.100219	-0.676678
H47	H	-4.197458	-0.244311	-0.728718
Br48	Br	-4.467472	-0.120838	-0.836683
Br49	Br	-3.692146	0.064179	-0.793976
H50	H	-3.650608	-0.654960	-0.248445
H51	H	-4.244217	-0.687853	-0.390177
Br52	Br	-3.805930	-0.562382	-0.420778
