data_functionalizedCrystal
_audit_creation_method	'MofGen! by Chris Wilmer'
_symmetry_space_group_name_H-M	'P1'
_symmetry_Int_Tables_number	1
_symmetry_cell_setting	triclinic
loop_
_symmetry_equiv_pos_as_xyz
  x,y,z
_cell_length_a	16.625546
_cell_length_b	16.959455
_cell_length_c	16.625539
_cell_angle_alpha	89.974728
_cell_angle_beta	90.028532
_cell_angle_gamma	89.982540
loop_
_atom_site_label
_atom_site_type_symbol
_atom_site_fract_x
_atom_site_fract_y
_atom_site_fract_z
Zn1	Zn	-0.321123	-1.208383	0.456074
Zn2	Zn	-0.455961	-1.208297	0.321237
Zn3	Zn	-0.321135	-1.076208	0.321236
Zn4	Zn	-0.455905	-1.076171	0.456007
O5	O	-0.388531	-1.142265	0.388638
O6	O	-0.339028	-1.318983	0.438216
O7	O	-0.438105	-1.190754	0.208404
O8	O	-0.208301	-1.093793	0.339150
O9	O	-0.438093	-1.318919	0.339152
O10	O	-0.208292	-1.190902	0.438215
O11	O	-0.339048	-1.093709	0.208403
O12	O	-0.338994	-0.965592	0.339085
O13	O	-0.437997	-1.093730	0.568849
O14	O	-0.438009	-0.965565	0.438101
O15	O	-0.338973	-1.190866	0.568898
O16	O	-0.568786	-1.190718	0.339087
O17	O	-0.568745	-1.093646	0.438102
C18	C	-0.388497	-0.936898	0.388586
C19	C	-0.388502	-0.849042	0.388582
C20	C	-0.440039	-0.477522	0.336990
C21	C	-0.337042	-0.477610	0.440307
C22	C	-0.337031	-0.560156	0.440292
C23	C	-0.388527	-0.601389	0.388627
C24	C	-0.440032	-0.560076	0.336976
C25	C	-0.285533	-0.601475	0.491948
C26	C	-0.285521	-0.684026	0.491936
C27	C	-0.337013	-0.725261	0.440266
C28	C	-0.388520	-0.683942	0.388612
C29	C	-0.440015	-0.725175	0.336946
C30	C	-0.491519	-0.683859	0.285288
C31	C	-0.491524	-0.601310	0.285305
C32	C	-0.337007	-0.807809	0.440248
C33	C	-0.440008	-0.807729	0.336932
C34	C	-0.598022	-1.142190	0.388605
C35	C	-0.687643	-1.142230	0.388617
C36	C	-1.015819	-1.142368	0.388701
C37	C	-0.924510	-1.142327	0.388680
C38	C	-0.851734	-1.142299	0.388659
C39	C	-0.760419	-1.142259	0.388638
C40	C	-0.178222	-1.142361	0.388690
C41	C	-0.088601	-1.142403	0.388712
C42	C	-0.388478	-1.142303	0.598947
C43	C	-0.388455	-1.142320	0.688569
C44	C	-0.388556	-0.348433	0.388677
C45	C	-0.388544	-0.436290	0.388656
C46	C	-0.388526	-1.142272	0.179148
C47	C	-0.388321	-1.142408	0.089527
C48	C	-0.388437	-1.142333	0.761351
C49	C	-0.388407	-1.142351	0.852660
C50	C	-0.388379	-1.142370	0.925436
C51	C	-0.388350	-1.142390	1.016750
H52	H	-0.481939	-0.841295	0.294856
H53	H	-0.533455	-0.567663	0.243248
C54	C	-0.229511	-0.728738	0.548044
C55	C	-0.184402	-0.674958	0.593278
C56	C	-0.132787	-0.716118	0.644962
H57	H	-0.260302	-0.760962	0.583186
H58	H	-0.194292	-0.760908	0.517271
H59	H	-0.219616	-0.642802	0.624048
H60	H	-0.153594	-0.642732	0.558157
H61	H	-0.097568	-0.748288	0.614189
H62	H	-0.163585	-0.748341	0.680099
H63	H	-0.102169	-0.679635	0.675654
C64	C	-0.229656	-0.556567	0.547950
C65	C	-0.240668	-0.475431	0.536885
C66	C	-0.189196	-0.434033	0.588452
H67	H	-0.241473	-0.570024	0.602136
H68	H	-0.175447	-0.570056	0.536236
H69	H	-0.294864	-0.461947	0.548604
H70	H	-0.228845	-0.461951	0.482710
H71	H	-0.134987	-0.447523	0.576739
H72	H	-0.201018	-0.447497	0.642635
H73	H	-0.196656	-0.378979	0.580947
H74	H	-0.533450	-0.717441	0.243226
C75	C	-0.495858	-0.432713	0.280774
C76	C	-0.478183	-0.452739	0.201025
C77	C	-0.529581	-0.411468	0.149216
H78	H	-0.550076	-0.446203	0.292369
H79	H	-0.488483	-0.377636	0.288122
H80	H	-0.485565	-0.507803	0.193680
H81	H	-0.423975	-0.439246	0.189404
H82	H	-0.522205	-0.356391	0.156565
H83	H	-0.583795	-0.424961	0.160819
H84	H	-0.517590	-0.425044	0.095101
H85	H	-0.295121	-0.444033	0.482375
H86	H	-0.295075	-0.841445	0.482309
