data_functionalizedCrystal
_audit_creation_method	'MofGen! by Chris Wilmer'
_symmetry_space_group_name_H-M	'P1'
_symmetry_Int_Tables_number	1
_symmetry_cell_setting	triclinic
loop_
_symmetry_equiv_pos_as_xyz
  x,y,z
_cell_length_a	10.654550
_cell_length_b	15.944551
_cell_length_c	9.130313
_cell_angle_alpha	89.997799
_cell_angle_beta	89.996220
_cell_angle_gamma	83.991820
loop_
_atom_site_label
_atom_site_type_symbol
_atom_site_fract_x
_atom_site_fract_y
_atom_site_fract_z
O1	O	1.666308	0.117973	-0.121923
O2	O	1.300684	0.129213	-0.121900
O3	O	1.493480	0.001376	-0.121899
O4	O	1.473511	0.245810	-0.121924
O5	O	1.493478	0.001379	0.121700
O6	O	1.300681	0.129216	0.121699
O7	O	1.666305	0.117976	0.121676
Cu8	Cu	1.483493	0.123596	0.143930
Cu9	Cu	1.483496	0.123592	-0.144154
O10	O	1.473509	0.245813	0.121675
C11	C	1.253895	0.128389	-0.000098
C12	C	1.114484	0.125920	-0.000088
C13	C	1.492650	-0.029921	-0.000099
C14	C	1.490165	-0.123182	-0.000098
C15	C	1.034024	0.201188	-0.000117
C16	C	0.903034	0.198863	-0.000142
C17	C	0.932975	0.045995	-0.000116
C18	C	1.063963	0.048321	-0.000080
C19	C	1.084545	0.278788	-0.000126
C20	C	1.004084	0.354062	-0.000156
C21	C	0.873094	0.351737	-0.000182
C22	C	0.822564	0.274137	-0.000176
C23	C	1.364720	-0.338765	-0.000111
C24	C	1.422971	-0.399443	0.119995
C25	C	1.485668	-0.293934	-0.000109
C26	C	1.423002	-0.399430	-0.120175
C27	C	1.481317	-0.458872	-0.000126
C28	C	1.543953	-0.353384	0.120095
C29	C	1.543967	-0.353364	-0.120182
C30	C	1.602306	-0.414024	-0.000048
C31	C	1.488172	-0.198917	-0.000098
C32	C	1.478822	-0.553887	-0.000127
C33	C	1.713094	0.118800	-0.000130
C34	C	1.852505	0.121269	-0.000149
C35	C	1.474339	0.277110	-0.000128
C36	C	1.476824	0.370371	-0.000139
N37	N	1.483500	0.123599	0.346552
N38	N	1.483499	0.123583	-0.346777
C39	C	1.568892	0.067012	0.423205
C40	C	1.568889	0.067002	0.576542
C41	C	1.398098	0.180173	0.576560
C42	C	1.398096	0.180178	0.423226
C43	C	1.654296	0.010433	0.346531
C44	C	1.739696	-0.046158	0.423184
C45	C	1.739693	-0.046168	0.576520
C46	C	1.654290	0.010412	0.653205
H47	H	1.045235	0.417241	-0.000149
H48	H	0.807585	0.413029	-0.000192
H49	H	0.715901	0.272250	-0.000174
H50	H	1.595080	-0.332939	-0.221733
C51	C	0.745470	-0.025444	-0.000177
C52	C	0.877434	-0.039299	-0.000130
H53	H	0.711186	-0.078103	-0.000200
H54	H	0.717837	0.005573	0.084758
H55	H	0.717891	0.005582	-0.085139
H56	H	0.905013	-0.070320	0.084838
H57	H	0.905078	-0.070329	-0.085074
C58	C	1.228688	-0.037738	-0.125253
C59	C	1.152421	-0.034412	-0.000053
H60	H	1.283304	-0.088813	-0.125224
H61	H	1.176989	-0.035479	-0.210200
H62	H	1.277510	0.008816	-0.125227
H63	H	1.103592	-0.080963	-0.000085
H64	H	1.204126	-0.036679	0.084916
H65	H	1.328567	0.226239	0.639006
H66	H	1.264327	-0.306038	0.000016
H67	H	1.371814	-0.419846	0.221540
C68	C	1.614592	-0.238309	0.256125
C69	C	1.612947	-0.326003	0.257328
H70	H	1.657176	-0.221406	0.340853
H71	H	1.657269	-0.222174	0.170949
H72	H	1.530443	-0.211874	0.255783
H73	H	1.697097	-0.352438	0.257660
H74	H	1.570272	-0.342146	0.342527
C75	C	1.264059	0.323731	-0.125322
C76	C	1.228530	0.281348	-0.000096
H77	H	1.352948	0.325315	-0.125298
H78	H	1.239979	0.294967	-0.210251
H79	H	1.223359	0.379663	-0.125327
H80	H	1.269223	0.225415	-0.000095
H81	H	1.252624	0.310112	0.084856
H82	H	1.702787	-0.446602	0.000014
C83	C	1.229545	-0.388585	-0.256996
C84	C	1.353926	-0.426945	-0.257252
H85	H	1.186900	-0.405566	-0.341623
H86	H	1.187408	-0.405133	-0.171717
H87	H	1.229975	-0.329038	-0.257500
H88	H	1.353496	-0.486492	-0.256738
H89	H	1.396074	-0.410403	-0.342554
C90	C	1.815468	-0.096442	0.188124
C91	C	1.833514	-0.108386	0.338898
H92	H	1.873379	-0.134868	0.136095
H93	H	1.731650	-0.106054	0.163037
H94	H	1.829159	-0.040307	0.162983
H95	H	1.819814	-0.164520	0.364040
H96	H	1.917352	-0.098781	0.363995
C97	C	1.908516	-0.158027	0.561093
C98	C	1.833559	-0.108372	0.660779
H99	H	1.966474	-0.196424	0.613112
H100	H	1.856249	-0.188566	0.501291
H101	H	1.953678	-0.122765	0.501285
H102	H	1.788390	-0.143633	0.720581
H103	H	1.885833	-0.077831	0.720606
H104	H	1.654309	0.010437	0.221677
H105	H	1.654286	0.010394	0.778062
H106	H	1.328561	0.226256	0.360815
