data_functionalizedCrystal
_audit_creation_method	'MofGen! by Chris Wilmer'
_symmetry_space_group_name_H-M	'P1'
_symmetry_Int_Tables_number	1
_symmetry_cell_setting	triclinic
loop_
_symmetry_equiv_pos_as_xyz
  x,y,z
_cell_length_a	16.625546
_cell_length_b	14.908792
_cell_length_c	14.908308
_cell_angle_alpha	90.212689
_cell_angle_beta	93.264070
_cell_angle_gamma	86.688905
loop_
_atom_site_label
_atom_site_type_symbol
_atom_site_fract_x
_atom_site_fract_y
_atom_site_fract_z
Zn1	Zn	-0.282062	-1.345300	-0.587853
Zn2	Zn	0.217938	-0.845300	-0.087853
Zn3	Zn	-0.408712	-1.353876	-0.437487
Zn4	Zn	0.091288	-0.853876	0.062513
Zn5	Zn	-0.281184	-1.203614	-0.428821
Zn6	Zn	0.218816	-0.703614	0.071179
Zn7	Zn	-0.424146	-1.194902	-0.579104
Zn8	Zn	0.075854	-0.694902	-0.079104
O9	O	-0.349026	-1.274423	-0.508316
O10	O	0.150974	-0.774423	-0.008316
O11	O	-0.292770	-1.472266	-0.575195
O12	O	0.207230	-0.972266	-0.075195
O13	O	-0.384969	-1.341179	-0.310515
O14	O	0.115031	-0.841179	0.189485
O15	O	-0.168467	-1.222466	-0.449951
O16	O	0.331533	-0.722466	0.050049
O17	O	-0.385820	-1.478566	-0.464722
O18	O	0.114180	-0.978566	0.035278
O19	O	-0.169112	-1.326563	-0.566791
O20	O	0.330888	-0.826563	-0.066791
O21	O	-0.291275	-1.230782	-0.304147
O22	O	0.208725	-0.730782	0.195853
O23	O	-0.306241	-1.076631	-0.441467
O24	O	0.193759	-0.576631	0.058533
O25	O	-0.412125	-1.207617	-0.706087
O26	O	0.087875	-0.707617	-0.206087
O27	O	-0.411274	-1.070230	-0.551880
O28	O	0.088726	-0.570230	-0.051880
O29	O	-0.307736	-1.318114	-0.712515
O30	O	0.192264	-0.818114	-0.212515
O31	O	-0.523593	-1.332731	-0.456239
O32	O	-0.023593	-0.832731	0.043761
O33	O	-0.534932	-1.215933	-0.560284
O34	O	-0.034932	-0.715933	-0.060284
C35	C	-0.360337	-1.040804	-0.494784
C36	C	0.139663	-0.540804	0.005216
C37	C	-0.365197	-0.940860	-0.489017
C38	C	0.134803	-0.440860	0.010983
C39	C	-0.420401	-0.803280	-0.423282
C40	C	0.079599	-0.303280	0.076718
C41	C	-0.415839	-0.897187	-0.428700
C42	C	0.084161	-0.397187	0.071300
C43	C	-0.319113	-0.890620	-0.543917
C44	C	0.180887	-0.390620	-0.043917
C45	C	-0.323676	-0.796714	-0.538498
C46	C	0.176324	-0.296714	-0.038498
C47	C	-0.374323	-0.753047	-0.478179
C48	C	0.125677	-0.253047	0.021821
C49	C	-0.378889	-0.659138	-0.472766
C50	C	0.121111	-0.159138	0.027234
C51	C	-0.282160	-0.652574	-0.587977
C52	C	0.217840	-0.152574	-0.087977
C53	C	-0.277597	-0.746480	-0.593395
C54	C	0.222403	-0.246480	-0.093395
C55	C	-0.558519	-1.274340	-0.508274
C56	C	-0.058519	-0.774340	-0.008274
C57	C	-0.648139	-1.274385	-0.508290
C58	C	-0.148139	-0.774385	-0.008290
C59	C	-0.976312	-1.274537	-0.508393
C60	C	-0.476312	-0.774537	-0.008393
C61	C	-0.885004	-1.274491	-0.508367
C62	C	-0.385004	-0.774491	-0.008367
C63	C	-0.812228	-1.274460	-0.508341
C64	C	-0.312228	-0.774460	-0.008341
C65	C	-0.720915	-1.274416	-0.508316
C66	C	-0.220915	-0.774416	-0.008316
C67	C	-0.138715	-1.274530	-0.508380
C68	C	0.361285	-0.774530	-0.008380
C69	C	-0.049093	-1.274575	-0.508407
C70	C	0.450907	-0.774575	-0.008407
C71	C	-0.361750	-1.260937	-0.742838
C72	C	0.138250	-0.760937	-0.242838
C73	C	-0.367172	-1.255190	-0.842777
C74	C	0.132828	-0.755190	-0.342777
C75	C	-0.337664	-0.508954	-0.521895
C76	C	0.162336	-0.008954	-0.021895
C77	C	-0.332805	-0.608898	-0.527665
C78	C	0.167195	-0.108898	-0.027665
C79	C	-0.268642	-1.359450	-1.037268
C80	C	0.231358	-0.859450	-0.537268
C81	C	-0.273734	-1.354053	-1.131170
C82	C	0.226266	-0.854053	-0.631170
C83	C	-0.382443	-1.238996	-1.124484
C84	C	0.117557	-0.738996	-0.624484
C85	C	-0.377351	-1.244393	-1.030582
C86	C	0.122649	-0.744393	-0.530582
C87	C	-0.320450	-1.304623	-0.986978
C88	C	0.179550	-0.804623	-0.486978
C89	C	-0.315363	-1.310023	-0.893074
C90	C	0.184637	-0.810023	-0.393074
C91	C	-0.424067	-1.194963	-0.886390
C92	C	0.075933	-0.694963	-0.386390
C93	C	-0.429159	-1.189566	-0.980292
C94	C	0.070841	-0.689566	-0.480292
C95	C	-0.336291	-1.287908	-0.274710
C96	C	0.163709	-0.787908	0.225290
C97	C	-0.330633	-1.293829	-0.174782
C98	C	0.169367	-0.793829	0.325218
H99	H	-0.453360	-0.938084	-0.383996
H100	H	0.046640	-0.438084	0.116004
H101	H	-0.222315	-1.408496	-1.001765
H102	H	0.277685	-0.908496	-0.501765
O103	O	-0.269982	-0.933187	-0.602479
O104	O	0.230018	-0.433187	-0.102479
C105	C	-0.275818	-1.026844	-0.595463
C106	C	0.224182	-0.526844	-0.095463
H107	H	-0.335778	-1.041341	-0.566633
H108	H	0.164222	-0.541341	-0.066633
H109	H	-0.272356	-1.058686	-0.664879
H110	H	0.227644	-0.558686	-0.164879
H111	H	-0.224040	-1.056238	-0.549207
H112	H	0.275960	-0.556238	-0.049207
O113	O	-0.260048	-1.368405	-0.850610
O114	O	0.239952	-0.868405	-0.350610
C115	C	-0.207496	-1.320350	-0.793362
C116	C	0.292504	-0.820350	-0.293362
H117	H	-0.238480	-1.253007	-0.775338
H118	H	0.261520	-0.753007	-0.275338
H119	H	-0.191328	-1.360775	-0.729455
H120	H	0.308672	-0.860775	-0.229455
H121	H	-0.150188	-1.308409	-0.828998
H122	H	0.349812	-0.808409	-0.328998
H123	H	-0.420131	-0.623586	-0.423654
H124	H	0.079869	-0.123586	0.076346
H125	H	-0.244641	-0.611663	-0.632680
H126	H	0.255359	-0.111663	-0.132680
H127	H	-0.231545	-1.398697	-1.172113
H128	H	0.268455	-0.898697	-0.672113
H129	H	-0.466254	-1.150320	-0.845434
H130	H	0.033746	-0.650320	-0.345434
H131	H	-0.428769	-1.189960	-1.160004
H132	H	0.071231	-0.689960	-0.660004
O133	O	-0.484511	-1.131189	-1.022702
O134	O	0.015489	-0.631189	-0.522702
C135	C	-0.537037	-1.179237	-1.079988
C136	C	-0.037037	-0.679237	-0.579988
H137	H	-0.537049	-1.251680	-1.055790
H138	H	-0.037049	-0.751680	-0.555790
H139	H	-0.600725	-1.146630	-1.079157
H140	H	-0.100725	-0.646630	-0.579157
H141	H	-0.515813	-1.178253	-1.151340
H142	H	-0.015813	-0.678253	-0.651340
O143	O	-0.228523	-0.788938	-0.652085
O144	O	0.271477	-0.288938	-0.152085
C145	C	-0.275018	-0.839941	-0.713181
C146	C	0.224982	-0.339941	-0.213181
H147	H	-0.340200	-0.811309	-0.716969
H148	H	0.159800	-0.311309	-0.216969
H149	H	-0.249661	-0.837051	-0.782500
H150	H	0.250339	-0.337051	-0.282500
H151	H	-0.272789	-0.912702	-0.689479
H152	H	0.227211	-0.412702	-0.189479
H153	H	-0.461647	-0.767726	-0.374175
H154	H	0.038353	-0.267726	0.125825
