data_functionalizedCrystal
_audit_creation_method	'MofGen! by Chris Wilmer'
_symmetry_space_group_name_H-M	'P1'
_symmetry_Int_Tables_number	1
_symmetry_cell_setting	triclinic
loop_
_symmetry_equiv_pos_as_xyz
  x,y,z
_cell_length_a	10.967874
_cell_length_b	12.996460
_cell_length_c	11.026660
_cell_angle_alpha	89.996622
_cell_angle_beta	96.379831
_cell_angle_gamma	102.134941
loop_
_atom_site_label
_atom_site_type_symbol
_atom_site_fract_x
_atom_site_fract_y
_atom_site_fract_z
O1	O	1.694027	0.385935	0.170488
O2	O	1.334390	0.322168	0.186815
O3	O	1.484404	0.348766	0.001752
O4	O	1.544013	0.359337	0.355551
O5	O	1.484382	0.177628	0.001762
O6	O	1.334368	0.151030	0.186826
O7	O	1.694005	0.214797	0.170499
Cu8	Cu	1.514184	0.167287	0.178663
Cu9	Cu	1.514211	0.369677	0.178651
O10	O	1.543991	0.188199	0.355562
C11	C	1.287622	0.228308	0.185633
C12	C	1.148298	0.203605	0.182081
N13	N	1.514175	0.024938	0.178671
C14	C	1.086195	0.281246	0.180492
C15	C	0.942197	0.255716	0.176821
C16	C	1.514181	-0.068166	0.178674
C17	C	1.514191	-0.184970	0.178666
C18	C	1.514203	-0.278066	0.178653
C19	C	1.514215	-0.394876	0.178646
C20	C	1.740773	0.308658	0.171681
C21	C	1.880097	0.333368	0.175232
C22	C	1.473396	0.261249	-0.043545
C23	C	1.440614	0.255442	-0.178531
N24	N	1.514228	0.512028	0.178633
C25	C	1.497262	0.265483	-0.391100
C26	C	1.531147	0.271493	-0.251585
C27	C	1.554999	0.275718	0.400859
C28	C	1.587781	0.281531	0.535844
H29	H	0.888765	0.170339	0.175471
H30	H	1.139633	0.366618	0.181856
H31	H	1.338023	0.237256	-0.219264
O32	O	0.944017	0.435167	0.176805
C33	C	1.145832	0.553431	0.182027
C34	C	1.073597	0.438101	0.180220
H35	H	1.250612	0.555841	0.184815
H36	H	1.112606	0.593585	0.096418
H37	H	1.127749	0.596253	0.266283
H38	H	1.091646	0.395189	0.096021
H39	H	1.106834	0.398027	0.265886
O40	O	1.084361	0.101811	0.180400
C41	C	0.882557	-0.016445	0.175328
C42	C	0.954802	0.098884	0.177202
H43	H	0.777798	-0.018849	0.172768
H44	H	0.900462	-0.059312	0.091025
H45	H	0.915948	-0.056559	0.260899
H46	H	0.921454	0.139088	0.091690
H47	H	0.936895	0.141673	0.261561
O48	O	1.710102	0.303177	-0.415364
C49	C	1.855402	0.329011	-0.231827
C50	C	1.716821	0.304463	-0.286916
H51	H	1.860880	0.330081	-0.127970
H52	H	1.903984	0.265988	-0.263283
H53	H	1.903942	0.409219	-0.263460
H54	H	1.668174	0.224285	-0.255309
H55	H	1.668334	0.367550	-0.255466
H56	H	1.394679	0.247299	-0.431840
O57	O	1.653474	0.293140	-0.202799
C58	C	1.798774	0.318974	-0.019262
C59	C	1.660193	0.294426	-0.074351
H60	H	1.804252	0.320044	0.084595
H61	H	1.847355	0.255951	-0.050717
H62	H	1.847314	0.399182	-0.050895
H63	H	1.611546	0.214248	-0.042744
H64	H	1.611706	0.357513	-0.042901
