data_functionalizedCrystal
_audit_creation_method	'MofGen! by Chris Wilmer'
_symmetry_space_group_name_H-M	'P1'
_symmetry_Int_Tables_number	1
_symmetry_cell_setting	triclinic
loop_
_symmetry_equiv_pos_as_xyz
  x,y,z
_cell_length_a	16.109301
_cell_length_b	27.732048
_cell_length_c	15.186229
_cell_angle_alpha	89.991324
_cell_angle_beta	89.999362
_cell_angle_gamma	83.052068
loop_
_atom_site_label
_atom_site_type_symbol
_atom_site_fract_x
_atom_site_fract_y
_atom_site_fract_z
O1	O	1.102361	0.062130	-0.073183
O2	O	1.602361	0.562130	0.426817
O3	O	0.860204	0.069862	-0.073198
O4	O	1.360204	0.569862	0.426802
O5	O	0.988803	-0.004369	-0.073173
O6	O	1.488803	0.495631	0.426827
O7	O	0.973762	0.136361	-0.073208
O8	O	1.473762	0.636361	0.426792
O9	O	0.988795	-0.004370	0.073284
O10	O	1.488795	0.495630	0.573284
O11	O	0.860195	0.069861	0.073259
O12	O	1.360195	0.569861	0.573259
O13	O	1.102353	0.062129	0.073275
O14	O	1.602353	0.562129	0.573275
Zn15	Zn	0.981273	0.065995	0.096520
Zn16	Zn	1.481273	0.565995	0.596520
Zn17	Zn	0.981284	0.065996	-0.096444
Zn18	Zn	1.481284	0.565996	0.403556
O19	O	0.973753	0.136360	0.073250
O20	O	1.473753	0.636360	0.573250
C21	C	0.829228	0.069548	0.000029
C22	C	1.329228	0.569548	0.500029
C23	C	0.736945	0.068609	0.000024
C24	C	1.236945	0.568609	0.500024
C25	C	0.514154	0.110473	0.000024
C26	C	1.014154	0.610473	0.500024
C27	C	0.427445	0.109587	0.000030
C28	C	0.927445	0.609587	0.500030
C29	C	0.448409	0.021514	0.000048
C30	C	0.948409	0.521514	0.500048
C31	C	0.535117	0.022401	0.000048
C32	C	1.035117	0.522401	0.500048
C33	C	0.567987	0.066882	0.000032
C34	C	1.067987	0.566882	0.500032
C35	C	0.394570	0.065109	0.000037
C36	C	0.894570	0.565109	0.500037
C37	C	0.300556	0.064148	0.000044
C38	C	0.800556	0.564148	0.500044
C39	C	0.662007	0.067843	0.000027
C40	C	1.162007	0.567843	0.500027
C41	C	0.988483	-0.022378	0.000058
C42	C	1.488483	0.477622	0.500058
C43	C	0.987533	-0.076037	0.000065
C44	C	1.487533	0.423963	0.500065
C45	C	1.057541	-0.414559	0.000024
C46	C	1.557541	0.085441	0.500024
C47	C	1.054013	-0.616233	0.000012
C48	C	1.554013	-0.116233	0.500012
O49	O	1.118031	-0.647221	-0.000023
O50	O	1.618031	-0.147221	0.499977
N51	N	0.977759	-0.635676	0.000008
N52	N	1.477759	-0.135676	0.500008
C53	C	0.902381	-0.604697	0.000001
C54	C	1.402381	-0.104697	0.500001
O55	O	0.837441	-0.625862	-0.000011
O56	O	1.337441	-0.125862	0.499989
C57	C	0.905910	-0.403024	0.000008
C58	C	1.405910	0.096976	0.500008
C59	C	0.982169	-0.383584	0.000020
C60	C	1.482169	0.116416	0.500020
C61	C	1.133794	-0.395119	0.000036
C62	C	1.633794	0.104881	0.500036
C63	C	1.134675	-0.344703	0.000044
C64	C	1.634675	0.155297	0.500044
C65	C	1.059303	-0.313728	0.000040
C66	C	1.559303	0.186272	0.500040
C67	C	0.983050	-0.333168	0.000028
C68	C	1.483050	0.166832	0.500028
C69	C	0.830533	-0.372045	-0.000005
C70	C	1.330533	0.127955	0.499995
C71	C	0.831422	-0.321624	-0.000006
C72	C	1.331422	0.178376	0.499994
C73	C	0.907681	-0.302184	0.000007
C74	C	1.407681	0.197816	0.500007
C75	C	0.908559	-0.251777	0.000032
C76	C	1.408559	0.248223	0.500032
N77	N	0.984814	-0.232334	0.000036
N78	N	1.484814	0.267666	0.500036
C79	C	1.060186	-0.263310	0.000040
C80	C	1.560186	0.236690	0.500040
C81	C	0.900534	-0.710579	-0.000000
C82	C	1.400534	-0.210579	0.500000
C83	C	0.899652	-0.760997	-0.000000
C84	C	1.399652	-0.260997	0.500000
C85	C	1.051284	-0.772530	0.000009
C86	C	1.551284	-0.272530	0.500009
C87	C	1.052166	-0.722111	0.000015
C88	C	1.552166	-0.222111	0.500015
C89	C	0.976789	-0.691136	0.000004
C90	C	1.476789	-0.191136	0.500004
C91	C	1.062030	-0.157433	0.000058
C92	C	1.562030	0.342567	0.500058
C93	C	1.062905	-0.107012	0.000069
C94	C	1.562905	0.392988	0.500069
C95	C	0.911273	-0.095484	0.000056
C96	C	1.411273	0.404516	0.500056
C97	C	0.910398	-0.145900	0.000049
C98	C	1.410398	0.354100	0.500049
C99	C	0.985783	-0.176874	0.000047
C100	C	1.485783	0.323126	0.500047
O101	O	0.844576	-0.220761	0.000057
O102	O	1.344576	0.279239	0.500057
O103	O	1.125116	-0.242135	0.000033
O104	O	1.625116	0.257865	0.500033
C105	C	1.056660	-0.464975	0.000016
C106	C	1.556660	0.035025	0.500016
C107	C	0.980407	-0.484415	0.000005
C108	C	1.480407	0.015585	0.500005
C109	C	0.905035	-0.453440	0.000001
C110	C	1.405035	0.046560	0.500001
C111	C	0.979525	-0.534833	0.000005
C112	C	1.479525	-0.034833	0.500005
C113	C	1.054897	-0.565808	0.000009
C114	C	1.554897	-0.065808	0.500009
C115	C	1.131151	-0.546365	0.000013
C116	C	1.631151	-0.046365	0.500013
C117	C	1.132032	-0.495950	0.000020
C118	C	1.632032	0.004050	0.500020
C119	C	0.828781	-0.472883	-0.000003
C120	C	1.328781	0.027117	0.499997
C121	C	0.827906	-0.523299	-0.000010
C122	C	1.327906	-0.023299	0.499990
C123	C	0.903278	-0.554274	-0.000006
C124	C	1.403278	-0.054274	0.499994
C125	C	1.133328	0.062443	0.000046
C126	C	1.633328	0.562443	0.500046
C127	C	1.225612	0.063382	0.000045
C128	C	1.725612	0.563382	0.500045
C129	C	0.974073	0.154369	0.000017
C130	C	1.474073	0.654369	0.500017
C131	C	0.975024	0.208028	0.000004
C132	C	1.475024	0.708028	0.500004
N133	N	0.981271	0.065994	0.228213
N134	N	1.481271	0.565994	0.728213
N135	N	0.981292	0.065994	-0.228136
N136	N	1.481292	0.565994	0.271864
C137	C	1.038234	0.033135	0.453947
C138	C	1.538234	0.533135	0.953947
C139	C	1.038237	0.033134	0.546136
C140	C	1.538237	0.533134	1.046136
C141	C	0.924323	0.098854	0.546124
C142	C	1.424323	0.598854	1.046124
C143	C	0.924317	0.098852	0.453936
C144	C	1.424317	0.598852	0.953936
C145	C	0.981277	0.065993	0.407850
C146	C	1.481277	0.565993	0.907850
C147	C	0.981286	0.065994	0.592227
C148	C	1.481286	0.565994	1.092227
C149	C	0.981288	0.065993	0.692183
C150	C	1.481288	0.565993	1.192183
C151	C	0.981274	0.065994	0.307887
C152	C	1.481274	0.565994	0.807887
H153	H	1.125007	-0.091187	0.000082
H154	H	1.625007	0.408813	0.500082
C155	C	0.439588	-0.053824	-0.075228
C156	C	0.939588	0.446176	0.424772
C157	C	0.412277	-0.027378	0.000054
C158	C	0.912277	0.472622	0.500054
H159	H	0.417285	-0.084010	-0.075222
H160	H	0.917285	0.415990	0.424778
H161	H	0.421069	-0.035874	-0.126294
H162	H	0.921069	0.464126	0.373706
H163	H	0.498933	-0.059531	-0.075214
H164	H	0.998933	0.440469	0.424786
H165	H	0.352931	-0.021668	0.000037
H166	H	0.852931	0.478332	0.500037
H167	H	0.430791	-0.045332	0.051133
H168	H	0.930791	0.454668	0.551133
H169	H	0.877932	0.125610	0.416401
H170	H	1.377932	0.625610	0.916401
H171	H	0.578951	-0.013099	0.000057
H172	H	1.078951	0.486901	0.500057
H173	H	1.123416	-0.182646	0.000053
H174	H	1.623416	0.317354	0.500053
H175	H	1.196773	-0.328880	0.000051
H176	H	1.696773	0.171120	0.500051
H177	H	1.084613	0.006379	0.416426
H178	H	1.584613	0.506379	0.916426
H179	H	1.084615	0.006377	0.583666
H180	H	1.584615	0.506377	1.083666
C181	C	0.741575	-0.422032	-0.075324
C182	C	1.241575	0.077968	0.424676
C183	C	0.746705	-0.393404	-0.000030
C184	C	1.246705	0.106596	0.499970
H185	H	0.689821	-0.435218	-0.075337
H186	H	1.189821	0.064782	0.424663
H187	H	0.745087	-0.402597	-0.126382
H188	H	1.245087	0.097403	0.373618
H189	H	0.786332	-0.447700	-0.075306
H190	H	1.286332	0.052300	0.424694
H191	H	0.701951	-0.367734	-0.000051
H192	H	1.201951	0.132266	0.499949
H193	H	0.743184	-0.412840	0.051041
H194	H	1.243184	0.087160	0.551041
H195	H	0.383617	0.145084	0.000025
H196	H	0.883617	0.645084	0.500025
H197	H	0.877948	0.125607	0.583656
H198	H	1.377948	0.625607	1.083656
C199	C	1.283758	-0.401440	0.000061
C200	C	1.783758	0.098560	0.500061
C201	C	1.216653	-0.429162	0.000048
C202	C	1.716653	0.070838	0.500048
H203	H	1.334915	-0.422456	0.000079
H204	H	1.834915	0.077544	0.500079
H205	H	1.280950	-0.381535	-0.051012
H206	H	1.780950	0.118465	0.448988
H207	H	1.280925	-0.381535	0.051134
H208	H	1.780925	0.118465	0.551134
H209	H	1.219483	-0.449064	-0.051029
H210	H	1.719483	0.050936	0.448971
H211	H	1.219463	-0.449075	0.051126
H212	H	1.719463	0.050925	0.551126
H213	H	0.765802	-0.539121	-0.000013
H214	H	1.265802	-0.039121	0.499987
C215	C	1.197112	-0.628777	-0.000002
C216	C	1.697112	-0.128777	0.499998
C217	C	1.214002	-0.580420	0.000011
C218	C	1.714002	-0.080420	0.500011
H219	H	1.248258	-0.649802	-0.000013
H220	H	1.748258	-0.149802	0.499987
H221	H	1.165822	-0.634672	0.051068
H222	H	1.665822	-0.134672	0.551068
H223	H	1.165812	-0.634654	-0.051079
H224	H	1.665812	-0.134654	0.448921
H225	H	1.245297	-0.574542	0.051091
H226	H	1.745297	-0.074542	0.551091
H227	H	1.245305	-0.574523	-0.051064
H228	H	1.745305	-0.074523	0.448936
H229	H	1.114263	-0.706287	0.000025
H230	H	1.614263	-0.206287	0.500025
C231	C	0.760604	-0.129433	0.000031
C232	C	1.260604	0.370567	0.500031
C233	C	0.826574	-0.167271	0.000033
C234	C	1.326574	0.332729	0.500033
H235	H	0.708855	-0.142625	0.000008
H236	H	1.208855	0.357375	0.500008
H237	H	0.764094	-0.110020	0.051110
H238	H	1.264094	0.389980	0.551110
H239	H	0.764118	-0.109998	-0.051036
H240	H	1.264118	0.390002	0.448964
H241	H	0.823063	-0.186705	0.051105
H242	H	1.323063	0.313295	0.551105
H243	H	0.823082	-0.186693	-0.051051
H244	H	1.323082	0.313307	0.448949
H245	H	0.767402	-0.447667	-0.000009
H246	H	1.267402	0.052333	0.499991
H247	H	1.112655	-0.797759	0.000012
H248	H	1.612655	-0.297759	0.500012
C249	C	0.749861	-0.744521	-0.000016
C250	C	1.249861	-0.244521	0.499984
C251	C	0.815825	-0.782362	-0.000007
C252	C	1.315825	-0.282362	0.499993
H253	H	0.698110	-0.757710	-0.000030
H254	H	1.198110	-0.257710	0.499970
H255	H	0.753357	-0.725102	0.051055
H256	H	1.253357	-0.225102	0.551055
H257	H	0.753375	-0.725091	-0.051091
H258	H	1.253375	-0.225091	0.448909
H259	H	0.812315	-0.801790	0.051071
H260	H	1.312315	-0.301790	0.551071
H261	H	0.812328	-0.801788	-0.051084
H262	H	1.312328	-0.301788	0.448916
C263	C	0.813536	-0.647190	-0.075297
C264	C	1.313536	-0.147190	0.424703
C265	C	0.817670	-0.676536	-0.000008
C266	C	1.317670	-0.176536	0.499992
H267	H	0.762375	-0.626178	-0.075300
H268	H	1.262375	-0.126178	0.424700
H269	H	0.859062	-0.628391	-0.075289
H270	H	1.359062	-0.128391	0.424711
H271	H	0.816353	-0.667099	-0.126364
H272	H	1.316353	-0.167099	0.373636
H273	H	0.814859	-0.656626	0.051059
H274	H	1.314859	-0.156626	0.551059
H275	H	0.772131	-0.695337	-0.000008
H276	H	1.272131	-0.195337	0.499992
C277	C	0.845313	-0.013072	0.000047
C278	C	1.345313	0.486928	0.500047
C279	C	0.828426	-0.061429	0.000046
C280	C	1.328426	0.438571	0.500046
H281	H	0.794166	0.007952	0.000031
H282	H	1.294166	0.507952	0.500031
H283	H	0.876595	-0.007188	0.051123
H284	H	1.376595	0.492812	0.551123
H285	H	0.876621	-0.007183	-0.051023
H286	H	1.376621	0.492817	0.448977
H287	H	0.797124	-0.067319	0.051119
H288	H	1.297124	0.432681	0.551119
H289	H	0.797131	-0.067315	-0.051036
H290	H	1.297131	0.432685	0.448964
C291	C	0.681449	-0.315293	-0.000025
C292	C	1.181449	0.184707	0.499975
C293	C	0.748562	-0.287577	-0.000015
C294	C	1.248562	0.212423	0.499985
H295	H	0.630297	-0.294273	-0.000024
H296	H	1.130297	0.205727	0.499976
H297	H	0.684267	-0.335191	-0.051097
H298	H	1.184267	0.164809	0.448903
H299	H	0.684262	-0.335205	0.051049
H300	H	1.184262	0.164795	0.551049
H301	H	0.745753	-0.267668	-0.051093
H302	H	1.245753	0.232332	0.448907
H303	H	0.745743	-0.267671	0.051062
H304	H	1.245743	0.232329	0.551062
H305	H	1.194130	-0.480127	0.000031
H306	H	1.694130	0.019873	0.500031
H307	H	0.540913	0.146692	0.000017
H308	H	1.040913	0.646692	0.500017
