data_functionalizedCrystal
_audit_creation_method	'MofGen! by Chris Wilmer'
_symmetry_space_group_name_H-M	'P1'
_symmetry_Int_Tables_number	1
_symmetry_cell_setting	triclinic
loop_
_symmetry_equiv_pos_as_xyz
  x,y,z
_cell_length_a	19.188930
_cell_length_b	19.288864
_cell_length_c	17.766277
_cell_angle_alpha	89.976755
_cell_angle_beta	90.010343
_cell_angle_gamma	96.859488
loop_
_atom_site_label
_atom_site_type_symbol
_atom_site_fract_x
_atom_site_fract_y
_atom_site_fract_z
O1	O	0.087098	-0.921360	0.062844
O2	O	0.587098	-0.421360	0.562844
O3	O	0.098848	-0.719100	0.062794
O4	O	0.598848	-0.219100	0.562794
O5	O	-0.008683	-0.826067	0.062806
O6	O	0.491317	-0.326067	0.562806
O7	O	0.194629	-0.814393	0.062832
O8	O	0.694629	-0.314393	0.562832
O9	O	-0.008686	-0.826048	-0.062383
O10	O	0.491314	-0.326048	0.437617
O11	O	0.098844	-0.719081	-0.062395
O12	O	0.598844	-0.219081	0.437605
O13	O	0.087095	-0.921341	-0.062345
O14	O	0.587095	-0.421341	0.437655
Cu15	Cu	0.092969	-0.820209	-0.073800
Cu16	Cu	0.592969	-0.320209	0.426200
Cu17	Cu	0.092973	-0.820232	0.074250
Cu18	Cu	0.592973	-0.320232	0.574250
O19	O	0.194626	-0.814374	-0.062356
O20	O	0.694626	-0.314374	0.437644
C21	C	0.098468	-0.693214	0.000193
C22	C	0.598468	-0.193214	0.500193
C23	C	0.097333	-0.616110	0.000173
C24	C	0.597333	-0.116110	0.500173
C25	C	-0.034696	-0.825679	0.000209
C26	C	0.465304	-0.325679	0.500209
C27	C	-0.112200	-0.824544	0.000202
C28	C	0.387800	-0.324544	0.500202
C29	C	0.087475	-0.947227	0.000258
C30	C	0.587475	-0.447227	0.500258
C31	C	0.088609	-1.024330	0.000283
C32	C	0.588609	-0.524330	0.500283
C33	C	-0.157129	-0.887309	0.000214
C34	C	0.342871	-0.387309	0.500214
C35	C	-0.229953	-0.886243	0.000226
C36	C	0.270047	-0.386243	0.500226
C37	C	-0.257844	-0.822408	0.000211
C38	C	0.242156	-0.322408	0.500211
C39	C	-0.212906	-0.759636	0.000203
C40	C	0.287094	-0.259636	0.500203
C41	C	-0.140084	-0.760704	0.000199
C42	C	0.359916	-0.260704	0.500199
N43	N	-0.365847	-0.773608	-0.042405
N44	N	0.134153	-0.273608	0.457595
N45	N	-0.435025	-0.772598	-0.042403
N46	N	0.064975	-0.272598	0.457597
C47	C	-0.477253	-0.819187	0.000225
C48	C	0.022747	-0.319187	0.500225
N49	N	-0.447690	-0.866835	0.042841
N50	N	0.052310	-0.366835	0.542841
N51	N	-0.378505	-0.867847	0.042836
N52	N	0.121495	-0.367847	0.542836
C53	C	-0.336807	-0.821243	0.000216
C54	C	0.163193	-0.321243	0.500216
C55	C	-0.601146	-0.880800	0.000251
C56	C	-0.101146	-0.380800	0.500251
C57	C	-0.673971	-0.879731	0.000268
C58	C	-0.173971	-0.379731	0.500268
C59	C	-0.656922	-0.753122	0.000237
C60	C	-0.156922	-0.253122	0.500237
C61	C	-0.584099	-0.754193	0.000228
C62	C	-0.084099	-0.254193	0.500228
C63	C	-0.556216	-0.818034	0.000231
C64	C	-0.056216	-0.318034	0.500231
C65	C	0.220638	-0.814762	0.000242
C66	C	0.720638	-0.314762	0.500242
C67	C	0.298143	-0.815896	0.000253
C68	C	0.798143	-0.315896	0.500253
N69	N	0.092966	-0.820198	-0.177931
N70	N	0.592966	-0.320198	0.322069
C71	C	0.160427	-0.571419	0.000193
C72	C	0.660427	-0.071419	0.500193
C73	C	0.159361	-0.498972	0.000201
C74	C	0.659361	0.001028	0.500201
C75	C	0.095197	-0.471219	0.000204
C76	C	0.595197	0.028781	0.500204
C77	C	0.032095	-0.515921	0.000180
C78	C	0.532095	-0.015921	0.500180
C79	C	0.033163	-0.588366	0.000164
C80	C	0.533163	-0.088366	0.500164
C81	C	0.044758	-0.362960	0.044082
C82	C	0.544758	0.137040	0.544082
C83	C	0.043693	-0.290516	0.044103
C84	C	0.543693	0.209484	0.544103
C85	C	0.091900	-0.247773	0.000249
C86	C	0.591900	0.252227	0.500249
C87	C	0.141185	-0.277483	-0.043614
C88	C	0.641185	0.222517	0.456386
C89	C	0.142253	-0.349929	-0.043630
C90	C	0.642253	0.150071	0.456370
C91	C	0.094032	-0.392665	0.000221
C92	C	0.594032	0.107335	0.500221
C93	C	0.153843	-0.124526	0.000277
C94	C	0.653843	0.375474	0.500277
C95	C	0.152774	-0.052078	0.000281
C96	C	0.652774	0.447922	0.500281
C97	C	0.025506	-0.069028	0.000267
C98	C	0.525506	0.430972	0.500267
C99	C	0.026576	-0.141475	0.000256
C100	C	0.526576	0.358525	0.500256
C101	C	0.090747	-0.169219	0.000265
C102	C	0.590747	0.330781	0.500265
C103	C	0.135209	-0.862189	-0.217294
C104	C	0.635209	-0.362189	0.282706
C105	C	0.135207	-0.862200	-0.296096
C106	C	0.635207	-0.362200	0.203904
C107	C	0.092971	-0.820207	-0.335531
C108	C	0.592971	-0.320207	0.164469
C109	C	0.050720	-0.778214	-0.296158
C110	C	0.550720	-0.278214	0.203842
C111	C	0.050718	-0.778210	-0.217358
C112	C	0.550718	-0.278210	0.282642
C113	C	0.091205	-0.757595	-0.460407
C114	C	0.591205	-0.257595	0.039593
C115	C	0.091212	-0.757598	-0.539206
C116	C	0.591212	-0.257598	-0.039206
C117	C	0.092973	-0.820222	-0.578578
C118	C	0.592973	-0.320222	-0.078578
C119	C	0.094741	-0.882844	-0.539141
C120	C	0.594741	-0.382844	-0.039141
C121	C	0.094739	-0.882839	-0.460341
C122	C	0.594739	-0.382839	0.039659
C123	C	0.092968	-0.820208	-0.420977
C124	C	0.592968	-0.320208	0.079023
C125	C	0.135215	-0.862228	-0.703387
C126	C	0.635215	-0.362228	-0.203387
C127	C	0.135208	-0.862240	-0.782191
C128	C	0.635208	-0.362240	-0.282191
C129	C	0.050725	-0.778248	-0.782251
C130	C	0.550725	-0.278248	-0.282251
C131	C	0.050728	-0.778242	-0.703449
C132	C	0.550728	-0.278242	-0.203449
C133	C	0.092977	-0.820231	-0.664022
C134	C	0.592977	-0.320231	-0.164022
N135	N	0.092971	-0.820248	0.178380
N136	N	0.592971	-0.320248	0.678380
H137	H	-0.134431	-0.939293	0.000220
H138	H	0.365569	-0.439293	0.500220
Br139	Br	-0.006608	-0.721268	-0.835761
Br140	Br	0.493392	-0.221268	-0.335761
Br141	Br	-0.734948	-0.964920	0.000292
Br142	Br	-0.234948	-0.464920	0.500292
Br143	Br	-0.523120	-0.669008	0.000211
Br144	Br	-0.023120	-0.169008	0.500211
Br145	Br	0.247515	-0.609069	0.000203
Br146	Br	0.747515	-0.109069	0.500203
Br147	Br	-0.023184	-0.250201	0.103641
Br148	Br	0.476816	0.249799	0.603641
Br149	Br	-0.694767	-0.666488	0.000224
Br150	Br	-0.194767	-0.166488	0.500224
Br151	Br	0.088821	-0.672611	-0.592719
Br152	Br	0.588821	-0.172611	-0.092719
H153	H	0.204155	-0.015690	0.000293
H154	H	0.704155	0.484310	0.500293
Br155	Br	0.244995	-0.438307	0.000224
Br156	Br	0.744995	0.061693	0.500224
Br157	Br	0.240929	-0.162183	0.000283
Br158	Br	0.740929	0.337817	0.500283
Br159	Br	-0.250757	-0.673003	0.000192
Br160	Br	0.249243	-0.173003	0.500192
H161	H	0.089775	-0.706594	-0.428357
H162	H	0.589775	-0.206594	0.071643
H163	H	0.182381	-0.374115	-0.079348
H164	H	0.682381	0.125885	0.420652
Br165	Br	-0.020674	-0.420961	0.103600
Br166	Br	0.479326	0.079039	0.603600
H167	H	0.169616	-0.896418	-0.671284
H168	H	0.669616	-0.396418	-0.171284
Br169	Br	-0.563299	-0.967438	0.000248
Br170	Br	-0.063299	-0.467438	0.500248
Br171	Br	-0.006613	-0.721215	-0.163932
Br172	Br	0.493387	-0.221215	0.336068
H173	H	-0.103502	-0.709591	0.000189
H174	H	0.396498	-0.209591	0.500189
Br175	Br	0.192537	-0.919238	-0.835615
Br176	Br	0.692537	-0.419238	-0.335615
H177	H	-0.020148	-0.493320	0.000193
H178	H	0.479852	0.006680	0.500193
Br179	Br	0.097140	-0.967821	-0.406821
Br180	Br	0.597140	-0.467821	0.093179
Br181	Br	0.206617	-0.219485	-0.103131
Br182	Br	0.706617	0.280515	0.396869
Br183	Br	-0.006606	-0.721228	-0.349675
Br184	Br	0.493394	-0.221228	0.150325
Br185	Br	-0.061576	-0.031373	0.000259
Br186	Br	0.438424	0.468627	0.500259
Br187	Br	-0.290939	-0.971429	0.000246
Br188	Br	0.209061	-0.471429	0.500246
Br189	Br	-0.059056	-0.202132	0.000231
Br190	Br	0.440944	0.297868	0.500231
H191	H	-0.018218	-0.624755	0.000148
H192	H	0.481782	-0.124755	0.500148
Br193	Br	0.097134	-0.967839	-0.592564
Br194	Br	0.597134	-0.467839	-0.092564
Br195	Br	0.192563	-0.919156	-0.163790
Br196	Br	0.692563	-0.419156	0.336210
H197	H	0.169607	-0.896394	-0.328152
H198	H	0.669607	-0.396394	0.171848
Br199	Br	-0.006591	-0.721238	-0.650023
Br200	Br	0.493409	-0.221238	-0.150023
