data_functionalizedCrystal
_audit_creation_method	'MofGen! by Chris Wilmer'
_symmetry_space_group_name_H-M	'P1'
_symmetry_Int_Tables_number	1
_symmetry_cell_setting	triclinic
loop_
_symmetry_equiv_pos_as_xyz
  x,y,z
_cell_length_a	10.723023
_cell_length_b	10.723024
_cell_length_c	9.198806
_cell_angle_alpha	89.997988
_cell_angle_beta	89.995565
_cell_angle_gamma	84.467709
loop_
_atom_site_label
_atom_site_type_symbol
_atom_site_fract_x
_atom_site_fract_y
_atom_site_fract_z
O1	O	-1.657188	-0.175020	0.120906
O2	O	-1.294036	-0.191774	0.120904
O3	O	-1.483989	-0.001821	0.120900
O4	O	-1.467235	-0.364973	0.120910
O5	O	-1.483974	-0.001820	-0.120885
O6	O	-1.294021	-0.191774	-0.120881
O7	O	-1.657173	-0.175019	-0.120879
Cu8	Cu	-1.475596	-0.183396	-0.142957
Cu9	Cu	-1.475613	-0.183397	0.142982
O10	O	-1.467220	-0.364973	-0.120875
C11	C	-1.247529	-0.190555	0.000012
C12	C	-1.108974	-0.186908	0.000011
C13	C	-1.482762	0.044679	0.000009
C14	C	-1.479114	0.183233	0.000014
N15	N	-1.475592	-0.183395	-0.344071
C16	C	-0.903998	-0.181512	-0.125238
C17	C	-1.047202	-0.185281	-0.125240
C18	C	-0.703680	-0.176239	0.000013
C19	C	-0.842235	-0.179886	0.000014
C20	C	-1.468447	-0.411473	0.000019
C21	C	-1.472095	-0.550027	0.000024
C22	C	-1.585402	0.258216	0.000016
C23	C	-1.581634	0.401420	0.000022
C24	C	-1.555348	-0.103288	-0.416270
C25	C	-1.555367	-0.103283	-0.583682
N26	N	-1.475627	-0.183388	0.344096
H27	H	-0.850859	-0.180119	-0.232468
H28	H	-1.623654	-0.034704	-0.645770
H29	H	-1.055867	-0.185506	0.107249
C30	C	-1.383361	-0.276049	-0.427986
C31	C	-1.433310	-0.371680	-0.532647
C32	C	-1.341075	-0.464337	-0.616557
C33	C	-1.198892	-0.461362	-0.595806
C34	C	-1.148936	-0.365726	-0.491140
C35	C	-1.241170	-0.273070	-0.407230
H36	H	-1.538569	-0.373886	-0.548012
H37	H	-1.378056	-0.535132	-0.694037
H38	H	-1.130614	-0.529952	-0.657921
H39	H	-1.043677	-0.363521	-0.475775
H40	H	-1.204189	-0.202274	-0.329750
H41	H	-1.100318	-0.186674	-0.232473
H42	H	-0.895373	-0.181292	0.107244
H43	H	-1.679188	0.216394	0.000008
C44	C	-1.704566	0.488454	0.000024
C45	C	-1.798732	0.482150	-0.125529
C46	C	-1.921668	0.569188	-0.125526
C47	C	-1.950438	0.662528	0.000030
C48	C	-1.856268	0.668836	0.125592
C49	C	-1.733333	0.581798	0.125589
H50	H	-1.777438	0.413050	-0.218481
H51	H	-1.991378	0.564518	-0.218476
H52	H	-2.041442	0.726959	0.000032
H53	H	-1.877563	0.737935	0.218544
H54	H	-1.663623	0.586468	0.218540
H55	H	-1.381099	0.385548	0.000012
H56	H	-1.407346	-0.251980	-0.593826
H57	H	-1.385328	0.225055	0.000023
C58	C	-1.647580	-0.010633	-0.332359
C59	C	-1.647314	-0.010648	-0.164953
C60	C	-1.739550	0.082010	-0.081048
C61	C	-1.832053	0.174683	-0.164547
C62	C	-1.832323	0.174702	-0.331962
C63	C	-1.740087	0.082044	-0.415868
H64	H	-1.578835	-0.079254	-0.103133
H65	H	-1.739350	0.081995	0.042884
H66	H	-1.900332	0.243275	-0.102436
H67	H	-1.900802	0.243308	-0.393782
H68	H	-1.740287	0.082058	-0.539799
