data_functionalizedCrystal
_audit_creation_method	'MofGen! by Chris Wilmer'
_symmetry_space_group_name_H-M	'P1'
_symmetry_Int_Tables_number	1
_symmetry_cell_setting	triclinic
loop_
_symmetry_equiv_pos_as_xyz
  x,y,z
_cell_length_a	14.519731
_cell_length_b	17.699083
_cell_length_c	16.176319
_cell_angle_alpha	90.007696
_cell_angle_beta	89.992702
_cell_angle_gamma	96.514066
loop_
_atom_site_label
_atom_site_type_symbol
_atom_site_fract_x
_atom_site_fract_y
_atom_site_fract_z
O1	O	1.223437	-0.099292	-0.068746
O2	O	0.954913	-0.110959	-0.068748
O3	O	1.096762	0.005041	-0.068740
O4	O	1.081589	-0.215293	-0.068755
O5	O	1.096742	0.005049	0.068753
O6	O	0.954894	-0.110952	0.068745
O7	O	1.223418	-0.099285	0.068747
Cu8	Cu	1.089154	-0.105118	0.081300
Cu9	Cu	1.089177	-0.105126	-0.081301
O10	O	1.081569	-0.215285	0.068739
C11	C	1.096208	0.033244	0.000007
C12	C	1.094577	0.117266	0.000007
C13	C	0.920546	-0.110409	-0.000002
C14	C	0.818173	-0.108771	-0.000003
C15	C	1.257784	-0.099835	-0.000001
C16	C	1.360158	-0.101473	-0.000006
C17	C	1.443296	-0.102804	-0.000008
C18	C	1.547598	-0.104468	-0.000006
C19	C	1.630731	-0.105788	-0.000004
C20	C	1.735040	-0.107451	-0.000004
C21	C	1.082123	-0.243488	-0.000010
C22	C	1.083754	-0.327510	-0.000016
N23	N	1.089144	-0.105111	0.195665
C24	C	1.177839	0.165644	0.000009
C25	C	1.176301	0.244592	0.000002
C26	C	1.091500	0.275161	-0.000002
C27	C	1.008232	0.226777	-0.000006
C28	C	1.009771	0.147831	-0.000005
C29	C	1.002023	0.545158	-0.000013
C30	C	1.000491	0.624111	-0.000012
C31	C	1.168554	0.641919	-0.000006
C32	C	1.170093	0.562973	-0.000005
C33	C	1.086825	0.514596	-0.000014
C34	C	1.088493	0.428992	-0.000007
C35	C	1.089830	0.360763	-0.000002
N36	N	1.089194	-0.105127	-0.195667
C37	C	1.151974	-0.053767	0.238933
C38	C	1.151978	-0.053766	0.325480
C39	C	1.089157	-0.105114	0.368758
C40	C	1.026321	-0.156460	0.325484
C41	C	1.026313	-0.156457	0.238938
C42	C	1.026353	-0.156474	0.674512
C43	C	1.026368	-0.156475	0.761064
C44	C	1.152018	-0.053784	0.761054
C45	C	1.152010	-0.053780	0.674509
C46	C	1.089171	-0.105124	0.631242
C47	C	1.089166	-0.105123	0.537398
C48	C	1.089167	-0.105119	0.462601
H49	H	1.244102	0.283978	0.000005
H50	H	1.239146	0.538088	0.000002
H51	H	1.236354	0.681317	-0.000004
H52	H	0.975150	-0.198265	0.203710
H53	H	0.931431	0.648996	-0.000013
O54	O	0.965330	-0.206441	0.367428
C55	C	0.911018	-0.337945	0.393924
C56	C	0.980129	-0.281422	0.346361
H57	H	0.922971	-0.398579	0.376922
H58	H	0.837161	-0.328000	0.376906
H59	H	0.921800	-0.329093	0.463210
H60	H	0.969431	-0.290241	0.277065
H61	H	1.053961	-0.291382	0.363448
H62	H	0.975208	-0.198290	0.796299
H63	H	1.203167	-0.011971	0.639275
O64	O	0.965284	-0.206424	0.632619
C65	C	0.840619	-0.308255	0.641769
C66	C	0.909746	-0.251737	0.689321
H67	H	0.795685	-0.344894	0.687592
H68	H	0.880289	-0.346193	0.601256
H69	H	0.794660	-0.275475	0.601246
H70	H	0.955722	-0.284455	0.729889
H71	H	0.870018	-0.213799	0.729782
H72	H	0.934221	0.505779	-0.000020
O73	O	0.925913	0.256560	-0.000120
C74	C	0.826624	0.335311	-0.071376
C75	C	0.919892	0.301649	-0.071344
H76	H	0.821718	0.371761	-0.128963
H77	H	0.821680	0.371882	-0.013874
H78	H	0.767393	0.287160	-0.071339
H79	H	0.979177	0.349752	-0.071411
H80	H	0.924756	0.265059	-0.128841
O81	O	1.260297	0.136078	-0.000026
C82	C	1.426836	0.162084	0.000017
C83	C	1.333516	0.195665	0.000043
H84	H	1.486058	0.210243	0.000090
H85	H	1.431827	0.125590	-0.057538
H86	H	1.431704	0.125550	0.057544
H87	H	1.328584	0.232234	-0.057445
H88	H	1.328564	0.232115	0.057635
O89	O	0.928805	0.100942	0.000030
C90	C	0.761941	0.091605	-0.000032
C91	C	0.853568	0.144791	-0.000045
H92	H	0.701088	0.127035	-0.000111
H93	H	0.758383	0.054217	0.057521
H94	H	0.758524	0.054179	-0.057561
H95	H	0.857046	0.182264	0.057445
H96	H	0.857087	0.182127	-0.057636
O97	O	1.212908	-0.003768	0.196953
C98	C	1.267257	0.127752	0.170590
C99	C	1.198184	0.071199	0.218154
H100	H	1.255389	0.188374	0.187727
H101	H	1.256483	0.119025	0.101286
H102	H	1.341087	0.117716	0.187590
H103	H	1.124326	0.081200	0.201223
H104	H	1.209038	0.079939	0.287447
O105	O	1.212890	-0.003817	0.367543
C106	C	1.232792	0.099487	0.465299
C107	C	1.163704	0.042971	0.417704
H108	H	1.193053	0.137319	0.505878
H109	H	1.277680	0.136234	0.419533
H110	H	1.278803	0.066703	0.505765
H111	H	1.117633	0.075693	0.377236
H112	H	1.118882	0.006224	0.463514
H113	H	1.203182	-0.011975	0.796291
