data_functionalizedCrystal
_audit_creation_method	'MofGen! by Chris Wilmer'
_symmetry_space_group_name_H-M	'P1'
_symmetry_Int_Tables_number	1
_symmetry_cell_setting	triclinic
loop_
_symmetry_equiv_pos_as_xyz
  x,y,z
_cell_length_a	17.699083
_cell_length_b	10.654550
_cell_length_c	9.130313
_cell_angle_alpha	90.000110
_cell_angle_beta	89.993769
_cell_angle_gamma	83.883959
loop_
_atom_site_label
_atom_site_type_symbol
_atom_site_fract_x
_atom_site_fract_y
_atom_site_fract_z
O1	O	-1.005081	-0.158800	-0.121576
O2	O	-0.784834	-0.179462	-0.121626
O3	O	-0.900021	0.013697	-0.121594
O4	O	-0.889894	-0.351959	-0.121607
O5	O	-0.900020	0.013692	0.122005
O6	O	-0.784833	-0.179467	0.121973
O7	O	-1.005080	-0.158805	0.122023
Cu8	Cu	-0.894956	-0.169137	0.144240
Cu9	Cu	-0.894958	-0.169130	-0.143843
O10	O	-0.889892	-0.351964	0.121991
C11	C	-0.756632	-0.178724	0.000167
C12	C	-0.672599	-0.176503	0.000147
N13	N	-0.894960	-0.169140	0.346863
C14	C	-0.899277	0.060479	0.000203
C15	C	-0.897052	0.199884	0.000198
C16	C	-0.624699	-0.289883	0.000143
C17	C	-0.545743	-0.287788	0.000161
C18	C	-0.514688	-0.172313	0.000173
C19	C	-0.562594	-0.058924	0.000181
C20	C	-0.641549	-0.061020	0.000174
C21	C	-0.244177	-0.050470	0.000213
C22	C	-0.165216	-0.048383	0.000216
C23	C	-0.148371	-0.277239	0.000200
C24	C	-0.227326	-0.279334	0.000193
C25	C	-0.275225	-0.165946	0.000209
C26	C	-0.360839	-0.168219	0.000193
C27	C	-0.429076	-0.170039	0.000179
C28	C	-0.033282	-0.159543	0.000224
C29	C	-0.117314	-0.161764	0.000222
C30	C	-0.890637	-0.398746	0.000191
C31	C	-0.892861	-0.538151	0.000187
C32	C	-0.964873	0.280557	0.000218
C33	C	-0.962778	0.411541	0.000207
C34	C	-0.825036	0.381166	0.000162
C35	C	-0.827132	0.250185	0.000162
C36	C	-1.044397	0.298094	0.000250
C37	C	-1.042302	0.429078	0.000239
N38	N	-0.894959	-0.169117	-0.346466
C39	C	-0.945979	-0.083638	0.423529
C40	C	-0.945976	-0.083623	0.576866
C41	C	-0.843936	-0.254623	0.576857
C42	C	-0.843935	-0.254631	0.423523
C43	C	-1.004893	0.015084	0.423536
C44	C	-1.004891	0.015099	0.576872
H45	H	-0.649978	-0.383916	0.000132
C46	C	-0.787869	-0.348785	0.339196
N47	N	-0.745662	-0.419744	0.275681
C48	C	-0.528431	0.068101	0.000197
N49	N	-0.502700	0.163779	0.000203
H50	H	-0.109361	-0.369564	0.000195
C51	C	-1.086414	0.259164	-0.137457
N52	N	-1.118059	0.229842	-0.241177
H53	H	-1.069720	0.262908	0.105437
H54	H	-0.680549	0.031306	0.000177
C55	C	-1.083443	-0.012692	0.633118
N56	N	-1.142599	-0.033662	0.675482
C57	C	-0.131058	0.078655	0.000247
N58	N	-0.105330	0.174336	0.000273
H59	H	-0.986503	0.105999	0.624418
C60	C	-1.074785	0.491321	-0.141830
N61	N	-1.099255	0.538205	-0.248829
C62	C	-0.493055	-0.412516	0.000182
N63	N	-0.453371	-0.506466	0.000209
H64	H	-1.072265	0.471361	0.102190
H65	H	-0.768108	0.422138	0.000132
C66	C	-0.261481	-0.406366	0.000189
N67	N	-0.287206	-0.502049	0.000196
H68	H	-0.283168	0.041858	0.000228
C69	C	-0.787809	-0.348656	0.661197
N70	N	-0.745534	-0.419484	0.724721
H71	H	-0.991971	0.111390	0.381915
H72	H	-0.771905	0.184504	0.000126
H73	H	-1.059843	-0.014543	0.375989
