data_functionalizedCrystal
_audit_creation_method	'MofGen! by Chris Wilmer'
_symmetry_space_group_name_H-M	'P1'
_symmetry_Int_Tables_number	1
_symmetry_cell_setting	triclinic
loop_
_symmetry_equiv_pos_as_xyz
  x,y,z
_cell_length_a	15.995350
_cell_length_b	9.065218
_cell_length_c	8.140239
_cell_angle_alpha	90.001686
_cell_angle_beta	89.999075
_cell_angle_gamma	84.254130
loop_
_atom_site_label
_atom_site_type_symbol
_atom_site_fract_x
_atom_site_fract_y
_atom_site_fract_z
O1	O	-1.112426	-0.190160	-0.136467
O2	O	-0.868828	-0.213642	-0.136500
O3	O	-0.995662	0.012860	-0.136480
O4	O	-0.985592	-0.416662	-0.136488
O5	O	-0.995655	0.012862	0.136747
O6	O	-0.868821	-0.213640	0.136727
O7	O	-1.112419	-0.190157	0.136760
Zn8	Zn	-0.990619	-0.201898	0.180124
Zn9	Zn	-0.990628	-0.201902	-0.179865
O10	O	-0.985585	-0.416660	0.136739
C11	C	-0.837623	-0.212670	0.000109
C12	C	-0.744650	-0.209760	0.000096
C13	C	-0.994691	0.067825	0.000131
C14	C	-0.991797	0.231600	0.000123
C15	C	-1.143624	-0.191129	0.000147
C16	C	-1.236597	-0.194040	0.000149
C17	C	-0.406824	-0.199308	0.000130
C18	C	-0.453034	-0.037997	0.000743
C19	C	-0.549747	-0.040908	0.000116
C20	C	-0.574423	-0.204492	0.000114
C21	C	-0.533944	-0.284058	-0.155907
C22	C	-0.437277	-0.280005	-0.156026
C23	C	-0.436956	-0.283335	0.154684
C24	C	-0.533901	-0.283297	0.156735
C25	C	-0.669143	-0.207431	0.000100
C26	C	-0.312103	-0.196374	0.000134
C27	C	-0.986556	-0.471625	0.000125
C28	C	-0.989450	-0.635400	0.000122
N29	N	-0.990619	-0.201895	0.425806
N30	N	-0.990635	-0.201893	-0.425547
H31	H	-0.577698	0.021634	0.111958
H32	H	-0.434020	0.026484	0.112632
H33	H	-0.432957	0.026185	-0.110527
H34	H	-0.577130	0.022055	-0.111919
H35	H	-0.405927	-0.398437	-0.163107
H36	H	-0.406096	-0.402268	0.155739
Cl37	Cl	-0.408332	-0.190424	-0.336088
Cl38	Cl	-0.557183	-0.469594	-0.164908
Cl39	Cl	-0.577104	-0.198742	-0.335182
H40	H	-0.416017	-0.230598	0.272945
H41	H	-0.550170	-0.402588	0.166158
H42	H	-0.560774	-0.225215	0.272159
