data_functionalizedCrystal
_audit_creation_method	'MofGen! by Chris Wilmer'
_symmetry_space_group_name_H-M	'P1'
_symmetry_Int_Tables_number	1
_symmetry_cell_setting	triclinic
loop_
_symmetry_equiv_pos_as_xyz
  x,y,z
_cell_length_a	13.897449
_cell_length_b	13.897447
_cell_length_c	12.827885
_cell_angle_alpha	90.031004
_cell_angle_beta	90.022760
_cell_angle_gamma	90.020357
loop_
_atom_site_label
_atom_site_type_symbol
_atom_site_fract_x
_atom_site_fract_y
_atom_site_fract_z
Zn1	Zn	1.474684	-0.383947	0.590937
Zn2	Zn	1.474575	-0.545273	0.416194
Zn3	Zn	1.313375	-0.383996	0.416200
Zn4	Zn	1.313350	-0.545204	0.590883
O5	O	1.393996	-0.464605	0.503553
O6	O	1.609651	-0.405356	0.567777
O7	O	1.453156	-0.523929	0.269958
O8	O	1.334830	-0.249008	0.439405
O9	O	1.609571	-0.523881	0.439394
O10	O	1.453343	-0.248972	0.567783
O11	O	1.334723	-0.405440	0.269963
O12	O	1.178390	-0.405372	0.439352
O13	O	1.334787	-0.523763	0.737126
O14	O	1.178372	-0.523811	0.567691
O15	O	1.453318	-0.405288	0.737166
O16	O	1.453132	-0.680246	0.439341
O17	O	1.334680	-0.680195	0.567685
C18	C	1.143382	-0.464590	0.503517
C19	C	1.036168	-0.464607	0.503526
C20	C	0.949098	-0.464610	0.503544
C21	C	0.839866	-0.464617	0.503575
C22	C	1.393918	-0.715219	0.503529
C23	C	1.393972	-0.822433	0.503554
C24	C	1.394019	-0.909503	0.503578
C25	C	1.394087	-1.018736	0.503605
C26	C	1.645589	-0.464621	0.503591
C27	C	1.752803	-0.464627	0.503607
C28	C	1.394062	-0.464512	0.776124
C29	C	1.394090	-0.464473	0.892277
C30	C	1.394101	-0.213012	0.503601
C31	C	1.394146	-0.105798	0.503621
C32	C	1.393986	-0.464628	0.232044
C33	C	1.394145	-0.464395	0.115891
C34	C	1.452749	-0.405836	0.944081
C35	C	1.452780	-0.405794	1.064132
H36	H	1.503003	-0.355596	1.108682
H37	H	1.502944	-0.355663	0.899556
H38	H	1.343925	-0.514603	1.071347
H39	H	1.343885	-0.514636	0.936802
