data_functionalizedCrystal
_audit_creation_method	'MofGen! by Chris Wilmer'
_symmetry_space_group_name_H-M	'P1'
_symmetry_Int_Tables_number	1
_symmetry_cell_setting	triclinic
loop_
_symmetry_equiv_pos_as_xyz
  x,y,z
_cell_length_a	14.853567
_cell_length_b	15.995350
_cell_length_c	13.330367
_cell_angle_alpha	89.997588
_cell_angle_beta	89.995418
_cell_angle_gamma	83.563653
loop_
_atom_site_label
_atom_site_type_symbol
_atom_site_fract_x
_atom_site_fract_y
_atom_site_fract_z
O1	O	1.196221	0.109317	-0.083349
O2	O	1.696221	0.609317	0.416651
O3	O	0.933744	0.122339	-0.083366
O4	O	1.433744	0.622339	0.416634
O5	O	1.072158	-0.006051	-0.083356
O6	O	1.572158	0.493949	0.416644
O7	O	1.057808	0.237707	-0.083359
O8	O	1.557808	0.737707	0.416641
O9	O	1.072138	-0.006054	0.083491
O10	O	1.572138	0.493946	0.583491
O11	O	0.933724	0.122336	0.083481
O12	O	1.433724	0.622336	0.583481
O13	O	1.196201	0.109314	0.083498
O14	O	1.696201	0.609314	0.583498
Cu15	Cu	1.064961	0.115825	0.098724
Cu16	Cu	1.564961	0.615825	0.598724
Cu17	Cu	1.064985	0.115828	-0.098592
Cu18	Cu	1.564985	0.615828	0.401408
O19	O	1.057788	0.237704	0.083488
O20	O	1.557788	0.737704	0.583488
C21	C	0.900146	0.121748	0.000056
C22	C	1.400146	0.621748	0.500056
C23	C	0.800065	0.119980	0.000049
C24	C	1.300065	0.619980	0.500049
C25	C	0.387644	0.036238	0.000072
C26	C	0.887644	0.536238	0.500072
C27	C	0.366158	0.188769	0.000070
C28	C	0.866158	0.688769	0.500070
C29	C	0.460189	0.190432	0.000067
C30	C	0.960189	0.690432	0.500067
C31	C	0.517953	0.114996	0.000065
C32	C	1.017953	0.614996	0.500065
C33	C	0.481685	0.037899	0.000066
C34	C	0.981685	0.537899	0.500066
C35	C	0.496464	0.267528	0.000055
C36	C	0.996464	0.767528	0.500055
C37	C	0.590501	0.269194	0.000051
C38	C	1.090501	0.769194	0.500051
C39	C	0.648266	0.193758	0.000056
C40	C	1.148266	0.693758	0.500056
C41	C	0.611993	0.116657	0.000059
C42	C	1.111993	0.616657	0.500059
C43	C	0.669757	0.041221	0.000057
C44	C	1.169757	0.541221	0.500057
C45	C	0.633485	-0.035880	0.000067
C46	C	1.133485	0.464120	0.500067
C47	C	0.539450	-0.037538	0.000072
C48	C	1.039450	0.462462	0.500072
C49	C	0.742302	0.195415	0.000051
C50	C	1.242302	0.695415	0.500051
C51	C	0.763797	0.042882	0.000051
C52	C	1.263797	0.542882	0.500051
C53	C	1.071555	-0.037248	0.000065
C54	C	1.571555	0.462752	0.500065
C55	C	1.069776	-0.130201	0.000060
C56	C	1.569776	0.369799	0.500060
C57	C	1.063389	-0.467956	0.000063
C58	C	1.563389	0.032044	0.500063
C59	C	0.964813	-0.420636	-0.000318
C60	C	1.464813	0.079364	0.499682
C61	C	0.966592	-0.323944	0.000058
C62	C	1.466592	0.176056	0.500058
C63	C	1.066557	-0.300391	0.000061
C64	C	1.566557	0.199609	0.500061
C65	C	1.115167	-0.341414	0.095340
C66	C	1.615167	0.158586	0.595340
C67	C	1.112690	-0.438053	0.095419
C68	C	1.612690	0.061947	0.595419
C69	C	1.114749	-0.438405	-0.094317
C70	C	1.614749	0.061595	0.405683
C71	C	1.114726	-0.341460	-0.095576
C72	C	1.614726	0.158540	0.404424
C73	C	1.068353	-0.205692	0.000063
C74	C	1.568353	0.294308	0.500063
C75	C	1.061596	-0.562655	0.000067
C76	C	1.561596	-0.062655	0.500067
C77	C	1.229799	0.109906	0.000074
C78	C	1.729799	0.609906	0.500074
C79	C	1.329881	0.111674	0.000074
C80	C	1.829881	0.611674	0.500074
C81	C	1.058391	0.268901	0.000064
C82	C	1.558391	0.768901	0.500064
C83	C	1.060170	0.361854	0.000064
C84	C	1.560170	0.861854	0.500064
N85	N	1.064951	0.115822	0.237506
N86	N	1.564951	0.615822	0.737506
N87	N	1.065002	0.115825	-0.237374
N88	N	1.565002	0.615825	0.262626
C89	C	1.003693	0.172657	0.710124
C90	C	1.503693	0.672657	1.210124
C91	C	1.126301	0.058993	0.710101
C92	C	1.626301	0.558993	1.210101
C93	C	1.126291	0.058990	0.605082
C94	C	1.626291	0.558990	1.105082
C95	C	1.064982	0.115823	0.552580
C96	C	1.564982	0.615823	1.052580
C97	C	1.003682	0.172658	0.605096
C98	C	1.503682	0.672658	1.105096
C99	C	1.187595	0.002162	0.552559
C100	C	1.687595	0.502162	1.052559
C101	C	1.187588	0.002158	0.447534
C102	C	1.687588	0.502158	0.947534
C103	C	1.126274	0.058987	0.395030
C104	C	1.626274	0.558987	0.895030
C105	C	1.064971	0.115824	0.447552
C106	C	1.564971	0.615824	0.947552
C107	C	1.003662	0.172656	0.395050
C108	C	1.503662	0.672656	0.895050
C109	C	0.942354	0.229490	0.447570
C110	C	1.442354	0.729490	0.947570
C111	C	0.942368	0.229487	0.552592
C112	C	1.442368	0.729487	1.052592
C113	C	1.126260	0.058989	0.290008
C114	C	1.626260	0.558989	0.790008
C115	C	1.003652	0.172657	0.290022
C116	C	1.503652	0.672657	0.790022
H117	H	0.358108	-0.026536	0.000084
H118	H	0.858108	0.473464	0.500084
C119	C	0.302626	0.271743	0.000061
C120	C	0.802626	0.771743	0.500061
H121	H	0.337695	0.317897	0.000051
H122	H	0.837695	0.817897	0.500051
H123	H	0.265487	0.274268	0.058241
H124	H	0.765487	0.774268	0.558241
H125	H	0.265505	0.274261	-0.058133
H126	H	0.765505	0.774261	0.441867
C127	C	0.936215	0.235175	0.232272
C128	C	1.436215	0.735175	0.732272
H129	H	0.944985	0.227037	0.162202
H130	H	1.444985	0.727037	0.662202
H131	H	0.946002	0.291073	0.249484
H132	H	1.446002	0.791073	0.749484
H133	H	0.876048	0.225973	0.249492
H134	H	1.376048	0.725973	0.749492
C135	C	0.911802	-0.447167	0.091455
C136	C	1.411802	0.052833	0.591455
H137	H	0.852319	-0.418294	0.090643
H138	H	1.352319	0.081706	0.590643
H139	H	0.941885	-0.433479	0.151128
H140	H	1.441885	0.066521	0.651128
H141	H	0.908485	-0.506106	0.089197
H142	H	1.408485	-0.006106	0.589197
C143	C	0.432930	0.350501	0.000043
C144	C	0.932930	0.850501	0.500043
H145	H	0.467998	0.396656	0.000024
H146	H	0.967998	0.896656	0.500024
H147	H	0.395796	0.353029	0.058227
H148	H	0.895796	0.853029	0.558227
H149	H	0.395805	0.353013	-0.058147
H150	H	0.895805	0.853013	0.441853
H151	H	0.928108	-0.296125	0.068470
H152	H	1.428108	0.203875	0.568470
C153	C	1.193689	-0.003519	0.232240
C154	C	1.693689	0.496481	0.732240
H155	H	1.230202	-0.037368	0.278550
H156	H	1.730202	0.462632	0.778550
H157	H	1.231205	0.026666	0.191257
H158	H	1.731205	0.526666	0.691257
H159	H	1.161253	-0.038436	0.191284
H160	H	1.661253	0.461564	0.691284
H161	H	0.810823	-0.018548	0.000053
H162	H	1.310823	0.481452	0.500053
H163	H	1.176222	0.012725	0.752851
H164	H	1.676222	0.512725	1.252851
C165	C	0.936262	0.235172	0.767890
C166	C	1.436262	0.735172	1.267890
H167	H	0.945048	0.227038	0.837958
H168	H	1.445048	0.727038	1.337958
H169	H	0.876097	0.225978	0.750687
H170	H	1.376097	0.725978	1.250687
H171	H	0.946056	0.291073	0.750673
H172	H	1.446056	0.791073	1.250673
H173	H	0.892440	0.275767	0.404811
H174	H	1.392440	0.775767	0.904811
C175	C	1.213217	-0.320621	-0.103338
C176	C	1.713217	0.179379	0.396662
H177	H	1.240630	-0.346226	-0.161756
H178	H	1.740630	0.153774	0.338244
H179	H	1.246072	-0.341406	-0.045716
H180	H	1.746072	0.158594	0.454284
H181	H	1.213712	-0.261375	-0.107339
H182	H	1.713712	0.238625	0.392661
H183	H	0.620025	0.331975	0.000042
H184	H	1.120025	0.831975	0.500042
H185	H	1.237516	-0.044106	0.595309
H186	H	1.737516	0.455894	1.095309
C187	C	1.255014	-0.060363	0.389770
C188	C	1.755014	0.439637	0.889770
H189	H	1.291524	-0.094213	0.436081
H190	H	1.791524	0.405787	0.936081
H191	H	1.292535	-0.030184	0.348785
H192	H	1.792535	0.469816	0.848785
H193	H	1.222573	-0.095277	0.348817
H194	H	1.722573	0.404723	0.848817
C195	C	0.782202	0.280213	0.000037
C196	C	1.282202	0.780213	0.500037
H197	H	0.846479	0.270399	0.000028
H198	H	1.346479	0.770399	0.500028
H199	H	0.762373	0.311282	0.058215
H200	H	1.262373	0.811282	0.558215
H201	H	0.762380	0.311271	-0.058159
H202	H	1.262380	0.811271	0.441841
C203	C	0.914961	-0.285600	-0.092197
C204	C	1.414961	0.214400	0.407803
H205	H	0.892704	-0.329114	-0.130242
H206	H	1.392704	0.170886	0.369758
H207	H	0.954689	-0.257263	-0.132510
H208	H	1.454689	0.242737	0.367490
H209	H	0.865615	-0.246779	-0.070749
H210	H	1.365615	0.253221	0.429251
H211	H	1.079186	-0.314251	-0.166061
H212	H	1.579186	0.185749	0.333939
H213	H	0.509909	-0.100310	0.000103
H214	H	1.009909	0.399690	0.500103
C215	C	0.697030	-0.118854	0.000065
C216	C	1.197030	0.381146	0.500065
H217	H	0.758227	-0.106817	0.000063
H218	H	1.258227	0.393183	0.500063
H219	H	0.686037	-0.150466	-0.058113
H220	H	1.186037	0.349534	0.441887
H221	H	0.686041	-0.150460	0.058261
H222	H	1.186041	0.349540	0.558261
H223	H	0.925422	-0.439212	-0.068644
H224	H	1.425422	0.060788	0.431356
H225	H	1.185062	-0.470217	0.099744
H226	H	1.685062	0.029783	0.599744
C227	C	1.064772	-0.462837	0.191622
C228	C	1.564772	0.037163	0.691622
H229	H	1.046996	-0.413866	0.230285
H230	H	1.546996	0.086134	0.730285
H231	H	1.105044	-0.500762	0.229719
H232	H	1.605044	-0.000762	0.729719
H233	H	1.012698	-0.489160	0.174209
H234	H	1.512698	0.010840	0.674209
C235	C	1.214380	-0.322224	0.100138
C236	C	1.714380	0.177776	0.600138
H237	H	1.242493	-0.347619	0.158304
H238	H	1.742493	0.152381	0.658304
H239	H	1.216107	-0.263086	0.102993
H240	H	1.716107	0.236914	0.602993
H241	H	1.245753	-0.344148	0.042077
H242	H	1.745753	0.155852	0.542077
C243	C	1.069530	-0.303143	0.191124
C244	C	1.569530	0.196857	0.691124
H245	H	1.020860	-0.262175	0.173254
H246	H	1.520860	0.237825	0.673254
H247	H	1.112580	-0.277355	0.229678
H248	H	1.612580	0.222645	0.729678
H249	H	1.046973	-0.346295	0.229525
H250	H	1.546973	0.153705	0.729525
C251	C	1.071221	-0.466193	-0.191875
C252	C	1.571221	0.033807	0.308125
H253	H	1.021311	-0.496079	-0.175956
H254	H	1.521311	0.003921	0.324044
H255	H	1.114722	-0.501616	-0.229077
H256	H	1.614722	-0.001616	0.270923
H257	H	1.050753	-0.418018	-0.230769
H258	H	1.550753	0.081982	0.269231
H259	H	1.187429	-0.470081	-0.094956
H260	H	1.687429	0.029919	0.405044
C261	C	0.874946	0.292004	0.610365
C262	C	1.374946	0.792004	1.110365
H263	H	0.883742	0.283870	0.680431
H264	H	1.383742	0.783870	1.180431
H265	H	0.814777	0.282814	0.593174
H266	H	1.314777	0.782814	1.093174
H267	H	0.884741	0.347905	0.593146
H268	H	1.384741	0.847905	1.093146
