data_functionalizedCrystal
_audit_creation_method	'MofGen! by Chris Wilmer'
_symmetry_space_group_name_H-M	'P1'
_symmetry_Int_Tables_number	1
_symmetry_cell_setting	triclinic
loop_
_symmetry_equiv_pos_as_xyz
  x,y,z
_cell_length_a	10.654550
_cell_length_b	23.532407
_cell_length_c	9.130313
_cell_angle_alpha	89.990840
_cell_angle_beta	89.999724
_cell_angle_gamma	83.666804
loop_
_atom_site_label
_atom_site_type_symbol
_atom_site_fract_x
_atom_site_fract_y
_atom_site_fract_z
O1	O	1.665305	0.079985	-0.121707
O2	O	1.299585	0.087605	-0.121735
O3	O	1.493474	0.000935	-0.121693
O4	O	1.471417	0.166655	-0.121749
O5	O	1.493460	0.000933	0.121905
O6	O	1.299572	0.087603	0.121863
O7	O	1.665292	0.079982	0.121892
Cu8	Cu	1.482431	0.083792	0.144120
Cu9	Cu	1.482447	0.083795	-0.143964
O10	O	1.471404	0.166652	0.121850
C11	C	1.252799	0.087044	0.000061
C12	C	1.113408	0.085370	0.000051
C13	C	1.492905	-0.020286	0.000110
C14	C	1.491217	-0.083514	0.000121
C15	C	1.032306	0.136400	0.000038
C16	C	0.901335	0.134824	0.000064
C17	C	0.932582	0.031183	0.000110
C18	C	1.063550	0.032760	0.000094
C19	C	1.595364	-0.481938	0.000049
C20	C	1.593795	-0.541349	0.000037
O21	O	1.690341	-0.577464	-0.000009
N22	N	1.478529	-0.564726	0.000030
C23	C	1.364824	-0.528689	0.000018
O24	O	1.266636	-0.554029	0.000009
C25	C	1.366394	-0.469280	0.000019
C26	C	1.481668	-0.445906	0.000041
C27	C	1.710629	-0.458564	0.000070
C28	C	1.712197	-0.399158	0.000084
C29	C	1.598500	-0.363126	0.000077
C30	C	1.483236	-0.386500	0.000055
C31	C	1.252690	-0.433244	-0.000003
C32	C	1.254270	-0.373831	-0.000004
C33	C	1.369544	-0.350458	0.000019
C34	C	1.371107	-0.291061	0.000062
N35	N	1.486374	-0.267684	0.000070
C36	C	1.600070	-0.303716	0.000077
C37	C	1.361535	-0.653453	0.000014
C38	C	1.359964	-0.712861	0.000023
C39	C	1.588936	-0.725517	0.000040
C40	C	1.590506	-0.666108	0.000041
C41	C	1.476802	-0.630076	0.000022
C42	C	1.603355	-0.178958	0.000108
C43	C	1.604913	-0.119546	0.000128
C44	C	1.375942	-0.106896	0.000104
C45	C	1.374383	-0.166303	0.000091
C46	C	1.488100	-0.202333	0.000088
O47	O	1.274613	-0.254911	0.000103
O48	O	1.698241	-0.278369	0.000067
C49	C	1.712079	0.080543	0.000093
C50	C	1.851469	0.082217	0.000093
C51	C	1.471972	0.187873	0.000044
C52	C	1.473661	0.251101	0.000023
N53	N	1.482429	0.083790	0.346743
N54	N	1.482458	0.083793	-0.346586
C55	C	1.568311	0.045429	0.423413
C56	C	1.568323	0.045429	0.576750
C57	C	1.396567	0.122156	0.576733
C58	C	1.396550	0.122153	0.423399
H59	H	1.072896	0.179239	0.000014
H60	H	1.158822	-0.452264	-0.000031
N61	N	1.660970	0.004062	0.659446
H62	H	1.715374	-0.020237	0.587613
H63	H	1.716201	0.026110	0.723034
N64	N	1.660915	0.004052	0.340713
H65	H	1.749960	0.010983	0.367372
H66	H	1.646853	-0.036409	0.367450
N67	N	1.151027	-0.022285	0.000120
H68	H	1.135065	-0.045216	-0.090168
H69	H	1.241524	-0.013257	0.000168
N70	N	1.303912	0.163534	0.340707
H71	H	1.351568	0.188950	0.277062
H72	H	1.248604	0.141493	0.277198
H73	H	1.326648	0.153392	0.639161
H74	H	0.891971	-0.011650	0.000154
H75	H	1.698787	-0.100519	0.000150
H76	H	0.835306	0.176378	0.000057
H77	H	1.695954	-0.208288	0.000100
N78	N	1.836528	-0.373952	0.000103
H79	H	1.908306	-0.405799	0.000102
H80	H	1.842177	-0.349573	-0.090201
H81	H	1.268937	-0.624119	0.000011
N82	N	1.833265	-0.497425	0.000087
H83	H	1.883601	-0.489845	-0.090203
H84	H	1.883469	-0.489832	0.090461
N85	N	1.714835	-0.640899	0.000067
H86	H	1.786616	-0.672745	0.000075
H87	H	1.720487	-0.616522	-0.090239
N88	N	1.711571	-0.764386	0.000048
H89	H	1.693075	-0.805567	0.000039
H90	H	1.761844	-0.756761	-0.090253
H91	H	1.266096	-0.731886	0.000030
N92	N	1.131629	-0.334969	-0.000032
H93	H	1.058374	-0.358795	-0.000047
H94	H	1.127278	-0.310051	0.090277
H95	H	1.280517	-0.185334	0.000113
N96	N	1.253328	-0.068018	0.000123
H97	H	1.248890	-0.043078	-0.090171
H98	H	1.180121	-0.091870	0.000172
