data_functionalizedCrystal
_audit_creation_method	'MofGen! by Chris Wilmer'
_symmetry_space_group_name_H-M	'P1'
_symmetry_Int_Tables_number	1
_symmetry_cell_setting	triclinic
loop_
_symmetry_equiv_pos_as_xyz
  x,y,z
_cell_length_a	6.817900
_cell_length_b	11.452831
_cell_length_c	11.102193
_cell_angle_alpha	80.921455
_cell_angle_beta	108.604059
_cell_angle_gamma	108.696887
loop_
_atom_site_label
_atom_site_type_symbol
_atom_site_fract_x
_atom_site_fract_y
_atom_site_fract_z
V1	V	-4.091708	-0.168920	-0.358901
O2	O	-4.071498	0.008108	-0.390507
O3	O	-4.049019	-0.334932	-0.319478
O4	O	-4.068786	-0.166326	-0.532296
O5	O	-4.051594	-0.161665	-0.176216
V6	V	-4.571294	-0.147745	-0.341541
O7	O	-4.361601	-0.215370	-0.396981
O8	O	-4.751598	-0.101296	-0.303461
O9	O	-4.390776	0.018266	-0.380965
O10	O	-4.708900	-0.324774	-0.309935
O11	O	-4.728804	-0.155001	-0.524227
O12	O	-4.371009	-0.150340	-0.168146
C13	C	-3.894584	-0.375402	-0.304277
C14	C	-3.941138	-0.511119	-0.273199
C15	C	-4.065248	-0.728471	-0.334166
C16	C	-4.017134	-0.588201	-0.366293
C17	C	-3.919798	-0.160327	-0.575747
C18	C	-3.982379	-0.159304	-0.717255
C19	C	-4.076488	-0.382912	-0.704132
C20	C	-4.152935	-0.494230	-0.764050
C21	C	-4.211734	-0.493262	-0.897010
C22	C	-4.194090	-0.380964	-0.970056
C23	C	-4.117643	-0.269646	-0.910138
C24	C	-4.058841	-0.270625	-0.777174
C25	C	-4.023549	-0.046041	-0.923261
C26	C	-3.964734	-0.047006	-0.790301
C27	C	-4.005904	0.066257	-0.996307
C28	C	-3.929442	0.177578	-0.936389
C29	C	-3.870639	0.176606	-0.803420
C30	C	-3.888287	0.064312	-0.730383
C31	C	-4.208552	0.058730	-0.396161
C32	C	-4.141238	0.194445	-0.427246
C33	C	-4.183338	-0.156343	-0.124688
C34	C	-4.099996	-0.157360	0.016821
H35	H	-4.046568	-0.550356	-0.469774
H36	H	-4.053802	0.067036	-1.104570
C37	C	-3.901345	-0.562238	-0.133398
N38	N	-3.871374	-0.600743	-0.028101
H39	H	-4.241998	-0.380187	-1.078319
H40	H	-3.915097	0.269002	-0.995873
C41	C	-4.295826	-0.615717	-0.962922
N42	N	-4.359160	-0.707950	-1.012566
H43	H	-3.808403	0.267255	-0.754644
C44	C	-4.181011	-0.754426	-0.567039
N45	N	-4.210974	-0.715918	-0.672335
C46	C	-4.025523	-0.779601	-0.194374
N47	N	-3.995621	-0.818111	-0.089080
H48	H	-4.028584	-0.383710	-0.595867
H49	H	-4.167300	-0.585661	-0.704562
H50	H	-3.840399	0.063510	-0.622119
