data_functionalizedCrystal
_audit_creation_method	'MofGen! by Chris Wilmer'
_symmetry_space_group_name_H-M	'P1'
_symmetry_Int_Tables_number	1
_symmetry_cell_setting	triclinic
loop_
_symmetry_equiv_pos_as_xyz
  x,y,z
_cell_length_a	10.654554
_cell_length_b	15.944551
_cell_length_c	9.730223
_cell_angle_alpha	89.997716
_cell_angle_beta	89.999030
_cell_angle_gamma	83.992790
loop_
_atom_site_label
_atom_site_type_symbol
_atom_site_fract_x
_atom_site_fract_y
_atom_site_fract_z
O1	O	1.666304	0.117992	-0.114318
O2	O	1.300681	0.129228	-0.114315
O3	O	1.493477	0.001393	-0.114304
O4	O	1.473508	0.245827	-0.114329
O5	O	1.493474	0.001396	0.114276
O6	O	1.300679	0.129231	0.114265
O7	O	1.666302	0.117995	0.114262
Zn8	Zn	1.483490	0.123613	0.150555
Zn9	Zn	1.483493	0.123609	-0.150608
O10	O	1.473506	0.245830	0.114251
C11	C	1.253892	0.128403	-0.000025
C12	C	1.114481	0.125933	-0.000024
C13	C	0.932954	0.046019	-0.000034
C14	C	1.063945	0.048340	-0.000020
C15	C	1.034018	0.201209	-0.000027
C16	C	0.903029	0.198887	-0.000031
C17	C	0.950233	-0.042238	-0.000035
C18	C	1.081224	-0.039917	-0.000021
C19	C	1.492647	-0.029904	-0.000014
C20	C	1.490161	-0.123165	-0.000013
C21	C	1.364717	-0.338749	-0.000031
C22	C	1.422968	-0.399427	0.112672
C23	C	1.485665	-0.293917	-0.000024
C24	C	1.422999	-0.399413	-0.112690
C25	C	1.481313	-0.458855	-0.000040
C26	C	1.543949	-0.353366	0.112773
C27	C	1.543963	-0.353346	-0.112690
C28	C	1.602302	-0.414006	0.000040
C29	C	1.488169	-0.198900	-0.000013
C30	C	1.478819	-0.553870	-0.000040
C31	C	1.713090	0.118819	-0.000031
C32	C	1.852501	0.121290	-0.000041
C33	C	1.474336	0.277127	-0.000042
C34	C	1.476821	0.370387	-0.000052
N35	N	1.483497	0.123616	0.356092
N36	N	1.483495	0.123600	-0.356145
C37	C	1.568889	0.067030	0.428023
C38	C	1.568885	0.067020	0.571906
C39	C	1.398095	0.180189	0.571914
C40	C	1.398093	0.180194	0.428034
C41	C	1.667497	0.001695	0.428019
C42	C	1.667494	0.001685	0.571902
H43	H	0.914969	-0.070343	-0.098729
O44	O	1.775838	0.026262	0.374723
C45	C	1.870032	0.126566	0.232842
C46	C	1.747253	0.098826	0.293119
H47	H	1.846962	0.185226	0.166830
H48	H	1.935662	0.141401	0.320055
H49	H	1.918368	0.073560	0.166939
H50	H	1.698812	0.151798	0.359007
H51	H	1.681712	0.083964	0.205842
H52	H	1.763819	0.016077	0.610951
H53	H	1.127207	-0.066585	0.098681
O54	O	1.642678	-0.075291	0.381498
C55	C	1.495644	-0.180270	0.377212
C56	C	1.523583	-0.093067	0.429958
H57	H	1.399368	-0.194677	0.416393
H58	H	1.495548	-0.180305	0.260047
H59	H	1.571391	-0.230416	0.416225
H60	H	1.447867	-0.042872	0.391045
H61	H	1.523725	-0.093103	0.547121
H62	H	1.123413	-0.073168	-0.095680
O63	O	1.361742	-0.423719	0.226241
C64	C	1.167350	-0.412576	0.354700
C65	C	1.236537	-0.385019	0.226018
H66	H	1.066117	-0.381286	0.354577
H67	H	1.166758	-0.484033	0.354127
H68	H	1.217998	-0.392766	0.450723
H69	H	1.185943	-0.404772	0.129928
H70	H	1.237140	-0.313564	0.226713
O71	O	1.362127	-0.423847	-0.226401
C72	C	1.376199	-0.506792	-0.433897
C73	C	1.445288	-0.479209	-0.305171
H74	H	1.443412	-0.551543	-0.497633
H75	H	1.291523	-0.540292	-0.401461
H76	H	1.342529	-0.448905	-0.497945
H77	H	1.479041	-0.537052	-0.241066
H78	H	1.529906	-0.445680	-0.337702
O79	O	1.315088	0.235236	0.358372
C80	C	1.145619	0.347438	0.373570
C81	C	1.239579	0.285160	0.452632
H82	H	1.084528	0.387806	0.449744
H83	H	1.199756	0.389805	0.306245
H84	H	1.082951	0.310760	0.306174
H85	H	1.302271	0.321769	0.520103
H86	H	1.185364	0.242793	0.519871
H87	H	1.264324	-0.306024	0.000082
H88	H	1.595062	-0.333078	0.208159
H89	H	1.702783	-0.446582	0.000103
O90	O	1.631842	-0.071030	0.625196
C91	C	1.482887	-0.135053	0.767114
C92	C	1.523104	-0.052644	0.706833
H93	H	1.394985	-0.120215	0.833153
H94	H	1.461347	-0.179096	0.679903
H95	H	1.562627	-0.166856	0.832991
H96	H	1.443416	-0.020769	0.640971
H97	H	1.544687	-0.008661	0.794108
H98	H	1.595077	-0.332921	-0.207978
H99	H	1.328560	0.226253	0.630505
H100	H	0.921315	-0.076755	0.095622
O101	O	0.825056	0.272083	-0.000084
C102	C	0.809202	0.423953	0.000021
C103	C	0.897650	0.341119	0.000045
H104	H	0.867858	0.479789	0.000155
H105	H	0.747151	0.426754	-0.095661
H106	H	0.747103	0.426633	0.095660
H107	H	0.959828	0.338383	-0.095528
H108	H	0.959615	0.338351	0.095791
H109	H	1.075175	0.264386	-0.000018
