data_functionalizedCrystal
_audit_creation_method	'MofGen! by Chris Wilmer'
_symmetry_space_group_name_H-M	'P1'
_symmetry_Int_Tables_number	1
_symmetry_cell_setting	triclinic
loop_
_symmetry_equiv_pos_as_xyz
  x,y,z
_cell_length_a	23.532355
_cell_length_b	23.532407
_cell_length_c	22.010155
_cell_angle_alpha	89.995744
_cell_angle_beta	89.997414
_cell_angle_gamma	82.838123
loop_
_atom_site_label
_atom_site_type_symbol
_atom_site_fract_x
_atom_site_fract_y
_atom_site_fract_z
O1	O	0.755283	0.068986	-0.050454
O2	O	1.255283	0.568986	0.449546
O3	O	0.589415	0.079020	-0.050474
O4	O	1.089415	0.579020	0.449526
O5	O	0.677351	-0.008929	-0.050446
O6	O	1.177351	0.491071	0.449554
O7	O	0.667347	0.156936	-0.050482
O8	O	1.167347	0.656936	0.449518
O9	O	0.677335	-0.008916	0.050604
O10	O	1.177335	0.491084	0.550604
O11	O	0.589399	0.079033	0.050576
O12	O	1.089399	0.579033	0.550576
O13	O	0.755267	0.068999	0.050597
O14	O	1.255267	0.568999	0.550597
Cu15	Cu	0.672332	0.074018	0.059813
Cu16	Cu	1.172332	0.574018	0.559813
Cu17	Cu	0.672351	0.074002	-0.059691
Cu18	Cu	1.172351	0.574002	0.440309
O19	O	0.667331	0.156949	0.050569
O20	O	1.167331	0.656949	0.550569
C21	C	0.568191	0.078776	0.000048
C22	C	1.068191	0.578776	0.500048
C23	C	0.504972	0.078022	0.000041
C24	C	1.004972	0.578022	0.500041
C25	C	0.112950	0.073291	0.055150
C26	C	0.612950	0.573291	0.555150
C27	C	0.053550	0.072574	0.055153
C28	C	0.553550	0.572574	0.555153
O29	O	0.022824	0.072189	0.101998
O30	O	0.522824	0.572189	0.601998
N31	N	0.023850	0.072211	0.000070
N32	N	0.523850	0.572211	0.500070
C33	C	0.053554	0.072559	-0.055018
C34	C	0.553554	0.572559	0.444982
O35	O	0.022838	0.072184	-0.101870
O36	O	0.522838	0.572184	0.398130
C37	C	0.112953	0.073273	-0.055020
C38	C	0.612953	0.573273	0.444980
C39	C	0.142649	0.073641	0.000066
C40	C	0.642649	0.573641	0.500066
C41	C	0.142646	0.073659	0.110231
C42	C	0.642646	0.573659	0.610231
C43	C	0.202041	0.074378	0.110229
C44	C	0.702041	0.574378	0.610229
C45	C	0.231740	0.074728	0.055145
C46	C	0.731740	0.574728	0.555145
C47	C	0.202044	0.074360	0.000063
C48	C	0.702044	0.574360	0.500063
C49	C	0.142656	0.073617	-0.110108
C50	C	0.642656	0.573617	0.389892
C51	C	0.202059	0.074330	-0.110105
C52	C	0.702059	0.574330	0.389895
C53	C	0.231755	0.074699	-0.055019
C54	C	0.731755	0.574699	0.444981
C55	C	0.291138	0.075429	-0.055024
C56	C	0.791138	0.575429	0.444976
N57	N	0.320838	0.075792	0.000059
N58	N	0.820838	0.575792	0.500059
C59	C	0.291139	0.075441	0.055143
C60	C	0.791139	0.575441	0.555143
C61	C	-0.071188	0.071060	-0.055010
C62	C	0.428812	0.571060	0.444990
C63	C	-0.130586	0.070351	-0.055009
C64	C	0.369414	0.570351	0.444991
C65	C	-0.130585	0.070364	0.055162
C66	C	0.369415	0.570364	0.555162
C67	C	-0.071187	0.071078	0.055160
C68	C	0.428813	0.571078	0.555160
C69	C	-0.041488	0.071423	0.000072
C70	C	0.458512	0.571423	0.500072
C71	C	0.415873	0.076951	0.055133
C72	C	0.915873	0.576951	0.555133
C73	C	0.475273	0.077672	0.055125
C74	C	0.975273	0.577672	0.555125
C75	C	0.475268	0.077655	-0.055045
C76	C	0.975268	0.577655	0.444955
C77	C	0.415872	0.076938	-0.055038
C78	C	0.915872	0.576938	0.444962
C79	C	0.386177	0.076583	0.000056
C80	C	0.886177	0.576583	0.500056
O81	O	0.321902	0.075811	-0.101845
O82	O	0.821902	0.575811	0.398155
O83	O	0.321863	0.075809	0.101986
O84	O	0.821863	0.575809	0.601986
C85	C	0.677088	-0.030139	0.000082
C86	C	1.177088	0.469861	0.500082
C87	C	0.676322	-0.093356	0.000091
C88	C	1.176322	0.406644	0.500091
C89	C	0.621125	-0.359513	0.000046
C90	C	1.121125	0.140487	0.500046
C91	C	0.621837	-0.300113	0.000051
C92	C	1.121837	0.199887	0.500051
O93	O	0.578050	-0.263360	0.000026
O94	O	1.078050	0.236640	0.500026
N95	N	0.674114	-0.277496	0.000064
N96	N	1.174114	0.222504	0.500064
C97	C	0.725684	-0.314283	0.000067
C98	C	1.225684	0.185717	0.500067
O99	O	0.770216	-0.289592	0.000079
O100	O	1.270216	0.210408	0.500079
C101	C	0.724972	-0.373682	0.000058
C102	C	1.224972	0.126318	0.500058
C103	C	0.672691	-0.396295	0.000051
C104	C	1.172691	0.103705	0.500051
C105	C	0.568849	-0.382126	0.000038
C106	C	1.068849	0.117874	0.500038
C107	C	0.568137	-0.441522	0.000034
C108	C	1.068137	0.058478	0.500034
C109	C	0.619703	-0.478305	0.000039
C110	C	1.119703	0.021695	0.500039
C111	C	0.671980	-0.455691	0.000047
C112	C	1.171980	0.044309	0.500047
C113	C	0.776541	-0.410468	0.000056
C114	C	1.276541	0.089532	0.500056
C115	C	0.775824	-0.469871	0.000047
C116	C	1.275824	0.030129	0.500047
C117	C	0.723543	-0.492484	0.000039
C118	C	1.223543	0.007516	0.500039
C119	C	0.722834	-0.551870	0.000048
C120	C	1.222834	-0.051870	0.500048
N121	N	0.670556	-0.574486	0.000034
N122	N	1.170556	-0.074486	0.500034
C123	C	0.618991	-0.537704	0.000030
C124	C	1.118991	-0.037704	0.500030
C125	C	0.727175	-0.189541	0.000085
C126	C	1.227175	0.310459	0.500085
C127	C	0.727888	-0.130143	0.000099
C128	C	1.227888	0.369857	0.500099
C129	C	0.624041	-0.115977	0.000081
C130	C	1.124041	0.384023	0.500081
C131	C	0.623329	-0.175376	0.000072
C132	C	1.123329	0.324624	0.500072
C133	C	0.674898	-0.212158	0.000072
C134	C	1.174898	0.287842	0.500072
C135	C	0.617501	-0.662440	0.000023
C136	C	1.117501	-0.162440	0.500023
C137	C	0.616795	-0.721842	0.000022
C138	C	1.116795	-0.221842	0.500022
C139	C	0.720642	-0.736004	0.000036
C140	C	1.220642	-0.236004	0.500036
C141	C	0.721349	-0.676607	0.000040
C142	C	1.221349	-0.176607	0.500040
C143	C	0.669774	-0.639826	0.000031
C144	C	1.169774	-0.139826	0.500031
O145	O	0.766598	-0.588657	0.000070
O146	O	1.266598	-0.088657	0.500070
O147	O	0.574467	-0.562403	0.000010
O148	O	1.074467	-0.062403	0.500010
C149	C	0.776492	0.069244	0.000073
C150	C	1.276492	0.569244	0.500073
C151	C	0.839710	0.069998	0.000076
C152	C	1.339710	0.569998	0.500076
C153	C	0.667594	0.178158	0.000039
C154	C	1.167594	0.678158	0.500039
C155	C	0.668360	0.241375	0.000026
C156	C	1.168360	0.741375	0.500026
N157	N	0.672323	0.074028	0.143866
N158	N	1.172323	0.574028	0.643866
N159	N	0.672364	0.073987	-0.143743
N160	N	1.172364	0.573987	0.356257
C161	C	0.711291	0.035063	0.563657
C162	C	1.211291	0.535063	1.063657
C163	C	0.711293	0.035059	0.627265
C164	C	1.211293	0.535059	1.127265
O165	O	0.744402	0.001938	0.660167
O166	O	1.244402	0.501938	1.160167
N167	N	0.672350	0.073990	0.659073
N168	N	1.172350	0.573990	1.159073
C169	C	0.633398	0.112923	0.627269
C170	C	1.133398	0.612923	1.127269
O171	O	0.600274	0.146036	0.660165
O172	O	1.100274	0.646036	1.160165
C173	C	0.633393	0.112924	0.563663
C174	C	1.133393	0.612924	1.063663
C175	C	0.672343	0.073995	0.531859
C176	C	1.172343	0.573995	1.031859
C177	C	0.750236	-0.003863	0.531853
C178	C	1.250236	0.496137	1.031853
C179	C	0.750234	-0.003858	0.468250
C180	C	1.250234	0.496142	0.968250
C181	C	0.711286	0.035073	0.436451
C182	C	1.211286	0.535073	0.936451
C183	C	0.672341	0.074000	0.468255
C184	C	1.172341	0.574000	0.968255
C185	C	0.594439	0.151854	0.531861
C186	C	1.094439	0.651854	1.031861
C187	C	0.594437	0.151851	0.468250
C188	C	1.094437	0.651851	0.968250
C189	C	0.633387	0.112922	0.436446
C190	C	1.133387	0.612922	0.936446
C191	C	0.633391	0.112936	0.372853
C192	C	1.133391	0.612936	0.872853
N193	N	0.672334	0.074005	0.341046
N194	N	1.172334	0.574005	0.841046
C195	C	0.711282	0.035074	0.372844
C196	C	1.211282	0.535074	0.872844
C197	C	0.633411	0.112918	0.760847
C198	C	1.133411	0.612918	1.260847
C199	C	0.633418	0.112921	0.824452
C200	C	1.133418	0.612921	1.324452
C201	C	0.711313	0.035056	0.824444
C202	C	1.211313	0.535056	1.324444
C203	C	0.711308	0.035057	0.760837
C204	C	1.211308	0.535057	1.260837
C205	C	0.672354	0.073988	0.729040
C206	C	1.172354	0.573988	1.229040
C207	C	0.711275	0.035087	0.239273
C208	C	1.211275	0.535087	0.739273
C209	C	0.711271	0.035097	0.175664
C210	C	1.211271	0.535097	0.675664
C211	C	0.633374	0.112959	0.175679
C212	C	1.133374	0.612959	0.675679
C213	C	0.633380	0.112952	0.239282
C214	C	1.133380	0.612952	0.739282
C215	C	0.672332	0.074011	0.271078
C216	C	1.172332	0.574011	0.771078
O217	O	0.600297	0.146039	0.339911
O218	O	1.100297	0.646039	0.839911
O219	O	0.744395	0.001961	0.339941
O220	O	1.244395	0.501961	0.839941
H221	H	0.118471	0.073373	0.155090
H222	H	0.618471	0.573373	0.655090
Br223	Br	0.803100	-0.056706	0.574998
Br224	Br	1.303100	0.443294	1.074998
Br225	Br	0.102369	0.073117	-0.184872
Br226	Br	0.602369	0.573117	0.315128
Br227	Br	0.498857	-0.332217	0.000029
Br228	Br	0.998857	0.167783	0.500029
Br229	Br	0.541566	0.204687	0.425101
Br230	Br	1.041566	0.704687	0.925101
Br231	Br	0.545837	-0.752527	0.000015
Br232	Br	1.045837	-0.252527	0.500015
Br233	Br	0.541577	0.204689	0.575011
Br234	Br	1.041577	0.704689	1.075011
Br235	Br	0.375568	0.076449	-0.129798
Br236	Br	0.875568	0.576449	0.370202
H237	H	0.743023	0.003357	0.734946
H238	H	1.243023	0.503357	1.234946
H239	H	0.525565	-0.459928	0.000023
H240	H	1.025565	0.040072	0.500023
Br241	Br	0.764171	-0.017780	0.867613
Br242	Br	1.264171	0.482220	1.367613
Br243	Br	0.580520	0.165795	0.132513
Br244	Br	1.080520	0.665795	0.632513
Br245	Br	0.580566	0.165764	0.867608
Br246	Br	1.080566	0.665764	1.367608
Br247	Br	0.547506	-0.612533	0.000011
Br248	Br	1.047506	-0.112533	0.500011
H249	H	0.742990	0.003396	0.149771
H250	H	1.242990	0.503396	0.649771
H251	H	0.580757	-0.193783	0.000069
H252	H	1.080757	0.306217	0.500069
Br253	Br	0.554058	-0.066046	0.000077
Br254	Br	1.054058	0.433954	0.500077
Br255	Br	0.845815	-0.519786	0.000042
Br256	Br	1.345815	-0.019786	0.500042
H257	H	0.770460	-0.111738	0.000114
H258	H	1.270460	0.388262	0.500114
H259	H	0.499459	0.077943	-0.099893
H260	H	0.999459	0.577943	0.400107
Br261	Br	0.580526	0.165793	0.282443
Br262	Br	1.080526	0.665793	0.782443
Br263	Br	0.515571	0.078176	0.129890
Br264	Br	1.015571	0.578176	0.629890
Br265	Br	0.375581	0.076468	0.129904
Br266	Br	0.875581	0.576468	0.629904
Br267	Br	0.797169	-0.239454	0.000091
Br268	Br	1.297169	0.260546	0.500091
Br269	Br	0.847498	-0.379795	0.000052
Br270	Br	1.347498	0.120205	0.500052
H271	H	0.763920	-0.658195	0.000055
H272	H	1.263920	-0.158195	0.500055
H273	H	0.762625	-0.765962	0.000042
H274	H	1.262625	-0.265962	0.500042
Br275	Br	0.764139	-0.017762	0.282414
Br276	Br	1.264139	0.482238	0.782414
H277	H	0.781949	-0.035559	0.442358
H278	H	1.281949	0.464441	0.942358
Br279	Br	0.242361	0.074796	-0.184871
Br280	Br	0.742361	0.574796	0.315129
H281	H	0.601691	0.144625	0.734961
H282	H	1.101691	0.644625	1.234961
H283	H	0.226215	0.074674	0.155085
H284	H	0.726215	0.574674	0.655085
Br285	Br	-0.030889	0.071535	-0.129779
Br286	Br	0.469111	0.571535	0.370221
H287	H	-0.047012	0.071378	0.100016
H288	H	0.452988	0.571378	0.600016
H289	H	-0.154777	0.070078	0.100015
H290	H	0.345223	0.570078	0.600015
H291	H	-0.154761	0.070060	-0.099865
H292	H	0.345239	0.570060	0.400135
