data_functionalizedCrystal
_audit_creation_method	'MofGen! by Chris Wilmer'
_symmetry_space_group_name_H-M	'P1'
_symmetry_Int_Tables_number	1
_symmetry_cell_setting	triclinic
loop_
_symmetry_equiv_pos_as_xyz
  x,y,z
_cell_length_a	25.639240
_cell_length_b	15.297621
_cell_length_c	15.299447
_cell_angle_alpha	110.794051
_cell_angle_beta	80.300682
_cell_angle_gamma	99.666635
loop_
_atom_site_label
_atom_site_type_symbol
_atom_site_fract_x
_atom_site_fract_y
_atom_site_fract_z
Zn1	Zn	-0.282723	-1.512744	-0.771539
Zn2	Zn	0.217277	-1.012744	-0.271539
Zn3	Zn	-0.383046	-1.485677	-0.616001
Zn4	Zn	0.116954	-0.985677	-0.116001
Zn5	Zn	-0.282709	-1.330297	-0.589161
Zn6	Zn	0.217291	-0.830297	-0.089161
Zn7	Zn	-0.357200	-1.357157	-0.744611
Zn8	Zn	0.142800	-0.857157	-0.244611
O9	O	-0.326419	-1.421469	-0.680328
O10	O	0.173581	-0.921469	-0.180328
O11	O	-0.306854	-1.639294	-0.773409
O12	O	0.193146	-1.139294	-0.273409
O13	O	-0.380547	-1.442497	-0.482292
O14	O	0.119453	-0.942497	0.017708
O15	O	-0.209551	-1.354586	-0.613390
O16	O	0.290449	-0.854586	-0.113390
O17	O	-0.380561	-1.619408	-0.659136
O18	O	0.119439	-1.119408	-0.159136
O19	O	-0.209561	-1.488629	-0.747383
O20	O	0.290439	-0.988629	-0.247383
O21	O	-0.306830	-1.328340	-0.462572
O22	O	0.193170	-0.828340	0.037428
O23	O	-0.281768	-1.203720	-0.587279
O24	O	0.218232	-0.703720	-0.087279
O25	O	-0.336510	-1.400365	-0.878332
O26	O	0.163490	-0.900365	-0.378332
O27	O	-0.336496	-1.223454	-0.701487
O28	O	0.163504	-0.723454	-0.201487
O29	O	-0.281792	-1.514674	-0.898116
O30	O	0.218208	-1.014674	-0.398116
O31	O	-0.452778	-1.468542	-0.633025
O32	O	0.047222	-0.968542	-0.133025
O33	O	-0.433789	-1.374119	-0.727513
O34	O	0.066211	-0.874119	-0.227513
C35	C	-0.306326	-1.179843	-0.638549
C36	C	0.193674	-0.679843	-0.138549
C37	C	-0.297741	-1.076478	-0.620698
C38	C	0.202259	-0.576478	-0.120698
C39	C	-0.462253	-1.421337	-0.680284
C40	C	0.037747	-0.921337	-0.180284
C41	C	-0.520368	-1.421371	-0.680311
C42	C	-0.020368	-0.921371	-0.180311
C43	C	-0.387765	-0.826245	-0.807872
C44	C	0.112235	-0.326245	-0.307872
C45	C	-0.395836	-0.923361	-0.824642
C46	C	0.104164	-0.423361	-0.324642
C47	C	-0.371313	-0.961645	-0.773658
C48	C	0.128687	-0.461645	-0.273658
C49	C	-0.338718	-0.902803	-0.705901
C50	C	0.161282	-0.402803	-0.205901
C51	C	-0.330650	-0.805677	-0.689125
C52	C	0.169350	-0.305677	-0.189125
C53	C	-0.314197	-0.941077	-0.654910
C54	C	0.185803	-0.441077	-0.154910
C55	C	-0.281602	-0.882235	-0.587153
C56	C	0.218398	-0.382235	-0.087153
C57	C	-0.273535	-0.785119	-0.570380
C58	C	0.226465	-0.285119	-0.070380
C59	C	-0.298059	-0.746834	-0.621364
C60	C	0.201941	-0.246834	-0.121364
C61	C	-0.322265	-1.038203	-0.671686
C62	C	0.177735	-0.538203	-0.171686
C63	C	-0.265149	-1.017635	-0.552938
C64	C	0.234851	-0.517635	-0.052938
C65	C	-0.257079	-0.920519	-0.536169
C66	C	0.242921	-0.420519	-0.036169
C67	C	-0.771518	-1.491270	-0.750157
C68	C	-0.271518	-0.991270	-0.250157
C69	C	-0.716912	-1.491241	-0.750146
C70	C	-0.216912	-0.991241	-0.250146
O71	O	-0.688633	-1.550560	-0.809482
O72	O	-0.188633	-1.050560	-0.309482
N73	N	-0.689649	-1.421475	-0.680341
N74	N	-0.189649	-0.921475	-0.180341
C75	C	-0.716996	-1.351738	-0.610537
C76	C	-0.216996	-0.851738	-0.110537
O77	O	-0.688793	-1.292394	-0.551161
O78	O	-0.188793	-0.792394	-0.051161
C79	C	-0.771602	-1.351772	-0.610546
C80	C	-0.271602	-0.851772	-0.110546
C81	C	-0.798861	-1.421538	-0.680361
C82	C	-0.298861	-0.921538	-0.180361
C83	C	-0.798777	-1.561031	-0.819966
C84	C	-0.298777	-1.061031	-0.319966
C85	C	-0.853379	-1.561059	-0.819979
C86	C	-0.353379	-1.061059	-0.319979
C87	C	-0.880722	-1.491326	-0.750183
C88	C	-0.380722	-0.991326	-0.250183
C89	C	-0.853463	-1.421565	-0.680374
C90	C	-0.353463	-0.921565	-0.180374
C91	C	-0.798949	-1.282040	-0.540740
C92	C	-0.298949	-0.782040	-0.040740
C93	C	-0.853559	-1.282080	-0.540754
C94	C	-0.353559	-0.782080	-0.040754
C95	C	-0.880818	-1.351846	-0.610569
C96	C	-0.380818	-0.851846	-0.110569
C97	C	-0.935408	-1.351861	-0.610590
C98	C	-0.435408	-0.851861	-0.110590
N99	N	-0.962671	-1.421627	-0.680395
N100	N	-0.462671	-0.921627	-0.180395
C101	C	-0.935328	-1.491360	-0.750191
C102	C	-0.435328	-0.991360	-0.250191
C103	C	-0.602321	-1.351673	-0.610523
C104	C	-0.102321	-0.851673	-0.110523
C105	C	-0.547715	-1.351635	-0.610517
C106	C	-0.047715	-0.851635	-0.110517
C107	C	-0.547635	-1.491139	-0.750125
C108	C	-0.047635	-0.991139	-0.250125
C109	C	-0.602241	-1.491173	-0.750134
C110	C	-0.102241	-0.991173	-0.250134
C111	C	-0.629583	-1.421440	-0.680328
C112	C	-0.129583	-0.921440	-0.180328
C113	C	-1.049996	-1.491413	-0.750213
C114	C	-0.549996	-0.991413	-0.250213
C115	C	-1.104603	-1.491432	-0.750222
C116	C	-0.604603	-0.991432	-0.250222
C117	C	-1.104679	-1.351931	-0.610612
C118	C	-0.604679	-0.851931	-0.110612
C119	C	-1.050077	-1.351908	-0.610606
C120	C	-0.550077	-0.851908	-0.110606
C121	C	-1.022737	-1.421657	-0.680411
C122	C	-0.522737	-0.921657	-0.180411
O123	O	-0.963723	-1.292574	-0.551282
O124	O	-0.463723	-0.792574	-0.051282
O125	O	-0.963539	-1.550701	-0.809551
O126	O	-0.463539	-1.050701	-0.309551
C127	C	-0.190056	-1.421631	-0.680396
C128	C	0.309944	-0.921631	-0.180396
C129	C	-0.131946	-1.421699	-0.680426
C130	C	0.368054	-0.921699	-0.180426
C131	C	-0.306269	-1.463535	-0.922914
C132	C	0.193731	-0.963535	-0.422914
C133	C	-0.297682	-1.481461	-1.026289
C134	C	0.202318	-0.981461	-0.526289
C135	C	-0.346588	-0.664038	-0.722262
C136	C	0.153412	-0.164038	-0.222262
C137	C	-0.355174	-0.767402	-0.740112
C138	C	0.144826	-0.267402	-0.240112
C139	C	-0.387434	-1.293934	-1.276486
C140	C	0.112566	-0.793934	-0.776486
C141	C	-0.395498	-1.277083	-1.179358
C142	C	0.104502	-0.777083	-0.679358
C143	C	-0.371045	-1.328176	-1.141086
C144	C	0.128955	-0.828176	-0.641086
C145	C	-0.338526	-1.396123	-1.199952
C146	C	0.161474	-0.896123	-0.699952
C147	C	-0.330458	-1.412971	-1.297089
C148	C	0.169542	-0.912971	-0.797089
C149	C	-0.314069	-1.447213	-1.161688
C150	C	0.185931	-0.947213	-0.661688
C151	C	-0.281550	-1.515160	-1.220554
C152	C	0.218450	-1.015160	-0.720554
C153	C	-0.273483	-1.532005	-1.317681
C154	C	0.226517	-1.032005	-0.817681
C155	C	-0.297936	-1.480912	-1.355953
C156	C	0.202064	-0.980912	-0.855953
C157	C	-0.322137	-1.430365	-1.064552
C158	C	0.177863	-0.930365	-0.564552
C159	C	-0.265161	-1.549402	-1.085154
C160	C	0.234839	-1.049402	-0.585154
C161	C	-0.257097	-1.566253	-1.182282
C162	C	0.242903	-1.066253	-0.682282
C163	C	-0.346458	-1.379621	-0.438695
C164	C	0.153542	-0.879621	0.061305
C165	C	-0.354912	-1.361875	-0.335351
C166	C	0.145088	-0.861875	0.164649
H167	H	-0.348804	-1.086104	-0.726855
H168	H	0.151196	-0.586104	-0.226855
H169	H	-0.230619	-1.621576	-1.230224
H170	H	0.269381	-1.121576	-0.730224
H171	H	-0.245181	-1.048805	-0.511421
H172	H	0.254819	-0.548805	-0.011421
H173	H	-0.377885	-1.040722	-0.787316
H174	H	0.122115	-0.540722	-0.287316
H175	H	-0.624431	-1.547979	-0.806987
H176	H	-0.124431	-1.047979	-0.306987
H177	H	-1.126794	-1.548243	-0.807079
H178	H	-0.626794	-1.048243	-0.307079
H179	H	-0.776762	-1.225231	-0.483890
H180	H	-0.276762	-0.725231	0.016110
C181	C	-0.632391	-1.274946	-0.533736
C182	C	-0.132391	-0.774946	-0.033736
N183	N	-0.655037	-1.217155	-0.475901
N184	N	-0.155037	-0.717155	0.024099
C185	C	-1.019930	-1.568137	-0.827005
C186	C	-0.519930	-1.068137	-0.327005
N187	N	-0.997284	-1.625922	-0.884849
N188	N	-0.497284	-1.125922	-0.384849
H189	H	-0.422376	-0.971263	-0.879807
H190	H	0.077624	-0.471263	-0.379807
H191	H	-0.245247	-1.591003	-1.053993
H192	H	0.254753	-1.091003	-0.553993
C193	C	-0.414739	-0.784124	-0.863943
C194	C	0.085261	-0.284124	-0.363943
N195	N	-0.435058	-0.752398	-0.906179
N196	N	0.064942	-0.252398	-0.406179
C197	C	-0.289174	-0.640003	-0.602936
C198	C	0.210826	-0.140003	-0.102936
N199	N	-0.282480	-0.559538	-0.589061
N200	N	0.217520	-0.059538	-0.089061
H201	H	-0.525523	-1.294817	-0.553676
H202	H	-0.025523	-0.794817	-0.053676
H203	H	-0.875818	-1.225295	-0.483908
H204	H	-0.375818	-0.725295	0.016092
C205	C	-0.414319	-1.237726	-1.318591
C206	C	0.085681	-0.737726	-0.818591
N207	N	-0.434569	-1.195383	-1.350304
N208	N	0.065431	-0.695383	-0.850304
H209	H	-0.247001	-0.737210	-0.515199
H210	H	0.252999	-0.237210	-0.015199
C211	C	-1.020092	-1.275168	-0.533801
C212	C	-0.520092	-0.775168	-0.033801
N213	N	-0.997512	-1.217374	-0.475942
N214	N	-0.497512	-0.717374	0.024058
H215	H	-0.291374	-1.494632	-1.435043
H216	H	0.208626	-0.994632	-0.935043
H217	H	-0.875570	-1.617875	-0.876824
H218	H	-0.375570	-1.117875	-0.376824
H219	H	-0.776520	-1.617820	-0.876803
H220	H	-0.276520	-1.117820	-0.376803
H221	H	-0.230540	-0.872597	-0.481000
H222	H	0.269460	-0.372597	0.019000
H223	H	-0.377614	-1.314452	-1.062000
H224	H	0.122386	-0.814452	-0.562000
H225	H	-0.525362	-1.547921	-0.806956
H226	H	-0.025362	-1.047921	-0.306956
C227	C	-1.134777	-1.275284	-0.533785
C228	C	-0.634777	-0.775284	-0.033785
N229	N	-1.157454	-1.217577	-0.475894
N230	N	-0.657454	-0.717577	0.024106
C231	C	-0.357910	-1.355628	-0.999811
C232	C	0.142090	-0.855628	-0.499811
N233	N	-0.384857	-1.299333	-0.951049
N234	N	0.115143	-0.799333	-0.451049
H235	H	-0.421980	-1.221767	-1.131438
H236	H	0.078020	-0.721767	-0.631438
C237	C	-0.237707	-1.606742	-1.382430
C238	C	0.262293	-1.106742	-0.882430
N239	N	-0.210761	-1.663036	-1.431198
N240	N	0.289239	-1.163036	-0.931198
