data_functionalizedCrystal
_audit_creation_method	'MofGen! by Chris Wilmer'
_symmetry_space_group_name_H-M	'P1'
_symmetry_Int_Tables_number	1
_symmetry_cell_setting	triclinic
loop_
_symmetry_equiv_pos_as_xyz
  x,y,z
_cell_length_a	17.640280
_cell_length_b	19.805407
_cell_length_c	19.805399
_cell_angle_alpha	90.016886
_cell_angle_beta	78.776044
_cell_angle_gamma	101.199888
loop_
_atom_site_label
_atom_site_type_symbol
_atom_site_fract_x
_atom_site_fract_y
_atom_site_fract_z
Zn1	Zn	-0.314670	-1.089264	-0.328319
Zn2	Zn	-0.446848	-1.112096	-0.192280
Zn3	Zn	-0.314695	-0.976088	-0.215139
Zn4	Zn	-0.446803	-0.998946	-0.305434
O5	O	-0.380754	-1.044098	-0.260293
O6	O	-0.332212	-1.187010	-0.310284
O7	O	-0.429347	-1.094043	-0.100590
O8	O	-0.204088	-0.971979	-0.249297
O9	O	-0.429323	-1.203785	-0.210336
O10	O	-0.204069	-1.055129	-0.332450
O11	O	-0.332255	-0.994119	-0.117385
O12	O	-0.332211	-0.884402	-0.227106
O13	O	-0.429246	-1.010938	-0.403192
O14	O	-0.429270	-0.901196	-0.293446
O15	O	-0.332168	-1.077294	-0.420005
O16	O	-0.557446	-1.116208	-0.188146
O17	O	-0.557413	-1.033077	-0.271280
C18	C	-0.380739	-0.868240	-0.260274
C19	C	-0.380751	-0.793010	-0.260278
C20	C	-0.586108	-1.079619	-0.224764
C21	C	-0.673959	-1.094876	-0.209587
C22	C	-0.380699	-1.044118	-0.436845
C23	C	-0.380676	-1.044127	-0.512081
C24	C	-0.962942	-0.928465	-0.375837
C25	C	-1.045492	-0.942803	-0.361554
C26	C	-1.045461	-1.029421	-0.275074
C27	C	-0.962910	-1.015092	-0.289352
C28	C	-0.921657	-0.964613	-0.339734
C29	C	-0.921624	-1.051240	-0.253249
C30	C	-0.839080	-1.036910	-0.267523
C31	C	-0.797821	-0.986431	-0.317901
C32	C	-0.839113	-0.950282	-0.354008
C33	C	-0.962879	-1.101716	-0.202864
C34	C	-0.921593	-1.137864	-0.166761
C35	C	-0.839048	-1.123537	-0.181038
C36	C	-0.797789	-1.073059	-0.231416
C37	C	-0.797756	-1.159686	-0.144931
C38	C	-0.715212	-1.145356	-0.159205
C39	C	-0.715245	-1.058728	-0.245690
C40	C	-0.174598	-1.008457	-0.295976
C41	C	-0.086747	-0.993270	-0.311182
C42	C	-0.380770	-1.220644	-0.260313
C43	C	-0.380776	-1.295877	-0.260321
C44	C	-0.431366	-0.766441	-0.294738
C45	C	-0.431367	-0.695753	-0.294747
C46	C	-0.380758	-0.651635	-0.260292
C47	C	-0.330137	-0.678208	-0.225832
C48	C	-0.330133	-0.748894	-0.225827
C49	C	-0.330155	-0.393138	-0.225851
C50	C	-0.330165	-0.322447	-0.225857
C51	C	-0.431390	-0.339996	-0.294771
C52	C	-0.431385	-0.410683	-0.294767
C53	C	-0.380762	-0.437249	-0.260309
C54	C	-0.380760	-0.513897	-0.260301
C55	C	-0.380763	-0.574989	-0.260296
C56	C	-0.330115	-0.992108	-0.556171
C57	C	-0.330100	-0.992115	-0.626862
C58	C	-0.380642	-1.044144	-0.653463
C59	C	-0.431208	-1.096166	-0.609367
C60	C	-0.431227	-1.096156	-0.538677
C61	C	-0.431134	-1.096207	-0.894454
C62	C	-0.431109	-1.096214	-0.965150
C63	C	-0.330007	-0.992165	-0.982639
C64	C	-0.330026	-0.992155	-0.911948
C65	C	-0.380595	-1.044175	-0.867859
C66	C	-0.380612	-1.044166	-0.791207
C67	C	-0.380621	-1.044156	-0.730114
C68	C	-0.380752	-1.044107	-0.084437
C69	C	-0.380552	-1.044191	-0.009240
H70	H	-0.681655	-1.017628	-0.286721
H71	H	-0.288931	-0.949753	-0.662757
H72	H	-0.472364	-1.138526	-0.631031
H73	H	-0.472581	-0.802358	-0.322792
H74	H	-0.472606	-0.318358	-0.322831
H75	H	-0.681597	-1.174791	-0.129805
H76	H	-0.472584	-0.674125	-0.322807
H77	H	-0.288913	-0.770524	-0.197771
H78	H	-0.472599	-0.446601	-0.322820
H79	H	-0.929352	-0.887364	-0.416868
H80	H	-0.288941	-0.414760	-0.197788
H81	H	-0.955193	-1.178962	-0.125738
H82	H	-0.288948	-0.286527	-0.197800
H83	H	-0.288954	-0.949743	-0.534519
H84	H	-0.288927	-0.642281	-0.197781
H85	H	-0.288867	-0.949790	-0.890295
H86	H	-0.288834	-0.949807	-1.018545
H87	H	-0.472270	-1.138584	-0.986805
H88	H	-0.831357	-1.200781	-0.103906
H89	H	-0.472392	-1.138519	-0.502780
H90	H	-0.730609	-0.974760	-0.329517
H91	H	-0.805523	-0.909182	-0.395039
H92	H	-1.079104	-0.913371	-0.390966
H93	H	-1.030092	-1.113383	-0.191245
H94	H	-1.079061	-1.070519	-0.234052
H95	H	-0.472319	-1.138558	-0.858562
