data_functionalizedCrystal
_audit_creation_method	'MofGen! by Chris Wilmer'
_symmetry_space_group_name_H-M	'P1'
_symmetry_Int_Tables_number	1
_symmetry_cell_setting	triclinic
loop_
_symmetry_equiv_pos_as_xyz
  x,y,z
_cell_length_a	16.625546
_cell_length_b	16.625548
_cell_length_c	16.625539
_cell_angle_alpha	89.979432
_cell_angle_beta	90.030397
_cell_angle_gamma	89.976464
loop_
_atom_site_label
_atom_site_type_symbol
_atom_site_fract_x
_atom_site_fract_y
_atom_site_fract_z
Zn1	Zn	-0.320977	-1.232680	0.455898
Zn2	Zn	-0.070977	-0.982680	0.705898
Zn3	Zn	0.179023	-0.732680	0.955898
Zn4	Zn	0.429023	-0.482680	1.205898
Zn5	Zn	-0.455820	-1.232584	0.321060
Zn6	Zn	-0.205820	-0.982584	0.571060
Zn7	Zn	0.044180	-0.732584	0.821060
Zn8	Zn	0.294180	-0.482584	1.071060
Zn9	Zn	-0.321008	-1.097842	0.321078
Zn10	Zn	-0.071008	-0.847842	0.571078
Zn11	Zn	0.178992	-0.597842	0.821078
Zn12	Zn	0.428992	-0.347842	1.071078
Zn13	Zn	-0.455774	-1.097813	0.455850
Zn14	Zn	-0.205774	-0.847813	0.705850
Zn15	Zn	0.044226	-0.597813	0.955850
Zn16	Zn	0.294226	-0.347813	1.205850
O17	O	-0.388395	-1.165230	0.388471
O18	O	-0.138395	-0.915230	0.638471
O19	O	0.111605	-0.665230	0.888471
O20	O	0.361605	-0.415230	1.138471
O21	O	-0.338871	-1.345500	0.438024
O22	O	-0.088871	-1.095500	0.688024
O23	O	0.161129	-0.845500	0.938024
O24	O	0.411129	-0.595500	1.188024
O25	O	-0.437969	-1.214682	0.208230
O26	O	-0.187969	-0.964682	0.458230
O27	O	0.062031	-0.714682	0.708230
O28	O	0.312031	-0.464682	0.958230
O29	O	-0.208171	-1.115782	0.338990
O30	O	0.041829	-0.865782	0.588990
O31	O	0.291829	-0.615782	0.838990
O32	O	0.541829	-0.365782	1.088990
O33	O	-0.437940	-1.345429	0.338959
O34	O	-0.187940	-1.095429	0.588959
O35	O	0.062060	-0.845429	0.838959
O36	O	0.312060	-0.595429	1.088959
O37	O	-0.208149	-1.214847	0.438041
O38	O	0.041851	-0.964847	0.688041
O39	O	0.291851	-0.714847	0.938041
O40	O	0.541851	-0.464847	1.188041
O41	O	-0.338923	-1.115688	0.208243
O42	O	-0.088923	-0.865688	0.458243
O43	O	0.161077	-0.615688	0.708243
O44	O	0.411077	-0.365688	0.958243
O45	O	-0.338878	-0.985006	0.338944
O46	O	-0.088878	-0.735006	0.588944
O47	O	0.161122	-0.485006	0.838944
O48	O	0.411122	-0.235006	1.088944
O49	O	-0.437861	-1.115731	0.568689
O50	O	-0.187861	-0.865731	0.818689
O51	O	0.062139	-0.615731	1.068689
O52	O	0.312139	-0.365731	1.318689
O53	O	-0.437890	-0.984984	0.437960
O54	O	-0.187890	-0.734984	0.687960
O55	O	0.062110	-0.484984	0.937960
O56	O	0.312110	-0.234984	1.187960
O57	O	-0.338826	-1.214818	0.568724
O58	O	-0.088826	-0.964818	0.818724
O59	O	0.161174	-0.714818	1.068724
O60	O	0.411174	-0.464818	1.318724
O61	O	-0.568647	-1.214653	0.338912
O62	O	-0.318647	-0.964653	0.588912
O63	O	-0.068647	-0.714653	0.838912
O64	O	0.181353	-0.464653	1.088912
O65	O	-0.568613	-1.115637	0.437942
O66	O	-0.318613	-0.865637	0.687942
O67	O	-0.068613	-0.615637	0.937942
O68	O	0.181387	-0.365637	1.187942
C69	C	-0.388383	-0.955739	0.388449
C70	C	-0.138383	-0.705739	0.638449
C71	C	0.111617	-0.455739	0.888449
C72	C	0.361617	-0.205739	1.138449
C73	C	-0.388398	-0.866118	0.388458
C74	C	-0.138398	-0.616118	0.638458
C75	C	0.111602	-0.366118	0.888458
C76	C	0.361602	-0.116118	1.138458
C77	C	-0.597886	-1.165153	0.388438
C78	C	-0.347886	-0.915153	0.638438
C79	C	-0.097886	-0.665153	0.888438
C80	C	0.152114	-0.415153	1.138438
C81	C	-0.687507	-1.165195	0.388450
C82	C	-0.437507	-0.915195	0.638450
C83	C	-0.187507	-0.665195	0.888450
C84	C	0.062493	-0.415195	1.138450
C85	C	-0.388335	-1.165282	0.598780
C86	C	-0.138335	-0.915282	0.848780
C87	C	0.111665	-0.665282	1.098780
C88	C	0.361665	-0.415282	1.348780
C89	C	-0.388309	-1.165305	0.688402
C90	C	-0.138309	-0.915305	0.938402
C91	C	0.111691	-0.665305	1.188402
C92	C	0.361691	-0.415305	1.438402
C93	C	-1.015682	-1.165335	0.388534
C94	C	-0.765682	-0.915335	0.638534
C95	C	-0.515682	-0.665335	0.888534
C96	C	-0.265682	-0.415335	1.138534
C97	C	-0.924374	-1.165294	0.388513
C98	C	-0.674374	-0.915294	0.638513
C99	C	-0.424374	-0.665294	0.888513
C100	C	-0.174374	-0.415294	1.138513
C101	C	-0.851598	-1.165264	0.388492
C102	C	-0.601598	-0.915264	0.638492
C103	C	-0.351598	-0.665264	0.888492
C104	C	-0.101598	-0.415264	1.138492
C105	C	-0.760283	-1.165224	0.388471
C106	C	-0.510283	-0.915224	0.638471
C107	C	-0.260283	-0.665224	0.888471
C108	C	-0.010283	-0.415224	1.138471
C109	C	-0.178086	-1.165328	0.388523
C110	C	0.071914	-0.915328	0.638523
C111	C	0.321914	-0.665328	0.888523
C112	C	0.571914	-0.415328	1.138523
C113	C	-0.088465	-1.165370	0.388545
C114	C	0.161535	-0.915370	0.638545
C115	C	0.411535	-0.665370	0.888545
C116	C	0.661535	-0.415370	1.138545
C117	C	-0.388407	-1.375539	0.388494
C118	C	-0.138407	-1.125539	0.638494
C119	C	0.111593	-0.875539	0.888494
C120	C	0.361593	-0.625539	1.138494
C121	C	-0.388412	-1.465160	0.388504
C122	C	-0.138412	-1.215160	0.638504
C123	C	0.111588	-0.965160	0.888504
C124	C	0.361588	-0.715160	1.138504
C125	C	-0.388403	-0.537942	0.388493
C126	C	-0.138403	-0.287942	0.638493
C127	C	0.111597	-0.037942	0.888493
C128	C	0.361597	0.212058	1.138493
C129	C	-0.388399	-0.629251	0.388481
C130	C	-0.138399	-0.379251	0.638481
C131	C	0.111601	-0.129251	0.888481
C132	C	0.361601	0.120749	1.138481
C133	C	-0.388401	-0.702027	0.388475
C134	C	-0.138401	-0.452027	0.638475
C135	C	0.111599	-0.202027	0.888475
C136	C	0.361599	0.047973	1.138475
C137	C	-0.388396	-0.793341	0.388464
C138	C	-0.138396	-0.543341	0.638464
C139	C	0.111604	-0.293341	0.888464
C140	C	0.361604	-0.043341	1.138464
C141	C	-0.388397	-1.165224	0.178981
C142	C	-0.138397	-0.915224	0.428981
C143	C	0.111603	-0.665224	0.678981
C144	C	0.361603	-0.415224	0.928981
C145	C	-0.388195	-1.165358	0.089360
C146	C	-0.138195	-0.915358	0.339360
C147	C	0.111805	-0.665358	0.589360
C148	C	0.361805	-0.415358	0.839360
C149	C	-0.388219	-1.165342	1.016577
C150	C	-0.138219	-0.915342	1.266577
C151	C	0.111781	-0.665342	1.516577
C152	C	0.361781	-0.415342	1.766577
C153	C	-0.388247	-1.165329	0.925269
C154	C	-0.138247	-0.915329	1.175269
C155	C	0.111753	-0.665329	1.425269
C156	C	0.361753	-0.415329	1.675269
C157	C	-0.388265	-1.165324	0.852492
C158	C	-0.138265	-0.915324	1.102492
C159	C	0.111735	-0.665324	1.352492
C160	C	0.361735	-0.415324	1.602492
C161	C	-0.388291	-1.165310	0.761178
C162	C	-0.138291	-0.915310	1.011178
C163	C	0.111709	-0.665310	1.261178
C164	C	0.361709	-0.415310	1.511178
