data_functionalizedCrystal
_audit_creation_method	'MofGen! by Chris Wilmer'
_symmetry_space_group_name_H-M	'P1'
_symmetry_Int_Tables_number	1
_symmetry_cell_setting	triclinic
loop_
_symmetry_equiv_pos_as_xyz
  x,y,z
_cell_length_a	16.625546
_cell_length_b	12.827893
_cell_length_c	12.827885
_cell_angle_alpha	89.978811
_cell_angle_beta	90.035124
_cell_angle_gamma	89.979513
loop_
_atom_site_label
_atom_site_type_symbol
_atom_site_fract_x
_atom_site_fract_y
_atom_site_fract_z
Zn1	Zn	-0.321005	-1.597618	0.590863
Zn2	Zn	0.012328	-1.264285	0.924197
Zn3	Zn	0.345661	-0.930952	1.257530
Zn4	Zn	-0.455859	-1.597491	0.416107
Zn5	Zn	-0.122526	-1.264157	0.749441
Zn6	Zn	0.210807	-0.930824	1.082774
Zn7	Zn	-0.321040	-1.422860	0.416131
Zn8	Zn	0.012293	-1.089526	0.749464
Zn9	Zn	0.345627	-0.756193	1.082798
Zn10	Zn	-0.455795	-1.422823	0.590801
Zn11	Zn	-0.122462	-1.089490	0.924135
Zn12	Zn	0.210872	-0.756157	1.257468
O13	O	-0.388425	-1.510198	0.503476
O14	O	-0.055091	-1.176865	0.836809
O15	O	0.278242	-0.843531	1.170142
O16	O	-0.338906	-1.743837	0.567697
O17	O	-0.005573	-1.410504	0.901031
O18	O	0.327760	-1.077171	1.234364
O19	O	-0.438017	-1.574287	0.269874
O20	O	-0.104684	-1.240954	0.603208
O21	O	0.228650	-0.907621	0.936541
O22	O	-0.208203	-1.446110	0.439346
O23	O	0.125131	-1.112777	0.772679
O24	O	0.458464	-0.779444	1.106012
O25	O	-0.437983	-1.743744	0.439305
O26	O	-0.104650	-1.410410	0.772638
O27	O	0.228683	-1.077077	1.105972
O28	O	-0.208177	-1.574505	0.567721
O29	O	0.125156	-1.241171	0.901054
O30	O	0.458489	-0.907838	1.234387
O31	O	-0.338965	-1.445987	0.269892
O32	O	-0.005632	-1.112653	0.603225
O33	O	0.327701	-0.779320	0.936558
O34	O	-0.338903	-1.276619	0.439286
O35	O	-0.005570	-0.943285	0.772619
O36	O	0.327764	-0.609952	1.105952
O37	O	-0.437873	-1.446048	0.737046
O38	O	-0.104540	-1.112715	1.070379
O39	O	0.228794	-0.779382	1.403712
O40	O	-0.437907	-1.276592	0.567615
O41	O	-0.104573	-0.943259	0.900948
O42	O	0.228760	-0.609925	1.234282
O43	O	-0.338844	-1.574469	0.737091
O44	O	-0.005510	-1.241136	1.070425
O45	O	0.327823	-0.907803	1.403758
O46	O	-0.568683	-1.574252	0.439245
O47	O	-0.235350	-1.240919	0.772578
O48	O	0.097983	-0.907586	1.105912
O49	O	-0.568636	-1.445925	0.567592
O50	O	-0.235302	-1.112591	0.900925
O51	O	0.098031	-0.779258	1.234259
C52	C	-0.388402	-1.238688	0.503447
C53	C	-0.055069	-0.905355	0.836780
C54	C	0.278265	-0.572021	1.170114
C55	C	-0.388412	-1.122535	0.503459
C56	C	-0.055079	-0.789202	0.836793
C57	C	0.278255	-0.455868	1.170126
C58	C	-0.597916	-1.510099	0.503432
C59	C	-0.264582	-1.176766	0.836765
C60	C	0.068751	-0.843432	1.170099
C61	C	-0.687537	-1.510152	0.503448
C62	C	-0.354203	-1.176819	0.836782
C63	C	-0.020870	-0.843486	1.170115
C64	C	-0.437477	-1.070765	0.566861
C65	C	-0.104144	-0.737431	0.900194
C66	C	0.229189	-0.404098	1.233528
C67	C	-0.437488	-0.950714	0.566875
C68	C	-0.104155	-0.617381	0.900209
C69	C	0.229178	-0.284048	1.233542
C70	C	-1.015712	-1.510335	0.503557
C71	C	-0.682379	-1.177001	0.836890
C72	C	-0.349046	-0.843668	1.170224
C73	C	-0.924404	-1.510281	0.503530
C74	C	-0.591071	-1.176947	0.836863
C75	C	-0.257737	-0.843614	1.170196
C76	C	-0.851627	-1.510243	0.503502
C77	C	-0.518294	-1.176909	0.836835
C78	C	-0.184961	-0.843576	1.170169
C79	C	-0.760313	-1.510190	0.503476
C80	C	-0.426980	-1.176857	0.836809
C81	C	-0.093647	-0.843524	1.170143
C82	C	-0.178116	-1.510326	0.503543
C83	C	0.155217	-1.176992	0.836876
C84	C	0.488551	-0.843659	1.170209
C85	C	-0.088495	-1.510380	0.503571
C86	C	0.244839	-1.177047	0.836904
C87	C	0.578172	-0.843713	1.170238
C88	C	-0.388347	-1.510269	0.776046
C89	C	-0.055014	-1.176936	1.109379
C90	C	0.278319	-0.843602	1.442713
C91	C	-0.388314	-1.510299	0.892199
C92	C	-0.054981	-1.176966	1.225533
C93	C	0.278352	-0.843633	1.558866
C94	C	-0.388442	-0.782768	0.503497
C95	C	-0.055108	-0.449435	0.836830
C96	C	0.278225	-0.116101	1.170164
C97	C	-0.388432	-0.898921	0.503485
C98	C	-0.055099	-0.565588	0.836818
C99	C	0.278235	-0.232255	1.170151
C100	C	-0.388444	-1.510187	0.231966
C101	C	-0.055110	-1.176854	0.565299
C102	C	0.278223	-0.843521	0.898633
C103	C	-0.388250	-1.510359	0.115813
C104	C	-0.054916	-1.177026	0.449147
C105	C	0.278417	-0.843693	0.782480
C106	C	-0.339302	-1.573853	0.944007
C107	C	-0.005969	-1.240520	1.277340
C108	C	0.327365	-0.907186	1.610673
C109	C	-0.339267	-1.573886	1.064057
C110	C	-0.005933	-1.240553	1.397390
C111	C	0.327400	-0.907219	1.730724
H112	H	-0.479473	-1.115319	0.621135
H113	H	-0.146140	-0.781986	0.954468
H114	H	0.187194	-0.448652	1.287801
H115	H	-0.297308	-1.628300	1.108610
H116	H	0.036025	-1.294967	1.441943
H117	H	0.369359	-0.961633	1.775277
H118	H	-0.346410	-1.077981	0.449193
H119	H	-0.013077	-0.744647	0.782527
H120	H	0.320256	-0.411314	1.115860
H121	H	-0.430216	-1.455950	1.071267
H122	H	-0.096883	-1.122616	1.404600
H123	H	0.236450	-0.789283	1.737934
F124	F	-0.492401	-0.892526	0.637822
F125	F	-0.159067	-0.559192	0.971155
F126	F	0.174266	-0.225859	1.304488
H127	H	-0.346426	-0.943436	0.449198
H128	H	-0.013092	-0.610102	0.782531
H129	H	0.320241	-0.276769	1.115864
F130	F	-0.284471	-1.644921	0.885818
F131	F	0.048862	-1.311588	1.219151
F132	F	0.382196	-0.978255	1.552484
H133	H	-0.430244	-1.455906	0.936722
H134	H	-0.096911	-1.122573	1.270055
H135	H	0.236422	-0.789240	1.603389
