data_functionalizedCrystal
_audit_creation_method	'MofGen! by Chris Wilmer'
_symmetry_space_group_name_H-M	'P1'
_symmetry_Int_Tables_number	1
_symmetry_cell_setting	triclinic
loop_
_symmetry_equiv_pos_as_xyz
  x,y,z
_cell_length_a	19.805407
_cell_length_b	29.839131
_cell_length_c	19.805407
_cell_angle_alpha	90.015304
_cell_angle_beta	90.009221
_cell_angle_gamma	90.041420
loop_
_atom_site_label
_atom_site_type_symbol
_atom_site_fract_x
_atom_site_fract_y
_atom_site_fract_z
Zn1	Zn	1.034596	-0.178927	0.382710
Zn2	Zn	1.367929	0.154406	0.716043
Zn3	Zn	1.701263	0.487740	1.049377
Zn4	Zn	1.034502	-0.254036	0.269518
Zn5	Zn	1.367835	0.079297	0.602851
Zn6	Zn	1.701168	0.412631	0.936185
Zn7	Zn	0.921431	-0.178921	0.269535
Zn8	Zn	1.254764	0.154413	0.602868
Zn9	Zn	1.588098	0.487746	0.936201
Zn10	Zn	0.921344	-0.254031	0.382665
Zn11	Zn	1.254678	0.079303	0.715998
Zn12	Zn	1.588011	0.412636	1.049331
O13	O	0.977968	-0.216479	0.326107
O14	O	1.311302	0.116855	0.659440
O15	O	1.644635	0.450188	0.992774
O16	O	1.129300	-0.188895	0.367707
O17	O	1.462633	0.144438	0.701040
O18	O	1.795967	0.477772	1.034374
O19	O	1.019499	-0.244071	0.174804
O20	O	1.352833	0.089262	0.508137
O21	O	1.686166	0.422595	0.841470
O22	O	0.936518	-0.116054	0.284574
O23	O	1.269852	0.217279	0.617907
O24	O	1.603185	0.550612	0.951240
O25	O	1.129231	-0.244077	0.284545
O26	O	1.462564	0.089256	0.617878
O27	O	1.795897	0.422589	0.951212
O28	O	1.019660	-0.116059	0.367723
O29	O	1.352993	0.217274	0.701056
O30	O	1.686327	0.550608	1.034390
O31	O	0.936427	-0.188884	0.174816
O32	O	1.269760	0.144449	0.508149
O33	O	1.603093	0.477782	0.841483
O34	O	0.826703	-0.188879	0.284530
O35	O	1.160036	0.144454	0.617863
O36	O	1.493370	0.477787	0.951196
O37	O	0.936371	-0.244069	0.477387
O38	O	1.269704	0.089265	0.810721
O39	O	1.603037	0.422598	1.144054
O40	O	0.826639	-0.244062	0.367646
O41	O	1.159973	0.089271	0.700979
O42	O	1.493306	0.422604	1.034312
O43	O	1.019576	-0.188890	0.477421
O44	O	1.352909	0.144443	0.810754
O45	O	1.686243	0.477777	1.144087
O46	O	1.019415	-0.316902	0.284501
O47	O	1.352749	0.016431	0.617834
O48	O	1.686082	0.349764	0.951168
O49	O	0.936279	-0.316899	0.367629
O50	O	1.269613	0.016435	0.700963
O51	O	1.602946	0.349768	1.034296
C52	C	0.802112	-0.216470	0.326085
C53	C	1.135446	0.116863	0.659418
C54	C	1.468779	0.450197	0.992752
C55	C	0.726880	-0.216477	0.326092
C56	C	1.060214	0.116856	0.659425
C57	C	1.393547	0.450190	0.992758
C58	C	0.691521	-0.245254	0.369300
C59	C	1.024854	0.088079	0.702633
C60	C	1.358187	0.421413	1.035967
C61	C	0.620832	-0.245255	0.369310
C62	C	0.954165	0.088078	0.702643
C63	C	1.287499	0.421412	1.035976
C64	C	0.585505	-0.216481	0.326107
C65	C	0.918838	0.116853	0.659440
C66	C	1.252171	0.450186	0.992773
C67	C	0.620869	-0.187700	0.282896
C68	C	0.954202	0.145633	0.616230
C69	C	1.287536	0.478966	0.949563
C70	C	0.691556	-0.187698	0.282891
C71	C	1.024890	0.145636	0.616224
C72	C	1.358223	0.478969	0.949558
C73	C	0.335796	-0.187710	0.282919
C74	C	0.669129	0.145623	0.616252
C75	C	1.002462	0.478956	0.949585
C76	C	0.265104	-0.187716	0.282926
C77	C	0.598437	0.145617	0.616260
C78	C	0.931770	0.478950	0.949593
C79	C	0.265072	-0.245268	0.369338
C80	C	0.598405	0.088066	0.702671
C81	C	0.931738	0.421399	1.036004
C82	C	0.335759	-0.245265	0.369332
C83	C	0.669092	0.088068	0.702665
C84	C	1.002426	0.421402	1.035999
C85	C	0.371117	-0.216483	0.326125
C86	C	0.704451	0.116850	0.659458
C87	C	1.037784	0.450183	0.992791
C88	C	0.447766	-0.216482	0.326116
C89	C	0.781099	0.116851	0.659449
C90	C	1.114432	0.450185	0.992782
C91	C	0.508857	-0.216484	0.326112
C92	C	0.842191	0.116850	0.659445
C93	C	1.175524	0.450183	0.992778
C94	C	0.977846	-0.333201	0.326073
C95	C	1.311179	0.000132	0.659407
C96	C	1.644513	0.333466	0.992740
C97	C	0.977856	-0.383136	0.326082
C98	C	1.311189	-0.049802	0.659415
C99	C	1.644522	0.283531	0.992748
C100	C	1.021336	-0.692768	0.282885
C101	C	1.354669	-0.359435	0.616218
C102	C	1.688002	-0.026102	0.949552
C103	C	1.021419	-0.880441	0.282911
C104	C	1.354753	-0.547108	0.616245
C105	C	1.688086	-0.213775	0.949578
O106	O	1.058291	-0.904697	0.246158
O107	O	1.391624	-0.571364	0.579492
O108	O	1.724957	-0.238030	0.912825
N109	N	0.978109	-0.903921	0.326158
N110	N	1.311442	-0.570587	0.659491
N111	N	1.644775	-0.237254	0.992825
C112	C	0.934777	-0.880479	0.369404
C113	C	1.268110	-0.547145	0.702737
C114	C	1.601444	-0.213812	1.036071
O115	O	0.897945	-0.904756	0.406193
O116	O	1.231278	-0.571422	0.739527
O117	O	1.564612	-0.238089	1.072860
C118	C	0.934697	-0.692807	0.369381
C119	C	1.268031	-0.359473	0.702714
C120	C	1.601364	-0.026140	1.036047
C121	C	0.978006	-0.669330	0.326127
C122	C	1.311339	-0.335996	0.659460
C123	C	1.644673	-0.002663	0.992793
C124	C	1.064642	-0.669291	0.239635
C125	C	1.397975	-0.335958	0.572968
C126	C	1.731308	-0.002625	0.906302
C127	C	1.064618	-0.622376	0.239626
C128	C	1.397951	-0.289043	0.572960
C129	C	1.731284	0.044291	0.906293
C130	C	1.021288	-0.598937	0.282868
C131	C	1.354621	-0.265604	0.616201
C132	C	1.687955	0.067729	0.949534
C133	C	0.977982	-0.622414	0.326118
C134	C	1.311315	-0.289081	0.659451
C135	C	1.644649	0.044252	0.992784
C136	C	0.891369	-0.669366	0.412630
C137	C	1.224703	-0.336032	0.745963
C138	C	1.558036	-0.002699	1.079296
C139	C	0.891355	-0.622445	0.412621
C140	C	1.224688	-0.289111	0.745955
C141	C	1.558021	0.044222	1.079288
C142	C	0.934663	-0.598968	0.369367
C143	C	1.267997	-0.265634	0.702700
C144	C	1.601330	0.067699	1.036034
C145	C	0.934628	-0.552060	0.369350
C146	C	1.267962	-0.218727	0.702684
C147	C	1.601295	0.114606	1.036017
N148	N	0.977939	-0.528581	0.326104
N149	N	1.311273	-0.195248	0.659437
N150	N	1.644606	0.138086	0.992771
C151	C	1.021269	-0.552020	0.282863
C152	C	1.354602	-0.218686	0.616196
C153	C	1.687936	0.114647	0.949529
C154	C	0.934821	-0.979009	0.369412
C155	C	1.268154	-0.645676	0.702746
C156	C	1.601487	-0.312343	1.036079
C157	C	0.934840	-1.025927	0.369417
C158	C	1.268173	-0.692594	0.702751
C159	C	1.601506	-0.359261	1.036084
C160	C	1.021483	-1.025887	0.282926
C161	C	1.354817	-0.692553	0.616259
C162	C	1.688150	-0.359220	0.949592
C163	C	1.021460	-0.978968	0.282917
C164	C	1.354794	-0.645634	0.616251
C165	C	1.688127	-0.312301	0.949584
C166	C	0.978132	-0.955530	0.326166
C167	C	1.311465	-0.622197	0.659499
C168	C	1.644798	-0.288863	0.992832
C169	C	1.021215	-0.453494	0.282847
C170	C	1.354548	-0.120160	0.616180
C171	C	1.687882	0.213173	0.949514
C172	C	1.021185	-0.406574	0.282840
C173	C	1.354519	-0.073241	0.616174
C174	C	1.687852	0.260093	0.949507
C175	C	0.934545	-0.406619	0.369334
C176	C	1.267878	-0.073286	0.702668
C177	C	1.601211	0.260048	1.036001
C178	C	0.934572	-0.453534	0.369339
C179	C	1.267905	-0.120201	0.702672
C180	C	1.601238	0.213132	1.036006
C181	C	0.977912	-0.476971	0.326093
C182	C	1.311246	-0.143637	0.659426
C183	C	1.644579	0.189696	0.992760
O184	O	0.897782	-0.527776	0.406089
O185	O	1.231115	-0.194442	0.739423
O186	O	1.564448	0.138891	1.072756
O187	O	1.058106	-0.527735	0.246089
O188	O	1.391439	-0.194401	0.579423
O189	O	1.724772	0.138932	0.912756
C190	C	1.021360	-0.739684	0.282894
C191	C	1.354693	-0.406350	0.616227
C192	C	1.688026	-0.073017	0.949561
C193	C	0.978054	-0.763161	0.326144
C194	C	1.311387	-0.429827	0.659477
C195	C	1.644721	-0.096494	0.992811
C196	C	0.934724	-0.739722	0.369385
C197	C	1.268057	-0.406389	0.702719
C198	C	1.601391	-0.073055	1.036052
C199	C	0.978073	-0.810078	0.326149
C200	C	1.311406	-0.476745	0.659482
C201	C	1.644739	-0.143412	0.992816
C202	C	1.021403	-0.833517	0.282908
C203	C	1.354736	-0.500184	0.616241
C204	C	1.688069	-0.166850	0.949574
C205	C	1.064713	-0.810038	0.239661
C206	C	1.398047	-0.476704	0.572995
C207	C	1.731380	-0.143371	0.906328
C208	C	1.064689	-0.763122	0.239653
C209	C	1.398023	-0.429789	0.572986
C210	C	1.731356	-0.096456	0.906319
C211	C	0.891413	-0.763201	0.412632
C212	C	1.224747	-0.429868	0.745965
C213	C	1.558080	-0.096535	1.079298
C214	C	0.891440	-0.810117	0.412636
C215	C	1.224774	-0.476784	0.745970
C216	C	1.558107	-0.143450	1.079303
C217	C	0.934770	-0.833555	0.369395
C218	C	1.268103	-0.500222	0.702728
C219	C	1.601437	-0.166889	1.036062
C220	C	1.154511	-0.216488	0.326129
C221	C	1.487844	0.116846	0.659463
C222	C	1.821178	0.450179	0.992796
C223	C	1.229743	-0.216491	0.326139
C224	C	1.563076	0.116842	0.659472
C225	C	1.896410	0.450175	0.992805
C226	C	0.977974	-0.216479	0.502650
C227	C	1.311308	0.116854	0.835983
C228	C	1.644641	0.450187	1.169316
C229	C	0.977977	-0.216480	0.577882
C230	C	1.311310	0.116853	0.911215
C231	C	1.644643	0.450187	1.244548
C232	C	0.978109	-0.099300	0.326155
C233	C	1.311443	0.234033	0.659489
C234	C	1.644776	0.567366	0.992822
C235	C	0.978169	-0.049366	0.326176
C236	C	1.311503	0.283968	0.659509
C237	C	1.644836	0.617301	0.992843
C238	C	1.021296	-0.187753	0.613244
C239	C	1.354630	0.145580	0.946577
C240	C	1.687963	0.478914	1.279911
C241	C	1.021291	-0.187752	0.683933
C242	C	1.354624	0.145582	1.017266
C243	C	1.687957	0.478915	1.350599
C244	C	0.977968	-0.216480	0.719257
C245	C	1.311301	0.116854	1.052590
C246	C	1.644635	0.450187	1.385924
C247	C	0.934644	-0.245208	0.683890
C248	C	1.267977	0.088125	1.017223
C249	C	1.601310	0.421459	1.350556
C250	C	0.934647	-0.245207	0.613202
C251	C	1.267980	0.088127	0.946536
C252	C	1.601313	0.421460	1.279869
C253	C	0.934630	-0.245213	0.968963
C254	C	1.267964	0.088120	1.302296
C255	C	1.601297	0.421453	1.635630
C256	C	0.934632	-0.245213	1.039655
C257	C	1.267966	0.088120	1.372988
C258	C	1.601299	0.421453	1.706322
C259	C	1.021274	-0.187758	1.039693
C260	C	1.354608	0.145575	1.373026
C261	C	1.687941	0.478909	1.706360
C262	C	1.021277	-0.187757	0.969006
C263	C	1.354611	0.145577	1.302339
C264	C	1.687944	0.478910	1.635673
C265	C	0.977951	-0.216483	0.933644
C266	C	1.311284	0.116850	1.266978
C267	C	1.644617	0.450184	1.600311
C268	C	0.977957	-0.216484	0.856996
C269	C	1.311290	0.116850	1.190329
C270	C	1.644623	0.450183	1.523663
C271	C	0.977965	-0.216482	0.795904
C272	C	1.311298	0.116852	1.129238
C273	C	1.644632	0.450185	1.462571
C274	C	0.977956	-0.216487	1.150251
C275	C	1.311289	0.116847	1.483584
C276	C	1.644622	0.450180	1.816917
C277	C	0.977949	-0.216484	1.075019
C278	C	1.311282	0.116850	1.408352
C279	C	1.644616	0.450183	1.741686
H280	H	0.592100	-0.164270	0.247723
H281	H	0.925433	0.169063	0.581056
H282	H	1.258766	0.502397	0.914390
H283	H	1.056557	-0.164365	0.940248
H284	H	1.389891	0.168969	1.273581
H285	H	1.723224	0.502302	1.606915
Br286	Br	1.123456	-0.701092	0.180944
Br287	Br	1.456789	-0.367759	0.514277
Br288	Br	1.790123	-0.034425	0.847610
H289	H	0.592046	-0.268688	0.404494
H290	H	0.925379	0.064645	0.737827
H291	H	1.258712	0.397978	1.071160
Br292	Br	0.876051	-1.057783	0.428112
Br293	Br	1.209384	-0.724449	0.761445
Br294	Br	1.542718	-0.391116	1.094778
Br295	Br	0.217159	-0.148663	0.224289
Br296	Br	0.550492	0.184670	0.557623
Br297	Br	0.883826	0.518004	0.890956
Br298	Br	0.383773	-0.148647	0.224284
Br299	Br	0.717107	0.184686	0.557617
Br300	Br	1.050440	0.518020	0.890950
Br301	Br	1.080285	-1.057705	0.224239
Br302	Br	1.413619	-0.724371	0.557572
Br303	Br	1.746952	-0.391038	0.890905
Br304	Br	1.080075	-0.148771	1.087687
Br305	Br	1.413408	0.184563	1.421020
Br306	Br	1.746742	0.517896	1.754354
H307	H	0.899536	-0.959929	0.404631
H308	H	1.232869	-0.626596	0.737965
H309	H	1.566202	-0.293263	1.071298
Br310	Br	1.080100	-0.148766	0.565311
Br311	Br	1.413433	0.184568	0.898644
Br312	Br	1.746767	0.517901	1.231977
H313	H	0.720345	-0.164262	0.247710
H314	H	1.053678	0.169071	0.581043
H315	H	1.387012	0.502405	0.914376
Br316	Br	0.875844	-0.284194	0.731829
Br317	Br	1.209177	0.049139	1.065162
Br318	Br	1.542510	0.382473	1.398496
Br319	Br	1.079964	-0.374715	0.224133
Br320	Br	1.413298	-0.041382	0.557466
Br321	Br	1.746631	0.291951	0.890800
H322	H	0.899364	-0.268595	0.584411
H323	H	1.232698	0.064739	0.917744
H324	H	1.566031	0.398072	1.251078
Br325	Br	0.832656	-0.841972	0.471342
Br326	Br	1.165989	-0.508639	0.804676
Br327	Br	1.499323	-0.175306	1.138009
Br328	Br	0.832604	-0.731399	0.471324
Br329	Br	1.165937	-0.398066	0.804657
Br330	Br	1.499270	-0.064733	1.137991
Br331	Br	0.739458	-0.284311	0.427931
Br332	Br	1.072792	0.049023	0.761264
Br333	Br	1.406125	0.382356	1.094598
H334	H	0.899351	-0.268608	1.068414
H335	H	1.232684	0.064725	1.401748
H336	H	1.566017	0.398059	1.735081
H337	H	1.056509	-0.472570	0.247634
H338	H	1.389842	-0.139237	0.580967
H339	H	1.723175	0.194097	0.914300
Br340	Br	0.383700	-0.284320	0.427962
Br341	Br	0.717033	0.049014	0.761296
Br342	Br	1.050367	0.382347	1.094629
H343	H	0.899361	-0.268611	0.940180
H344	H	1.232694	0.064723	1.273513
H345	H	1.566028	0.398056	1.606847
H346	H	0.236274	-0.268701	0.404522
H347	H	0.569608	0.064632	0.737855
H348	H	0.902941	0.397965	1.071189
Br349	Br	1.080238	-0.947111	0.224213
Br350	Br	1.413571	-0.613778	0.557546
Br351	Br	1.746905	-0.280445	0.890880
Br352	Br	0.832550	-0.590639	0.471322
Br353	Br	1.165884	-0.257306	0.804655
Br354	Br	1.499217	0.076028	1.137988
Br355	Br	1.080116	-0.148784	0.731922
Br356	Br	1.413449	0.184549	1.065256
Br357	Br	1.746782	0.517883	1.398589
H358	H	1.099885	-0.603264	0.204407
H359	H	1.433219	-0.269930	0.537741
H360	H	1.766552	0.063403	0.871074
H361	H	0.899308	-0.472650	0.404562
H362	H	1.232641	-0.139317	0.737895
H363	H	1.565975	0.194016	1.071229
Br364	Br	0.875745	-0.374800	0.428019
Br365	Br	1.209079	-0.041467	0.761352
Br366	Br	1.542412	0.291866	1.094686
Br367	Br	1.123515	-0.841857	0.180974
Br368	Br	1.456848	-0.508523	0.514308
Br369	Br	1.790181	-0.175190	0.847641
H370	H	0.856099	-0.688472	0.447849
H371	H	1.189433	-0.355139	0.781182
H372	H	1.522766	-0.021806	1.114515
H373	H	1.099956	-0.744011	0.204431
H374	H	1.433289	-0.410677	0.537764
H375	H	1.766622	-0.077344	0.871098
