data_functionalizedCrystal
_audit_creation_method	'MofGen! by Chris Wilmer'
_symmetry_space_group_name_H-M	'P1'
_symmetry_Int_Tables_number	1
_symmetry_cell_setting	triclinic
loop_
_symmetry_equiv_pos_as_xyz
  x,y,z
_cell_length_a	15.297475
_cell_length_b	15.297327
_cell_length_c	12.827885
_cell_angle_alpha	99.642715
_cell_angle_beta	80.312948
_cell_angle_gamma	91.625546
loop_
_atom_site_label
_atom_site_type_symbol
_atom_site_fract_x
_atom_site_fract_y
_atom_site_fract_z
Zn1	Zn	1.278711	-0.580728	-0.963115
Zn2	Zn	1.253242	-0.727199	-0.812613
Zn3	Zn	1.132226	-0.555385	-0.753991
Zn4	Zn	1.106853	-0.701761	-0.952916
O5	O	1.192758	-0.641268	-0.870659
O6	O	1.397901	-0.621409	-0.971952
O7	O	1.237150	-0.704447	-0.658600
O8	O	1.172935	-0.436189	-0.761467
O9	O	1.379190	-0.729021	-0.861379
O10	O	1.280557	-0.454808	-0.915109
O11	O	1.148239	-0.578216	-0.615531
O12	O	1.006292	-0.553550	-0.751577
O13	O	1.129690	-0.685666	-1.100505
O14	O	0.987650	-0.661092	-0.897726
O15	O	1.255953	-0.596743	-1.107998
O16	O	1.212546	-0.846382	-0.851489
O17	O	1.104995	-0.827693	-0.954569
C18	C	0.965190	-0.601811	-0.817185
C19	C	0.867832	-0.584953	-0.794336
C20	C	0.554608	-0.761766	-1.033961
C21	C	0.646080	-0.777611	-1.055426
C22	C	0.701523	-0.729448	-0.990156
C23	C	0.665484	-0.665436	-0.903416
C24	C	0.574003	-0.649593	-0.881944
C25	C	0.720917	-0.617276	-0.838139
C26	C	0.684878	-0.553264	-0.751399
C27	C	0.593406	-0.537424	-0.729931
C28	C	0.537963	-0.585587	-0.795202
C29	C	0.812398	-0.633119	-0.859611
C30	C	0.831792	-0.520947	-0.707594
C31	C	0.740321	-0.505101	-0.686129
C32	C	1.153277	-0.868820	-0.908312
C33	C	1.136467	-0.966181	-0.924474
C34	C	1.313263	-1.279456	-0.755586
C35	C	1.329056	-1.187980	-0.740396
C36	C	1.280910	-1.132526	-0.786414
C37	C	1.216968	-1.168557	-0.847626
C38	C	1.201168	-1.260041	-0.862811
C39	C	1.168816	-1.113111	-0.893639
C40	C	1.104874	-1.149141	-0.954850
C41	C	1.089078	-1.240617	-0.970033
C42	C	1.137223	-1.296071	-0.924015
C43	C	1.184616	-1.021627	-0.878454
C44	C	1.072522	-1.002211	-0.985678
C45	C	1.056729	-1.093687	-1.000869
C46	C	1.421215	-0.680879	-0.924342
C47	C	1.518569	-0.697759	-0.947219
C48	C	1.192832	-0.641194	-1.143229
C49	C	1.192864	-0.641163	-1.259382
C50	C	1.232417	-0.412832	-0.832886
C51	C	1.249317	-0.315486	-0.816790
C52	C	1.255350	-0.597152	-1.314874
C53	C	1.255385	-0.597118	-1.434925
C54	C	1.192746	-0.641287	-0.599150
C55	C	1.192926	-0.641101	-0.482996
H56	H	0.564065	-0.485310	-0.659293
H57	H	1.037001	-1.269948	-1.019861
C58	C	0.852035	-0.703523	-0.955024
C59	C	0.822187	-0.800901	-0.959823
C60	C	0.861823	-0.871309	-1.055245
C61	C	0.931308	-0.844338	-1.145867
C62	C	0.961160	-0.746956	-1.141071
C63	C	0.921524	-0.676548	-1.045650
H64	H	0.770747	-0.820870	-0.892736
H65	H	0.839725	-0.943397	-1.058794
H66	H	0.960649	-0.896458	-1.216503
H67	H	1.012600	-0.726987	-1.208158
H68	H	0.943622	-0.604460	-1.042100
C69	C	0.685722	-0.848014	-1.150840
C70	C	0.624744	-0.900988	-1.222642
C71	C	0.664387	-0.971393	-1.318064
C72	C	0.765006	-0.988822	-1.341684
C73	C	0.825990	-0.935846	-1.269880
C74	C	0.786348	-0.865442	-1.174458
H75	H	0.550254	-0.888087	-1.205159
H76	H	0.619242	-1.010609	-1.371217
H77	H	0.794352	-1.040939	-1.412321
H78	H	0.900480	-0.948747	-1.287363
H79	H	0.831492	-0.826225	-1.121304
H80	H	1.139387	-0.678811	-1.300748
H81	H	0.463479	-0.572687	-0.777731
H82	H	0.776003	-0.742353	-1.007639
H83	H	0.710965	-0.452982	-0.615504
C84	C	1.366210	-1.340453	-0.704961
C85	C	1.436543	-1.300829	-0.637630
C86	C	1.489491	-1.361826	-0.586996
C87	C	1.472106	-1.462448	-0.603692
C88	C	1.401769	-1.502078	-0.671026
C89	C	1.348821	-1.441080	-0.721661
H90	H	1.449416	-1.226337	-0.625268
H91	H	1.541560	-1.332489	-0.537150
H92	H	1.511301	-1.507602	-0.566209
H93	H	1.388896	-1.576569	-0.683389
H94	H	1.296752	-1.470417	-0.771506
H95	H	0.509459	-0.800978	-1.087090
C96	C	0.892771	-0.467963	-0.635789
C97	C	0.878934	-0.472811	-0.515179
C98	C	0.939919	-0.419836	-0.443378
C99	C	1.014740	-0.362014	-0.492187
C100	C	1.028580	-0.357164	-0.612803
C101	C	0.967596	-0.410139	-0.684605
H102	H	0.823544	-0.515617	-0.479042
H103	H	0.929673	-0.423427	-0.354089
H104	H	1.059884	-0.322799	-0.439035
H105	H	1.083970	-0.314358	-0.648940
H106	H	0.977842	-0.406548	-0.773893
H107	H	1.293772	-1.058043	-0.774041
H108	H	1.124370	-1.370559	-0.936382
C109	C	1.254953	-0.982000	-0.811132
C110	C	1.227887	-0.912623	-0.709715
C111	C	1.298231	-0.872997	-0.642391
C112	C	1.395641	-0.902749	-0.676485
C113	C	1.422713	-0.972129	-0.777907
C114	C	1.352369	-1.011755	-0.845231
H115	H	1.155773	-0.890596	-0.684472
H116	H	1.278190	-0.821637	-0.567311
H117	H	1.447714	-0.873416	-0.626648
H118	H	1.494826	-0.994157	-0.803150
H119	H	1.372409	-1.063115	-0.920311
C120	C	1.399391	-1.148354	-0.673071
C121	C	1.390109	-1.159790	-0.554702
C122	C	1.460450	-1.120166	-0.487374
C123	C	1.540074	-1.069105	-0.538414
C124	C	1.549360	-1.057666	-0.656789
C125	C	1.479019	-1.097291	-0.724117
H126	H	1.331163	-1.197591	-0.516913
H127	H	1.453575	-1.128634	-0.399744
H128	H	1.592144	-1.039773	-0.488573
H129	H	1.608305	-1.019866	-0.694577
H130	H	1.485893	-1.088822	-0.811747
C131	C	0.986391	-1.133327	-1.068195
C132	C	0.906772	-1.184391	-1.017147
C133	C	0.836435	-1.224032	-1.084473
C134	C	0.845718	-1.212611	-1.202847
C135	C	0.925340	-1.161545	-1.253901
C136	C	0.995676	-1.121903	-1.186574
H137	H	0.899898	-1.192848	-0.929514
H138	H	0.777494	-1.261834	-1.046679
H139	H	0.793650	-1.241956	-1.252686
H140	H	0.932214	-1.153088	-1.341533
H141	H	1.054618	-1.084101	-1.224368
H142	H	1.139429	-0.678787	-1.435296
H143	H	1.033316	-0.957060	-1.023148
C144	C	1.327593	-0.546281	-1.258999
C145	C	1.301490	-0.471010	-1.163643
C146	C	1.373735	-0.420139	-1.107770
C147	C	1.472083	-0.444539	-1.147254
C148	C	1.498191	-0.519814	-1.242615
C149	C	1.425946	-0.570685	-1.298488
H150	H	1.228682	-0.452945	-1.134411
H151	H	1.354408	-0.364416	-1.037178
H152	H	1.525563	-0.406881	-1.105894
H153	H	1.570998	-0.537879	-1.271848
H154	H	1.445273	-0.626408	-1.369081
H155	H	1.308884	-0.559442	-1.482634
