data_functionalizedCrystal
_audit_creation_method	'MofGen! by Chris Wilmer'
_symmetry_space_group_name_H-M	'P1'
_symmetry_Int_Tables_number	1
_symmetry_cell_setting	triclinic
loop_
_symmetry_equiv_pos_as_xyz
  x,y,z
_cell_length_a	10.540558
_cell_length_b	15.186229
_cell_length_c	16.109304
_cell_angle_alpha	90.000934
_cell_angle_beta	96.002113
_cell_angle_gamma	89.997942
loop_
_atom_site_label
_atom_site_type_symbol
_atom_site_fract_x
_atom_site_fract_y
_atom_site_fract_z
O1	O	-1.684202	0.073196	0.117239
O2	O	-1.314635	0.073203	0.128262
O3	O	-1.509569	0.073200	0.001782
O4	O	-1.489268	0.073200	0.243719
O5	O	-1.509556	-0.073257	0.001780
O6	O	-1.314622	-0.073254	0.128260
O7	O	-1.684189	-0.073261	0.117237
Zn8	Zn	-1.499404	-0.096511	0.122748
Zn9	Zn	-1.499421	0.096453	0.122751
O10	O	-1.489255	-0.073258	0.243717
C11	C	-1.267338	-0.000024	0.127431
C12	C	-1.126426	-0.000021	0.124948
N13	N	-1.499401	-0.228203	0.122746
C14	C	-0.944353	-0.000365	0.030030
C15	C	-1.090934	-0.000024	0.032548
C16	C	-1.064128	0.083609	0.169413
C17	C	-0.917630	0.083669	0.166253
C18	C	-0.917100	-0.082881	0.168131
C19	C	-1.064069	-0.083976	0.168988
C20	C	-1.585747	-0.453928	0.066760
C21	C	-1.585751	-0.546117	0.066758
C22	C	-1.413078	-0.546123	0.178735
C23	C	-1.413069	-0.453935	0.178733
C24	C	-1.499411	-0.407840	0.122746
C25	C	-1.499424	-0.592218	0.122747
C26	C	-1.499427	-0.692174	0.122745
C27	C	-1.499406	-0.307877	0.122746
C28	C	-0.731489	-0.000033	0.118057
C29	C	-0.872407	-0.000037	0.120507
C30	C	-1.508740	-0.000026	-0.029199
C31	C	-1.506272	-0.000020	-0.121509
N32	N	-1.499433	0.228146	0.122747
C33	C	-1.500579	0.079810	-0.333880
C34	C	-1.498249	0.079810	-0.420615
C35	C	-1.498241	-0.079866	-0.420614
C36	C	-1.500562	-0.079864	-0.333880
C37	C	-1.501738	-0.000024	-0.290516
C38	C	-1.497087	-0.000026	-0.463984
C39	C	-1.494560	-0.000028	-0.558026
C40	C	-1.504262	-0.000022	-0.196469
C41	C	-1.490085	-0.000029	0.274698
C42	C	-1.492552	-0.000029	0.367008
H43	H	-0.916282	-0.060342	-0.006474
N44	N	-1.501783	0.161370	-0.289598
N45	N	-1.500749	0.232644	-0.328330
H46	H	-1.501598	0.290249	-0.297058
N47	N	-1.673916	-0.593199	0.009557
N48	N	-1.633652	-0.644632	-0.042310
H49	H	-1.695915	-0.677882	-0.082717
H50	H	-1.497287	-0.144870	-0.455932
H51	H	-1.342782	-0.583664	0.224319
N52	N	-1.501732	-0.161426	-0.289591
N53	N	-1.500689	-0.232705	-0.328317
H54	H	-1.501510	-0.290306	-0.297037
N55	N	-1.324856	-0.406866	0.235924
N56	N	-1.247777	-0.448030	0.285910
H57	H	-1.185475	-0.414788	0.326298
N58	N	-0.878069	-0.162418	0.130631
N59	N	-0.806443	-0.215354	0.172386
H60	H	-0.778878	-0.271525	0.145896
H61	H	-1.497303	0.144818	-0.455918
H62	H	-1.134040	-0.059974	-0.002439
H63	H	-0.914669	0.059277	-0.006318
H64	H	-1.105488	-0.145845	0.136505
H65	H	-0.889894	0.146183	0.133388
N66	N	-1.143930	0.075317	-0.011651
N67	N	-1.072643	0.127814	-0.044449
H68	H	-1.110070	0.181029	-0.075665
H69	H	-1.656050	-0.416399	0.021171
H70	H	-0.868715	0.087464	0.232703
H71	H	-1.085515	0.086721	0.237269
H72	H	-1.107162	0.145850	0.138526
H73	H	-1.087335	-0.089025	0.236354
H74	H	-0.868923	-0.083446	0.234867
