data_functionalizedCrystal
_audit_creation_method	'MofGen! by Chris Wilmer'
_symmetry_space_group_name_H-M	'P1'
_symmetry_Int_Tables_number	1
_symmetry_cell_setting	triclinic
loop_
_symmetry_equiv_pos_as_xyz
  x,y,z
_cell_length_a	16.120484
_cell_length_b	12.759395
_cell_length_c	12.759387
_cell_angle_alpha	89.982262
_cell_angle_beta	92.862335
_cell_angle_gamma	92.925231
loop_
_atom_site_label
_atom_site_type_symbol
_atom_site_fract_x
_atom_site_fract_y
_atom_site_fract_z
Zn1	Zn	-0.331855	1.584967	-0.615139
Zn2	Zn	-0.471294	1.575920	-0.448352
Zn3	Zn	-0.331900	1.409268	-0.439482
Zn4	Zn	-0.471228	1.400319	-0.623990
O5	O	-0.401569	1.492618	-0.531740
O6	O	-0.350362	1.730788	-0.593022
O7	O	-0.452850	1.553772	-0.300157
O8	O	-0.215229	1.440106	-0.455366
O9	O	-0.452807	1.724141	-0.470484
O10	O	-0.215196	1.569192	-0.584421
O11	O	-0.350437	1.431333	-0.293640
O12	O	-0.350373	1.261060	-0.463949
O13	O	-0.452694	1.424854	-0.769834
O14	O	-0.452737	1.254485	-0.599506
O15	O	-0.350297	1.560514	-0.763331
O16	O	-0.587951	1.545095	-0.479067
O17	O	-0.587902	1.416081	-0.608107
C18	C	-0.401553	1.219652	-0.531726
C19	C	-0.401566	1.102874	-0.531747
C20	C	-0.295062	1.109766	-0.659573
C21	C	-0.241820	1.058350	-0.723496
C22	C	-0.241835	0.948627	-0.723510
C23	C	-0.295096	0.890318	-0.659592
C24	C	-0.348337	0.941734	-0.595670
C25	C	-0.348319	1.051459	-0.595665
C26	C	-0.454836	0.934843	-0.467839
C27	C	-0.454826	1.044565	-0.467829
C28	C	-0.508096	0.876533	-0.403921
C29	C	-0.561343	0.927949	-0.340003
C30	C	-0.561327	1.037678	-0.339992
C31	C	-0.508068	1.095981	-0.403907
C32	C	-0.618176	1.478664	-0.545533
C33	C	-0.710842	1.472790	-0.551468
C34	C	-0.880502	1.462072	-0.562327
C35	C	-0.921796	1.523353	-0.501171
C36	C	-1.016201	1.517390	-0.507213
C37	C	-0.786089	1.468034	-0.556287
C38	C	-0.184117	1.506656	-0.517917
C39	C	-0.091451	1.512638	-0.512026
C40	C	-0.401483	1.492695	-0.805768
C41	C	-0.401447	1.492728	-0.922543
C42	C	-0.401587	1.766651	-0.531755
C43	C	-0.401594	1.883427	-0.531761
C44	C	-0.294797	1.365242	-0.915775
C45	C	-0.241456	1.301519	-0.967251
C46	C	-0.241426	1.301552	-1.076971
C47	C	-0.294744	1.365313	-1.135218
C48	C	-0.348086	1.429036	-1.083742
C49	C	-0.348108	1.428998	-0.974019
C50	C	-0.454738	1.556515	-1.090510
C51	C	-0.454765	1.556489	-0.980790
C52	C	-0.508057	1.620276	-1.148756
C53	C	-0.561395	1.684006	-1.097280
C54	C	-0.561423	1.683970	-0.987553
C55	C	-0.508107	1.620211	-0.929314
C56	C	-0.401595	1.492606	-0.258774
C57	C	-0.401397	1.492792	-0.141986
H58	H	-0.295041	1.199108	-0.659563
Cl59	Cl	-0.508112	0.738596	-0.403934
Cl60	Cl	-0.508046	1.233919	-0.403903
H61	H	-0.295096	0.800977	-0.659600
H62	H	-0.294810	1.365217	-0.826435
H63	H	-0.604700	0.880465	-0.287962
Cl64	Cl	-0.866916	1.611265	-0.413324
Cl65	Cl	-0.174897	0.883987	-0.803863
Cl66	Cl	-0.628261	1.102306	-0.259623
H67	H	-0.916048	1.405133	-0.619217
H68	H	-0.198047	1.249604	-0.919815
Cl69	Cl	-0.174364	1.221449	-1.141687
Cl70	Cl	-0.294719	1.365333	-1.273153
H71	H	-0.508033	1.620293	-1.238096
H72	H	-0.604806	1.735910	-1.144713
H73	H	-0.604857	1.735865	-0.945648
H74	H	-0.198455	1.105837	-0.775534
Cl75	Cl	-0.508133	1.620166	-0.791378
