data_functionalizedCrystal
_audit_creation_method	'MofGen! by Chris Wilmer'
_symmetry_space_group_name_H-M	'P1'
_symmetry_Int_Tables_number	1
_symmetry_cell_setting	triclinic
loop_
_symmetry_equiv_pos_as_xyz
  x,y,z
_cell_length_a	20.919309
_cell_length_b	23.196402
_cell_length_c	23.196401
_cell_angle_alpha	119.991694
_cell_angle_beta	89.985574
_cell_angle_gamma	57.445536
loop_
_atom_site_label
_atom_site_type_symbol
_atom_site_fract_x
_atom_site_fract_y
_atom_site_fract_z
Zr1	Zr	0.641815	0.585934	0.053119
O2	O	0.535427	0.713664	0.148898
O3	O	0.674419	0.463384	0.023761
O4	O	0.674394	0.583650	0.144029
O5	O	0.535484	0.593393	-0.066242
O6	O	0.784024	0.575955	0.140183
O7	O	0.535453	0.593398	0.028631
O8	O	0.784069	0.360821	-0.074953
O9	O	0.535439	0.808527	0.148895
O10	O	0.770152	0.506130	0.008367
O11	O	0.688359	0.511868	-0.059566
O12	O	0.688329	0.653466	0.082033
O13	O	0.606537	0.659205	0.014100
Zr14	Zr	0.816712	0.573655	-0.104325
Zr15	Zr	0.816662	0.573662	0.046986
Zr16	Zr	0.641865	0.585926	-0.098192
Zr17	Zr	0.641833	0.737230	0.053113
Zr18	Zr	0.816694	0.422359	-0.104319
O19	O	0.784108	0.696205	-0.074967
O20	O	0.784038	0.696216	0.140178
O21	O	0.535498	0.713653	-0.066247
O22	O	0.923100	0.445925	-0.200104
O23	O	0.923029	0.445935	0.015041
O24	O	0.674490	0.463373	-0.191384
O25	O	0.923043	0.566195	0.015036
O26	O	0.784134	0.575939	-0.195234
O27	O	0.674504	0.583633	-0.191389
O28	O	0.923074	0.566191	-0.079837
O29	O	0.674419	0.798773	0.144020
O30	O	0.784108	0.360816	-0.195225
O31	O	0.923089	0.351062	-0.200100
O32	O	0.923049	0.351067	-0.079828
O33	O	0.535478	0.808521	0.028622
O34	O	0.674458	0.798767	0.023747
O35	O	0.770198	0.506123	-0.133239
O36	O	0.851990	0.500384	-0.065306
O37	O	0.770168	0.647720	0.008361
O38	O	0.688376	0.653459	-0.059572
C39	C	0.729242	0.390546	-0.025595
C40	C	0.729234	0.326317	-0.025592
C41	C	0.789648	0.239647	-0.079972
C42	C	0.789653	0.179286	-0.079979
C43	C	0.729251	0.205600	-0.025595
C44	C	0.668827	0.292285	0.028790
C45	C	0.668818	0.352643	0.028791
C46	C	0.710425	0.151335	0.038858
C47	C	0.710439	0.090976	0.038856
C48	C	0.729273	0.019437	-0.025599
C49	C	0.748110	0.008254	-0.090058
C50	C	0.748102	0.068613	-0.090056
C51	C	0.729254	0.140158	-0.025591
C52	C	0.789697	-0.132687	-0.079990
C53	C	0.789697	-0.193047	-0.079997
C54	C	0.668873	-0.080046	0.028777
C55	C	0.668870	-0.019689	0.028779
C56	C	0.729286	-0.046015	-0.025605
C57	C	0.510556	0.595144	-0.017932
C58	C	0.436329	0.600353	-0.015328
C59	C	0.444165	0.525895	-0.052554
C60	C	0.374418	0.530795	-0.050106
C61	C	0.296836	0.610154	-0.010428
C62	C	0.289001	0.684618	0.026800
C63	C	0.358747	0.679718	0.024347
C64	C	0.084110	0.628799	-0.001103
C65	C	0.014362	0.633694	0.001349
C66	C	0.099784	0.479870	-0.075559
C67	C	0.169528	0.474976	-0.078004
C68	C	0.161687	0.549440	-0.040780
C69	C	0.225542	0.615164	-0.007923
C70	C	0.232980	0.544429	-0.043290
C71	C	0.947971	0.564445	-0.033274
C72	C	1.022198	0.559235	-0.035878
C73	C	0.729202	0.579803	0.163665
C74	C	0.729181	0.579807	0.227900
C75	C	0.729286	0.769043	-0.025611
C76	C	0.729293	0.833272	-0.025613
C77	C	0.686473	0.656713	0.296526
C78	C	0.686490	0.656713	0.356882
C79	C	0.729205	0.579804	0.348606
C80	C	0.771922	0.502888	0.279968
C81	C	0.771910	0.502889	0.219615
C82	C	0.723128	0.523605	0.416139
C83	C	0.723134	0.523607	0.476493
C84	C	0.729247	0.579797	0.534753
C85	C	0.735337	0.635999	0.532661
C86	C	0.735324	0.636000	0.472308
C87	C	0.729223	0.579794	0.414045
C88	C	0.686556	0.656708	0.668826
C89	C	0.686579	0.656705	0.729180
C90	C	0.772006	0.502878	0.652265
C91	C	0.771988	0.502883	0.591912
C92	C	0.729258	0.579801	0.600198
C93	C	0.729313	0.579789	0.785131
C94	C	0.729295	0.579796	0.720901
C95	C	0.947949	0.375196	-0.033266
C96	C	1.022168	0.305758	-0.035867
C97	C	0.729304	0.390537	-0.214863
C98	C	0.729317	0.326305	-0.279096
C99	C	0.948011	0.375187	-0.222534
C100	C	1.022252	0.305746	-0.289370
C101	C	0.510516	0.784401	0.171328
C102	C	0.436276	0.853843	0.238165
C103	C	0.510578	0.784392	-0.017939
C104	C	0.436359	0.853831	-0.015339
C105	C	0.729224	0.769052	0.163657
C106	C	0.729210	0.833284	0.227890
C107	C	1.014304	0.276148	0.001374
C108	C	1.084034	0.210912	-0.001055
C109	C	1.161629	0.175283	-0.040731
C110	C	1.169492	0.204899	-0.077973
C111	C	1.099762	0.270138	-0.075539
C112	C	0.772042	0.293141	-0.347723
C113	C	0.772052	0.232797	-0.408082
C114	C	0.729341	0.205613	-0.399813
C115	C	0.686610	0.238782	-0.331179
C116	C	0.686596	0.299130	-0.270821
C117	C	1.099818	0.270139	-0.285297
C118	C	1.169582	0.204899	-0.348092
C119	C	1.161777	0.175263	-0.414959
C120	C	1.084203	0.210876	-0.419030
C121	C	1.014441	0.276119	-0.356236
C122	C	0.358709	0.889457	0.234092
C123	C	0.288946	0.954716	0.296886
C124	C	0.296750	0.984355	0.363753
C125	C	0.374324	0.948738	0.367824
C126	C	0.444087	0.883485	0.305030
C127	C	0.444223	0.883447	-0.052573
C128	C	0.374493	0.948700	-0.050127
C129	C	0.296898	0.984331	-0.010450
C130	C	0.289035	0.954712	0.026789
C131	C	0.358765	0.889465	0.024347
C132	C	0.771930	0.860449	0.219598
C133	C	0.771933	0.920793	0.279945
C134	C	0.729211	0.953975	0.348584
C135	C	0.686490	0.926805	0.356875
C136	C	0.686492	0.866457	0.296528
H137	H	0.838887	-0.154124	-0.124276
H138	H	1.077860	0.186736	-0.473481
H139	H	0.729359	0.156473	-0.448966
O140	O	0.813640	0.200637	-0.474697
C141	C	0.851324	0.237583	-0.469044
H142	H	0.859757	0.261853	-0.415479
H143	H	0.811315	0.292811	-0.472583
C144	C	0.924787	0.140742	-0.596236
C145	C	0.935151	0.170544	-0.530449
H146	H	0.976494	0.099392	-0.634115
H147	H	0.899397	0.115852	-0.600046
H148	H	0.891443	0.186772	-0.599175
H149	H	0.968485	0.124516	-0.527507
H150	H	0.960549	0.195425	-0.526641
O151	O	0.939033	0.310817	-0.360070
C152	C	0.879122	0.374742	-0.290314
H153	H	0.906271	0.399250	-0.251249
H154	H	0.857305	0.347394	-0.274179
C155	C	0.773135	0.418306	-0.336664
C156	C	0.806477	0.448412	-0.288684
H157	H	0.728321	0.463748	-0.335658
H158	H	0.813496	0.375236	-0.383660
H159	H	0.754960	0.395516	-0.323212
H160	H	0.824659	0.471191	-0.302141
H161	H	0.766116	0.491487	-0.241689
O162	O	0.350971	0.860806	0.169201
C163	C	0.267543	0.906235	0.179086
H164	H	0.230344	0.970013	0.234250
H165	H	0.246981	0.868104	0.174857
C166	C	0.300125	0.842880	0.053326
C167	C	0.254437	0.921217	0.121078
H168	H	0.292040	0.852118	0.017543
H169	H	0.356333	0.812270	0.046665
H170	H	0.282985	0.811112	0.049812
H171	H	0.271585	0.952978	0.124594
H172	H	0.198232	0.951832	0.127738
H173	H	0.651710	0.719341	0.412767
O174	O	0.382287	0.977333	-0.086376
C175	C	0.465728	0.931894	-0.121911
H176	H	0.502901	0.868118	-0.130522
H177	H	0.486284	0.970019	-0.088004
C178	C	0.433236	0.995237	-0.184322
C179	C	0.478892	0.916904	-0.194904
H180	H	0.441357	0.985994	-0.229346
H181	H	0.377020	1.025853	-0.160380
H182	H	0.450371	1.027001	-0.156064
H183	H	0.461749	0.885147	-0.223154
H184	H	0.535106	0.886282	-0.218852
O185	O	0.610174	0.317939	0.081704
C186	C	0.613987	0.364203	0.148486
H187	H	0.644673	0.391028	0.144267
H188	H	0.650775	0.320410	0.164536
C189	C	0.489319	0.404713	0.210634
C190	C	0.527002	0.437666	0.205454
H191	H	0.435663	0.450026	0.245776
H192	H	0.486751	0.373541	0.165642
H193	H	0.519984	0.368219	0.224006
H194	H	0.496343	0.474151	0.192073
H195	H	0.529562	0.468846	0.250445
O196	O	0.213658	0.761730	0.065258
C197	C	0.204734	0.807335	0.038410
H198	H	0.248896	0.760990	-0.019477
H199	H	0.218594	0.852440	0.072188
C200	C	0.062366	0.915748	0.112747
C201	C	0.116602	0.858825	0.041647
H202	H	0.008002	0.947513	0.114746
H203	H	0.068379	0.885025	0.130837
H204	H	0.073927	0.953327	0.140887
H205	H	0.105048	0.821240	0.013510
H206	H	0.110585	0.889543	0.023552
O207	O	0.610239	0.436858	0.081637
C208	C	0.647188	0.472301	0.118596
H209	H	0.713160	0.431342	0.082608
H210	H	0.645786	0.474926	0.169023
C211	C	0.519295	0.613109	0.183663
C212	C	0.600322	0.562805	0.139460
H213	H	0.490385	0.668938	0.196536
H214	H	0.494401	0.589231	0.158766
H215	H	0.518139	0.615287	0.225680
H216	H	0.601478	0.560620	0.097440
H217	H	0.625216	0.586686	0.164351
O218	O	0.644980	0.731354	0.304449
C219	C	0.654139	0.714867	0.236464
H220	H	0.669877	0.650237	0.195913
H221	H	0.705261	0.714793	0.219279
C222	C	0.554499	0.863642	0.290001
C223	C	0.573822	0.784265	0.240196
H224	H	0.504958	0.906451	0.292302
H225	H	0.548330	0.874750	0.335804
H226	H	0.597106	0.863568	0.275673
H227	H	0.531220	0.784336	0.254528
H228	H	0.579982	0.773158	0.194395
O229	O	0.741133	0.690703	0.589284
C230	C	0.674809	0.774943	0.616656
H231	H	0.622278	0.777049	0.601139
H232	H	0.694439	0.798670	0.593475
C233	C	0.711322	0.829481	0.717892
C234	C	0.646800	0.832068	0.698838
H235	H	0.694046	0.864719	0.768585
H236	H	0.756008	0.772727	0.699449
H237	H	0.727674	0.849251	0.698568
H238	H	0.630456	0.812288	0.718154
H239	H	0.602110	0.888820	0.717286
O240	O	1.107556	0.298788	-0.220406
C241	C	1.190984	0.253316	-0.230292
H242	H	1.228193	0.225908	-0.285422
H243	H	1.211523	0.199404	-0.226147
C244	C	1.158409	0.347157	-0.104504
C245	C	1.204109	0.313500	-0.172214
H246	H	1.166506	0.384280	-0.068678
H247	H	1.102202	0.377791	-0.097843
H248	H	1.175530	0.302224	-0.101060
H249	H	1.186980	0.358432	-0.175661
H250	H	1.260314	0.282875	-0.178875
H251	H	0.225788	0.983705	0.293557
H252	H	0.619678	0.050884	0.073064
O253	O	0.150198	0.692275	0.030542
C254	C	0.141266	0.737890	0.003703
H255	H	0.185428	0.691553	-0.054182
H256	H	0.155120	0.782999	0.037488
C257	C	-0.001103	0.846290	0.078038
C258	C	0.053134	0.789376	0.006940
H259	H	-0.055467	0.878052	0.080038
H260	H	0.004915	0.815560	0.096122
H261	H	0.010453	0.883872	0.106184
H262	H	0.041584	0.751789	-0.021203
H263	H	0.047112	0.820101	-0.011148
O264	O	0.645209	0.212237	-0.323281
C265	C	0.654384	0.151869	-0.391276
H266	H	0.712065	0.121457	-0.433295
H267	H	0.599206	0.184602	-0.404716
C268	C	0.590180	0.120143	-0.339025
C269	C	0.661029	0.082785	-0.390632
H270	H	0.594276	0.077531	-0.338628
H271	H	0.583996	0.160816	-0.293215
H272	H	0.544206	0.147419	-0.350231
H273	H	0.707000	0.055519	-0.379421
H274	H	0.667221	0.042105	-0.436440
H275	H	-0.048811	0.698321	0.033663
H276	H	0.507333	0.461272	-0.084868
O277	O	0.645086	0.331220	-0.204210
C278	C	0.607381	0.294293	-0.209864
H279	H	0.640891	0.230779	-0.264903
H280	H	0.541094	0.338525	-0.202590
C281	C	0.569313	0.358012	-0.083916
C282	C	0.610475	0.279999	-0.151514
H283	H	0.571217	0.349198	-0.047922
H284	H	0.594713	0.382893	-0.080106
H285	H	0.514078	0.394864	-0.077865
H286	H	0.665711	0.243153	-0.157568
H287	H	0.585085	0.255111	-0.155324
O288	O	0.813377	0.828364	0.152966
C289	C	0.781981	0.894963	0.146321
H290	H	0.750695	0.957533	0.201746
H291	H	0.735890	0.899005	0.119090
C292	C	0.890636	0.800882	0.032903
C293	C	0.852216	0.877731	0.100977
H294	H	0.933959	0.790252	0.004930
H295	H	0.911787	0.756012	0.037378
H296	H	0.852219	0.804260	0.010220
H297	H	0.890631	0.874348	0.123662
H298	H	0.831074	0.922601	0.096504
O299	O	1.244945	0.170396	-0.344158
C300	C	1.287859	0.182130	-0.378359
H301	H	1.242611	0.238189	-0.379570
H302	H	1.329278	0.122259	-0.435475
C303	C	1.395483	0.131248	-0.335441
C304	C	1.339908	0.200105	-0.336923
H305	H	1.427593	0.142332	-0.309883
H306	H	1.366573	0.123339	-0.312401
H307	H	1.429991	0.081361	-0.383040
H308	H	1.305395	0.249987	-0.289324
H309	H	1.368813	0.208023	-0.359954
O310	O	0.813533	0.947101	0.271915
C311	C	0.873463	0.928162	0.302511
H312	H	0.889334	0.874157	0.304746
H313	H	0.849019	0.986842	0.359035
C314	C	0.931017	0.967488	0.253815
C315	C	0.950515	0.901153	0.256554
H316	H	0.978546	0.950831	0.225469
H317	H	0.890639	0.980251	0.233203
H318	H	0.910646	1.016382	0.300921
H319	H	0.970877	0.852263	0.209450
H320	H	0.990899	0.888380	0.277157
H321	H	0.239939	1.037489	0.414878
H322	H	0.507398	0.854441	-0.084888
O323	O	0.351283	0.751963	0.060444
C324	C	0.429478	0.730622	0.049784
H325	H	0.475712	0.663853	-0.001751
H326	H	0.447234	0.732881	0.096912
C327	C	0.371667	0.876460	0.107390
C328	C	0.428452	0.794455	0.044090
H329	H	0.371034	0.915836	0.103881
H330	H	0.318985	0.890839	0.114574
H331	H	0.386471	0.878330	0.146657
H332	H	0.413642	0.792583	0.004826
H333	H	0.481131	0.780077	0.036899
H334	H	0.838842	0.218204	-0.124256
H335	H	0.240126	1.037459	-0.008467
H336	H	1.218589	0.122137	-0.466084
H337	H	0.380669	0.972879	0.422274
O338	O	0.645000	0.959161	0.423605
C339	C	0.654179	1.018236	0.475082
H340	H	0.669929	1.043503	0.450990
H341	H	0.705298	0.985781	0.492172
C342	C	0.554528	1.061445	0.570358
C343	C	0.573867	1.092483	0.540771
H344	H	0.504990	1.107242	0.610880
H345	H	0.548346	1.021642	0.535678
H346	H	0.597134	1.034399	0.584595
H347	H	0.531266	1.119519	0.526527
H348	H	0.580040	1.132292	0.575450
O349	O	0.213596	0.989393	0.065266
C350	C	0.153747	1.053342	0.059442
H351	H	0.180961	1.041514	0.008574
H352	H	0.131921	1.117998	0.107958
C353	C	0.047669	1.066360	0.118733
C354	C	0.081091	1.051829	0.056253
H355	H	0.002849	1.065430	0.116769
H356	H	0.087989	1.023279	0.122660
H357	H	0.029486	1.120240	0.159156
H358	H	0.099282	0.997946	0.015832
H359	H	0.040772	1.094901	0.052319
O360	O	0.308383	0.467391	-0.081885
C361	C	0.351288	0.459943	-0.135275
H362	H	0.324654	0.525985	-0.118815
H363	H	0.345502	0.423867	-0.188083
C364	C	0.474664	0.330217	-0.164714
C365	C	0.441955	0.411330	-0.144494
H366	H	0.530592	0.300227	-0.170403
H367	H	0.445758	0.335232	-0.128745
H368	H	0.469834	0.300164	-0.208718
H369	H	0.446776	0.441385	-0.100487
H370	H	0.470865	0.406319	-0.180456
O371	O	0.717044	0.469107	0.359613
C372	C	0.643300	0.484962	0.382321
H373	H	0.597918	0.552824	0.432849
H374	H	0.655336	0.438604	0.394177
C375	C	0.663527	0.389882	0.260796
C376	C	0.607787	0.473234	0.322852
H377	H	0.641622	0.382644	0.224112
H378	H	0.713212	0.379197	0.245497
H379	H	0.673552	0.351260	0.270686
H380	H	0.597770	0.511854	0.312964
H381	H	0.558099	0.483925	0.338149
H382	H	0.718171	0.477848	0.478192
H383	H	0.507243	0.854488	0.308355
H384	H	0.651701	0.844347	0.303289
H385	H	0.838851	0.108707	-0.124264
H386	H	1.232679	0.175880	-0.110275
O387	O	0.848467	-0.277211	-0.132861
C388	C	0.901774	-0.287496	-0.180866
H389	H	0.898885	-0.228944	-0.152603
H390	H	0.882780	-0.295822	-0.228802
C391	C	0.993116	-0.438493	-0.241442
C392	C	0.989572	-0.366581	-0.206727
H393	H	1.047273	-0.487278	-0.257398
H394	H	0.957200	-0.431564	-0.209102
H395	H	0.977283	-0.445419	-0.281384
H396	H	1.005395	-0.359649	-0.166781
H397	H	1.025492	-0.373510	-0.239061
H398	H	0.763437	0.059505	-0.142541
O399	O	0.813560	0.428194	0.525224
C400	C	0.873478	0.419566	0.485960
H401	H	0.889372	0.460379	0.524540
H402	H	0.849009	0.441154	0.451021
C403	C	0.930994	0.275720	0.390767
C404	C	0.950519	0.325842	0.438152
H405	H	0.978515	0.217906	0.361274
H406	H	0.890624	0.281533	0.417219
H407	H	0.910602	0.293720	0.361659
H408	H	0.970901	0.307848	0.467265
H409	H	0.990894	0.320023	0.411704
H410	H	0.352350	0.865354	0.054666
H411	H	0.763441	-0.049992	-0.142543
H412	H	0.729216	1.003114	0.397716
O413	O	0.610109	-0.054524	0.081493
C414	C	0.565935	-0.083192	0.050997
H415	H	0.604924	-0.140388	-0.007432
H416	H	0.507783	-0.030082	0.054160
C417	C	0.495682	-0.038739	0.164103
C418	C	0.543572	-0.108992	0.092341
H419	H	0.481884	-0.054650	0.189608
H420	H	0.525440	-0.019421	0.184651
H421	H	0.447227	0.005513	0.166729
H422	H	0.592030	-0.153238	0.089716
H423	H	0.513822	-0.128317	0.071794
H424	H	0.740285	0.681760	0.470606
O425	O	0.813407	0.428105	0.152999
C426	C	0.851134	0.360219	0.158631
H427	H	0.817649	0.384235	0.213671
H428	H	0.917425	0.332840	0.151338
C429	C	0.889157	0.261108	0.032686
C430	C	0.848026	0.290604	0.100284
H431	H	0.887244	0.218164	-0.003307
H432	H	0.863743	0.306844	0.028890
H433	H	0.944396	0.238299	0.026618
H434	H	0.792786	0.313422	0.106355
H435	H	0.873431	0.244870	0.104080
O436	O	0.938873	0.310822	0.039861
C437	C	0.879002	0.374772	0.034047
H438	H	0.906191	0.362948	-0.016827
H439	H	0.857181	0.439428	0.082558
C440	C	0.772955	0.387780	0.093374
C441	C	0.806347	0.373254	0.030886
H442	H	0.728136	0.386848	0.091427
H443	H	0.813290	0.344698	0.097293
H444	H	0.754777	0.441660	0.133793
H445	H	0.824533	0.319372	-0.009531
H446	H	0.766013	0.416327	0.026960
O447	O	0.645150	0.731465	0.795808
C448	C	0.676552	0.774224	0.802425
H449	H	0.707818	0.751014	0.746992
H450	H	0.722661	0.760748	0.829639
C451	C	0.567930	0.898997	0.915859
C452	C	0.606326	0.870494	0.847775
H453	H	0.524613	0.958381	0.943835
H454	H	0.546775	0.870189	0.911402
H455	H	0.606363	0.887759	0.938527
H456	H	0.567896	0.881722	0.825104
H457	H	0.627473	0.899307	0.852229
H458	H	0.077715	0.689433	0.029221
H459	H	0.695104	0.100085	0.091342
O460	O	0.381924	0.458527	-0.086160
C461	C	0.344134	0.456755	-0.037382
H462	H	0.296600	0.524267	0.012928
H463	H	0.392076	0.416913	-0.022528
C464	C	0.360682	0.334521	-0.133916
C465	C	0.302296	0.417441	-0.072127
H466	H	0.334878	0.310267	-0.155348
H467	H	0.386145	0.335712	-0.166779
H468	H	0.400630	0.301330	-0.121529
H469	H	0.262356	0.450633	-0.084516
H470	H	0.276825	0.416255	-0.039266
H471	H	0.695080	0.209589	0.091349
H472	H	0.232696	0.410353	-0.110301
O473	O	1.107263	0.299009	-0.111663
C474	C	1.029086	0.364212	-0.101035
H475	H	0.982829	0.393879	-0.049493
H476	H	1.011337	0.336570	-0.148163
C477	C	1.086963	0.396259	-0.158693
C478	C	1.030151	0.432703	-0.095385
H479	H	1.087619	0.438506	-0.155211
H480	H	1.139632	0.352329	-0.165856
H481	H	1.072165	0.373226	-0.197960
H482	H	1.044954	0.455725	-0.056121
H483	H	0.977483	0.476638	-0.088215
H484	H	0.651764	0.719339	0.675573
H485	H	0.106158	0.419245	-0.105865
H486	H	0.806701	0.440268	0.273234
H487	H	0.806786	0.440257	0.645526
H488	H	1.077616	0.186807	0.029272
H489	H	1.218401	0.122161	-0.042707
H490	H	0.806823	0.315268	-0.354469
