data_functionalizedCrystal
_audit_creation_method	'MofGen! by Chris Wilmer'
_symmetry_space_group_name_H-M	'P1'
_symmetry_Int_Tables_number	1
_symmetry_cell_setting	triclinic
loop_
_symmetry_equiv_pos_as_xyz
  x,y,z
_cell_length_a	10.654534
_cell_length_b	10.654550
_cell_length_c	9.730223
_cell_angle_alpha	90.001808
_cell_angle_beta	89.995724
_cell_angle_gamma	95.518346
loop_
_atom_site_label
_atom_site_type_symbol
_atom_site_fract_x
_atom_site_fract_y
_atom_site_fract_z
O1	O	-1.667851	0.176301	0.114312
O2	O	-1.302370	0.193128	0.114309
O3	O	-1.493514	0.001974	0.114305
O4	O	-1.476708	0.367454	0.114315
O5	O	-1.493500	0.001974	-0.114275
O6	O	-1.302357	0.193128	-0.114271
O7	O	-1.667838	0.176301	-0.114268
Zn8	Zn	-1.485095	0.184714	-0.150562
Zn9	Zn	-1.485113	0.184714	0.150602
O10	O	-1.476694	0.367454	-0.114265
C11	C	-1.255565	0.191896	0.000018
C12	C	-1.116121	0.188212	0.000017
C13	C	-1.492273	-0.044824	0.000017
C14	C	-1.488581	-0.184267	0.000022
C15	C	-1.050609	0.186478	-0.124584
C16	C	-0.919589	0.182996	-0.124587
C17	C	-0.919604	0.182987	0.124623
C18	C	-1.050623	0.186461	0.124625
C19	C	-1.601123	-0.263759	0.000019
C20	C	-1.597647	-0.394779	0.000028
C21	C	-1.369076	-0.366803	0.000038
C22	C	-1.372554	-0.235785	0.000039
C23	C	-1.717151	-0.212241	0.000002
C24	C	-1.829703	-0.291734	-0.000003
C25	C	-1.826226	-0.422755	0.000007
C26	C	-1.710198	-0.474282	0.000021
C27	C	-0.714642	0.177542	0.000020
C28	C	-0.854082	0.181257	0.000012
C29	C	-1.477935	0.414252	0.000027
C30	C	-1.481627	0.553695	0.000031
N31	N	-1.485092	0.184713	-0.356098
C32	C	-1.561924	0.261591	-0.428016
C33	C	-1.561945	0.261584	-0.571899
C34	C	-1.408291	0.107818	-0.571933
C35	C	-1.408278	0.107820	-0.428053
N36	N	-1.485126	0.184705	0.356139
H37	H	-1.103933	0.187904	-0.226048
C38	C	-1.955545	-0.235554	-0.000081
C39	C	-1.934506	-0.103799	-0.000125
C40	C	-2.050404	-0.052007	-0.000213
H41	H	-2.002036	-0.262627	0.079609
H42	H	-2.001937	-0.262709	-0.079823
H43	H	-1.888133	-0.076655	0.079609
H44	H	-1.888034	-0.076691	-0.079809
H45	H	-2.096797	-0.079162	-0.079956
H46	H	-2.096887	-0.079090	0.079478
H47	H	-2.036145	0.037393	-0.000256
H48	H	-0.866259	0.181562	0.226074
C49	C	-1.243074	-0.422674	0.000326
C50	C	-1.174992	-0.382394	0.117944
C51	C	-1.058920	-0.433849	0.118260
H52	H	-1.196527	-0.395493	-0.079291
H53	H	-1.257070	-0.512095	0.000397
H54	H	-1.160992	-0.292993	0.117860
H55	H	-1.221500	-0.409574	0.197579
H56	H	-1.072916	-0.523269	0.118331
H57	H	-1.012385	-0.406664	0.038639
H58	H	-1.012717	-0.406536	0.198068
H59	H	-1.345711	0.045210	-0.369496
H60	H	-1.280912	-0.171060	0.000039
C61	C	-1.645464	0.345105	-0.350140
C62	C	-1.712780	0.412403	-0.443927
C63	C	-1.789767	0.489335	-0.372243
H64	H	-1.594632	0.402538	-0.294016
H65	H	-1.702879	0.294197	-0.294033
H66	H	-1.655373	0.463307	-0.500011
H67	H	-1.763637	0.355002	-0.500054
H68	H	-1.847182	0.438427	-0.316135
H69	H	-1.738925	0.546760	-0.316121
H70	H	-1.835458	0.534997	-0.435866
H71	H	-1.917871	-0.487475	0.000017
H72	H	-0.866254	0.181584	-0.226050
H73	H	-1.103965	0.187869	0.226096
C74	C	-1.645154	0.345136	-0.650159
C75	C	-1.569754	0.429457	-0.732807
C76	C	-1.646369	0.506433	-0.804933
H77	H	-1.690922	0.391046	-0.586855
H78	H	-1.702495	0.294236	-0.706352
H79	H	-1.512436	0.480350	-0.676619
H80	H	-1.523987	0.383581	-0.796137
H81	H	-1.703710	0.455533	-0.861126
H82	H	-1.692133	0.552334	-0.741619
H83	H	-1.595223	0.563646	-0.861027
H84	H	-1.719995	-0.105559	-0.000010
H85	H	-1.707376	-0.580969	0.000044
H86	H	-1.345750	0.045216	-0.630536
