data_functionalizedCrystal
_audit_creation_method	'MofGen! by Chris Wilmer'
_symmetry_space_group_name_H-M	'P1'
_symmetry_Int_Tables_number	1
_symmetry_cell_setting	triclinic
loop_
_symmetry_equiv_pos_as_xyz
  x,y,z
_cell_length_a	15.995292
_cell_length_b	15.944493
_cell_length_c	14.472310
_cell_angle_alpha	90.004804
_cell_angle_beta	89.985801
_cell_angle_gamma	83.471830
loop_
_atom_site_label
_atom_site_type_symbol
_atom_site_fract_x
_atom_site_fract_y
_atom_site_fract_z
O1	O	1.111010	0.108034	-0.076854
O2	O	0.867227	0.121456	-0.076849
O3	O	0.995801	-0.007535	-0.076859
O4	O	0.982436	0.237025	-0.076843
O5	O	0.995768	-0.007527	0.076823
O6	O	0.867193	0.121463	0.076833
O7	O	1.110977	0.108042	0.076828
Cu8	Cu	0.989082	0.114753	0.090863
Cu9	Cu	0.989122	0.114744	-0.090884
O10	O	0.982403	0.237032	0.076839
C11	C	0.836014	0.120913	-0.000007
C12	C	0.743062	0.119276	-0.000006
C13	C	0.405324	0.113255	-0.000017
C14	C	0.428623	0.206357	-0.000354
C15	C	0.525298	0.208127	-0.000003
C16	C	0.572880	0.116242	-0.000012
C17	C	0.543766	0.069700	0.087742
C18	C	0.446976	0.068579	0.087812
C19	C	0.447158	0.066670	-0.086954
C20	C	0.543650	0.070120	-0.088109
C21	C	0.667576	0.117926	-0.000006
C22	C	0.310629	0.111569	-0.000016
C23	C	0.995238	-0.038826	-0.000022
C24	C	0.993600	-0.132074	-0.000034
C25	C	1.069282	-0.367854	-0.000018
C26	C	1.028486	-0.418415	-0.075790
C27	C	0.990566	-0.302794	-0.000022
C28	C	1.028435	-0.418384	0.075729
C29	C	0.987641	-0.467703	-0.000007
C30	C	0.949791	-0.352127	-0.075857
C31	C	0.949752	-0.352092	0.075730
C32	C	0.908898	-0.402620	-0.000061
C33	C	0.992253	-0.207795	-0.000032
C34	C	0.985947	-0.562700	-0.000004
C35	C	1.142189	0.108584	-0.000015
C36	C	1.235142	0.110222	-0.000023
C37	C	0.982966	0.268323	-0.000000
C38	C	0.984603	0.361572	0.000005
N39	N	0.989061	0.114759	0.218694
N40	N	0.989150	0.114732	-0.218714
C41	C	0.989120	0.114741	0.592785
C42	C	0.920092	0.183530	0.553625
C43	C	0.920251	0.183781	0.446537
C44	C	0.989090	0.114750	0.407194
C45	C	1.076454	0.133875	0.446031
C46	C	1.076066	0.134364	0.553153
C47	C	0.971564	0.026623	0.553309
C48	C	0.969560	0.027211	0.446182
C49	C	0.989079	0.114753	0.302306
C50	C	0.989138	0.114739	0.697673
H51	H	0.433176	-0.001860	-0.087553
H52	H	1.092297	0.197405	0.419197
F53	F	1.145199	0.070128	0.412722
F54	F	1.037360	-0.040287	0.586407
F55	F	0.390668	0.253009	0.081445
H56	H	1.061743	-0.447373	-0.139851
H57	H	1.129036	0.086236	0.579055
H58	H	0.420140	0.100819	0.153415
H59	H	0.909242	0.008229	0.580377
F60	F	1.096290	0.218360	0.585805
H61	H	0.432435	0.000317	0.091792
H62	H	0.841041	-0.418068	-0.000101
F63	F	1.157906	-0.347448	-0.000116
H64	H	1.061681	-0.447320	0.139784
H65	H	0.931461	0.249172	0.420907
F66	F	0.906385	-0.314454	-0.159679
H67	H	0.543682	0.244803	0.063014
F68	F	0.585425	-0.018680	0.091998
F69	F	0.885560	0.008238	0.413008
F70	F	0.906333	-0.314206	0.159467
F71	F	1.031014	-0.042831	0.411191
F72	F	0.569957	0.111952	0.173112
H73	H	0.544332	0.244572	-0.062911
H74	H	0.418841	0.095767	-0.153467
F75	F	0.586754	-0.017544	-0.095045
F76	F	0.835358	0.168934	0.412216
F77	F	0.834931	0.168876	0.587314
H78	H	0.562229	0.104007	-0.153029
F79	F	0.392041	0.253262	-0.082611
H80	H	0.931147	0.248553	0.580538
