data_functionalizedCrystal
_audit_creation_method	'MofGen! by Chris Wilmer'
_symmetry_space_group_name_H-M	'P1'
_symmetry_Int_Tables_number	1
_symmetry_cell_setting	triclinic
loop_
_symmetry_equiv_pos_as_xyz
  x,y,z
_cell_length_a	16.625546
_cell_length_b	19.805407
_cell_length_c	19.805399
_cell_angle_alpha	90.021064
_cell_angle_beta	89.972133
_cell_angle_gamma	89.978547
loop_
_atom_site_label
_atom_site_type_symbol
_atom_site_fract_x
_atom_site_fract_y
_atom_site_fract_z
Zn1	Zn	-0.321042	-1.034754	-0.382745
Zn2	Zn	0.178958	-0.534754	0.117255
Zn3	Zn	-0.455879	-1.034677	-0.269556
Zn4	Zn	0.044121	-0.534677	0.230444
Zn5	Zn	-0.321062	-0.921569	-0.269567
Zn6	Zn	0.178938	-0.421569	0.230433
Zn7	Zn	-0.455834	-0.921540	-0.382700
Zn8	Zn	0.044166	-0.421540	0.117300
O9	O	-0.388454	-0.978135	-0.326142
O10	O	0.111546	-0.478135	0.173858
O11	O	-0.338939	-1.129461	-0.367745
O12	O	0.161061	-0.629461	0.132255
O13	O	-0.438023	-1.019652	-0.174841
O14	O	0.061977	-0.519652	0.325159
O15	O	-0.208227	-0.936628	-0.284603
O16	O	0.291773	-0.436628	0.215397
O17	O	-0.438003	-1.129404	-0.284586
O18	O	0.061997	-0.629404	0.215414
O19	O	-0.208212	-1.019784	-0.367755
O20	O	0.291788	-0.519784	0.132245
O21	O	-0.338973	-0.936553	-0.174849
O22	O	0.161027	-0.436553	0.325151
O23	O	-0.338929	-0.826848	-0.284560
O24	O	0.161071	-0.326848	0.215440
O25	O	-0.437926	-0.936579	-0.477423
O26	O	0.062074	-0.436579	0.022577
O27	O	-0.437946	-0.826827	-0.367678
O28	O	0.062054	-0.326827	0.132322
O29	O	-0.338895	-1.019756	-0.477456
O30	O	0.161105	-0.519756	0.022544
O31	O	-0.568706	-1.019625	-0.284542
O32	O	-0.068706	-0.519625	0.215458
O33	O	-0.568672	-0.936504	-0.367668
O34	O	-0.068672	-0.436504	0.132332
C35	C	-0.388435	-0.802279	-0.326116
C36	C	0.111565	-0.302279	0.173884
C37	C	-0.388446	-0.727047	-0.326120
C38	C	0.111554	-0.227047	0.173880
C39	C	-0.440081	-0.691710	-0.369329
C40	C	0.059919	-0.191710	0.130671
C41	C	-0.440081	-0.621021	-0.369337
C42	C	0.059919	-0.121021	0.130663
C43	C	-0.388450	-0.585671	-0.326132
C44	C	0.111550	-0.085671	0.173868
C45	C	-0.336809	-0.621014	-0.282921
C46	C	0.163191	-0.121014	0.217079
C47	C	-0.336806	-0.691701	-0.282917
C48	C	0.163194	-0.191701	0.217083
C49	C	-0.336821	-0.335941	-0.282936
C50	C	0.163179	0.164059	0.217064
C51	C	-0.336830	-0.265248	-0.282942
C52	C	0.163170	0.234752	0.217058
C53	C	-0.440096	-0.265261	-0.369356
C54	C	0.059904	0.234739	0.130644
C55	C	-0.440093	-0.335948	-0.369352
C56	C	0.059907	0.164052	0.130648
C57	C	-0.388450	-0.371284	-0.326144
C58	C	0.111550	0.128716	0.173856
C59	C	-0.388449	-0.447932	-0.326137
C60	C	0.111551	0.052068	0.173863
C61	C	-0.388454	-0.509024	-0.326135
C62	C	0.111546	-0.009024	0.173865
C63	C	-0.597945	-0.978071	-0.326114
C64	C	-0.097945	-0.478071	0.173886
C65	C	-0.687566	-0.978105	-0.326124
C66	C	-0.187566	-0.478105	0.173876
C67	C	-1.015742	-0.978224	-0.326195
C68	C	-0.515742	-0.478224	0.173805
C69	C	-0.924433	-0.978189	-0.326177
C70	C	-0.424433	-0.478189	0.173823
C71	C	-0.851657	-0.978164	-0.326159
C72	C	-0.351657	-0.478164	0.173841
C73	C	-0.760343	-0.978130	-0.326142
C74	C	-0.260343	-0.478130	0.173858
C75	C	-0.178145	-0.978218	-0.326185
C76	C	0.321855	-0.478218	0.173815
C77	C	-0.088524	-0.978253	-0.326204
C78	C	0.411476	-0.478253	0.173796
C79	C	-0.388404	-0.978173	-0.502685
C80	C	0.111596	-0.478173	-0.002685
C81	C	-0.388382	-0.978189	-0.577917
C82	C	0.111618	-0.478189	-0.077917
C83	C	-0.388469	-0.154678	-0.326163
C84	C	0.111531	0.345322	0.173837
C85	C	-0.388462	-0.229910	-0.326155
C86	C	0.111538	0.270090	0.173845
C87	C	-0.336814	-1.021501	-0.613279
C88	C	0.163186	-0.521501	-0.113279
C89	C	-0.336791	-1.021508	-0.683968
C90	C	0.163209	-0.521508	-0.183968
C91	C	-0.388340	-0.978206	-0.719293
C92	C	0.111660	-0.478206	-0.219293
C93	C	-0.439910	-0.934890	-0.683925
C94	C	0.060090	-0.434890	-0.183925
C95	C	-0.439929	-0.934880	-0.613238
C96	C	0.060071	-0.434880	-0.113238
C97	C	-0.439835	-0.934928	-0.968999
C98	C	0.060165	-0.434928	-0.468999
C99	C	-0.439814	-0.934942	-1.039691
C100	C	0.060186	-0.434942	-0.539691
C101	C	-0.336697	-1.021556	-1.039729
C102	C	0.163303	-0.521556	-0.539729
C103	C	-0.336715	-1.021546	-0.969041
C104	C	0.163285	-0.521546	-0.469041
C105	C	-0.388282	-0.978227	-0.933680
C106	C	0.111718	-0.478227	-0.433680
C107	C	-0.388306	-0.978219	-0.857032
C108	C	0.111694	-0.478219	-0.357032
C109	C	-0.388321	-0.978217	-0.795940
C110	C	0.111679	-0.478217	-0.295940
C111	C	-0.388447	-0.978136	-0.150286
C112	C	0.111553	-0.478136	0.349714
C113	C	-0.388241	-0.978251	-0.075055
C114	C	0.111759	-0.478251	0.424945
H115	H	-0.294755	-0.720472	-0.247736
H116	H	0.205245	-0.220472	0.252264
H117	H	-0.294781	-0.236469	-0.247759
H118	H	0.205219	0.263531	0.252241
H119	H	-0.294705	-1.056826	-1.068528
H120	H	0.205295	-0.556826	-0.568528
H121	H	-0.482139	-0.364726	-0.404532
H122	H	0.017861	0.135274	0.095468
H123	H	-0.294839	-1.056764	-0.584523
H124	H	0.205161	-0.556764	-0.084523
N125	N	-0.284056	-0.584907	-0.238798
N126	N	0.215944	-0.084907	0.261202
N127	N	-0.232716	-0.545488	-0.262694
N128	N	0.267284	-0.045488	0.237306
H129	H	-0.195458	-0.519988	-0.231531
H130	H	0.304542	-0.019988	0.268469
H131	H	-0.481836	-0.899665	-0.940216
H132	H	0.018164	-0.399665	-0.440216
H133	H	-0.294801	-1.056778	-0.712757
H134	H	0.205199	-0.556778	-0.212757
N135	N	-0.492855	-0.229176	-0.413498
N136	N	0.007145	0.270824	0.086502
N137	N	-0.567249	-0.237051	-0.408892
N138	N	-0.067249	0.262949	0.091108
H139	H	-0.604512	-0.211568	-0.440065
H140	H	-0.104512	0.288432	0.059935
N141	N	-0.492847	-0.584929	-0.413459
N142	N	0.007153	-0.084929	0.086541
N143	N	-0.544192	-0.545466	-0.389562
N144	N	-0.044192	-0.045466	0.110438
H145	H	-0.581464	-0.519977	-0.420724
H146	H	-0.081464	-0.019977	0.079276
N147	N	-0.492556	-0.890656	-0.720017
N148	N	0.007444	-0.390656	-0.220017
N149	N	-0.492533	-0.890670	-0.783130
N150	N	0.007467	-0.390670	-0.283130
H151	H	-0.529716	-0.859430	-0.808619
H152	H	-0.029716	-0.359430	-0.308619
H153	H	-0.294776	-0.364703	-0.247748
H154	H	0.205224	0.135297	0.252252
H155	H	-0.482128	-0.720486	-0.404510
H156	H	0.017872	-0.220486	0.095490
H157	H	-0.294741	-1.056809	-0.940284
H158	H	0.205259	-0.556809	-0.440284
H159	H	-0.481793	-0.899678	-1.068450
H160	H	0.018207	-0.399678	-0.568450
H161	H	-0.481913	-0.899604	-0.584447
H162	H	0.018087	-0.399604	-0.084447
