data_functionalizedCrystal
_audit_creation_method	'MofGen! by Chris Wilmer'
_symmetry_space_group_name_H-M	'P1'
_symmetry_Int_Tables_number	1
_symmetry_cell_setting	triclinic
loop_
_symmetry_equiv_pos_as_xyz
  x,y,z
_cell_length_a	21.395364
_cell_length_b	16.120297
_cell_length_c	16.120531
_cell_angle_alpha	84.389419
_cell_angle_beta	87.052757
_cell_angle_gamma	92.877501
loop_
_atom_site_label
_atom_site_type_symbol
_atom_site_fract_x
_atom_site_fract_y
_atom_site_fract_z
Zn1	Zn	0.925587	-0.489418	0.356425
Zn2	Zn	0.925496	-0.356720	0.489114
Zn3	Zn	0.826405	-0.349666	0.349395
Zn4	Zn	0.815174	-0.496444	0.496194
O5	O	0.873165	-0.423062	0.422782
O6	O	1.013253	-0.471827	0.374005
O7	O	0.917014	-0.238823	0.464676
O8	O	0.844299	-0.362312	0.233361
O9	O	1.013186	-0.374335	0.471492
O10	O	0.917168	-0.464987	0.238526
O11	O	0.844212	-0.233640	0.362025
O12	O	0.737237	-0.369124	0.368889
O13	O	0.825158	-0.612474	0.483558
O14	O	0.728985	-0.476962	0.476741
O15	O	0.906278	-0.607311	0.380870
O16	O	0.906124	-0.381148	0.607020
O17	O	0.825070	-0.483802	0.612221
C18	C	0.710377	-0.423041	0.422822
C19	C	0.640734	-0.423052	0.422860
C20	C	0.608071	-0.473904	0.372190
C21	C	0.542636	-0.473906	0.372168
C22	C	0.509866	-0.423066	0.422831
C23	C	0.542537	-0.372204	0.473503
C24	C	0.607971	-0.372198	0.473518
C25	C	0.403396	-0.420157	0.497765
C26	C	0.337963	-0.420169	0.497752
C27	C	0.308046	-0.423082	0.422786
C28	C	0.343570	-0.426000	0.347830
C29	C	0.409004	-0.425993	0.347845
C30	C	0.438914	-0.423067	0.422820
C31	C	0.204432	-0.473939	0.372088
C32	C	0.138996	-0.473935	0.372064
C33	C	0.138898	-0.372238	0.473407
C34	C	0.204333	-0.372237	0.473423
C35	C	0.237096	-0.423092	0.422765
C36	C	0.864475	-0.641067	0.433788
C37	C	0.860772	-0.733968	0.438478
C38	C	0.853988	-0.904058	0.447022
C39	C	0.892476	-0.942905	0.398292
C40	C	0.888701	-1.037549	0.403046
C41	C	0.857762	-0.809406	0.442269
C42	C	1.036589	-0.423084	0.422743
C43	C	1.106231	-0.423093	0.422726
C44	C	0.864385	-0.434021	0.639949
C45	C	0.860684	-0.438737	0.732856
C46	C	0.881860	-0.205902	0.411759
C47	C	0.885694	-0.112989	0.406833
C48	C	0.853932	-0.447365	0.902958
C49	C	0.892424	-0.398712	0.941763
C50	C	0.888667	-0.403512	1.036414
C51	C	0.857688	-0.442566	0.808299
C52	C	0.881975	-0.412063	1.204767
C53	C	0.885673	-0.407337	1.111860
H54	H	0.634742	-0.515313	0.330940
C55	C	0.805599	-0.508494	0.954100
H56	H	0.809381	-0.503731	1.011927
H57	H	0.813044	-0.563956	0.942646
H58	H	0.764550	-0.495492	0.939294
C59	C	0.436301	-0.416947	0.580231
H60	H	0.480358	-0.417352	0.569504
H61	H	0.422339	-0.464134	0.617754
H62	H	0.426512	-0.367360	0.604301
C63	C	0.240263	-0.316309	0.529170
H64	H	0.211376	-0.286036	0.559346
H65	H	0.268541	-0.278326	0.495312
H66	H	0.263032	-0.350068	0.567258
C67	C	0.940738	-0.337546	0.890619
H68	H	0.936947	-0.342288	0.832790
H69	H	0.981794	-0.350510	0.905411
H70	H	0.933262	-0.282094	0.902092
H71	H	0.516037	-0.515313	0.330903
H72	H	0.437925	-0.428366	0.286813
H73	H	0.319214	-0.428372	0.286785
C74	C	0.240474	-0.529868	0.316361
H75	H	0.211647	-0.560146	0.286170
H76	H	0.263248	-0.567848	0.350233
H77	H	0.268756	-0.496107	0.278285
C78	C	0.805653	-0.955142	0.508208
H79	H	0.781998	-0.918324	0.538158
H80	H	0.826819	-0.991042	0.546292
H81	H	0.778315	-0.987572	0.477914
C82	C	0.103067	-0.529874	0.316325
H83	H	0.131953	-0.560164	0.286165
H84	H	0.080296	-0.496127	0.278235
H85	H	0.074790	-0.567857	0.350194
H86	H	0.515852	-0.330810	0.514753
C87	C	0.102859	-0.316319	0.529139
H88	H	0.059210	-0.323610	0.521879
H89	H	0.116313	-0.259558	0.513994
H90	H	0.110810	-0.331304	0.585936
C91	C	0.298890	-0.416966	0.580197
H92	H	0.255635	-0.417400	0.569455
H93	H	0.310546	-0.367383	0.604276
H94	H	0.306376	-0.464157	0.617722
C95	C	0.940822	-0.891822	0.337113
H96	H	0.964472	-0.928643	0.307161
H97	H	0.968155	-0.859393	0.367408
H98	H	0.919661	-0.855919	0.299016
H99	H	0.634565	-0.330787	0.514780
