data_functionalizedCrystal
_audit_creation_method	'MofGen! by Chris Wilmer'
_symmetry_space_group_name_H-M	'P1'
_symmetry_Int_Tables_number	1
_symmetry_cell_setting	triclinic
loop_
_symmetry_equiv_pos_as_xyz
  x,y,z
_cell_length_a	17.699077
_cell_length_b	14.044220
_cell_length_c	16.776229
_cell_angle_alpha	89.992645
_cell_angle_beta	89.993415
_cell_angle_gamma	88.234727
loop_
_atom_site_label
_atom_site_type_symbol
_atom_site_fract_x
_atom_site_fract_y
_atom_site_fract_z
O1	O	1.012347	0.119823	-0.066280
O2	O	0.793044	0.135422	-0.066284
O3	O	0.899404	-0.010355	-0.066274
O4	O	0.905987	0.265599	-0.066290
O5	O	0.899388	-0.010364	0.066302
O6	O	0.793028	0.135413	0.066293
O7	O	1.012331	0.119814	0.066297
Zn8	Zn	0.902677	0.127612	0.087344
Zn9	Zn	0.902698	0.127624	-0.087331
O10	O	0.905971	0.265590	0.066287
C11	C	0.764800	0.134859	0.000004
C12	C	0.680667	0.133185	0.000002
C13	C	0.896514	-0.045667	0.000014
C14	C	0.887918	-0.150873	0.000015
C15	C	0.641136	0.132392	0.072271
C16	C	0.562084	0.130804	0.072272
C17	C	0.522564	0.130016	0.000004
C18	C	0.562100	0.130807	-0.072270
C19	C	0.641151	0.132388	-0.072271
C20	C	0.243297	0.124429	-0.072272
C21	C	0.164240	0.122851	-0.072266
C22	C	0.164230	0.122845	0.072271
C23	C	0.243281	0.124426	0.072271
C24	C	0.282810	0.125212	-0.000003
C25	C	0.368528	0.126932	-0.000003
C26	C	0.436848	0.128303	0.000003
C27	C	0.872203	-0.343497	0.000004
C28	C	0.933169	-0.401273	0.000002
C29	C	0.924425	-0.508456	-0.000004
C30	C	0.880946	-0.236304	0.000010
C31	C	1.040575	0.120376	0.000007
C32	C	1.124708	0.122050	0.000003
C33	C	0.908861	0.300903	-0.000003
C34	C	0.917457	0.406108	-0.000010
N35	N	0.902668	0.127603	0.206555
N36	N	0.902712	0.127625	-0.206542
C37	C	0.949782	0.063080	0.248277
C38	C	0.949786	0.063079	0.331729
C39	C	0.902680	0.127607	0.373458
C40	C	0.855561	0.192133	0.331731
C41	C	0.855553	0.192129	0.248280
C42	C	0.855589	0.192152	0.668278
C43	C	0.855602	0.192153	0.751735
C44	C	0.949822	0.063102	0.751727
C45	C	0.949814	0.063098	0.668276
C46	C	0.902693	0.127620	0.626556
C47	C	0.902688	0.127619	0.536068
C48	C	0.902688	0.127613	0.463945
H49	H	0.673308	0.133041	0.131120
Cl50	Cl	0.796378	0.273279	0.804193
H51	H	0.991931	-0.370238	-0.000050
Cl52	Cl	0.781484	-0.391409	-0.000002
H53	H	0.529902	0.130142	0.131120
H54	H	0.132065	0.122209	-0.131119
H55	H	0.988144	0.010538	0.214306
Cl56	Cl	0.796319	0.273245	0.195831
H57	H	0.817202	0.244670	0.365712
Cl58	Cl	1.009014	-0.018038	0.384180
H59	H	0.988175	0.010557	0.634303
Cl60	Cl	0.796356	0.273267	0.615835
H61	H	0.988188	0.010561	0.785704
H62	H	0.529916	0.130159	-0.131112
Cl63	Cl	0.292959	0.125421	0.163126
Cl64	Cl	0.292980	0.125419	-0.163130
Cl65	Cl	0.114531	0.121852	0.163131
H66	H	0.673335	0.133036	-0.131119
