data_functionalizedCrystal
_audit_creation_method	'MofGen! by Chris Wilmer'
_symmetry_space_group_name_H-M	'P1'
_symmetry_Int_Tables_number	1
_symmetry_cell_setting	triclinic
loop_
_symmetry_equiv_pos_as_xyz
  x,y,z
_cell_length_a	16.109302
_cell_length_b	14.519731
_cell_length_c	15.186229
_cell_angle_alpha	89.995270
_cell_angle_beta	89.994701
_cell_angle_gamma	83.575317
loop_
_atom_site_label
_atom_site_type_symbol
_atom_site_fract_x
_atom_site_fract_y
_atom_site_fract_z
O1	O	1.103344	0.118542	-0.073270
O2	O	0.861308	0.133293	-0.073263
O3	O	0.988734	-0.008333	-0.073259
O4	O	0.975918	0.260168	-0.073275
O5	O	0.988725	-0.008335	0.073198
O6	O	0.861300	0.133291	0.073194
O7	O	1.103335	0.118540	0.073187
Zn8	Zn	0.982316	0.125915	0.096444
Zn9	Zn	0.982327	0.125918	-0.096520
O10	O	0.975909	0.260166	0.073183
C11	C	0.830328	0.132695	-0.000034
C12	C	0.738030	0.130903	-0.000031
C13	C	0.525677	0.126758	0.079794
C14	C	0.438953	0.125065	0.079791
C15	C	0.438973	0.125072	-0.079884
C16	C	0.525696	0.126759	-0.079881
C17	C	0.569044	0.127607	-0.000039
C18	C	0.395599	0.124226	-0.000045
C19	C	0.301570	0.122390	-0.000049
C20	C	0.663080	0.129441	-0.000034
C21	C	0.988129	-0.042692	-0.000030
C22	C	0.986330	-0.145069	-0.000029
C23	C	0.984868	-0.228210	-0.000031
C24	C	0.983041	-0.332515	-0.000038
C25	C	0.981591	-0.415651	-0.000044
C26	C	0.979764	-0.519962	-0.000049
C27	C	1.134315	0.119139	-0.000044
C28	C	1.226614	0.120930	-0.000053
C29	C	0.976514	0.294525	-0.000048
C30	C	0.978314	0.396902	-0.000054
N31	N	0.982315	0.125913	0.228136
N32	N	0.982335	0.125913	-0.228213
C33	C	1.038758	0.063222	0.453861
C34	C	1.038760	0.063220	0.546051
C35	C	0.925886	0.188607	0.546056
C36	C	0.925880	0.188604	0.453868
C37	C	0.982321	0.125912	0.407773
C38	C	0.982329	0.125913	0.592151
C39	C	0.982332	0.125911	0.692107
C40	C	0.982317	0.125913	0.307811
H41	H	0.403668	0.124383	-0.144889
H42	H	0.879918	0.239655	0.416340
C43	C	0.391247	0.124136	0.167608
C44	C	0.340948	0.042939	0.189570
C45	C	0.293242	0.042008	0.277391
C46	C	0.295835	0.122274	0.343250
C47	C	0.346136	0.203476	0.321290
C48	C	0.393842	0.204407	0.233469
H49	H	0.339027	-0.016484	0.140816
H50	H	0.256006	-0.018104	0.293647
H51	H	0.260520	0.121585	0.408260
H52	H	0.348057	0.262899	0.370045
H53	H	0.431078	0.264519	0.217214
C54	C	1.100844	-0.005738	0.596749
C55	C	1.162931	-0.074686	0.546044
C56	C	1.225017	-0.143648	0.596743
C57	C	1.225016	-0.143662	0.698146
C58	C	1.162927	-0.074712	0.748856
C59	C	1.100841	-0.005750	0.698158
H60	H	1.162934	-0.074678	0.470975
H61	H	1.270980	-0.194689	0.559203
H62	H	1.270976	-0.194712	0.735676
H63	H	1.162924	-0.074720	0.823926
H64	H	1.054878	0.045292	0.735698
C65	C	0.863810	0.257573	0.596761
C66	C	0.863857	0.257634	0.698164
C67	C	0.801781	0.326605	0.748866
C68	C	0.739657	0.395513	0.698164
C69	C	0.739607	0.395454	0.596756
C70	C	0.801683	0.326484	0.546054
H71	H	0.909847	0.206622	0.735701
H72	H	0.801818	0.326648	0.823936
H73	H	0.693704	0.446569	0.735697
H74	H	0.693617	0.446467	0.559218
H75	H	0.801646	0.326441	0.470984
C76	C	0.573362	0.127687	0.167618
C77	C	0.525654	0.126753	0.255432
C78	C	0.573336	0.127682	0.343258
C79	C	0.668727	0.129545	0.343270
C80	C	0.716440	0.130479	0.255452
C81	C	0.668757	0.129550	0.167626
H82	H	0.455036	0.125374	0.255427
H83	H	0.538015	0.126990	0.408267
H84	H	0.704024	0.130232	0.408284
H85	H	0.787058	0.131858	0.255458
H86	H	0.704078	0.130242	0.102618
C87	C	0.573407	0.127693	-0.167703
C88	C	0.525727	0.126773	-0.255526
C89	C	0.573439	0.127703	-0.343343
C90	C	0.668831	0.129555	-0.343337
C91	C	0.716516	0.130476	-0.255511
C92	C	0.668804	0.129545	-0.167693
H93	H	0.455108	0.125402	-0.255533
H94	H	0.538139	0.127022	-0.408358
H95	H	0.704150	0.130244	-0.408345
H96	H	0.787135	0.131846	-0.255503
H97	H	0.704104	0.130226	-0.102678
H98	H	1.084714	0.012173	0.416333
