data_functionalizedCrystal
_audit_creation_method	'MofGen! by Chris Wilmer'
_symmetry_space_group_name_H-M	'P1'
_symmetry_Int_Tables_number	1
_symmetry_cell_setting	triclinic
loop_
_symmetry_equiv_pos_as_xyz
  x,y,z
_cell_length_a	16.120530
_cell_length_b	13.897448
_cell_length_c	13.897441
_cell_angle_alpha	90.030599
_cell_angle_beta	92.919063
_cell_angle_gamma	87.113275
loop_
_atom_site_label
_atom_site_type_symbol
_atom_site_fract_x
_atom_site_fract_y
_atom_site_fract_z
Zn1	Zn	1.274607	-0.458859	0.620100
Zn2	Zn	1.774607	0.041141	1.120100
Zn3	Zn	1.274515	-0.620175	0.458796
Zn4	Zn	1.774515	-0.120175	0.958796
Zn5	Zn	1.135184	-0.450711	0.450646
Zn6	Zn	1.635184	0.049289	0.950646
Zn7	Zn	1.135168	-0.611923	0.611880
Zn8	Zn	1.635168	-0.111923	1.111880
O9	O	1.204869	-0.535417	0.535356
O10	O	1.704869	-0.035417	1.035356
O11	O	1.391262	-0.487122	0.605554
O12	O	1.891262	0.012878	1.105554
O13	O	1.256001	-0.597739	0.322732
O14	O	1.756001	-0.097739	0.822732
O15	O	1.153724	-0.316813	0.473153
O16	O	1.653724	0.183187	0.973153
O17	O	1.391194	-0.605640	0.487045
O18	O	1.891194	-0.105640	0.987045
O19	O	1.256157	-0.322799	0.597651
O20	O	1.756157	0.177201	1.097651
O21	O	1.153635	-0.473235	0.316743
O22	O	1.653635	0.026765	0.816743
O23	O	1.018515	-0.465232	0.465182
O24	O	1.518515	0.034768	0.965182
O25	O	1.153697	-0.591574	0.747954
O26	O	1.653697	-0.091574	1.247954
O27	O	1.018503	-0.583674	0.583641
O28	O	1.518503	-0.083674	1.083641
O29	O	1.256142	-0.479119	0.753994
O30	O	1.756142	0.020881	1.253994
O31	O	1.255986	-0.754060	0.479074
O32	O	1.755986	-0.254060	0.979074
O33	O	1.153608	-0.747996	0.591544
O34	O	1.653608	-0.247996	1.091544
C35	C	1.204808	-0.786028	0.535324
C36	C	1.704808	-0.286028	1.035324
C37	C	1.204858	-0.893245	0.535347
C38	C	1.704858	-0.393245	1.035347
C39	C	0.988259	-0.522674	0.522636
C40	C	1.488259	-0.022674	1.022636
C41	C	0.895592	-0.517246	0.517217
C42	C	1.395592	-0.017246	1.017217
C43	C	1.204945	-1.089545	0.535413
C44	C	1.704945	-0.589545	1.035413
C45	C	1.204894	-0.980309	0.535379
C46	C	1.704894	-0.480309	1.035379
C47	C	0.725929	-0.507313	0.507332
C48	C	1.225929	-0.007313	1.007332
C49	C	0.684648	-0.563592	0.563450
C50	C	1.184648	-0.063592	1.063450
C51	C	0.590242	-0.558065	0.557950
C52	C	1.090242	-0.058065	1.057950
C53	C	0.820344	-0.512838	0.512831
C54	C	1.320344	-0.012838	1.012831
C55	C	1.422324	-0.548210	0.548126
C56	C	1.922324	-0.048210	1.048126
C57	C	1.514991	-0.553662	0.553568
C58	C	2.014991	-0.053662	1.053568
C59	C	1.204928	-0.535335	0.786952
C60	C	1.704928	-0.035335	1.286952
C61	C	1.204953	-0.535300	0.894168
C62	C	1.704953	-0.035300	1.394168
C63	C	1.204952	-0.283829	0.535410
C64	C	1.704952	0.216171	1.035410
C65	C	1.204988	-0.176617	0.535433
C66	C	1.704988	0.323383	1.035433
C67	C	1.204858	-0.535432	0.284741
C68	C	1.704858	-0.035432	0.784741
C69	C	1.204994	-0.535204	0.177535
C70	C	1.704994	-0.035204	0.677535
C71	C	1.204976	-0.535236	1.090464
C72	C	1.704976	-0.035236	1.590464
C73	C	1.204960	-0.535275	0.981231
C74	C	1.704960	-0.035275	1.481231
H75	H	0.720207	-0.615924	0.615626
H76	H	1.220207	-0.115924	1.115626
Cl77	Cl	0.671032	-0.426521	0.426781
Cl78	Cl	1.171032	0.073479	0.926781
