data_functionalizedCrystal
_audit_creation_method	'MofGen! by Chris Wilmer'
_symmetry_space_group_name_H-M	'P1'
_symmetry_Int_Tables_number	1
_symmetry_cell_setting	triclinic
loop_
_symmetry_equiv_pos_as_xyz
  x,y,z
_cell_length_a	10.723023
_cell_length_b	13.596369
_cell_length_c	10.723024
_cell_angle_alpha	89.995193
_cell_angle_beta	95.532291
_cell_angle_gamma	90.004847
loop_
_atom_site_label
_atom_site_type_symbol
_atom_site_fract_x
_atom_site_fract_y
_atom_site_fract_z
O1	O	1.657190	0.081779	-0.175025
O2	O	2.157190	0.581779	0.324975
O3	O	1.294038	0.081783	-0.191779
O4	O	1.794038	0.581783	0.308221
O5	O	1.483991	0.081777	-0.001826
O6	O	1.983991	0.581777	0.498174
O7	O	1.467237	0.081784	-0.364978
O8	O	1.967237	0.581784	0.135022
O9	O	1.483972	-0.081806	-0.001815
O10	O	1.983972	0.418194	0.498185
O11	O	1.294019	-0.081800	-0.191769
O12	O	1.794019	0.418200	0.308231
O13	O	1.657171	-0.081804	-0.175014
O14	O	2.157171	0.418196	0.324986
Zn15	Zn	1.475592	-0.107775	-0.183390
Zn16	Zn	1.975592	0.392225	0.316610
Zn17	Zn	1.475617	0.107753	-0.183403
Zn18	Zn	1.975617	0.607753	0.316597
O19	O	1.467218	-0.081799	-0.364968
O20	O	1.967218	0.418201	0.135032
C21	C	1.247529	-0.000008	-0.190555
C22	C	1.747529	0.499992	0.309445
C23	C	1.108974	-0.000007	-0.186908
C24	C	1.608974	0.499993	0.313092
C25	C	1.047192	-0.084747	-0.185276
C26	C	1.547192	0.415253	0.314724
C27	C	0.903989	-0.084747	-0.181506
C28	C	1.403989	0.415253	0.318494
N29	N	1.475584	-0.254866	-0.183380
N30	N	1.975584	0.245134	0.316620
C31	C	1.475615	-0.656157	-0.183405
C32	C	1.975615	-0.156157	0.316595
C33	C	1.475603	-0.544506	-0.183402
C34	C	1.975603	-0.044506	0.316598
C35	C	1.475600	-0.455515	-0.183393
C36	C	1.975600	0.044485	0.316607
C37	C	1.475587	-0.343857	-0.183389
C38	C	1.975587	0.156143	0.316611
C39	C	1.703680	-0.000011	-0.176239
C40	C	2.203680	0.499989	0.323761
C41	C	1.842235	-0.000006	-0.179886
C42	C	2.342235	0.499994	0.320114
C43	C	1.482762	-0.000013	0.044679
C44	C	1.982762	0.499987	0.544679
C45	C	1.479114	-0.000010	0.183233
C46	C	1.979114	0.499990	0.683233
N47	N	1.475635	0.254845	-0.183404
N48	N	1.975635	0.754845	0.316596
C49	C	1.468447	-0.000006	-0.411473
C50	C	1.968447	0.499994	0.088527
C51	C	1.472095	-0.000003	-0.550027
C52	C	1.972095	0.499997	-0.050027
C53	C	1.585402	-0.000010	0.258216
C54	C	2.085402	0.499990	0.758216
C55	C	1.581634	-0.000006	0.401420
C56	C	2.081634	0.499994	0.901420
H57	H	0.850857	-0.157296	-0.180110
H58	H	1.350857	0.342704	0.319890
H59	H	1.055851	0.072542	-0.185510
H60	H	1.555851	0.572542	0.314490
H61	H	0.895357	0.072547	-0.181296
H62	H	1.395357	0.572547	0.318704
O63	O	1.367299	0.000125	0.233261
O64	O	1.867299	0.500125	0.733261
C65	C	1.358616	0.084862	0.307714
C66	C	1.858616	0.584862	0.807714
H67	H	1.456729	0.113107	0.339157
H68	H	1.956729	0.613107	0.839157
H69	H	1.308261	0.065813	0.393456
H70	H	1.808261	0.565813	0.893456
H71	H	1.303837	0.144185	0.250735
H72	H	1.803837	0.644185	0.750735
H73	H	1.100317	-0.157296	-0.186663
H74	H	1.600317	0.342704	0.313337
O75	O	1.363498	-0.000176	0.373175
O76	O	1.863498	0.499824	0.873175
C77	C	1.293511	-0.084881	0.396471
C78	C	1.793511	0.415119	0.896471
H79	H	1.358955	-0.144098	0.440478
H80	H	1.858955	0.355902	0.940478
H81	H	1.244361	-0.113319	0.304503
H82	H	1.744361	0.386681	0.804503
H83	H	1.220625	-0.065721	0.463265
H84	H	1.720625	0.434279	0.963265
H85	H	1.679188	-0.000017	0.216394
H86	H	2.179188	0.499983	0.716394
O87	O	1.690075	0.000039	0.478456
O88	O	2.190075	0.500039	0.978456
C89	C	1.662172	0.000016	0.604287
C90	C	2.162172	0.500016	1.104287
H91	H	1.564095	0.030985	0.609990
H92	H	2.064095	0.530985	1.109990
H93	H	1.733331	0.047510	0.662719
H94	H	2.233331	0.547510	1.162719
H95	H	1.666529	-0.078462	0.641900
H96	H	2.166529	0.421538	1.141900
