data_functionalizedCrystal
_audit_creation_method	'MofGen! by Chris Wilmer'
_symmetry_space_group_name_H-M	'P1'
_symmetry_Int_Tables_number	1
_symmetry_cell_setting	triclinic
loop_
_symmetry_equiv_pos_as_xyz
  x,y,z
_cell_length_a	17.699083
_cell_length_b	10.489741
_cell_length_c	16.176319
_cell_angle_alpha	89.993511
_cell_angle_beta	89.998611
_cell_angle_gamma	83.911094
loop_
_atom_site_label
_atom_site_type_symbol
_atom_site_fract_x
_atom_site_fract_y
_atom_site_fract_z
O1	O	1.005134	0.161296	-0.068630
O2	O	1.505134	0.661296	0.431370
O3	O	0.784893	0.182281	-0.068657
O4	O	1.284893	0.682281	0.431343
O5	O	0.900025	-0.013903	-0.068638
O6	O	1.400025	0.486097	0.431362
O7	O	0.890002	0.357479	-0.068649
O8	O	1.390002	0.857479	0.431351
O9	O	0.900009	-0.013915	0.068855
O10	O	1.400009	0.486085	0.568855
O11	O	0.784877	0.182268	0.068836
O12	O	1.284877	0.682268	0.568836
O13	O	1.005118	0.161283	0.068863
O14	O	1.505118	0.661283	0.568863
Cu15	Cu	0.894996	0.171775	0.081404
Cu16	Cu	1.394996	0.671775	0.581404
Cu17	Cu	0.895015	0.171789	-0.081198
Cu18	Cu	1.395015	0.671789	0.418802
O19	O	0.889986	0.357467	0.068844
O20	O	1.389986	0.857467	0.568844
C21	C	0.756683	0.181523	0.000086
C22	C	1.256683	0.681523	0.500086
C23	C	0.672650	0.179267	0.000076
C24	C	1.172650	0.679267	0.500076
C25	C	0.899260	-0.061427	0.000108
C26	C	1.399260	0.438573	0.500108
C27	C	0.896995	-0.203014	0.000106
C28	C	1.396995	0.296986	0.500106
C29	C	0.624782	0.294422	0.000073
C30	C	1.124782	0.794422	0.500073
C31	C	0.545825	0.292295	0.000083
C32	C	1.045825	0.792295	0.500083
C33	C	0.514737	0.175011	0.000091
C34	C	1.014737	0.675011	0.500091
C35	C	0.562611	0.059847	0.000097
C36	C	1.062611	0.559847	0.500097
C37	C	0.641567	0.061975	0.000092
C38	C	1.141567	0.561975	0.500092
C39	C	0.244192	0.051260	0.000118
C40	C	0.744192	0.551260	0.500118
C41	C	0.165230	0.049140	0.000120
C42	C	0.665230	0.549140	0.500120
C43	C	0.148450	0.281580	0.000109
C44	C	0.648450	0.781580	0.500109
C45	C	0.227406	0.283709	0.000104
C46	C	0.727406	0.783709	0.500104
C47	C	0.275273	0.168545	0.000114
C48	C	0.775273	0.668545	0.500114
C49	C	0.360887	0.170853	0.000104
C50	C	0.860887	0.670853	0.500104
C51	C	0.429124	0.172702	0.000096
C52	C	0.929124	0.672702	0.500096
C53	C	0.823740	-0.269793	0.000091
C54	C	1.323740	0.230207	0.500091
C55	C	0.858337	-0.362565	0.067887
C56	C	1.358337	0.137435	0.567887
C57	C	0.858370	-0.362527	-0.067671
C58	C	1.358370	0.137473	0.432329
C59	C	0.931622	-0.293921	0.067958
C60	C	1.431622	0.206079	0.567958
C61	C	0.931645	-0.293874	-0.067661
C62	C	1.431645	0.206126	0.432339
C63	C	0.966296	-0.386619	0.000151
C64	C	1.466296	0.113381	0.500151
C65	C	1.033328	0.162042	0.000118
C66	C	1.533328	0.662042	0.500118
C67	C	1.117361	0.164297	0.000123
C68	C	1.617361	0.664297	0.500123
C69	C	0.890751	0.404991	0.000096
C70	C	1.390751	0.904991	0.500096
C71	C	0.893016	0.546578	0.000093
C72	C	1.393016	1.046578	0.500093
N73	N	0.894988	0.171764	0.195769
N74	N	1.394988	0.671764	0.695769
N75	N	0.895029	0.171790	-0.195563
N76	N	1.395029	0.671790	0.304437
C77	C	0.945984	0.084929	0.239042
C78	C	1.445984	0.584929	0.739042
C79	C	0.945988	0.084928	0.325589
C80	C	1.445988	0.584928	0.825589
C81	C	0.894999	0.171768	0.368862
C82	C	1.394999	0.671768	0.868862
C83	C	0.843997	0.258607	0.325583
C84	C	1.343997	0.758607	0.825583
C85	C	0.843990	0.258601	0.239037
C86	C	1.343990	0.758601	0.739037
C87	C	0.844023	0.258631	0.674611
C88	C	1.344023	0.758631	1.174611
C89	C	0.844036	0.258632	0.761163
C90	C	1.344036	0.758632	1.261163
C91	C	0.946021	0.084957	0.761162
C92	C	1.446021	0.584957	1.261162
C93	C	0.946014	0.084951	0.674617
C94	C	1.446014	0.584951	1.174617
C95	C	0.895010	0.171785	0.631346
C96	C	1.395010	0.671785	1.131346
C97	C	0.895006	0.171784	0.537502
C98	C	1.395006	0.671784	1.037502
C99	C	0.895006	0.171776	0.462704
C100	C	1.395006	0.671776	0.962704
H101	H	0.650088	0.389929	0.000065
H102	H	1.150088	0.889929	0.500065
H103	H	0.987549	0.014248	0.796403
H104	H	1.487549	0.514248	1.296403
H105	H	0.987509	0.014219	0.203815
H106	H	1.487509	0.514219	0.703815
Cl107	Cl	1.010119	-0.024219	0.620220
Cl108	Cl	1.510119	0.475781	1.120220
H109	H	0.506854	0.386067	0.000080
H110	H	1.006854	0.886067	0.500080
H111	H	0.252713	0.379213	0.000094
H112	H	0.752713	0.879213	0.500094
H113	H	0.283156	-0.042514	0.000127
H114	H	0.783156	0.457486	0.500127
Cl115	Cl	0.088270	0.426360	0.000100
Cl116	Cl	0.588270	0.926360	0.500100
Cl117	Cl	0.810506	-0.409468	-0.156158
Cl118	Cl	1.310506	0.090532	0.343842
H119	H	0.987512	0.014220	0.360821
H120	H	1.487512	0.514220	0.860821
Cl121	Cl	0.779909	0.367794	0.620219
Cl122	Cl	1.279909	0.867794	1.120219
Cl123	Cl	0.126149	-0.098314	0.000131
Cl124	Cl	0.626149	0.401686	0.500131
Cl125	Cl	0.810474	-0.409565	0.156368
Cl126	Cl	1.310474	0.090435	0.656368
H127	H	0.802511	0.329350	0.796394
H128	H	1.302511	0.829350	1.296394
Cl129	Cl	0.523529	-0.087597	0.000112
Cl130	Cl	1.023529	0.412403	0.500112
H131	H	0.802477	0.329310	0.360821
H132	H	1.302477	0.829310	0.860821
H133	H	0.802463	0.329309	0.203806
H134	H	1.302463	0.829309	0.703806
H135	H	0.763510	-0.219023	0.000152
H136	H	1.263510	0.280977	0.500152
Cl137	Cl	0.979428	-0.247223	0.156548
Cl138	Cl	1.479428	0.252777	0.656548
Cl139	Cl	0.701744	-0.082798	0.000100
Cl140	Cl	1.201744	0.417202	0.500100
Cl141	Cl	1.059368	-0.464661	0.000217
Cl142	Cl	1.559368	0.035339	0.500217
H143	H	0.962622	-0.263399	-0.124973
H144	H	1.462622	0.236601	0.375027
