data_functionalizedCrystal
_audit_creation_method	'MofGen! by Chris Wilmer'
_symmetry_space_group_name_H-M	'P1'
_symmetry_Int_Tables_number	1
_symmetry_cell_setting	triclinic
loop_
_symmetry_equiv_pos_as_xyz
  x,y,z
_cell_length_a	19.077105
_cell_length_b	19.121063
_cell_length_c	19.121278
_cell_angle_alpha	90.135726
_cell_angle_beta	89.970863
_cell_angle_gamma	90.263052
loop_
_atom_site_label
_atom_site_type_symbol
_atom_site_fract_x
_atom_site_fract_y
_atom_site_fract_z
Zn1	Zn	1.043716	-0.302260	0.451792
Zn2	Zn	1.043201	-0.424484	0.339528
Zn3	Zn	0.931204	-0.302965	0.329880
Zn4	Zn	0.921177	-0.414761	0.451638
O5	O	0.984825	-0.361117	0.393209
O6	O	1.141801	-0.322247	0.441002
O7	O	1.032325	-0.412728	0.240308
O8	O	0.950541	-0.204933	0.342079
O9	O	1.141423	-0.412044	0.358522
O10	O	1.033203	-0.204416	0.431647
O11	O	0.950042	-0.323448	0.233220
O12	O	0.831720	-0.314021	0.341929
O13	O	0.933451	-0.395474	0.549598
O14	O	0.824353	-0.396157	0.431385
O15	O	1.023480	-0.312820	0.549711
O16	O	1.022602	-0.521132	0.358372
O17	O	0.932952	-0.513989	0.440740
C18	C	0.802587	-0.354111	0.385594
C19	C	0.724623	-0.351129	0.382353
C20	C	0.684178	-0.392563	0.427338
C21	C	0.610923	-0.389753	0.424296
C22	C	0.578115	-0.345511	0.376266
C23	C	0.618565	-0.304073	0.331279
C24	C	0.691818	-0.306880	0.334325
C25	C	0.359440	-0.332518	0.362172
C26	C	0.286181	-0.329716	0.359129
C27	C	0.278545	-0.415395	0.452147
C28	C	0.351800	-0.418201	0.455185
C29	C	0.392243	-0.376760	0.410201
N30	N	0.503237	-0.342639	0.373154
N31	N	0.467120	-0.379629	0.413317
C32	C	0.976652	-0.542955	0.400602
C33	C	0.973218	-0.620747	0.403791
C34	C	1.018315	-0.660989	0.362444
C35	C	1.015090	-0.734083	0.365447
C36	C	0.966765	-0.766933	0.409795
C37	C	0.921666	-0.726685	0.451147
C38	C	0.924895	-0.653593	0.448147
C39	C	0.954682	-0.987439	0.421000
C40	C	0.951455	-1.060537	0.423995
C41	C	1.044881	-1.067930	0.338296
C42	C	1.048102	-0.994836	0.335297
C43	C	1.003006	-0.954594	0.376652
C44	C	0.963466	-0.841646	0.412864
C45	C	1.006309	-0.879882	0.373586
C46	C	1.167774	-0.368152	0.400855
C47	C	1.245736	-0.371149	0.404113
C48	C	0.977404	-0.352984	0.575759
C49	C	0.974242	-0.349518	0.653551
C50	C	0.993048	-0.178570	0.385804
C51	C	0.996552	-0.100780	0.382648
C52	C	0.992258	-0.369170	0.211370
C53	C	0.995565	-0.372445	0.133576
C54	C	0.954212	-0.327589	1.093341
C55	C	0.957187	-0.330843	1.020247
C56	C	1.001511	-0.378957	0.987390
C57	C	1.042868	-0.423814	1.027630
C58	C	1.039897	-0.420556	1.100723
C59	C	1.012628	-0.391117	0.766883
C60	C	1.015595	-0.394373	0.693786
C61	C	0.929914	-0.301401	0.686408
C62	C	0.926944	-0.298150	0.759502
C63	C	0.968304	-0.343005	0.799736
C64	C	1.004551	-0.382286	0.912677
C65	C	0.965267	-0.339672	0.874447
H66	H	0.259471	-0.293681	0.320020
H67	H	1.051812	-0.766845	0.331777
C68	C	0.720265	-0.441230	0.480173
C69	C	0.706853	-0.520658	0.477150
C70	C	0.742938	-0.569324	0.529988
C71	C	0.792433	-0.538563	0.585849
C72	C	0.805847	-0.459131	0.588874
C73	C	0.769762	-0.410465	0.536036
H74	H	0.670212	-0.543433	0.435796
H75	H	0.733008	-0.628124	0.527748
H76	H	0.819145	-0.574588	0.624962
H77	H	0.842488	-0.436356	0.630227
H78	H	0.779692	-0.351664	0.538276
C79	C	0.387883	-0.466869	0.508021
C80	C	0.437003	-0.525056	0.481928
C81	C	0.473084	-0.573729	0.534762
C82	C	0.460046	-0.564214	0.613690
C83	C	0.410924	-0.506024	0.639787
C84	C	0.374843	-0.457351	0.586953
H85	H	0.446656	-0.532102	0.423497
H86	H	0.509448	-0.616805	0.515442
H87	H	0.486756	-0.600244	0.652801
H88	H	0.401270	-0.498978	0.698218
H89	H	0.338479	-0.414275	0.606273
H90	H	0.912111	-1.087281	0.460121
C91	C	0.916511	-0.286749	0.910588
C92	C	0.858039	-0.312724	0.959769
C93	C	0.809280	-0.259803	0.995917
C94	C	0.818994	-0.180908	0.982885
C95	C	0.877469	-0.154929	0.933702
C96	C	0.926227	-0.207849	0.897554
H97	H	0.850846	-0.371131	0.969418
H98	H	0.765993	-0.279035	1.032326
H99	H	0.782900	-0.141733	1.009644
H100	H	0.884662	-0.096522	0.924053
H101	H	0.969514	-0.188617	0.861145
H102	H	0.245608	-0.449133	0.488771
H103	H	0.918117	-0.288411	1.120088
H104	H	1.040638	-0.421461	0.885916
H105	H	1.045658	-0.853134	0.337480
C106	C	1.058118	-0.440448	0.811149
C107	C	1.112505	-0.409984	0.862465
C108	C	1.157996	-0.459312	0.906741
C109	C	1.149100	-0.539104	0.899702
C110	C	1.094711	-0.569572	0.848385
C111	C	1.049220	-0.520244	0.804108
H112	H	1.119093	-0.350913	0.867677
H113	H	1.198259	-0.436757	0.944730
H114	H	1.182775	-0.575620	0.932479
H115	H	1.088123	-0.628643	0.843172
H116	H	1.008957	-0.542799	0.766119
H117	H	0.591846	-0.268048	0.292175
C118	C	0.878188	-0.245220	0.795638
C119	C	0.819706	-0.271184	0.844813
C120	C	0.770947	-0.218255	0.880948
C121	C	0.780669	-0.139362	0.867907
C122	C	0.839153	-0.113393	0.818729
C123	C	0.887912	-0.166323	0.782595
H124	H	0.812507	-0.329589	0.854469
H125	H	0.727653	-0.237479	0.917353
H126	H	0.744574	-0.100180	0.894656
H127	H	0.846352	-0.054988	0.809074
H128	H	0.931206	-0.147099	0.746190
C129	C	0.884425	-0.252059	0.642150
C130	C	0.887690	-0.255636	0.561751
C131	C	0.842201	-0.206290	0.517493
C132	C	0.793446	-0.153366	0.553634
C133	C	0.790180	-0.149786	0.634038
C134	C	0.835669	-0.199133	0.678295
H135	H	0.923783	-0.294816	0.534993
H136	H	0.844619	-0.208940	0.457973
H137	H	0.759772	-0.116837	0.520872
H138	H	0.754087	-0.110607	0.660795
H139	H	0.833251	-0.196482	0.737815
C140	C	0.403914	-0.286948	0.312672
C141	C	0.397173	-0.206748	0.314838
C142	C	0.441647	-0.161180	0.265327
C143	C	0.492862	-0.195812	0.213649
C144	C	0.499605	-0.276016	0.211480
C145	C	0.455131	-0.321584	0.260992
H146	H	0.359259	-0.181108	0.353095
H147	H	0.436655	-0.101808	0.266933
H148	H	0.525784	-0.162080	0.176998
H149	H	0.537519	-0.301656	0.173223
H150	H	0.460123	-0.380956	0.259386
C151	C	1.064357	-0.447299	0.657641
C152	C	1.109854	-0.496637	0.701895
C153	C	1.158612	-0.549560	0.665749
C154	C	1.161873	-0.553146	0.585351
C155	C	1.116375	-0.503806	0.541092
C156	C	1.067617	-0.450882	0.577238
H157	H	1.107441	-0.493984	0.761415
H158	H	1.192292	-0.586085	0.698513
H159	H	1.197967	-0.592323	0.558594
H160	H	1.118788	-0.506458	0.481572
H161	H	1.033937	-0.414358	0.544474
C162	C	0.905075	-0.943185	0.466491
C163	C	0.825130	-0.950502	0.457802
C164	C	0.775520	-0.906246	0.503298
C165	C	0.805856	-0.854672	0.557483
C166	C	0.885806	-0.847353	0.566174
C167	C	0.935416	-0.891609	0.520678
H168	H	0.802669	-0.988682	0.417689
H169	H	0.716336	-0.911664	0.496864
H170	H	0.769133	-0.821911	0.591161
H171	H	0.908267	-0.809173	0.606287
H172	H	0.994600	-0.886190	0.527112
C173	C	1.085379	-0.469902	1.144987
C174	C	1.076469	-0.549691	1.137930
C175	C	1.121953	-0.599036	1.182195
C176	C	1.176346	-0.568593	1.233516
C177	C	1.185257	-0.488799	1.240575
C178	C	1.139774	-0.439454	1.196311
H179	H	1.036202	-0.572231	1.099937
H180	H	1.115356	-0.658105	1.176969
H181	H	1.210015	-0.605121	1.266284
H182	H	1.225524	-0.466259	1.278568
H183	H	1.146371	-0.380385	1.201536
H184	H	0.882322	-0.753437	0.487259
H185	H	0.888173	-0.620828	0.481817
C186	C	1.101265	-0.958709	0.286513
C187	C	1.098393	-0.972133	0.207124
C188	C	1.151555	-0.936008	0.158337
C189	C	1.207589	-0.886459	0.188938
C190	C	1.210463	-0.873033	0.268332
C191	C	1.157301	-0.909157	0.317119
H192	H	1.056912	-1.008814	0.184467
H193	H	1.149427	-0.945947	0.099564
H194	H	1.246942	-0.859717	0.152823
H195	H	1.251944	-0.836352	0.290988
H196	H	1.159429	-0.899218	0.375891
H197	H	0.577996	-0.423493	0.460926
H198	H	0.724748	-0.273137	0.297697
H199	H	1.057664	-0.634248	0.326328
H200	H	1.081596	-1.100702	0.304628
H201	H	0.923512	-0.294318	0.987491
H202	H	1.078961	-0.462986	1.000872
H203	H	0.924118	-0.868401	0.448971
