data_functionalizedCrystal
_audit_creation_method	'MofGen! by Chris Wilmer'
_symmetry_space_group_name_H-M	'P1'
_symmetry_Int_Tables_number	1
_symmetry_cell_setting	triclinic
loop_
_symmetry_equiv_pos_as_xyz
  x,y,z
_cell_length_a	6.817900
_cell_length_b	17.982783
_cell_length_c	16.015572
_cell_angle_alpha	78.159762
_cell_angle_beta	104.485554
_cell_angle_gamma	102.448572
loop_
_atom_site_label
_atom_site_type_symbol
_atom_site_fract_x
_atom_site_fract_y
_atom_site_fract_z
V1	V	-3.990105	-0.030701	-0.269497
O2	O	-3.983625	0.078252	-0.263999
O3	O	-3.936766	-0.134716	-0.268009
O4	O	-3.928047	0.003460	-0.386873
O5	O	-3.992405	-0.060880	-0.144312
V6	V	-4.476142	-0.021650	-0.254481
O7	O	-4.245847	-0.050556	-0.302437
O8	O	-4.670598	-0.001794	-0.221542
O9	O	-4.306275	0.082365	-0.255970
O10	O	-4.600019	-0.130603	-0.259980
O11	O	-4.591239	0.008529	-0.379667
O12	O	-4.314994	-0.055810	-0.137106
C13	C	-3.781008	-0.161125	-0.263849
C14	C	-3.818593	-0.245942	-0.263414
C15	C	-3.805786	-0.296833	-0.184124
C16	C	-3.841121	-0.376527	-0.183719
C17	C	-3.889248	-0.405328	-0.262604
C18	C	-3.902060	-0.354431	-0.341900
C19	C	-3.866740	-0.274739	-0.342305
C20	C	-4.044505	-0.675821	-0.340270
C21	C	-4.079819	-0.755520	-0.339858
C22	C	-4.018886	-0.777610	-0.181683
C23	C	-3.983566	-0.697917	-0.182088
C24	C	-3.996392	-0.647027	-0.261384
C25	C	-3.958082	-0.560614	-0.261823
C26	C	-3.927543	-0.491740	-0.262166
C27	C	-3.769884	0.015132	-0.415471
C28	C	-3.800395	0.042374	-0.511428
C29	C	-4.077549	-0.199424	-0.889883
C30	C	-4.106225	-0.173801	-0.980046
C31	C	-4.035531	-0.041239	-0.954888
C32	C	-4.006838	-0.066850	-0.864721
C33	C	-4.027854	-0.145944	-0.832227
C34	C	-3.957143	-0.013370	-0.807065
C35	C	-3.928464	-0.038980	-0.716906
C36	C	-3.949480	-0.118070	-0.684405
C37	C	-3.999175	-0.171553	-0.742069
C38	C	-3.936143	0.065723	-0.839561
C39	C	-3.886448	0.119203	-0.781905
C40	C	-3.857753	0.093593	-0.691744
C41	C	-3.878770	0.014503	-0.659243
C42	C	-3.808059	0.147077	-0.634080
C43	C	-3.779380	0.121467	-0.543922
C44	C	-3.850091	-0.011106	-0.569084
C45	C	-4.125375	0.108770	-0.260127
C46	C	-4.067028	0.193587	-0.260568
C47	C	-4.136499	-0.067486	-0.108503
C48	C	-4.085227	-0.094725	-0.012545
H49	H	-3.830696	-0.417960	-0.119153
C50	C	-3.918524	-0.146034	-0.586550
C51	C	-3.947615	-0.226746	-0.570437
C52	C	-3.919141	-0.252534	-0.480305
H53	H	-3.782949	-0.125777	-0.558593
H54	H	-4.015090	-0.129043	-0.564297
H55	H	-3.851053	-0.243729	-0.592678
H56	H	-4.083181	-0.247022	-0.598372
H57	H	-4.015706	-0.235543	-0.458053
H58	H	-3.783565	-0.232272	-0.452356
H59	H	-3.938893	-0.307299	-0.469361
H60	H	-4.016260	-0.235958	-0.715610
C61	C	-4.099854	-0.285321	-0.854750
C62	C	-4.149239	-0.326677	-0.924532
C63	C	-4.169518	-0.405798	-0.892194
H64	H	-3.973900	-0.296316	-0.817378
H65	H	-4.206104	-0.299947	-0.822860
H66	H	-4.042997	-0.312057	-0.956408
H67	H	-4.275198	-0.315706	-0.961911
H68	H	-4.275768	-0.420424	-0.860303
H69	H	-4.043558	-0.416785	-0.854821
H70	H	-4.203046	-0.433869	-0.939535
C71	C	-3.931445	-0.666800	-0.096350
C72	C	-3.927848	-0.728427	-0.026824
C73	C	-3.879877	-0.699794	0.052171
H74	H	-3.800324	-0.634470	-0.090332
H75	H	-4.032500	-0.637910	-0.095942
H76	H	-3.826798	-0.757305	-0.027231
H77	H	-4.058950	-0.760763	-0.032813
H78	H	-3.980932	-0.670904	0.052579
H79	H	-3.748758	-0.667465	0.058180
H80	H	-3.877449	-0.741604	0.099353
C81	C	-4.012348	0.044659	-0.990040
C82	C	-3.812840	0.080859	-0.956350
C83	C	-3.791416	0.159990	-0.988700
H84	H	-4.036397	0.052365	-1.051984
H85	H	-4.109088	0.066078	-0.972878
H86	H	-3.716129	0.059446	-0.973517
H87	H	-3.788747	0.073175	-0.894409
H88	H	-3.888155	0.181410	-0.971538
H89	H	-3.815473	0.167688	-1.050643
H90	H	-3.656056	0.184563	-0.965839
C91	C	-4.160590	-0.231840	-1.042700
C92	C	-4.350362	-0.223456	-1.099334
C93	C	-4.400528	-0.276911	-1.157056
H94	H	-4.057389	-0.223006	-1.075666
H95	H	-4.169128	-0.282627	-1.010468
H96	H	-4.341811	-0.172681	-1.131563
H97	H	-4.453604	-0.232296	-1.066393
H98	H	-4.409065	-0.327698	-1.124825
H99	H	-4.297315	-0.268074	-1.190016
H100	H	-4.529300	-0.271235	-1.195484
C101	C	-3.863658	0.205103	-0.817022
C102	C	-3.814048	0.246456	-0.747229
C103	C	-3.793066	0.325589	-0.779543
H104	H	-3.757306	0.219608	-0.848842
H105	H	-3.989457	0.216229	-0.854456
H106	H	-3.688264	0.235336	-0.709809
H107	H	-3.920377	0.231975	-0.715401
H108	H	-3.918865	0.336715	-0.816977
H109	H	-3.686716	0.340086	-0.811363
H110	H	-3.759422	0.353657	-0.732195
H111	H	-3.959466	0.086572	-0.912974
H112	H	-3.766583	-0.273390	-0.119886
C113	C	-4.132170	-0.786643	-0.425605
C114	C	-4.135903	-0.725020	-0.495139
C115	C	-4.184145	-0.753662	-0.574137
H116	H	-4.031236	-0.815541	-0.426100
H117	H	-4.263329	-0.818966	-0.431538
H118	H	-4.004762	-0.692709	-0.489208
H119	H	-4.236839	-0.696115	-0.494673
H120	H	-4.315303	-0.785985	-0.580069
H121	H	-4.083205	-0.782560	-0.574622
H122	H	-4.186703	-0.711856	-0.621325
C123	C	-3.725327	0.179651	-0.481456
C124	C	-3.713004	0.254399	-0.529208
C125	C	-3.663198	0.308018	-0.471692
H126	H	-3.828639	0.170867	-0.448555
H127	H	-3.596555	0.174110	-0.442955
H128	H	-3.841759	0.259936	-0.567693
H129	H	-3.609688	0.263207	-0.562106
H130	H	-3.534426	0.302478	-0.433192
H131	H	-3.766517	0.299227	-0.438795
H132	H	-3.654812	0.358740	-0.504083
H133	H	-3.790974	0.211474	-0.660552
H134	H	-3.877190	-0.233303	-0.406872
C135	C	-4.058822	-0.620551	-0.426347
C136	C	-4.211604	-0.576704	-0.435292
C137	C	-4.224878	-0.525787	-0.514587
H138	H	-3.930402	-0.587211	-0.427129
H139	H	-4.092648	-0.649099	-0.473291
H140	H	-4.177766	-0.548158	-0.388361
H141	H	-4.340048	-0.610023	-0.434526
H142	H	-4.258704	-0.554335	-0.561531
H143	H	-4.096450	-0.492452	-0.515362
H144	H	-4.328553	-0.496036	-0.520670
H145	H	-4.008454	-0.819055	-0.117116
C146	C	-3.954723	-0.385662	-0.427585
C147	C	-4.135770	-0.362161	-0.479465
C148	C	-4.184358	-0.390924	-0.558400
H149	H	-3.845587	-0.366368	-0.457494
H150	H	-3.974046	-0.440417	-0.416027
H151	H	-4.116436	-0.307418	-0.491026
H152	H	-4.244945	-0.381454	-0.449584
H153	H	-4.203680	-0.445678	-0.546842
H154	H	-4.075210	-0.371627	-0.588301
H155	H	-4.307211	-0.374988	-0.593607
H156	H	-3.867176	-0.075511	-0.542625
