data_functionalizedCrystal
_audit_creation_method	'MofGen! by Chris Wilmer'
_symmetry_space_group_name_H-M	'P1'
_symmetry_Int_Tables_number	1
_symmetry_cell_setting	triclinic
loop_
_symmetry_equiv_pos_as_xyz
  x,y,z
_cell_length_a	16.974800
_cell_length_b	9.730223
_cell_length_c	16.992695
_cell_angle_alpha	90.000351
_cell_angle_beta	87.021674
_cell_angle_gamma	86.346000
loop_
_atom_site_label
_atom_site_type_symbol
_atom_site_fract_x
_atom_site_fract_y
_atom_site_fract_z
O1	O	1.055459	-0.003147	0.099873
O2	O	1.555459	0.496853	0.599873
O3	O	0.826057	0.022381	0.112613
O4	O	1.326057	0.522381	0.612613
O5	O	0.939839	0.009708	-0.007899
O6	O	1.439839	0.509708	0.492101
O7	O	0.941678	0.009526	0.220385
O8	O	1.441678	0.509526	0.720385
O9	O	0.939831	-0.218871	-0.007892
O10	O	1.439831	0.281129	0.492108
O11	O	0.826050	-0.206198	0.112619
O12	O	1.326050	0.293802	0.612619
O13	O	1.055452	-0.231726	0.099880
O14	O	1.555452	0.268274	0.599880
Zn15	Zn	0.940750	-0.255254	0.106251
Zn16	Zn	1.440750	0.244746	0.606251
Zn17	Zn	0.940760	0.045909	0.106242
Zn18	Zn	1.440760	0.545909	0.606242
O19	O	0.941671	-0.219054	0.220391
O20	O	1.441671	0.280946	0.720391
C21	C	0.796565	-0.088627	0.112133
C22	C	1.296565	0.411373	0.612133
C23	C	0.708696	-0.078849	0.110686
C24	C	1.208696	0.421151	0.610686
N25	N	0.940749	-0.460790	0.106256
N26	N	1.440749	0.039210	0.606256
C27	C	0.667416	-0.198857	0.110007
C28	C	1.167416	0.301143	0.610007
C29	C	0.584855	-0.189674	0.108634
C30	C	1.084855	0.310326	0.608634
C31	C	0.543576	-0.060481	0.107945
C32	C	1.043576	0.439519	0.607945
C33	C	0.584862	0.059536	0.108622
C34	C	1.084862	0.559536	0.608622
C35	C	0.667421	0.050351	0.109989
C36	C	1.167421	0.550351	0.609989
C37	C	0.296659	-0.019651	0.103851
C38	C	0.796659	0.480349	0.603851
C39	C	0.214093	-0.010476	0.102486
C40	C	0.714093	0.489524	0.602486
C41	C	0.214093	-0.259686	0.102497
C42	C	0.714093	0.240314	0.602497
C43	C	0.296654	-0.268860	0.103869
C44	C	0.796654	0.231140	0.603869
C45	C	0.337933	-0.148843	0.104541
C46	C	0.837933	0.351157	0.604541
N47	N	0.459185	-0.051091	0.106545
N48	N	0.959185	0.448909	0.606545
N49	N	0.422322	-0.158234	0.105936
N50	N	0.922322	0.341766	0.605936
C51	C	0.991704	-0.538395	0.153779
C52	C	1.491704	-0.038395	0.653779
C53	C	0.991715	-0.682279	0.153765
C54	C	1.491715	-0.182279	0.653765
C55	C	0.889809	-0.670940	0.058702
C56	C	1.389809	-0.170940	0.558702
C57	C	0.889802	-0.527059	0.058713
C58	C	1.389802	-0.027059	0.558713
C59	C	1.042651	-0.472126	0.201323
C60	C	1.542651	0.027874	0.701323
C61	C	1.093610	-0.549731	0.248850
C62	C	1.593610	-0.049731	0.748850
C63	C	1.093621	-0.693615	0.248835
C64	C	1.593621	-0.193615	0.748835
C65	C	1.042673	-0.759894	0.201293
C66	C	1.542673	-0.259894	0.701293
C67	C	1.084945	-0.120715	0.100360
C68	C	1.584945	0.379285	0.600360
C69	C	1.172813	-0.130484	0.101807
C70	C	1.672813	0.369516	0.601807
C71	C	0.937469	-0.104318	-0.037105
C72	C	1.437469	0.395682	0.462895
C73	C	0.930409	-0.103532	-0.124141
C74	C	1.430409	0.396468	0.375859
N75	N	0.940766	0.251445	0.106230
N76	N	1.440766	0.751445	0.606230
C77	C	0.998525	-0.111113	-0.174459
C78	C	1.498525	0.388887	0.325541
C79	C	0.991887	-0.110361	-0.256238
C80	C	1.491887	0.389639	0.243762
C81	C	0.917133	-0.102038	-0.287698
C82	C	1.417133	0.397962	0.212302
C83	C	0.849012	-0.094452	-0.237374
C84	C	1.349012	0.405548	0.262626
C85	C	0.855651	-0.095194	-0.155597
C86	C	1.355651	0.404806	0.344403
C87	C	0.889618	-0.098957	-0.531265
C88	C	1.389618	0.401043	-0.031265
C89	C	0.882984	-0.098220	-0.613049
C90	C	1.382984	0.401780	-0.113049
C91	C	1.025860	-0.114127	-0.631906
C92	C	1.525860	0.385873	-0.131906
C93	C	1.032492	-0.114876	-0.550126
C94	C	1.532492	0.385124	-0.050126
C95	C	0.964371	-0.107283	-0.499810
C96	C	1.464371	0.392717	0.000190
N97	N	0.910346	-0.101274	-0.371289
N98	N	1.410346	0.398726	0.128711
N99	N	0.971159	-0.108038	-0.416220
N100	N	1.471159	0.391962	0.083780
C101	C	0.944040	-0.105024	0.249598
C102	C	1.444040	0.394976	0.749598
C103	C	0.951100	-0.105801	0.336634
C104	C	1.451100	0.394199	0.836634
H105	H	0.551249	-0.287398	0.108069
H106	H	1.051249	0.212602	0.608069
H107	H	0.822108	-0.091464	-0.638660
H108	H	1.322108	0.408536	-0.138660
H109	H	0.848328	-0.724916	0.019996
H110	H	1.348328	-0.224916	0.519996
H111	H	0.834149	-0.092775	-0.490306
H112	H	1.334149	0.407225	0.009694
O113	O	1.042609	-0.316934	0.201440
O114	O	1.542609	0.183066	0.701440
H115	H	1.102273	-0.285514	0.182113
H116	H	1.602273	0.214486	0.682113
H117	H	0.788146	-0.087666	-0.262996
H118	H	1.288146	0.412334	0.237004
H119	H	1.135094	-0.495758	0.287553
H120	H	1.635094	0.004242	0.787553
H121	H	0.800184	-0.089020	-0.114628
H122	H	1.300184	0.410980	0.385372
H123	H	1.093365	-0.121654	-0.524518
H124	H	1.593365	0.378346	-0.024518
H125	H	0.701031	0.148075	0.110543
H126	H	1.201031	0.648075	0.610543
H127	H	1.042693	-0.877056	0.201277
H128	H	1.542693	-0.377056	0.701277
O129	O	0.834840	-0.443340	0.007463
O130	O	1.334840	0.056660	0.507463
H131	H	0.799405	-0.513590	-0.025589
H132	H	1.299405	-0.013590	0.474411
H133	H	1.135119	-0.756799	0.287529
H134	H	1.635119	-0.256799	0.787529
O135	O	0.169571	0.128879	0.101737
O136	O	0.669571	0.628879	0.601737
H137	H	0.128289	0.139445	0.154533
H138	H	0.628289	0.639445	0.654533
O139	O	1.099328	-0.122316	-0.686177
O140	O	1.599328	0.377684	-0.186177
H141	H	1.134865	-0.033113	-0.674999
H142	H	1.634865	0.466887	-0.174999
H143	H	0.701020	-0.304060	0.110574
H144	H	1.201020	0.195940	0.610574
H145	H	0.330258	-0.374062	0.104426
H146	H	0.830258	0.125938	0.604426
H147	H	1.059398	-0.117899	-0.148851
H148	H	1.559398	0.382101	0.351149
O149	O	1.065358	-0.118561	-0.310505
O150	O	1.565358	0.381439	0.189495
H151	H	1.100901	-0.029367	-0.299323
H152	H	1.600901	0.470633	0.200677
O153	O	0.169546	-0.389125	0.102170
O154	O	0.669546	0.110875	0.602170
H155	H	0.105192	-0.361039	0.101245
H156	H	0.605192	0.138961	0.601245
O157	O	0.341177	0.109788	0.104584
O158	O	0.841177	0.609788	0.604584
H159	H	0.298599	0.201163	0.103885
H160	H	0.798599	0.701163	0.603885
H161	H	0.551246	0.164727	0.108055
H162	H	1.051246	0.664727	0.608055
