data_functionalizedCrystal
_audit_creation_method	'MofGen! by Chris Wilmer'
_symmetry_space_group_name_H-M	'P1'
_symmetry_Int_Tables_number	1
_symmetry_cell_setting	triclinic
loop_
_symmetry_equiv_pos_as_xyz
  x,y,z
_cell_length_a	17.077404
_cell_length_b	11.169416
_cell_length_c	17.077404
_cell_angle_alpha	90.005128
_cell_angle_beta	90.008318
_cell_angle_gamma	90.010565
loop_
_atom_site_label
_atom_site_type_symbol
_atom_site_fract_x
_atom_site_fract_y
_atom_site_fract_z
Zn1	Zn	1.200036	-0.478008	0.443874
Zn2	Zn	1.199998	-0.678658	0.312622
Zn3	Zn	1.068794	-0.477988	0.312622
Zn4	Zn	1.068765	-0.678648	0.443845
O5	O	1.134398	-0.578326	0.378241
O6	O	1.309878	-0.504637	0.426475
O7	O	1.182589	-0.652035	0.202775
O8	O	1.086232	-0.310041	0.330046
O9	O	1.309850	-0.652053	0.330044
O10	O	1.182655	-0.310055	0.426476
O11	O	1.086194	-0.504604	0.202775
O12	O	0.958943	-0.504594	0.330017
O13	O	1.086182	-0.652037	0.553696
O14	O	0.958922	-0.652018	0.426426
O15	O	1.182627	-0.504627	0.553717
O16	O	1.182561	-0.846606	0.330016
O17	O	1.086145	-0.846599	0.426426
C18	C	0.930450	-0.578304	0.378219
C19	C	0.843201	-0.578323	0.378228
C20	C	1.134367	-0.890150	0.378235
C21	C	1.134426	-1.023550	0.378258
C22	C	0.802220	-0.655203	0.428348
C23	C	0.720240	-0.655205	0.428361
C24	C	0.679241	-0.578334	0.378249
C25	C	0.720228	-0.501446	0.328127
C26	C	0.802207	-0.501438	0.328119
C27	C	0.549358	-0.501470	0.328146
C28	C	0.467373	-0.501479	0.328153
C29	C	0.467391	-0.655237	0.428388
C30	C	0.549369	-0.655229	0.428380
C31	C	0.590350	-0.578342	0.378256
C32	C	1.339142	-0.578348	0.378263
C33	C	1.426392	-0.578358	0.378272
C34	C	1.134406	-0.578333	0.582985
C35	C	1.134409	-0.578336	0.670235
C36	C	1.134451	-0.265283	0.378264
C37	C	1.134473	-0.131883	0.378274
C38	C	1.184621	-0.501593	0.711237
C39	C	1.184615	-0.501591	0.793218
C40	C	1.134399	-0.578340	0.834194
C41	C	1.084181	-0.655087	0.793186
C42	C	1.084184	-0.655081	0.711207
C43	C	1.084179	-0.655095	0.964056
C44	C	1.084177	-0.655102	1.046041
C45	C	1.184610	-0.501604	1.046067
C46	C	1.184613	-0.501599	0.964088
C47	C	1.134396	-0.578348	0.923085
C48	C	1.134387	-0.578349	1.174293
C49	C	1.134390	-0.578358	1.087043
H50	H	0.835595	-0.717805	0.469152
Cl51	Cl	0.600909	-0.751877	0.491373
Cl52	Cl	0.415833	-0.404844	0.265151
Cl53	Cl	1.247758	-0.405109	0.659732
H54	H	0.434020	-0.717837	0.469202
H55	H	0.686877	-0.717809	0.469172
Cl56	Cl	0.668687	-0.404799	0.265134
H57	H	0.582722	-0.438850	0.287338
Cl58	Cl	0.853725	-0.404783	0.265111
H59	H	1.225505	-0.439102	0.826598
Cl60	Cl	1.021047	-0.751579	0.912511
Cl61	Cl	1.247747	-0.405120	0.912575
Cl62	Cl	1.247741	-0.405122	1.097612
H63	H	1.043285	-0.717595	1.079401
Cl64	Cl	1.021050	-0.751567	0.844699
H65	H	1.043288	-0.717562	0.677824
