data_functionalizedCrystal
_audit_creation_method	'MofGen! by Chris Wilmer'
_symmetry_space_group_name_H-M	'P1'
_symmetry_Int_Tables_number	1
_symmetry_cell_setting	triclinic
loop_
_symmetry_equiv_pos_as_xyz
  x,y,z
_cell_length_a	15.297475
_cell_length_b	15.297327
_cell_length_c	12.827885
_cell_angle_alpha	99.642715
_cell_angle_beta	80.312948
_cell_angle_gamma	91.625546
loop_
_atom_site_label
_atom_site_type_symbol
_atom_site_fract_x
_atom_site_fract_y
_atom_site_fract_z
Zn1	Zn	1.278711	-0.580728	-0.963115
Zn2	Zn	1.253242	-0.727199	-0.812613
Zn3	Zn	1.132226	-0.555385	-0.753991
Zn4	Zn	1.106853	-0.701761	-0.952916
O5	O	1.192758	-0.641268	-0.870659
O6	O	1.397901	-0.621409	-0.971952
O7	O	1.237150	-0.704447	-0.658600
O8	O	1.172935	-0.436189	-0.761467
O9	O	1.379190	-0.729021	-0.861379
O10	O	1.280557	-0.454808	-0.915109
O11	O	1.148239	-0.578216	-0.615531
O12	O	1.006292	-0.553550	-0.751577
O13	O	1.129690	-0.685666	-1.100505
O14	O	0.987650	-0.661092	-0.897726
O15	O	1.255953	-0.596743	-1.107998
O16	O	1.212546	-0.846382	-0.851489
O17	O	1.104995	-0.827693	-0.954569
C18	C	0.965190	-0.601811	-0.817185
C19	C	0.867832	-0.584953	-0.794336
C20	C	0.554608	-0.761766	-1.033961
C21	C	0.646080	-0.777611	-1.055426
C22	C	0.701523	-0.729448	-0.990156
C23	C	0.665484	-0.665436	-0.903416
C24	C	0.574003	-0.649593	-0.881944
C25	C	0.720917	-0.617276	-0.838139
C26	C	0.684878	-0.553264	-0.751399
C27	C	0.593406	-0.537424	-0.729931
C28	C	0.537963	-0.585587	-0.795202
C29	C	0.812398	-0.633119	-0.859611
C30	C	0.831792	-0.520947	-0.707594
C31	C	0.740321	-0.505101	-0.686129
C32	C	1.153277	-0.868820	-0.908312
C33	C	1.136467	-0.966181	-0.924474
C34	C	1.313263	-1.279456	-0.755586
C35	C	1.329056	-1.187980	-0.740396
C36	C	1.280910	-1.132526	-0.786414
C37	C	1.216968	-1.168557	-0.847626
C38	C	1.201168	-1.260041	-0.862811
C39	C	1.168816	-1.113111	-0.893639
C40	C	1.104874	-1.149141	-0.954850
C41	C	1.089078	-1.240617	-0.970033
C42	C	1.137223	-1.296071	-0.924015
C43	C	1.184616	-1.021627	-0.878454
C44	C	1.072522	-1.002211	-0.985678
C45	C	1.056729	-1.093687	-1.000869
C46	C	1.421215	-0.680879	-0.924342
C47	C	1.518569	-0.697759	-0.947219
C48	C	1.192832	-0.641194	-1.143229
C49	C	1.192864	-0.641163	-1.259382
C50	C	1.232417	-0.412832	-0.832886
C51	C	1.249317	-0.315486	-0.816790
C52	C	1.255350	-0.597152	-1.314874
C53	C	1.255385	-0.597118	-1.434925
C54	C	1.192746	-0.641287	-0.599150
C55	C	1.192926	-0.641101	-0.482996
H56	H	0.776003	-0.742353	-1.007639
Cl57	Cl	1.011987	-0.932503	-1.043526
Cl58	Cl	0.484904	-0.822324	-1.115985
Cl59	Cl	1.337893	-0.538987	-1.251006
H60	H	1.004666	-1.123036	-1.050707
Cl61	Cl	1.301006	-1.017568	-0.767659
Cl62	Cl	1.110299	-0.699297	-1.323240
Cl63	Cl	1.110328	-0.699287	-1.409354
H64	H	1.236678	-0.992299	-0.828615
Cl65	Cl	1.373778	-1.349172	-0.697739
H66	H	0.841732	-0.685237	-0.930236
Cl67	Cl	1.117016	-1.411012	-0.942601
Cl68	Cl	1.337988	-0.538946	-1.508578
Cl69	Cl	0.691379	-0.858081	-1.164464
Cl70	Cl	0.422965	-0.565664	-0.768226
H71	H	0.564065	-0.485310	-0.659293
Cl72	Cl	0.695004	-0.424631	-0.577088
Cl73	Cl	1.008689	-1.285909	-1.046979
Cl74	Cl	1.409445	-1.142692	-0.663460
H75	H	0.876934	-0.481729	-0.654444
