data_functionalizedCrystal
_audit_creation_method	'MofGen! by Chris Wilmer'
_symmetry_space_group_name_H-M	'P1'
_symmetry_Int_Tables_number	1
_symmetry_cell_setting	triclinic
loop_
_symmetry_equiv_pos_as_xyz
  x,y,z
_cell_length_a	22.610064
_cell_length_b	23.532407
_cell_length_c	23.532407
_cell_angle_alpha	82.848713
_cell_angle_beta	90.019125
_cell_angle_gamma	89.987421
loop_
_atom_site_label
_atom_site_type_symbol
_atom_site_fract_x
_atom_site_fract_y
_atom_site_fract_z
O1	O	-0.049122	-0.755249	-0.069141
O2	O	-0.049140	-0.589386	-0.079144
O3	O	-0.049114	-0.677319	0.008789
O4	O	-0.049148	-0.667316	-0.157074
O5	O	0.049255	-0.677332	0.008804
O6	O	0.049229	-0.589399	-0.079129
O7	O	0.049248	-0.755262	-0.069126
Zn8	Zn	0.064856	-0.672333	-0.074125
Zn9	Zn	-0.064749	-0.672315	-0.074145
O10	O	0.049221	-0.667329	-0.157059
C11	C	0.000042	-0.568176	-0.078882
C12	C	0.000036	-0.504959	-0.078116
N13	N	-0.153202	-0.672304	-0.074154
C14	C	0.000074	-0.677071	0.030013
C15	C	0.000083	-0.676305	0.093230
C16	C	-0.561831	-0.711350	-0.035273
C17	C	-0.623751	-0.711354	-0.035270
O18	O	-0.655760	-0.744544	-0.002236
N19	N	-0.654739	-0.672345	-0.074126
C20	C	-0.623803	-0.633332	-0.112990
O21	O	-0.655846	-0.600152	-0.146040
C22	C	-0.561884	-0.633331	-0.112995
C23	C	-0.530900	-0.672339	-0.074133
C24	C	-0.530847	-0.750356	0.003585
C25	C	-0.468931	-0.750351	0.003583
C26	C	-0.438000	-0.711340	-0.035278
C27	C	-0.468984	-0.672334	-0.074136
C28	C	-0.530950	-0.594321	-0.151862
C29	C	-0.469027	-0.594324	-0.151864
C30	C	-0.438043	-0.633332	-0.113002
C31	C	-0.376138	-0.633318	-0.112998
N32	N	-0.345150	-0.672328	-0.074143
C33	C	-0.376081	-0.711339	-0.035283
C34	C	-0.753837	-0.633338	-0.112977
C35	C	-0.815755	-0.633336	-0.112970
C36	C	-0.815698	-0.711359	-0.035251
C37	C	-0.753779	-0.711358	-0.035256
C38	C	-0.722849	-0.672348	-0.074122
C39	C	-0.246054	-0.711325	-0.035290
C40	C	-0.184133	-0.711315	-0.035294
C41	C	-0.184195	-0.633293	-0.113015
C42	C	-0.246110	-0.633301	-0.113009
C43	C	-0.277038	-0.672322	-0.074144
O44	O	-0.344090	-0.600147	-0.146017
O45	O	-0.344031	-0.744518	-0.002244
N46	N	0.153309	-0.672349	-0.074111
C47	C	0.000064	-0.776472	-0.069388
C48	C	0.000066	-0.839689	-0.070154
C49	C	0.000053	-0.105856	-0.125350
C50	C	0.000056	-0.046456	-0.124638
O51	O	0.000069	-0.009712	-0.168424
N52	N	0.000066	-0.023830	-0.072362
C53	C	0.000078	-0.060607	-0.020794
O54	O	0.000088	-0.035908	0.023737
C55	C	0.000079	-0.120007	-0.021506
C56	C	0.000063	-0.142629	-0.073785
C57	C	0.000037	-0.128480	-0.177625
C58	C	0.000033	-0.187876	-0.178336
C59	C	0.000043	-0.224649	-0.126772
C60	C	0.000058	-0.202025	-0.074496
C61	C	0.000095	-0.156783	0.030062
C62	C	0.000096	-0.216185	0.029345
C63	C	0.000080	-0.238808	-0.022934
C64	C	0.000063	-0.298194	-0.023643
N65	N	0.000054	-0.320821	-0.075920
C66	C	0.000043	-0.284048	-0.127484
C67	C	0.000078	0.064135	-0.019302
C68	C	0.000074	0.123533	-0.018589
C69	C	0.000053	0.137680	-0.122434
C70	C	0.000053	0.078281	-0.123146
C71	C	0.000069	0.041509	-0.071578
C72	C	0.000033	-0.408784	-0.128974
C73	C	0.000025	-0.468186	-0.129680
C74	C	0.000049	-0.482329	-0.025836
C75	C	0.000053	-0.422932	-0.025129
C76	C	0.000047	-0.386161	-0.076702
O77	O	0.000053	-0.334974	0.020119
O78	O	0.000042	-0.308756	-0.172007
C79	C	0.000032	-0.667577	-0.178283
C80	C	0.000019	-0.668343	-0.241500
C81	C	0.000039	-0.621110	0.359397
C82	C	0.000044	-0.621821	0.299997
O83	O	0.000020	-0.578035	0.263252
N84	N	0.000057	-0.674097	0.277371
C85	C	0.000059	-0.725666	0.314148
O86	O	0.000070	-0.770196	0.289449
C87	C	0.000050	-0.724954	0.373547
C88	C	0.000043	-0.672674	0.396170
C89	C	0.000032	-0.568834	0.382020
C90	C	0.000029	-0.568123	0.441417
C91	C	0.000032	-0.619687	0.478189
C92	C	0.000040	-0.671963	0.455566
C93	C	0.000048	-0.776521	0.410324
C94	C	0.000039	-0.775805	0.469726
C95	C	0.000032	-0.723525	0.492349
C96	C	0.000040	-0.722816	0.551735
N97	N	0.000027	-0.670539	0.574361
C98	C	0.000024	-0.618975	0.537589
C99	C	0.000077	-0.727157	0.189406
C100	C	0.000090	-0.727870	0.130008
C101	C	0.000074	-0.624025	0.115861
C102	C	0.000065	-0.623313	0.175260
C103	C	0.000064	-0.674881	0.212032
C104	C	0.000017	-0.617486	0.662325
C105	C	0.000016	-0.616779	0.721727
C106	C	0.000028	-0.720623	0.735869
C107	C	0.000033	-0.721330	0.676473
C108	C	0.000025	-0.669757	0.639701
O109	O	0.000061	-0.766579	0.588514
O110	O	0.000005	-0.574452	0.562296
H111	H	-0.158907	-0.743080	-0.003646
H112	H	0.000058	-0.404512	0.017441
Br113	Br	-0.288018	-0.764282	0.017455
Br114	Br	0.000033	-0.845794	0.519629
Br115	Br	0.000104	-0.126096	0.101018
H116	H	-0.159001	-0.601530	-0.144653
H117	H	0.000012	-0.486602	-0.172255
H118	H	-0.443847	-0.562557	-0.183515
H119	H	0.000029	-0.378852	-0.170970
Br120	Br	0.000040	0.187598	-0.192415
Br121	Br	-0.426888	-0.803295	0.056322
H122	H	0.000019	-0.206289	-0.220908
H123	H	0.000047	-0.763901	0.658053
H124	H	0.000080	-0.769152	0.219343
H125	H	-0.840978	-0.601566	-0.144609
Br126	Br	0.000065	-0.532246	0.044141
Br127	Br	0.000077	0.154227	0.052364
Br128	Br	0.000120	-0.266088	0.099335
Br129	Br	0.000009	-0.545823	0.752425
H130	H	-0.556169	-0.562558	-0.183507
Br131	Br	-0.288159	-0.580352	-0.165744
H132	H	-0.840894	-0.743125	-0.003609
H133	H	0.000053	-0.819093	0.391915
Br134	Br	0.000023	-0.078583	-0.247615
Br135	Br	0.000013	-0.497168	0.472109
H136	H	-0.556026	-0.782126	0.035230
Br137	Br	0.000006	-0.547492	0.612431
H138	H	-0.728657	-0.601566	-0.144625
H139	H	0.000034	-0.762606	0.765820
H140	H	0.000044	0.059866	-0.165717
H141	H	0.000027	-0.526842	0.352085
Br142	Br	0.000094	0.014235	0.050690
H143	H	-0.728556	-0.743122	-0.003612
H144	H	0.000062	-0.580742	0.193674
Br145	Br	0.000110	-0.798823	0.099313
H146	H	0.000071	-0.582038	0.085909
