data_functionalizedCrystal
_audit_creation_method	'MofGen! by Chris Wilmer'
_symmetry_space_group_name_H-M	'P1'
_symmetry_Int_Tables_number	1
_symmetry_cell_setting	triclinic
loop_
_symmetry_equiv_pos_as_xyz
  x,y,z
_cell_length_a	31.640172
_cell_length_b	14.628931
_cell_length_c	31.640172
_cell_angle_alpha	59.999398
_cell_angle_beta	90.009241
_cell_angle_gamma	59.998250
loop_
_atom_site_label
_atom_site_type_symbol
_atom_site_fract_x
_atom_site_fract_y
_atom_site_fract_z
Zr1	Zr	0.407175	1.000480	-0.055414
O2	O	0.339675	1.191220	-0.122912
O3	O	0.427867	0.809764	-0.034722
O4	O	0.427854	1.000490	-0.122900
O5	O	0.339698	1.000478	0.034823
O6	O	0.497411	1.000471	-0.122891
O7	O	0.339688	1.000494	-0.034734
O8	O	0.497434	0.659297	0.034844
O9	O	0.339675	1.341652	-0.122912
O10	O	0.488601	0.888186	-0.025890
O11	O	0.436699	0.888188	0.026012
O12	O	0.436684	1.112743	-0.077806
O13	O	0.384782	1.112745	-0.025904
Zr14	Zr	0.518126	1.000424	0.055536
Zr15	Zr	0.518110	1.000450	-0.055399
Zr16	Zr	0.407191	1.000455	0.055521
Zr17	Zr	0.407175	1.240402	-0.055414
Zr18	Zr	0.518126	0.760503	0.055536
O19	O	0.497434	1.191140	0.034844
O20	O	0.497411	1.191177	-0.122891
O21	O	0.339698	1.191183	0.034823
O22	O	0.585625	0.809685	0.123034
O23	O	0.585603	0.809721	-0.034701
O24	O	0.427889	0.809728	0.123013
O25	O	0.585603	1.000427	-0.034701
O26	O	0.497447	1.000415	0.123022
O27	O	0.427890	1.000434	0.123013
O28	O	0.585613	1.000411	0.034856
O29	O	0.427854	1.341628	-0.122900
O30	O	0.497446	0.659277	0.123022
O31	O	0.585625	0.659253	0.123034
O32	O	0.585613	0.659273	0.034856
O33	O	0.339688	1.341631	-0.034734
O34	O	0.427867	1.341607	-0.034722
O35	O	0.488616	0.888162	0.077928
O36	O	0.540518	0.888160	0.026026
O37	O	0.488602	1.112717	-0.025890
O38	O	0.436699	1.112719	0.026012
C39	C	0.462650	0.700347	0.000061
C40	C	0.462650	0.598494	0.000061
C41	C	0.488397	0.553084	-0.025686
C42	C	0.488398	0.447813	-0.025686
C43	C	0.323887	1.000490	0.000042
C44	C	0.276792	1.000503	0.000036
C45	C	0.011886	0.883224	0.027171
C46	C	-0.165099	0.883201	0.027181
O47	O	-0.164937	0.783512	0.050248
N48	N	-0.214329	1.000417	0.000081
C49	C	-0.219312	1.117647	-0.027021
O50	O	-0.265246	1.217345	-0.050067
C51	C	-0.042327	1.117668	-0.027028
C52	C	0.006902	1.000444	0.000070
C53	C	0.061113	0.766010	0.054267
C54	C	0.105357	0.766016	0.054262
C55	C	0.100373	0.883237	0.027161
C56	C	0.051146	1.000451	0.000065
C57	C	-0.047310	1.234896	-0.054127
C58	C	-0.003059	1.234891	-0.054125
C59	C	0.046170	1.117667	-0.027027
C60	C	0.090405	1.117678	-0.027042
N61	N	0.139635	1.000463	0.000059
C62	C	0.144619	0.883242	0.027160
C63	C	-0.312229	1.117627	-0.027016
C64	C	-0.356475	1.117622	-0.027016
C65	C	-0.302259	0.883176	0.027188
C66	C	-0.258013	0.883183	0.027184
C67	C	-0.262999	1.000411	0.000084
C68	C	0.237531	0.883265	0.027147
C69	C	0.281776	0.883282	0.027137
C70	C	0.227556	1.117727	-0.027063
C71	C	0.183315	1.117711	-0.027057
C72	C	0.188306	1.000469	0.000052
O73	O	0.090283	1.217315	-0.050091
O74	O	0.190557	0.783558	0.050212
C75	C	-0.032357	0.883217	0.027176
C76	C	-0.081584	1.000431	0.000080
C77	C	-0.086568	1.117651	-0.027021
C78	C	-0.125830	1.000426	0.000081
C79	C	-0.120847	0.883205	0.027182
C80	C	-0.071617	0.765989	0.054283
C81	C	-0.027373	0.765996	0.054278
C82	C	-0.135798	1.234867	-0.054122
C83	C	-0.180039	1.234851	-0.054115
C84	C	-0.175055	1.117630	-0.027013
C85	C	0.601414	1.000415	0.000079
C86	C	0.648509	1.000402	0.000086
C87	C	0.462630	1.000484	-0.138701
C88	C	0.462624	1.000495	-0.185796
C89	C	0.462651	1.300558	0.000061
C90	C	0.462651	1.402411	0.000061
C91	C	0.500980	1.000419	-0.477796
C92	C	0.500991	1.000402	-0.654782
O93	O	0.533594	1.000335	-0.677650
N94	N	0.462671	1.000415	-0.676918
C95	C	0.424347	1.000423	-0.654802
O96	O	0.391757	1.000421	-0.677688
C97	C	0.424338	1.000431	-0.477814
C98	C	0.462658	1.000431	-0.455684
C99	C	0.539297	1.000417	-0.455665
C100	C	0.539292	1.000429	-0.411423
C101	C	0.500970	1.000441	-0.389311
C102	C	0.462653	1.000443	-0.411442
C103	C	0.386017	1.000431	-0.455698
C104	C	0.386019	1.000429	-0.411447
C105	C	0.424339	1.000429	-0.389317
C106	C	0.424326	1.000467	-0.345088
N107	N	0.462647	1.000454	-0.322952
C108	C	0.500968	1.000441	-0.345064
C109	C	0.424354	1.000422	-0.747724
C110	C	0.424355	1.000422	-0.791971
C111	C	0.501000	1.000398	-0.791947
C112	C	0.500996	1.000407	-0.747701
C113	C	0.462674	1.000409	-0.725588
C114	C	0.500955	1.000466	-0.252152
C115	C	0.500945	1.000482	-0.207907
C116	C	0.424302	1.000500	-0.207933
C117	C	0.424310	1.000490	-0.252176
C118	C	0.462641	1.000469	-0.274283
O119	O	0.391743	1.000518	-0.322189
O120	O	0.533560	1.000415	-0.322164
C121	C	0.500985	1.000407	-0.522038
C122	C	0.462668	1.000409	-0.544169
C123	C	0.424346	1.000421	-0.522057
C124	C	0.462669	1.000409	-0.588416
C125	C	0.500991	1.000396	-0.610527
C126	C	0.539311	1.000383	-0.588392
C127	C	0.539306	1.000395	-0.544149
C128	C	0.386026	1.000434	-0.544193
C129	C	0.386033	1.000424	-0.588436
C130	C	0.424355	1.000412	-0.610547
C131	C	0.462670	1.000420	0.138823
C132	C	0.462677	1.000410	0.185917
C133	C	0.601413	0.700309	0.000080
C134	C	0.648508	0.598443	0.000086
C135	C	0.462670	0.700315	0.138823
C136	C	0.462677	0.598451	0.185918
C137	C	0.601434	0.700277	0.138842
C138	C	0.648535	0.598401	0.185943
C139	C	0.323867	1.300627	-0.138720
C140	C	0.276766	1.402504	-0.185821
C141	C	0.323887	1.300595	0.000042
C142	C	0.276792	1.402461	0.000036
C143	C	0.462631	1.300590	-0.138701
C144	C	0.462624	1.402453	-0.185796
C145	C	0.643525	0.550620	-0.027015
C146	C	0.687771	0.454919	-0.027020
C147	C	0.737001	0.407038	0.000081
C148	C	0.741984	0.454871	0.027183
C149	C	0.697738	0.550576	0.027184
C150	C	0.489780	0.550601	0.235138
C151	C	0.489785	0.454903	0.279393
C152	C	0.462688	0.407050	0.274426
C153	C	0.435582	0.454909	0.225200
C154	C	0.435575	0.550612	0.180947
C155	C	0.697752	0.550557	0.180969
C156	C	0.742013	0.454847	0.225221
C157	C	0.737057	0.406975	0.274446
C158	C	0.687835	0.454828	0.279418
C159	C	0.643575	0.550543	0.235167
C160	C	0.227549	1.450359	-0.180847
C161	C	0.183288	1.546099	-0.225099
C162	C	0.188244	1.593976	-0.274324
C163	C	0.237466	1.546117	-0.279296
C164	C	0.281726	1.450385	-0.235045
C165	C	0.281776	1.450295	0.027133
C166	C	0.237530	1.546022	0.027125
C167	C	0.188300	1.593907	0.000023
C168	C	0.183317	1.546069	-0.027077
C169	C	0.227563	1.450351	-0.027072
C170	C	0.489725	1.450276	-0.180812
C171	C	0.489729	1.545975	-0.225058
C172	C	0.462628	1.593856	-0.274288
C173	C	0.435526	1.546024	-0.279270
C174	C	0.435525	1.450320	-0.235024
H175	H	0.440609	0.559434	0.022105
F176	F	0.406728	0.601522	0.128564
H177	H	0.143228	1.585072	-0.049143
F178	F	0.682568	0.403865	0.331811
F179	F	0.462632	1.695717	-0.321374
H180	H	0.413521	0.415933	0.221164
H181	H	0.603502	0.589485	0.239224
H182	H	0.511860	0.415947	0.319470
H183	H	-0.298208	0.787731	0.049252
F184	F	0.517207	0.396780	-0.054502
H185	H	0.462698	0.329122	0.310464
H186	H	0.773100	0.329037	0.310474
F187	F	0.784087	0.305177	0.000075
H188	H	0.510442	0.592134	-0.047726
F189	F	0.242844	1.596913	0.055971
H190	H	0.782087	0.415894	0.221163
H191	H	0.532203	1.000391	-0.809958
H192	H	0.321861	0.787821	0.049205
F193	F	0.682457	0.404025	-0.055865
F194	F	0.703038	0.601495	0.128584
F195	F	0.334166	1.399352	0.055979
H196	H	0.511794	1.411306	-0.140731
F197	F	0.383518	1.000517	-0.184395
H198	H	0.782073	0.415872	0.049247
F199	F	0.222251	1.399445	-0.055911
H200	H	0.223504	1.411383	-0.140770
H201	H	0.701803	0.589502	0.049256
H202	H	0.440604	0.441462	0.022102
H203	H	0.065180	0.670549	0.076339
H204	H	0.241602	0.787796	0.049222
H205	H	0.152200	1.671927	-0.310352
H206	H	0.511798	1.584911	-0.220991
H207	H	0.143214	1.585050	-0.221041
H208	H	0.413461	1.585023	-0.319358
F209	F	0.406674	1.399443	-0.240336
F210	F	0.157747	0.641250	0.083107
F211	F	-0.205622	0.758419	0.056025
H212	H	-0.316298	1.213094	-0.049088
F213	F	-0.408866	1.242387	-0.055864
H214	H	0.511845	0.589553	0.239192
F215	F	0.242733	1.597082	-0.331690
H216	H	0.393146	1.000424	-0.729722
F217	F	0.141213	1.695779	0.000023
F218	F	-0.099697	1.359664	-0.082965
F219	F	-0.008371	1.359666	-0.082968
H220	H	0.321799	1.411422	-0.239100
H221	H	0.223507	1.213166	-0.049131
F222	F	0.130920	1.242472	-0.055907
H223	H	0.012708	0.670541	0.076345
H224	H	-0.067566	0.670544	0.076346
H225	H	-0.139864	1.330324	-0.076192
F226	F	-0.232432	1.359625	-0.082960
H227	H	0.532150	1.000486	-0.189891
F228	F	0.345233	1.000428	-0.479242
F229	F	0.541751	1.000443	-0.275674
H230	H	0.570496	1.000423	-0.393405
H231	H	0.570505	1.000403	-0.473663
H232	H	0.532199	1.000406	-0.729685
H233	H	0.354820	1.000442	-0.526193
H234	H	0.354813	1.000427	-0.393444
F235	F	0.383521	1.000510	-0.275733
F236	F	0.383565	1.000446	-0.815525
F237	F	0.580092	1.000394	-0.520601
H238	H	0.570513	1.000380	-0.606404
H239	H	0.354824	1.000435	-0.606454
F240	F	0.591134	0.601565	-0.055863
