data_functionalizedCrystal
_audit_creation_method	'MofGen! by Chris Wilmer'
_symmetry_space_group_name_H-M	'P1'
_symmetry_Int_Tables_number	1
_symmetry_cell_setting	triclinic
loop_
_symmetry_equiv_pos_as_xyz
  x,y,z
_cell_length_a	19.188925
_cell_length_b	19.188930
_cell_length_c	16.776229
_cell_angle_alpha	89.988225
_cell_angle_beta	89.991906
_cell_angle_gamma	83.143665
loop_
_atom_site_label
_atom_site_type_symbol
_atom_site_fract_x
_atom_site_fract_y
_atom_site_fract_z
O1	O	0.926150	0.087151	-0.066314
O2	O	0.722838	0.098889	-0.066313
O3	O	0.830361	-0.008636	-0.066298
O4	O	0.818627	0.194676	-0.066329
O5	O	0.830347	-0.008642	0.066278
O6	O	0.722824	0.098883	0.066263
O7	O	0.926135	0.087145	0.066262
Zn8	Zn	0.824477	0.093013	0.087312
Zn9	Zn	0.824496	0.093021	-0.087363
O10	O	0.818612	0.194669	0.066247
C11	C	0.696820	0.098507	-0.000025
C12	C	0.619315	0.097367	-0.000024
C13	C	0.057545	0.152831	-0.000034
C14	C	0.130368	0.153908	-0.000038
C15	C	0.175302	0.090816	-0.000027
C16	C	0.147408	0.026642	-0.000032
C17	C	0.074586	0.025568	-0.000036
N18	N	0.295975	0.045137	0.045110
N19	N	0.365152	0.046163	0.045115
C20	C	0.394712	0.094050	-0.000018
N21	N	0.352479	0.140884	-0.045147
N22	N	0.283295	0.139861	-0.045148
C23	C	0.254267	0.091974	-0.000024
C24	C	0.501561	0.159386	-0.000024
C25	C	0.574385	0.160460	-0.000033
C26	C	0.591425	0.033193	-0.000019
C27	C	0.518601	0.032121	-0.000018
C28	C	0.473673	0.095220	-0.000016
C29	C	0.829974	-0.034650	-0.000008
C30	C	0.828833	-0.112154	-0.000001
C31	C	0.891924	-0.157079	0.000003
C32	C	0.890852	-0.229903	-0.000010
C33	C	0.826686	-0.257799	-0.000010
C34	C	0.763587	-0.212864	-0.000018
C35	C	0.764660	-0.140041	-0.000014
N36	N	0.777634	-0.365805	0.045108
N37	N	0.776618	-0.434983	0.045105
C38	C	0.823448	-0.477207	-0.000026
N39	N	0.871342	-0.447640	-0.045145
N40	N	0.872360	-0.378456	-0.045139
C41	C	0.825515	-0.336761	-0.000016
C42	C	0.885381	-0.601097	-0.000038
C43	C	0.884307	-0.673922	-0.000056
C44	C	0.757040	-0.656880	-0.000056
C45	C	0.758116	-0.584057	-0.000046
C46	C	0.822289	-0.556170	-0.000033
C47	C	0.952154	0.087527	-0.000028
C48	C	1.029658	0.088666	-0.000034
C49	C	0.819000	0.220684	-0.000045
C50	C	0.820140	0.298188	-0.000057
N51	N	0.824470	0.093006	0.206523
N52	N	0.824509	0.093022	-0.206574
C53	C	0.872095	0.045414	0.248247
C54	C	0.872099	0.045413	0.331699
C55	C	0.824480	0.093009	0.373426
C56	C	0.776849	0.140604	0.331697
C57	C	0.776843	0.140601	0.248246
C58	C	0.776875	0.140617	0.668244
C59	C	0.776886	0.140618	0.751700
C60	C	0.872131	0.045430	0.751697
C61	C	0.872124	0.045427	0.668246
C62	C	0.824492	0.093019	0.626524
C63	C	0.824487	0.093018	0.536036
C64	C	0.824487	0.093014	0.463913
H65	H	0.597088	0.212713	-0.000040
H66	H	0.628010	-0.018178	-0.000016
H67	H	0.944179	-0.134379	0.000010
H68	H	0.464978	0.210765	-0.000024
Cl69	Cl	0.001068	0.232156	-0.000043
H70	H	0.942230	-0.266488	-0.000010
H71	H	0.153078	0.206160	-0.000031
H72	H	0.738060	0.179354	0.214275
Cl73	Cl	0.039528	-0.055104	-0.000038
H74	H	0.704794	-0.679592	-0.000060
Cl75	Cl	0.682921	-0.247931	-0.000025
Cl76	Cl	0.483542	-0.048549	-0.000021
H77	H	0.706740	-0.547478	-0.000045
Cl78	Cl	0.931992	-0.014408	0.615793
H79	H	0.910875	0.006659	0.214278
H80	H	0.910879	0.006659	0.365670
Cl81	Cl	0.203896	-0.052674	-0.000022
Cl82	Cl	0.685339	-0.083561	-0.000018
H83	H	0.910914	0.006676	0.785676
H84	H	0.937635	-0.578390	-0.000031
Cl85	Cl	0.717017	0.200457	0.804156
H86	H	0.738092	0.179370	0.634280
H87	H	0.935686	-0.710500	-0.000057
Cl88	Cl	0.716981	0.200437	0.384152
