data_functionalizedCrystal
_audit_creation_method	'MofGen! by Chris Wilmer'
_symmetry_space_group_name_H-M	'P1'
_symmetry_Int_Tables_number	1
_symmetry_cell_setting	triclinic
loop_
_symmetry_equiv_pos_as_xyz
  x,y,z
_cell_length_a	10.489741
_cell_length_b	10.723024
_cell_length_c	9.198806
_cell_angle_alpha	90.003648
_cell_angle_beta	89.997101
_cell_angle_gamma	95.496478
loop_
_atom_site_label
_atom_site_type_symbol
_atom_site_fract_x
_atom_site_fract_y
_atom_site_fract_z
O1	O	0.178906	-1.657297	-0.120882
O2	O	0.196031	-1.294155	-0.120887
O3	O	0.001865	-1.483989	-0.120876
O4	O	0.373072	-1.467463	-0.120893
O5	O	0.001865	-1.483974	0.120909
O6	O	0.196030	-1.294140	0.120898
O7	O	0.178906	-1.657282	0.120903
Cu8	Cu	0.187468	-1.475710	0.142977
Cu9	Cu	0.187469	-1.475728	-0.142962
O10	O	0.373071	-1.467448	0.120892
C11	C	-0.045666	-1.482734	0.000016
C12	C	-0.187293	-1.478999	0.000013
C13	C	0.194785	-1.247647	0.000005
C14	C	0.191056	-1.109091	0.000003
C15	C	0.180152	-1.703790	0.000008
C16	C	0.183881	-1.842347	-0.000000
C17	C	-0.255356	-1.358213	0.000001
C18	C	-0.347515	-1.415264	0.119214
C19	C	-0.347489	-1.415308	-0.119167
C20	C	-0.277587	-1.536100	0.119325
C21	C	-0.277551	-1.536126	-0.119163
C22	C	-0.369683	-1.593265	0.000079
C23	C	0.420602	-1.468704	-0.000003
C24	C	0.562229	-1.472438	-0.000010
N25	N	0.187467	-1.475706	0.344091
C26	C	0.299701	-1.034175	-0.000003
C27	C	0.295850	-0.890969	-0.000005
N28	N	0.187460	-1.475741	-0.344075
C29	C	0.105583	-1.555412	0.416293
C30	C	0.105578	-1.555431	0.583705
H31	H	-0.205641	-1.258904	0.000120
C32	C	-0.389380	-1.346219	0.255364
C33	C	-0.338654	-1.208501	0.281553
C34	C	-0.380515	-1.139447	0.417696
C35	C	-0.473101	-1.208111	0.527650
C36	C	-0.523832	-1.345836	0.501465
C37	C	-0.481972	-1.414890	0.365322
H38	H	-0.270112	-1.157665	0.200155
H39	H	-0.342960	-1.037494	0.437079
H40	H	-0.504089	-1.156993	0.628431
H41	H	-0.592375	-1.396672	0.582862
H42	H	-0.519527	-1.516844	0.345938
H43	H	-0.246787	-1.587156	0.220223
H44	H	-0.419171	-1.692663	0.000147
C45	C	0.058218	-0.929296	0.000007
C46	C	0.028818	-1.022617	0.125562
C47	C	-0.096844	-1.109577	0.125569
C48	C	-0.193107	-1.103216	0.000021
C49	C	-0.163710	-1.009891	-0.125543
C50	C	-0.038048	-0.922931	-0.125550
H51	H	0.100080	-1.027329	0.218508
H52	H	-0.118605	-1.178662	0.218521
H53	H	-0.286130	-1.167589	0.000026
H54	H	-0.234972	-1.005179	-0.218490
H55	H	-0.016287	-0.853846	-0.218502
H56	H	-0.246539	-1.587197	-0.219954
H57	H	-0.378420	-1.364191	-0.219962
C58	C	0.010874	-1.647586	0.332385
C59	C	0.010889	-1.647320	0.164979
C60	C	-0.083824	-1.739498	0.081077
C61	C	-0.178552	-1.831943	0.164580
C62	C	-0.178571	-1.832213	0.331995
C63	C	-0.083858	-1.740035	0.415897
H64	H	0.081016	-1.578884	0.103157
H65	H	-0.083809	-1.739298	-0.042855
H66	H	-0.248664	-1.900179	0.102470
H67	H	-0.248698	-1.900649	0.393817
H68	H	-0.083873	-1.740235	0.539829
H69	H	0.095190	-1.067210	-0.000030
H70	H	0.395567	-1.076055	0.000001
H71	H	0.035479	-1.623675	0.645796
H72	H	0.257572	-1.407503	0.593844
H73	H	0.257563	-1.407477	0.406215
H74	H	0.388858	-0.826593	-0.000016
