data_functionalizedCrystal
_audit_creation_method	'MofGen! by Chris Wilmer'
_symmetry_space_group_name_H-M	'P1'
_symmetry_Int_Tables_number	1
_symmetry_cell_setting	triclinic
loop_
_symmetry_equiv_pos_as_xyz
  x,y,z
_cell_length_a	12.759401
_cell_length_b	12.759399
_cell_length_c	12.759393
_cell_angle_alpha	89.969069
_cell_angle_beta	89.981287
_cell_angle_gamma	90.016641
loop_
_atom_site_label
_atom_site_type_symbol
_atom_site_fract_x
_atom_site_fract_y
_atom_site_fract_z
Zn1	Zn	1.606240	-0.418172	-0.594017
Zn2	Zn	1.606137	-0.593888	-0.418336
Zn3	Zn	1.430546	-0.418228	-0.418352
Zn4	Zn	1.430530	-0.593815	-0.593973
O5	O	1.518363	-0.506026	-0.506170
O6	O	1.753248	-0.441489	-0.570724
O7	O	1.582808	-0.570641	-0.271317
O8	O	1.453902	-0.271200	-0.441680
O9	O	1.753172	-0.570586	-0.441652
O10	O	1.582984	-0.271159	-0.570740
O11	O	1.453802	-0.441584	-0.271329
O12	O	1.283523	-0.441513	-0.441637
O13	O	1.453874	-0.570461	-0.741000
O14	O	1.283511	-0.570515	-0.570665
O15	O	1.582968	-0.441418	-0.741032
O16	O	1.582792	-0.740899	-0.441609
O17	O	1.453774	-0.740845	-0.570649
C18	C	1.245396	-0.506013	-0.506149
C19	C	1.128619	-0.506033	-0.506165
C20	C	1.073779	-0.573307	-0.573244
C21	C	0.964054	-0.573311	-0.573265
C22	C	0.964021	-0.438764	-0.439118
C23	C	1.073743	-0.438756	-0.439104
C24	C	0.814153	-0.611009	-0.697125
C25	C	0.759309	-0.678299	-0.764195
C26	C	0.794905	-0.780830	-0.780142
C27	C	0.885344	-0.816092	-0.729004
C28	C	0.940183	-0.748807	-0.661926
C29	C	0.904588	-0.646262	-0.645999
C30	C	1.223646	-0.401068	-0.315242
C31	C	1.278487	-0.333788	-0.248158
C32	C	1.242893	-0.231255	-0.232200
C33	C	1.152450	-0.195998	-0.283320
C34	C	1.097610	-0.263278	-0.350404
C35	C	1.133212	-0.365809	-0.366363
C36	C	1.518299	-0.778993	-0.506146
C37	C	1.518367	-0.895770	-0.506171
C38	C	1.585624	-0.950625	-0.439056
C39	C	1.585691	-1.060349	-0.439091
C40	C	1.451237	-1.060353	-0.573359
C41	C	1.451176	-0.950631	-0.573328
C42	C	1.709701	-1.210225	-0.401704
C43	C	1.776948	-1.265083	-0.334573
C44	C	1.793115	-1.229543	-0.232062
C45	C	1.742019	-1.139145	-0.196662
C46	C	1.674764	-1.084292	-0.263788
C47	C	1.658618	-1.119831	-0.366313
C48	C	1.327164	-0.800754	-0.610705
C49	C	1.259903	-0.745898	-0.677826
C50	C	1.243726	-0.781437	-0.780338
C51	C	1.294803	-0.871838	-0.815734
C52	C	1.362064	-0.926693	-0.748613
C53	C	1.378243	-0.891147	-0.646102
C54	C	1.792396	-0.506040	-0.506191
C55	C	1.909173	-0.506045	-0.506200
C56	C	1.518431	-0.505925	-0.780203
C57	C	1.518460	-0.505882	-0.896980
C58	C	1.518456	-0.231993	-0.506217
C59	C	1.518496	-0.115216	-0.506237
C60	C	1.451264	-0.573043	-0.951827
C61	C	1.451301	-0.573004	-1.061551
C62	C	1.585734	-0.438633	-1.061572
C63	C	1.585702	-0.438678	-0.951849
C64	C	1.413763	-0.696846	-1.211484
C65	C	1.346550	-0.763998	-1.266335
C66	C	1.244020	-0.780136	-1.230719
C67	C	1.208681	-0.729106	-1.140255
C68	C	1.275888	-0.661946	-1.085410
C69	C	1.378434	-0.645828	-1.121024
C70	C	1.623228	-0.314836	-0.801914
C71	C	1.690431	-0.247669	-0.747067
C72	C	1.792964	-0.231521	-0.782681
C73	C	1.828299	-0.282532	-0.873149
C74	C	1.761096	-0.349698	-0.927996
C75	C	1.658564	-0.365849	-0.892375
C76	C	1.518356	-0.506051	-0.233202
C77	C	1.518530	-0.505798	-0.116426
H78	H	1.352130	-0.362504	-0.206533
Cl79	Cl	1.159526	-0.864555	-1.299677
Cl80	Cl	1.610527	-0.970661	-0.219293
Cl81	Cl	1.274468	-0.916520	-0.944610
Cl82	Cl	1.347503	-0.756066	-0.481828
Cl83	Cl	1.107692	-0.067099	-0.263252
H84	H	1.789872	-0.391230	-1.001663
Cl85	Cl	1.957202	-0.262236	-0.917923
H86	H	0.685674	-0.649579	-0.805832
H87	H	1.252643	-0.484556	-0.328239
Cl88	Cl	1.366769	-1.129329	-0.657777
Cl89	Cl	1.231473	-0.597798	-0.971690
Cl90	Cl	1.159105	-0.712518	-0.864693
H91	H	1.125185	-0.742241	-1.111271
Cl92	Cl	1.366736	-0.657532	-0.882851
Cl93	Cl	1.877445	-0.147075	-0.713731
H94	H	1.497256	-0.683723	-1.240484
H95	H	1.640337	-0.905960	-0.384374
Cl96	Cl	1.670258	-0.354150	-1.130558
Cl97	Cl	1.646008	-0.183539	-0.633335
H98	H	1.375333	-0.805546	-1.339992
H99	H	1.755179	-1.110222	-0.113184
H100	H	1.847870	-1.274216	-0.177404
H101	H	1.218320	-0.672284	-0.649000
Cl102	Cl	1.311829	-0.146681	-0.147850
H103	H	1.118455	-0.628085	-0.627852
Cl104	Cl	1.053869	-0.793127	-0.597640
Cl105	Cl	0.769408	-0.482101	-0.677099
Cl106	Cl	1.841180	-1.378721	-0.379075
H107	H	1.539738	-0.327983	-0.772905
H108	H	0.914313	-0.899587	-0.741985
Cl109	Cl	0.725961	-0.865418	-0.864466
H110	H	0.919328	-0.383991	-0.384518
Cl111	Cl	1.689397	-1.254901	-0.530585
Cl112	Cl	1.426278	-1.040342	-0.793113
H113	H	1.023972	-0.234559	-0.392035
