data_functionalizedCrystal
_audit_creation_method	'MofGen! by Chris Wilmer'
_symmetry_space_group_name_H-M	'P1'
_symmetry_Int_Tables_number	1
_symmetry_cell_setting	triclinic
loop_
_symmetry_equiv_pos_as_xyz
  x,y,z
_cell_length_a	16.625547
_cell_length_b	16.625546
_cell_length_c	21.395355
_cell_angle_alpha	89.981524
_cell_angle_beta	89.971219
_cell_angle_gamma	90.022405
loop_
_atom_site_label
_atom_site_type_symbol
_atom_site_fract_x
_atom_site_fract_y
_atom_site_fract_z
Zn1	Zn	1.232712	-0.321096	-0.354332
Zn2	Zn	1.232606	-0.455911	-0.249555
Zn3	Zn	1.097864	-0.321096	-0.249561
Zn4	Zn	1.097844	-0.455891	-0.354287
O5	O	1.165257	-0.388499	-0.301934
O6	O	1.345530	-0.338989	-0.340449
O7	O	1.214696	-0.438037	-0.161878
O8	O	1.115805	-0.208264	-0.263481
O9	O	1.345452	-0.438037	-0.263470
O10	O	1.214877	-0.208264	-0.340456
O11	O	1.115702	-0.338989	-0.161883
O12	O	0.985029	-0.338968	-0.263437
O13	O	1.115771	-0.438001	-0.441971
O14	O	0.985015	-0.438001	-0.340379
O15	O	1.214857	-0.338968	-0.442004
O16	O	1.214677	-0.568741	-0.263426
O17	O	1.115668	-0.568726	-0.340373
C18	C	0.955766	-0.388483	-0.301904
C19	C	0.866145	-0.388496	-0.301907
C20	C	0.793362	-0.388497	-0.301914
C21	C	0.702054	-0.388502	-0.301930
C22	C	0.629277	-0.388509	-0.301946
C23	C	0.537963	-0.388515	-0.301961
C24	C	1.165180	-0.597990	-0.301908
C25	C	1.165221	-0.687611	-0.301917
C26	C	1.165362	-1.015786	-0.301983
C27	C	1.165320	-0.924478	-0.301966
C28	C	1.165291	-0.851701	-0.301950
C29	C	1.165251	-0.760387	-0.301934
C30	C	1.375566	-0.388515	-0.301964
C31	C	1.465187	-0.388522	-0.301977
C32	C	1.165324	-0.388482	-0.465357
C33	C	1.165352	-0.388475	-0.534999
C34	C	1.165355	-0.178190	-0.301974
C35	C	1.165397	-0.088569	-0.301991
C36	C	1.216944	-0.336907	-0.567730
C37	C	1.216943	-0.336872	-0.633165
C38	C	1.165358	-0.388420	-0.665867
C39	C	1.113756	-0.439993	-0.633128
C40	C	1.113753	-0.440020	-0.567694
C41	C	1.158965	-0.461021	-0.769532
C42	C	1.158974	-0.460995	-0.834965
C43	C	1.165363	-0.388335	-0.867688
C44	C	1.171761	-0.315699	-0.834969
C45	C	1.171758	-0.315727	-0.769535
C46	C	1.165356	-0.388396	-0.736819
C47	C	1.216957	-0.336725	-0.971372
C48	C	1.216950	-0.336689	-1.036808
C49	C	1.113767	-0.439816	-1.036770
C50	C	1.113770	-0.439845	-0.971334
C51	C	1.165369	-0.388300	-0.938639
C52	C	1.165236	-0.388457	-0.139146
C53	C	1.165364	-0.388237	-0.069505
H54	H	1.258959	-0.294934	-0.541114
H55	H	1.153770	-0.520140	-0.861599
H56	H	1.176964	-0.256584	-0.742899
H57	H	1.071737	-0.482012	-0.541044
H58	H	1.071763	-0.481843	-0.944684
O59	O	1.063533	-0.489982	-0.664863
C60	C	0.983179	-0.472374	-0.648836
H61	H	0.979136	-0.407967	-0.630848
H62	H	0.962078	-0.515617	-0.610847
C63	C	0.934334	-0.560837	-0.729039
C64	C	0.929368	-0.481728	-0.706951
H65	H	0.901139	-0.566610	-0.764885
H66	H	0.988470	-0.572703	-0.739836
H67	H	0.916752	-0.596863	-0.697376
H68	H	0.946960	-0.445705	-0.738611
H69	H	0.875233	-0.469857	-0.696161
O70	O	1.152850	-0.531582	-0.737703
C71	C	1.221478	-0.542052	-0.699882
H72	H	1.250052	-0.481013	-0.690054
H73	H	1.266651	-0.582117	-0.725129
C74	C	1.161731	-0.656788	-0.649814
C75	C	1.196822	-0.581819	-0.637738
H76	H	1.146524	-0.681322	-0.611481
H77	H	1.115496	-0.649737	-0.675295
H78	H	1.199381	-0.690166	-0.670853
H79	H	1.159169	-0.548440	-0.616706
H80	H	1.243050	-0.588865	-0.612251
H81	H	1.176965	-0.256533	-0.861611
O82	O	1.267141	-0.286753	-0.664873
C83	C	1.312665	-0.241249	-0.621984
H84	H	1.315437	-0.274291	-0.575339
H85	H	1.283174	-0.180008	-0.615017
C86	C	1.395084	-0.189054	-0.704844
C87	C	1.398494	-0.229640	-0.647556
H88	H	1.448026	-0.181889	-0.720619
H89	H	1.364412	-0.219709	-0.733740
H90	H	1.370505	-0.138025	-0.699031
H91	H	1.423063	-0.280672	-0.653371
H92	H	1.429172	-0.198994	-0.618661
H93	H	1.258968	-0.294750	-0.944750
H94	H	1.258962	-0.294691	-1.063457
H95	H	1.071758	-0.481780	-1.063395
