data_functionalizedCrystal
_audit_creation_method	'MofGen! by Chris Wilmer'
_symmetry_space_group_name_H-M	'P1'
_symmetry_Int_Tables_number	1
_symmetry_cell_setting	triclinic
loop_
_symmetry_equiv_pos_as_xyz
  x,y,z
_cell_length_a	11.792241
_cell_length_b	19.188930
_cell_length_c	10.868271
_cell_angle_alpha	89.989749
_cell_angle_beta	89.999893
_cell_angle_gamma	83.669099
loop_
_atom_site_label
_atom_site_type_symbol
_atom_site_fract_x
_atom_site_fract_y
_atom_site_fract_z
O1	O	1.505476	0.095695	-0.102218
O2	O	1.174987	0.105557	-0.102248
O3	O	1.349769	-0.000975	-0.102208
O4	O	1.330695	0.202228	-0.102258
O5	O	1.349755	-0.000980	0.102437
O6	O	1.174973	0.105553	0.102396
O7	O	1.505462	0.095691	0.102427
Zn8	Zn	1.340215	0.100621	0.134903
Zn9	Zn	1.340234	0.100627	-0.134725
O10	O	1.330680	0.202224	0.102387
C11	C	1.132699	0.104936	0.000071
C12	C	1.006713	0.103082	0.000060
C13	C	0.776051	0.099672	0.000096
C14	C	0.904408	0.101566	0.000076
C15	C	1.349144	-0.026992	0.000118
C16	C	1.347290	-0.104507	0.000128
C17	C	1.449846	-0.148850	0.000143
C18	C	1.448104	-0.221684	0.000123
C19	C	1.343800	-0.250171	0.000113
C20	C	1.241230	-0.205818	0.000091
C21	C	1.242975	-0.132986	0.000098
N22	N	1.264067	-0.358629	0.069750
N23	N	1.262417	-0.427817	0.069746
C24	C	1.338536	-0.469609	0.000088
N25	N	1.416386	-0.439602	-0.069550
N26	N	1.418040	-0.370408	-0.069540
C27	C	1.341896	-0.329144	0.000104
C28	C	1.439211	-0.592928	0.000080
C29	C	1.437464	-0.665762	0.000052
C30	C	1.230588	-0.649895	0.000032
C31	C	1.232337	-0.577062	0.000047
C32	C	1.336652	-0.548583	0.000077
C33	C	1.547751	0.096313	0.000105
C34	C	1.673737	0.098167	0.000108
C35	C	1.331305	0.228240	0.000058
C36	C	1.333159	0.305755	0.000040
N37	N	1.340211	0.100617	0.318917
N38	N	1.340248	0.100626	-0.318739
C39	C	1.340228	0.100625	0.569923
C40	C	1.340215	0.100623	0.430246
H41	H	1.531620	-0.257795	0.000131
H42	H	1.534787	-0.125667	0.000163
C43	C	1.552377	-0.561903	-0.000098
C44	C	1.559409	-0.520522	-0.105358
C45	C	1.663633	-0.491925	-0.105557
H46	H	1.613309	-0.598672	-0.000165
H47	H	1.557364	-0.533793	0.071235
H48	H	1.554433	-0.548631	-0.176673
H49	H	1.498501	-0.483742	-0.105313
H50	H	1.668620	-0.463814	-0.034224
H51	H	1.724556	-0.528698	-0.105621
H52	H	1.668413	-0.463839	-0.176969
H53	H	1.156305	-0.229017	0.000080
H54	H	1.148825	-0.540957	0.000042
C55	C	1.131657	-0.084804	-0.000164
C56	C	1.126614	-0.042523	-0.105458
C57	C	1.024077	0.001865	-0.105748
H58	H	1.127922	-0.056008	0.071121
H59	H	1.069253	-0.112174	-0.000244
H60	H	1.189001	-0.015156	-0.105367
H61	H	1.130329	-0.071301	-0.176760
H62	H	0.961673	-0.025505	-0.105827
H63	H	1.020351	0.030657	-0.034458
H64	H	1.020637	0.030553	-0.177193
H65	H	1.520981	-0.701866	0.000058
C66	C	1.117456	-0.680950	0.000076
C67	C	1.137876	-0.754225	0.000096
C68	C	1.033684	-0.782859	0.000145
H69	H	1.075165	-0.665821	-0.071273
H70	H	1.075224	-0.665805	0.071464
H71	H	1.180090	-0.769364	-0.071285
H72	H	1.180150	-0.769374	0.071440
H73	H	0.991452	-0.767715	0.071534
H74	H	0.991400	-0.767725	-0.071205
H75	H	1.047524	-0.832579	0.000171
