data_functionalizedCrystal
_audit_creation_method	'MofGen! by Chris Wilmer'
_symmetry_space_group_name_H-M	'P1'
_symmetry_Int_Tables_number	1
_symmetry_cell_setting	triclinic
loop_
_symmetry_equiv_pos_as_xyz
  x,y,z
_cell_length_a	17.699077
_cell_length_b	15.538191
_cell_length_c	16.176319
_cell_angle_alpha	89.995479
_cell_angle_beta	89.993140
_cell_angle_gamma	65.276335
loop_
_atom_site_label
_atom_site_type_symbol
_atom_site_fract_x
_atom_site_fract_y
_atom_site_fract_z
O1	O	0.971518	0.119175	-0.068728
O2	O	0.746899	0.134689	-0.068731
O3	O	0.902932	-0.010298	-0.068733
O4	O	0.815485	0.264163	-0.068726
O5	O	0.902919	-0.010308	0.068760
O6	O	0.746886	0.134680	0.068762
O7	O	0.971504	0.119166	0.068765
Cu8	Cu	0.859194	0.126922	0.081318
Cu9	Cu	0.859210	0.126933	-0.081284
O10	O	0.815471	0.264154	0.068767
C11	C	0.718847	0.134130	0.000015
C12	C	0.635284	0.132465	0.000014
C13	C	0.596023	0.131675	0.074962
C14	C	0.517513	0.130096	0.074963
C15	C	0.478261	0.129313	0.000014
C16	C	0.517528	0.130100	-0.074940
C17	C	0.596040	0.131672	-0.074940
C18	C	0.200898	0.123756	-0.074942
C19	C	0.122379	0.122187	-0.074936
C20	C	0.122370	0.122180	0.074961
C21	C	0.200882	0.123753	0.074961
C22	C	0.240144	0.124534	0.000007
C23	C	0.325276	0.126245	0.000007
C24	C	0.393128	0.127609	0.000014
C25	C	0.912075	-0.045420	0.000011
C26	C	0.939328	-0.150057	0.000003
C27	C	0.668578	-0.437220	0.000017
C28	C	0.694205	-0.535545	0.000020
C29	C	0.838353	-0.558322	0.000021
C30	C	0.812738	-0.459997	0.000015
C31	C	0.727849	-0.399453	0.000014
C32	C	0.872009	-0.422230	0.000012
C33	C	0.846395	-0.323913	0.000010
C34	C	0.761511	-0.263364	0.000011
C35	C	0.702236	-0.301137	0.000012
C36	C	0.956897	-0.482775	0.000018
C37	C	1.016168	-0.445008	0.000015
C38	C	0.990555	-0.346690	0.000007
C39	C	0.905670	-0.286140	0.000009
C40	C	1.049830	-0.308917	0.000006
C41	C	1.024216	-0.210600	0.000004
C42	C	0.880057	-0.187824	0.000007
C43	C	0.999556	0.119725	0.000017
C44	C	1.083120	0.121390	0.000014
C45	C	0.806329	0.299275	0.000021
C46	C	0.779076	0.403912	0.000024
N47	N	0.859188	0.126914	0.195683
N48	N	0.859223	0.126934	-0.195649
C49	C	0.928288	0.062740	0.238947
C50	C	0.928292	0.062739	0.325494
C51	C	0.859198	0.126917	0.368776
C52	C	0.790092	0.191095	0.325506
C53	C	0.790086	0.191090	0.238961
C54	C	0.790113	0.191112	0.674535
C55	C	0.790125	0.191114	0.761086
C56	C	0.928319	0.062760	0.761067
C57	C	0.928313	0.062756	0.674522
C58	C	0.859206	0.126930	0.631260
C59	C	0.859202	0.126929	0.537416
C60	C	0.859204	0.126923	0.462618
H61	H	0.810932	-0.138525	-0.000000
O62	O	1.098658	-0.503689	0.000048
C63	C	1.238940	-0.515902	-0.000021
C64	C	1.145547	-0.449342	-0.000033
H65	H	1.276877	-0.471989	-0.000104
H66	H	1.254585	-0.562486	0.057534
H67	H	1.254498	-0.562518	-0.057548
H68	H	1.129923	-0.402667	0.057455
H69	H	1.129951	-0.402823	-0.057626
H70	H	0.733857	0.243377	0.796325
O71	O	0.722934	0.253544	0.632645
C72	C	0.585843	0.380822	0.641805
C73	C	0.661879	0.310180	0.689352
H74	H	0.536452	0.426618	0.687631
H75	H	0.605530	0.427925	0.601296
H76	H	0.559233	0.340166	0.601279
H77	H	0.688524	0.350759	0.729923
H78	H	0.642144	0.263078	0.729809
H79	H	0.232856	0.124390	-0.135973
H80	H	1.072481	-0.179850	0.000003
H81	H	0.485565	0.129455	-0.135964
O82	O	0.995461	0.000304	0.197034
C83	C	1.132554	-0.126974	0.206160
C84	C	1.056527	-0.056329	0.253725
H85	H	1.181953	-0.172767	0.251974
H86	H	1.112858	-0.174080	0.165676
H87	H	1.159156	-0.086322	0.165607
H88	H	1.029890	-0.096903	0.294323
H89	H	1.076271	-0.009223	0.294157
H90	H	1.118946	-0.358226	0.000015
O91	O	0.636654	-0.572274	0.000166
C92	C	0.581927	-0.670099	0.071375
C93	C	0.647134	-0.628550	0.071319
H94	H	0.590389	-0.715623	0.128888
H95	H	0.516839	-0.609970	0.071428
H96	H	0.590317	-0.715517	0.013809
H97	H	0.638821	-0.583143	0.128875
H98	H	0.712197	-0.688724	0.071223
O99	O	0.634274	0.132277	-0.147724
C100	C	0.753950	0.052455	-0.234703
C101	C	0.710733	0.051648	-0.152251
H102	H	0.815783	-0.012715	-0.238382
H103	H	0.712466	0.051568	-0.288303
H104	H	0.765618	0.119161	-0.238439
H105	H	0.699059	-0.015047	-0.148435
H106	H	0.752239	0.052586	-0.098690
O107	O	0.479510	0.129207	0.147824
C108	C	0.486478	0.047063	0.275928
C109	C	0.529610	0.047968	0.193446
H110	H	0.526956	-0.018622	0.312829
H111	H	0.476898	0.113269	0.312942
H112	H	0.423608	0.045845	0.263045
H113	H	0.592502	0.049152	0.206254
H114	H	0.539125	-0.018234	0.156457
O115	O	0.736726	-0.167874	0.000119
C116	C	0.739460	-0.033022	0.071371
C117	C	0.767602	-0.141173	0.071343
H118	H	0.764396	-0.011399	0.128958
H119	H	0.764481	-0.011328	0.013869
H120	H	0.668608	0.003738	0.071331
H121	H	0.838448	-0.178009	0.071412
H122	H	0.742519	-0.162796	0.128840
O123	O	0.995342	0.000308	0.367552
C124	C	1.046850	-0.128420	0.465298
C125	C	0.970847	-0.057782	0.417707
H126	H	1.027070	-0.175391	0.505873
H127	H	1.096239	-0.174350	0.419529
H128	H	1.073501	-0.087760	0.505768
H129	H	0.944125	-0.098365	0.377236
H130	H	0.921511	-0.011852	0.463521
H131	H	0.633111	-0.251838	0.000005
H132	H	0.599454	-0.387921	0.000010
O133	O	0.920800	-0.617177	-0.000126
C134	C	1.033374	-0.741439	-0.071334
C135	C	0.939993	-0.674827	-0.071277
H136	H	1.048917	-0.788080	-0.128845
H137	H	1.071380	-0.697603	-0.071393
H138	H	1.048945	-0.787994	-0.013766
H139	H	0.924344	-0.628259	-0.128835
H140	H	0.902037	-0.718720	-0.071175
H141	H	0.232836	0.124395	0.135992
O142	O	0.995484	0.000321	0.632607
C143	C	1.132577	-0.126960	0.641725
C144	C	1.056554	-0.056314	0.689294
H145	H	1.181978	-0.172755	0.687536
H146	H	1.112877	-0.174064	0.601241
H147	H	1.159177	-0.086307	0.601170
H148	H	1.029918	-0.096890	0.729894
H149	H	1.076300	-0.009211	0.729725
O150	O	0.723056	0.253403	0.367676
C151	C	0.661798	0.310264	0.501009
C152	C	0.737778	0.239660	0.453358
H153	H	0.673667	0.299164	0.570291
H154	H	0.650912	0.385767	0.484044
H155	H	0.604533	0.298085	0.483960
H156	H	0.795089	0.251752	0.470382
H157	H	0.748591	0.164181	0.470328
H158	H	0.090423	0.121548	-0.135972
O159	O	0.981819	-0.578287	0.000166
C160	C	1.058153	-0.725634	0.071374
C161	C	1.029972	-0.617476	0.071321
H162	H	1.097105	-0.757353	0.128889
H163	H	1.001237	-0.742283	0.071422
H164	H	1.097029	-0.757345	0.013810
H165	H	0.991113	-0.585691	0.128876
H166	H	1.086923	-0.600893	0.071231
H167	H	0.627974	0.132321	0.135994
H168	H	0.733818	0.243347	0.203737
O169	O	0.084335	0.121453	0.147848
C170	C	0.092636	0.121558	0.296530
C171	C	0.135794	0.122402	0.214050
H172	H	0.134230	0.122305	0.350076
H173	H	0.030846	0.186776	0.300337
H174	H	0.080901	0.054894	0.300235
H175	H	0.147587	0.189022	0.210290
H176	H	0.197554	0.057140	0.210278
H177	H	0.984589	0.010504	0.796301
