data_functionalizedCrystal
_audit_creation_method	'MofGen! by Chris Wilmer'
_symmetry_space_group_name_H-M	'P1'
_symmetry_Int_Tables_number	1
_symmetry_cell_setting	triclinic
loop_
_symmetry_equiv_pos_as_xyz
  x,y,z
_cell_length_a	15.995350
_cell_length_b	10.489741
_cell_length_c	15.072220
_cell_angle_alpha	89.999236
_cell_angle_beta	89.991149
_cell_angle_gamma	84.015774
loop_
_atom_site_label
_atom_site_type_symbol
_atom_site_fract_x
_atom_site_fract_y
_atom_site_fract_z
O1	O	1.111987	0.164400	-0.073707
O2	O	0.868334	0.184702	-0.073725
O3	O	0.995705	-0.011125	-0.073710
O4	O	0.984616	0.360226	-0.073722
O5	O	0.995673	-0.011114	0.073855
O6	O	0.868303	0.184713	0.073840
O7	O	1.111955	0.164411	0.073858
Zn8	Zn	0.990124	0.174563	0.097278
Zn9	Zn	0.990166	0.174549	-0.097145
O10	O	0.984585	0.360237	0.073844
C11	C	0.837119	0.183868	0.000055
C12	C	0.744153	0.181352	0.000048
C13	C	0.406351	0.172315	0.000067
C14	C	0.452944	0.032851	0.000401
C15	C	0.549650	0.035368	0.000062
C16	C	0.573939	0.176797	0.000058
C17	C	0.533284	0.245580	-0.084207
C18	C	0.436628	0.242076	-0.084271
C19	C	0.436270	0.244970	0.083538
C20	C	0.533215	0.244937	0.084645
C21	C	0.668651	0.179338	0.000050
C22	C	0.311638	0.169778	0.000069
C23	C	0.994852	-0.058639	0.000072
C24	C	0.992346	-0.200234	0.000070
C25	C	0.911304	-0.267240	0.000057
C26	C	0.949572	-0.359892	0.072818
C27	C	0.949622	-0.359878	-0.072670
C28	C	1.030647	-0.291022	0.072890
C29	C	1.030686	-0.290997	-0.072663
C30	C	1.069013	-0.383624	0.000115
C31	C	1.143171	0.165244	0.000076
C32	C	1.236137	0.167761	0.000077
C33	C	0.985438	0.407752	0.000060
C34	C	0.987944	0.549346	0.000056
N35	N	0.990102	0.174572	0.229967
N36	N	0.990195	0.174530	-0.229834
C37	C	0.990164	0.174544	0.589169
C38	C	0.921777	0.278976	0.551554
C39	C	0.921938	0.279357	0.448728
C40	C	0.990132	0.174558	0.410965
C41	C	1.077672	0.203626	0.448261
C42	C	1.077290	0.204368	0.551119
C43	C	0.971788	0.040735	0.551272
C44	C	0.969788	0.041628	0.448408
C45	C	0.990120	0.174564	0.310251
C46	C	0.990182	0.174541	0.689882
H47	H	0.577739	-0.018699	0.060467
H48	H	0.433029	-0.022644	-0.059693
N49	N	0.823043	-0.200237	0.000141
H50	H	0.814554	-0.144216	0.054570
H51	H	0.814192	-0.145513	-0.054866
H52	H	1.129810	0.129587	0.423798
H53	H	0.915268	-0.390420	0.134326
N54	N	0.394703	0.377686	-0.089349
H55	H	0.358103	0.396420	-0.035331
H56	H	0.439078	0.439413	-0.091567
N57	N	1.157349	-0.450345	0.000164
H58	H	1.198977	-0.384268	0.000713
H59	H	1.165853	-0.506314	0.054611
H60	H	1.064961	-0.260437	-0.134174
H61	H	0.909296	0.012784	0.577258
H62	H	0.577192	-0.019074	-0.060445
N63	N	1.098577	0.333626	0.582893
H64	H	1.108120	0.389588	0.530083
H65	H	1.050577	0.375551	0.619694
H66	H	0.933756	0.378654	0.424112
H67	H	1.129811	0.131304	0.576000
H68	H	0.434073	-0.022892	0.060831
H69	H	0.560215	0.194726	0.146985
N70	N	1.099444	0.331413	0.414126
H71	H	1.055065	0.401231	0.433839
H72	H	1.155894	0.349144	0.438503
N73	N	1.075996	-0.250800	0.154469
H74	H	1.045595	-0.276437	0.209348
H75	H	1.135388	-0.294260	0.154658
H76	H	1.021649	-0.036979	0.575596
N77	N	0.904205	-0.400298	-0.154148
H78	H	0.844635	-0.357524	-0.154082
H79	H	0.934290	-0.374015	-0.209055
H80	H	0.905389	0.019568	0.424032
N81	N	0.835782	0.256423	0.415318
H82	H	0.797356	0.245975	0.467409
H83	H	0.812177	0.331886	0.378193
N84	N	0.937242	0.409764	0.585762
H85	H	0.886676	0.447586	0.620589
H86	H	0.988371	0.401534	0.625476
N87	N	0.411984	0.175622	-0.167702
H88	H	0.463888	0.148874	-0.204091
H89	H	0.383559	0.097338	-0.151294
H90	H	0.548036	0.349484	-0.087343
N91	N	0.570489	0.182299	-0.167283
H92	H	0.633131	0.187960	-0.168250
H93	H	0.559279	0.089320	-0.168067
H94	H	0.549201	0.348072	0.089732
N95	N	0.408692	0.184588	0.168146
H96	H	0.376520	0.109516	0.153222
H97	H	0.459760	0.153867	0.204709
H98	H	0.856525	0.261942	0.576311
H99	H	0.405128	0.347796	0.084105
H100	H	1.016301	-0.039726	0.422705
