data_functionalizedCrystal
_audit_creation_method	'MofGen! by Chris Wilmer'
_symmetry_space_group_name_H-M	'P1'
_symmetry_Int_Tables_number	1
_symmetry_cell_setting	triclinic
loop_
_symmetry_equiv_pos_as_xyz
  x,y,z
_cell_length_a	12.759401
_cell_length_b	12.759400
_cell_length_c	12.759393
_cell_angle_alpha	90.029373
_cell_angle_beta	90.020938
_cell_angle_gamma	90.014690
loop_
_atom_site_label
_atom_site_type_symbol
_atom_site_fract_x
_atom_site_fract_y
_atom_site_fract_z
Zn1	Zn	1.606278	-0.418173	0.594028
Zn2	Zn	1.606173	-0.593888	0.418352
Zn3	Zn	1.430576	-0.418229	0.418363
Zn4	Zn	1.430573	-0.593815	0.593989
O5	O	1.518400	-0.506026	0.506183
O6	O	1.753285	-0.441489	0.570736
O7	O	1.582838	-0.570641	0.271332
O8	O	1.453928	-0.271200	0.441687
O9	O	1.753208	-0.570587	0.441667
O10	O	1.583015	-0.271159	0.570747
O11	O	1.453827	-0.441584	0.271341
O12	O	1.283555	-0.441513	0.441649
O13	O	1.453923	-0.570461	0.741015
O14	O	1.283552	-0.570516	0.570680
O15	O	1.583012	-0.441418	0.741044
O16	O	1.582835	-0.740900	0.441629
O17	O	1.453822	-0.740846	0.570669
C18	C	1.245433	-0.506013	0.506162
C19	C	1.128656	-0.506033	0.506178
C20	C	1.518345	-0.778993	0.506167
C21	C	1.518417	-0.895770	0.506195
C22	C	1.073820	-0.573307	0.573259
C23	C	0.964096	-0.573311	0.573280
C24	C	0.964053	-0.438764	0.439130
C25	C	1.073775	-0.438756	0.439115
C26	C	1.585599	-0.950531	0.573451
C27	C	1.585648	-1.060255	0.573477
C28	C	1.451330	-1.060448	0.438980
C29	C	1.451277	-0.950726	0.438961
C30	C	1.652740	-0.895576	0.640685
C31	C	1.719928	-0.950337	0.707947
C32	C	1.719977	-1.060061	0.707972
C33	C	1.652838	-1.115024	0.640737
C34	C	1.792433	-0.506040	0.506205
C35	C	1.909210	-0.506046	0.506214
C36	C	1.518479	-0.505925	0.780217
C37	C	1.518512	-0.505882	0.896993
C38	C	1.518484	-0.231993	0.506223
C39	C	1.518520	-0.115216	0.506240
C40	C	1.518382	-0.506051	0.233216
C41	C	1.518552	-0.505798	0.116440
C42	C	1.585734	-0.438679	0.951872
C43	C	1.585752	-0.438633	1.061596
C44	C	1.451323	-0.573004	1.061553
C45	C	1.451301	-0.573044	0.951831
H46	H	1.118501	-0.628086	0.627869
N47	N	1.378800	-0.645540	0.892635
H48	H	1.388983	-0.635370	0.814806
H49	H	1.303774	-0.629177	0.911802
H50	H	1.396570	-0.906139	0.384195
H51	H	0.919454	-0.628090	0.627906
H52	H	0.919356	-0.383991	0.384528
H53	H	1.652871	-1.204368	0.640775
N54	N	1.658257	-0.366159	1.120797
H55	H	1.615584	-0.317450	1.166317
H56	H	1.700818	-0.323688	1.069345
H57	H	1.396604	-0.627687	1.106216
N58	N	1.132929	-0.366179	0.366774
H59	H	1.081515	-0.323563	0.324290
H60	H	1.178429	-0.408874	0.318073
N61	N	1.652699	-0.777232	0.640645
H62	H	1.705427	-0.750725	0.693438
H63	H	1.580574	-0.750912	0.659858
N64	N	1.792428	-1.119144	0.780510
H65	H	1.749720	-1.164660	0.829165
H66	H	1.834942	-1.067625	0.823036
N67	N	1.792327	-0.891063	0.780475
H68	H	1.782103	-0.813245	0.770255
H69	H	1.867380	-0.910200	0.764196
H70	H	1.396669	-1.105207	0.384240
N71	N	1.658221	-0.366243	0.892723
H72	H	1.700807	-0.323662	0.944142
H73	H	1.615463	-0.317636	0.847198
