data_functionalizedCrystal
_audit_creation_method	'MofGen! by Chris Wilmer'
_symmetry_space_group_name_H-M	'P1'
_symmetry_Int_Tables_number	1
_symmetry_cell_setting	triclinic
loop_
_symmetry_equiv_pos_as_xyz
  x,y,z
_cell_length_a	12.759401
_cell_length_b	21.295418
_cell_length_c	12.759393
_cell_angle_alpha	90.036408
_cell_angle_beta	90.020938
_cell_angle_gamma	90.028925
loop_
_atom_site_label
_atom_site_type_symbol
_atom_site_fract_x
_atom_site_fract_y
_atom_site_fract_z
Zn1	Zn	1.606174	-0.250553	0.593977
Zn2	Zn	1.606026	-0.355835	0.418279
Zn3	Zn	1.430472	-0.250587	0.418312
Zn4	Zn	1.430425	-0.355791	0.593916
O5	O	1.518274	-0.303192	0.506121
O6	O	1.753175	-0.264523	0.570682
O7	O	1.582696	-0.341906	0.271262
O8	O	1.453861	-0.162493	0.441654
O9	O	1.753066	-0.341874	0.441597
O10	O	1.582948	-0.162468	0.570714
O11	O	1.453718	-0.264580	0.271287
O12	O	1.283445	-0.264538	0.441595
O13	O	1.453781	-0.341799	0.740945
O14	O	1.283411	-0.341831	0.570610
O15	O	1.582902	-0.264481	0.740990
O16	O	1.582650	-0.443919	0.441538
O17	O	1.453638	-0.443886	0.570578
C18	C	1.245307	-0.303184	0.506100
C19	C	1.128530	-0.303196	0.506116
C20	C	1.073678	-0.343504	0.573189
C21	C	0.963954	-0.343506	0.573210
C22	C	0.963944	-0.262891	0.439076
C23	C	1.073666	-0.262886	0.439061
C24	C	0.814049	-0.366093	0.697066
C25	C	0.759193	-0.406411	0.764130
C26	C	0.794768	-0.467844	0.780067
C27	C	0.885198	-0.488971	0.728925
C28	C	0.940048	-0.448657	0.661854
C29	C	0.904475	-0.387215	0.645937
C30	C	1.223573	-0.240305	0.315203
C31	C	1.278425	-0.199993	0.248126
C32	C	1.242852	-0.138559	0.232178
C33	C	1.152419	-0.117434	0.283301
C34	C	1.097567	-0.157746	0.350378
C35	C	1.133147	-0.219179	0.366328
C36	C	1.518151	-0.466743	0.506071
C37	C	1.518195	-0.536711	0.506085
C38	C	1.585703	-1.036165	0.439099
C39	C	1.585664	-0.970423	0.439075
C40	C	1.518422	-0.937551	0.506195
C41	C	1.451197	-0.970427	0.573326
C42	C	1.451231	-1.036168	0.573341
N43	N	1.510260	-0.834292	0.598128
N44	N	1.510233	-0.771841	0.598111
C45	C	1.518313	-0.739476	0.506150
N46	N	1.526441	-0.771922	0.414207
N47	N	1.526473	-0.834379	0.414226
C48	C	1.518377	-0.866265	0.506185
C49	C	1.585485	-0.635322	0.438992
C50	C	1.585438	-0.569579	0.438965
C51	C	1.450977	-0.569584	0.573225
C52	C	1.451019	-0.635326	0.573243
C53	C	1.518279	-0.668192	0.506127
C54	C	1.792308	-0.303200	0.506143
C55	C	1.909084	-0.303203	0.506152
C56	C	1.518353	-0.303131	0.780155
C57	C	1.518386	-0.303105	0.896931
C58	C	1.518426	-0.139001	0.506194
C59	C	1.518491	-0.069033	0.506226
C60	C	1.518256	-0.303206	0.233154
C61	C	1.518427	-0.303055	0.116378
C62	C	1.585625	-0.262839	0.951818
C63	C	1.585643	-0.262812	1.061542
C64	C	1.451181	-0.343322	1.061483
C65	C	1.451158	-0.343346	0.951761
C66	C	1.623282	-0.188542	1.211533
C67	C	1.690537	-0.148282	1.266424
C68	C	1.793054	-0.138629	1.230834
C69	C	1.828336	-0.169246	1.140356
C70	C	1.761087	-0.209511	1.085471
C71	C	1.658556	-0.219152	1.121059
C72	C	1.413529	-0.417617	0.801768
C73	C	1.346285	-0.457885	0.746881
C74	C	1.243766	-0.467545	0.782469
C75	C	1.208488	-0.436939	0.872951
C76	C	1.275733	-0.396670	0.927838
C77	C	1.378250	-0.387010	0.892242
H78	H	0.685566	-0.389203	0.805770
F79	F	1.514167	-0.198805	1.249409
F80	F	1.238183	-0.364096	1.024137
F81	F	1.652984	-0.115699	1.362715
F82	F	1.172208	-0.510414	0.724061
F83	F	1.099377	-0.447220	0.910831
H84	H	0.914149	-0.538998	0.741898
H85	H	1.396290	-0.662088	0.627907
H86	H	0.750097	-0.500671	0.834673
H87	H	1.911819	-0.161387	1.111391
H88	H	1.396446	-0.943659	0.627974
F89	F	1.383838	-0.490464	0.650587
H90	H	1.497006	-0.409751	0.772778
H91	H	1.789814	-0.234441	1.011808
F92	F	1.036282	-0.471139	0.607426
F93	F	1.132064	-0.386403	0.644557
H94	H	1.640251	-0.662083	0.384341
F95	F	1.657172	-0.220010	0.893468
F96	F	1.379693	-1.071150	0.644791
H97	H	1.287518	-0.105740	0.177549
H98	H	0.785083	-0.316068	0.684107
F99	F	0.905545	-0.219993	0.367714
H100	H	1.123443	-0.067414	0.270299
F101	F	1.656978	-0.534598	0.367515
H102	H	1.023937	-0.140539	0.392013
F103	F	1.657198	-0.935435	0.367622
F104	F	1.374664	-0.222482	0.193703
H105	H	1.396224	-0.542820	0.627872
H106	H	1.252552	-0.290328	0.328192
F107	F	1.864630	-0.095782	1.289258
H108	H	1.640468	-1.062920	0.384445
F109	F	1.379639	-0.386149	1.119846
