data_functionalizedCrystal
_audit_creation_method	'MofGen! by Chris Wilmer'
_symmetry_space_group_name_H-M	'P1'
_symmetry_Int_Tables_number	1
_symmetry_cell_setting	triclinic
loop_
_symmetry_equiv_pos_as_xyz
  x,y,z
_cell_length_a	21.883469
_cell_length_b	21.882911
_cell_length_c	21.879399
_cell_angle_alpha	60.006540
_cell_angle_beta	60.013207
_cell_angle_gamma	59.992231
loop_
_atom_site_label
_atom_site_type_symbol
_atom_site_fract_x
_atom_site_fract_y
_atom_site_fract_z
O1	O	0.084645	-0.892842	0.746620
O2	O	0.031867	-0.695139	0.601571
O3	O	0.157054	-0.820237	0.601476
O4	O	-0.040542	-0.767744	0.746716
O5	O	0.198586	-0.778715	0.642912
O6	O	0.073399	-0.653617	0.643007
O7	O	0.126177	-0.851320	0.788056
Cu8	Cu	0.103580	-0.748677	0.719315
Cu9	Cu	0.054464	-0.797782	0.670313
O10	O	0.000990	-0.726222	0.788151
N11	N	0.138128	-0.714145	0.753785
N12	N	0.019923	-0.832320	0.635843
C13	C	0.190018	-0.547369	0.805644
C14	C	0.190029	-0.662289	0.805630
C15	C	0.218780	-0.633565	0.834353
C16	C	0.344122	-0.611968	0.768360
C17	C	0.422474	-0.638085	0.742222
C18	C	0.422504	-0.764859	0.790561
C19	C	0.344154	-0.738739	0.816702
C20	C	0.208899	-0.508180	0.728617
C21	C	0.182748	-0.429822	0.702522
C22	C	0.118843	-0.429847	0.830485
C23	C	0.144993	-0.508205	0.856580
C24	C	0.112994	-0.643364	0.824587
C25	C	0.086865	-0.669476	0.798467
C26	C	0.214799	-0.733437	0.734451
C27	C	0.240932	-0.707325	0.760562
C28	C	0.113084	-0.643389	0.959747
C29	C	0.087018	-0.669524	1.038102
C30	C	0.214996	-0.733501	1.038048
C31	C	0.241061	-0.707367	0.959690
C32	C	0.190103	-0.662308	0.920542
C33	C	0.304966	-0.662293	0.805598
C34	C	-0.117460	-0.854702	0.612901
C35	C	-0.002405	-0.854864	0.498145
C36	C	-0.002621	-0.969735	0.613108
C37	C	-0.002603	-0.854858	0.613180
C38	C	-0.031272	-0.883541	0.584334
N39	N	0.460550	-0.714150	0.753681
O40	O	0.699805	-0.721060	0.574973
O41	O	0.700047	-0.866553	0.772482
O42	O	0.699952	-0.866219	0.647213
O43	O	0.699900	-0.721394	0.700242
O44	O	0.575478	-0.824800	0.688791
O45	O	0.575573	-0.825134	0.814060
O46	O	0.575331	-0.679641	0.616551
Cu47	Cu	0.564087	-0.748606	0.719102
Cu48	Cu	0.711292	-0.797588	0.669931
O49	O	0.575426	-0.679975	0.741820
N50	N	0.814828	-0.832044	0.635345
N51	N	0.138106	-0.391772	0.753815
O52	O	-0.040520	-0.152377	0.746758
O53	O	0.156993	-0.152371	0.601281
O54	O	0.031698	-0.152390	0.601639
O55	O	0.084775	-0.152358	0.746401
O56	O	0.073234	-0.276876	0.643130
O57	O	0.198529	-0.276856	0.642772
O58	O	0.001015	-0.276863	0.788249
Cu59	Cu	0.103564	-0.288226	0.719299
Cu60	Cu	0.054444	-0.141007	0.670231
O61	O	0.126310	-0.276844	0.787892
N62	N	0.019892	-0.037461	0.635717
N63	N	0.138332	-0.714192	1.076133
O64	O	0.131293	-0.892804	1.315506
O65	O	-0.014162	-0.695219	1.315533
O66	O	-0.013826	-0.820490	1.315480
O67	O	0.130957	-0.767533	1.315559
O68	O	0.027651	-0.778981	1.191001
O69	O	0.027314	-0.653710	1.191054
O70	O	0.172770	-0.851295	1.191026
Cu71	Cu	0.103829	-0.748713	1.179674
Cu72	Cu	0.054778	-0.797802	1.326885
O73	O	0.172434	-0.726024	1.191079
N74	N	0.020275	-0.832331	1.430426
C75	C	0.047687	-0.649466	0.602306
C76	C	0.202716	-0.804385	0.602188
C77	C	0.110357	-0.896993	0.787321
C78	C	-0.044672	-0.742074	0.787439
C79	C	0.637839	-0.865879	0.818154
C80	C	0.637724	-0.865466	0.663023
C81	C	0.637536	-0.680313	0.570880
C82	C	0.637655	-0.680728	0.726010
C83	C	0.202592	-0.214459	0.601942
C84	C	0.047481	-0.214636	0.602435
C85	C	-0.044635	-0.214620	0.787537
C86	C	0.110528	-0.214598	0.787096
C87	C	-0.013455	-0.649572	1.253296
C88	C	-0.013030	-0.804697	1.253206
C89	C	0.172063	-0.896942	1.253263
C90	C	0.171648	-0.741808	1.253325
H91	H	0.071582	-0.606692	0.927876
C92	C	0.637632	-0.619262	0.741334
C93	C	0.572943	-0.543990	0.736042
C94	C	0.572920	-0.482524	0.751366
C95	C	0.637585	-0.496330	0.771982
C96	C	0.702278	-0.571606	0.777275
C97	C	0.702302	-0.633072	0.761950
H98	H	0.525070	-0.533767	0.720780
H99	H	0.525029	-0.426800	0.747448
H100	H	0.637568	-0.450830	0.783326
H101	H	0.750152	-0.581829	0.792536
H102	H	0.750192	-0.688795	0.765868
H103	H	0.637745	-0.910963	0.651673
H104	H	0.121632	-0.953785	0.832877
H105	H	-0.058496	-0.816008	1.253133
H106	H	-0.101428	-0.730886	0.833046
H107	H	0.121892	-0.214588	0.832572
H108	H	0.259468	-0.815577	0.556577
C109	C	0.637928	-0.927589	0.894785
C110	C	0.573342	-0.959837	0.943000
C111	C	0.573431	-1.021547	1.019630
C112	C	0.638105	-1.051008	1.048045
C113	C	0.702696	-1.018760	0.999829
C114	C	0.702607	-0.957050	0.923199
H115	H	0.525461	-0.938029	0.921966
H116	H	0.525616	-1.045419	1.055323
H117	H	0.638171	-1.096689	1.104771
H118	H	0.750576	-1.040569	1.020862
H119	H	0.750422	-0.933178	0.887506
H120	H	-0.059121	-0.592825	1.253304
C121	C	0.233100	-0.726510	1.253345
C122	C	0.309873	-0.787973	1.253343
C123	C	0.371326	-0.772674	1.253363
C124	C	0.356006	-0.695912	1.253384
C125	C	0.279230	-0.634444	1.253386
C126	C	0.217777	-0.649742	1.253366
H127	H	0.321217	-0.844802	1.253327
H128	H	0.428161	-0.818178	1.253361
H129	H	0.401497	-0.684587	1.253398
H130	H	0.267886	-0.577615	1.253401
H131	H	0.160942	-0.604239	1.253367
H132	H	0.024299	-0.654107	1.070013
H133	H	0.036114	-0.214639	0.556956
C134	C	0.271052	-0.783053	1.081105
C135	C	0.355772	-0.803858	1.037976
C136	C	0.411830	-0.853413	1.081034
C137	C	0.383169	-0.882162	1.167220
C138	C	0.298445	-0.861357	1.210354
C139	C	0.242387	-0.811803	1.167296
H140	H	0.376992	-0.782576	0.974172
H141	H	0.474549	-0.868814	1.049103
H142	H	0.424667	-0.918845	1.199094
H143	H	0.277225	-0.882640	1.274158
H144	H	0.179669	-0.796402	1.199227
H145	H	-0.101359	-0.214623	0.833209
H146	H	0.071542	-0.606694	0.861281
C147	C	0.279060	-0.213985	0.540082
C148	C	0.327485	-0.278395	0.507547
C149	C	0.403954	-0.277920	0.445686
C150	C	0.431998	-0.213037	0.416360
C151	C	0.383572	-0.148622	0.448895
C152	C	0.307104	-0.149097	0.510756
H153	H	0.306726	-0.326430	0.529256
H154	H	0.439802	-0.325604	0.421602
H155	H	0.488605	-0.212685	0.370567
H156	H	0.404332	-0.100587	0.427186
H157	H	0.271256	-0.101412	0.534840
C158	C	0.637435	-0.618600	0.494254
C159	C	0.637396	-0.633555	0.432572
C160	C	0.637295	-0.571841	0.355946
C161	C	0.637233	-0.495172	0.341002
C162	C	0.637272	-0.480214	0.402685
C163	C	0.637373	-0.541928	0.479311
H164	H	0.637442	-0.690312	0.443634
H165	H	0.637266	-0.582914	0.310284
H166	H	0.637158	-0.449488	0.284278
H167	H	0.637226	-0.423456	0.391624
H168	H	0.637401	-0.530854	0.524973
C169	C	0.233759	-0.973601	1.253254
C170	C	0.218810	-1.035277	1.253221
C171	C	0.280506	-1.111936	1.253212
C172	C	0.357152	-1.126920	1.253235
C173	C	0.372105	-1.065242	1.253267
C174	C	0.310409	-0.988583	1.253277
H175	H	0.162068	-1.024187	1.253204
H176	H	0.269436	-1.157594	1.253188
H177	H	0.402824	-1.183667	1.253228
H178	H	0.428847	-1.076333	1.253284
H179	H	0.321479	-0.942926	1.253300
H180	H	0.303780	-0.722782	0.927774
H181	H	0.024137	-0.654049	0.813885
H182	H	0.256252	-0.770113	0.697763
H183	H	0.303660	-0.722726	0.745118
H184	H	0.312274	-0.779724	0.847024
H185	H	0.454353	-0.597104	0.711898
C186	C	0.465618	-0.848952	0.802770
C187	C	0.422548	-0.904313	0.843733
C188	C	0.465660	-0.988404	0.855944
C189	C	0.551843	-1.017135	0.827192
C190	C	0.594918	-0.961773	0.786226
C191	C	0.551805	-0.877681	0.774015
H192	H	0.358746	-0.883045	0.865020
H193	H	0.433772	-1.029386	0.886270
H194	H	0.583757	-1.079384	0.836231
H195	H	0.658720	-0.983040	0.764939
H196	H	0.583693	-0.836699	0.743689
C197	C	0.032463	-0.572747	0.540758
C198	C	0.093963	-0.557578	0.464018
C199	C	0.078738	-0.480859	0.402470
C200	C	0.002014	-0.419309	0.417661
C201	C	-0.059491	-0.434477	0.494404
C202	C	-0.044267	-0.511196	0.555952
H203	H	0.150763	-0.603142	0.452770
H204	H	0.124269	-0.469631	0.345660
H205	H	-0.009255	-0.362517	0.372099
H206	H	-0.116291	-0.388913	0.505652
H207	H	-0.089797	-0.522424	0.612762
C208	C	0.301019	-0.527877	0.756148
C209	C	0.247186	-0.500759	0.823888
C210	C	0.204081	-0.416666	0.811675
C211	C	0.214810	-0.359691	0.731722
C212	C	0.268646	-0.386807	0.663976
C213	C	0.311750	-0.470900	0.676189
H214	H	0.239242	-0.542937	0.883079
H215	H	0.164228	-0.396593	0.861825
H216	H	0.182901	-0.297440	0.722681
H217	H	0.276590	-0.344630	0.604785
H218	H	0.351603	-0.490973	0.626039
C219	C	0.258424	-0.551263	0.672591
C220	C	0.279183	-0.508153	0.587860
C221	C	0.328710	-0.551235	0.531831
C222	C	0.357478	-0.637426	0.560532
C223	C	0.336719	-0.680540	0.645267
C224	C	0.287193	-0.637458	0.701297
H225	H	0.257887	-0.444346	0.566610
H226	H	0.344076	-0.519319	0.469104
H227	H	0.394141	-0.669317	0.519056
H228	H	0.358016	-0.744347	0.666518
H229	H	0.271826	-0.669374	0.764023
H230	H	0.082193	-0.397958	0.871963
C231	C	0.203515	-0.386709	0.617786
C232	C	0.141545	-0.332836	0.582262
C233	C	0.162314	-0.289725	0.497528
C234	C	0.245054	-0.300487	0.448317
C235	C	0.307029	-0.354362	0.483841
C236	C	0.286260	-0.397473	0.568576
H237	H	0.080291	-0.324867	0.618691
H238	H	0.116435	-0.249842	0.471231
H239	H	0.260428	-0.268573	0.385592
H240	H	0.368283	-0.362331	0.447412
H241	H	0.332139	-0.437355	0.594872
H242	H	0.129609	-0.540114	0.919306
