data_functionalizedCrystal
_audit_creation_method	'MofGen! by Chris Wilmer'
_symmetry_space_group_name_H-M	'P1'
_symmetry_Int_Tables_number	1
_symmetry_cell_setting	triclinic
loop_
_symmetry_equiv_pos_as_xyz
  x,y,z
_cell_length_a	17.640112
_cell_length_b	12.759387
_cell_length_c	12.759394
_cell_angle_alpha	89.968668
_cell_angle_beta	101.239518
_cell_angle_gamma	101.175366
loop_
_atom_site_label
_atom_site_type_symbol
_atom_site_fract_x
_atom_site_fract_y
_atom_site_fract_z
Zn1	Zn	1.208348	-0.269865	-0.093196
Zn2	Zn	1.208269	-0.094204	-0.268934
Zn3	Zn	1.076175	-0.129657	-0.128800
Zn4	Zn	1.076165	-0.305279	-0.304388
O5	O	1.142239	-0.199751	-0.198829
O6	O	1.318938	-0.216905	-0.086771
O7	O	1.190717	0.048106	-0.250407
O8	O	1.093745	-0.148272	0.022954
O9	O	1.318880	-0.087848	-0.215884
O10	O	1.190852	-0.251282	0.049112
O11	O	1.093668	0.022059	-0.147451
O12	O	0.965573	-0.182612	-0.181830
O13	O	1.093729	-0.447595	-0.276311
O14	O	0.965566	-0.311641	-0.310834
O15	O	1.190843	-0.421576	-0.121149
O16	O	1.190708	-0.122188	-0.420668
O17	O	1.093652	-0.277264	-0.446716
C18	C	0.936892	-0.254817	-0.254043
C19	C	0.849043	-0.278399	-0.277689
C20	C	1.142192	-0.199739	-0.471810
C21	C	1.142244	-0.199749	-0.588572
C22	C	1.142294	-0.473770	-0.198713
C23	C	1.142317	-0.590541	-0.198664
C24	C	0.560029	-0.020609	-0.019176
C25	C	0.477482	-0.042783	-0.041416
C26	C	0.477529	-0.176909	-0.175933
C27	C	0.560078	-0.154751	-0.153700
C28	C	0.601321	-0.076599	-0.075321
C29	C	0.601370	-0.210740	-0.209846
C30	C	0.683912	-0.188579	-0.187619
C31	C	0.725161	-0.110429	-0.109246
C32	C	0.683863	-0.054438	-0.053094
C33	C	0.560125	-0.288886	-0.288230
C34	C	0.601417	-0.344876	-0.344376
C35	C	0.683960	-0.322721	-0.322143
C36	C	0.725210	-0.244570	-0.243770
C37	C	0.725258	-0.378711	-0.378295
C38	C	0.807800	-0.356551	-0.356068
C39	C	0.807751	-0.222409	-0.221543
C40	C	1.348388	-0.144472	-0.143401
C41	C	1.436237	-0.120915	-0.119781
C42	C	1.243492	-0.782878	-0.037007
C43	C	1.294044	-0.714472	0.043755
C44	C	1.294022	-0.604756	0.043715
C45	C	1.243443	-0.563445	-0.037099
C46	C	1.192891	-0.631851	-0.117861
C47	C	1.192918	-0.741568	-0.117810
C48	C	1.091765	-0.658947	-0.279426
C49	C	1.091782	-0.768664	-0.279383
C50	C	1.041187	-0.617636	-0.360240
C51	C	0.990629	-0.686043	-0.440999
C52	C	0.990653	-0.795765	-0.440954
C53	C	1.041230	-0.837070	-0.360145
C54	C	1.142230	0.073214	-0.198857
C55	C	1.142360	0.190025	-0.198569
C56	C	1.243384	-0.038349	-0.561375
C57	C	1.293974	0.042345	-0.602631
C58	C	1.294021	0.042328	-0.712340
C59	C	1.243473	-0.038392	-0.780796
C60	C	1.192882	-0.119085	-0.739540
C61	C	1.192840	-0.119058	-0.629827
C62	C	1.091747	-0.280487	-0.766736
C63	C	1.091696	-0.280469	-0.657029
C64	C	1.041199	-0.361207	-0.835193
C65	C	0.990603	-0.441898	-0.793938
C66	C	0.990559	-0.441878	-0.684222
C67	C	1.041105	-0.361162	-0.615772
C68	C	1.142308	-0.199781	0.075223
C69	C	1.142338	-0.199794	0.192007
H70	H	0.792371	-0.092385	-0.091152
C71	C	0.935006	-0.640598	-0.529894
C72	C	0.934991	-0.519912	-0.529952
C73	C	0.879370	-0.474462	-0.618851
C74	C	0.823764	-0.549699	-0.707691
C75	C	0.823776	-0.670392	-0.707636
C76	C	0.879398	-0.715842	-0.618737
H77	H	0.976156	-0.464211	-0.464184
H78	H	0.879361	-0.385117	-0.618891
H79	H	0.782589	-0.516054	-0.773499
H80	H	0.782611	-0.726093	-0.773404
H81	H	0.879407	-0.805188	-0.618697
H82	H	0.492915	-0.306926	-0.306325
H83	H	1.041175	-0.528297	-0.360271
C84	C	0.432156	-0.262877	-0.262142
C85	C	0.375390	-0.232458	-0.359862
C86	C	0.330019	-0.318430	-0.446070
C87	C	0.341413	-0.434821	-0.434557
C88	C	0.398182	-0.465245	-0.336834
C89	C	0.443553	-0.379273	-0.250626
H90	H	0.366953	-0.146293	-0.368388
H91	H	0.287995	-0.295907	-0.518411
H92	H	0.307826	-0.498463	-0.498373
H93	H	0.406619	-0.551410	-0.328308
H94	H	0.485577	-0.401796	-0.178285
H95	H	1.335187	-0.549059	0.109476
C96	C	0.935046	-0.871010	-0.529797
C97	C	0.941465	-0.854176	-0.647512
C98	C	0.885858	-0.929416	-0.736358
C99	C	0.823833	-1.021491	-0.707488
C100	C	0.817412	-1.038329	-0.589768
C101	C	0.873018	-0.963088	-0.500922
H102	H	0.987382	-0.786013	-0.668888
H103	H	0.890612	-0.916951	-0.823502
H104	H	0.782670	-1.077188	-0.773257
H105	H	0.771494	-1.106491	-0.568392
H106	H	0.868264	-0.975553	-0.413778
C107	C	0.729245	0.031514	0.033137
C108	C	0.717907	0.019670	0.149510
C109	C	0.763292	0.105612	0.235740
C110	C	0.820015	0.203397	0.205598
C111	C	0.831355	0.215245	0.089221
C112	C	0.785970	0.129303	0.002990
H113	H	0.675915	-0.052721	0.171827
H114	H	0.754896	0.096840	0.321891
H115	H	0.853611	0.267016	0.269431
H116	H	0.873347	0.287636	0.066903
H117	H	0.794366	0.138074	-0.083160
C118	C	0.605411	0.065342	0.067056
C119	C	0.594073	0.053498	0.183428
C120	C	0.639458	0.139440	0.269659
C121	C	0.696181	0.237226	0.239517
C122	C	0.707522	0.249074	0.123139
C123	C	0.662137	0.163132	0.036909
H124	H	0.552081	-0.018892	0.205746
H125	H	0.631063	0.130669	0.355809
H126	H	0.729778	0.300845	0.303350
H127	H	0.749514	0.321464	0.100822
H128	H	0.670532	0.171903	-0.049242
H129	H	0.841421	-0.402144	-0.401786
C130	C	0.556044	-0.430843	-0.430585
C131	C	0.499279	-0.400424	-0.528305
C132	C	0.453907	-0.486397	-0.614512
C133	C	0.465301	-0.602788	-0.603000
C134	C	0.522070	-0.633212	-0.505276
C135	C	0.567441	-0.547240	-0.419069
H136	H	0.490842	-0.314260	-0.536831
H137	H	0.411883	-0.463874	-0.686854
H138	H	0.431715	-0.666430	-0.666816
H139	H	0.530507	-0.719377	-0.496751
H140	H	0.609465	-0.569763	-0.346727
H141	H	1.335132	0.108065	-0.546884
H142	H	0.443865	0.002809	0.004318
C143	C	0.853122	-0.136448	-0.135316
C144	C	0.909836	-0.038655	-0.165460
C145	C	0.955205	0.047302	-0.079236
C146	C	0.943858	0.035466	0.037133
C147	C	0.887141	-0.062331	0.067284
C148	C	0.841773	-0.148288	-0.018941
H149	H	0.918238	-0.029889	-0.251609
H150	H	0.997191	0.119698	-0.101556
H151	H	0.977443	0.099096	0.100962
H152	H	0.878740	-0.071097	0.153432
H153	H	0.799787	-0.220684	0.003379
C154	C	0.679884	-0.464671	-0.464512
C155	C	0.623123	-0.434236	-0.562228
C156	C	0.577749	-0.520197	-0.648446
C157	C	0.589136	-0.636592	-0.636948
C158	C	0.645899	-0.667032	-0.539227
C159	C	0.691273	-0.581072	-0.453009
H160	H	0.614691	-0.348069	-0.570743
H161	H	0.535729	-0.497662	-0.720785
H162	H	0.555547	-0.700225	-0.700771
H163	H	0.654331	-0.753200	-0.530712
H164	H	0.733294	-0.603606	-0.380670
H165	H	1.243505	-0.872215	-0.036954
C166	C	1.349676	-0.759916	0.132650
C167	C	1.349703	-0.880599	0.132708
C168	C	1.405336	-0.926037	0.221602
C169	C	1.460941	-0.850794	0.310436
C170	C	1.460916	-0.730103	0.310382
C171	C	1.405283	-0.684664	0.221488
H172	H	1.308539	-0.936305	0.066944
H173	H	1.405354	-1.015381	0.221642
H174	H	1.502124	-0.884430	0.376241
H175	H	1.502080	-0.674397	0.376145
H176	H	1.405265	-0.595321	0.221448
H177	H	1.243437	-0.474106	-0.037132
H178	H	0.949365	-0.507592	-0.650637
C179	C	0.935009	-0.530684	-0.869236
C180	C	0.935065	-0.530711	-0.989911
C181	C	0.879469	-0.619499	-1.065214
C182	C	0.823817	-0.708259	-1.019843
C183	C	0.823758	-0.708236	-0.899162
C184	C	0.879354	-0.619448	-0.823859
H185	H	0.976264	-0.465003	-1.023503
H186	H	0.879513	-0.619516	-1.154551
H187	H	0.782661	-0.773985	-1.075587
H188	H	0.782559	-0.773944	-0.865570
H189	H	0.879310	-0.619431	-0.734523
H190	H	1.335220	0.108032	-0.745929
H191	H	1.041249	-0.926406	-0.360095
H192	H	1.243341	-0.038317	-0.472045
H193	H	1.243522	-0.038405	-0.870124
H194	H	1.041244	-0.361218	-0.924522
H195	H	1.041068	-0.361133	-0.526441
