data_functionalizedCrystal
_audit_creation_method	'MofGen! by Chris Wilmer'
_symmetry_space_group_name_H-M	'P1'
_symmetry_Int_Tables_number	1
_symmetry_cell_setting	triclinic
loop_
_symmetry_equiv_pos_as_xyz
  x,y,z
_cell_length_a	16.120530
_cell_length_b	16.120484
_cell_length_c	12.827885
_cell_angle_alpha	87.136072
_cell_angle_beta	92.918515
_cell_angle_gamma	90.167327
loop_
_atom_site_label
_atom_site_type_symbol
_atom_site_fract_x
_atom_site_fract_y
_atom_site_fract_z
Zn1	Zn	1.254490	-0.395557	0.695632
Zn2	Zn	1.587824	-0.062224	1.028965
Zn3	Zn	1.921157	0.271110	1.362299
Zn4	Zn	1.247329	-0.534629	0.529257
Zn5	Zn	1.580663	-0.201295	0.862591
Zn6	Zn	1.913996	0.132038	1.195924
Zn7	Zn	1.115425	-0.388537	0.511626
Zn8	Zn	1.448759	-0.055204	0.844959
Zn9	Zn	1.782092	0.278129	1.178293
Zn10	Zn	1.108342	-0.527510	0.694676
Zn11	Zn	1.441676	-0.194177	1.028009
Zn12	Zn	1.775009	0.139156	1.361343
O13	O	1.181397	-0.461558	0.607798
O14	O	1.514730	-0.128225	0.941131
O15	O	1.848064	0.205108	1.274464
O16	O	1.369906	-0.419922	0.681341
O17	O	1.703239	-0.086589	1.014675
O18	O	2.036573	0.246744	1.348008
O19	O	1.229800	-0.515291	0.380683
O20	O	1.563133	-0.181957	0.714016
O21	O	1.896466	0.151376	1.047350
O22	O	1.139834	-0.273106	0.529056
O23	O	1.473167	0.060227	0.862389
O24	O	1.806500	0.393561	1.195723
O25	O	1.364645	-0.522098	0.559106
O26	O	1.697978	-0.188764	0.892440
O27	O	2.031312	0.144569	1.225773
O28	O	1.242004	-0.278263	0.664245
O29	O	1.575337	0.055070	0.997578
O30	O	1.908671	0.388403	1.330911
O31	O	1.132890	-0.407958	0.367729
O32	O	1.466224	-0.074625	0.701062
O33	O	1.799557	0.258709	1.034396
O34	O	0.998120	-0.401055	0.528129
O35	O	1.331453	-0.067722	0.861462
O36	O	1.664787	0.265611	1.194796
O37	O	1.127762	-0.509965	0.841038
O38	O	1.461095	-0.176632	1.174372
O39	O	1.794428	0.156702	1.507705
O40	O	0.992916	-0.503158	0.662615
O41	O	1.326250	-0.169825	0.995948
O42	O	1.659583	0.163508	1.329282
O43	O	1.235136	-0.413020	0.841741
O44	O	1.568469	-0.079686	1.175074
O45	O	1.901803	0.253647	1.508408
O46	O	1.222931	-0.650047	0.558179
O47	O	1.556265	-0.316714	0.891512
O48	O	1.889598	0.016620	1.224846
O49	O	1.120818	-0.644817	0.679712
O50	O	1.454152	-0.311484	1.013045
O51	O	1.787485	0.021849	1.346378
C52	C	1.170352	-0.677605	0.620779
C53	C	1.503685	-0.344272	0.954112
C54	C	1.837018	-0.010938	1.287446
C55	C	1.165703	-0.770034	0.626373
C56	C	1.499036	-0.436701	0.959706
C57	C	1.832369	-0.103368	1.293039
C58	C	0.965346	-0.450573	0.593356
C59	C	1.298679	-0.117240	0.926689
C60	C	1.632013	0.216093	1.260022
C61	C	0.872917	-0.445894	0.587203
C62	C	1.206251	-0.112561	0.920536
C63	C	1.539584	0.220773	1.253870
C64	C	0.703690	-0.437331	0.575978
C65	C	1.037023	-0.103998	0.909311
C66	C	1.370356	0.229336	1.242645
C67	C	0.659941	-0.485847	0.639698
C68	C	0.993275	-0.152514	0.973031
C69	C	1.326608	0.180820	1.306364
C70	C	0.565777	-0.481083	0.633452
C71	C	0.899111	-0.147749	0.966785
C72	C	1.232444	0.185584	1.300119
C73	C	0.797862	-0.442094	0.582222
C74	C	1.131196	-0.108761	0.915556
C75	C	1.464529	0.224572	1.248889
C76	C	1.157220	-0.939265	0.636607
C77	C	1.490553	-0.605931	0.969940
C78	C	1.823886	-0.272598	1.303273
C79	C	1.205723	-0.983019	0.579016
C80	C	1.539056	-0.649686	0.912349
C81	C	1.872390	-0.316353	1.245683
C82	C	1.201003	-1.077185	0.584710
C83	C	1.534336	-0.743851	0.918044
C84	C	1.867670	-0.410518	1.251377
C85	C	1.161939	-0.845090	0.630914
C86	C	1.495272	-0.511757	0.964247
C87	C	1.828605	-0.178424	1.297580
C88	C	1.398291	-0.472587	0.622297
C89	C	1.731625	-0.139254	0.955630
C90	C	2.064958	0.194080	1.288964
C91	C	1.490719	-0.477287	0.628476
C92	C	1.824052	-0.143953	0.961809
C93	C	2.157386	0.189380	1.295143
C94	C	1.181458	-0.461481	0.880367
C95	C	1.514791	-0.128148	1.213700
C96	C	1.848124	0.205185	1.547034
C97	C	1.181483	-0.461449	0.996520
C98	C	1.514817	-0.128115	1.329853
C99	C	1.848150	0.205218	1.663187
C100	C	1.192508	-0.244669	0.594790
C101	C	1.525841	0.088664	0.928124
C102	C	1.859174	0.421997	1.261457
C103	C	1.197243	-0.152244	0.589247
C104	C	1.530576	0.181089	0.922580
C105	C	1.863909	0.514422	1.255914
C106	C	1.181387	-0.461577	0.336289
C107	C	1.514721	-0.128244	0.669622
C108	C	1.848054	0.205089	1.002955
C109	C	1.181535	-0.461384	0.220133
C110	C	1.514868	-0.128051	0.553466
C111	C	1.848201	0.205282	0.886800
C112	C	1.234622	-0.413467	1.048652
C113	C	1.567955	-0.080134	1.381985
C114	C	1.901288	0.253199	1.715319
C115	C	1.234649	-0.413432	1.168702
C116	C	1.567983	-0.080099	1.502035
C117	C	1.901316	0.253234	1.835369
H118	H	0.693206	-0.530960	0.698941
H119	H	1.026540	-0.197626	1.032275
H120	H	1.359873	0.135707	1.365608
H121	H	0.670427	-0.392221	0.516740
H122	H	1.003760	-0.058888	0.850073
H123	H	1.337093	0.274445	1.183406
C124	C	1.296053	-0.358002	0.988885
C125	C	1.629387	-0.024669	1.322218
C126	C	1.962720	0.308664	1.655551
N127	N	1.342326	-0.316224	0.943869
N128	N	1.675659	0.017109	1.277203
N129	N	2.008992	0.350442	1.610536
H130	H	1.250793	-0.949758	0.525434
H131	H	1.584126	-0.616425	0.858768
H132	H	1.917459	-0.283091	1.192101
C133	C	1.096327	-0.984196	0.708977
C134	C	1.429661	-0.650863	1.042310
C135	C	1.762994	-0.317530	1.375643
N136	N	1.050460	-1.018048	0.763480
N137	N	1.383793	-0.684715	1.096813
N138	N	1.717126	-0.351382	1.430146
H139	H	1.136042	-0.502468	1.175309
H140	H	1.469375	-0.169135	1.508642
H141	H	1.802708	0.164199	1.841976
C142	C	1.296110	-0.357932	1.229263
C143	C	1.629443	-0.024599	1.562597
C144	C	1.962776	0.308734	1.895930
N145	N	1.342402	-0.316126	1.274881
N146	N	1.675735	0.017207	1.608214
N147	N	2.009068	0.350540	1.941547
C148	C	1.120046	-0.516908	1.056286
C149	C	1.453380	-0.183575	1.389620
C150	C	1.786713	0.149759	1.722953
N151	N	1.073770	-0.558681	1.101301
N152	N	1.407103	-0.225348	1.434635
N153	N	1.740437	0.107985	1.767968
