data_functionalizedCrystal
_audit_creation_method	'MofGen! by Chris Wilmer'
_symmetry_space_group_name_H-M	'P1'
_symmetry_Int_Tables_number	1
_symmetry_cell_setting	triclinic
loop_
_symmetry_equiv_pos_as_xyz
  x,y,z
_cell_length_a	14.044220
_cell_length_b	15.995350
_cell_length_c	13.101039
_cell_angle_alpha	93.364563
_cell_angle_beta	86.340132
_cell_angle_gamma	88.340626
loop_
_atom_site_label
_atom_site_type_symbol
_atom_site_fract_x
_atom_site_fract_y
_atom_site_fract_z
O1	O	1.262914	0.197637	-0.085096
O2	O	0.986946	0.190352	-0.085122
O3	O	1.132474	0.072670	-0.085107
O4	O	1.117386	0.315319	-0.085111
O5	O	1.122032	0.081129	0.085321
O6	O	0.976505	0.198810	0.085307
O7	O	1.252472	0.206096	0.085333
Zn8	Zn	1.112831	0.203796	0.112379
Zn9	Zn	1.126588	0.192651	-0.112168
O10	O	1.106945	0.323777	0.085318
C11	C	0.946411	0.191392	0.000089
C12	C	0.841186	0.181881	0.000079
C13	C	0.648524	0.164494	0.000099
C14	C	0.590890	0.231950	0.000102
C15	C	0.483686	0.222275	0.000114
C16	C	0.755738	0.174167	0.000088
C17	C	1.126629	0.045658	0.000105
C18	C	1.124760	-0.047432	0.000099
C19	C	1.118044	-0.385681	0.000102
C20	C	1.014425	-0.346007	-0.000290
C21	C	1.016272	-0.249158	0.000094
C22	C	1.121375	-0.217872	0.000100
C23	C	1.166533	-0.250301	0.097426
C24	C	1.163924	-0.347127	0.097507
C25	C	1.177939	-0.356944	-0.096302
C26	C	1.177993	-0.260065	-0.097588
C27	C	1.123263	-0.123033	0.000102
C28	C	1.116159	-0.480519	0.000106
C29	C	1.293008	0.205055	0.000120
C30	C	1.398233	0.214566	0.000123
C31	C	1.112789	0.350789	0.000103
C32	C	1.114659	0.443879	0.000103
N33	N	1.103449	0.211402	0.265626
N34	N	1.135977	0.185039	-0.265416
C35	C	1.090685	0.221758	0.474668
C36	C	1.148739	0.174686	0.525549
C37	C	1.141636	0.180448	0.641867
C38	C	1.097786	0.215997	0.358340
H39	H	0.980363	-0.227200	-0.069674
N40	N	1.217815	0.118710	0.470650
N41	N	1.215699	0.041803	0.482534
H42	H	1.264495	0.002278	0.443766
H43	H	1.035653	0.266383	0.518459
H44	H	0.622062	0.296967	0.000097
H45	H	0.977276	-0.371097	-0.070085
N46	N	0.609427	0.082935	0.000118
N47	N	0.552346	0.064756	0.071963
H48	H	0.524724	0.007155	0.071975
N49	N	0.957361	-0.370137	0.086769
N50	N	0.992673	-0.416425	0.149103
H51	H	0.952374	-0.433468	0.210591
H52	H	1.145029	-0.239181	-0.169587
H53	H	0.971537	-0.220847	0.069973
N54	N	1.111568	-0.369042	0.188772
N55	N	1.077204	-0.312858	0.251961
H56	H	1.040225	-0.328330	0.316419
N57	N	1.259042	-0.380169	0.103066
N58	N	1.327137	-0.331709	0.106880
H59	H	1.394313	-0.355040	0.110814
H60	H	1.243527	-0.230228	0.101050
H61	H	1.254999	-0.239269	-0.103460
N62	N	1.116420	-0.213512	0.188274
N63	N	1.047444	-0.163408	0.181594
H64	H	1.012045	-0.137427	0.245753
N65	N	1.141099	-0.390491	-0.188836
N66	N	1.070244	-0.435992	-0.184852
H67	H	1.044218	-0.459687	-0.250199
H68	H	1.254394	-0.383030	-0.096952
