data_functionalizedCrystal
_audit_creation_method	'MofGen! by Chris Wilmer'
_symmetry_space_group_name_H-M	'P1'
_symmetry_Int_Tables_number	1
_symmetry_cell_setting	triclinic
loop_
_symmetry_equiv_pos_as_xyz
  x,y,z
_cell_length_a	10.654545
_cell_length_b	10.540510
_cell_length_c	9.130313
_cell_angle_alpha	89.997956
_cell_angle_beta	89.996934
_cell_angle_gamma	84.498195
loop_
_atom_site_label
_atom_site_type_symbol
_atom_site_fract_x
_atom_site_fract_y
_atom_site_fract_z
O1	O	1.667887	0.178276	-0.121776
O2	O	1.302412	0.195269	-0.121781
O3	O	1.493507	0.002060	-0.121778
O4	O	1.476792	0.371484	-0.121779
O5	O	1.493494	0.002055	0.121821
O6	O	1.302398	0.195263	0.121818
O7	O	1.667873	0.178270	0.121823
Cu8	Cu	1.485135	0.186766	0.144063
Cu9	Cu	1.485150	0.186773	-0.144021
O10	O	1.476778	0.371479	0.121819
C11	C	1.255607	0.194020	0.000017
C12	C	1.116162	0.190290	0.000015
C13	C	1.050650	0.188532	0.132802
C14	C	0.919630	0.185006	0.132802
C15	C	0.919645	0.185004	-0.132783
C16	C	1.050664	0.188520	-0.132782
C17	C	1.492254	-0.045246	0.000018
C18	C	1.488528	-0.186194	0.000010
C19	C	1.621281	-0.403700	0.000569
C20	C	1.625256	-0.257105	0.000013
C21	C	1.418544	-0.230923	-0.139095
C22	C	1.415537	-0.377683	-0.139204
C23	C	1.412674	-0.377497	0.137813
C24	C	1.419160	-0.231158	0.139644
C25	C	1.714678	0.179519	0.000021
C26	C	1.854123	0.183249	0.000014
C27	C	1.478031	0.418785	0.000020
C28	C	1.481757	0.559733	0.000019
N29	N	1.485133	0.186761	0.346685
N30	N	1.485162	0.186768	-0.346644
C31	C	1.569779	0.101244	0.423339
C32	C	1.569791	0.101244	0.576675
C33	C	1.400507	0.272289	0.576692
C34	C	1.400490	0.272282	0.423358
H35	H	1.103975	0.189973	0.240933
H36	H	1.313273	-0.400640	-0.145508
F37	F	1.478072	-0.430273	-0.275110
H38	H	1.104006	0.189949	-0.240919
H39	H	1.456119	-0.419698	0.243255
H40	H	0.866295	0.183575	0.240930
F41	F	0.849929	0.183095	-0.274107
F42	F	1.696804	-0.218773	0.130365
H43	H	1.467156	-0.200083	-0.242616
H44	H	1.674543	-0.445677	0.100329
F45	F	1.659860	0.010222	0.341744
H46	H	1.674247	-0.447223	-0.098624
F47	F	1.697256	-0.219995	-0.130549
H48	H	1.317887	-0.183496	-0.144269
F49	F	1.485711	-0.193780	0.274157
F50	F	1.288681	-0.166979	0.150624
H51	H	1.638715	0.031608	0.639082
F52	F	1.278496	-0.406399	0.139040
F53	F	1.310431	0.363305	0.658303
H54	H	1.331555	0.341920	0.360943
