data_functionalizedCrystal
_audit_creation_method	'MofGen! by Chris Wilmer'
_symmetry_space_group_name_H-M	'P1'
_symmetry_Int_Tables_number	1
_symmetry_cell_setting	triclinic
loop_
_symmetry_equiv_pos_as_xyz
  x,y,z
_cell_length_a	12.759401
_cell_length_b	12.759394
_cell_length_c	12.759393
_cell_angle_alpha	90.030600
_cell_angle_beta	90.018567
_cell_angle_gamma	90.012900
loop_
_atom_site_label
_atom_site_type_symbol
_atom_site_fract_x
_atom_site_fract_y
_atom_site_fract_z
Zn1	Zn	1.606262	-0.418231	0.593990
Zn2	Zn	1.606158	-0.593950	0.418313
Zn3	Zn	1.430564	-0.418283	0.418330
Zn4	Zn	1.430555	-0.593866	0.593955
O5	O	1.518385	-0.506083	0.506147
O6	O	1.753269	-0.441555	0.570695
O7	O	1.582826	-0.570704	0.271294
O8	O	1.453917	-0.271255	0.441653
O9	O	1.753193	-0.570654	0.441626
O10	O	1.583002	-0.271217	0.570710
O11	O	1.453817	-0.441642	0.271306
O12	O	1.283541	-0.441561	0.441618
O13	O	1.453902	-0.570511	0.740981
O14	O	1.283535	-0.570561	0.570649
O15	O	1.582993	-0.441473	0.741007
O16	O	1.582817	-0.740960	0.441591
O17	O	1.453802	-0.740898	0.570634
C18	C	1.245417	-0.506058	0.506132
C19	C	1.128641	-0.506073	0.506151
C20	C	1.073811	-0.438977	0.573461
C21	C	0.964087	-0.438997	0.573468
C22	C	0.964032	-0.573217	0.438851
C23	C	1.073754	-0.573191	0.438840
C24	C	1.073842	-0.361489	0.651185
C25	C	0.964118	-0.361509	0.651192
C26	C	1.518326	-0.779050	0.506130
C27	C	1.518397	-0.895827	0.506157
C28	C	1.652713	-0.895629	0.640646
C29	C	1.719903	-0.950391	0.707897
C30	C	1.719966	-1.060113	0.707920
C31	C	1.652828	-1.115075	0.640686
C32	C	1.585637	-1.060313	0.573434
C33	C	1.585584	-0.950589	0.573416
C34	C	1.451318	-1.060511	0.438953
C35	C	1.451260	-0.950789	0.438923
C36	C	1.384181	-1.115473	0.371718
C37	C	1.316994	-1.060711	0.304459
C38	C	1.316935	-0.950982	0.304439
C39	C	1.384069	-0.896027	0.371671
C40	C	1.792418	-0.506108	0.506162
C41	C	1.909194	-0.506119	0.506169
C42	C	1.518458	-0.505977	0.780180
C43	C	1.518489	-0.505931	0.896957
C44	C	1.518472	-0.232049	0.506187
C45	C	1.518509	-0.115272	0.506205
C46	C	1.518372	-0.506112	0.233180
C47	C	1.518544	-0.505862	0.116404
C48	C	1.585716	-0.438735	0.951835
C49	C	1.585741	-0.438697	1.061559
C50	C	1.451310	-0.573061	1.061518
C51	C	1.451280	-0.573093	0.951796
C52	C	1.663333	-0.361164	0.951859
C53	C	1.663358	-0.361126	1.061583
H54	H	1.107908	-0.390722	0.728423
C55	C	0.918512	-0.258471	0.612590
C56	C	0.808938	-0.264006	0.614681
C57	C	0.766888	-0.169103	0.579153
H58	H	0.941430	-0.203059	0.656752
H59	H	0.941386	-0.245762	0.542893
H60	H	0.786073	-0.276704	0.684366
H61	H	0.785991	-0.319399	0.570516
H62	H	0.789763	-0.156393	0.509457
H63	H	0.789814	-0.113698	0.623319
H64	H	0.692539	-0.172849	0.580559
H65	H	1.740605	-0.390334	0.917823
C66	C	0.924387	-0.390815	0.759587
C67	C	0.863438	-0.481826	0.752736
C68	C	0.826850	-0.508826	0.852581
H69	H	0.982268	-0.403021	0.804797
H70	H	0.883010	-0.335189	0.786749
H71	H	0.904814	-0.537440	0.725590
H72	H	0.805543	-0.469646	0.707547
H73	H	0.785473	-0.453200	0.879742
H74	H	0.884737	-0.521027	0.897782
H75	H	0.785484	-0.570574	0.847945
H76	H	1.774667	-1.104700	0.762694
H77	H	1.744729	-0.382920	1.091362
H78	H	1.396588	-0.627739	1.106182
H79	H	1.641563	-0.279799	0.922101
C80	C	1.133095	-0.646143	0.365709
C81	C	1.061539	-0.704944	0.306786
C82	C	1.116165	-0.772168	0.239412
H83	H	1.175879	-0.605999	0.319909
H84	H	1.175894	-0.692020	0.405784
H85	H	1.018758	-0.659073	0.266713
H86	H	1.018752	-0.745110	0.352558
H87	H	1.158965	-0.818045	0.279488
H88	H	1.158948	-0.732015	0.193619
H89	H	1.067624	-0.812079	0.199432
C90	C	0.904382	-0.646222	0.365954
C91	C	0.841433	-0.713663	0.425331
C92	C	0.786483	-0.780941	0.358215
H93	H	0.861476	-0.606109	0.320228
H94	H	0.952721	-0.686241	0.325884
H95	H	0.793100	-0.673648	0.465383
H96	H	0.884313	-0.753799	0.471054
H97	H	0.834822	-0.820960	0.318145
H98	H	0.743583	-0.740820	0.312492
H99	H	0.743773	-0.826714	0.398493
C100	C	1.383779	-0.776900	0.371658
C101	C	1.283717	-0.740657	0.398356
C102	C	1.283407	-0.630924	0.398347
H103	H	1.433304	-0.751878	0.421326
H104	H	1.401905	-0.752071	0.303858
H105	H	1.265604	-0.765476	0.466146
H106	H	1.234175	-0.765651	0.348697
H107	H	1.301532	-0.606094	0.330548
H108	H	1.332935	-0.605911	0.448015
H109	H	1.215514	-0.606318	0.416452
C110	C	1.378153	-0.645862	0.892153
C111	C	1.310809	-0.586369	0.829195
C112	C	1.243418	-0.653367	0.774245
H113	H	1.418187	-0.691680	0.849253
H114	H	1.338068	-0.685839	0.940492
H115	H	1.350890	-0.546410	0.780862
H116	H	1.270752	-0.540554	0.872069
H117	H	1.203333	-0.693344	0.822584
H118	H	1.283460	-0.699182	0.731351
H119	H	1.197711	-0.613011	0.731529
H120	H	1.652678	-0.806288	0.640624
H121	H	1.774564	-0.905631	0.762641
C122	C	1.244222	-1.120572	0.231511
C123	C	1.258669	-1.228381	0.245915
C124	C	1.191660	-1.283562	0.178721
H125	H	1.173572	-1.102756	0.246758
H126	H	1.259633	-1.102698	0.160904
H127	H	1.243250	-1.246248	0.316505
H128	H	1.329305	-1.246228	0.230660
H129	H	1.207071	-1.265688	0.108114
H130	H	1.121014	-1.265738	0.193973
H131	H	1.201460	-1.356716	0.188477
C132	C	1.113692	-0.253048	0.622160
C133	C	1.174596	-0.259753	0.531144
C134	C	1.211336	-0.159885	0.504382
H135	H	1.055880	-0.207748	0.610050
H136	H	1.155134	-0.226060	0.677857
H137	H	1.133156	-0.286726	0.475460
H138	H	1.232423	-0.305033	0.543229
H139	H	1.252778	-0.132897	0.560078
H140	H	1.153518	-0.114593	0.492277
H141	H	1.252671	-0.164422	0.442631
C142	C	1.624575	-0.257945	1.106790
C143	C	1.598845	-0.189630	1.024894
C144	C	1.563126	-0.094570	1.066500
H145	H	1.564286	-0.270261	1.148671
H146	H	1.678101	-0.227476	1.148675
H147	H	1.545323	-0.220093	0.983027
H148	H	1.659118	-0.177284	0.983006
H149	H	1.616652	-0.064101	1.108385
H150	H	1.502841	-0.106897	1.108381
H151	H	1.545674	-0.048204	1.010941
H152	H	1.384232	-1.204814	0.371746
H153	H	1.262216	-0.906401	0.249678
H154	H	1.652876	-1.204416	0.640719
