data_functionalizedCrystal
_audit_creation_method	'MofGen! by Chris Wilmer'
_symmetry_space_group_name_H-M	'P1'
_symmetry_Int_Tables_number	1
_symmetry_cell_setting	triclinic
loop_
_symmetry_equiv_pos_as_xyz
  x,y,z
_cell_length_a	18.215407
_cell_length_b	25.639239
_cell_length_c	18.215399
_cell_angle_alpha	90.030589
_cell_angle_beta	90.019833
_cell_angle_gamma	90.039732
loop_
_atom_site_label
_atom_site_type_symbol
_atom_site_fract_x
_atom_site_fract_y
_atom_site_fract_z
Zn1	Zn	1.124998	-0.208150	0.416102
Zn2	Zn	1.624998	0.291850	0.916102
Zn3	Zn	1.124876	-0.295586	0.293030
Zn4	Zn	1.624876	0.204414	0.793030
Zn5	Zn	1.001931	-0.208167	0.293050
Zn6	Zn	1.501931	0.291833	0.793050
Zn7	Zn	1.001866	-0.295557	0.416055
Zn8	Zn	1.501866	0.204443	0.916055
O9	O	1.063418	-0.251865	0.354559
O10	O	1.563418	0.248135	0.854559
O11	O	1.227966	-0.219754	0.399788
O12	O	1.727966	0.280246	0.899788
O13	O	1.108543	-0.284009	0.190049
O14	O	1.608543	0.215991	0.690049
O15	O	1.018335	-0.135000	0.309401
O16	O	1.518335	0.365000	0.809401
O17	O	1.227876	-0.283992	0.309368
O18	O	1.727876	0.216008	0.809368
O19	O	1.108752	-0.134987	0.399807
O20	O	1.608752	0.365013	0.899807
O21	O	1.018216	-0.219783	0.190063
O22	O	1.518216	0.280217	0.690063
O23	O	0.898938	-0.219754	0.309355
O24	O	1.398938	0.280246	0.809355
O25	O	1.018224	-0.283943	0.519046
O26	O	1.518224	0.216057	1.019046
O27	O	0.898890	-0.283959	0.399727
O28	O	1.398890	0.216041	0.899727
O29	O	1.108689	-0.219725	0.519080
O30	O	1.608689	0.280275	1.019080
O31	O	1.108480	-0.368747	0.309322
O32	O	1.608480	0.131253	0.809322
O33	O	1.018105	-0.368726	0.399708
O34	O	1.518105	0.131274	0.899708
C35	C	0.872211	-0.251856	0.354538
C36	C	1.372211	0.248144	0.854538
C37	C	0.790413	-0.251865	0.354547
C38	C	1.290413	0.248135	0.854547
C39	C	1.063292	-0.387708	0.354524
C40	C	1.563292	0.112292	0.854524
C41	C	1.063305	-0.445822	0.354533
C42	C	1.563305	0.054178	0.854533
C43	C	0.602213	-0.285349	0.401544
C44	C	1.102213	0.214651	0.901544
C45	C	0.525354	-0.285350	0.401553
C46	C	1.025354	0.214650	0.901553
C47	C	0.525374	-0.218391	0.307591
C48	C	1.025374	0.281609	0.807591
C49	C	0.602232	-0.218387	0.307586
C50	C	1.102232	0.281613	0.807586
C51	C	0.640649	-0.251869	0.354561
C52	C	1.140649	0.248131	0.854561
C53	C	0.486933	-0.251874	0.354576
C54	C	0.986933	0.248126	0.854576
C55	C	0.403599	-0.251876	0.354585
C56	C	0.903599	0.248124	0.854585
C57	C	0.723988	-0.251867	0.354553
C58	C	1.223988	0.248133	0.854553
C59	C	1.016351	-0.697016	0.401608
C60	C	1.516351	-0.197016	0.901608
C61	C	1.016323	-0.642412	0.401600
C62	C	1.516323	-0.142412	0.901600
O63	O	0.976280	-0.614176	0.441600
O64	O	1.476280	-0.114176	0.941600
N65	N	1.063398	-0.615095	0.354572
N66	N	1.563398	-0.115095	0.854572
C67	C	1.110508	-0.642386	0.307554
C68	C	1.610508	-0.142386	0.807554
O69	O	1.150547	-0.614137	0.267553
O70	O	1.650547	-0.114137	0.767553
C71	C	1.110539	-0.696989	0.307567
C72	C	1.610539	-0.196989	0.807567
C73	C	1.063456	-0.724303	0.354593
C74	C	1.563456	-0.224303	0.854593
C75	C	0.969272	-0.724330	0.448631
C76	C	1.469272	-0.224330	0.948631
C77	C	0.969298	-0.778931	0.448638
C78	C	1.469298	-0.278931	0.948638
C79	C	1.016404	-0.806217	0.401623
C80	C	1.516404	-0.306217	0.901623
C81	C	1.063482	-0.778904	0.354601
C82	C	1.563482	-0.278904	0.854601
C83	C	1.157652	-0.724279	0.260554
C84	C	1.657652	-0.224279	0.760554
C85	C	1.157679	-0.778886	0.260571
C86	C	1.657679	-0.278886	0.760571
C87	C	1.110596	-0.806200	0.307597
C88	C	1.610596	-0.306200	0.807597
C89	C	1.110614	-0.860791	0.307593
C90	C	1.610614	-0.360791	0.807593
N91	N	1.063539	-0.888107	0.354621
N92	N	1.563539	-0.388107	0.854621
C93	C	1.016434	-0.860821	0.401636
C94	C	1.516434	-0.360821	0.901636
C95	C	1.110442	-0.527715	0.307532
C96	C	1.610442	-0.027715	0.807532
C97	C	1.110408	-0.473113	0.307515
C98	C	1.610408	0.026887	0.807515
C99	C	1.016224	-0.473143	0.401562
C100	C	1.516224	0.026857	0.901562
C101	C	1.016254	-0.527746	0.401574
C102	C	1.516254	-0.027746	0.901574
C103	C	1.063367	-0.555032	0.354560
C104	C	1.563367	-0.055032	0.854560
C105	C	1.016493	-0.975486	0.401647
C106	C	1.516493	-0.475486	0.901647
C107	C	1.016521	-1.030091	0.401649
C108	C	1.516521	-0.530091	0.901649
C109	C	1.110708	-1.030057	0.307605
C110	C	1.610708	-0.530057	0.807605
C111	C	1.110677	-0.975456	0.307601
C112	C	1.610677	-0.475456	0.807601
C113	C	1.063567	-0.948172	0.354628
C114	C	1.563567	-0.448172	0.854628
O115	O	1.150639	-0.889061	0.267615
O116	O	1.650639	-0.389061	0.767615
O117	O	0.976409	-0.889076	0.441637
O118	O	1.476409	-0.389076	0.941637
C119	C	1.255371	-0.251874	0.354581
C120	C	1.755371	0.248126	0.854581
C121	C	1.337169	-0.251878	0.354590
C122	C	1.837169	0.248122	0.854590
C123	C	1.063463	-0.251829	0.546512
C124	C	1.563463	0.248171	1.046512
C125	C	1.063482	-0.251814	0.628311
C126	C	1.563482	0.248186	1.128311
C127	C	1.063564	-0.115492	0.354611
C128	C	1.563564	0.384508	0.854611
C129	C	1.063626	-0.057378	0.354633
C130	C	1.563626	0.442622	0.854633
C131	C	1.063415	-0.251863	0.163353
C132	C	1.563415	0.248137	0.663353
C133	C	1.063539	-0.251731	0.081555
C134	C	1.563539	0.248269	0.581555
C135	C	1.110604	-0.218344	0.816525
C136	C	1.610604	0.281656	1.316525
C137	C	1.110612	-0.218329	0.893383
C138	C	1.610612	0.281671	1.393383
C139	C	1.016412	-0.285202	0.893336
C140	C	1.516412	0.214798	1.393336
C141	C	1.016400	-0.285214	0.816479
C142	C	1.516400	0.214786	1.316479
C143	C	1.063500	-0.251786	0.778075
C144	C	1.563500	0.248214	1.278075
C145	C	1.063521	-0.251759	0.931791
C146	C	1.563521	0.248241	1.431791
C147	C	1.063530	-0.251742	1.015125
C148	C	1.563530	0.248258	1.515125
C149	C	1.063490	-0.251802	0.694736
C150	C	1.563490	0.248198	1.194736
H151	H	0.633490	-0.312611	0.439797
H152	H	1.133490	0.187389	0.939797
C153	C	0.644514	-0.181558	0.255901
C154	C	1.144514	0.318442	0.755901
H155	H	0.610628	-0.161623	0.227918
H156	H	1.110628	0.338377	0.727918
H157	H	0.674528	-0.158801	0.284109
H158	H	1.174528	0.341199	0.784109
H159	H	0.674465	-0.201532	0.223782
H160	H	1.174465	0.298468	0.723782
H161	H	1.148805	-0.549928	0.269241
H162	H	1.648805	-0.049928	0.769241
C163	C	0.964732	-1.060133	0.453383
C164	C	1.464732	-0.560133	0.953383
H165	H	0.936681	-1.036059	0.481387
H166	H	1.436681	-0.536059	0.981387
H167	H	0.932691	-1.081472	0.425209
H168	H	1.432691	-0.581472	0.925209
H169	H	0.992881	-1.081397	0.485481
H170	H	1.492881	-0.581397	0.985481
H171	H	0.978037	-0.312446	0.785172
H172	H	1.478037	0.187554	1.285172
C173	C	0.964613	-0.321974	0.935582
C174	C	1.464613	0.178026	1.435582
H175	H	0.971371	-0.317182	0.986863
H176	H	1.471371	0.182818	1.486863
H177	H	0.915171	-0.314326	0.922983
H178	H	1.415171	0.185674	1.422983
H179	H	0.975352	-0.357107	0.922971
H180	H	1.475352	0.142893	1.422971
H181	H	0.494063	-0.312613	0.439813
H182	H	0.994063	0.187387	0.939813
C183	C	0.483113	-0.181569	0.255914
C184	C	0.983113	0.318431	0.755914
H185	H	0.431834	-0.186370	0.262639
H186	H	0.931834	0.313630	0.762639
H187	H	0.495741	-0.146448	0.266767
H188	H	0.995741	0.353552	0.766767
H189	H	0.495685	-0.189182	0.206446
H190	H	0.995685	0.310818	0.706446
H191	H	0.978132	-0.953277	0.439942
H192	H	1.478132	-0.453277	0.939942
H193	H	0.930913	-0.702118	0.486920
H194	H	1.430913	-0.202118	0.986920
C195	C	0.917515	-0.808969	0.500375
C196	C	1.417515	-0.308969	1.000375
H197	H	0.889466	-0.784891	0.528376
H198	H	1.389466	-0.284891	1.028376
H199	H	0.885471	-0.830310	0.472208
H200	H	1.385471	-0.330310	0.972208
H201	H	0.945665	-0.830230	0.532476
H202	H	1.445665	-0.330230	1.032476
H203	H	0.977919	-0.549981	0.439871
H204	H	1.477919	-0.049981	0.939871
H205	H	0.977869	-0.450916	0.439845
H206	H	1.477869	0.049084	0.939845
C207	C	1.162195	-0.443074	0.255782
C208	C	1.662195	0.056926	0.755782
H209	H	1.190254	-0.467150	0.227789
H210	H	1.690254	0.032850	0.727789
H211	H	1.134056	-0.421807	0.223685
H212	H	1.634056	0.078193	0.723685
H213	H	1.194239	-0.421738	0.283963
H214	H	1.694239	0.078262	0.783963
C215	C	1.209451	-0.694245	0.208831
C216	C	1.709451	-0.194245	0.708831
H217	H	1.237512	-0.718324	0.180845
H218	H	1.737512	-0.218324	0.680845
H219	H	1.181320	-0.672979	0.176728
H220	H	1.681320	-0.172979	0.676728
H221	H	1.241493	-0.672911	0.237017
H222	H	1.741493	-0.172911	0.737017
H223	H	1.196047	-0.801099	0.222288
H224	H	1.696047	-0.301099	0.722288
H225	H	1.149057	-1.052283	0.269324
H226	H	1.649057	-0.552283	0.769324
C227	C	1.162463	-0.945410	0.255871
C228	C	1.662463	-0.445410	0.755871
H229	H	1.190522	-0.969483	0.227873
H230	H	1.690522	-0.469483	0.727873
H231	H	1.134324	-0.924140	0.223777
H232	H	1.634324	-0.424140	0.723777
H233	H	1.194507	-0.924077	0.284056
H234	H	1.694507	-0.424077	0.784056
H235	H	1.148954	-0.191123	0.785259
H236	H	1.648954	0.308877	1.285259
C237	C	1.162430	-0.181545	0.935675
C238	C	1.662430	0.318455	1.435675
H239	H	1.190481	-0.161643	0.901793
H240	H	1.690481	0.338357	1.401793
H241	H	1.134310	-0.158757	0.965661
H242	H	1.634310	0.341243	1.465661
H243	H	1.194481	-0.201546	0.965654
H244	H	1.694481	0.298454	1.465654
