data_functionalizedCrystal
_audit_creation_method	'MofGen! by Chris Wilmer'
_symmetry_space_group_name_H-M	'P1'
_symmetry_Int_Tables_number	1
_symmetry_cell_setting	triclinic
loop_
_symmetry_equiv_pos_as_xyz
  x,y,z
_cell_length_a	15.944545
_cell_length_b	15.944480
_cell_length_c	15.500235
_cell_angle_alpha	87.170713
_cell_angle_beta	87.160912
_cell_angle_gamma	96.516990
loop_
_atom_site_label
_atom_site_type_symbol
_atom_site_fract_x
_atom_site_fract_y
_atom_site_fract_z
O1	O	0.104136	-1.118450	0.071929
O2	O	0.604136	-0.618450	0.571929
O3	O	0.117554	-0.873892	0.071936
O4	O	0.617554	-0.373892	0.571936
O5	O	-0.011431	-1.002852	0.071922
O6	O	0.488569	-0.502852	0.571922
O7	O	0.233121	-0.989491	0.071943
O8	O	0.733121	-0.489491	0.571943
O9	O	-0.003607	-0.995056	-0.071966
O10	O	0.496393	-0.495056	0.428034
O11	O	0.125379	-0.866097	-0.071952
O12	O	0.625379	-0.366097	0.428048
O13	O	0.111961	-1.110655	-0.071958
O14	O	0.611961	-0.610655	0.428042
Cu15	Cu	0.119384	-0.987664	-0.085093
Cu16	Cu	0.619384	-0.487664	0.414907
Cu17	Cu	0.110131	-0.996883	0.085071
Cu18	Cu	0.610131	-0.496883	0.585071
O19	O	0.240946	-0.981695	-0.071945
O20	O	0.740946	-0.481695	0.428055
C21	C	0.120920	-0.838700	-0.000008
C22	C	0.620920	-0.338700	0.499992
C23	C	0.119281	-0.745451	-0.000005
C24	C	0.619281	-0.245451	0.499995
C25	C	0.195212	-0.509688	0.000003
C26	C	0.695212	-0.009688	0.500003
C27	C	0.158132	-0.455287	-0.070948
C28	C	0.658132	0.044713	0.429052
C29	C	0.116245	-0.574729	-0.000006
C30	C	0.616245	-0.074729	0.499994
C31	C	0.150398	-0.462977	0.070914
C32	C	0.650398	0.037023	0.570914
C33	C	0.113318	-0.409818	-0.000003
C34	C	0.613318	0.090182	0.499997
C35	C	0.079189	-0.521552	-0.071016
C36	C	0.579189	-0.021552	0.428984
C37	C	0.071464	-0.529249	0.070910
C38	C	0.571464	-0.029249	0.570910
C39	C	0.034326	-0.474879	-0.000059
C40	C	0.534326	0.025121	0.499941
C41	C	0.117933	-0.669729	-0.000009
C42	C	0.617933	-0.169729	0.499991
C43	C	0.111623	-0.314820	-0.000007
C44	C	0.611623	0.185180	0.499993
C45	C	-0.038813	-0.998400	-0.000023
C46	C	0.461187	-0.498400	0.499977
C47	C	-0.132059	-0.996740	-0.000025
C48	C	0.367941	-0.496740	0.499975
C49	C	-0.402671	-0.911844	-0.000005
C50	C	0.097329	-0.411844	0.499995
C51	C	-0.355954	-0.956618	0.070938
C52	C	0.144046	-0.456618	0.570938
C53	C	-0.467702	-0.990820	-0.000000
C54	C	0.032298	-0.490820	0.500000
C55	C	-0.348266	-0.948954	-0.070924
C56	C	0.151734	-0.448954	0.429076
C57	C	-0.302789	-0.993724	-0.000014
C58	C	0.197211	-0.493724	0.499986
C59	C	-0.422216	-1.035576	0.071002
C60	C	0.077784	-0.535576	0.571002
C61	C	-0.414529	-1.027897	-0.070924
C62	C	0.085471	-0.527897	0.429076
C63	C	-0.367846	-1.072729	0.000037
C64	C	0.132154	-0.572729	0.500037
C65	C	-0.562704	-0.989145	0.000008
C66	C	-0.062704	-0.489145	0.500008
C67	C	-0.207790	-0.995406	-0.000016
C68	C	0.292210	-0.495406	0.499984
C69	C	0.268327	-0.986147	0.000002
C70	C	0.768327	-0.486147	0.500002
C71	C	0.361573	-0.987808	0.000010
C72	C	0.861573	-0.487808	0.500010
N73	N	0.125892	-0.981186	-0.204777
N74	N	0.625892	-0.481186	0.295223
C75	C	0.108606	-0.145846	-0.000012
C76	C	0.608606	0.354154	0.499988
C77	C	0.110279	-0.239091	-0.000003
C78	C	0.610279	0.260909	0.499997
C79	C	0.158258	-0.948711	-0.749962
C80	C	0.658258	-0.448711	-0.249962
C81	C	0.153352	-0.953628	-0.659389
C82	C	0.653352	-0.453628	-0.159389
C83	C	0.093808	-1.013207	-0.614103
C84	C	0.593808	-0.513207	-0.114103
C85	C	0.039161	-1.067867	-0.659393
C86	C	0.539161	-0.567867	-0.159393
C87	C	0.044063	-1.062945	-0.749963
C88	C	0.544063	-0.562945	-0.249963
C89	C	0.076147	-1.030923	-0.340638
C90	C	0.576147	-0.530923	0.159362
C91	C	0.071250	-1.035843	-0.250061
C92	C	0.571250	-0.535843	0.249939
C93	C	0.185441	-0.921603	-0.250064
C94	C	0.685441	-0.421603	0.249936
C95	C	0.190341	-0.916689	-0.340636
C96	C	0.690341	-0.416689	0.159364
C97	C	0.135691	-0.971346	-0.385919
C98	C	0.635691	-0.471346	0.114081
C99	C	0.088794	-1.018237	-0.521523
C100	C	0.588794	-0.518237	-0.021523
C101	C	0.140702	-0.966311	-0.478496
C102	C	0.640702	-0.466311	0.021504
N103	N	0.103616	-1.003368	0.204755
N104	N	0.603616	-0.503368	0.704755
H105	H	0.194742	-0.423099	-0.130925
H106	H	0.694742	0.076901	0.369075
H107	H	-0.009325	-1.116375	-0.622515
H108	H	0.490675	-0.616375	-0.122515
H109	H	-0.352374	-1.140799	0.000075
H110	H	0.147626	-0.640799	0.500075
H111	H	-0.330272	-0.926514	0.130918
H112	H	0.169728	-0.426514	0.630918
N113	N	-0.011739	-1.118788	-0.796222
N114	N	0.488261	-0.618788	-0.296222
N115	N	0.017671	-1.168176	-0.846779
N116	N	0.517671	-0.668176	-0.346779
H117	H	-0.021743	-1.207616	-0.879450
H118	H	0.478257	-0.707616	-0.379450
N119	N	0.241268	-0.865783	-0.203809
N120	N	0.741268	-0.365783	0.296191
N121	N	0.290689	-0.895173	-0.153290
N122	N	0.790689	-0.395173	0.346710
H123	H	0.330119	-0.855747	-0.120622
H124	H	0.830119	-0.355747	0.379378
H125	H	-0.454296	-1.072158	0.131045
H126	H	0.045704	-0.572158	0.631045
N127	N	0.025566	-0.569693	0.146129
N128	N	0.525566	-0.069693	0.646129
N129	N	-0.050950	-0.561466	0.159479
N130	N	0.449050	-0.061466	0.659479
H131	H	-0.083359	-0.590044	0.212604
H132	H	0.416641	-0.090044	0.712604
H133	H	0.031650	-1.075428	-0.377500
H134	H	0.531650	-0.575428	0.122500
H135	H	-0.418310	-0.843833	0.000066
H136	H	0.081690	-0.343833	0.500066
H137	H	-0.440225	-1.057971	-0.130906
H138	H	0.059775	-0.557971	0.369094
N139	N	-0.307895	-0.903041	-0.146175
N140	N	0.192105	-0.403041	0.353825
N141	N	-0.265351	-0.939713	-0.199304
N142	N	0.234649	-0.439713	0.300696
H143	H	-0.236841	-0.907283	-0.252448
H144	H	0.263159	-0.407283	0.247552
N145	N	0.251152	-0.855813	-0.386887
N146	N	0.751152	-0.355813	0.113113
N147	N	0.227213	-0.800928	-0.437405
N148	N	0.727213	-0.300928	0.062595
H149	H	0.270163	-0.757933	-0.470067
H150	H	0.770163	-0.257933	0.029933
H151	H	-0.033741	-0.459413	-0.000105
H152	H	0.466259	0.040587	0.499895
H153	H	0.206748	-0.900198	-0.786828
H154	H	0.706748	-0.400198	-0.286828
H155	H	0.180502	-0.437287	0.130889
H156	H	0.680502	0.062713	0.630889
H157	H	0.049125	-0.547128	-0.131059
H158	H	0.549125	-0.047128	0.368941
N159	N	0.027869	-1.079044	-0.475334
N160	N	0.527869	-0.579044	0.024666
N161	N	0.029466	-1.156148	-0.485459
N162	N	0.529466	-0.656148	0.014541
H163	H	-0.013608	-1.199067	-0.452863
H164	H	0.486392	-0.699067	0.047137
N165	N	0.209167	-0.897785	-0.613147
N166	N	0.709167	-0.397785	-0.113147
N167	N	0.262328	-0.844594	-0.653592
N168	N	0.762328	-0.344594	-0.153592
H169	H	0.301749	-0.805149	-0.620934
H170	H	0.801749	-0.305149	-0.120934
H171	H	0.022760	-1.084363	-0.213193
H172	H	0.522760	-0.584363	0.286807
H173	H	0.189179	-0.917799	-0.515371
H174	H	0.689179	-0.417799	-0.015371
H175	H	0.263234	-0.525307	-0.000058
H176	H	0.763234	-0.025307	0.499942
