data_functionalizedCrystal
_audit_creation_method	'MofGen! by Chris Wilmer'
_symmetry_space_group_name_H-M	'P1'
_symmetry_Int_Tables_number	1
_symmetry_cell_setting	triclinic
loop_
_symmetry_equiv_pos_as_xyz
  x,y,z
_cell_length_a	15.297979
_cell_length_b	21.395361
_cell_length_c	21.395355
_cell_angle_alpha	89.980951
_cell_angle_beta	99.716914
_cell_angle_gamma	80.309785
loop_
_atom_site_label
_atom_site_type_symbol
_atom_site_fract_x
_atom_site_fract_y
_atom_site_fract_z
Zn1	Zn	1.379413	0.083951	0.520372
Zn2	Zn	1.379273	0.188728	0.415576
Zn3	Zn	1.228512	0.102063	0.397436
Zn4	Zn	1.228468	0.206812	0.502156
O5	O	1.303916	0.145389	0.458885
O6	O	1.505659	0.082702	0.521685
O7	O	1.359234	0.177243	0.325487
O8	O	1.248606	0.011973	0.413776
O9	O	1.505556	0.159681	0.444692
O10	O	1.359472	-0.001333	0.504096
O11	O	1.248471	0.113571	0.312160
O12	O	1.102241	0.131106	0.396113
O13	O	1.248531	0.190502	0.592255
O14	O	1.102209	0.208064	0.473050
O15	O	1.359430	0.100237	0.605638
O16	O	1.359191	0.278814	0.427030
O17	O	1.248396	0.292100	0.490640
C18	C	1.303798	0.308190	0.458843
C19	C	1.303830	0.377828	0.458856
C20	C	1.069486	0.173513	0.430637
C21	C	0.969196	0.185560	0.418567
C22	C	1.303991	0.145367	0.622318
C23	C	1.304023	0.145358	0.691963
C24	C	0.922025	0.231235	0.372747
C25	C	0.827797	0.242556	0.361409
C26	C	0.780731	0.208198	0.395888
C27	C	0.827902	0.162519	0.441706
C28	C	0.922139	0.151201	0.453048
C29	C	0.780846	0.128164	0.476190
C30	C	0.828017	0.082485	0.522008
C31	C	0.922245	0.071169	0.533347
C32	C	0.969310	0.105526	0.498869
C33	C	0.686609	0.139482	0.464848
C34	C	0.686723	0.059448	0.545149
C35	C	0.780951	0.048127	0.556487
C36	C	1.539262	0.117154	0.487244
C37	C	1.639552	0.105123	0.499329
C38	C	1.361572	0.403596	0.425783
C39	C	1.361615	0.469026	0.425805
C40	C	1.303898	0.508688	0.458891
C41	C	1.246152	0.482912	0.491972
C42	C	1.246118	0.417482	0.491954
C43	C	1.222656	0.622154	0.454022
C44	C	1.222689	0.687583	0.454035
C45	C	1.304004	0.710496	0.458949
C46	C	1.385290	0.667971	0.463838
C47	C	1.385256	0.602541	0.463820
C48	C	1.303929	0.579637	0.458914
C49	C	1.361798	0.807210	0.425899
C50	C	1.361841	0.872642	0.425925
C51	C	1.246370	0.886528	0.492088
C52	C	1.246335	0.821097	0.492065
C53	C	1.304047	0.781442	0.458967
C54	C	1.304061	0.981948	0.458955
C55	C	1.304125	0.912299	0.459013
C56	C	1.303894	0.145359	0.296095
C57	C	1.304037	0.145170	0.226471
C58	C	1.361766	0.098355	0.731645
C59	C	1.361764	0.098328	0.797080
C60	C	1.304030	0.145314	0.822832
C61	C	1.246277	0.192321	0.783140
C62	C	1.246273	0.192342	0.717706
C63	C	1.296865	0.202589	0.925634
C64	C	1.296875	0.202568	0.991068
C65	C	1.304036	0.145247	1.024653
C66	C	1.311206	0.087944	0.992799
C67	C	1.311203	0.087966	0.927364
C68	C	1.304027	0.145295	0.893784
C69	C	1.361780	0.098212	1.135288
C70	C	1.361772	0.098185	1.200724
C71	C	1.246290	0.192182	1.186784
C72	C	1.246292	0.192204	1.121349
C73	C	1.304042	0.145219	1.095606
H74	H	0.648211	0.176675	0.427543
H75	H	1.156434	0.603506	0.450022
H76	H	1.451440	0.567919	0.467802
Br77	Br	1.287172	0.280387	0.880064
H78	H	0.819371	0.010935	0.593792
H79	H	1.408789	0.060096	0.710689
Br80	Br	1.440158	0.034398	1.254583
Br81	Br	1.440116	0.753390	0.380979
H82	H	1.199096	0.396502	0.518887
H83	H	1.408783	0.060050	0.829395
H84	H	1.199278	0.230482	1.089039
Br85	Br	0.652849	0.223563	0.380502
H86	H	1.199266	0.230575	0.804111
Br87	Br	1.320929	0.010202	0.884134
Br88	Br	0.622857	0.012820	0.591949
H89	H	1.408868	0.893620	0.398995
Br90	Br	1.439985	0.504007	0.380917
Br91	Br	1.320934	0.010145	1.038371
Br92	Br	1.167963	0.786123	0.536951
H93	H	1.199380	0.918819	0.519031
H94	H	1.291041	0.249227	1.017000
H95	H	0.789397	0.279748	0.324104
Br96	Br	1.167901	0.256136	0.663847
Br97	Br	1.439908	0.349780	0.380875
H98	H	1.408798	0.059951	1.114327
H99	H	1.156501	0.722202	0.450049
H100	H	1.199160	0.515209	0.518912
H101	H	0.960354	0.259207	0.344682
H102	H	1.199272	0.230433	1.207749
H103	H	1.046039	0.096310	0.508095
Br104	Br	1.495654	0.699058	0.470498
Br105	Br	0.986261	0.009187	0.595541
