data_functionalizedCrystal
_audit_creation_method	'MofGen! by Chris Wilmer'
_symmetry_space_group_name_H-M	'P1'
_symmetry_Int_Tables_number	1
_symmetry_cell_setting	triclinic
loop_
_symmetry_equiv_pos_as_xyz
  x,y,z
_cell_length_a	14.044220
_cell_length_b	11.026607
_cell_length_c	9.483335
_cell_angle_alpha	101.374700
_cell_angle_beta	100.175621
_cell_angle_gamma	79.112553
loop_
_atom_site_label
_atom_site_type_symbol
_atom_site_fract_x
_atom_site_fract_y
_atom_site_fract_z
O1	O	0.416189	-1.636260	0.120913
O2	O	0.916189	-1.136260	0.620913
O3	O	0.370141	-1.277969	0.120912
O4	O	0.870141	-0.777969	0.620912
O5	O	0.254262	-1.451738	0.120898
O6	O	0.754262	-0.951738	0.620898
O7	O	0.532069	-1.462490	0.120927
O8	O	1.032069	-0.962490	0.620927
O9	O	0.230670	-1.487072	-0.120880
O10	O	0.730670	-0.987072	0.379120
O11	O	0.346549	-1.313302	-0.120866
O12	O	0.846549	-0.813302	0.379134
O13	O	0.392597	-1.671593	-0.120866
O14	O	0.892597	-1.171593	0.379134
Cu15	Cu	0.367419	-1.495674	-0.142942
Cu16	Cu	0.867419	-0.995674	0.357058
Cu17	Cu	0.395319	-1.453888	0.142988
Cu18	Cu	0.895319	-0.953888	0.642988
O19	O	0.508477	-1.497823	-0.120852
O20	O	1.008477	-0.997823	0.379148
C21	C	0.349850	-1.249505	0.000022
C22	C	0.849850	-0.749505	0.500022
C23	C	0.324526	-1.112050	0.000022
C24	C	0.824526	-0.612050	0.500022
C25	C	0.206348	-1.464697	0.000008
C26	C	0.706348	-0.964697	0.500008
C27	C	0.098725	-1.450653	0.000006
C28	C	0.598725	-0.950653	0.500006
N29	N	0.347797	-1.525072	-0.344051
N30	N	0.847797	-1.025072	0.155949
C31	C	-0.098315	-1.424975	0.000027
C32	C	0.401685	-0.924975	0.500027
C33	C	-0.138952	-1.524579	0.000032
C34	C	0.361048	-1.024579	0.500032
C35	C	-0.248592	-1.510291	0.000043
C36	C	0.251408	-1.010291	0.500043
C37	C	0.011335	-1.439261	0.000015
C38	C	0.511335	-0.939261	0.500015
C39	C	0.556391	-1.484864	0.000041
C40	C	1.056391	-0.984864	0.500041
C41	C	0.664014	-1.498906	0.000053
C42	C	1.164014	-0.998906	0.500053
C43	C	0.412889	-1.700056	0.000027
C44	C	0.912889	-1.200056	0.500027
C45	C	0.438214	-1.837510	0.000037
C46	C	0.938214	-1.337510	0.500037
C47	C	0.394451	-1.045812	0.000030
C48	C	0.894451	-0.545812	0.500030
C49	C	0.368279	-0.903745	0.000029
C50	C	0.868279	-0.403745	0.500029
C51	C	0.373204	-1.487026	-0.583679
C52	C	0.873204	-0.987026	-0.083679
C53	C	0.389535	-1.462535	-0.416271
C54	C	0.889535	-0.962535	0.083729
N55	N	0.414936	-1.424498	0.344097
N56	N	0.914936	-0.924498	0.844097
H57	H	-0.145864	-1.328979	0.000030
H58	H	0.354136	-0.828979	0.500030
H59	H	0.462759	-1.352839	-0.593802
H60	H	0.962759	-0.852839	-0.093802
H61	H	0.437361	-1.390872	-0.354176
H62	H	0.937361	-0.890872	0.145824
H63	H	-0.091390	-1.620568	0.000129
H64	H	0.408610	-1.120568	0.500129
N65	N	0.493864	-1.106596	0.000065
N66	N	0.993864	-0.606596	0.500065
N67	N	0.558406	-1.073885	0.101990
N68	N	1.058406	-0.573885	0.601990
H69	H	0.628620	-1.116811	0.102017
H70	H	1.128620	-0.616811	0.602017
H71	H	0.289036	-0.855277	0.000058
H72	H	0.789036	-0.355277	0.500058
N73	N	0.537628	-0.898294	0.000013
N74	N	1.037628	-0.398294	0.500013
N75	N	0.559964	-0.984121	-0.101908
N76	N	1.059964	-0.484121	0.398092
H77	H	0.630174	-1.027049	-0.101930
H78	H	1.130174	-0.527049	0.398070
N79	N	0.225118	-1.051244	-0.000007
N80	N	0.725118	-0.551244	0.499993
N81	N	0.203997	-0.935925	-0.000017
N82	N	0.703997	-0.435925	0.499983
H83	H	0.133788	-0.892981	-0.000040
H84	H	0.633788	-0.392981	0.499960
H85	H	0.325389	-1.558695	-0.645778
H86	H	0.825389	-1.058695	-0.145778
H87	H	0.299979	-1.596746	-0.406146
H88	H	0.799979	-1.096746	0.093854
