data_functionalizedCrystal
_audit_creation_method	'MofGen! by Chris Wilmer'
_symmetry_space_group_name_H-M	'P1'
_symmetry_Int_Tables_number	1
_symmetry_cell_setting	triclinic
loop_
_symmetry_equiv_pos_as_xyz
  x,y,z
_cell_length_a	12.759401
_cell_length_b	12.759399
_cell_length_c	12.759393
_cell_angle_alpha	89.973195
_cell_angle_beta	90.020938
_cell_angle_gamma	89.984225
loop_
_atom_site_label
_atom_site_type_symbol
_atom_site_fract_x
_atom_site_fract_y
_atom_site_fract_z
Zn1	Zn	1.606270	0.418173	0.594047
Zn2	Zn	2.106270	0.918173	1.094047
Zn3	Zn	1.606162	0.593888	0.418379
Zn4	Zn	2.106162	1.093888	0.918379
Zn5	Zn	1.430568	0.418229	0.418382
Zn6	Zn	1.930568	0.918229	0.918382
Zn7	Zn	1.430562	0.593815	0.594016
Zn8	Zn	1.930562	1.093815	1.094016
O9	O	1.518390	0.506026	0.506206
O10	O	2.018390	1.006026	1.006206
O11	O	1.753276	0.441489	0.570756
O12	O	2.253276	0.941489	1.070756
O13	O	1.582827	0.570641	0.271358
O14	O	2.082827	1.070641	0.771358
O15	O	1.453923	0.271200	0.441699
O16	O	1.953923	0.771200	0.941699
O17	O	1.753197	0.570587	0.441693
O18	O	2.253197	1.070587	0.941693
O19	O	1.583010	0.271159	0.570759
O20	O	2.083010	0.771159	1.070759
O21	O	1.453819	0.441584	0.271361
O22	O	1.953819	0.941584	0.771361
O23	O	1.283546	0.441513	0.441669
O24	O	1.783546	0.941513	0.941669
O25	O	1.453912	0.570461	0.741041
O26	O	1.953912	1.070461	1.241041
O27	O	1.283542	0.570516	0.570706
O28	O	1.783542	1.070516	1.070706
O29	O	1.583004	0.441418	0.741064
O30	O	2.083004	0.941418	1.241064
O31	O	1.582821	0.740900	0.441662
O32	O	2.082821	1.240900	0.941662
O33	O	1.453808	0.740846	0.570702
O34	O	1.953808	1.240846	1.070702
C35	C	1.245423	0.506013	0.506185
C36	C	1.745423	1.006013	1.006185
C37	C	1.128646	0.506033	0.506201
C38	C	1.628646	1.006033	1.006201
C39	C	1.073809	0.573307	0.573285
C40	C	1.573809	1.073307	1.073285
C41	C	0.964085	0.573311	0.573306
C42	C	1.464085	1.073311	1.073306
C43	C	0.964045	0.438764	0.439150
C44	C	1.464045	0.938764	0.939150
C45	C	1.073767	0.438756	0.439135
C46	C	1.573767	0.938756	0.939135
C47	C	1.518330	0.778994	0.506202
C48	C	2.018330	1.278994	1.006202
C49	C	1.518401	0.895770	0.506235
C50	C	2.018401	1.395770	1.006235
C51	C	1.585655	0.950625	0.439124
C52	C	2.085655	1.450625	0.939124
C53	C	1.585724	1.060349	0.439167
C54	C	2.085724	1.560349	0.939167
C55	C	1.451275	1.060353	0.573435
C56	C	1.951275	1.560353	1.073435
C57	C	1.451212	0.950631	0.573396
C58	C	1.951212	1.450631	1.073396
C59	C	1.792424	0.506040	0.506227
C60	C	2.292424	1.006040	1.006227
C61	C	1.909200	0.506046	0.506237
C62	C	2.409200	1.006046	1.006237
C63	C	1.518483	1.231993	0.506251
C64	C	2.018483	1.731993	1.006251
C65	C	1.518533	1.115216	0.506317
C66	C	2.018533	1.615216	1.006317
C67	C	1.518469	0.505925	0.780239
C68	C	2.018469	1.005925	1.280239
C69	C	1.518503	0.505882	0.897016
C70	C	2.018503	1.005882	1.397016
C71	C	1.518373	0.506051	0.233239
C72	C	2.018373	1.006051	0.733239
C73	C	1.518543	0.505798	0.116462
C74	C	2.018543	1.005798	0.616462
C75	C	1.585726	0.438679	0.951892
C76	C	2.085726	0.938679	1.451892
C77	C	1.585743	0.438633	1.061616
C78	C	2.085743	0.938633	1.561616
C79	C	1.451312	0.573004	1.061579
C80	C	1.951312	1.073004	1.561579
C81	C	1.451290	0.573044	0.951857
C82	C	1.951290	1.073044	1.451857
H83	H	0.919349	0.383991	0.384545
H84	H	1.419349	0.883991	0.884545
F85	F	1.132132	0.367144	0.367737
F86	F	1.632132	0.867144	0.867737
F87	F	1.657164	0.892241	0.367647
F88	F	2.157164	1.392241	0.867647
H89	H	1.640491	1.105007	0.384520
H90	H	2.140491	1.605007	0.884520
H91	H	1.640452	0.383989	0.907244
H92	H	2.140452	0.883989	1.407244
H93	H	1.396445	0.905965	0.628051
H94	H	1.896445	1.405965	1.128051
F95	F	1.379787	0.644482	1.119954
F96	F	1.879787	1.144482	1.619954
H97	H	1.396541	0.627768	0.907176
H98	H	1.896541	1.127768	1.407176
F99	F	1.379771	1.118750	0.644906
F100	F	1.879771	1.618750	1.144906
H101	H	1.640482	0.383908	1.106291
H102	H	2.140482	0.883908	1.606291
H103	H	1.118489	0.628086	0.627897
H104	H	1.618489	1.128086	1.127897
H105	H	0.919442	0.628090	0.627934
H106	H	1.419442	1.128090	1.127934
