data_functionalizedCrystal
_audit_creation_method	'MofGen! by Chris Wilmer'
_symmetry_space_group_name_H-M	'P1'
_symmetry_Int_Tables_number	1
_symmetry_cell_setting	triclinic
loop_
_symmetry_equiv_pos_as_xyz
  x,y,z
_cell_length_a	13.635800
_cell_length_b	10.943624
_cell_length_c	21.457703
_cell_angle_alpha	89.159536
_cell_angle_beta	116.828087
_cell_angle_gamma	108.838799
loop_
_atom_site_label
_atom_site_type_symbol
_atom_site_fract_x
_atom_site_fract_y
_atom_site_fract_z
V1	V	-2.080321	-0.403302	-0.096669
O2	O	-2.035513	-0.394852	0.004664
O3	O	-2.091486	-0.401288	-0.191697
O4	O	-2.068953	-0.578857	-0.095174
O5	O	-2.058202	-0.216053	-0.092527
V6	V	-2.315890	-0.380816	-0.084549
O7	O	-2.224534	-0.452629	-0.123254
O8	O	-2.396775	-0.331489	-0.057964
O9	O	-2.193121	-0.382830	0.010478
O10	O	-2.419396	-0.389266	-0.185883
O11	O	-2.396707	-0.568065	-0.088692
O12	O	-2.215654	-0.205261	-0.086045
V13	V	-1.580321	-0.403302	-0.096669
O14	O	-1.535513	-0.394852	0.004664
O15	O	-1.591486	-0.401288	-0.191697
O16	O	-1.568953	-0.578857	-0.095174
O17	O	-1.558202	-0.216053	-0.092527
V18	V	-1.815890	-0.380816	-0.084549
O19	O	-1.724534	-0.452629	-0.123254
O20	O	-1.896775	-0.331489	-0.057964
O21	O	-1.693121	-0.382830	0.010478
O22	O	-1.919396	-0.389266	-0.185883
O23	O	-1.896707	-0.568065	-0.088692
O24	O	-1.715654	-0.205261	-0.086045
C25	C	-2.022174	-0.395117	-0.214863
C26	C	-2.072032	-0.394640	-0.292549
C27	C	-1.993430	-0.621623	-0.091737
C28	C	-2.025012	-0.765145	-0.091143
C29	C	-1.946493	-0.842262	-0.087145
C30	C	-2.055030	-0.948713	-0.146492
C31	C	-1.972762	-0.914426	-0.030745
C32	C	-2.133167	-0.869720	-0.150546
C33	C	-2.050846	-0.835410	-0.034746
C34	C	-2.159456	-0.941832	-0.094111
C35	C	-2.094105	-0.388997	0.033640
C36	C	-2.033867	-0.389482	0.111326
C37	C	-2.122848	-0.162488	-0.089483
C38	C	-2.080885	-0.018965	-0.090074
C39	C	-1.522174	-0.395117	-0.214863
C40	C	-1.572032	-0.394640	-0.292549
C41	C	-2.188340	-0.400895	-0.332594
C42	C	-2.235206	-0.400467	-0.405591
C43	C	-2.165760	-0.393774	-0.438540
C44	C	-2.049444	-0.387523	-0.398489
C45	C	-2.002582	-0.387961	-0.325495
C46	C	-2.090076	-0.383339	0.151368
C47	C	-2.033536	-0.383961	0.224348
C48	C	-1.920794	-0.390753	0.257280
C49	C	-1.864578	-0.396890	0.217229
C50	C	-1.921114	-0.396255	0.144252
C51	C	-1.793935	-0.472756	0.363705
C52	C	-1.737406	-0.473400	0.436680
C53	C	-1.746412	-0.392707	0.482367
C54	C	-1.811975	-0.311388	0.455068
C55	C	-1.868511	-0.310752	0.382091
C56	C	-1.859480	-0.391442	0.336411
C57	C	-1.741319	-0.387236	0.601542
C58	C	-1.684772	-0.387850	0.674524
C59	C	-1.515817	-0.400793	0.667402
C60	C	-1.572361	-0.400165	0.594423
C61	C	-1.685113	-0.393393	0.561497
C62	C	-1.493430	-0.621623	-0.091737
C63	C	-1.525012	-0.765145	-0.091143
C64	C	-1.594105	-0.388997	0.033640
C65	C	-1.533867	-0.389482	0.111326
C66	C	-1.622848	-0.162488	-0.089483
C67	C	-1.580885	-0.018965	-0.090074
C68	C	-1.590054	-0.383232	0.151371
C69	C	-1.533460	-0.383666	0.224367
C70	C	-1.420683	-0.390361	0.257316
C71	C	-1.364492	-0.396609	0.217266
C72	C	-1.421082	-0.396165	0.144272
C73	C	-1.446493	-0.842262	-0.087145
C74	C	-1.555030	-0.948713	-0.146492
C75	C	-1.472762	-0.914426	-0.030745
C76	C	-1.633167	-0.869720	-0.150546
C77	C	-1.550846	-0.835410	-0.034746
C78	C	-1.659456	-0.941832	-0.094111
H79	H	-1.856224	-0.798791	-0.084279
H80	H	-1.272662	-0.402058	0.244104
O81	O	-1.974547	-0.380308	-0.434031
H82	H	-2.026681	-0.381044	-0.491514
O83	O	-1.360485	-0.402935	0.101080
H84	H	-1.272566	-0.407683	0.136259
O85	O	-1.326919	-0.784658	-0.083344
H86	H	-1.328676	-0.830477	-0.129822
H87	H	-1.700695	-0.849570	-0.201233
H88	H	-1.374616	-0.390721	0.316753
H89	H	-2.048703	-0.786059	0.012498
O90	O	-2.279129	-0.999148	-0.098027
H91	H	-2.271048	-1.044676	-0.050200
H92	H	-2.057131	-0.998029	-0.193734
O93	O	-2.211681	-0.376026	0.115855
H94	H	-2.209573	-0.286966	0.090296
H95	H	-1.907872	-0.382861	-0.292895
H96	H	-1.730549	-0.382840	0.707127
H97	H	-1.579232	-0.378581	0.256965
O98	O	-1.939202	-0.223029	0.352646
H99	H	-2.011270	-0.248945	0.367010
H100	H	-1.557131	-0.998029	-0.193734
H101	H	-1.749804	-0.985099	-0.097070
H102	H	-1.548703	-0.786059	0.012498
H103	H	-2.079307	-0.378950	0.256958
H104	H	-1.405267	-0.934795	0.019874
H105	H	-1.905267	-0.934795	0.019874
H106	H	-2.203933	-0.393419	-0.497977
H107	H	-2.200695	-0.849570	-0.201233
O108	O	-1.394223	-0.408126	0.702909
H109	H	-1.364354	-0.407544	0.760382
O110	O	-2.263260	-0.408141	-0.297066
H111	H	-2.352013	-0.412440	-0.337187
H112	H	-1.819312	-0.245680	0.492265
O113	O	-2.360653	-0.407185	-0.448778
H114	H	-2.401053	-0.411882	-0.413596
H115	H	-1.833126	-0.381714	0.574733
H116	H	-1.526587	-0.405170	0.561820
H117	H	-1.684033	-0.539621	0.458900
O118	O	-1.784225	-0.559800	0.314429
H119	H	-1.729158	-0.616469	0.345669
O120	O	-1.742985	-0.404232	0.252741
H121	H	-1.713120	-0.403660	0.310213
H122	H	-1.681883	-0.377781	0.124553
O123	O	-1.860498	-0.402901	0.101054
H124	H	-1.772605	-0.407737	0.136210
