data_functionalizedCrystal
_audit_creation_method	'MofGen! by Chris Wilmer'
_symmetry_space_group_name_H-M	'P1'
_symmetry_Int_Tables_number	1
_symmetry_cell_setting	triclinic
loop_
_symmetry_equiv_pos_as_xyz
  x,y,z
_cell_length_a	19.851628
_cell_length_b	19.377369
_cell_length_c	19.377574
_cell_angle_alpha	82.425876
_cell_angle_beta	104.494231
_cell_angle_gamma	48.634029
loop_
_atom_site_label
_atom_site_type_symbol
_atom_site_fract_x
_atom_site_fract_y
_atom_site_fract_z
Zr1	Zr	0.526671	0.779799	0.049395
O2	O	0.372335	0.928458	-0.037202
O3	O	0.587132	0.631153	0.057059
O4	O	0.531846	0.779799	-0.064417
O5	O	0.456275	0.779807	0.201576
O6	O	0.642713	0.779786	-0.064405
O7	O	0.427622	0.779811	0.084274
O8	O	0.741610	0.513884	0.152894
O9	O	0.357378	1.045708	-0.015722
O10	O	0.679770	0.692279	0.083150
O11	O	0.618415	0.692286	0.170682
O12	O	0.553323	0.867297	0.027660
O13	O	0.491968	0.867304	0.115192
Zr14	Zr	0.749190	0.779770	0.236497
Zr15	Zr	0.703491	0.779777	0.049414
Zr16	Zr	0.572370	0.779792	0.236478
Zr17	Zr	0.502815	0.966800	0.083653
Zr18	Zr	0.773045	0.592769	0.202240
O19	O	0.688729	0.928416	0.228833
O20	O	0.623751	0.928426	-0.037175
O21	O	0.437313	0.928448	0.228806
O22	O	0.903525	0.631112	0.323094
O23	O	0.838547	0.631122	0.057086
O24	O	0.652110	0.631143	0.323067
O25	O	0.819585	0.779763	0.084316
O26	O	0.744015	0.779770	0.350309
O27	O	0.633148	0.779784	0.350297
O28	O	0.848239	0.779758	0.201618
O29	O	0.497926	1.045691	-0.015707
O30	O	0.777934	0.513879	0.301600
O31	O	0.918483	0.513861	0.301615
O32	O	0.882158	0.513867	0.152908
O33	O	0.393702	1.045703	0.132984
O34	O	0.534251	1.045685	0.132999
O35	O	0.722538	0.692272	0.258232
O36	O	0.783893	0.692265	0.170700
O37	O	0.657445	0.867284	0.115210
O38	O	0.596090	0.867291	0.202742
C39	C	0.667770	0.545875	0.100096
C40	C	0.677897	0.466488	0.085552
C41	C	0.551482	0.205104	0.266424
C42	C	0.561126	0.130417	0.252821
C43	C	0.625176	0.130420	0.161444
C44	C	0.615542	0.205104	0.175042
C45	C	0.578693	0.242442	0.227533
C46	C	0.642753	0.242442	0.136151
C47	C	0.633114	0.317124	0.149745
C48	C	0.596265	0.354469	0.202231
C49	C	0.569054	0.317124	0.241127
C50	C	0.679595	0.205108	0.083657
C51	C	0.706806	0.242446	0.044765
C52	C	0.697174	0.317124	0.058363
C53	C	0.660325	0.354469	0.110849
C54	C	0.724384	0.354469	0.019468
C55	C	0.714746	0.429151	0.033062
C56	C	0.650686	0.429151	0.124444
C57	C	0.416755	0.779812	0.142923
C58	C	0.341690	0.779822	0.142915
C59	C	0.091411	0.875227	0.112684
C60	C	0.066685	0.827528	0.069357
C61	C	0.204293	0.779795	0.142935
C62	C	0.095273	0.827501	0.186248
C63	C	0.071569	0.779777	0.142956
C64	C	0.180545	0.732096	0.099559
C65	C	0.209140	0.732083	0.216499
C66	C	0.184481	0.684314	0.173179
C67	C	0.280750	0.779809	0.142922
C68	C	-0.004882	0.779757	0.142966
C69	C	0.859105	0.779757	0.142970
C70	C	0.934170	0.779748	0.142978
C71	C	0.580768	0.779793	-0.091066
C72	C	0.561368	0.779796	-0.170488
C73	C	0.608091	1.013694	0.185797
C74	C	0.597964	1.093081	0.200340
C75	C	0.802928	0.779761	-0.431684
C76	C	0.784677	0.779766	-0.506313
C77	C	0.662529	0.779781	-0.506307
C78	C	0.680767	0.779782	-0.431678
C79	C	0.750969	0.779771	-0.394372
C80	C	0.628807	0.779791	-0.394366
C81	C	0.647048	0.779786	-0.319742
C82	C	0.717248	0.779772	-0.282429
C83	C	0.769209	0.779766	-0.319747
C84	C	0.558611	0.779794	-0.431672
C85	C	0.506651	0.779804	-0.394360
C86	C	0.524886	0.779806	-0.319737
C87	C	0.595087	0.779792	-0.282424
C88	C	0.472925	0.779812	-0.282419
C89	C	0.491166	0.779807	-0.207794
C90	C	0.613327	0.779787	-0.207800
C91	C	0.695093	0.779776	0.376959
C92	C	0.714493	0.779773	0.456380
C93	C	0.888945	0.545848	0.100119
C94	C	0.974137	0.466451	0.085584
C95	C	0.724932	0.545866	0.334108
C96	C	0.754460	0.466477	0.398987
C97	C	0.946107	0.545839	0.334131
C98	C	1.050699	0.466440	0.399018
C99	C	0.329753	1.013731	-0.048239
C100	C	0.225161	1.093130	-0.113125
C101	C	0.386916	1.013722	0.185773
C102	C	0.301724	1.093118	0.200309
C103	C	0.550928	1.013703	-0.048216
C104	C	0.521401	1.093093	-0.113094
C105	C	0.959791	0.429173	0.033050
C106	C	1.039826	0.354583	0.019377
C107	C	1.134207	0.317266	0.058243
C108	C	1.148551	0.354552	0.110779
C109	C	1.068515	0.429146	0.124447
C110	C	0.822679	0.429187	0.475162
C111	C	0.850421	0.354603	0.536132
C112	C	0.809947	0.317304	0.520923
C113	C	0.741720	0.354600	0.444740
C114	C	0.713974	0.429189	0.383773
C115	C	1.131851	0.429149	0.383798
C116	C	1.230131	0.354556	0.444761
C117	C	1.247257	0.317249	0.520941
C118	C	1.166095	0.354547	0.536161
C119	C	1.067817	0.429144	0.475200
C120	C	0.144008	1.130429	-0.097904
C121	C	0.045726	1.205046	-0.158862
C122	C	0.028599	1.242357	-0.235042
C123	C	0.109761	1.205054	-0.250262
C124	C	0.208041	1.130444	-0.189304
C125	C	0.316067	1.130404	0.252836
C126	C	0.236024	1.205015	0.266492
C127	C	0.141642	1.242334	0.227624
C128	C	0.127300	1.205045	0.175091
C129	C	0.207339	1.130440	0.161431
C130	C	0.561892	1.130368	-0.097862
C131	C	0.534167	1.204954	-0.158817
C132	C	0.465945	1.242267	-0.235002
C133	C	0.425453	1.204984	-0.250235
C134	C	0.453184	1.130395	-0.189281
H135	H	0.521476	0.235506	0.309168
H136	H	0.543767	0.779793	-0.492434
H137	H	1.001747	0.459496	0.487602
H138	H	0.826996	0.779757	-0.536688
C139	C	1.385594	0.209751	0.449145
C140	C	1.319340	0.313566	0.428032
H141	H	1.440670	0.184450	0.438823
H142	H	1.351210	0.197523	0.419695
H143	H	1.409848	0.176872	0.503241
H144	H	1.295080	0.346446	0.373935
H145	H	1.353730	0.325802	0.457481
C146	C	0.552892	1.288833	-0.088508
C147	C	0.578670	1.245938	-0.142062
H148	H	0.580361	1.314140	-0.078169
H149	H	0.579167	1.239073	-0.041314
H150	H	0.481663	1.342392	-0.109732
H151	H	0.649899	1.192374	-0.120836
H152	H	0.552399	1.295703	-0.189265
H153	H	0.052792	0.955919	0.087043
H154	H	0.157935	1.100055	-0.035880
C155	C	0.091823	1.137960	0.072479
C156	C	0.191568	1.089448	0.103699
H157	H	0.082085	1.112650	0.036840
H158	H	0.047503	1.208376	0.045933
H159	H	0.078242	1.125740	0.113492
H160	H	0.205147	1.101674	0.062686
H161	H	0.235901	1.019016	0.130246
H162	H	0.736805	0.212040	0.002025
H163	H	0.617442	1.099999	-0.035831
H164	H	-0.020347	1.235405	-0.146455
H165	H	0.076477	1.303082	0.238754
H166	H	0.369904	1.235376	-0.312273
C167	C	0.497092	0.137728	0.344676
C168	C	0.531390	0.089240	0.295686
H169	H	0.478790	0.112264	0.371171
H170	H	0.440142	0.208123	0.314311
H171	H	0.549091	0.125665	0.381778
H172	H	0.479388	0.101310	0.258579
H173	H	0.588346	0.018829	0.326053
C174	C	0.485414	1.349097	-0.272528
C175	C	0.435463	1.324262	-0.301998
H176	H	0.466591	1.399723	-0.313886
H177	H	0.556099	1.290889	-0.249431
H178	H	0.467412	1.373539	-0.234290
H179	H	0.453471	1.299814	-0.340232
H180	H	0.364762	1.382482	-0.325107
H181	H	0.420203	1.100054	-0.201694
H182	H	-0.051431	1.303109	-0.284672
H183	H	0.095804	1.235442	-0.312295
C184	C	0.231756	1.227960	0.384674
C185	C	0.251810	1.245980	0.324249
H186	H	0.241499	1.253251	0.420328
H187	H	0.276077	1.157541	0.411203
H188	H	0.164084	1.260881	0.363469
H189	H	0.319485	1.213052	0.345454
H190	H	0.207488	1.316412	0.297717
C191	C	-0.043658	1.319413	0.155473
C192	C	0.023552	1.246065	0.132377
H193	H	-0.107704	1.344729	0.129109
H194	H	-0.049809	1.372951	0.142708
H195	H	-0.019046	1.290295	0.210265
H196	H	-0.001055	1.275185	0.077586
H197	H	0.029701	1.192518	0.145136
H198	H	0.620680	0.459553	0.167187
H199	H	0.708772	0.324220	0.432367
H200	H	0.058464	0.867851	0.222870
H201	H	1.080211	0.459489	0.167229
H202	H	0.588413	0.415283	0.213296
C203	C	0.580320	0.779803	-0.620702
C204	C	0.585361	0.779800	-0.547321
H205	H	0.532672	0.779824	-0.646022
H206	H	0.644644	0.721355	-0.614399
H207	H	0.560208	0.838246	-0.651455
H208	H	0.605480	0.721353	-0.516565
H209	H	0.521023	0.838255	-0.553621
C210	C	0.385220	0.594565	0.306114
C211	C	0.291421	0.677677	0.300460
H212	H	0.436012	0.560981	0.357952
H213	H	0.399118	0.616822	0.270882
H214	H	0.384145	0.549518	0.293353
H215	H	0.292493	0.722727	0.313214
H216	H	0.277519	0.655421	0.335703
C217	C	0.506698	0.309631	0.330096
C218	C	0.528547	0.358174	0.298825
H219	H	0.481685	0.334981	0.365709
H220	H	0.566224	0.239227	0.356681
H221	H	0.457353	0.321779	0.289103
H222	H	0.577898	0.346020	0.339817
H223	H	0.469013	0.428594	0.272240
C224	C	0.261444	1.137943	-0.285787
C225	C	0.297243	1.089437	-0.206046
H226	H	0.316513	1.112624	-0.296125
H227	H	0.216522	1.208358	-0.300084
H228	H	0.227031	1.125729	-0.315228
H229	H	0.331649	1.101658	-0.176605
H230	H	0.342182	1.019006	-0.191740
C231	C	0.932883	0.421709	0.571640
C232	C	0.867160	0.470192	0.491897
H233	H	0.960335	0.447032	0.581976
H234	H	0.985797	0.351291	0.585954
H235	H	0.897082	0.433941	0.601071
H236	H	0.902963	0.457954	0.462466
H237	H	0.814239	0.540627	0.477575
C238	C	0.456023	1.046514	0.376324
C239	C	0.419807	1.089394	0.295566
H240	H	0.520063	1.021207	0.402702
H241	H	0.462182	0.992969	0.389078
H242	H	0.410391	1.096293	0.391961
H243	H	0.465436	1.039612	0.279927
H244	H	0.413654	1.142944	0.282806
C245	C	0.786731	0.361972	-0.069499
C246	C	0.764882	0.313427	-0.038232
H247	H	0.811727	0.336638	-0.105123
H248	H	0.836079	0.349815	-0.028512
H249	H	0.727198	0.432386	-0.096077
H250	H	0.824417	0.243013	-0.011648
H251	H	0.715531	0.325576	-0.079225
C252	C	0.784050	0.574000	-0.054397
C253	C	0.856050	0.470186	-0.009681
H254	H	0.720006	0.599317	-0.080777
H255	H	0.802170	0.586217	-0.091588
H256	H	0.781135	0.606872	-0.021145
H257	H	0.858970	0.437312	-0.042934
H258	H	0.837926	0.457960	0.027514
C259	C	1.009647	0.543503	0.249758
C260	C	1.113042	0.470151	0.300064
H261	H	0.998043	0.568809	0.198066
H262	H	0.975113	0.597047	0.266110
H263	H	0.985667	0.514392	0.250972
H264	H	1.137021	0.499264	0.298854
H265	H	1.147589	0.416598	0.283707
H266	H	1.180055	0.324160	0.598195
H267	H	0.655175	0.100014	0.118704
H268	H	0.905978	0.324244	0.598158
H269	H	0.687434	0.144302	0.072586
C270	C	0.813932	0.271375	0.644295
C271	C	0.840460	0.235308	0.587944
H272	H	0.832780	0.220750	0.685675
H273	H	0.743241	0.329563	0.621193
H274	H	0.847800	0.288257	0.664243
H275	H	0.806586	0.218434	0.567992
H276	H	0.911164	0.177103	0.611049
C277	C	0.728405	0.543640	0.013327
C278	C	0.744654	0.470200	-0.009687
H279	H	0.746860	0.568988	-0.013072
H280	H	0.768103	0.514597	0.068108
H281	H	0.659224	0.597151	0.000540
H282	H	0.813837	0.416685	0.003105
H283	H	0.704957	0.499242	-0.064480
C284	C	-0.085021	0.880570	-0.013783
C285	C	-0.015596	0.881964	-0.014617
H286	H	-0.135813	0.914174	-0.065626
H287	H	-0.114939	0.913818	0.017175
H288	H	-0.051395	0.812769	0.007657
H289	H	-0.049222	0.949766	-0.036052
H290	H	0.014324	0.848718	-0.045587
C291	C	0.300330	0.678234	0.050430
C292	C	0.230046	0.677694	0.050019
H293	H	0.330883	0.644656	0.019841
H294	H	0.350535	0.644570	0.102555
H295	H	0.267230	0.745848	0.029159
H296	H	0.263147	0.610080	0.071295
H297	H	0.179833	0.711356	-0.002117
H298	H	0.658428	0.459540	0.321748
H299	H	0.223250	0.603556	0.198751
H300	H	1.199369	0.256526	0.047107
H301	H	0.670485	0.779789	-0.177427
H302	H	0.732102	0.779763	-0.221664
C303	C	0.424442	0.779826	-0.508754
C304	C	0.429483	0.779822	-0.435374
H305	H	0.376794	0.779846	-0.534074
H306	H	0.488766	0.721377	-0.502451
H307	H	0.404330	0.838269	-0.539508
H308	H	0.449602	0.721375	-0.404618
H309	H	0.365145	0.838277	-0.441674
C310	C	1.324283	0.209701	0.198212
C311	C	1.252305	0.313514	0.153505
H312	H	1.388337	0.184363	0.224595
H313	H	1.327176	0.176843	0.164962
H314	H	1.306155	0.197495	0.235410
H315	H	1.270429	0.325720	0.116303
H316	H	1.249414	0.346383	0.186758
C317	C	0.888130	0.779756	-0.327242
C318	C	0.846374	0.779758	-0.278734
H319	H	0.935770	0.779744	-0.301918
H320	H	0.836254	0.838200	-0.374874
H321	H	0.920701	0.721309	-0.337820
H322	H	0.813796	0.838208	-0.268160
H323	H	0.898259	0.721307	-0.231088
H324	H	0.860086	0.779763	-0.401311
C325	C	0.425451	0.693655	-0.278072
C326	C	0.395773	0.779810	-0.323430
H327	H	0.377823	0.693651	-0.303394
H328	H	0.428862	0.693670	-0.228301
H329	H	0.489789	0.635215	-0.271773
H330	H	0.331437	0.838251	-0.329725
H331	H	0.392350	0.779805	-0.373216
C332	C	1.378390	0.149463	0.621994
C333	C	1.355287	0.235250	0.587950
H334	H	1.445082	0.098844	0.663364
H335	H	1.373260	0.125020	0.583758
H336	H	1.332505	0.166343	0.641961
H337	H	1.401168	0.218372	0.567978
H338	H	1.360426	0.259696	0.626193
C339	C	0.330413	0.865991	-0.212120
C340	C	0.434050	0.779824	-0.166775
H341	H	0.295156	0.865999	-0.186791
H342	H	0.309506	0.865988	-0.261893
H343	H	0.316290	0.924423	-0.218417
H344	H	0.448174	0.721392	-0.160483
H345	H	0.454964	0.779818	-0.116987
C346	C	0.924308	0.362097	-0.069575
C347	C	1.024047	0.313599	-0.038364
H348	H	0.914570	0.336790	-0.105217
H349	H	0.879979	0.432515	-0.096116
H350	H	0.910739	0.349861	-0.028558
H351	H	1.037614	0.325841	-0.079381
H352	H	1.068390	0.243164	-0.011823
