data_functionalizedCrystal
_audit_creation_method	'MofGen! by Chris Wilmer'
_symmetry_space_group_name_H-M	'P1'
_symmetry_Int_Tables_number	1
_symmetry_cell_setting	triclinic
loop_
_symmetry_equiv_pos_as_xyz
  x,y,z
_cell_length_a	13.032891
_cell_length_b	13.897448
_cell_length_c	13.032268
_cell_angle_alpha	97.148041
_cell_angle_beta	90.886842
_cell_angle_gamma	82.823134
loop_
_atom_site_label
_atom_site_type_symbol
_atom_site_fract_x
_atom_site_fract_y
_atom_site_fract_z
Zn1	Zn	1.498473	-0.651404	-0.780820
Zn2	Zn	1.520216	-0.795119	-0.608836
Zn3	Zn	1.348333	-0.611111	-0.587061
Zn4	Zn	1.326466	-0.789906	-0.758961
O5	O	1.423372	-0.711885	-0.683919
O6	O	1.645277	-0.689513	-0.776266
O7	O	1.515666	-0.756029	-0.462031
O8	O	1.368301	-0.481485	-0.612799
O9	O	1.661252	-0.795099	-0.649910
O10	O	1.478609	-0.511088	-0.755152
O11	O	1.389384	-0.620839	-0.446033
O12	O	1.201512	-0.615784	-0.591604
O13	O	1.331032	-0.786215	-0.905777
O14	O	1.185446	-0.747144	-0.717898
O15	O	1.457405	-0.684458	-0.921836
O16	O	1.494463	-0.929399	-0.628715
O17	O	1.352115	-0.925569	-0.739012
C18	C	1.156162	-0.676527	-0.650017
C19	C	1.041846	-0.661426	-0.635537
C20	C	0.864817	-0.704166	-0.676521
C21	C	0.982969	-0.719778	-0.691484
C22	C	1.423301	-0.962486	-0.683880
C23	C	1.423360	-1.069711	-0.683910
C24	C	1.423460	-1.266027	-0.683988
C25	C	1.423401	-1.156783	-0.683947
C26	C	1.691625	-0.747382	-0.717955
C27	C	1.805938	-0.762509	-0.732459
C28	C	1.389354	-0.739249	-0.952166
C29	C	1.374858	-0.750911	-1.066477
C30	C	1.423469	-0.460311	-0.683985
C31	C	1.423510	-0.353105	-0.684013
C32	C	1.430922	-0.705762	-1.125386
C33	C	1.415940	-0.717813	-1.243532
C34	C	1.457317	-0.684565	-0.416724
C35	C	1.472012	-0.672659	-0.302439
H36	H	1.004788	-0.599910	-0.576568
H37	H	0.843001	-0.824013	-0.791433
H38	H	1.490008	-0.658183	-1.088352
O39	O	1.027000	-0.793183	-0.761917
C40	C	0.999390	-0.927615	-0.890724
C41	C	0.949388	-0.844511	-0.811014
H42	H	0.936666	-0.969149	-0.930426
H43	H	1.042842	-0.895552	-0.950974
H44	H	1.055698	-0.979711	-0.849721
H45	H	0.893035	-0.792385	-0.851927
H46	H	0.906001	-0.876642	-0.750769
O47	O	1.345521	-0.774577	-1.287868
C48	C	1.266316	-0.838266	-1.446042
C49	C	1.346114	-0.773971	-1.395966
H50	H	1.266754	-0.837780	-1.533444
H51	H	1.286996	-0.916325	-1.427329
H52	H	1.186062	-0.808234	-1.414404
H53	H	1.426397	-0.803916	-1.427575
H54	H	1.325345	-0.695921	-1.414673
O55	O	1.542482	-0.615948	-1.258111
C56	C	1.621565	-0.552122	-1.099925
C57	C	1.541753	-0.616405	-1.149995
H58	H	1.620987	-0.552454	-1.012505
H59	H	1.701879	-0.582141	-1.131417
H60	H	1.600860	-0.474118	-1.118791
H61	H	1.562361	-0.694423	-1.131149
H62	H	1.461461	-0.586306	-1.118501
H63	H	1.315761	-0.798478	-1.103509
H64	H	0.827753	-0.642655	-0.617556
