data_functionalizedCrystal
_audit_creation_method	'MofGen! by Chris Wilmer'
_symmetry_space_group_name_H-M	'P1'
_symmetry_Int_Tables_number	1
_symmetry_cell_setting	triclinic
loop_
_symmetry_equiv_pos_as_xyz
  x,y,z
_cell_length_a	16.176319
_cell_length_b	17.699083
_cell_length_c	17.699083
_cell_angle_alpha	96.717152
_cell_angle_beta	89.998824
_cell_angle_gamma	90.006975
loop_
_atom_site_label
_atom_site_type_symbol
_atom_site_fract_x
_atom_site_fract_y
_atom_site_fract_z
O1	O	-0.068734	-1.004080	0.095703
O2	O	-0.068739	-0.783702	0.108156
O3	O	-0.068729	-0.900117	-0.008260
O4	O	-0.068744	-0.887665	0.212119
O5	O	0.068764	-0.900099	-0.008253
O6	O	0.068754	-0.783684	0.108163
O7	O	0.068759	-1.004062	0.095710
Cu8	Cu	0.081311	-0.893871	0.101937
Cu9	Cu	-0.081291	-0.893893	0.101929
O10	O	0.068749	-0.887647	0.212126
C11	C	0.000007	-0.755496	0.107713
C12	C	0.000005	-0.671478	0.106375
N13	N	0.195676	-0.893861	0.101943
C14	C	0.074954	-0.632000	0.105748
C15	C	0.074954	-0.553058	0.104479
C16	C	0.000006	-0.513594	0.103841
C17	C	-0.074948	-0.553077	0.104466
C18	C	-0.074948	-0.632018	0.105730
C19	C	-0.074950	-0.234714	0.099367
C20	C	-0.074945	-0.155767	0.098105
C21	C	0.074952	-0.155754	0.098115
C22	C	0.074952	-0.234695	0.099380
C23	C	-0.000001	-0.274172	0.100000
C24	C	-0.000001	-0.359771	0.101375
C25	C	0.000005	-0.427996	0.102472
C26	C	0.761063	-0.945459	0.050392
C27	C	0.674516	-0.945456	0.050397
C28	C	0.631251	-0.893893	0.101929
C29	C	0.674538	-0.842335	0.153466
C30	C	0.761084	-0.842342	0.153464
C31	C	0.325510	-0.842306	0.153474
C32	C	0.238959	-0.842302	0.153470
C33	C	0.238942	-0.945420	0.050407
C34	C	0.325488	-0.945427	0.050406
C35	C	0.368767	-0.893872	0.101944
C36	C	0.462611	-0.893877	0.101939
C37	C	0.537409	-0.893884	0.101931
N38	N	0.804344	-0.893903	0.101923
C39	C	0.000017	-0.899662	-0.036453
C40	C	0.000018	-0.898323	-0.120471
C41	C	0.000010	-0.032269	0.096148
C42	C	0.000004	-0.116289	0.097472
C43	C	0.000020	-0.966657	-0.169092
C44	C	0.000013	-0.965395	-0.248036
C45	C	0.000009	-0.895798	-0.278356
C46	C	0.000004	-0.827459	-0.229729
C47	C	0.000005	-0.828722	-0.150787
C48	C	-0.000003	-0.822364	-0.548092
C49	C	-0.000002	-0.821106	-0.627040
C50	C	0.000005	-0.959036	-0.645341
C51	C	0.000006	-0.960299	-0.566399
C52	C	-0.000003	-0.891961	-0.517778
C53	C	0.000003	-0.893331	-0.432179
C54	C	0.000009	-0.894428	-0.363954
C55	C	0.000001	-0.888102	0.240319
C56	C	-0.000005	-0.889441	0.324337
H57	H	0.135986	-0.664126	0.106274
H58	H	0.360742	-0.800327	0.195437
H59	H	-0.000004	-0.764429	-0.651723
H60	H	0.000003	-0.773078	-0.111200
C61	C	-0.000131	-0.748110	-0.495403
C62	C	-0.070856	-0.706195	-0.509103
C63	C	-0.070994	-0.637780	-0.460585
H64	H	-0.000174	-0.758713	-0.444018
H65	H	0.047792	-0.719523	-0.504596
H66	H	-0.118767	-0.734776	-0.499904
H67	H	-0.070828	-0.695572	-0.560478
H68	H	-0.023071	-0.609192	-0.469778
H69	H	-0.071035	-0.648390	-0.409203
H70	H	-0.118976	-0.609329	-0.469878
C71	C	0.156414	-0.510327	0.103844
C72	C	0.222050	-0.561781	0.104699
C73	C	0.297107	-0.522445	0.104125
H74	H	0.159657	-0.485385	0.059244
H75	H	0.159568	-0.473689	0.147488
H76	H	0.218899	-0.598406	0.061060
H77	H	0.218835	-0.586726	0.149296
H78	H	0.300260	-0.485806	0.147769
H79	H	0.300340	-0.497503	0.059524
H80	H	0.341649	-0.557349	0.104712
C81	C	0.156412	-0.277411	0.100030
C82	C	0.222051	-0.225944	0.099188
C83	C	0.297105	-0.265266	0.099772
H84	H	0.159643	-0.302355	0.144629
H85	H	0.159573	-0.314047	0.056385
H86	H	0.218892	-0.189321	0.142828
H87	H	0.218847	-0.200997	0.054591
H88	H	0.300266	-0.301902	0.056128
H89	H	0.300328	-0.290209	0.144373
H90	H	0.341650	-0.230353	0.099194
C91	C	0.372310	-1.001496	-0.005577
C92	C	0.315881	-1.046661	-0.050692
C93	C	0.358983	-1.098329	-0.102263
H94	H	0.406083	-0.974423	-0.037123
H95	H	0.406045	-1.032992	0.021594
H96	H	0.282161	-1.015169	-0.077860
H97	H	0.282107	-1.073750	-0.019167
H98	H	0.392718	-1.129825	-0.075092
H99	H	0.392754	-1.071251	-0.133803
H100	H	0.320703	-1.128985	-0.132874
C101	C	0.627674	-1.001462	-0.005639
C102	C	0.684087	-1.046602	-0.050786
C103	C	0.640968	-1.098200	-0.102422
H104	H	0.593904	-1.032989	0.021458
H105	H	0.593936	-0.974312	-0.037150
H106	H	0.717811	-1.073751	-0.019278
H107	H	0.717860	-1.015097	-0.077899
H108	H	0.607230	-1.071049	-0.133934
H109	H	0.607199	-1.129721	-0.075320
H110	H	0.679237	-1.128829	-0.133065
H111	H	0.203695	-0.987401	0.008444
H112	H	-0.135973	-0.520939	0.103941
C113	C	-0.156413	-0.277426	0.100078
C114	C	-0.222046	-0.225963	0.099270
C115	C	-0.297104	-0.265284	0.099934
H116	H	-0.159643	-0.314076	0.056461
H117	H	-0.159582	-0.302351	0.144705
H118	H	-0.218878	-0.201051	0.054648
H119	H	-0.218843	-0.189312	0.142884
H120	H	-0.300273	-0.290208	0.144561
H121	H	-0.300325	-0.301932	0.056316
H122	H	-0.341645	-0.230371	0.099393
C123	C	0.807929	-0.786278	0.209442
C124	C	0.751518	-0.741105	0.254558
C125	C	0.794640	-0.689444	0.306129
H126	H	0.841687	-0.813356	0.240987
H127	H	0.841679	-0.754787	0.182271
H128	H	0.717782	-0.772592	0.281727
H129	H	0.717758	-0.714010	0.223034
H130	H	0.828390	-0.657952	0.278958
H131	H	0.828397	-0.716528	0.337668
H132	H	0.756372	-0.658783	0.336741
C133	C	0.192133	-0.786287	0.209513
C134	C	0.248558	-0.741153	0.254663
C135	C	0.205452	-0.689554	0.306300
H136	H	0.158377	-0.754756	0.182416
H137	H	0.158381	-0.813436	0.241022
H138	H	0.282295	-0.714005	0.223158
H139	H	0.282316	-0.772662	0.281776
H140	H	0.171701	-0.716703	0.337809
H141	H	0.171698	-0.658029	0.279198
H142	H	0.243730	-0.658929	0.336946
H143	H	0.796283	-0.987444	0.008426
C144	C	-0.000108	-1.039646	-0.300732
C145	C	-0.070828	-1.081584	-0.287031
C146	C	-0.070963	-1.149997	-0.335551
H147	H	-0.000155	-1.029041	-0.352117
H148	H	0.047818	-1.068220	-0.291543
H149	H	-0.118742	-1.053016	-0.296225
H150	H	-0.070796	-1.092209	-0.235656
H151	H	-0.023037	-1.178571	-0.326363
H152	H	-0.071008	-1.139384	-0.386933
H153	H	-0.118942	-1.178463	-0.326257
C154	C	-0.156298	-0.674941	0.106258
C155	C	-0.160682	-0.728887	0.041883
C156	C	-0.235616	-0.768433	0.042335
H157	H	-0.159498	-0.699950	0.150819
H158	H	-0.200958	-0.640161	0.105658
H159	H	-0.116034	-0.763662	0.042489
H160	H	-0.157496	-0.703898	-0.002688
H161	H	-0.280276	-0.733653	0.041735
H162	H	-0.238810	-0.793438	0.086898
H163	H	-0.238604	-0.805035	-0.001346
C164	C	-0.000105	-1.042166	-0.136072
C165	C	-0.070831	-1.046920	-0.091269
C166	C	-0.070972	-1.116465	-0.060832
H167	H	-0.000149	-1.082747	-0.176259
H168	H	0.047818	-1.045528	-0.105615
H169	H	-0.118741	-1.043565	-0.121724
H170	H	-0.070802	-1.006355	-0.051070
H171	H	-0.023049	-1.119827	-0.030376
H172	H	-0.071014	-1.157041	-0.101024
H173	H	-0.118954	-1.119697	-0.030425
C174	C	-0.000130	-0.751951	-0.262751
C175	C	-0.070855	-0.747216	-0.307554
C176	C	-0.070998	-0.677672	-0.337993
H177	H	-0.000175	-0.711369	-0.222565
H178	H	0.047793	-0.748579	-0.293208
H179	H	-0.118766	-0.750581	-0.277099
H180	H	-0.070825	-0.787782	-0.347752
H181	H	-0.023075	-0.674299	-0.368450
H182	H	-0.071041	-0.637095	-0.297802
H183	H	-0.118980	-0.674453	-0.368401
H184	H	0.135983	-0.123603	0.097607
H185	H	-0.135981	-0.123637	0.097585
C186	C	0.627419	-0.786385	0.209331
C187	C	0.542362	-0.797397	0.198289
C188	C	0.498932	-0.745859	0.249730
H189	H	0.641498	-0.794458	0.259869
H190	H	0.641569	-0.735876	0.201166
H191	H	0.528218	-0.847893	0.206460
H192	H	0.528258	-0.789317	0.147762
H193	H	0.513082	-0.695350	0.241566
H194	H	0.513017	-0.753937	0.300265
H195	H	0.441216	-0.753319	0.242241
C196	C	-0.000166	-1.033212	-0.698167
C197	C	-0.070917	-1.036539	-0.744005
C198	C	-0.071105	-1.104860	-0.792668
H199	H	0.047723	-1.035653	-0.729417
H200	H	-0.000205	-1.074862	-0.668829
H201	H	-0.070870	-0.994900	-0.773341
H202	H	-0.118817	-1.034111	-0.712775
H203	H	-0.071144	-1.146511	-0.763330
H204	H	-0.023213	-1.107295	-0.823913
H205	H	-0.119112	-1.107130	-0.823770
H206	H	0.000014	-1.016972	-0.541717
