data_functionalizedCrystal
_audit_creation_method	'MofGen! by Chris Wilmer'
_symmetry_space_group_name_H-M	'P1'
_symmetry_Int_Tables_number	1
_symmetry_cell_setting	triclinic
loop_
_symmetry_equiv_pos_as_xyz
  x,y,z
_cell_length_a	15.995350
_cell_length_b	19.188930
_cell_length_c	15.072220
_cell_angle_alpha	89.993728
_cell_angle_beta	89.991149
_cell_angle_gamma	83.318578
loop_
_atom_site_label
_atom_site_type_symbol
_atom_site_fract_x
_atom_site_fract_y
_atom_site_fract_z
O1	O	1.110666	0.089991	-0.073718
O2	O	0.866850	0.101105	-0.073737
O3	O	0.995794	-0.006090	-0.073709
O4	O	0.981722	0.197186	-0.073745
O5	O	0.995763	-0.006084	0.073856
O6	O	0.866819	0.101111	0.073828
O7	O	1.110634	0.089997	0.073848
Zn8	Zn	0.988721	0.095555	0.097267
Zn9	Zn	0.988763	0.095547	-0.097156
O10	O	0.981690	0.197192	0.073820
C11	C	0.835641	0.100648	0.000043
C12	C	0.742696	0.099271	0.000037
C13	C	0.404967	0.094324	0.000056
C14	C	0.452680	0.017982	0.000398
C15	C	0.549365	0.019360	0.000059
C16	C	0.572518	0.096778	0.000047
C17	C	0.531311	0.134429	-0.084223
C18	C	0.434683	0.132511	-0.084287
C19	C	0.434302	0.134095	0.083522
C20	C	0.531247	0.134077	0.084629
C21	C	0.667211	0.098169	0.000039
C22	C	0.310274	0.092936	0.000058
C23	C	0.995323	-0.032099	0.000076
C24	C	0.993955	-0.109607	0.000083
C25	C	1.069615	-0.154338	0.000093
C26	C	1.068330	-0.227165	0.000079
C27	C	0.991380	-0.255258	0.000072
C28	C	0.915710	-0.210517	0.000057
C29	C	0.916997	-0.137691	0.000062
N30	N	0.932550	-0.363410	0.050287
N31	N	0.931333	-0.432592	0.050284
C32	C	0.987497	-0.474676	0.000054
N33	N	1.044937	-0.444966	-0.050161
N34	N	1.046158	-0.375779	-0.050154
C35	C	0.989976	-0.334224	0.000066
C36	C	1.061769	-0.598375	0.000048
C37	C	1.060480	-0.671204	0.000028
C38	C	0.907859	-0.654553	0.000015
C39	C	0.909149	-0.581727	0.000025
C40	C	0.986106	-0.553643	0.000046
C41	C	1.141843	0.090454	0.000065
C42	C	1.234789	0.091831	0.000066
C43	C	0.982162	0.223201	0.000033
C44	C	0.983530	0.300709	0.000019
N45	N	0.988699	0.095560	0.229956
N46	N	0.988792	0.095537	-0.229845
C47	C	0.988762	0.095544	0.589157
C48	C	0.919536	0.152710	0.551535
C49	C	0.919693	0.152918	0.448710
C50	C	0.988730	0.095552	0.410953
C51	C	1.076036	0.111464	0.448248
C52	C	1.075648	0.111870	0.551106
C53	C	0.971460	0.022298	0.551269
C54	C	0.969454	0.022787	0.448405
C55	C	0.988717	0.095555	0.310240
C56	C	0.988780	0.095543	0.689871
H57	H	0.577890	-0.010236	0.060468
C58	C	1.039657	-0.035174	0.584140
C59	C	1.095852	-0.079136	0.516859
C60	C	1.164050	-0.136601	0.549737
C61	C	1.176054	-0.150104	0.649896
C62	C	1.119857	-0.106141	0.717184
C63	C	1.051659	-0.048676	0.684306
H64	H	1.086968	-0.069141	0.442710
H65	H	1.205651	-0.169145	0.499925
H66	H	1.226539	-0.192643	0.674234
H67	H	1.128741	-0.116136	0.791333
H68	H	1.010058	-0.016132	0.734117
H69	H	1.124432	-0.575508	0.000060
C70	C	0.823213	-0.685448	0.000007
C71	C	0.760453	-0.668562	-0.076625
C72	C	0.675806	-0.699462	-0.076637
C73	C	0.653919	-0.747248	-0.000016
C74	C	0.716680	-0.764137	0.076621
C75	C	0.801328	-0.733237	0.076633
H76	H	0.776654	-0.633186	-0.133349
H77	H	0.629346	-0.686959	-0.133369
H78	H	0.591258	-0.770122	-0.000025
H79	H	0.700479	-0.799513	0.133345
H80	H	0.847788	-0.745740	0.133365
H81	H	0.434257	-0.012531	0.060832
C82	C	0.551716	0.210348	0.091492
C83	C	0.599342	0.233934	0.172901
C84	C	0.619810	0.310208	0.179754
C85	C	0.592653	0.362897	0.105197
C86	C	0.545024	0.339312	0.023781
C87	C	0.524556	0.263038	0.016929
H88	H	0.619448	0.194930	0.228098
H89	H	0.655069	0.327667	0.240023
H90	H	0.607805	0.419360	0.110270
H91	H	0.524918	0.378316	-0.031415
H92	H	0.489298	0.245579	-0.043341
C93	C	0.832008	0.140122	0.414644
C94	C	0.822085	0.076037	0.355737
C95	C	0.734394	0.063243	0.321678
C96	C	0.656625	0.114534	0.346527
C97	C	0.666545	0.178623	0.405438
C98	C	0.754236	0.191417	0.439496
H99	H	0.879657	0.038065	0.337339
H100	H	0.727051	0.015800	0.278069
H101	H	0.591711	0.105063	0.321315
H102	H	0.608973	0.216595	0.423835
H103	H	0.761579	0.238860	0.483106
C104	C	1.154268	-0.123449	0.000100
C105	C	1.217032	-0.140339	0.076727
C106	C	1.301686	-0.109450	0.076728
C107	C	1.323575	-0.061670	0.000102
C108	C	1.260810	-0.044777	-0.076531
C109	C	1.176156	-0.075667	-0.076532
H110	H	1.200830	-0.175711	0.133455
H111	H	1.348149	-0.121955	0.133457
H112	H	1.386241	-0.038804	0.000103
H113	H	1.277012	-0.009406	-0.133260
H114	H	1.129692	-0.063161	-0.133262
C115	C	0.887324	0.001639	0.586340
C116	C	0.885826	-0.066085	0.640849
C117	C	0.801685	-0.086736	0.675919
C118	C	0.719043	-0.039662	0.656480
C119	C	0.720538	0.028066	0.601968
C120	C	0.804678	0.048716	0.566898
H121	H	0.947005	-0.100936	0.655241
H122	H	0.800579	-0.136873	0.716272
H123	H	0.656757	-0.054949	0.682442
H124	H	0.659358	0.062917	0.587576
H125	H	0.805785	0.098853	0.526545
C126	C	0.391117	0.210134	0.084286
C127	C	0.329538	0.236044	0.009583
C128	C	0.286349	0.312079	0.010339
C129	C	0.304739	0.362204	0.085798
C130	C	0.366321	0.336295	0.160507
C131	C	0.409509	0.260260	0.159751
H132	H	0.315922	0.198938	-0.046282
H133	H	0.240762	0.331259	-0.044966
H134	H	0.272768	0.418490	0.086358
H135	H	0.379936	0.373401	0.216372
H136	H	0.455096	0.241080	0.215056
H137	H	0.577345	-0.010441	-0.060444
H138	H	0.853057	-0.233394	0.000050
C139	C	1.151560	-0.276381	0.000099
C140	C	1.236208	-0.245490	0.000124
C141	C	1.319438	-0.294704	0.000148
C142	C	1.318020	-0.374809	0.000146
C143	C	1.233369	-0.405704	0.000122
C144	C	1.150139	-0.356490	0.000098
H145	H	1.237261	-0.186188	0.000125
H146	H	1.382103	-0.271833	0.000166
H147	H	1.379632	-0.411240	0.000164
H148	H	1.232316	-0.465006	0.000121
H149	H	1.087474	-0.379362	0.000080
C150	C	0.833766	-0.088482	0.000059
C151	C	0.770650	-0.091615	-0.076574
C152	C	0.687418	-0.042405	-0.076574
C153	C	0.667301	0.009939	0.000058
C154	C	0.730418	0.013074	0.076696
C155	C	0.813650	-0.036136	0.076697
H156	H	0.785541	-0.130365	-0.133306
H157	H	0.640695	-0.044726	-0.133307
H158	H	0.605687	0.046367	0.000058
H159	H	0.715528	0.051824	0.133429
H160	H	0.860374	-0.033815	0.133430
C161	C	0.825920	-0.532517	0.000030
C162	C	0.741275	-0.563413	0.000025
C163	C	0.658042	-0.514203	0.000029
C164	C	0.659455	-0.434098	0.000037
C165	C	0.744103	-0.403198	0.000042
C166	C	0.827336	-0.452408	0.000039
H167	H	0.740227	-0.622716	0.000019
H168	H	0.595380	-0.537078	0.000025
H169	H	0.597841	-0.397669	0.000040
H170	H	0.745152	-0.343895	0.000048
H171	H	0.889998	-0.429533	0.000042
H172	H	0.854420	0.143386	0.576294
H173	H	1.122095	-0.707624	0.000031
C174	C	0.934247	0.225736	0.586370
C175	C	1.008781	0.233641	0.648773
C176	C	1.023512	0.306670	0.683584
C177	C	0.963711	0.371793	0.655993
C178	C	0.889172	0.363890	0.593587
C179	C	0.874441	0.290861	0.558776
H180	H	1.053054	0.185431	0.669200
H181	H	1.078691	0.312520	0.729780
H182	H	0.974616	0.425853	0.681762
H183	H	0.844899	0.412100	0.573160
H184	H	0.819262	0.285011	0.512579
C185	C	0.934580	0.226347	0.415437
C186	C	0.946367	0.284977	0.482459
C187	C	0.961256	0.358409	0.449187
C188	C	0.964357	0.373211	0.348893
C189	C	0.952570	0.314579	0.281865
C190	C	0.937681	0.241147	0.315137
H191	H	0.944072	0.274022	0.556708
H192	H	0.969982	0.401812	0.498806
H193	H	0.975379	0.427569	0.324263
H194	H	0.954865	0.325535	0.207615
H195	H	0.928955	0.197744	0.265518
H196	H	1.090935	0.165288	0.575079
C197	C	1.147312	0.057768	0.584733
C198	C	1.204713	0.014335	0.517991
C199	C	1.276380	-0.039761	0.551614
C200	C	1.290645	-0.050424	0.651978
C201	C	1.233242	-0.006989	0.718725
C202	C	1.161576	0.047107	0.685103
H203	H	1.194155	0.022227	0.443690
H204	H	1.318873	-0.071915	0.502202
H205	H	1.343697	-0.090469	0.676867
H206	H	1.243801	-0.014881	0.793027
H207	H	1.119082	0.079260	0.734515
H208	H	0.416488	0.105049	-0.147272
H209	H	1.128769	0.070935	0.423790
C210	C	1.097195	0.182807	0.413434
C211	C	1.110693	0.241927	0.479130
C212	C	1.131846	0.313272	0.444318
C213	C	1.139503	0.325496	0.343811
C214	C	1.126005	0.266373	0.278109
C215	C	1.104851	0.195028	0.312921
H216	H	1.105025	0.232880	0.553537
H217	H	1.141838	0.357039	0.492956
H218	H	1.155162	0.378309	0.318042
H219	H	1.131672	0.275420	0.203702
H220	H	1.094860	0.151262	0.264283
C221	C	0.390828	0.208223	-0.089481
C222	C	0.332074	0.230756	-0.167859
C223	C	0.288221	0.306466	-0.173061
C224	C	0.303123	0.359642	-0.099885
C225	C	0.361880	0.337110	-0.021501
C226	C	0.405733	0.261401	-0.016299
H227	H	0.321040	0.191391	-0.222033
H228	H	0.244725	0.323145	-0.231086
H229	H	0.270661	0.415687	-0.103736
H230	H	0.372914	0.376476	0.032673
H231	H	0.449229	0.244722	0.041726
C232	C	0.406675	0.100381	0.169815
C233	C	0.357114	0.036300	0.165591
C234	C	0.329488	0.002577	0.251879
C235	C	0.351423	0.032935	0.342390
C236	C	0.400987	0.097020	0.346617
C237	C	0.428613	0.130743	0.260330
H238	H	0.340874	0.013824	0.098586
H239	H	0.292798	-0.044863	0.248749
H240	H	0.330973	0.007972	0.406265
H241	H	0.417227	0.119496	0.413622
H242	H	0.465303	0.178182	0.263460
C243	C	1.033169	-0.037379	0.413694
C244	C	1.104137	-0.021418	0.350454
C245	C	1.167860	-0.081582	0.315744
C246	C	1.160616	-0.157707	0.344274
C247	C	1.089646	-0.173672	0.407518
C248	C	1.025922	-0.113508	0.442228
H249	H	1.109502	0.034937	0.329332
H250	H	1.220397	-0.069764	0.268927
H251	H	1.207788	-0.202245	0.318580
H252	H	1.084281	-0.230027	0.428641
H253	H	0.973386	-0.125326	0.489045
H254	H	0.905232	0.010712	0.424030
H255	H	0.559795	0.108273	-0.146930
H256	H	0.433211	-0.012395	-0.059692
H257	H	0.545229	0.191306	-0.087366
H258	H	0.558651	0.106592	0.146972
