data_functionalizedCrystal
_audit_creation_method	'MofGen! by Chris Wilmer'
_symmetry_space_group_name_H-M	'P1'
_symmetry_Int_Tables_number	1
_symmetry_cell_setting	triclinic
loop_
_symmetry_equiv_pos_as_xyz
  x,y,z
_cell_length_a	6.394984
_cell_length_b	17.699083
_cell_length_c	16.776229
_cell_angle_alpha	90.001114
_cell_angle_beta	89.994970
_cell_angle_gamma	95.110816
loop_
_atom_site_label
_atom_site_type_symbol
_atom_site_fract_x
_atom_site_fract_y
_atom_site_fract_z
O1	O	0.264132	-1.006772	-0.066174
O2	O	0.764132	-0.506772	0.433826
O3	O	0.298496	-0.786744	-0.066199
O4	O	0.798496	-0.286744	0.433801
O5	O	-0.022767	-0.899883	-0.066184
O6	O	0.477233	-0.399883	0.433816
O7	O	0.585395	-0.893633	-0.066189
O8	O	1.085395	-0.393633	0.433811
O9	O	-0.022787	-0.899868	0.066393
O10	O	0.477213	-0.399868	0.566393
O11	O	0.298476	-0.786728	0.066377
O12	O	0.798476	-0.286728	0.566377
O13	O	0.264112	-1.006756	0.066403
O14	O	0.764112	-0.506756	0.566403
Zn15	Zn	0.281291	-0.896740	0.087439
Zn16	Zn	0.781291	-0.396740	0.587439
Zn17	Zn	0.281317	-0.896760	-0.087236
Zn18	Zn	0.781317	-0.396760	0.412764
O19	O	0.585375	-0.893617	0.066387
O20	O	1.085375	-0.393617	0.566387
C21	C	0.297255	-0.758527	0.000086
C22	C	0.797255	-0.258527	0.500086
C23	C	0.293561	-0.674471	0.000076
C24	C	0.793561	-0.174471	0.500076
C25	C	0.899411	-0.898632	0.000107
C26	C	1.399411	-0.398632	0.500107
C27	C	0.663193	-0.894866	0.000105
C28	C	1.163193	-0.394866	0.500105
C29	C	0.265353	-1.034974	0.000116
C30	C	0.765353	-0.534974	0.500116
C31	C	0.269047	-1.119029	0.000121
C32	C	0.769047	-0.619029	0.500121
N33	N	0.281272	-0.896731	0.206651
N34	N	0.781272	-0.396731	0.706651
N35	N	0.281320	-0.896775	-0.206447
N36	N	0.781320	-0.396775	0.293553
C37	C	0.482136	-0.627773	0.000074
C38	C	0.982136	-0.127773	0.500074
C39	C	0.478652	-0.548794	0.000085
C40	C	0.978652	-0.048794	0.500085
C41	C	0.286592	-0.516515	0.000091
C42	C	0.786592	-0.016515	0.500091
C43	C	0.098003	-0.563219	0.000094
C44	C	0.598003	-0.063219	0.500094
C45	C	0.101488	-0.642196	0.000090
C46	C	0.601488	-0.142196	0.500090
C47	C	0.083942	-0.244712	0.000114
C48	C	0.583942	0.255288	0.500114
C49	C	0.080471	-0.165729	0.000117
C50	C	0.580471	0.334271	0.500117
C51	C	0.461106	-0.151310	0.000109
C52	C	0.961106	0.348690	0.500109
C53	C	0.464591	-0.230288	0.000104
C54	C	0.964591	0.269712	0.500104
C55	C	0.276003	-0.276985	0.000112
C56	C	0.776003	0.223015	0.500112
C57	C	0.279783	-0.362622	0.000103
C58	C	0.779783	0.137378	0.500103
C59	C	0.282810	-0.430879	0.000095
C60	C	0.782810	0.069121	0.500095
C61	C	0.139075	-0.946846	0.248375
C62	C	0.639075	-0.446846	0.748375
C63	C	0.139073	-0.946850	0.331827
C64	C	0.639073	-0.446850	0.831827
C65	C	0.281280	-0.896743	0.373553
C66	C	0.781280	-0.396743	0.873553
C67	C	0.423484	-0.846623	0.331824
C68	C	0.923484	-0.346623	0.831824
C69	C	0.423474	-0.846616	0.248373
C70	C	0.923474	-0.346616	0.748373
C71	C	0.423525	-0.846651	0.668371
C72	C	0.923525	-0.346651	1.168371
C73	C	0.423528	-0.846664	0.751827
C74	C	0.923528	-0.346664	1.251827
C75	C	0.139124	-0.946885	0.751825
C76	C	0.639124	-0.446885	1.251825
C77	C	0.139114	-0.946878	0.668374
C78	C	0.639114	-0.446878	1.168374
C79	C	0.281310	-0.896756	0.626651
C80	C	0.781310	-0.396756	1.126651
C81	C	0.281307	-0.896751	0.536163
C82	C	0.781307	-0.396751	1.036163
C83	C	0.281294	-0.896751	0.464040
C84	C	0.781294	-0.396751	0.964040
H85	H	0.638533	-0.654048	0.000069
H86	H	1.138533	-0.154048	0.500069
Cl87	Cl	-0.143446	-0.522639	0.000107
Cl88	Cl	0.356554	-0.022639	0.500107
Cl89	Cl	0.602253	-0.783626	0.384278
Cl90	Cl	1.102253	-0.283626	0.884278
Cl91	Cl	0.602238	-0.783609	0.195921
Cl92	Cl	1.102238	-0.283609	0.695921
H93	H	0.632209	-0.510775	0.000082
H94	H	1.132209	-0.010775	0.500082
H95	H	0.620986	-0.256565	0.000096
H96	H	1.120986	0.243435	0.500096
Cl97	Cl	-0.135587	-0.700903	0.000095
Cl98	Cl	0.364413	-0.200903	0.500095
H99	H	0.614663	-0.113280	0.000107
H100	H	1.114663	0.386720	0.500107
H101	H	-0.075937	-0.139451	0.000123
H102	H	0.424063	0.360549	0.500123
H103	H	0.023285	-0.987656	0.365798
H104	H	0.523285	-0.487656	0.865798
H105	H	0.023324	-0.987682	0.634403
H106	H	0.523324	-0.487682	1.134403
H107	H	-0.069619	-0.282724	0.000122
H108	H	0.430381	0.217276	0.500122
Cl109	Cl	-0.039701	-1.009845	0.195927
Cl110	Cl	0.460299	-0.509845	0.695927
Cl111	Cl	-0.039648	-1.009894	0.804280
Cl112	Cl	0.460352	-0.509894	1.304280
Cl113	Cl	0.602314	-0.783666	0.804283
Cl114	Cl	1.102314	-0.283666	1.304283
H115	H	0.539309	-0.805841	0.634407
H116	H	1.039309	-0.305841	1.134407
