data_functionalizedCrystal
_audit_creation_method	'MofGen! by Chris Wilmer'
_symmetry_space_group_name_H-M	'P1'
_symmetry_Int_Tables_number	1
_symmetry_cell_setting	triclinic
loop_
_symmetry_equiv_pos_as_xyz
  x,y,z
_cell_length_a	13.339070
_cell_length_b	8.597213
_cell_length_c	7.088929
_cell_angle_alpha	91.319000
_cell_angle_beta	82.100867
_cell_angle_gamma	79.659492
loop_
_atom_site_label
_atom_site_type_symbol
_atom_site_fract_x
_atom_site_fract_y
_atom_site_fract_z
O1	O	-1.348250	0.792299	-0.028511
O2	O	-1.051608	0.689817	-0.045386
O3	O	-1.203372	0.517822	-0.073719
O4	O	-1.196485	0.964295	-0.000179
O5	O	-1.223652	0.494764	0.240458
O6	O	-1.071888	0.666760	0.268791
O7	O	-1.368530	0.769241	0.285665
Cu8	Cu	-1.222061	0.715895	0.305915
Cu9	Cu	-1.198077	0.743164	-0.065635
O10	O	-1.216765	0.941237	0.313998
C11	C	-1.023701	0.660977	0.108852
C12	C	-0.910334	0.609377	0.100354
C13	C	-1.211643	0.447982	0.073761
C14	C	-1.206060	0.274229	0.045130
C15	C	-1.396436	0.798082	0.131424
C16	C	-1.509802	0.849683	0.139909
C17	C	-0.553821	1.010596	0.166410
C18	C	-0.660334	1.059082	0.174389
C19	C	-0.722839	0.946660	0.155882
C20	C	-0.678821	0.785743	0.129393
C21	C	-0.572297	0.737253	0.121399
C22	C	-0.741315	0.673317	0.110870
C23	C	-0.697297	0.512400	0.084381
C24	C	-0.590783	0.463918	0.076390
C25	C	-0.528278	0.576340	0.094897
C26	C	-0.847839	0.721807	0.118864
C27	C	-0.866315	0.448464	0.073853
C28	C	-0.759802	0.399978	0.065874
C29	C	-1.208494	1.011077	0.166514
C30	C	-1.214076	1.184831	0.195133
N31	N	-1.238937	0.696718	0.567244
N32	N	-1.181208	0.762332	-0.326966
H33	H	-0.883669	0.852826	0.140439
F34	F	-1.191512	1.200529	-0.151344
F35	F	-1.103006	0.851204	0.580958
F36	F	-1.228640	1.258540	0.391618
H37	H	-1.298778	0.628736	0.637701
F38	F	-0.836200	0.998268	0.164377
H39	H	-0.696165	1.190101	0.195941
H40	H	-0.502919	1.102113	0.181460
H41	H	-0.441545	0.536870	0.088403
H42	H	-0.554946	0.332891	0.054800
H43	H	-0.917207	0.356921	0.058774
F44	F	-0.712942	0.228722	0.037682
