data_functionalizedCrystal
_audit_creation_method	'MofGen! by Chris Wilmer'
_symmetry_space_group_name_H-M	'P1'
_symmetry_Int_Tables_number	1
_symmetry_cell_setting	triclinic
loop_
_symmetry_equiv_pos_as_xyz
  x,y,z
_cell_length_a	27.732048
_cell_length_b	26.809956
_cell_length_c	27.732048
_cell_angle_alpha	89.999364
_cell_angle_beta	82.642655
_cell_angle_gamma	89.996742
loop_
_atom_site_label
_atom_site_type_symbol
_atom_site_fract_x
_atom_site_fract_y
_atom_site_fract_z
O1	O	0.640931	-0.041421	0.057510
O2	O	0.974264	0.291913	0.390843
O3	O	1.307598	0.625246	0.724177
O4	O	0.500138	-0.041436	0.066256
O5	O	0.833471	0.291897	0.399589
O6	O	1.166804	0.625230	0.732922
O7	O	0.574907	-0.041419	-0.008514
O8	O	0.908240	0.291915	0.324820
O9	O	1.241574	0.625248	0.658153
O10	O	0.566162	-0.041439	0.132280
O11	O	0.899495	0.291895	0.465613
O12	O	1.232828	0.625228	0.798946
O13	O	0.574893	0.041541	-0.008502
O14	O	0.908226	0.374874	0.324831
O15	O	1.241560	0.708207	0.658164
O16	O	0.500123	0.041523	0.066267
O17	O	0.833457	0.374856	0.399600
O18	O	1.166790	0.708189	0.732934
O19	O	0.640917	0.041539	0.057522
O20	O	0.974250	0.374872	0.390855
O21	O	1.307584	0.708205	0.724188
Zn22	Zn	0.570518	0.054702	0.061896
Zn23	Zn	0.903851	0.388036	0.395229
Zn24	Zn	1.237185	0.721369	0.728563
Zn25	Zn	0.570536	-0.054600	0.061881
Zn26	Zn	0.903870	0.278733	0.395214
Zn27	Zn	1.237203	0.612067	0.728548
O28	O	0.566147	0.041521	0.132291
O29	O	0.899481	0.374854	0.465624
O30	O	1.232814	0.708187	0.798958
C31	C	0.482124	0.000041	0.066078
C32	C	0.815457	0.333375	0.399411
C33	C	1.148790	0.666708	0.732744
C34	C	0.428469	0.000036	0.065525
C35	C	0.761802	0.333369	0.398858
C36	C	1.095135	0.666702	0.732192
N37	N	0.570509	0.129298	0.061906
N38	N	0.903842	0.462632	0.395239
N39	N	1.237175	0.795965	0.728573
C40	C	0.574716	0.000062	-0.026515
C41	C	0.908050	0.333396	0.306818
C42	C	1.241383	0.666729	0.640152
C43	C	0.574164	0.000066	-0.080170
C44	C	0.907497	0.333400	0.253163
C45	C	1.240830	0.666733	0.586497
C46	C	0.089654	0.000051	0.106229
C47	C	0.422987	0.333385	0.439562
C48	C	0.756320	0.666718	0.772895
C49	C	-0.112006	0.000056	0.104178
C50	C	0.221327	0.333390	0.437511
C51	C	0.554661	0.666723	0.770844
O52	O	-0.143262	0.000073	0.141398
O53	O	0.190072	0.333406	0.474732
O54	O	0.523405	0.666739	0.808065
N55	N	-0.131130	0.000062	0.059843
N56	N	0.202204	0.333395	0.393176
N57	N	0.535537	0.666728	0.726509
C58	C	-0.099835	0.000069	0.016017
C59	C	0.233498	0.333402	0.349350
C60	C	0.566832	0.666736	0.682684
O61	O	-0.120728	0.000079	-0.021740
O62	O	0.212605	0.333412	0.311593
O63	O	0.545938	0.666746	0.644927
C64	C	0.101824	0.000068	0.018068
C65	C	0.435157	0.333401	0.351402
C66	C	0.768490	0.666735	0.684735
C67	C	0.120944	0.000057	0.062407
C68	C	0.454278	0.333391	0.395740
C69	C	0.787611	0.666724	0.729073
C70	C	0.108775	0.000042	0.150563
C71	C	0.442108	0.333375	0.483897
C72	C	0.775442	0.666708	0.817230
C73	C	0.159187	0.000038	0.151076
C74	C	0.492520	0.333371	0.484409
C75	C	0.825853	0.666704	0.817742
C76	C	0.190477	0.000044	0.107253
C77	C	0.523811	0.333377	0.440587
C78	C	0.857144	0.666710	0.773920
C79	C	0.171356	0.000054	0.062919
C80	C	0.504690	0.333387	0.396252
C81	C	0.838023	0.666720	0.729585
C82	C	0.133117	0.000079	-0.025757
C83	C	0.466451	0.333412	0.307577
C84	C	0.799784	0.666746	0.640910
C85	C	0.183535	0.000080	-0.025240
C86	C	0.516868	0.333413	0.308094
C87	C	0.850201	0.666747	0.641427
C88	C	0.202655	0.000069	0.019098
C89	C	0.535989	0.333403	0.352432
C90	C	0.869322	0.666736	0.685765
C91	C	0.253059	0.000056	0.019609
C92	C	0.586392	0.333389	0.352942
C93	C	0.919725	0.666722	0.686276
N94	N	0.272183	0.000050	0.063944
N95	N	0.605516	0.333384	0.397277
N96	N	0.938849	0.666717	0.730611
C97	C	0.240892	0.000044	0.107766
C98	C	0.574225	0.333378	0.441100
C99	C	0.907559	0.666711	0.774433
C100	C	-0.205709	0.000069	0.014943
C101	C	0.127624	0.333402	0.348276
C102	C	0.460957	0.666735	0.681610
C103	C	-0.256124	0.000068	0.014430
C104	C	0.077210	0.333401	0.347763
C105	C	0.410543	0.666735	0.681097
C106	C	-0.268291	0.000056	0.102591
C107	C	0.065042	0.333390	0.435924
C108	C	0.398376	0.666723	0.769258
C109	C	-0.217876	0.000053	0.103104
C110	C	0.115458	0.333387	0.436437
C111	C	0.448791	0.666720	0.769770
C112	C	-0.186585	0.000063	0.059278
C113	C	0.146748	0.333397	0.392612
C114	C	0.480081	0.666730	0.725945
C115	C	0.346761	0.000036	0.108839
C116	C	0.680094	0.333369	0.442172
C117	C	1.013428	0.666702	0.775505
C118	C	0.397178	0.000030	0.109347
C119	C	0.730511	0.333363	0.442681
C120	C	1.063845	0.666696	0.776014
C121	C	0.409341	0.000044	0.021186
C122	C	0.742674	0.333378	0.354520
C123	C	1.076008	0.666711	0.687853
C124	C	0.358929	0.000048	0.020678
C125	C	0.692262	0.333381	0.354011
C126	C	1.025595	0.666714	0.687344
C127	C	0.327639	0.000045	0.064508
C128	C	0.660973	0.333378	0.397841
C129	C	0.994306	0.666712	0.731175
O130	O	0.284343	0.000045	-0.017592
O131	O	0.617676	0.333378	0.315741
O132	O	0.951009	0.666712	0.649075
O133	O	0.261794	0.000045	0.145518
O134	O	0.595128	0.333379	0.478851
O135	O	0.928461	0.666712	0.812184
C136	C	0.039242	0.000055	0.105716
C137	C	0.372575	0.333389	0.439050
C138	C	0.705908	0.666722	0.772383
C139	C	0.020120	0.000065	0.061382
C140	C	0.353454	0.333399	0.394715
C141	C	0.686787	0.666732	0.728049
C142	C	0.051411	0.000071	0.017560
C143	C	0.384744	0.333405	0.350893
C144	C	0.718078	0.666738	0.684226
C145	C	-0.030294	0.000065	0.060869
C146	C	0.303039	0.333398	0.394202
C147	C	0.636373	0.666731	0.727536
C148	C	-0.061585	0.000059	0.104691
C149	C	0.271749	0.333392	0.438025
C150	C	0.605082	0.666725	0.771358
C151	C	-0.042461	0.000053	0.149026
C152	C	0.290872	0.333387	0.482360
C153	C	0.624206	0.666720	0.815693
C154	C	0.007951	0.000049	0.149539
C155	C	0.341284	0.333383	0.482872
C156	C	0.674618	0.666716	0.816205
C157	C	0.032287	0.000077	-0.026775
C158	C	0.365621	0.333410	0.306558
C159	C	0.698954	0.666743	0.639891
C160	C	-0.018125	0.000080	-0.027284
C161	C	0.315208	0.333413	0.306049
C162	C	0.648541	0.666747	0.639383
C163	C	-0.049416	0.000074	0.016538
C164	C	0.283917	0.333407	0.349871
C165	C	0.617251	0.666741	0.683205
C166	C	0.658931	0.000060	0.057699
C167	C	0.992264	0.333393	0.391033
C168	C	1.325598	0.666726	0.724366
C169	C	0.712586	0.000062	0.058252
C170	C	1.045919	0.333395	0.391586
C171	C	1.379252	0.666729	0.724919
N172	N	0.570549	-0.129196	0.061867
N173	N	0.903883	0.204137	0.395201
N174	N	1.237216	0.537471	0.728534
C175	C	0.603640	0.473932	0.028781
C176	C	0.936973	0.807266	0.362115
C177	C	1.270307	1.140599	0.695448
C178	C	0.603652	0.682810	0.028774
C179	C	0.936985	1.016143	0.362107
C180	C	1.270318	1.349477	0.695441
O181	O	0.631801	0.709820	0.000613
O182	O	0.965135	1.043154	0.333946
O183	O	1.298468	1.376487	0.667280
N184	N	0.570539	0.708925	0.061870
N185	N	0.903873	1.042259	0.395204
N186	N	1.237206	1.375592	0.728537
C187	C	0.537419	0.682818	0.094969
C188	C	0.870753	1.016151	0.428302
C189	C	1.204086	1.349485	0.761636
O190	O	0.509252	0.709824	0.123116
O191	O	0.842585	1.043157	0.456450
O192	O	1.175919	1.376490	0.789783
C193	C	0.537406	0.473941	0.094974
C194	C	0.870739	0.807275	0.428307
C195	C	1.204073	1.140608	0.761640
C196	C	0.570524	0.447829	0.061878
C197	C	0.903857	0.781162	0.395212
C198	C	1.237191	1.114495	0.728545
C199	C	0.636755	0.447819	-0.004312
C200	C	0.970088	0.781153	0.329022
C201	C	1.303422	1.114486	0.662355
C202	C	0.636754	0.395603	-0.004308
C203	C	0.970087	0.728936	0.329025
C204	C	1.303420	1.062270	0.662359
C205	C	0.603637	0.369500	0.028789
C206	C	0.936971	0.702833	0.362123
C207	C	1.270304	1.036166	0.695456
C208	C	0.570522	0.395612	0.061882
C209	C	0.903856	0.728946	0.395216
C210	C	1.237189	1.062279	0.728549
C211	C	0.504284	0.447835	0.128070
C212	C	0.837618	0.781168	0.461403
C213	C	1.170951	1.114502	0.794736
C214	C	0.504283	0.395613	0.128067
C215	C	0.837616	0.728946	0.461401
C216	C	1.170950	1.062279	0.794734
C217	C	0.537401	0.369500	0.094972
C218	C	0.870734	0.702833	0.428305
C219	C	1.204068	1.036167	0.761638
C220	C	0.537405	0.317293	0.094983
C221	C	0.870738	0.650626	0.428317
C222	C	1.204071	0.983959	0.761650
N223	N	0.570517	0.291177	0.061887
N224	N	0.903850	0.624510	0.395220
N225	N	1.237184	0.957844	0.728553
C226	C	0.603633	0.317281	0.028790
C227	C	0.936967	0.650614	0.362123
C228	C	1.270300	0.983947	0.695456
C229	C	0.537429	0.792481	0.094965
C230	C	0.870763	1.125815	0.428298
C231	C	1.204096	1.459148	0.761632
C232	C	0.537433	0.844700	0.094964
C233	C	0.870767	1.178034	0.428298
C234	C	1.204100	1.511367	0.761631
C235	C	0.603665	0.844689	0.028768
C236	C	0.936998	1.178022	0.362102
C237	C	1.270332	1.511355	0.695435
C238	C	0.603663	0.792469	0.028772
C239	C	0.936996	1.125802	0.362105
C240	C	1.270330	1.459135	0.695438
C241	C	0.570542	0.766366	0.061868
C242	C	0.903875	1.099699	0.395202
C243	C	1.237209	1.433033	0.728535
C244	C	0.603628	0.207623	0.028801
C245	C	0.936961	0.540956	0.362134
C246	C	1.270295	0.874289	0.695467
C247	C	0.603625	0.155402	0.028809
C248	C	0.936958	0.488735	0.362142
C249	C	1.270292	0.822068	0.695476
C250	C	0.537392	0.155418	0.095003
C251	C	0.870725	0.488751	0.428336
C252	C	1.204058	0.822085	0.761670
C253	C	0.537396	0.207635	0.094997
C254	C	0.870730	0.540968	0.428330
C255	C	1.204063	0.874301	0.761663
C256	C	0.570516	0.233735	0.061892
C257	C	0.903850	0.567069	0.395225
C258	C	1.237183	0.900402	0.728558
O259	O	0.509266	0.290250	0.123126
O260	O	0.842599	0.623583	0.456459
O261	O	1.175933	0.956916	0.789792
O262	O	0.631789	0.290266	0.000640
O263	O	0.965123	0.623599	0.333973
O264	O	1.298456	0.956933	0.667306
C265	C	0.603642	0.526149	0.028777
C266	C	0.936975	0.859482	0.362111
C267	C	1.270308	1.192815	0.695444
C268	C	0.570527	0.552261	0.061870
C269	C	0.903860	0.885595	0.395204
C270	C	1.237193	1.218928	0.728537
C271	C	0.537410	0.526158	0.094968
C272	C	0.870744	0.859491	0.428301
C273	C	1.204077	1.192824	0.761634
C274	C	0.570531	0.604480	0.061870
C275	C	0.903864	0.937814	0.395203
C276	C	1.237197	1.271147	0.728537
C277	C	0.603647	0.630584	0.028773
C278	C	0.936980	0.963917	0.362106
C279	C	1.270314	1.297250	0.695440
C280	C	0.636759	0.604468	-0.004324
C281	C	0.970093	0.937802	0.329010
C282	C	1.303426	1.271135	0.662343
C283	C	0.636758	0.552252	-0.004320
C284	C	0.970091	0.885585	0.329014
C285	C	1.303425	1.218919	0.662347
C286	C	0.504298	0.552273	0.128064
C287	C	0.837631	0.885606	0.461397
C288	C	1.170965	1.218940	0.794731
C289	C	0.504303	0.604489	0.128058
C290	C	0.837636	0.937823	0.461391
C291	C	1.170969	1.271156	0.794724
C292	C	0.537419	0.630593	0.094961
C293	C	0.870752	0.963926	0.428294
C294	C	1.204086	1.297260	0.761627
C295	C	0.614867	0.000045	-0.418985
C296	C	0.948201	0.333379	-0.085652
C297	C	1.281534	0.666712	0.247682
C298	C	0.612816	0.000038	-0.620645
C299	C	0.946150	0.333372	-0.287311
C300	C	1.279483	0.666705	0.046022
O301	O	0.650037	0.000021	-0.651900
O302	O	0.983370	0.333354	-0.318567
O303	O	1.316704	0.666687	0.014766
N304	N	0.568481	0.000034	-0.639768
N305	N	0.901814	0.333367	-0.306435
N306	N	1.235148	0.666700	0.026898
C307	C	0.524656	0.000028	-0.608474
C308	C	0.857989	0.333361	-0.275140
C309	C	1.191322	0.666694	0.058193
O310	O	0.486899	0.000019	-0.629367
O311	O	0.820232	0.333352	-0.296033
O312	O	1.153565	0.666685	0.037300
C313	C	0.526707	0.000031	-0.406815
C314	C	0.860040	0.333365	-0.073482
C315	C	1.193374	0.666698	0.259852
C316	C	0.571045	0.000041	-0.387694
C317	C	0.904378	0.333374	-0.054361
C318	C	1.237712	0.666708	0.278972
C319	C	0.659202	0.000054	-0.399864
C320	C	0.992535	0.333388	-0.066530
C321	C	1.325868	0.666721	0.266803
C322	C	0.659714	0.000059	-0.349452
C323	C	0.993047	0.333392	-0.016118
C324	C	1.326381	0.666726	0.317215
C325	C	0.615892	0.000054	-0.318161
C326	C	0.949225	0.333388	0.015172
C327	C	1.282559	0.666721	0.348506
C328	C	0.571557	0.000045	-0.337282
C329	C	0.904891	0.333379	-0.003949
C330	C	1.238224	0.666712	0.329384
C331	C	0.482882	0.000022	-0.375521
C332	C	0.816215	0.333355	-0.042188
C333	C	1.149549	0.666688	0.291145
C334	C	0.483399	0.000021	-0.325104
C335	C	0.816732	0.333355	0.008229
C336	C	1.150066	0.666688	0.341563
C337	C	0.527737	0.000031	-0.305983
C338	C	0.861070	0.333364	0.027350
C339	C	1.194404	0.666698	0.360683
C340	C	0.528247	0.000045	-0.255580
C341	C	0.861581	0.333379	0.077754
C342	C	1.194914	0.666712	0.411087
N343	N	0.572583	0.000050	-0.236456
N344	N	0.905916	0.333383	0.096877
N345	N	1.239249	0.666717	0.430211
C346	C	0.616405	0.000054	-0.267747
C347	C	0.949738	0.333388	0.065587
C348	C	1.283072	0.666721	0.398920
C349	C	0.523582	0.000027	-0.714348
C350	C	0.856915	0.333360	-0.381014
C351	C	1.190248	0.666693	-0.047681
C352	C	0.523069	0.000027	-0.764762
C353	C	0.856402	0.333360	-0.431429
C354	C	1.189735	0.666693	-0.098096
C355	C	0.611230	0.000036	-0.776930
C356	C	0.944563	0.333370	-0.443596
C357	C	1.277896	0.666703	-0.110263
C358	C	0.611742	0.000040	-0.726514
C359	C	0.945075	0.333373	-0.393181
C360	C	1.278409	0.666707	-0.059848
C361	C	0.567917	0.000031	-0.695224
C362	C	0.901250	0.333365	-0.361891
C363	C	1.234583	0.666698	-0.028557
C364	C	0.617477	0.000064	-0.161878
C365	C	0.950811	0.333398	0.171456
C366	C	1.284144	0.666731	0.504789
C367	C	0.617986	0.000071	-0.111461
C368	C	0.951319	0.333404	0.221873
C369	C	1.284652	0.666738	0.555206
C370	C	0.529825	0.000059	-0.099298
C371	C	0.863158	0.333392	0.234036
C372	C	1.196492	0.666725	0.567369
C373	C	0.529316	0.000055	-0.149710
C374	C	0.862650	0.333388	0.183623
C375	C	1.195983	0.666721	0.516957
C376	C	0.573147	0.000056	-0.180999
C377	C	0.906480	0.333389	0.152334
C378	C	1.239813	0.666723	0.485667
O379	O	0.491047	0.000057	-0.224296
O380	O	0.824380	0.333391	0.109038
O381	O	1.157713	0.666724	0.442371
O382	O	0.654156	0.000053	-0.246844
O383	O	0.987490	0.333386	0.086489
O384	O	1.320823	0.666719	0.419823
C385	C	0.614355	0.000041	-0.469397
C386	C	0.947688	0.333374	-0.136064
C387	C	1.281022	0.666708	0.197270
C388	C	0.570021	0.000032	-0.488518
C389	C	0.903354	0.333365	-0.155185
C390	C	1.236687	0.666699	0.178148
C391	C	0.526198	0.000027	-0.457228
C392	C	0.859532	0.333361	-0.123894
C393	C	1.192865	0.666694	0.209439
C394	C	0.569508	0.000032	-0.538933
C395	C	0.902841	0.333365	-0.205599
C396	C	1.236174	0.666699	0.127734
C397	C	0.613330	0.000036	-0.570223
C398	C	0.946663	0.333370	-0.236890
C399	C	1.279996	0.666703	0.096443
C400	C	0.657665	0.000041	-0.551100
C401	C	0.990998	0.333374	-0.217766
C402	C	1.324332	0.666708	0.115567
C403	C	0.658177	0.000045	-0.500688
C404	C	0.991511	0.333379	-0.167354
C405	C	1.324844	0.666712	0.165979
C406	C	0.481863	0.000023	-0.476351
C407	C	0.815197	0.333356	-0.143018
C408	C	1.148530	0.666690	0.190315
C409	C	0.481355	0.000019	-0.526764
C410	C	0.814688	0.333352	-0.193430
C411	C	1.148021	0.666686	0.139903
C412	C	0.525177	0.000023	-0.558054
C413	C	0.858510	0.333357	-0.224721
C414	C	1.191843	0.666690	0.108612
C415	C	0.566338	0.000039	0.150292
C416	C	0.899671	0.333372	0.483626
C417	C	1.233005	0.666705	0.816959
C418	C	0.566891	0.000031	0.203947
C419	C	0.900224	0.333365	0.537280
C420	C	1.233557	0.666698	0.870614
H421	H	0.412743	0.000021	0.145454
H422	H	0.746076	0.333354	0.478787
H423	H	1.079410	0.666687	0.812121
Br424	Br	-0.282067	0.000067	-0.045745
Br425	Br	0.051267	0.333401	0.287588
Br426	Br	0.384600	0.666734	0.620921
H427	H	0.663725	0.530995	-0.031269
H428	H	0.997059	0.864328	0.302064
H429	H	1.330392	1.197661	0.635397
Br430	Br	0.422705	0.000007	-0.401458
Br431	Br	0.756038	0.333340	-0.068124
Br432	Br	1.089372	0.666673	0.265209
H433	H	0.663726	0.625730	-0.031271
H434	H	0.997059	0.959064	0.302062
H435	H	1.330392	1.292397	0.635396
H436	H	0.663722	0.469068	-0.031266
H437	H	0.997056	0.802402	0.302068
H438	H	1.330389	1.135735	0.635401
Br439	Br	0.459356	0.639923	0.172980
Br440	Br	0.792689	0.973256	0.506313
Br441	Br	1.126022	1.306589	0.839647
Br442	Br	-0.163250	0.000083	-0.044540
Br443	Br	0.170083	0.333416	0.288793
Br444	Br	0.503416	0.666749	0.622126
H445	H	0.693347	0.000047	-0.576585
H446	H	1.026680	0.333380	-0.243252
H447	H	1.360013	0.666713	0.090081
Br448	Br	0.492494	0.880133	0.139889
Br449	Br	0.825827	1.213467	0.473222
Br450	Br	1.159161	1.546800	0.806556
H451	H	0.486964	0.000028	-0.780325
H452	H	0.820297	0.333361	-0.446992
H453	H	1.153631	0.666694	-0.113659
H454	H	0.057760	0.000083	-0.062462
H455	H	0.391093	0.333416	0.270872
H456	H	0.724427	0.666749	0.604205
H457	H	0.321291	0.000035	0.144530
H458	H	0.654624	0.333368	0.477863
H459	H	0.987957	0.666702	0.811196
Br460	Br	0.421176	0.000010	-0.552706
Br461	Br	0.754509	0.333343	-0.219373
Br462	Br	1.087842	0.666677	0.113960
Br463	Br	0.459350	0.516854	0.172985
Br464	Br	0.792683	0.850187	0.506319
Br465	Br	1.126017	1.183520	0.839652
Br466	Br	0.676962	0.000065	-0.204334
Br467	Br	1.010295	0.333399	0.129000
Br468	Br	1.343628	0.666732	0.462333
Br469	Br	0.492456	0.243072	0.139920
Br470	Br	0.825789	0.576405	0.473253
Br471	Br	1.159122	0.909738	0.806586
Br472	Br	-0.044068	0.000086	-0.087463
Br473	Br	0.289266	0.333419	0.245870
Br474	Br	0.622599	0.666752	0.579204
H475	H	0.510457	0.771232	0.121917
H476	H	0.843791	1.104565	0.455251
H477	H	1.177124	1.437899	0.788584
Br478	Br	0.423918	0.000007	-0.282641
Br479	Br	0.757251	0.333341	0.050692
Br480	Br	1.090585	0.666674	0.384025
Br481	Br	0.464098	0.000014	-0.671889
Br482	Br	0.797432	0.333347	-0.338556
Br483	Br	1.130765	0.666681	-0.005222
H484	H	0.493213	0.000061	-0.165279
H485	H	0.826546	0.333394	0.168055
H486	H	1.159879	0.666728	0.501388
H487	H	0.646911	0.000040	-0.802415
H488	H	0.980245	0.333374	-0.469082
H489	H	1.313578	0.666707	-0.135749
Br490	Br	0.719890	0.000058	-0.323510
Br491	Br	1.053224	0.333391	0.009823
Br492	Br	1.386557	0.666725	0.343156
Br493	Br	0.648577	0.243037	-0.016128
Br494	Br	0.981910	0.576370	0.317205
Br495	Br	1.315244	0.909704	0.650538
Br496	Br	0.718683	0.000060	-0.442321
Br497	Br	1.052017	0.333393	-0.108988
Br498	Br	1.385350	0.666727	0.224345
Br499	Br	0.648610	0.757036	-0.016145
Br500	Br	0.981944	1.090369	0.317188
Br501	Br	1.315277	1.423702	0.650521
Br502	Br	0.671917	0.000054	-0.700570
Br503	Br	1.005250	0.333387	-0.367237
Br504	Br	1.338584	0.666721	-0.033904
H505	H	0.174750	0.000029	0.187180
H506	H	0.508083	0.333362	0.520513
H507	H	0.841417	0.666696	0.853847
Br508	Br	0.470355	0.000053	-0.056822
Br509	Br	0.803688	0.333386	0.276511
Br510	Br	1.137022	0.666719	0.609844
H511	H	-0.293777	0.000051	0.138273
H512	H	0.039557	0.333385	0.471606
H513	H	0.372890	0.666718	0.804939
Br514	Br	0.066317	0.000033	0.210045
Br515	Br	0.399651	0.333367	0.543378
Br516	Br	0.732984	0.666700	0.876711
H517	H	-0.202311	0.000047	0.139207
H518	H	0.131022	0.333381	0.472541
H519	H	0.464355	0.666714	0.805874
Br520	Br	0.678163	0.000085	-0.085514
Br521	Br	1.011496	0.333418	0.247819
Br522	Br	1.344830	0.666751	0.581152
H523	H	0.117558	0.000088	-0.061861
H524	H	0.450892	0.333421	0.271472
H525	H	0.784225	0.666755	0.604805
H526	H	0.023514	0.000042	0.185643
H527	H	0.356847	0.333375	0.518977
H528	H	0.690181	0.666708	0.852310
H529	H	0.630630	0.865951	0.001820
H530	H	0.963964	1.199284	0.335153
H531	H	1.297297	1.532617	0.668487
Br532	Br	0.459328	0.360191	0.172985
Br533	Br	0.792661	0.693525	0.506319
Br534	Br	1.125995	1.026858	0.839652
H535	H	0.209009	0.000089	-0.060929
H536	H	0.542343	0.333422	0.272405
H537	H	0.875676	0.666755	0.605738
H538	H	0.343360	0.000049	-0.015426
H539	H	0.676693	0.333382	0.317907
H540	H	1.010027	0.666715	0.651241
Br541	Br	-0.084937	0.000041	0.208499
Br542	Br	0.248396	0.333375	0.541832
Br543	Br	0.581730	0.666708	0.875165
H544	H	0.630595	0.134142	0.001859
H545	H	0.963929	0.467476	0.335192
H546	H	1.297262	0.800809	0.668525
H547	H	0.663720	0.374345	-0.031258
H548	H	0.997053	0.707679	0.302075
H549	H	1.330386	1.041012	0.635408
H550	H	0.434827	0.000047	-0.014492
H551	H	0.768160	0.333381	0.318841
H552	H	1.101494	0.666714	0.652174
Br553	Br	0.492451	0.119984	0.139920
Br554	Br	0.825784	0.453317	0.473254
Br555	Br	1.159118	0.786650	0.806587
H556	H	0.477317	0.469089	0.155019
H557	H	0.810650	0.802422	0.488352
H558	H	1.143983	1.135756	0.821685
H559	H	0.694282	0.000053	-0.485125
H560	H	1.027615	0.333386	-0.151791
H561	H	1.360949	0.666720	0.181542
H562	H	0.446177	0.000018	-0.450879
H563	H	0.779510	0.333351	-0.117545
H564	H	1.112844	0.666685	0.215788
