data_functionalizedCrystal
_audit_creation_method	'MofGen! by Chris Wilmer'
_symmetry_space_group_name_H-M	'P1'
_symmetry_Int_Tables_number	1
_symmetry_cell_setting	triclinic
loop_
_symmetry_equiv_pos_as_xyz
  x,y,z
_cell_length_a	17.699083
_cell_length_b	15.538191
_cell_length_c	16.776229
_cell_angle_alpha	89.995703
_cell_angle_beta	89.998886
_cell_angle_gamma	65.277554
loop_
_atom_site_label
_atom_site_type_symbol
_atom_site_fract_x
_atom_site_fract_y
_atom_site_fract_z
O1	O	0.971508	0.119201	-0.066172
O2	O	0.746892	0.134709	-0.066198
O3	O	0.902923	-0.010275	-0.066184
O4	O	0.815476	0.264184	-0.066186
O5	O	0.902910	-0.010283	0.066393
O6	O	0.746879	0.134700	0.066379
O7	O	0.971495	0.119192	0.066404
Zn8	Zn	0.859185	0.126945	0.087441
Zn9	Zn	0.859202	0.126956	-0.087235
O10	O	0.815463	0.264176	0.066390
C11	C	0.718840	0.134149	0.000087
C12	C	0.635277	0.132482	0.000077
C13	C	0.563403	0.217584	0.000077
C14	C	0.484889	0.216012	0.000087
C15	C	0.478252	0.129337	0.000092
C16	C	0.550134	0.044228	0.000095
C17	C	0.628646	0.045801	0.000090
C18	C	0.233505	0.037882	0.000115
C19	C	0.154985	0.036316	0.000117
C20	C	0.089748	0.208094	0.000111
C21	C	0.168260	0.209667	0.000107
C22	C	0.240135	0.124558	0.000114
C23	C	0.325269	0.126264	0.000104
C24	C	0.393120	0.127630	0.000096
C25	C	0.912066	-0.045395	0.000103
C26	C	0.939318	-0.150032	0.000098
C27	C	0.668571	-0.437202	0.000084
C28	C	0.694198	-0.535527	0.000089
C29	C	0.838344	-0.558300	0.000105
C30	C	0.812729	-0.459975	0.000096
C31	C	0.727842	-0.399434	0.000087
C32	C	0.872000	-0.422207	0.000099
C33	C	0.846387	-0.323891	0.000095
C34	C	0.761503	-0.263343	0.000087
C35	C	0.702229	-0.301118	0.000082
C36	C	0.956887	-0.482750	0.000114
C37	C	1.016158	-0.444981	0.000117
C38	C	0.990545	-0.346663	0.000107
C39	C	0.905661	-0.286116	0.000100
C40	C	1.049819	-0.308889	0.000112
C41	C	1.024206	-0.210573	0.000107
C42	C	0.880048	-0.187800	0.000095
C43	C	0.999546	0.119752	0.000117
C44	C	1.083109	0.121419	0.000122
C45	C	0.806321	0.299297	0.000102
C46	C	0.779068	0.403933	0.000101
N47	N	0.859179	0.126936	0.206652
N48	N	0.859216	0.126957	-0.206446
C49	C	0.928278	0.062764	0.248375
C50	C	0.928282	0.062763	0.331827
C51	C	0.859189	0.126940	0.373555
C52	C	0.790084	0.191115	0.331826
C53	C	0.790078	0.191111	0.248375
C54	C	0.790106	0.191134	0.668373
C55	C	0.790118	0.191135	0.751829
C56	C	0.928310	0.062786	0.751825
C57	C	0.928304	0.062781	0.668375
C58	C	0.859198	0.126953	0.626653
C59	C	0.859193	0.126952	0.536164
C60	C	0.859195	0.126946	0.464042
H61	H	0.544725	-0.026345	0.000111
H62	H	0.810924	-0.138503	0.000082
H63	H	0.984547	0.010508	0.365798
C64	C	0.714107	0.261742	0.622485
H65	H	0.723993	0.252552	0.566809
H66	H	0.705063	0.324631	0.636163
H67	H	0.666378	0.251597	0.636164
C68	C	0.985066	-0.590896	0.000121
H69	H	1.044109	-0.621543	0.000139
H70	H	0.964250	-0.608937	-0.046113
H71	H	0.964233	-0.608929	0.046357
C72	C	0.733322	-0.155196	0.000083
H73	H	0.674278	-0.124552	0.000083
H74	H	0.754151	-0.137156	-0.046146
H75	H	0.754140	-0.137161	0.046324
C76	C	1.004305	-0.007816	0.622479
H77	H	1.045456	-0.046042	0.659280
H78	H	1.026505	0.026038	0.589914
H79	H	0.987839	-0.047015	0.589935
H80	H	0.599448	-0.387905	0.000070
C81	C	0.570701	0.312926	0.000068
H82	H	0.627753	0.301677	0.000058
H83	H	0.544432	0.347958	0.046300
H84	H	0.544427	0.347958	-0.046170
H85	H	0.687169	-0.023498	0.000090
C86	C	0.714083	0.261710	0.377724
H87	H	0.723986	0.252530	0.433400
H88	H	0.666362	0.251554	0.364057
H89	H	0.705025	0.324609	0.364037
C90	C	0.405827	0.309622	0.000078
H91	H	0.358117	0.296275	0.000090
H92	H	0.405291	0.345167	-0.046159
H93	H	0.405292	0.345173	0.046312
H94	H	0.733809	0.243365	0.214405
C95	C	1.004323	-0.007813	0.797721
H96	H	0.994431	0.001370	0.853398
H97	H	1.052040	0.002346	0.784039
H98	H	1.013380	-0.070713	0.784049
H99	H	1.085273	-0.494287	0.000128
H100	H	0.733851	0.243398	0.785803
C101	C	0.175557	0.305009	0.000104
H102	H	0.121505	0.355469	0.000114
H103	H	0.204827	0.309199	-0.046128
H104	H	0.204830	0.309184	0.046343
H105	H	0.149589	-0.034270	0.000122
C106	C	0.312557	-0.055733	0.000117
H107	H	0.297356	-0.107576	0.000112
H108	H	0.344543	-0.058696	0.046349
H109	H	0.344539	-0.058690	-0.046122
H110	H	1.072470	-0.179822	0.000111
H111	H	0.031216	0.277393	0.000110
C112	C	0.608854	-0.234512	0.000067
H113	H	0.602093	-0.170551	0.000060
H114	H	0.583426	-0.245944	0.046294
H115	H	0.583444	-0.245943	-0.046177
C116	C	0.628995	-0.577069	0.000074
H117	H	0.574773	-0.526929	0.000060
H118	H	0.635981	-0.614953	0.046305
H119	H	0.635998	-0.614943	-0.046166
C120	C	1.143189	-0.375486	0.000127
H121	H	1.174821	-0.338911	0.000133
H122	H	1.156185	-0.414319	-0.046099
H123	H	1.156168	-0.414305	0.046371
C124	C	1.004281	-0.007833	0.202482
H125	H	1.045430	-0.046058	0.239287
H126	H	1.026482	0.026020	0.169919
H127	H	0.987818	-0.047034	0.169938
H128	H	0.907460	-0.607605	0.000116
