data_functionalizedCrystal
_audit_creation_method	'MofGen! by Chris Wilmer'
_symmetry_space_group_name_H-M	'P1'
_symmetry_Int_Tables_number	1
_symmetry_cell_setting	triclinic
loop_
_symmetry_equiv_pos_as_xyz
  x,y,z
_cell_length_a	16.625546
_cell_length_b	18.215407
_cell_length_c	18.215399
_cell_angle_alpha	90.019833
_cell_angle_beta	89.970824
_cell_angle_gamma	89.977084
loop_
_atom_site_label
_atom_site_type_symbol
_atom_site_fract_x
_atom_site_fract_y
_atom_site_fract_z
Zn1	Zn	-0.321000	-1.125084	-0.416110
Zn2	Zn	-0.455841	-1.124998	-0.293041
Zn3	Zn	-0.321027	-1.002017	-0.293057
Zn4	Zn	-0.455796	-1.001988	-0.416066
O5	O	-0.388416	-1.063522	-0.354568
O6	O	-0.338895	-1.228057	-0.399796
O7	O	-0.437987	-1.108660	-0.190059
O8	O	-0.208191	-1.018390	-0.309405
O9	O	-0.437961	-1.227994	-0.309378
O10	O	-0.208171	-1.108807	-0.399812
O11	O	-0.338940	-1.018307	-0.190070
O12	O	-0.338896	-0.899029	-0.309363
O13	O	-0.437885	-1.018341	-0.519056
O14	O	-0.437910	-0.899008	-0.399737
O15	O	-0.338851	-1.108779	-0.519088
O16	O	-0.568667	-1.108632	-0.309335
O17	O	-0.568634	-1.018257	-0.399721
C18	C	-0.388402	-0.872315	-0.354547
C19	C	-0.388415	-0.790517	-0.354556
C20	C	-0.597907	-1.063452	-0.354537
C21	C	-0.687528	-1.063490	-0.354549
C22	C	-0.388360	-1.063567	-0.546521
C23	C	-0.388336	-1.063586	-0.628320
C24	C	-1.015703	-1.063618	-0.354625
C25	C	-0.924395	-1.063580	-0.354606
C26	C	-0.851618	-1.063553	-0.354587
C27	C	-0.760304	-1.063516	-0.354568
C28	C	-0.178107	-1.063612	-0.354615
C29	C	-0.088486	-1.063650	-0.354635
C30	C	-0.388430	-1.255475	-0.354590
C31	C	-0.388436	-1.337274	-0.354599
C32	C	-0.440053	-0.602331	-0.401554
C33	C	-0.440056	-0.525472	-0.401563
C34	C	-0.336793	-0.525465	-0.307598
C35	C	-0.336787	-0.602322	-0.307593
C36	C	-0.388422	-0.640753	-0.354570
C37	C	-0.388430	-0.487037	-0.354584
C38	C	-0.388433	-0.403703	-0.354594
C39	C	-0.388418	-0.724092	-0.354562
C40	C	-0.336721	-1.110694	-0.816532
C41	C	-0.336698	-1.110703	-0.893391
C42	C	-0.439827	-1.016530	-0.893346
C43	C	-0.439846	-1.016518	-0.816489
C44	C	-0.388294	-1.063604	-0.778084
C45	C	-0.388252	-1.063625	-0.931800
C46	C	-0.388227	-1.063634	-1.015134
C47	C	-0.388318	-1.063594	-0.694745
C48	C	-0.388413	-1.063519	-0.163362
C49	C	-0.388209	-1.063643	-0.081563
H50	H	-0.482096	-0.633619	-0.439808
H51	H	-0.482098	-0.494192	-0.439823
H52	H	-0.294755	-0.494165	-0.269350
O53	O	-0.286544	-0.639683	-0.262054
C54	C	-0.177699	-0.726524	-0.252326
C55	C	-0.234534	-0.684245	-0.303976
H56	H	-0.135646	-0.762574	-0.286198
H57	H	-0.140741	-0.685889	-0.218759
H58	H	-0.214681	-0.762448	-0.213771
H59	H	-0.197615	-0.648320	-0.342576
H60	H	-0.271495	-0.724920	-0.337491
O61	O	-0.286565	-1.156450	-0.779339
C62	C	-0.184303	-1.249884	-0.787499
C63	C	-0.241054	-1.198092	-0.829709
H64	H	-0.147504	-1.283576	-0.828205
H65	H	-0.142096	-1.216142	-0.751541
H66	H	-0.221342	-1.288315	-0.751494
H67	H	-0.204079	-1.159650	-0.865753
H68	H	-0.283262	-1.231880	-0.865620
O69	O	-0.286513	-1.156341	-0.930770
C70	C	-0.177652	-1.166297	-1.017597
C71	C	-0.234430	-1.114528	-0.975300
H72	H	-0.135540	-1.132513	-1.053621
H73	H	-0.140754	-1.199930	-0.976974
H74	H	-0.214675	-1.204784	-1.053549
H75	H	-0.197469	-1.075996	-0.939347
H76	H	-0.271331	-1.080946	-1.015963
H77	H	-0.481800	-0.978195	-0.924625
H78	H	-0.481842	-0.978166	-0.785183
