data_functionalizedCrystal
_audit_creation_method	'MofGen! by Chris Wilmer'
_symmetry_space_group_name_H-M	'P1'
_symmetry_Int_Tables_number	1
_symmetry_cell_setting	triclinic
loop_
_symmetry_equiv_pos_as_xyz
  x,y,z
_cell_length_a	19.805407
_cell_length_b	18.101395
_cell_length_c	19.805399
_cell_angle_alpha	90.025118
_cell_angle_beta	90.017803
_cell_angle_gamma	90.028420
loop_
_atom_site_label
_atom_site_type_symbol
_atom_site_fract_x
_atom_site_fract_y
_atom_site_fract_z
Zn1	Zn	1.034714	-0.294900	0.382699
Zn2	Zn	1.534714	0.205100	0.882699
Zn3	Zn	1.034619	-0.418743	0.269516
Zn4	Zn	1.534619	0.081257	0.769516
Zn5	Zn	0.921528	-0.294914	0.269527
Zn6	Zn	1.421528	0.205086	0.769527
Zn7	Zn	0.921482	-0.418698	0.382666
Zn8	Zn	1.421482	0.081302	0.882666
O9	O	0.978086	-0.356814	0.326102
O10	O	1.478086	0.143186	0.826102
O11	O	1.129418	-0.311341	0.367694
O12	O	1.629418	0.188659	0.867694
O13	O	1.019597	-0.402342	0.174801
O14	O	1.519597	0.097658	0.674801
O15	O	0.936601	-0.191280	0.284558
O16	O	1.436601	0.308720	0.784558
O17	O	1.129348	-0.402328	0.284539
O18	O	1.629348	0.097672	0.784539
O19	O	1.019758	-0.191269	0.367705
O20	O	1.519758	0.308731	0.867705
O21	O	0.936510	-0.311366	0.174809
O22	O	1.436510	0.188634	0.674809
O23	O	0.826806	-0.311322	0.284526
O24	O	1.326806	0.188678	0.784526
O25	O	0.936523	-0.402251	0.477387
O26	O	1.436523	0.097749	0.977387
O27	O	0.826772	-0.402265	0.367649
O28	O	1.326772	0.097735	0.867649
O29	O	1.019714	-0.311297	0.477411
O30	O	1.519714	0.188703	0.977411
O31	O	1.019553	-0.522370	0.284507
O32	O	1.519553	-0.022370	0.784507
O33	O	0.936432	-0.522337	0.367638
O34	O	1.436432	-0.022337	0.867638
C35	C	0.802230	-0.356791	0.326086
C36	C	1.302230	0.143209	0.826086
C37	C	0.726998	-0.356799	0.326095
C38	C	1.226998	0.143201	0.826095
C39	C	0.691690	-0.309505	0.369460
C40	C	1.191690	0.190495	0.869460
C41	C	0.621002	-0.309509	0.369462
C42	C	1.121002	0.190491	0.869462
C43	C	0.585622	-0.356811	0.326103
C44	C	1.085622	0.143189	0.826103
C45	C	0.620935	-0.404106	0.282733
C46	C	1.120935	0.095894	0.782733
C47	C	0.691622	-0.404098	0.282728
C48	C	1.191622	0.095902	0.782728
C49	C	0.335861	-0.404139	0.282754
C50	C	0.835861	0.095861	0.782754
C51	C	0.265169	-0.404146	0.282764
C52	C	0.765169	0.095854	0.782764
C53	C	0.265242	-0.309551	0.369488
C54	C	0.765242	0.190449	0.869488
C55	C	0.335929	-0.309543	0.369483
C56	C	0.835929	0.190457	0.869483
C57	C	0.371235	-0.356835	0.326111
C58	C	0.871235	0.143165	0.826111
C59	C	0.447883	-0.356829	0.326108
C60	C	0.947883	0.143171	0.826108
C61	C	0.508975	-0.356821	0.326109
C62	C	1.008975	0.143179	0.826109
C63	C	0.977995	-0.549225	0.326082
C64	C	1.477995	-0.049225	0.826082
C65	C	0.978018	-0.631539	0.326096
C66	C	1.478018	-0.131539	0.826096
C67	C	0.978167	-0.930630	0.326133
C68	C	1.478167	-0.430630	0.826133
C69	C	0.925991	-0.899314	0.378566
C70	C	1.425991	-0.399314	0.878566
C71	C	0.925743	-0.813696	0.378402
C72	C	1.425743	-0.313696	0.878402
C73	C	0.978093	-0.782247	0.326115
C74	C	1.478093	-0.282247	0.826115
C75	C	0.958782	-0.813394	0.254781
C76	C	1.458782	-0.313394	0.754781
C77	C	0.958446	-0.899040	0.255095
C78	C	1.458446	-0.399040	0.755095
C79	C	1.049768	-0.898978	0.344405
C80	C	1.549768	-0.398978	0.844405
C81	C	1.049347	-0.813327	0.345970
C82	C	1.549347	-0.313327	0.845970
C83	C	0.978053	-0.698388	0.326101
C84	C	1.478053	-0.198388	0.826101
C85	C	0.978206	-1.014489	0.326142
C86	C	1.478206	-0.514489	0.826142
C87	C	1.154629	-0.356838	0.326119
C88	C	1.654629	0.143162	0.826119
C89	C	1.229861	-0.356848	0.326126
C90	C	1.729861	0.143152	0.826126
C91	C	0.978124	-0.356767	0.502645
C92	C	1.478124	0.143233	1.002645
C93	C	0.978140	-0.356747	0.577877
C94	C	1.478140	0.143253	1.077877
C95	C	0.978195	-0.163652	0.326137
C96	C	1.478195	0.336348	0.826137
C97	C	0.978242	-0.081338	0.326152
C98	C	1.478242	0.418662	0.826152
C99	C	0.978087	-0.356807	0.150246
C100	C	1.478087	0.143193	0.650246
C101	C	0.978202	-0.356618	0.075015
C102	C	1.478202	0.143382	0.575015
C103	C	1.021458	-0.309385	0.613235
C104	C	1.521458	0.190615	1.113235
C105	C	1.021465	-0.309364	0.683923
C106	C	1.521465	0.190636	1.183923
C107	C	0.978157	-0.356709	0.719253
C108	C	1.478157	0.143291	1.219253
C109	C	0.934834	-0.404073	0.683890
C110	C	1.434834	0.095927	1.183890
C111	C	0.934824	-0.404090	0.613203
C112	C	1.434824	0.095910	1.113203
C113	C	0.934872	-0.404004	0.968963
C114	C	1.434872	0.095996	1.468963
C115	C	0.934887	-0.403985	1.039655
C116	C	1.434887	0.096015	1.539655
C117	C	1.021513	-0.309278	1.039684
C118	C	1.521513	0.190722	1.539684
C119	C	1.021503	-0.309295	0.968997
C120	C	1.521503	0.190705	1.468997
C121	C	0.978178	-0.356656	0.933640
C122	C	1.478178	0.143344	1.433640
C123	C	0.978170	-0.356678	0.856992
C124	C	1.478170	0.143322	1.356992
C125	C	0.978168	-0.356691	0.795900
C126	C	1.478168	0.143309	1.295900
H127	H	0.592123	-0.442616	0.247426
H128	H	1.092123	0.057384	0.747426
H129	H	0.720368	-0.442609	0.247415
H130	H	1.220368	0.057391	0.747415
Br131	Br	0.217154	-0.468345	0.223915
Br132	Br	0.717154	0.031655	0.723915
H133	H	1.088641	-0.919228	0.306216
H134	H	1.588641	-0.419228	0.806216
H135	H	0.906997	-0.792006	0.239025
H136	H	1.406997	-0.292006	0.739025
H137	H	0.899604	-0.442579	0.940184
H138	H	1.399604	0.057421	1.440184
Br139	Br	1.080285	-0.245043	0.921053
Br140	Br	1.580285	0.254957	1.421053
Br141	Br	1.080312	-0.244999	1.087672
Br142	Br	1.580312	0.255001	1.587672
H143	H	1.056741	-0.270798	0.712709
H144	H	1.556741	0.229202	1.212709
Br145	Br	0.876108	-0.468244	1.087602
Br146	Br	1.376108	0.031756	1.587602
Br147	Br	0.876053	-0.468323	0.731836
Br148	Br	1.376053	0.031677	1.231836
Br149	Br	0.945878	-0.778588	0.466562
Br150	Br	1.445878	-0.278588	0.966562
H151	H	0.899543	-0.442650	0.584415
H152	H	1.399543	0.057350	1.084415
H153	H	0.364731	-0.271027	0.404793
H154	H	0.864731	0.228973	0.904793
H155	H	0.236487	-0.271040	0.404801
H156	H	0.736487	0.228960	0.904801
Br157	Br	0.838072	-0.935307	0.358666
Br158	Br	1.338072	-0.435307	0.858666
Br159	Br	0.739699	-0.245312	0.428312
Br160	Br	1.239699	0.254688	0.928312
H161	H	1.063910	-0.792967	0.398468
H162	H	1.563910	-0.292967	0.898468
Br163	Br	0.383768	-0.468303	0.223875
Br164	Br	0.883768	0.031697	0.723875
H165	H	0.872670	-0.793270	0.366299
H166	H	1.372670	-0.293270	0.866299
Br167	Br	0.573087	-0.245323	0.428318
Br168	Br	1.073087	0.254677	0.928318
Br169	Br	0.945923	-0.933567	0.467015
Br170	Br	1.445923	-0.433567	0.967015
H171	H	0.994801	-0.919757	0.214696
H172	H	1.494801	-0.419757	0.714696
Br173	Br	0.871210	-0.932445	0.229295
Br174	Br	1.371210	-0.432445	0.729295
H175	H	0.995590	-0.793024	0.214649
H176	H	1.495590	-0.293024	0.714649
H177	H	1.067374	-0.920529	0.395536
H178	H	1.567374	-0.420529	0.895536
Br179	Br	1.080242	-0.245133	0.565295
Br180	Br	1.580242	0.254867	1.065295
H181	H	1.090278	-0.791915	0.310563
H182	H	1.590278	-0.291915	0.810563
