data_functionalizedCrystal
_audit_creation_method	'MofGen! by Chris Wilmer'
_symmetry_space_group_name_H-M	'P1'
_symmetry_Int_Tables_number	1
_symmetry_cell_setting	triclinic
loop_
_symmetry_equiv_pos_as_xyz
  x,y,z
_cell_length_a	16.959455
_cell_length_b	16.959454
_cell_length_c	11.169409
_cell_angle_alpha	90.031930
_cell_angle_beta	90.027508
_cell_angle_gamma	90.021117
loop_
_atom_site_label
_atom_site_type_symbol
_atom_site_fract_x
_atom_site_fract_y
_atom_site_fract_z
Zn1	Zn	-1.208434	0.314656	-0.678768
Zn2	Zn	-1.208331	0.446863	-0.478086
Zn3	Zn	-1.076243	0.314698	-0.478078
Zn4	Zn	-1.076221	0.446792	-0.678707
O5	O	-1.142307	0.380752	-0.578410
O6	O	-1.319031	0.332206	-0.652176
O7	O	-1.190775	0.429378	-0.310135
O8	O	-1.093831	0.204082	-0.504722
O9	O	-1.318955	0.429337	-0.504736
O10	O	-1.190951	0.204051	-0.652168
O11	O	-1.093731	0.332277	-0.310129
O12	O	-0.965629	0.332209	-0.504663
O13	O	-1.093793	0.429217	-0.846665
O14	O	-0.965613	0.429258	-0.652064
O15	O	-1.190930	0.332137	-0.846710
O16	O	-1.190753	0.557464	-0.504677
O17	O	-1.093693	0.557413	-0.652072
C18	C	-0.936941	0.380731	-0.578356
C19	C	-0.849084	0.380741	-0.578362
C20	C	-0.807795	0.330139	-0.501738
C21	C	-0.807820	0.431347	-0.654999
C22	C	-0.725274	0.431355	-0.655012
C23	C	-0.683985	0.380753	-0.578387
C24	C	-0.725242	0.330144	-0.501750
C25	C	-0.684011	0.481958	-0.731656
C26	C	-0.601460	0.481968	-0.731673
C27	C	-0.560169	0.431369	-0.655041
C28	C	-0.601431	0.380758	-0.578400
C29	C	-0.560142	0.330156	-0.501776
C30	C	-0.601403	0.279549	-0.425128
C31	C	-0.683951	0.279545	-0.425119
C32	C	-0.477621	0.431373	-0.655050
C33	C	-0.477589	0.330161	-0.501788
C34	C	-1.142231	0.586119	-0.578394
C35	C	-1.142270	0.673975	-0.578428
C36	C	-0.348475	0.380771	-0.578448
C37	C	-0.436332	0.380771	-0.578425
C38	C	-1.091808	1.045454	-0.655167
C39	C	-1.192960	1.045448	-0.501808
C40	C	-1.192937	0.962902	-0.501795
C41	C	-1.142347	0.921628	-0.578468
C42	C	-1.091781	0.962900	-0.655154
C43	C	-1.243496	0.921624	-0.425102
C44	C	-1.243474	0.839073	-0.425085
C45	C	-1.192888	0.797797	-0.501765
C46	C	-1.142320	0.839075	-0.578454
C47	C	-1.091731	0.797801	-0.655127
C48	C	-1.041167	0.839077	-0.731824
C49	C	-1.041195	0.921625	-0.731833
C50	C	-1.192860	0.715249	-0.501755
C51	C	-1.091704	0.715247	-0.655114
C52	C	-1.142370	0.380665	-0.891452
C53	C	-1.142397	0.380628	-1.024852
C54	C	-1.142393	1.174584	-0.578458
C55	C	-1.142397	1.086728	-0.578494
C56	C	-1.142289	0.380783	-0.266585
C57	C	-1.142416	0.380597	-0.133186
H58	H	-0.717634	0.523153	-0.794043
C59	C	-1.231408	0.689895	-0.298578
C60	C	-1.248431	0.669879	-0.417456
H61	H	-1.265721	0.661888	-0.246535
H62	H	-1.178307	0.676406	-0.280951
H63	H	-1.238665	0.744966	-0.287626
H64	H	-1.241168	0.614808	-0.428410
H65	H	-1.301545	0.683362	-0.435089
H66	H	-1.284678	0.955235	-0.362671
H67	H	-1.050642	1.079064	-0.717615
H68	H	-0.717553	0.238343	-0.362717
C69	C	-0.485940	0.531396	-0.806564
C70	C	-0.432267	0.486988	-0.739302
H71	H	-0.457940	0.565734	-0.858577
H72	H	-0.518165	0.496982	-0.852538
H73	H	-0.518108	0.561598	-0.754189
H74	H	-0.400103	0.456781	-0.791677
H75	H	-0.400029	0.521407	-0.693325
H76	H	-0.443977	0.288956	-0.439389
H77	H	-0.567775	0.238345	-0.362746
C78	C	-0.941186	0.847358	-0.883430
C79	C	-0.985561	0.793704	-0.816105
H80	H	-0.906856	0.819343	-0.935455
H81	H	-0.975620	0.879507	-0.929395
H82	H	-0.910975	0.879603	-0.831097
H83	H	-1.015776	0.761462	-0.868439
H84	H	-0.951122	0.761541	-0.770137
H85	H	-1.050511	0.681647	-0.717555
H86	H	-0.567872	0.523176	-0.794083
C87	C	-0.996313	1.048168	-0.799927
C88	C	-0.985610	0.966997	-0.816119
H89	H	-0.961991	1.076178	-0.851954
H90	H	-1.049412	1.061650	-0.817581
H91	H	-0.984779	1.061725	-0.719265
H92	H	-0.997150	0.953438	-0.896780
H93	H	-0.932499	0.953509	-0.798473
C94	C	-1.292941	1.037152	-0.350217
C95	C	-1.248564	1.090813	-0.417529
H96	H	-1.327266	1.065163	-0.298180
H97	H	-1.323148	1.004916	-0.402549
H98	H	-1.258501	1.004995	-0.304254
H99	H	-1.283004	1.122967	-0.463498
H100	H	-1.218355	1.123062	-0.365189
H101	H	-1.284646	0.805471	-0.362636
H102	H	-0.841442	0.472541	-0.717389
C103	C	-0.934320	0.285187	-0.433655
C104	C	-0.853144	0.274510	-0.417493
H105	H	-0.962315	0.250840	-0.381649
H106	H	-0.947820	0.338276	-0.415952
H107	H	-0.947878	0.273674	-0.514323
H108	H	-0.839585	0.286029	-0.336826
H109	H	-0.839639	0.221409	-0.435187
