data_functionalizedCrystal
_audit_creation_method	'MofGen! by Chris Wilmer'
_symmetry_space_group_name_H-M	'P1'
_symmetry_Int_Tables_number	1
_symmetry_cell_setting	triclinic
loop_
_symmetry_equiv_pos_as_xyz
  x,y,z
_cell_length_a	23.204063
_cell_length_b	23.204065
_cell_length_c	23.204116
_cell_angle_alpha	59.997987
_cell_angle_beta	89.998953
_cell_angle_gamma	60.000253
loop_
_atom_site_label
_atom_site_type_symbol
_atom_site_fract_x
_atom_site_fract_y
_atom_site_fract_z
O1	O	-0.491197	-0.412484	0.017135
O2	O	-0.407392	-0.294473	-0.017070
O3	O	-0.407389	-0.412483	0.100940
O4	O	-0.491200	-0.294474	-0.100875
O5	O	-0.311538	-0.508333	0.100940
O6	O	-0.311541	-0.390323	-0.017071
O7	O	-0.395346	-0.508335	0.017135
Cu8	Cu	-0.344692	-0.458081	0.000032
Cu9	Cu	-0.458046	-0.344727	0.000033
O10	O	-0.395349	-0.390324	-0.100876
C11	C	-0.310652	-0.181456	-0.024838
C12	C	-0.346214	-0.110333	-0.019942
C13	C	-0.241294	-0.215971	-0.025323
C14	C	-0.310655	-0.285810	-0.024846
C15	C	-0.346219	-0.326263	-0.019957
C16	C	-0.241297	-0.320167	-0.025331
C17	C	-0.206293	-0.285815	-0.024838
C18	C	-0.130274	-0.326273	-0.019941
C19	C	-0.345497	-0.215967	-0.025331
C20	C	-0.658540	-0.590043	0.035860
C21	C	-0.734559	-0.549588	0.030967
C22	C	-0.623539	-0.659889	0.036349
C23	C	-0.554183	-0.590040	0.035855
C24	C	-0.518621	-0.549582	0.030958
C25	C	-0.519339	-0.659886	0.036344
C26	C	-0.554182	-0.694402	0.035859
C27	C	-0.518619	-0.765527	0.030967
C28	C	-0.623539	-0.555686	0.036345
C29	C	-0.489889	-0.822989	0.027012
C30	C	-0.795974	-0.516903	0.027013
C31	C	-0.489891	-0.516895	0.027000
C32	C	-0.453845	-0.895077	0.022052
C33	C	-0.873022	-0.475899	0.022054
C34	C	-0.453848	-0.475888	0.022036
C35	C	-0.554187	-0.212776	-0.445775
C36	C	-0.518624	-0.253233	-0.481336
C37	C	-0.623545	-0.142931	-0.480619
C38	C	-0.554188	-0.212775	-0.341416
C39	C	-0.518626	-0.253231	-0.265397
C40	C	-0.623546	-0.142930	-0.376419
C41	C	-0.658547	-0.108416	-0.445777
C42	C	-0.734566	-0.037291	-0.481340
C43	C	-0.519344	-0.247131	-0.376417
C44	C	-0.795982	0.020169	-0.510072
C45	C	-0.489893	-0.285920	-0.510065
C46	C	-0.489896	-0.285917	-0.203980
C47	C	-0.873032	0.092257	-0.546117
C48	C	-0.453848	-0.326925	-0.546108
C49	C	-0.453852	-0.326922	-0.126930
O50	O	0.100922	-0.508345	0.017151
O51	O	-0.100892	-0.390333	-0.017055
O52	O	0.017109	-0.508348	0.100956
O53	O	-0.017080	-0.390330	-0.100860
O54	O	0.017112	-0.412502	0.100963
O55	O	-0.100890	-0.294486	-0.017048
O56	O	0.100924	-0.412499	0.017158
Cu57	Cu	0.000018	-0.344741	0.000056
Cu58	Cu	0.000014	-0.458090	0.000048
O59	O	-0.017077	-0.294483	-0.100853
O60	O	-0.395342	0.083766	0.017156
O61	O	-0.311534	-0.083842	-0.017048
O62	O	-0.311538	-0.083852	0.100962
O63	O	-0.395338	0.083777	-0.100854
O64	O	-0.407391	-0.083849	0.100954
O65	O	-0.407387	-0.083839	-0.017056
O66	O	-0.491195	0.083770	0.017149
Cu67	Cu	-0.458043	-0.000034	0.000046
Cu68	Cu	-0.344686	-0.000038	0.000055
O69	O	-0.491191	0.083780	-0.100861
O70	O	-1.100901	0.281028	-0.592582
O71	O	-0.899087	0.113413	-0.508770
O72	O	-1.017091	0.113409	-0.508767
O73	O	-0.982897	0.281032	-0.592584
O74	O	-1.017088	0.113407	-0.604617
O75	O	-0.899085	0.113411	-0.604619
O76	O	-1.100898	0.281026	-0.688432
Cu77	Cu	-0.999991	0.197218	-0.655277
Cu78	Cu	-0.999994	0.197221	-0.541924
O79	O	-0.982895	0.281030	-0.688434
O80	O	-0.407389	-0.412483	-0.688416
O81	O	-0.491197	-0.294477	-0.604610
O82	O	-0.491195	-0.412486	-0.604605
O83	O	-0.407390	-0.294474	-0.688421
O84	O	-0.395343	-0.508338	-0.508754
O85	O	-0.395345	-0.390329	-0.508759
O86	O	-0.311537	-0.508334	-0.592565
Cu87	Cu	-0.344689	-0.458084	-0.541910
Cu88	Cu	-0.458045	-0.344728	-0.655265
O89	O	-0.311539	-0.390326	-0.592570
C90	C	-0.206294	-0.621360	0.310702
C91	C	-0.130275	-0.692485	0.346265
C92	C	-0.241296	-0.586846	0.345545
C93	C	-0.310654	-0.517001	0.206342
C94	C	-0.346216	-0.476544	0.130323
C95	C	-0.345497	-0.482645	0.241343
C96	C	-0.310653	-0.517001	0.310701
C97	C	-0.346216	-0.476544	0.346263
C98	C	-0.241296	-0.586846	0.241345
C99	C	0.024887	-0.517030	0.310724
C100	C	0.019993	-0.476577	0.346290
C101	C	0.025371	-0.586874	0.345565
C102	C	0.024889	-0.517022	0.206362
C103	C	0.019998	-0.476562	0.130342
C104	C	0.025374	-0.586867	0.241361
C105	C	0.024884	-0.621384	0.310718
C106	C	0.019987	-0.692509	0.346278
C107	C	0.025377	-0.482671	0.241366
C108	C	-0.310656	-0.285855	0.310709
C109	C	-0.346220	-0.326314	0.346266
C110	C	-0.241298	-0.320218	0.345555
C111	C	-0.310655	-0.181484	0.206357
C112	C	-0.346217	-0.110348	0.130340
C113	C	-0.241296	-0.216005	0.241362
C114	C	-0.206295	-0.285860	0.310717
C115	C	-0.130275	-0.326323	0.346282
C116	C	-0.345499	-0.216001	0.241354
C117	C	-0.035774	-0.108410	-0.445754
C118	C	-0.030877	-0.037285	-0.481314
C119	C	-0.036262	-0.142920	-0.480600
C120	C	-0.035780	-0.212771	-0.341397
C121	C	-0.030889	-0.253231	-0.265377
C122	C	-0.036268	-0.247124	-0.376401
C123	C	-0.035777	-0.212765	-0.445759
C124	C	-0.030883	-0.253218	-0.481324
C125	C	-0.036265	-0.142927	-0.376396
C126	C	-0.026928	-0.285901	-0.510056
C127	C	-0.026920	0.020175	-0.510042
C128	C	-0.026936	-0.285920	-0.203961
C129	C	-0.021967	-0.326903	-0.546103
C130	C	-0.021955	0.092262	-0.546083
C131	C	-0.021978	-0.326928	-0.126911
O132	O	-0.017120	-0.390358	0.491266
O133	O	0.017098	-0.508368	0.407461
O134	O	-0.100916	-0.390357	0.407446
O135	O	0.100893	-0.508369	0.491281
O136	O	-0.100904	-0.294507	0.311599
O137	O	0.017110	-0.412518	0.311614
O138	O	-0.017109	-0.294509	0.395420
Cu139	Cu	0.000001	-0.344761	0.344766
Cu140	Cu	-0.000012	-0.458115	0.458115
O141	O	0.100905	-0.412519	0.395435
C142	C	-0.658539	0.410016	-0.445751
C143	C	-0.734559	0.450479	-0.481316
C144	C	-0.623536	0.444375	-0.480590
C145	C	-0.554179	0.305641	-0.341392
C146	C	-0.518616	0.234505	-0.265374
C147	C	-0.519335	0.340158	-0.376388
C148	C	-0.554178	0.410013	-0.445743
C149	C	-0.518614	0.450471	-0.481300
C150	C	-0.623537	0.340162	-0.376396
C151	C	-0.489883	0.483159	-0.510025
C152	C	-0.795975	0.483170	-0.510049
C153	C	-0.489886	0.177036	-0.203959
C154	C	-0.453838	0.524167	-0.546063
C155	C	-0.873025	0.524182	-0.546095
C156	C	-0.453842	0.104937	-0.126912
H157	H	-0.402486	-0.187075	-0.026121
H158	H	-0.213195	-0.187119	0.213260
H159	H	0.026162	-0.426467	0.213269
C160	C	-0.616070	-0.456821	0.037729
C161	C	-0.661470	-0.479815	0.037403
H162	H	-0.639488	-0.409981	0.038378
H163	H	-0.575080	-0.500229	0.078446
H164	H	-0.602862	-0.444646	-0.003424
H165	H	-0.674674	-0.491996	0.078559
H166	H	-0.702473	-0.436398	-0.003318
H167	H	-0.462348	0.311266	-0.348281
C168	C	0.022679	-0.386970	-0.334924
C169	C	-0.037335	-0.322990	-0.338463
H170	H	0.022020	-0.433804	-0.311498
H171	H	0.022889	-0.371355	-0.381324
H172	H	0.063831	-0.399148	-0.309536
H173	H	-0.078487	-0.310807	-0.363855
H174	H	-0.037550	-0.338607	-0.292055
C175	C	-0.680913	-0.722139	0.098099
C176	C	-0.661455	-0.698909	0.037430
H177	H	-0.704318	-0.746229	0.098768
H178	H	-0.639912	-0.760429	0.138803
H179	H	-0.711715	-0.675507	0.097862
H180	H	-0.630649	-0.745542	0.037669
H181	H	-0.702462	-0.660616	-0.003285
H182	H	-0.037046	-0.114028	-0.537588
H183	H	-0.651638	0.500582	-0.537577
H184	H	-0.651648	0.311288	-0.348296
H185	H	-0.651645	-0.114047	-0.348315
H186	H	-0.213202	-0.376423	0.402543
H187	H	-0.402486	-0.187114	0.213252
H188	H	-0.036993	-0.114078	-0.348277
C189	C	-0.399722	-0.779020	0.098075
C190	C	-0.442409	-0.698893	0.037405
H191	H	-0.352232	-0.803103	0.098727
H192	H	-0.402410	-0.778720	0.138779
H193	H	-0.415569	-0.809579	0.097856
H194	H	-0.426565	-0.668332	0.037627
H195	H	-0.439718	-0.699188	-0.003310
C196	C	-0.199811	-0.460017	0.033632
C197	C	-0.203357	-0.396037	-0.026391
H198	H	-0.176391	-0.506851	0.032975
H199	H	-0.174425	-0.472190	0.074776
H200	H	-0.246215	-0.444402	0.033846
H201	H	-0.156952	-0.411649	-0.026602
H202	H	-0.228742	-0.383863	-0.067545
C203	C	-0.624041	-0.080643	-0.600236
C204	C	-0.661488	-0.103877	-0.557565
H205	H	-0.647467	-0.056521	-0.647741
H206	H	-0.621611	-0.042378	-0.597494
H207	H	-0.577651	-0.127278	-0.584417
H208	H	-0.707877	-0.057241	-0.573381
H209	H	-0.663926	-0.142145	-0.560311
C210	C	0.087092	-0.649101	0.183963
C211	C	0.026432	-0.625867	0.203432
H212	H	0.087745	-0.673183	0.160556
H213	H	0.086865	-0.602480	0.153167
H214	H	0.127806	-0.687408	0.224967
H215	H	-0.014282	-0.587556	0.162428
H216	H	0.026653	-0.672494	0.234230
H217	H	-0.462356	-0.303332	-0.348318
C218	C	-0.240798	-0.096855	-0.087148
C219	C	-0.203345	-0.176968	-0.026456
H220	H	-0.217368	-0.072774	-0.087867
H221	H	-0.243242	-0.097179	-0.127836
H222	H	-0.287183	-0.066278	-0.086896
H223	H	-0.156961	-0.207547	-0.026711
H224	H	-0.200893	-0.176648	0.014242
H225	H	-0.402481	-0.426435	0.213235
H226	H	-0.213192	-0.615736	0.402533
H227	H	-0.213184	-0.615720	0.213239
C228	C	-0.033612	-0.569396	0.426437
C229	C	0.026418	-0.625876	0.422492
H230	H	-0.032969	-0.593477	0.473925
H231	H	-0.033824	-0.522786	0.410620
H232	H	-0.074754	-0.553633	0.397449
H233	H	0.067560	-0.641635	0.451476
H234	H	0.026637	-0.672500	0.438317
