data_functionalizedCrystal
_audit_creation_method	'MofGen! by Chris Wilmer'
_symmetry_space_group_name_H-M	'P1'
_symmetry_Int_Tables_number	1
_symmetry_cell_setting	triclinic
loop_
_symmetry_equiv_pos_as_xyz
  x,y,z
_cell_length_a	11.026623
_cell_length_b	13.596369
_cell_length_c	11.026607
_cell_angle_alpha	90.003326
_cell_angle_beta	108.586360
_cell_angle_gamma	90.004947
loop_
_atom_site_label
_atom_site_type_symbol
_atom_site_fract_x
_atom_site_fract_y
_atom_site_fract_z
O1	O	-1.726737	-0.081791	-0.533637
O2	O	-1.360157	-0.081792	-0.472871
O3	O	-1.513065	-0.081788	-0.319964
O4	O	-1.573829	-0.081795	-0.686544
O5	O	-1.513042	0.081795	-0.319949
O6	O	-1.360133	0.081791	-0.472857
O7	O	-1.726713	0.081792	-0.533623
Zn8	Zn	-1.543420	0.107763	-0.503237
Zn9	Zn	-1.543451	-0.107764	-0.503256
O10	O	-1.573805	0.081788	-0.686530
C11	C	-1.312485	-0.000001	-0.461654
C12	C	-1.170471	-0.000001	-0.428236
N13	N	-1.543408	0.254855	-0.503226
C14	C	-1.116822	-0.000004	-0.520505
C15	C	-0.970043	-0.000004	-0.485968
C16	C	-1.543441	0.656146	-0.503259
C17	C	-1.543429	0.544495	-0.503253
C18	C	-1.543425	0.455504	-0.503243
C19	C	-1.543411	0.343846	-0.503235
C20	C	-0.774385	-0.000001	-0.544838
C21	C	-0.916398	-0.000006	-0.578251
C22	C	-1.501844	0.000002	-0.272297
C23	C	-1.468427	-0.000002	-0.130283
N24	N	-1.543460	0.745144	-0.503262
C25	C	-1.585027	-0.000005	-0.734197
C26	C	-1.618444	-0.000008	-0.876211
C27	C	-1.560696	-0.000003	-0.076634
C28	C	-1.526161	-0.000006	0.070145
H29	H	-1.179555	-0.000000	-0.625068
H30	H	-0.907314	-0.000027	-0.381398
H31	H	-1.723014	-0.000081	0.061061
H32	H	-1.665259	0.000004	-0.139368
C33	C	-1.327167	-0.000009	-0.045552
H34	H	-1.273756	-0.000015	-0.098245
H35	H	-1.310280	0.057032	0.006939
H36	H	-1.310310	-0.057065	0.006908
H37	H	-1.107738	-0.000025	-0.323673
C38	C	-1.001127	-0.000015	-0.719517
H39	H	-1.088664	-0.000022	-0.724201
H40	H	-0.983494	0.057026	-0.760751
H41	H	-0.983506	-0.057071	-0.760744
C42	C	-1.384896	-0.000008	0.154877
H43	H	-1.380215	-0.000004	0.242413
H44	H	-1.343670	-0.057051	0.137243
H45	H	-1.343659	0.057046	0.137262
