data_functionalizedCrystal
_audit_creation_method	'MofGen! by Chris Wilmer'
_symmetry_space_group_name_H-M	'P1'
_symmetry_Int_Tables_number	1
_symmetry_cell_setting	triclinic
loop_
_symmetry_equiv_pos_as_xyz
  x,y,z
_cell_length_a	21.395364
_cell_length_b	21.295418
_cell_length_c	21.395355
_cell_angle_alpha	89.981445
_cell_angle_beta	89.974323
_cell_angle_gamma	90.027752
loop_
_atom_site_label
_atom_site_type_symbol
_atom_site_fract_x
_atom_site_fract_y
_atom_site_fract_z
Zn1	Zn	-0.957846	0.250782	0.354280
Zn2	Zn	-0.457846	0.750782	0.854280
Zn3	Zn	-0.957743	0.356034	0.249502
Zn4	Zn	-0.457743	0.856034	0.749502
Zn5	Zn	-0.853061	0.250771	0.249515
Zn6	Zn	-0.353061	0.750771	0.749515
Zn7	Zn	-0.853025	0.356007	0.354241
Zn8	Zn	-0.353025	0.856007	0.854241
O9	O	-0.905419	0.303399	0.301884
O10	O	-0.405419	0.803399	0.801884
O11	O	-1.045510	0.264760	0.340392
O12	O	-0.545510	0.764760	0.840392
O13	O	-0.943829	0.342077	0.161826
O14	O	-0.443829	0.842077	0.661826
O15	O	-0.867019	0.162684	0.263434
O16	O	-0.367019	0.662684	0.763434
O17	O	-1.045434	0.342088	0.263413
O18	O	-0.545434	0.842088	0.763413
O19	O	-0.944004	0.162692	0.340404
O20	O	-0.444004	0.662692	0.840404
O21	O	-0.866919	0.264742	0.161835
O22	O	-0.366919	0.764742	0.661835
O23	O	-0.765378	0.264715	0.263395
O24	O	-0.265378	0.764715	0.763395
O25	O	-0.866957	0.342042	0.441924
O26	O	-0.366957	0.842042	0.941924
O27	O	-0.765351	0.342031	0.340337
O28	O	-0.265351	0.842031	0.840337
O29	O	-0.943969	0.264734	0.441953
O30	O	-0.443969	0.764734	0.941953
O31	O	-0.943793	0.444120	0.263375
O32	O	-0.443793	0.944120	0.763375
O33	O	-0.866857	0.444100	0.340325
O34	O	-0.366857	0.944100	0.840325
C35	C	-0.742631	0.303369	0.301864
C36	C	-0.242631	0.803369	0.801864
C37	C	-0.672990	0.303372	0.301870
C38	C	-0.172990	0.803372	0.801870
C39	C	-0.171232	0.263207	0.342027
C40	C	0.328768	0.763207	0.842027
C41	C	-0.236668	0.263204	0.342028
C42	C	0.263332	0.763204	0.842028
C43	C	-0.269351	0.303399	0.301886
C44	C	0.230649	0.803399	0.801886
C45	C	-0.236594	0.343610	0.261750
C46	C	0.263406	0.843610	0.761750
C47	C	-0.171160	0.343616	0.261755
C48	C	0.328840	0.843616	0.761755
C49	C	-0.372988	0.308276	0.245420
C50	C	0.127012	0.808276	0.745420
C51	C	-0.438421	0.308266	0.245415
C52	C	0.061579	0.808266	0.745415
C53	C	-0.471172	0.303384	0.301872
C54	C	0.028828	0.803384	0.801872
C55	C	-0.438483	0.298499	0.358337
C56	C	0.061517	0.798499	0.858337
C57	C	-0.373049	0.298505	0.358341
C58	C	0.126951	0.798505	0.858341
C59	C	-0.340304	0.303397	0.301877
C60	C	0.159696	0.803397	0.801877
C61	C	-0.574874	0.263175	0.342010
C62	C	-0.074874	0.763175	0.842010
C63	C	-0.640311	0.263177	0.342012
C64	C	-0.140311	0.763177	0.842012
C65	C	-0.640236	0.343579	0.261728
C66	C	-0.140236	0.843579	0.761728
C67	C	-0.574800	0.343581	0.261732
C68	C	-0.074800	0.843581	0.761732
C69	C	-0.542123	0.303375	0.301871
C70	C	-0.042123	0.803375	0.801871
C71	C	-0.905327	0.466950	0.301858
C72	C	-0.405327	0.966950	0.801858
C73	C	-0.905346	0.536918	0.301868
C74	C	-0.405346	1.036918	0.801868
C75	C	-0.905471	0.303386	0.465308
C76	C	-0.405471	0.803386	0.965308
C77	C	-0.905493	0.303380	0.534949
C78	C	-0.405493	0.803380	1.034949
C79	C	-0.068842	0.303421	0.301901
C80	C	0.431158	0.803421	0.801901
C81	C	-0.138483	0.303411	0.301894
C82	C	0.361517	0.803411	0.801894
C83	C	-0.945515	1.036327	0.342027
C84	C	-0.445515	1.536327	0.842027
C85	C	-0.945503	0.970585	0.342019
C86	C	-0.445503	1.470585	0.842019
C87	C	-0.905445	0.937758	0.301910
C88	C	-0.405445	1.437758	0.801910
C89	C	-0.865408	0.970679	0.261794
C90	C	-0.365408	1.470679	0.761794
C91	C	-0.865426	1.036420	0.261800
C92	C	-0.365426	1.536420	0.761800
N93	N	-0.850575	0.834582	0.297043
N94	N	-0.350575	1.334582	0.797043
N95	N	-0.850560	0.772130	0.297042
N96	N	-0.350560	1.272130	0.797042
C97	C	-0.905390	0.739683	0.301891
C98	C	-0.405390	1.239683	0.801891
N99	N	-0.960237	0.772047	0.306753
N100	N	-0.460237	1.272047	0.806753
N101	N	-0.960251	0.834504	0.306758
N102	N	-0.460251	1.334504	0.806758
C103	C	-0.905422	0.866472	0.301899
C104	C	-0.405422	1.366472	0.801899
C105	C	-0.945414	0.635484	0.341991
C106	C	-0.445414	1.135484	0.841991
C107	C	-0.945403	0.569741	0.341978
C108	C	-0.445403	1.069741	0.841978
C109	C	-0.865303	0.569836	0.261757
C110	C	-0.365303	1.069836	0.761757
C111	C	-0.865320	0.635578	0.261766
C112	C	-0.365320	1.135578	0.761766
C113	C	-0.905374	0.668399	0.301887
C114	C	-0.405374	1.168399	0.801887
C115	C	-0.905504	1.139208	0.301919
C116	C	-0.405504	1.639208	0.801919
C117	C	-0.905481	1.069240	0.301920
C118	C	-0.405481	1.569240	0.801920
C119	C	-0.905403	0.303366	0.139097
C120	C	-0.405403	0.803366	0.639097
C121	C	-0.905502	0.303194	0.069456
C122	C	-0.405502	0.803194	0.569456
C123	C	-0.945591	0.263125	0.567678
C124	C	-0.445591	0.763125	1.067678
C125	C	-0.945590	0.263097	0.633114
C126	C	-0.445590	0.763097	1.133114
C127	C	-0.905498	0.303338	0.665817
C128	C	-0.405498	0.803338	1.165817
C129	C	-0.865392	0.343596	0.633080
C130	C	-0.365392	0.843596	1.133080
C131	C	-0.865389	0.343618	0.567646
C132	C	-0.365389	0.843618	1.067646
C133	C	-0.900519	0.360017	0.769483
C134	C	-0.400519	0.860017	1.269483
C135	C	-0.900526	0.359997	0.834916
C136	C	-0.400526	0.859997	1.334916
C137	C	-0.905501	0.303271	0.867638
C138	C	-0.405501	0.803271	1.367638
C139	C	-0.910484	0.246564	0.834920
C140	C	-0.410484	0.746564	1.334920
C141	C	-0.910481	0.246585	0.769486
C142	C	-0.410481	0.746585	1.269486
C143	C	-0.905496	0.303318	0.736770
C144	C	-0.405496	0.803318	1.236770
C145	C	-0.945601	0.262982	0.971320
C146	C	-0.445601	0.762982	1.471320
C147	C	-0.945596	0.262954	1.036757
C148	C	-0.445596	0.762954	1.536757
C149	C	-0.865400	0.343459	1.036722
C150	C	-0.365400	0.843459	1.536722
C151	C	-0.865402	0.343481	0.971287
C152	C	-0.365402	0.843481	1.471287
C153	C	-0.905506	0.303244	0.938590
C154	C	-0.405506	0.803244	1.438590
H155	H	-0.548267	0.230437	0.374694
H156	H	-0.048267	0.730437	0.874694
H157	H	-0.978242	0.230313	0.659767
H158	H	-0.478242	0.730313	1.159767
H159	H	-0.666974	0.230440	0.374697
H160	H	-0.166974	0.730440	0.874697
O161	O	-0.915854	0.185428	0.734195
O162	O	-0.415854	0.685428	1.234195
H163	H	-0.876033	0.154509	0.746730
H164	H	-0.376033	0.654509	1.246730
O165	O	-0.988615	0.670894	0.385255
O166	O	-0.488615	1.170894	0.885255
H167	H	-1.037793	0.658252	0.374552
H168	H	-0.537793	1.158252	0.874552
O169	O	-0.988842	0.219722	0.532416
O170	O	-0.488842	0.719722	1.032416
H171	H	-0.982109	0.226502	0.481416
H172	H	-0.482109	0.726502	0.981416
O173	O	-0.271998	0.219832	0.385311
O174	O	0.228002	0.719832	0.885311
H175	H	-0.301814	0.248043	0.417143
H176	H	0.198186	0.748043	0.917143
H177	H	-0.896299	0.406198	0.742846
H178	H	-0.396299	0.906198	1.242846
O179	O	-0.988600	0.534243	0.385229
O180	O	-0.488600	1.034243	0.885229
H181	H	-0.977833	0.546840	0.434396
H182	H	-0.477833	1.046840	0.934396
H183	H	-0.832690	0.543109	0.229097
H184	H	-0.332690	1.043109	0.729097
O185	O	-0.988685	0.935076	0.385279
O186	O	-0.488685	1.435076	0.885279
H187	H	-0.960613	0.905129	0.417119
H188	H	-0.460613	1.405129	0.917119
O189	O	-0.822138	0.387041	0.532344
O190	O	-0.322138	0.887041	1.032344
H191	H	-0.828870	0.380293	0.481350
H192	H	-0.328870	0.880293	0.981350
O193	O	-0.271845	0.386960	0.218452
O194	O	0.228155	0.886960	0.718452
H195	H	-0.238076	0.414922	0.190548
H196	H	0.261924	0.914922	0.690548
O197	O	-0.822245	1.071920	0.218536
O198	O	-0.322245	1.571920	0.718536
H199	H	-0.828990	1.123149	0.225275
H200	H	-0.328990	1.623149	0.725275
H201	H	-0.832717	0.662377	0.229109
H202	H	-0.332717	1.162377	0.729109
H203	H	-0.346435	0.294529	0.404317
H204	H	0.153565	0.794529	0.904317
H205	H	-0.978135	1.063045	0.374692
H206	H	-0.478135	1.563045	0.874692
H207	H	-0.666846	0.376311	0.229048
H208	H	-0.166846	0.876311	0.729048
O209	O	-0.337675	0.313526	0.184516
O210	O	0.162325	0.813526	0.684516
H211	H	-0.307882	0.271344	0.178209
H212	H	0.192118	0.771344	0.678209
O213	O	-0.822207	0.935277	0.218529
O214	O	-0.322207	1.435277	0.718529
H215	H	-0.773029	0.947932	0.229220
H216	H	-0.273029	1.447932	0.729220
H217	H	-0.978248	0.230169	1.063404
H218	H	-0.478248	0.730169	1.563404
H219	H	-0.914537	0.200372	0.861561
H220	H	-0.414537	0.700372	1.361561
O221	O	-0.988845	0.219580	0.936046
O222	O	-0.488845	0.719580	1.436046
H223	H	-1.016721	0.191573	0.969801
H224	H	-0.516721	0.691573	1.469801
H225	H	-0.832750	0.376216	1.063349
H226	H	-0.332750	0.876216	1.563349
H227	H	-0.832754	0.376266	0.944638
H228	H	-0.332754	0.876266	1.444638
H229	H	-0.896472	0.406171	0.861550
H230	H	-0.396472	0.906171	1.361550
O231	O	-0.822145	0.386994	0.668351
O232	O	-0.322145	0.886994	1.168351
H233	H	-0.832849	0.436406	0.655794
H234	H	-0.332849	0.936406	1.155794
H235	H	-0.144631	0.230471	0.374715
H236	H	0.355369	0.730471	0.874715
H237	H	-0.548136	0.376317	0.229049
H238	H	-0.048136	0.876317	0.729049
O239	O	-0.473793	0.293233	0.419239
O240	O	0.026207	0.793233	0.919239
H241	H	-0.503584	0.335413	0.425564
H242	H	-0.003584	0.835413	0.925564
O243	O	-0.473680	0.313535	0.184520
O244	O	0.026320	0.813535	0.684520
H245	H	-0.461098	0.358296	0.161076
H246	H	0.038902	0.858296	0.661076
O247	O	-0.135831	0.386973	0.218460
O248	O	0.364169	0.886973	0.718460
H249	H	-0.169548	0.414921	0.190542
H250	H	0.330452	0.914921	0.690542
