data_functionalizedCrystal
_audit_creation_method	'MofGen! by Chris Wilmer'
_symmetry_space_group_name_H-M	'P1'
_symmetry_Int_Tables_number	1
_symmetry_cell_setting	triclinic
loop_
_symmetry_equiv_pos_as_xyz
  x,y,z
_cell_length_a	11.792241
_cell_length_b	13.101039
_cell_length_c	11.792254
_cell_angle_alpha	86.614705
_cell_angle_beta	84.196007
_cell_angle_gamma	93.376518
loop_
_atom_site_label
_atom_site_type_symbol
_atom_site_fract_x
_atom_site_fract_y
_atom_site_fract_z
O1	O	1.513114	0.085115	0.149348
O2	O	1.763114	0.335115	0.399348
O3	O	2.013114	0.585115	0.649348
O4	O	2.263114	0.835115	0.899348
O5	O	1.182775	0.085139	0.165379
O6	O	1.432775	0.335139	0.415379
O7	O	1.682775	0.585139	0.665379
O8	O	1.932775	0.835139	0.915379
O9	O	1.355953	0.085119	-0.007805
O10	O	1.605953	0.335119	0.242195
O11	O	1.855953	0.585119	0.492195
O12	O	2.105953	0.835119	0.742195
O13	O	1.339936	0.085135	0.322533
O14	O	1.589936	0.335135	0.572533
O15	O	1.839936	0.585135	0.822533
O16	O	2.089936	0.835135	1.072533
O17	O	1.343528	-0.085309	0.004641
O18	O	1.593528	0.164691	0.254641
O19	O	1.843528	0.414691	0.504641
O20	O	2.093528	0.664691	0.754641
O21	O	1.170350	-0.085289	0.177826
O22	O	1.420350	0.164711	0.427826
O23	O	1.670350	0.414711	0.677826
O24	O	1.920350	0.664711	0.927826
O25	O	1.500688	-0.085313	0.161795
O26	O	1.750688	0.164687	0.411795
O27	O	2.000688	0.414687	0.661795
O28	O	2.250688	0.664687	0.911795
Zn29	Zn	1.333546	-0.112361	0.171786
Zn30	Zn	1.583546	0.137639	0.421786
Zn31	Zn	1.833546	0.387639	0.671786
Zn32	Zn	2.083546	0.637639	0.921786
Zn33	Zn	1.349917	0.112186	0.155388
Zn34	Zn	1.599917	0.362186	0.405388
Zn35	Zn	1.849917	0.612186	0.655388
Zn36	Zn	2.099917	0.862186	0.905388
O37	O	1.327511	-0.085293	0.334979
O38	O	1.577511	0.164707	0.584979
O39	O	1.827511	0.414707	0.834979
O40	O	2.077511	0.664707	1.084979
C41	C	1.134272	-0.000072	0.170595
C42	C	1.384272	0.249928	0.420595
C43	C	1.634272	0.499928	0.670595
C44	C	1.884272	0.749928	0.920595
C45	C	1.008259	-0.000063	0.167580
C46	C	1.258259	0.249937	0.417580
C47	C	1.508259	0.499937	0.667580
C48	C	1.758259	0.749937	0.917580
N49	N	1.322382	-0.265608	0.182977
N50	N	1.572382	-0.015608	0.432977
N51	N	1.822382	0.234392	0.682977
N52	N	2.072382	0.484392	0.932977
C53	C	0.777544	-0.000093	0.162039
C54	C	1.027544	0.249907	0.412039
C55	C	1.277544	0.499907	0.662039
C56	C	1.527544	0.749907	0.912039
C57	C	0.905930	-0.000077	0.165118
C58	C	1.155930	0.249923	0.415118
C59	C	1.405930	0.499923	0.665118
C60	C	1.655930	0.749923	0.915118
C61	C	1.307193	-0.474649	0.198214
C62	C	1.557193	-0.224649	0.448214
C63	C	1.807193	0.025351	0.698214
C64	C	2.057193	0.275351	0.948214
C65	C	1.376276	-0.525532	0.128955
C66	C	1.626276	-0.275532	0.378955
C67	C	1.876276	-0.025532	0.628955
C68	C	2.126276	0.224468	0.878955
C69	C	1.367824	-0.641850	0.137433
C70	C	1.617824	-0.391850	0.387433
C71	C	1.867824	-0.141850	0.637433
C72	C	2.117824	0.108150	0.887433
C73	C	1.315643	-0.358321	0.189738
C74	C	1.565643	-0.108321	0.439738
C75	C	1.815643	0.141679	0.689738
C76	C	2.065643	0.391679	0.939738
C77	C	1.549192	-0.000100	0.156579
C78	C	1.799192	0.249900	0.406579
C79	C	2.049192	0.499900	0.656579
C80	C	2.299192	0.749900	0.906579
C81	C	1.675206	-0.000102	0.159593
C82	C	1.925206	0.249898	0.409593
C83	C	2.175206	0.499898	0.659593
C84	C	2.425206	0.749898	0.909593
C85	C	1.348731	-0.000095	-0.043873
C86	C	1.598731	0.249905	0.206127
C87	C	1.848731	0.499905	0.456127
C88	C	2.098731	0.749905	0.706127
C89	C	1.345711	-0.000093	-0.169886
C90	C	1.595711	0.249907	0.080114
C91	C	1.845711	0.499907	0.330114
C92	C	2.095711	0.749907	0.580114
N93	N	1.361090	0.265434	0.144188
N94	N	1.611090	0.515434	0.394188
N95	N	1.861090	0.765434	0.644188
N96	N	2.111090	1.015434	0.894188
C97	C	1.343258	-0.000090	-0.272223
C98	C	1.593258	0.249910	-0.022223
C99	C	1.843258	0.499910	0.227777
C100	C	2.093258	0.749910	0.477777
C101	C	1.340190	-0.000080	-0.400610
C102	C	1.590190	0.249920	-0.150610
C103	C	1.840190	0.499920	0.099390
C104	C	2.090190	0.749920	0.349390
C105	C	1.334733	-0.000077	0.371047
C106	C	1.584733	0.249923	0.621047
C107	C	1.834733	0.499923	0.871047
C108	C	2.084733	0.749923	1.121047
C109	C	1.337753	-0.000072	0.497059
C110	C	1.587753	0.249928	0.747059
C111	C	1.837753	0.499928	0.997059
C112	C	2.087753	0.749928	1.247059
H113	H	1.441768	-0.481737	0.063295
H114	H	1.691768	-0.231737	0.313295
H115	H	1.941768	0.018263	0.563295
H116	H	2.191768	0.268263	0.813295
Cl117	Cl	1.206087	-0.542258	0.299588
Cl118	Cl	1.456087	-0.292258	0.549588
Cl119	Cl	1.706087	-0.042258	0.799588
Cl120	Cl	1.956087	0.207742	1.049588
