data_functionalizedCrystal
_audit_creation_method	'MofGen! by Chris Wilmer'
_symmetry_space_group_name_H-M	'P1'
_symmetry_Int_Tables_number	1
_symmetry_cell_setting	triclinic
loop_
_symmetry_equiv_pos_as_xyz
  x,y,z
_cell_length_a	16.120530
_cell_length_b	12.594516
_cell_length_c	16.120256
_cell_angle_alpha	87.128506
_cell_angle_beta	90.128265
_cell_angle_gamma	92.887010
loop_
_atom_site_label
_atom_site_type_symbol
_atom_site_fract_x
_atom_site_fract_y
_atom_site_fract_z
Zn1	Zn	1.247485	0.539266	-0.534546
Zn2	Zn	1.254449	0.708702	-0.395481
Zn3	Zn	1.115473	0.521274	-0.388464
Zn4	Zn	1.108406	0.707727	-0.527451
O5	O	1.181453	0.619242	-0.461485
O6	O	1.364775	0.569679	-0.522005
O7	O	1.241887	0.676718	-0.278185
O8	O	1.133028	0.374720	-0.407875
O9	O	1.369892	0.694163	-0.419834
O10	O	1.230016	0.387938	-0.515200
O11	O	1.139782	0.539015	-0.273029
O12	O	0.998169	0.538070	-0.400995
O13	O	1.120982	0.692502	-0.644758
O14	O	0.992976	0.675056	-0.503108
O15	O	1.223163	0.568734	-0.649970
O16	O	1.235033	0.857513	-0.412955
O17	O	1.127736	0.856797	-0.509912
C18	C	0.965400	0.604505	-0.450521
C19	C	0.872970	0.598228	-0.445850
C20	C	0.703740	0.586742	-0.437329
C21	C	0.660004	0.651824	-0.485703
C22	C	0.565838	0.645434	-0.480962
C23	C	0.797914	0.593131	-0.442069
C24	C	1.181395	0.895777	-0.461444
C25	C	1.181445	1.014086	-0.461458
C26	C	1.239860	1.083698	-0.408779
C27	C	1.256326	1.160454	-0.485700
C28	C	1.165064	1.148137	-0.384572
C29	C	1.197948	1.089289	-0.538421
C30	C	1.106653	1.076960	-0.437240
C31	C	1.123088	1.153686	-0.514212
C32	C	1.398350	0.634037	-0.472494
C33	C	1.490779	0.640342	-0.477185
C34	C	1.170507	0.632516	-0.678380
C35	C	1.165842	0.638172	-0.770807
C36	C	1.181515	1.341628	-0.461524
C37	C	1.181493	1.223318	-0.461482
C38	C	1.205777	0.589716	-0.983793
C39	C	1.157298	0.648454	-0.940027
C40	C	1.162054	0.642732	-0.845865
C41	C	1.201023	0.595437	-1.077964
C42	C	1.192405	0.605946	-0.245437
C43	C	1.197230	0.600001	-0.153018
H44	H	0.670465	0.526229	-0.392356
Cl45	Cl	1.354012	1.216732	-0.517365
H46	H	1.250850	0.535137	-0.950546
Cl47	Cl	1.046846	1.200857	-0.583088
Cl48	Cl	0.711378	0.745254	-0.555148
Cl49	Cl	1.219497	1.049290	-0.638858
H50	H	1.289272	1.052962	-0.364281
H51	H	1.043402	1.040471	-0.416719
H52	H	1.151189	1.174187	-0.319541
H53	H	1.112218	0.703032	-0.973276
