data_functionalizedCrystal
_audit_creation_method	'MofGen! by Chris Wilmer'
_symmetry_space_group_name_H-M	'P1'
_symmetry_Int_Tables_number	1
_symmetry_cell_setting	triclinic
loop_
_symmetry_equiv_pos_as_xyz
  x,y,z
_cell_length_a	27.732048
_cell_length_b	27.732048
_cell_length_c	14.421503
_cell_angle_alpha	89.999321
_cell_angle_beta	89.997938
_cell_angle_gamma	82.642655
loop_
_atom_site_label
_atom_site_type_symbol
_atom_site_fract_x
_atom_site_fract_y
_atom_site_fract_z
O1	O	0.640930	0.057510	-0.077002
O2	O	0.500137	0.066256	-0.077032
O3	O	0.574906	-0.008514	-0.076998
O4	O	0.566161	0.132280	-0.077035
O5	O	0.574894	-0.008503	0.077225
O6	O	0.500124	0.066267	0.077192
O7	O	0.640918	0.057521	0.077221
Cu8	Cu	0.570520	0.061895	0.091288
Cu9	Cu	0.570535	0.061882	-0.091099
O10	O	0.566148	0.132291	0.077188
C11	C	0.482124	0.066078	0.000077
C12	C	0.428469	0.065525	0.000066
C13	C	0.089654	0.106229	0.000096
C14	C	-0.112006	0.104178	0.000104
O15	O	-0.143262	0.141398	0.000135
N16	N	-0.131130	0.059843	0.000115
C17	C	-0.099835	0.016017	0.000128
O18	O	-0.120728	-0.021740	0.000147
C19	C	0.101824	0.018068	0.000126
C20	C	0.120944	0.062407	0.000107
C21	C	0.108775	0.150563	0.000077
C22	C	0.159187	0.151076	0.000070
C23	C	0.190477	0.107253	0.000081
C24	C	0.171356	0.062919	0.000100
C25	C	0.133117	-0.025757	0.000147
C26	C	0.183535	-0.025240	0.000149
C27	C	0.202655	0.019098	0.000129
C28	C	0.253059	0.019609	0.000103
N29	N	0.272183	0.063944	0.000093
C30	C	0.240892	0.107766	0.000082
C31	C	-0.205709	0.014943	0.000128
C32	C	-0.256124	0.014430	0.000127
C33	C	-0.268291	0.102591	0.000104
C34	C	-0.217876	0.103104	0.000099
C35	C	-0.186585	0.059278	0.000118
C36	C	0.346761	0.108839	0.000066
C37	C	0.397178	0.109347	0.000055
C38	C	0.409341	0.021186	0.000082
C39	C	0.358929	0.020678	0.000088
C40	C	0.327639	0.064508	0.000084
O41	O	0.284343	-0.017592	0.000084
O42	O	0.261794	0.145518	0.000085
C43	C	0.039242	0.105716	0.000103
C44	C	0.020120	0.061382	0.000121
C45	C	0.051411	0.017560	0.000132
C46	C	-0.030294	0.060869	0.000120
C47	C	-0.061585	0.104691	0.000109
C48	C	-0.042461	0.149026	0.000099
C49	C	0.007951	0.149539	0.000092
C50	C	0.032287	-0.026775	0.000143
C51	C	-0.018125	-0.027284	0.000149
C52	C	-0.049416	0.016538	0.000138
C53	C	0.574716	-0.026515	0.000116
C54	C	0.574164	-0.080170	0.000124
C55	C	0.614867	-0.418985	0.000084
C56	C	0.612816	-0.620645	0.000071
O57	O	0.650037	-0.651900	0.000038
N58	N	0.568481	-0.639768	0.000063
C59	C	0.524656	-0.608474	0.000052
O60	O	0.486899	-0.629367	0.000035
C61	C	0.526707	-0.406815	0.000058
C62	C	0.571045	-0.387694	0.000076
C63	C	0.659202	-0.399864	0.000101
C64	C	0.659714	-0.349452	0.000110
C65	C	0.615892	-0.318161	0.000101
C66	C	0.571557	-0.337282	0.000084
C67	C	0.482882	-0.375521	0.000040
C68	C	0.483399	-0.325104	0.000040
C69	C	0.527737	-0.305983	0.000058
C70	C	0.528247	-0.255580	0.000084
N71	N	0.572583	-0.236456	0.000093
C72	C	0.616405	-0.267747	0.000101
C73	C	0.523582	-0.714348	0.000050
C74	C	0.523069	-0.764762	0.000050
C75	C	0.611230	-0.776930	0.000068
C76	C	0.611742	-0.726514	0.000074
C77	C	0.567917	-0.695224	0.000058
C78	C	0.617477	-0.161878	0.000120
C79	C	0.617986	-0.111461	0.000132
C80	C	0.529825	-0.099298	0.000109
C81	C	0.529316	-0.149710	0.000102
C82	C	0.573147	-0.180999	0.000104
O83	O	0.491047	-0.224296	0.000107
O84	O	0.654156	-0.246844	0.000098
C85	C	0.614355	-0.469397	0.000076
C86	C	0.570021	-0.488518	0.000059
C87	C	0.526198	-0.457228	0.000051
C88	C	0.569508	-0.538933	0.000059
C89	C	0.613330	-0.570223	0.000068
C90	C	0.657665	-0.551100	0.000076
C91	C	0.658177	-0.500688	0.000084
C92	C	0.481863	-0.476351	0.000042
C93	C	0.481355	-0.526764	0.000035
C94	C	0.525177	-0.558054	0.000044
C95	C	0.658931	0.057699	0.000111
C96	C	0.712586	0.058252	0.000116
C97	C	0.566338	0.150292	0.000072
C98	C	0.566891	0.203947	0.000058
N99	N	0.570513	0.061904	0.219570
N100	N	0.570545	0.061869	-0.219380
C101	C	0.535934	0.096462	0.469208
C102	C	0.579543	0.105518	0.531017
C103	C	0.570525	0.061892	0.408731
C104	C	0.526927	0.052848	0.531016
C105	C	0.570532	0.061882	0.591453
C106	C	0.614156	0.070970	0.469179
C107	C	0.561512	0.018281	0.469173
C108	C	0.605152	0.027318	0.530954
C109	C	0.570520	0.061900	0.303470
C110	C	0.570543	0.061875	0.696711
H111	H	0.321291	0.144530	0.000065
H112	H	0.634440	-0.001923	0.557895
H113	H	0.447710	-0.299629	0.000025
H114	H	0.694889	-0.425336	0.000105
H115	H	0.653168	-0.187348	0.000118
Br116	Br	0.422705	-0.401458	0.000013
H117	H	0.412743	0.145454	0.000039
H118	H	0.587173	0.142395	0.558181
Br119	Br	0.675628	0.083784	0.424105
H120	H	0.553867	-0.018584	0.441987
H121	H	0.490054	0.045202	0.558181
Br122	Br	0.185128	0.211252	0.000048
Br123	Br	0.107181	-0.085934	0.000153
H124	H	-0.293777	0.138273	0.000096
H125	H	0.646911	-0.802415	0.000075
H126	H	0.695819	-0.333889	0.000120
Br127	Br	0.225997	-0.084721	0.000179
Br128	Br	-0.191932	0.163278	0.000073
Br129	Br	0.066317	0.210045	0.000062
Br130	Br	-0.282067	-0.045745	0.000125
Br131	Br	0.469143	-0.175661	0.000099
H132	H	0.343360	-0.015426	0.000091
Br133	Br	-0.163250	-0.044540	0.000153
Br134	Br	0.671917	-0.700570	0.000100
H135	H	0.494146	-0.073812	0.000106
Br136	Br	0.462893	-0.790705	0.000048
Br137	Br	0.451816	-0.038284	0.000099
Br138	Br	0.464098	-0.671889	0.000026
Br139	Br	0.487226	0.145224	0.424015
H140	H	0.023514	0.185643	0.000077
H141	H	-0.067947	0.184708	0.000086
H142	H	-0.033688	-0.063392	0.000157
H143	H	0.694282	-0.485125	0.000099
H144	H	0.654093	-0.095896	0.000149
Br145	Br	0.717137	-0.593575	0.000095
H146	H	0.057760	-0.062462	0.000154
Br147	Br	0.421176	-0.552706	0.000018
H148	H	0.446177	-0.450879	0.000034
