data_functionalizedCrystal
_audit_creation_method	'MofGen! by Chris Wilmer'
_symmetry_space_group_name_H-M	'P1'
_symmetry_Int_Tables_number	1
_symmetry_cell_setting	triclinic
loop_
_symmetry_equiv_pos_as_xyz
  x,y,z
_cell_length_a	13.897441
_cell_length_b	16.959455
_cell_length_c	16.959454
_cell_angle_alpha	90.017022
_cell_angle_beta	90.027967
_cell_angle_gamma	90.020764
loop_
_atom_site_label
_atom_site_type_symbol
_atom_site_fract_x
_atom_site_fract_y
_atom_site_fract_z
Zn1	Zn	-0.545400	-1.208434	0.314721
Zn2	Zn	-0.384108	-1.208342	0.446916
Zn3	Zn	-0.384118	-1.076248	0.314748
Zn4	Zn	-0.545361	-1.076227	0.446854
O5	O	-0.464747	-1.142313	0.380810
O6	O	-0.524016	-1.319033	0.332271
O7	O	-0.249128	-1.190789	0.429421
O8	O	-0.405532	-1.093830	0.204134
O9	O	-0.405516	-1.318965	0.429394
O10	O	-0.524025	-1.190946	0.204113
O11	O	-0.249135	-1.093740	0.332318
O12	O	-0.405495	-0.965634	0.332258
O13	O	-0.680348	-1.093795	0.429289
O14	O	-0.523959	-0.965619	0.429316
O15	O	-0.680376	-1.190927	0.332211
O16	O	-0.405479	-1.190769	0.557519
O17	O	-0.523950	-1.093705	0.557473
C18	C	-0.464730	-1.142246	0.586176
C19	C	-0.464755	-1.142290	0.674033
C20	C	-0.464725	-0.936946	0.380784
C21	C	-0.464738	-0.849090	0.380792
C22	C	-0.716340	-1.142369	0.380740
C23	C	-0.823554	-1.142393	0.380710
C24	C	-1.019849	-1.142414	0.380657
C25	C	-0.910616	-1.142400	0.380689
C26	C	-0.214132	-1.142302	0.380822
C27	C	-0.106919	-1.142431	0.380629
C28	C	-0.464769	-1.348481	0.380837
C29	C	-0.464779	-1.436337	0.380848
C30	C	-0.403191	-0.477598	0.330231
C31	C	-0.526357	-0.477631	0.431454
C32	C	-0.526352	-0.560177	0.431443
C33	C	-0.464763	-0.601437	0.380825
C34	C	-0.403181	-0.560151	0.330219
C35	C	-0.587926	-0.601468	0.482054
C36	C	-0.587922	-0.684019	0.482045
C37	C	-0.526338	-0.725281	0.431423
C38	C	-0.464754	-0.683990	0.380814
C39	C	-0.403165	-0.725251	0.330197
C40	C	-0.341586	-0.683961	0.279583
C41	C	-0.341597	-0.601413	0.279597
C42	C	-0.526326	-0.807830	0.431409
C43	C	-0.403156	-0.807804	0.330186
C44	C	-0.464784	-1.142401	0.174642
C45	C	-0.464800	-1.142438	0.086785
C46	C	-0.526428	-1.091845	1.045514
C47	C	-0.403163	-1.193001	1.045502
C48	C	-0.403154	-1.192973	0.962956
C49	C	-0.464782	-1.142380	0.921686
C50	C	-0.526419	-1.091814	0.962961
C51	C	-0.341512	-1.243532	0.921674
C52	C	-0.341500	-1.243506	0.839124
C53	C	-0.403133	-1.192916	0.797852
C54	C	-0.464773	-1.142349	0.839132
C55	C	-0.526401	-1.091755	0.797862
C56	C	-0.588047	-1.041192	0.839141
C57	C	-0.588053	-1.041224	0.921689
C58	C	-0.403128	-1.192884	0.715303
C59	C	-0.526392	-1.091725	0.715308
H60	H	-0.353008	-0.841392	0.288961
C61	C	-0.654917	-0.986197	0.966404
C62	C	-0.633842	-0.907994	0.946368
C63	C	-0.695423	-0.857282	0.987537
H64	H	-0.646155	-0.993351	1.021489
H65	H	-0.719756	-0.997684	0.952822
H66	H	-0.569019	-0.896512	0.959954
H67	H	-0.642610	-0.900816	0.891289
H68	H	-0.760262	-0.868769	0.973956
H69	H	-0.686656	-0.864443	1.042621
H70	H	-0.681138	-0.804217	0.973943
C71	C	-0.336318	-1.247863	1.090449
C72	C	-0.349513	-1.237063	1.171577
C73	C	-0.287941	-1.287583	1.213010
H74	H	-0.271469	-1.236338	1.077035
H75	H	-0.350464	-1.300990	1.076946
H76	H	-0.335361	-1.183948	1.185075
H77	H	-0.414350	-1.248593	1.185015
H78	H	-0.302087	-1.340710	1.199507
H79	H	-0.223095	-1.276054	1.199589
H80	H	-0.296892	-1.280268	1.268059
C81	C	-0.593337	-0.852617	0.486255
C82	C	-0.688815	-0.832589	0.469133
C83	C	-0.750577	-0.873839	0.519636
H84	H	-0.579236	-0.839112	0.539380
H85	H	-0.584579	-0.907697	0.478991
H86	H	-0.697569	-0.777522	0.476405
H87	H	-0.702946	-0.846096	0.416018
H88	H	-0.741818	-0.928919	0.512371
H89	H	-0.736467	-0.860331	0.572758
H90	H	-0.815365	-0.860261	0.508021
C91	C	-0.654750	-0.556530	0.536922
C92	C	-0.641598	-0.475401	0.526080
C93	C	-0.703153	-0.433976	0.576605
H94	H	-0.640581	-0.569945	0.590048
H95	H	-0.719605	-0.570040	0.525412
H96	H	-0.576759	-0.461897	0.537596
H97	H	-0.655775	-0.461963	0.472965
H98	H	-0.768007	-0.447486	0.565095
H99	H	-0.688978	-0.447397	0.629727
H100	H	-0.694244	-0.378926	0.569250
C101	C	-0.274787	-0.556442	0.224731
C102	C	-0.287963	-0.475319	0.235590
C103	C	-0.226430	-0.433864	0.185067
H104	H	-0.288960	-0.569889	0.171604
H105	H	-0.209927	-0.569894	0.236232
H106	H	-0.352809	-0.461872	0.224083
H107	H	-0.273783	-0.461847	0.288706
H108	H	-0.161570	-0.447317	0.196568
H109	H	-0.240609	-0.447318	0.131943
H110	H	-0.235356	-0.378818	0.192432
H111	H	-0.576621	-1.050679	1.079127
C112	C	-0.336242	-1.247688	0.670344
C113	C	-0.349409	-1.236823	0.589217
C114	C	-0.287800	-1.287291	0.547777
H115	H	-0.350352	-1.300828	0.683736
H116	H	-0.271400	-1.236141	0.683863
H117	H	-0.414236	-1.248375	0.575703
H118	H	-0.335293	-1.183693	0.575801
H119	H	-0.222958	-1.275744	0.561297
H120	H	-0.301915	-1.340428	0.561176
H121	H	-0.296719	-1.279920	0.492729
C122	C	-0.654946	-0.728801	0.536891
C123	C	-0.750420	-0.708767	0.519760
C124	C	-0.812192	-0.750012	0.570258
H125	H	-0.640851	-0.715295	0.590017
H126	H	-0.646192	-0.783881	0.529628
H127	H	-0.759170	-0.653699	0.527029
H128	H	-0.764545	-0.722275	0.466643
H129	H	-0.803438	-0.805092	0.562996
H130	H	-0.798088	-0.736503	0.623381
H131	H	-0.876978	-0.736430	0.558637
H132	H	-0.291331	-1.284717	0.955283
C133	C	-0.274545	-1.298494	0.794453
C134	C	-0.220594	-1.342821	0.848265
C135	C	-0.158918	-1.393494	0.807142
H136	H	-0.232394	-1.268357	0.762283
H137	H	-0.311462	-1.332949	0.762231
H138	H	-0.183680	-1.308370	0.880473
H139	H	-0.262719	-1.372974	0.880437
H140	H	-0.195835	-1.427949	0.774921
H141	H	-0.116774	-1.363351	0.774974
H142	H	-0.122312	-1.423580	0.843648
C143	C	-0.593463	-1.036840	0.670603
C144	C	-0.688920	-1.054009	0.690639
C145	C	-0.750731	-1.003461	0.649480
H146	H	-0.584761	-1.044011	0.615515
H147	H	-0.579351	-0.983729	0.684192
H148	H	-0.703027	-1.107107	0.677044
H149	H	-0.697653	-1.046834	0.745719
H150	H	-0.736620	-0.950350	0.663069
H151	H	-0.742020	-1.010635	0.594394
H152	H	-0.815505	-1.015098	0.663074
C153	C	-0.274823	-0.728905	0.224660
C154	C	-0.288014	-0.810034	0.235478
C155	C	-0.226540	-0.851464	0.184891
H156	H	-0.209951	-0.715446	0.236111
H157	H	-0.289063	-0.715444	0.171548
H158	H	-0.273767	-0.823490	0.288578
H159	H	-0.352873	-0.823517	0.224021
H160	H	-0.240780	-0.838002	0.131779
H161	H	-0.161671	-0.837998	0.196347
H162	H	-0.235487	-0.906513	0.192219
H163	H	-0.638221	-0.999994	0.805529
H164	H	-0.576494	-0.444032	0.472669
H165	H	-0.353057	-0.443976	0.289020
