data_functionalizedCrystal
_audit_creation_method	'MofGen! by Chris Wilmer'
_symmetry_space_group_name_H-M	'P1'
_symmetry_Int_Tables_number	1
_symmetry_cell_setting	triclinic
loop_
_symmetry_equiv_pos_as_xyz
  x,y,z
_cell_length_a	17.699083
_cell_length_b	17.699083
_cell_length_c	16.776229
_cell_angle_alpha	90.013676
_cell_angle_beta	90.001114
_cell_angle_gamma	83.283016
loop_
_atom_site_label
_atom_site_type_symbol
_atom_site_fract_x
_atom_site_fract_y
_atom_site_fract_z
O1	O	-1.004078	-0.095713	-0.066189
O2	O	-0.783700	-0.108165	-0.066217
O3	O	-0.900116	0.008250	-0.066182
O4	O	-0.887663	-0.212128	-0.066223
O5	O	-0.900100	0.008257	0.066394
O6	O	-0.783685	-0.108158	0.066360
O7	O	-1.004063	-0.095706	0.066388
Zn8	Zn	-0.893871	-0.101931	0.087423
Zn9	Zn	-0.893892	-0.101940	-0.087252
O10	O	-0.887648	-0.212121	0.066354
C11	C	-0.755495	-0.107716	0.000068
C12	C	-0.671477	-0.106377	0.000059
C13	C	-0.899662	0.036451	0.000109
C14	C	-0.898323	0.120469	0.000119
C15	C	-1.032268	-0.096156	0.000101
C16	C	-1.116286	-0.097494	0.000105
N17	N	-0.893863	-0.101924	0.206634
C18	C	-0.622856	-0.174711	0.000046
C19	C	-0.543913	-0.173448	0.000057
C20	C	-0.513592	-0.103852	0.000074
C21	C	-0.562219	-0.035513	0.000089
C22	C	-0.641161	-0.036776	0.000084
C23	C	-0.243856	-0.030418	0.000109
C24	C	-0.164908	-0.029160	0.000112
C25	C	-0.146608	-0.167090	0.000083
C26	C	-0.225550	-0.168353	0.000078
C27	C	-0.274170	-0.100015	0.000097
C28	C	-0.359769	-0.101384	0.000087
C29	C	-0.427995	-0.102481	0.000078
C30	C	-0.966656	0.169090	0.000133
C31	C	-0.965394	0.248033	0.000135
C32	C	-0.895798	0.278354	0.000128
C33	C	-0.827459	0.229727	0.000111
C34	C	-0.828722	0.150785	0.000103
C35	C	-0.822364	0.548090	0.000139
C36	C	-0.821106	0.627038	0.000149
C37	C	-0.959036	0.645338	0.000171
C38	C	-0.960299	0.566396	0.000164
C39	C	-0.891961	0.517776	0.000143
C40	C	-0.893330	0.432177	0.000139
C41	C	-0.894427	0.363951	0.000137
C42	C	-0.888102	0.759678	0.000089
C43	C	-0.889440	0.675660	0.000158
N44	N	-0.893906	-0.101941	-0.206463
C45	C	-0.945428	-0.050396	0.248367
C46	C	-0.945432	-0.050396	0.331819
C47	C	-0.893875	-0.101927	0.373537
C48	C	-0.842305	-0.153457	0.331799
C49	C	-0.842297	-0.153454	0.248349
C50	C	-0.842332	-0.153472	0.668346
C51	C	-0.842345	-0.153473	0.751803
C52	C	-0.945466	-0.050414	0.751817
C53	C	-0.945459	-0.050411	0.668366
C54	C	-0.893887	-0.101938	0.626635
C55	C	-0.893882	-0.101937	0.536147
C56	C	-0.893882	-0.101932	0.464024
H57	H	-0.647537	-0.231384	0.000032
H58	H	-0.987444	-0.008452	0.634401
H59	H	-0.764429	0.651721	0.000145
Cl60	Cl	-0.482792	-0.259357	0.000037
Cl61	Cl	-0.263663	-0.255849	0.000052
Cl62	Cl	-1.044948	0.706465	0.000195
H63	H	-0.537526	0.021154	0.000114
H64	H	-0.987419	-0.008438	0.365797
H65	H	-0.773078	0.111198	0.000091
H66	H	-0.987414	-0.008437	0.214405
Cl67	Cl	-1.051303	0.309154	0.000156
Cl68	Cl	-0.126793	0.058340	0.000134
H69	H	-0.800358	-0.195437	0.785769
Cl70	Cl	-0.304969	0.055494	0.000132
H71	H	-0.800308	-0.195412	0.214371
Cl72	Cl	-1.010299	0.014367	0.804283
H73	H	-0.680748	0.018868	0.000094
Cl74	Cl	-1.054154	0.130980	0.000151
Cl75	Cl	-0.777503	-0.218250	0.615891
Cl76	Cl	-1.047795	0.528283	0.000171
H77	H	-0.766718	0.508512	0.000122
H78	H	-0.800322	-0.195412	0.365771
Cl79	Cl	-0.739966	0.267844	0.000092
H80	H	-0.107012	-0.222734	0.000071
