data_functionalizedCrystal
_audit_creation_method	'MofGen! by Chris Wilmer'
_symmetry_space_group_name_H-M	'P1'
_symmetry_Int_Tables_number	1
_symmetry_cell_setting	triclinic
loop_
_symmetry_equiv_pos_as_xyz
  x,y,z
_cell_length_a	17.000373
_cell_length_b	16.098538
_cell_length_c	14.044220
_cell_angle_alpha	92.971297
_cell_angle_beta	84.393948
_cell_angle_gamma	87.476612
loop_
_atom_site_label
_atom_site_type_symbol
_atom_site_fract_x
_atom_site_fract_y
_atom_site_fract_z
O1	O	-1.061759	0.069285	-0.029444
O2	O	-0.832454	0.069281	-0.063644
O3	O	-0.943664	0.069275	0.091153
O4	O	-0.950549	0.069292	-0.184241
O5	O	-0.937165	-0.069238	0.082144
O6	O	-0.825955	-0.069231	-0.072654
O7	O	-1.055260	-0.069227	-0.038453
Zn8	Zn	-0.939576	-0.091221	-0.056984
Zn9	Zn	-0.948138	0.091275	-0.045114
O10	O	-0.944050	-0.069221	-0.193251
C11	C	-0.799681	0.000025	-0.069986
C12	C	-0.711710	0.000023	-0.075449
C13	C	-0.673716	0.000015	0.008609
C14	C	-0.591059	0.000020	0.003471
C15	C	-0.546396	0.000026	-0.085726
C16	C	-0.584395	0.000036	-0.169789
C17	C	-0.667052	0.000037	-0.164650
C18	C	-0.296659	0.000027	-0.105577
C19	C	-0.213997	0.000022	-0.110710
C20	C	-0.220666	0.000008	0.062551
C21	C	-0.303324	0.000005	0.067682
C22	C	-0.341316	0.000019	-0.016381
C23	C	-0.461906	0.000027	-0.090980
C24	C	-0.425805	0.000023	-0.011125
N25	N	-0.933738	-0.215770	-0.065084
C26	C	-0.980960	-0.259358	0.000598
C27	C	-0.976885	-0.346546	-0.005077
C28	C	-0.925590	-0.390146	-0.076438
C29	C	-0.878362	-0.346552	-0.142123
C30	C	-0.882434	-0.259365	-0.136444
C31	C	-0.910826	-0.653395	-0.097011
C32	C	-0.906759	-0.740588	-0.102688
C33	C	-1.005281	-0.740577	0.034361
C34	C	-1.009352	-0.653388	0.040031
C35	C	-0.962122	-0.609802	-0.025651
C36	C	-0.921424	-0.479267	-0.082242
C37	C	-0.966284	-0.520682	-0.019842
C38	C	-0.088033	0.000025	-0.032112
C39	C	-0.176003	0.000015	-0.026652
C40	C	-0.937402	0.000018	0.121712
C41	C	-0.928414	0.000017	0.226188
N42	N	-0.953982	0.215824	-0.037005
C43	C	-0.950313	0.000038	-0.223809
C44	C	-0.959301	0.000044	-0.328285
C45	C	-0.911982	0.000029	0.417481
C46	C	-0.975729	0.000033	0.480428
C47	C	-0.966586	0.000039	0.586869
C48	C	-0.921124	0.000022	0.311029
H49	H	-0.548024	0.000046	-0.242415
H50	H	-0.710075	0.000007	0.081242
H51	H	-0.850545	0.000030	0.443529
C52	C	-0.821912	-0.394505	-0.220595
H53	H	-0.794359	-0.356056	-0.258887
H54	H	-0.851547	-0.428516	-0.259699
H55	H	-0.784986	-0.428517	-0.191600
H56	H	-0.560128	0.000015	0.071919
C57	C	-0.352447	-0.000002	0.165799
H58	H	-0.317980	-0.000001	0.215126
H59	H	-0.382562	-0.048305	0.168259
H60	H	-0.387097	0.048306	0.174549
C61	C	-0.164865	0.000029	-0.208828
H62	H	-0.110196	0.000015	-0.199846
H63	H	-0.179302	0.048334	-0.240440
H64	H	-0.174777	-0.048276	-0.246722
C65	C	-1.058733	0.000024	0.445248
H66	H	-1.097527	0.000030	0.498742
H67	H	-1.062670	-0.048281	0.404518
H68	H	-1.067211	0.048329	0.410788
H69	H	-0.864987	-0.776083	-0.160803
C70	C	-0.708849	0.000045	-0.257110
H71	H	-0.764473	0.000054	-0.241275
H72	H	-0.691670	-0.048253	-0.296693
H73	H	-0.696199	0.048358	-0.290398
H74	H	-0.843980	-0.223876	-0.189928
C75	C	-0.412778	0.000033	-0.189093
H76	H	-0.447241	0.000042	-0.238424
H77	H	-0.378123	-0.048266	-0.197839
H78	H	-0.382667	0.048345	-0.191549
H79	H	-0.872371	-0.617914	-0.150494
C80	C	-0.178876	0.000002	0.155015
H81	H	-0.217314	-0.000006	0.208872
H82	H	-0.149037	0.048303	0.159754
H83	H	-0.144505	-0.048308	0.153472
H84	H	-0.327583	0.000044	-0.174026
C85	C	-1.037384	-0.211406	0.079098
H86	H	-1.064918	-0.249856	0.117408
H87	H	-1.074317	-0.177378	0.050143
H88	H	-1.007719	-0.177411	0.118189
H89	H	-1.015336	-0.382035	0.048407
H90	H	-0.462173	0.000023	0.061498
H91	H	-1.051121	-0.617891	0.098139
C92	C	-1.057222	-0.788523	0.106612
H93	H	-1.047447	-0.846693	0.093018
H94	H	-1.111425	-0.774219	0.101680
H95	H	-1.044824	-0.774245	0.169723
H96	H	-1.008045	-0.485181	0.038264
H97	H	-0.879661	-0.514772	-0.140348
