data_functionalizedCrystal
_audit_creation_method	'MofGen! by Chris Wilmer'
_symmetry_space_group_name_H-M	'P1'
_symmetry_Int_Tables_number	1
_symmetry_cell_setting	triclinic
loop_
_symmetry_equiv_pos_as_xyz
  x,y,z
_cell_length_a	6.817900
_cell_length_b	17.284796
_cell_length_c	17.110486
_cell_angle_alpha	92.888757
_cell_angle_beta	99.060439
_cell_angle_gamma	103.042616
loop_
_atom_site_label
_atom_site_type_symbol
_atom_site_fract_x
_atom_site_fract_y
_atom_site_fract_z
V1	V	-3.971411	-0.108830	-0.239994
O2	O	-3.965649	0.005471	-0.242362
O3	O	-3.917852	-0.216024	-0.231681
O4	O	-3.901358	-0.107050	-0.347707
O5	O	-3.982257	-0.104257	-0.125533
V6	V	-4.458513	-0.095171	-0.227114
O7	O	-4.224818	-0.138793	-0.268247
O8	O	-4.655303	-0.065208	-0.198860
O9	O	-4.288865	0.012023	-0.235426
O10	O	-4.581671	-0.209472	-0.224746
O11	O	-4.565064	-0.099744	-0.341575
O12	O	-4.305359	-0.096951	-0.119401
C13	C	-3.762298	-0.242159	-0.226174
C14	C	-3.799650	-0.329791	-0.220095
C15	C	-4.007063	-0.821850	-0.178104
C16	C	-3.971982	-0.739513	-0.183829
C17	C	-3.979499	-0.709543	-0.258465
C18	C	-4.022082	-0.761914	-0.327381
C19	C	-4.057148	-0.844249	-0.321656
C20	C	-3.877298	-0.464497	-0.283286
C21	C	-3.842234	-0.382156	-0.289006
C22	C	-3.792132	-0.359760	-0.145452
C23	C	-3.827213	-0.442099	-0.139734
C24	C	-3.869782	-0.494462	-0.208650
N25	N	-3.943648	-0.625381	-0.264319
N26	N	-3.905618	-0.578622	-0.202795
C27	C	-3.741258	-0.103151	-0.374175
C28	C	-3.765232	-0.102405	-0.462187
C29	C	-3.957593	-0.105988	-0.507324
C30	C	-3.980107	-0.105287	-0.590020
C31	C	-3.810260	-0.101007	-0.627580
C32	C	-3.617883	-0.097421	-0.582437
C33	C	-3.595369	-0.098117	-0.499741
C34	C	-3.869176	-0.098704	-0.877077
C35	C	-3.891706	-0.098011	-0.959779
C36	C	-4.253928	-0.105876	-0.967356
C37	C	-4.231399	-0.106576	-0.884659
C38	C	-4.039023	-0.102985	-0.839523
C39	C	-3.833270	-0.100293	-0.712109
C40	C	-4.016014	-0.103694	-0.754995
C41	C	-4.107761	0.038154	-0.240931
C42	C	-4.049647	0.125785	-0.247015
C43	C	-4.128802	-0.100853	-0.092928
C44	C	-4.084067	-0.101595	-0.004915
H45	H	-4.028188	-0.737505	-0.388152
H46	H	-4.369710	-0.110060	-0.854084
Br47	Br	-3.852461	-0.341483	-0.390306
Br48	Br	-3.734391	-0.288693	-0.051930
H49	H	-3.821093	-0.466494	-0.078957
H50	H	-3.753385	-0.094524	-0.990356
Br51	Br	-4.188119	-0.111805	-0.456360
H52	H	-3.694986	-0.096811	-0.742699
H53	H	-4.154299	-0.107176	-0.724411
Br54	Br	-3.934864	-0.535548	-0.376811
Br55	Br	-4.114961	-0.915318	-0.415182
H56	H	-4.136741	-0.108201	-0.626767
H57	H	-3.712548	-0.095809	-0.840340
H58	H	-3.937315	-0.696880	-0.127714
Br59	Br	-4.514997	-0.110747	-1.028616
H60	H	-3.479591	-0.093932	-0.613024
H61	H	-4.000946	-0.846245	-0.117327
Br62	Br	-3.334293	-0.093242	-0.438482
