data_functionalizedCrystal
_audit_creation_method	'MofGen! by Chris Wilmer'
_symmetry_space_group_name_H-M	'P1'
_symmetry_Int_Tables_number	1
_symmetry_cell_setting	triclinic
loop_
_symmetry_equiv_pos_as_xyz
  x,y,z
_cell_length_a	10.489746
_cell_length_b	8.559649
_cell_length_c	7.088929
_cell_angle_alpha	84.674985
_cell_angle_beta	83.712230
_cell_angle_gamma	102.840017
loop_
_atom_site_label
_atom_site_type_symbol
_atom_site_fract_x
_atom_site_fract_y
_atom_site_fract_z
O1	O	-0.028523	-2.103400	-0.158956
O2	O	0.037276	-1.638953	-0.158968
O3	O	-0.182335	-1.881742	-0.158947
O4	O	0.191088	-1.860611	-0.158976
O5	O	-0.211742	-1.914187	0.159031
O6	O	0.007868	-1.671399	0.159010
O7	O	-0.057930	-2.135845	0.159022
Cu8	Cu	-0.027716	-1.906584	0.188050
Cu9	Cu	0.007062	-1.868214	-0.187996
O10	O	0.161680	-1.893057	0.159001
C11	C	0.027558	-1.595703	0.000020
C12	C	0.042401	-1.418494	0.000016
C13	C	-0.048213	-2.179094	0.000030
C14	C	-0.063054	-2.356303	0.000021
C15	C	-0.244402	-1.896367	0.000041
C16	C	-0.385528	-1.891588	0.000040
C17	C	-0.521819	-1.734278	0.000012
C18	C	-0.438209	-1.796928	-0.156762
C19	C	-0.467248	-1.828954	0.156740
C20	C	-0.553363	-1.945785	-0.156906
C21	C	-0.582418	-1.977803	0.156736
C22	C	-0.498865	-2.040559	-0.000076
C23	C	0.223747	-1.878431	0.000009
C24	C	0.364874	-1.883209	-0.000002
N25	N	-0.052179	-1.933584	0.452540
N26	N	0.031513	-1.841227	-0.452486
H27	H	-0.532887	-1.604758	-0.000147
H28	H	-0.164693	-1.438627	0.000020
H29	H	0.118244	-1.745509	0.465860
H30	H	-0.488029	-2.170151	-0.000158
H31	H	-0.429438	-1.779578	0.289281
H32	H	-0.644790	-2.054144	0.289289
H33	H	-0.138908	-2.029320	0.534204
H34	H	-0.375855	-1.720531	-0.289309
H35	H	-0.590988	-1.995074	-0.289598
H36	H	0.144048	-1.336158	-0.000002
