data_functionalizedCrystal
_audit_creation_method	'MofGen! by Chris Wilmer'
_symmetry_space_group_name_H-M	'P1'
_symmetry_Int_Tables_number	1
_symmetry_cell_setting	triclinic
loop_
_symmetry_equiv_pos_as_xyz
  x,y,z
_cell_length_a	14.908571
_cell_length_b	25.639240
_cell_length_c	14.908308
_cell_angle_alpha	93.259955
_cell_angle_beta	89.824947
_cell_angle_gamma	93.261014
loop_
_atom_site_label
_atom_site_type_symbol
_atom_site_fract_x
_atom_site_fract_y
_atom_site_fract_z
Zn1	Zn	1.345112	0.272843	0.587523
Zn2	Zn	1.353637	0.355540	0.437145
Zn3	Zn	1.203434	0.262801	0.428523
Zn4	Zn	1.194665	0.354918	0.578797
O5	O	1.274212	0.311526	0.507997
O6	O	1.472066	0.288276	0.574835
O7	O	1.340950	0.339295	0.310178
O8	O	1.222330	0.190973	0.449658
O9	O	1.478329	0.349032	0.464353
O10	O	1.326420	0.198351	0.566474
O11	O	1.230596	0.271160	0.303843
O12	O	1.076448	0.270558	0.441197
O13	O	1.207385	0.347974	0.705778
O14	O	1.070005	0.338236	0.551603
O15	O	1.317917	0.287673	0.712189
O16	O	1.332447	0.428618	0.455892
O17	O	1.215651	0.428161	0.559963
C18	C	1.040602	0.303240	0.494518
C19	C	0.940661	0.299709	0.488772
C20	C	1.274045	0.447361	0.507938
C21	C	1.274055	0.505475	0.507947
C22	C	0.746211	0.363646	0.592788
C23	C	0.652308	0.360330	0.587393
C24	C	0.658949	0.289759	0.472593
C25	C	0.752853	0.293075	0.477988
C26	C	0.796480	0.330020	0.538086
C27	C	0.890385	0.333339	0.543476
C28	C	0.897025	0.262765	0.428681
C29	C	0.803122	0.259449	0.423286
C30	C	1.335099	0.866075	0.453875
C31	C	1.335126	0.920680	0.453885
O32	O	1.386911	0.949113	0.407877
N33	N	1.274283	0.947768	0.508021
C34	C	1.213415	0.920247	0.562157
O35	O	1.161667	0.948301	0.608206
C36	C	1.213393	0.865643	0.562151
C37	C	1.274234	0.838558	0.508005
C38	C	1.395936	0.838990	0.399734
C39	C	1.395908	0.784388	0.399723
C40	C	1.335043	0.756871	0.453853
C41	C	1.274206	0.783956	0.507994
C42	C	1.152530	0.838124	0.616291
C43	C	1.152514	0.783516	0.616281
C44	C	1.213355	0.756431	0.562135
C45	C	1.213312	0.701837	0.562112
N46	N	1.274156	0.674750	0.507976
C47	C	1.335021	0.702267	0.453847
C48	C	1.213467	1.034920	0.562167
C49	C	1.213484	1.089523	0.562169
C50	C	1.335197	1.089952	0.453898
C51	C	1.335175	1.035348	0.453892
C52	C	1.274310	1.007832	0.508031
C53	C	1.334956	0.587599	0.453826
C54	C	1.334920	0.532992	0.453817
C55	C	1.213211	0.532568	0.562091
C56	C	1.213243	0.587169	0.562097
C57	C	1.274124	0.614684	0.507962
O58	O	1.161557	0.673370	0.608100
O59	O	1.386769	0.674207	0.407815
C60	C	1.508734	0.319843	0.521529
C61	C	1.608674	0.323388	0.527296
C62	C	1.260722	0.318874	0.742521
C63	C	1.254973	0.322006	0.842461
C64	C	1.274370	1.175160	0.508060
C65	C	1.274353	1.117045	0.508042
C66	C	1.287701	0.304169	0.274389
C67	C	1.293624	0.300897	0.174459
C68	C	1.359266	0.265088	1.036936
C69	C	1.353868	0.268028	1.130838
C70	C	1.238774	0.330825	1.124170
C71	C	1.244172	0.327884	1.030268
C72	C	1.304421	0.295015	0.986654
C73	C	1.309824	0.292077	0.892750
C74	C	1.194726	0.354871	0.886083
C75	C	1.189327	0.357812	0.979986
H76	H	0.925905	0.363422	0.592410
H77	H	1.445505	0.861389	0.355655
H78	H	0.781733	0.393731	0.641717
Cl79	Cl	1.411412	0.498946	0.385743
Cl80	Cl	0.604087	0.243310	0.397061
H81	H	0.767588	0.229368	0.374358
H82	H	1.102983	0.860166	0.660379
Cl83	Cl	0.589114	0.402603	0.656165
H84	H	0.937965	0.235385	0.384137
Cl85	Cl	1.385567	0.250758	0.837922
H86	H	1.150070	0.379242	0.845133
Cl87	Cl	1.435015	0.223774	0.982104
Cl88	Cl	1.411713	1.124555	0.385847
H89	H	1.163897	1.012519	0.606250
Cl90	Cl	1.075995	0.748928	0.684348
H91	H	1.398526	0.243657	1.171775
H92	H	1.384717	1.013299	0.409802
Cl93	Cl	1.411490	0.622180	0.385768
H94	H	1.140273	0.384572	1.015509
Cl95	Cl	1.472411	0.750348	0.331664
H96	H	1.189721	0.357585	1.159697
Cl97	Cl	1.136985	1.123565	0.630230
H98	H	1.163704	0.609223	0.606190
H99	H	1.163652	0.510155	0.606160
