data_functionalizedCrystal
_audit_creation_method	'MofGen! by Chris Wilmer'
_symmetry_space_group_name_H-M	'P1'
_symmetry_Int_Tables_number	1
_symmetry_cell_setting	triclinic
loop_
_symmetry_equiv_pos_as_xyz
  x,y,z
_cell_length_a	12.594517
_cell_length_b	25.639240
_cell_length_c	25.639234
_cell_angle_alpha	89.967912
_cell_angle_beta	89.988952
_cell_angle_gamma	90.028646
loop_
_atom_site_label
_atom_site_type_symbol
_atom_site_fract_x
_atom_site_fract_y
_atom_site_fract_z
Zn1	Zn	1.627139	-0.208240	-0.295461
Zn2	Zn	1.626979	-0.295668	-0.208014
Zn3	Zn	1.449144	-0.208242	-0.208053
Zn4	Zn	1.449073	-0.295640	-0.295432
O5	O	1.538084	-0.251948	-0.251740
O6	O	1.776063	-0.219848	-0.283857
O7	O	1.603352	-0.284084	-0.134854
O8	O	1.472852	-0.135077	-0.219676
O9	O	1.775946	-0.284082	-0.219610
O10	O	1.603624	-0.135075	-0.283894
O11	O	1.472697	-0.219852	-0.134882
O12	O	1.300189	-0.219825	-0.219648
O13	O	1.472731	-0.284033	-0.368601
O14	O	1.300137	-0.284036	-0.283845
O15	O	1.603555	-0.219821	-0.368622
O16	O	1.603283	-0.368830	-0.219582
O17	O	1.472576	-0.368809	-0.283808
C18	C	1.261543	-0.251928	-0.251748
C19	C	1.143237	-0.251932	-0.251764
C20	C	1.073987	-0.286925	-0.286613
C21	C	1.003206	-0.239256	-0.299483
C22	C	1.003219	-0.299640	-0.238882
C23	C	1.074015	-0.204238	-0.264659
C24	C	1.074034	-0.264654	-0.204035
C25	C	1.003285	-0.216953	-0.216887
C26	C	1.537933	-0.387790	-0.251699
C27	C	1.537966	-0.445904	-0.251699
C28	C	1.606210	-0.806228	-0.285239
C29	C	1.606242	-0.860832	-0.285249
O30	O	1.664087	-0.889036	-0.313724
N31	N	1.538231	-0.888187	-0.251790
C32	C	1.470177	-0.860934	-0.218323
O33	O	1.412331	-0.889215	-0.189864
C34	C	1.470141	-0.806331	-0.218315
C35	C	1.538164	-0.778979	-0.251772
C36	C	1.674227	-0.778876	-0.318694
C37	C	1.674196	-0.724276	-0.318682
C38	C	1.606150	-0.697027	-0.285216
C39	C	1.538134	-0.724379	-0.251761
C40	C	1.402083	-0.779079	-0.184850
C41	C	1.402052	-0.724472	-0.184846
C42	C	1.470075	-0.697120	-0.218303
C43	C	1.470057	-0.642529	-0.218283
N44	N	1.538068	-0.615175	-0.251742
C45	C	1.606114	-0.642424	-0.285208
C46	C	1.470257	-0.975605	-0.218342
C47	C	1.470297	-1.030207	-0.218346
C48	C	1.606361	-1.030101	-0.285274
C49	C	1.606325	-0.975498	-0.285266
C50	C	1.538267	-0.948250	-0.251801
C51	C	1.606046	-0.527759	-0.285181
C52	C	1.606013	-0.473153	-0.285165
C53	C	1.469946	-0.473263	-0.218240
C54	C	1.469983	-0.527864	-0.218254
C55	C	1.538036	-0.555110	-0.251729
O56	O	1.412239	-0.614291	-0.189824
O57	O	1.663940	-0.614136	-0.313666
C58	C	1.815704	-0.251968	-0.251732
C59	C	1.934010	-0.251977	-0.251729
C60	C	1.538153	-0.251924	-0.388113
C61	C	1.538182	-0.251914	-0.446227
C62	C	1.538264	-0.115575	-0.251793
C63	C	1.538340	-0.057461	-0.251815
C64	C	1.470180	-0.218406	-0.806611
C65	C	1.470186	-0.218397	-0.861215
O66	O	1.412315	-0.189965	-0.889469
N67	N	1.538218	-0.251832	-0.888510
C68	C	1.606240	-0.285282	-0.861197
O69	O	1.664106	-0.313721	-0.889428
C70	C	1.606228	-0.285294	-0.806594
C71	C	1.538200	-0.251853	-0.779302
C72	C	1.402157	-0.184968	-0.779318
C73	C	1.402153	-0.184977	-0.724718
C74	C	1.470172	-0.218424	-0.697409
C75	C	1.538196	-0.251862	-0.724702
C76	C	1.674245	-0.318746	-0.779283
C77	C	1.674227	-0.318756	-0.724676
C78	C	1.606198	-0.285315	-0.697384
C79	C	1.606212	-0.285317	-0.642792
N80	N	1.538180	-0.251882	-0.615498
C81	C	1.470160	-0.218436	-0.642806
C82	C	1.606259	-0.285256	-0.975868
C83	C	1.606277	-0.285242	-1.030470
C84	C	1.470221	-0.218357	-1.030484
C85	C	1.470209	-0.218368	-0.975881
C86	C	1.538227	-0.251821	-0.948573
C87	C	1.470158	-0.218457	-0.528141
C88	C	1.470163	-0.218467	-0.473536
C89	C	1.606214	-0.285354	-0.473527
C90	C	1.606214	-0.285341	-0.528127
C91	C	1.538177	-0.251891	-0.555433
O92	O	1.664050	-0.313736	-0.614504
O93	O	1.412294	-0.190007	-0.614569
C94	C	1.538076	-0.251934	-0.115897
C95	C	1.538253	-0.251797	-0.057784
H96	H	1.105034	-0.316460	-0.316122
Br97	Br	0.951352	-0.221344	-0.366731
Br98	Br	1.309758	-0.816185	-0.139442
H99	H	1.661766	-1.052297	-0.312525
Br100	Br	1.698644	-0.938384	-0.330674
H101	H	1.414602	-0.550135	-0.191006
H102	H	1.661661	-0.312493	-0.953638
Br103	Br	1.766568	-0.364137	-0.816308
H104	H	1.414918	-1.052472	-0.191096
Br105	Br	1.125621	-0.137001	-0.282870
H106	H	1.414546	-0.451069	-0.190990
H107	H	0.972116	-0.339968	-0.228003
H108	H	0.972437	-0.187346	-0.187402
Br109	Br	1.698406	-0.564727	-0.330611
Br110	Br	1.125887	-0.282576	-0.136793
Br111	Br	1.698339	-0.436036	-0.330573
Br112	Br	1.766510	-0.687164	-0.364095
Br113	Br	1.377837	-0.173077	-0.436500
H114	H	1.414756	-0.191218	-0.550367
H115	H	1.729638	-0.801057	-0.345949
Br116	Br	1.377890	-0.938631	-0.172917
H117	H	1.346628	-0.702289	-0.157594
Br118	Br	1.309818	-0.139593	-0.687687
Br119	Br	1.309815	-0.139578	-0.816370
Br120	Br	1.377882	-0.172983	-0.938847
Br121	Br	1.698530	-0.330740	-0.436455
H122	H	1.729623	-0.345994	-0.702445
Br123	Br	1.377908	-0.172964	-1.067556
Br124	Br	1.698622	-0.330619	-1.067503
H125	H	1.661620	-0.312566	-0.550350
