data_functionalizedCrystal
_audit_creation_method	'MofGen! by Chris Wilmer'
_symmetry_space_group_name_H-M	'P1'
_symmetry_Int_Tables_number	1
_symmetry_cell_setting	triclinic
loop_
_symmetry_equiv_pos_as_xyz
  x,y,z
_cell_length_a	11.792241
_cell_length_b	27.732048
_cell_length_c	10.268362
_cell_angle_alpha	89.989776
_cell_angle_beta	89.999626
_cell_angle_gamma	83.418036
loop_
_atom_site_label
_atom_site_type_symbol
_atom_site_fract_x
_atom_site_fract_y
_atom_site_fract_z
O1	O	1.504790	0.066248	-0.108189
O2	O	2.004790	0.566248	0.391811
O3	O	1.174230	0.073076	-0.108221
O4	O	1.674230	0.573076	0.391779
O5	O	1.349776	-0.000675	-0.108179
O6	O	1.849776	0.499325	0.391821
O7	O	1.329243	0.139999	-0.108231
O8	O	1.829243	0.639999	0.391769
O9	O	1.349761	-0.000678	0.108421
O10	O	1.849761	0.499322	0.608421
O11	O	1.174215	0.073073	0.108379
O12	O	1.674215	0.573073	0.608379
O13	O	1.504775	0.066245	0.108411
O14	O	2.004775	0.566245	0.608411
Cu15	Cu	1.339493	0.069659	0.128173
Cu16	Cu	1.839493	0.569659	0.628173
Cu17	Cu	1.339511	0.069662	-0.127983
Cu18	Cu	1.839511	0.569662	0.372017
O19	O	1.329228	0.139996	0.108370
O20	O	1.829228	0.639996	0.608370
C21	C	1.131945	0.072645	0.000075
C22	C	1.631945	0.572645	0.500075
C23	C	1.005973	0.071362	0.000064
C24	C	1.505973	0.571362	0.500064
C25	C	1.349338	-0.018686	0.000124
C26	C	1.849338	0.481314	0.500124
C27	C	1.348040	-0.072348	0.000135
C28	C	1.848040	0.427652	0.500135
C29	C	0.775336	0.069001	0.000103
C30	C	1.275336	0.569001	0.500103
C31	C	0.903679	0.070313	0.000082
C32	C	1.403679	0.570313	0.500082
C33	C	1.443606	-0.410609	0.000077
C34	C	1.943606	0.089391	0.500077
C35	C	1.438790	-0.612297	0.000059
C36	C	1.938790	-0.112297	0.500059
O37	O	1.526178	-0.643045	0.000010
O38	O	2.026178	-0.143045	0.500010
N39	N	1.334698	-0.632024	0.000050
N40	N	1.834698	-0.132024	0.500050
C41	C	1.231803	-0.601327	0.000037
C42	C	1.731803	-0.101327	0.500037
O43	O	1.143157	-0.622734	0.000016
O44	O	1.643157	-0.122734	0.500016
C45	C	1.236620	-0.399640	0.000046
C46	C	1.736620	0.100360	0.500046
C47	C	1.340718	-0.379915	0.000069
C48	C	1.840718	0.120085	0.500069
C49	C	1.547695	-0.390884	0.000098
C50	C	2.047695	0.109116	0.500098
C51	C	1.548898	-0.340465	0.000110
C52	C	2.048898	0.159535	0.500110
C53	C	1.446011	-0.309771	0.000101
C54	C	1.946011	0.190229	0.500101
C55	C	1.341921	-0.329496	0.000080
C56	C	1.841921	0.170504	0.500080
C57	C	1.133726	-0.368943	0.000024
C58	C	1.633726	0.131057	0.500024
C59	C	1.134940	-0.318519	0.000023
C60	C	1.634940	0.181481	0.500023
C61	C	1.239038	-0.298794	0.000045
C62	C	1.739038	0.201206	0.500045
C63	C	1.240237	-0.248384	0.000083
C64	C	1.740237	0.251616	0.500083
N65	N	1.344328	-0.228656	0.000092
N66	N	1.844328	0.271344	0.500092
C67	C	1.447215	-0.259350	0.000101
C68	C	1.947215	0.240650	0.500101
C69	C	1.229282	-0.707215	0.000035
C70	C	1.729282	-0.207215	0.500035
C71	C	1.228077	-0.757637	0.000035
C72	C	1.728077	-0.257637	0.500035
C73	C	1.435065	-0.768603	0.000054
C74	C	1.935065	-0.268603	0.500054
C75	C	1.436268	-0.718181	0.000063
C76	C	1.936268	-0.218181	0.500063
C77	C	1.333374	-0.687488	0.000044
C78	C	1.833374	-0.187488	0.500044
C79	C	1.449733	-0.153466	0.000127
C80	C	1.949733	0.346534	0.500127
C81	C	1.450927	-0.103042	0.000144
C82	C	1.950927	0.396958	0.500144
C83	C	1.243941	-0.092080	0.000118
C84	C	1.743941	0.407920	0.500118
C85	C	1.242746	-0.142500	0.000108
C86	C	1.742746	0.357500	0.500108
C87	C	1.345652	-0.173192	0.000108
C88	C	1.845652	0.326808	0.500108
O89	O	1.152896	-0.217607	0.000117
O90	O	1.652896	0.282393	0.500117
O91	O	1.535849	-0.237933	0.000093
O92	O	2.035849	0.262067	0.500093
C93	C	1.442403	-0.461028	0.000066
C94	C	1.942403	0.038972	0.500066
C95	C	1.338313	-0.480753	0.000045
C96	C	1.838313	0.019247	0.500045
C97	C	1.235426	-0.450060	0.000036
C98	C	1.735426	0.049940	0.500036
C99	C	1.337108	-0.531175	0.000045
C100	C	1.837108	-0.031175	0.500045
C101	C	1.439996	-0.561868	0.000054
C102	C	1.939996	-0.061868	0.500054
C103	C	1.544087	-0.542141	0.000063
C104	C	2.044087	-0.042141	0.500063
C105	C	1.545290	-0.491722	0.000074
C106	C	2.045290	0.008278	0.500074
C107	C	1.131334	-0.469787	0.000027
C108	C	1.631334	0.030213	0.500027
C109	C	1.130140	-0.520207	0.000017
C110	C	1.630140	-0.020207	0.500017
C111	C	1.233027	-0.550900	0.000026
C112	C	1.733027	-0.050900	0.500026
C113	C	1.547059	0.066676	0.000112
C114	C	2.047059	0.566676	0.500112
C115	C	1.673032	0.067959	0.000114
C116	C	2.173032	0.567959	0.500114
C117	C	1.329667	0.158007	0.000063
C118	C	1.829667	0.658007	0.500063
C119	C	1.330965	0.211669	0.000044
C120	C	1.830965	0.711669	0.500044
N121	N	1.339489	0.069656	0.308339
N122	N	1.839489	0.569656	0.808339
N123	N	1.339525	0.069661	-0.308148
N124	N	1.839525	0.569661	0.191852
C125	C	1.339506	0.069661	0.574009
C126	C	1.839506	0.569661	1.074009
C127	C	1.339493	0.069660	0.426171
C128	C	1.839493	0.569660	0.926171
H129	H	1.535700	-0.086985	0.000165
H130	H	2.035700	0.413015	0.500165
O131	O	1.132971	-0.058971	0.000107
O132	O	1.632971	0.441029	0.500107
H133	H	1.151306	-0.020597	0.000103
H134	H	1.651306	0.479403	0.500103
H135	H	1.051148	-0.293530	0.000006
H136	H	1.551148	0.206470	0.500006
H137	H	1.630058	-0.475667	0.000092
H138	H	2.130058	0.024333	0.500092
H139	H	1.521034	-0.702125	0.000080
H140	H	2.021034	-0.202125	0.500080
O141	O	1.655063	-0.575250	0.000073
O142	O	2.155063	-0.075250	0.500073
H143	H	1.636725	-0.613624	0.000054
H144	H	2.136725	-0.113624	0.500054
H145	H	1.145488	-0.682229	0.000019
H146	H	1.645488	-0.182229	0.500019
H147	H	1.045364	-0.536261	0.000010
H148	H	1.545364	-0.036261	0.500010
O149	O	1.020353	-0.436688	0.000042
O150	O	1.520353	0.063312	0.500042
H151	H	0.970489	-0.443731	-0.088235
H152	H	1.470489	0.056269	0.411765
O153	O	1.130474	-0.163779	0.000088
O154	O	1.630474	0.336221	0.500088
H155	H	1.059133	-0.133963	0.000078
H156	H	1.559133	0.366037	0.500078
O157	O	1.560723	-0.186565	0.000150
O158	O	2.060723	0.313435	0.500150
H159	H	1.610599	-0.179506	-0.088113
H160	H	2.110599	0.320494	0.411887
O161	O	1.661175	-0.319193	0.000096
O162	O	2.161175	0.180807	0.500096
H163	H	1.732507	-0.349013	0.000079
H164	H	2.232507	0.150987	0.500079
H165	H	1.518839	-0.793603	0.000062
H166	H	2.018839	-0.293603	0.500062
O167	O	1.658679	-0.423984	0.000129
O168	O	2.158679	0.076016	0.500129
H169	H	1.708555	-0.416926	-0.088136
H170	H	2.208555	0.083074	0.411864
O171	O	1.115802	-0.778910	0.000028
O172	O	1.615802	-0.278910	0.500028
H173	H	1.044466	-0.749091	0.000010
H174	H	1.544466	-0.249091	0.500010
H175	H	1.048958	-0.384994	-0.000001
H176	H	1.548958	0.115006	0.499999
