data_functionalizedCrystal
_audit_creation_method	'MofGen! by Chris Wilmer'
_symmetry_space_group_name_H-M	'P1'
_symmetry_Int_Tables_number	1
_symmetry_cell_setting	triclinic
loop_
_symmetry_equiv_pos_as_xyz
  x,y,z
_cell_length_a	16.793024
_cell_length_b	16.793047
_cell_length_c	33.586455
_cell_angle_alpha	113.253857
_cell_angle_beta	66.219990
_cell_angle_gamma	112.758327
loop_
_atom_site_label
_atom_site_type_symbol
_atom_site_fract_x
_atom_site_fract_y
_atom_site_fract_z
O1	O	0.005016	-0.570216	-0.583573
O2	O	-0.034529	-0.474528	-0.453458
O3	O	0.114723	-0.474535	-0.528082
O4	O	-0.144235	-0.570209	-0.508949
O5	O	0.108729	-0.346329	-0.530229
O6	O	-0.040523	-0.346322	-0.455605
O7	O	-0.000977	-0.442010	-0.585721
Cu8	Cu	-0.021297	-0.382459	-0.520859
Cu9	Cu	-0.014209	-0.534079	-0.518320
O10	O	-0.150229	-0.442003	-0.511097
C11	C	0.005100	-0.790970	-0.238461
C12	C	-0.040584	-0.395375	-0.435637
C13	C	-0.044693	-0.353446	-0.386631
C14	C	-0.039275	-0.401741	-0.363054
C15	C	-0.040566	-0.125547	-0.300731
C16	C	-0.044689	-0.223451	-0.321635
C17	C	-0.039266	-0.270752	-0.297563
C18	C	0.005118	-0.521142	-0.103554
C19	C	-0.046224	-0.263935	-0.366370
C20	C	-0.036476	-0.360146	-0.318399
C21	C	-0.030850	-0.408530	-0.294565
C22	C	-0.028014	-0.367522	-0.249895
C23	C	-0.030804	-0.278128	-0.229058
C24	C	-0.036430	-0.229743	-0.252892
C25	C	-0.027971	-0.237122	-0.184383
C26	C	-0.022345	-0.285507	-0.160550
C27	C	-0.019555	-0.374900	-0.181386
C28	C	-0.022391	-0.415909	-0.226057
C29	C	-0.019601	-0.505302	-0.246894
C30	C	-0.013975	-0.553687	-0.223060
C31	C	-0.011142	-0.512684	-0.178391
C32	C	-0.013932	-0.423291	-0.157554
C33	C	-0.005516	-0.561069	-0.154557
C34	C	-0.002726	-0.650463	-0.175394
C35	C	-0.005562	-0.691471	-0.220064
C36	C	-0.011185	-0.643081	-0.243897
C37	C	-0.022434	-0.546309	-0.291568
C38	C	-0.019644	-0.635702	-0.312405
C39	C	-0.014021	-0.684089	-0.288567
C40	C	-0.022480	-0.676711	-0.357076
C41	C	-0.028106	-0.628326	-0.380910
C42	C	-0.030896	-0.538933	-0.360073
C43	C	-0.028060	-0.497924	-0.315402
C44	C	-0.036522	-0.490548	-0.383907
C45	C	0.815184	-0.521162	-0.508596
C46	C	0.415541	-0.125553	-0.528781
C47	C	0.375032	-0.223457	-0.531493
C48	C	0.423813	-0.270761	-0.529101
C49	C	0.149318	-0.395376	-0.530584
C50	C	0.246774	-0.353455	-0.532364
C51	C	0.294574	-0.401748	-0.529976
C52	C	0.548961	-0.790984	-0.510398
C53	C	0.286104	-0.263940	-0.532530
C54	C	0.383336	-0.360149	-0.528302
C55	C	0.432207	-0.407971	-0.525810
C56	C	0.392316	-0.497392	-0.524993
C57	C	0.303554	-0.538991	-0.526667
C58	C	0.254683	-0.491169	-0.529159
C59	C	0.263666	-0.628421	-0.525851
C60	C	0.312537	-0.676243	-0.523359
C61	C	0.401299	-0.634644	-0.521685
C62	C	0.441190	-0.545223	-0.522502
C63	C	0.529952	-0.503624	-0.520828
C64	C	0.578823	-0.551446	-0.518336
C65	C	0.538939	-0.640864	-0.517520
C66	C	0.450177	-0.682463	-0.519194
C67	C	0.587810	-0.688687	-0.515028
C68	C	0.676572	-0.647088	-0.513354
C69	C	0.716463	-0.557666	-0.514172
C70	C	0.667586	-0.509847	-0.516662
C71	C	0.569840	-0.414195	-0.521644
C72	C	0.658602	-0.372596	-0.519970
C73	C	0.707476	-0.420426	-0.517480
C74	C	0.698493	-0.283174	-0.520788
C75	C	0.649622	-0.235352	-0.523280
C76	C	0.560860	-0.276951	-0.524954
C77	C	0.520969	-0.366372	-0.524136
C78	C	0.511989	-0.229129	-0.527446
C79	C	-0.040530	-0.395407	-0.935652
C80	C	0.005063	-0.791004	-0.738448
C81	C	0.009186	-0.693099	-0.717543
C82	C	0.003779	-0.645796	-0.741620
C83	C	0.005077	-0.521171	-0.603544
C84	C	0.009198	-0.563096	-0.652550
C85	C	0.003786	-0.514804	-0.676131
C86	C	-0.040516	-0.125574	-0.800747
C87	C	0.010719	-0.652613	-0.672809
C88	C	0.000994	-0.556406	-0.720789
C89	C	-0.004621	-0.508585	-0.744908
C90	C	-0.007444	-0.419162	-0.724369
C91	C	-0.004651	-0.377560	-0.679711
C92	C	0.000964	-0.425381	-0.655592
C93	C	-0.007471	-0.288129	-0.659174
C94	C	-0.013086	-0.240308	-0.683293
C95	C	-0.015878	-0.281910	-0.727951
C96	C	-0.013056	-0.371333	-0.748490
C97	C	-0.015848	-0.412935	-0.793148
C98	C	-0.021463	-0.365114	-0.817267
C99	C	-0.024282	-0.275694	-0.796731
C100	C	-0.021490	-0.234092	-0.752073
C101	C	-0.029897	-0.227873	-0.820850
C102	C	-0.032690	-0.269476	-0.865508
C103	C	-0.029867	-0.358899	-0.886047
C104	C	-0.024255	-0.406717	-0.861925
C105	C	-0.013028	-0.502367	-0.813685
C106	C	-0.015821	-0.543969	-0.858343
C107	C	-0.021433	-0.496140	-0.882464
C108	C	-0.012998	-0.633392	-0.878882
C109	C	-0.007383	-0.681213	-0.854763
C110	C	-0.004591	-0.639611	-0.810105
C111	C	-0.007414	-0.550188	-0.789566
C112	C	0.001024	-0.687432	-0.785986
O113	O	-0.000965	0.173549	-0.277957
O114	O	-0.040516	-0.085616	-0.325254
O115	O	0.108737	0.059592	-0.327284
O116	O	-0.150219	0.028341	-0.275927
O117	O	0.114753	0.055151	-0.263265
O118	O	-0.034500	-0.090057	-0.261234
O119	O	0.005051	0.169108	-0.213937
Cu120	Cu	-0.014175	0.039120	-0.231740
Cu121	Cu	-0.021290	0.044372	-0.307451
O122	O	-0.144202	0.023900	-0.211907
O123	O	-0.034458	-0.474571	0.046517
O124	O	0.005076	-0.570190	-0.083599
O125	O	-0.144170	-0.570237	-0.008972
O126	O	0.114787	-0.474523	-0.028110
O127	O	-0.150200	-0.442024	-0.011093
O128	O	-0.000954	-0.441976	-0.085720
O129	O	-0.040488	-0.346357	0.044396
Cu130	Cu	-0.021272	-0.382460	-0.020856
Cu131	Cu	-0.014141	-0.534087	-0.018347
O132	O	0.108757	-0.346309	-0.030231
C133	C	-0.850734	0.086244	-0.289716
C134	C	-0.450996	0.035117	-0.097351
C135	C	-0.410501	0.028587	-0.146852
C136	C	-0.459292	0.034683	-0.169840
C137	C	-0.184802	0.024283	-0.235878
C138	C	-0.282257	0.023363	-0.213592
C139	C	-0.330068	0.029423	-0.237088
C140	C	-0.584541	0.075410	-0.428242
C141	C	-0.321573	0.024104	-0.168302
C142	C	-0.418828	0.035176	-0.215083
C143	C	-0.467711	0.041476	-0.238329
C144	C	-0.427833	0.042022	-0.283580
C145	C	-0.339073	0.036269	-0.305586
C146	C	-0.290190	0.029970	-0.282340
C147	C	-0.299198	0.036812	-0.350842
C148	C	-0.348081	0.043111	-0.374088
C149	C	-0.436841	0.048864	-0.352082
C150	C	-0.476719	0.048318	-0.306830
C151	C	-0.565480	0.054071	-0.284825
C152	C	-0.614362	0.060370	-0.308071
C153	C	-0.574491	0.060913	-0.353321
C154	C	-0.485730	0.055160	-0.375326
C155	C	-0.623374	0.067212	-0.376567
C156	C	-0.712134	0.072965	-0.354561
C157	C	-0.752012	0.072419	-0.309309
C158	C	-0.703123	0.066123	-0.286065
C159	C	-0.605355	0.053528	-0.239569
C160	C	-0.694115	0.059281	-0.217564
C161	C	-0.743001	0.065577	-0.240813
C162	C	-0.733993	0.058735	-0.172312
C163	C	-0.685110	0.052436	-0.149066
C164	C	-0.596350	0.046683	-0.171072
C165	C	-0.556472	0.047229	-0.216323
C166	C	-0.547467	0.040383	-0.147826
O167	O	0.585213	0.169090	-0.504004
O168	O	0.494056	-0.090076	-0.525516
O169	O	0.488081	0.055124	-0.449918
O170	O	0.591189	0.023889	-0.579602
O171	O	0.359978	0.059584	-0.452885
O172	O	0.365953	-0.085616	-0.528483
O173	O	0.457110	0.173550	-0.506971
Cu174	Cu	0.399835	0.044374	-0.517998
Cu175	Cu	0.551332	0.039099	-0.514489
O176	O	0.463086	0.028349	-0.582569
C177	C	0.815354	-0.521094	-0.008709
C178	C	0.415547	-0.125494	-0.028771
C179	C	0.375059	-0.223405	-0.031498
C180	C	0.423859	-0.270708	-0.029121
C181	C	0.149365	-0.395355	-0.030599
C182	C	0.246820	-0.353421	-0.032381
C183	C	0.294640	-0.401713	-0.030008
C184	C	0.549171	-0.790955	-0.010537
C185	C	0.286131	-0.263897	-0.032533
C186	C	0.383402	-0.360104	-0.028335
C187	C	0.432293	-0.407926	-0.025859
C188	C	0.392422	-0.497356	-0.025055
C189	C	0.303660	-0.538965	-0.026727
C190	C	0.254769	-0.491143	-0.029204
C191	C	0.263791	-0.628403	-0.025925
C192	C	0.312683	-0.676224	-0.023448
C193	C	0.401445	-0.634615	-0.021775
C194	C	0.441316	-0.545185	-0.022579
C195	C	0.530078	-0.503576	-0.020906
C196	C	0.578969	-0.551398	-0.018429
C197	C	0.539104	-0.640825	-0.017627
C198	C	0.450342	-0.682434	-0.019300
C199	C	0.587995	-0.688646	-0.015150
C200	C	0.676757	-0.647037	-0.013477
C201	C	0.716628	-0.557607	-0.014281
C202	C	0.667731	-0.509789	-0.016757
C203	C	0.569946	-0.414138	-0.021709
C204	C	0.658708	-0.372530	-0.020036
C205	C	0.707602	-0.420359	-0.017561
C206	C	0.698579	-0.283100	-0.020840
C207	C	0.649688	-0.235278	-0.023317
C208	C	0.560926	-0.276887	-0.024990
C209	C	0.521055	-0.366317	-0.024186
C210	C	0.512035	-0.229066	-0.027467
O211	O	-0.620614	0.089309	0.052274
O212	O	-0.529507	0.043784	-0.078544
O213	O	-0.523494	0.194833	-0.006033
O214	O	-0.626628	-0.061740	-0.020236
O215	O	-0.395386	0.185419	-0.005549
O216	O	-0.401400	0.034370	-0.078059
O217	O	-0.492507	0.079895	0.052758
Cu218	Cu	-0.435256	0.056273	-0.012607
Cu219	Cu	-0.586758	0.067406	-0.013179
O220	O	-0.498521	-0.071154	-0.019752
C221	C	-0.437537	0.048335	0.402491
C222	C	-0.837226	0.099430	0.210091
C223	C	-0.739773	0.100339	0.187806
C224	C	-0.691967	0.094287	0.211308
C225	C	-0.571027	0.088563	0.071568
C226	C	-0.611521	0.095108	0.121070
C227	C	-0.562739	0.089011	0.144061
C228	C	-0.171338	0.037467	0.263967
C229	C	-0.700452	0.099593	0.142516
C230	C	-0.603213	0.088528	0.189308
C231	C	-0.554892	0.082255	0.212848
C232	C	-0.466098	0.076466	0.191141
C233	C	-0.425624	0.076949	0.145894
C234	C	-0.473945	0.083222	0.122354
C235	C	-0.336822	0.071163	0.124188
C236	C	-0.288502	0.064890	0.147728
C237	C	-0.328975	0.064407	0.192975
C238	C	-0.417770	0.070196	0.214682
C239	C	-0.458244	0.069713	0.259929
C240	C	-0.409923	0.063441	0.283469
C241	C	-0.321132	0.057655	0.261765
C242	C	-0.280658	0.058138	0.216518
C243	C	-0.272811	0.051382	0.285305
C244	C	-0.313285	0.050899	0.330552
C245	C	-0.402079	0.056688	0.352259
C246	C	-0.450397	0.062957	0.328716
C247	C	-0.547046	0.075500	0.281635
C248	C	-0.587520	0.075016	0.326882
C249	C	-0.539191	0.068747	0.350423
C250	C	-0.676314	0.080806	0.348589
C251	C	-0.724634	0.087078	0.325049
C252	C	-0.684160	0.087561	0.279802
C253	C	-0.595366	0.081772	0.258095
C254	C	-0.732481	0.093834	0.256262
O255	O	-0.040608	-1.085661	-0.825229
O256	O	-0.001018	-0.826491	-0.777938
O257	O	-0.150287	-0.971682	-0.775894
O258	O	0.108661	-0.940470	-0.827272
O259	O	-0.144253	-0.976123	-0.711878
O260	O	0.005016	-0.830932	-0.713922
O261	O	-0.034575	-1.090102	-0.761213
Cu262	Cu	-0.014228	-0.960923	-0.731722
Cu263	Cu	-0.021364	-0.955670	-0.807428
O264	O	0.114695	-0.944911	-0.763256
C265	C	-0.049919	-0.210816	-0.392921
C266	C	-0.128258	-0.252632	-0.406757
C267	C	-0.131694	-0.203715	-0.431212
H268	H	0.001716	-0.208811	-0.418831
H269	H	-0.050760	-0.151270	-0.374209
H270	H	-0.127409	-0.312161	-0.425468
H271	H	-0.179906	-0.254636	-0.380856
H272	H	-0.132536	-0.144170	-0.412500
H273	H	-0.080056	-0.201714	-0.457119
H274	H	-0.184851	-0.232075	-0.440599
C275	C	-0.015853	-0.678637	-0.927601
C276	C	0.058135	-0.631668	-0.956089
C277	C	0.055538	-0.673327	-1.000972
H278	H	-0.070332	-0.678413	-0.929883
H279	H	-0.013309	-0.738983	-0.936444
H280	H	0.055583	-0.571338	-0.947250
H281	H	0.112625	-0.631889	-0.953822
H282	H	0.058082	-0.733673	-1.009814
H283	H	0.001056	-0.673101	-1.003248
H284	H	0.105742	-0.641470	-1.020307
H285	H	-0.217624	0.025258	-0.300336
H286	H	-0.020209	-0.749804	-0.374113
C287	C	0.722239	-0.696877	-0.003625
C288	C	0.673019	-0.712770	0.038748
C289	C	0.714887	-0.758660	0.047852
H290	H	0.782012	-0.661446	-0.003384
H291	H	0.724241	-0.752670	-0.026431
H292	H	0.671027	-0.656987	0.061548
H293	H	0.613248	-0.748210	0.038518
H294	H	0.716889	-0.814453	0.025046
H295	H	0.774659	-0.723224	0.048090
H296	H	0.681493	-0.769457	0.076600
H297	H	-0.226632	0.032105	-0.368836
H298	H	-0.030255	-0.164038	-0.167345
H299	H	-0.038719	-0.156659	-0.235851
C300	C	-0.267790	0.020001	-0.142353
C301	C	-0.261965	0.097113	-0.105349
C302	C	-0.212435	0.093362	-0.081431
H303	H	-0.208729	0.017149	-0.161805
H304	H	-0.297217	-0.031997	-0.131770
H305	H	-0.232535	0.149097	-0.115932
H306	H	-0.321010	0.099980	-0.085886
H307	H	-0.241862	0.041363	-0.070848
H308	H	-0.153378	0.090507	-0.100887
H309	H	-0.208483	0.145676	-0.056319
H310	H	-0.011748	-0.757184	-0.305606
C311	C	-0.304464	0.043644	-0.423426
C312	C	-0.215913	0.037210	-0.437785
C313	C	-0.175711	0.037690	-0.483234
H314	H	-0.303443	0.098060	-0.426347
H315	H	-0.338278	-0.006098	-0.441597
H316	H	-0.182108	0.086947	-0.419619
H317	H	-0.216909	-0.017203	-0.434874
H318	H	-0.209525	-0.012052	-0.501405
H319	H	-0.174696	0.092107	-0.486151
H320	H	-0.115628	0.033316	-0.492983
C321	C	0.555641	-0.131561	-0.028317
C322	C	0.644197	-0.105241	-0.026306
C323	C	0.684386	-0.015421	-0.027075
H324	H	0.521851	-0.094301	-0.002988
H325	H	0.556636	-0.125751	-0.055539
H326	H	0.643197	-0.111043	0.000913
H327	H	0.678010	-0.142476	-0.051632
H328	H	0.685381	-0.009610	-0.054298
H329	H	0.650589	0.021831	-0.001746
H330	H	0.744478	0.002447	-0.025715
C331	C	0.795324	-0.237568	-0.018999
C332	C	0.819872	-0.148643	-0.020228
C333	C	0.908978	-0.106667	-0.018524
H334	H	0.834647	-0.269210	-0.044275
H335	H	0.799789	-0.237761	0.008274
H336	H	0.815414	-0.148455	-0.047498
H337	H	0.780573	-0.116977	0.005046
H338	H	0.913443	-0.106860	0.008749
H339	H	0.948293	-0.138316	-0.043801
H340	H	0.925642	-0.046325	-0.019353
H341	H	-0.805083	0.098565	0.274011
C342	C	0.269075	-0.773728	-0.022603
C343	C	0.180522	-0.800048	-0.024618
C344	C	0.140328	-0.889867	-0.023846
H345	H	0.268059	-0.779559	0.004614
H346	H	0.302891	-0.810976	-0.047937
H347	H	0.146715	-0.762812	0.000713
H348	H	0.181511	-0.794239	-0.051833
H349	H	0.174144	-0.927114	-0.049180
H350	H	0.139319	-0.895689	0.003371
H351	H	0.080244	-0.907739	-0.025217
C352	C	-0.757740	0.093894	-0.378808
C353	C	-0.782705	0.173910	-0.352609
C354	C	-0.824710	0.193224	-0.374932
H355	H	-0.810061	0.046048	-0.383056
H356	H	-0.716967	0.100579	-0.407473
H357	H	-0.823477	0.167219	-0.323952
H358	H	-0.730402	0.221772	-0.348360
H359	H	-0.783936	0.199909	-0.403597
H360	H	-0.877027	0.145373	-0.379179
H361	H	-0.841647	0.247520	-0.357162
C362	C	-0.720609	0.080250	0.397909
C363	C	-0.809084	0.086667	0.411935
C364	C	-0.849922	0.086140	0.457362
H365	H	-0.687088	0.129966	0.416220
H366	H	-0.721831	0.025807	0.400896
H367	H	-0.807857	0.141103	0.408952
H368	H	-0.842629	0.036955	0.393637
H369	H	-0.851144	0.031697	0.460350
H370	H	-0.816394	0.135857	0.475669
H371	H	-0.909959	0.090485	0.466884
H372	H	-0.580066	0.039960	-0.110823
H373	H	0.012418	-0.684570	-0.156900
H374	H	-0.740818	0.102779	0.123104
C375	C	-0.830824	0.064826	-0.148367
C376	C	-0.888451	-0.008225	-0.171060
C377	C	-0.977653	-0.002642	-0.149009
H378	H	-0.835389	0.119428	-0.148415
H379	H	-0.847684	0.063548	-0.117967
H380	H	-0.871596	-0.006938	-0.201452
H381	H	-0.883913	-0.062837	-0.171013
H382	H	-0.994513	-0.003920	-0.118609
H383	H	-0.982209	0.051963	-0.149058
H384	H	-1.016765	-0.052209	-0.164400
H385	H	-0.020027	-0.251971	-0.124027
H386	H	-0.005085	-0.754331	-0.871556
C387	C	0.722293	-0.696929	-0.503653
C388	C	0.799307	-0.711434	-0.540060
C389	C	0.841434	-0.757344	-0.531132
H390	H	0.681580	-0.753190	-0.499796
H391	H	0.739357	-0.661960	-0.476759
H392	H	0.782241	-0.746404	-0.566947
H393	H	0.840041	-0.655189	-0.543923
H394	H	0.858498	-0.722374	-0.504237
H395	H	0.800714	-0.813600	-0.527274
H396	H	0.893697	-0.767184	-0.555830
C397	C	-0.839725	0.072020	-0.216873
C398	C	-0.845968	0.152631	-0.217055
C399	C	-0.935052	0.158603	-0.195019
H400	H	-0.856677	0.070853	-0.186452
H401	H	-0.878969	0.022559	-0.232230
H402	H	-0.806736	0.202079	-0.201696
H403	H	-0.829034	0.153816	-0.247469
H404	H	-0.974296	0.109142	-0.210376
H405	H	-0.951996	0.157433	-0.164599
H406	H	-0.939301	0.213292	-0.195143
H407	H	0.682288	-0.162154	-0.023969
H408	H	0.245727	-0.224039	-0.533582
H409	H	-0.215904	0.060157	0.129977
H410	H	-0.208057	0.053400	0.198770
C411	C	-0.292555	0.071637	0.074859
C412	C	-0.204093	0.065182	0.060829
C413	C	-0.163284	0.065610	0.015388
H414	H	-0.291297	0.126043	0.071829
H415	H	-0.326132	0.021885	0.056579
H416	H	-0.170524	0.114930	0.079104
H417	H	-0.205325	0.010779	0.063848
H418	H	-0.196862	0.015858	-0.002892
H419	H	-0.162033	0.120016	0.012362
H420	H	-0.103262	0.061222	0.005862
H421	H	0.182201	-0.525171	-0.030575
H422	H	-0.011621	-0.389765	-0.121028
H423	H	0.182115	-0.525189	-0.530531
H424	H	0.191099	-0.662437	-0.527221
C425	C	0.406543	-0.779963	-0.518336
C426	C	0.317995	-0.806274	-0.520358
C427	C	0.277784	-0.896086	-0.519576
H428	H	0.405514	-0.785784	-0.491115
H429	H	0.440355	-0.817222	-0.543664
H430	H	0.284191	-0.769026	-0.495032
H431	H	0.318998	-0.800475	-0.547577
H432	H	0.311596	-0.933345	-0.544904
H433	H	0.276762	-0.901899	-0.492354
H434	H	0.217704	-0.913952	-0.520952
C435	C	0.004130	-0.784904	-0.808460
C436	C	0.000489	-0.811208	-0.852917
C437	C	0.003359	-0.900987	-0.873636
H438	H	-0.045994	-0.822226	-0.791833
H439	H	0.058685	-0.790636	-0.808990
H440	H	-0.054060	-0.805484	-0.852384
H441	H	0.050609	-0.773910	-0.869555
H442	H	0.057914	-0.906719	-0.874166
H443	H	-0.046765	-0.938302	-0.857006
H444	H	0.000898	-0.918844	-0.903804
H445	H	0.279916	-0.749353	-0.522691
C446	C	0.795238	-0.237654	-0.518945
C447	C	0.819807	-0.148736	-0.520190
C448	C	0.908914	-0.106770	-0.518484
H449	H	0.834556	-0.269311	-0.544215
H450	H	0.799694	-0.237832	-0.491667
H451	H	0.815359	-0.148562	-0.547464
H452	H	0.780513	-0.117055	-0.494921
H453	H	0.913369	-0.106949	-0.491206
H454	H	0.948223	-0.138435	-0.543755
H455	H	0.925593	-0.046433	-0.519324
H456	H	-0.717713	0.052007	-0.112064
H457	H	-0.572284	0.068372	0.387422
C458	C	-0.263327	0.029829	0.352545
C459	C	-0.250345	-0.056104	0.328815
C460	C	-0.204318	-0.075539	0.349058
H461	H	-0.297903	0.031591	0.383145
H462	H	-0.206323	0.073172	0.351766
H463	H	-0.307340	-0.099436	0.329598
H464	H	-0.215761	-0.057887	0.298216
H465	H	-0.147314	-0.032195	0.348280
H466	H	-0.238899	-0.073772	0.379657
H467	H	-0.195497	-0.133842	0.332958
C468	C	0.232166	-0.210681	-0.033820
C469	C	0.155818	-0.208081	0.004301
C470	C	0.106087	-0.159059	0.003137
H471	H	0.213685	-0.238798	-0.060558
H472	H	0.268703	-0.151062	-0.033722
H473	H	0.119287	-0.267690	0.004199
H474	H	0.174273	-0.179958	0.031044
H475	H	0.142624	-0.099439	0.003234
H476	H	0.087612	-0.187180	-0.023603
H477	H	0.054283	-0.157281	0.029003
C478	C	0.692974	-0.137800	-0.524072
C479	C	0.642905	-0.083157	-0.486714
C480	C	0.682811	0.006714	-0.487423
H481	H	0.693911	-0.131968	-0.551272
H482	H	0.753073	-0.119728	-0.522686
H483	H	0.582821	-0.101223	-0.488103
H484	H	0.641964	-0.088961	-0.459508
H485	H	0.742910	0.024785	-0.486037
H486	H	0.683746	0.012536	-0.514625
H487	H	0.648850	0.043800	-0.462074
H488	H	-0.023718	-0.530163	-0.918978
C489	C	-0.821397	0.093548	0.348668
C490	C	-0.827354	0.174142	0.348314
C491	C	-0.916475	0.180135	0.370059
H492	H	-0.838770	0.092417	0.379125
H493	H	-0.860439	0.044075	0.333194
H494	H	-0.788325	0.223602	0.363789
H495	H	-0.809999	0.175291	0.317863
H496	H	-0.955517	0.130662	0.354585
H497	H	-0.933840	0.179001	0.400515
H498	H	-0.920530	0.234814	0.369818
C499	C	0.003955	-0.379881	-0.606904
C500	C	0.000247	-0.290974	-0.594024
C501	C	0.002985	-0.249037	-0.549174
H502	H	0.058474	-0.380025	-0.604631
H503	H	-0.046207	-0.411595	-0.587488
H504	H	0.050405	-0.259269	-0.613435
H505	H	-0.054268	-0.290804	-0.596287
H506	H	-0.047177	-0.280750	-0.529758
H507	H	0.057505	-0.249187	-0.546904
H508	H	0.000462	-0.188712	-0.540427
H509	H	-0.030422	-0.661858	-0.417434
H510	H	-0.038841	-0.524079	-0.420431
C511	C	-0.016104	-0.142812	-0.660831
C512	C	-0.012420	-0.116498	-0.616380
C513	C	-0.015190	-0.026689	-0.595677
H514	H	-0.070625	-0.136997	-0.660281
H515	H	0.034056	-0.105551	-0.677487
H516	H	-0.062575	-0.153749	-0.599728
H517	H	0.042098	-0.122292	-0.616917
H518	H	0.034970	0.010573	-0.612333
H519	H	-0.069712	-0.020882	-0.595130
H520	H	-0.012683	-0.008821	-0.565517
H521	H	0.780052	-0.386407	-0.516111
H522	H	0.544602	-0.156012	-0.528109
H523	H	-0.440845	0.083623	0.085362
H524	H	0.013347	-0.692513	-0.652885
H525	H	-0.005182	-0.254109	-0.622664
H526	H	0.780178	-0.386331	-0.016193
C527	C	-0.052898	-0.219778	-0.888054
C528	C	-0.052751	-0.272228	-0.932443
C529	C	-0.071375	-0.226482	-0.953224
H530	H	-0.008001	-0.164028	-0.888724
H531	H	-0.110543	-0.208932	-0.871372
H532	H	0.004885	-0.283062	-0.949122
H533	H	-0.097648	-0.327977	-0.931787
H534	H	-0.129020	-0.215636	-0.936542
H535	H	-0.026476	-0.170733	-0.953891
H536	H	-0.071286	-0.262066	-0.983343
H537	H	-0.023809	-0.160979	-0.735279
H538	H	-0.453130	0.055597	-0.412328
H539	H	0.191224	-0.662427	-0.027294
H540	H	0.417746	-0.755558	-0.018645
