data_functionalizedCrystal
_audit_creation_method	'MofGen! by Chris Wilmer'
_symmetry_space_group_name_H-M	'P1'
_symmetry_Int_Tables_number	1
_symmetry_cell_setting	triclinic
loop_
_symmetry_equiv_pos_as_xyz
  x,y,z
_cell_length_a	17.077404
_cell_length_b	18.050589
_cell_length_c	17.077396
_cell_angle_alpha	90.024642
_cell_angle_beta	90.018362
_cell_angle_gamma	90.026191
loop_
_atom_site_label
_atom_site_type_symbol
_atom_site_fract_x
_atom_site_fract_y
_atom_site_fract_z
Zn1	Zn	1.200026	-0.295700	0.443840
Zn2	Zn	1.533359	0.037634	0.777173
Zn3	Zn	1.866692	0.370967	1.110506
Zn4	Zn	1.199920	-0.419897	0.312583
Zn5	Zn	1.533254	-0.086564	0.645916
Zn6	Zn	1.866587	0.246770	0.979249
Zn7	Zn	1.068757	-0.295721	0.312590
Zn8	Zn	1.402091	0.037612	0.645924
Zn9	Zn	1.735424	0.370946	0.979257
Zn10	Zn	1.068713	-0.419848	0.443809
Zn11	Zn	1.402046	-0.086515	0.777142
Zn12	Zn	1.735380	0.246819	1.110475
O13	O	1.134354	-0.357791	0.378205
O14	O	1.467687	-0.024458	0.711539
O15	O	1.801021	0.308875	1.044872
O16	O	1.309858	-0.312186	0.426438
O17	O	1.643192	0.021147	0.759771
O18	O	1.976525	0.354480	1.093105
O19	O	1.182496	-0.403454	0.202737
O20	O	1.515829	-0.070121	0.536070
O21	O	1.849162	0.263213	0.869403
O22	O	1.086233	-0.191793	0.330017
O23	O	1.419566	0.141540	0.663350
O24	O	1.752900	0.474873	0.996684
O25	O	1.309781	-0.403434	0.330004
O26	O	1.643115	-0.070100	0.663337
O27	O	1.976448	0.263233	0.996670
O28	O	1.182675	-0.191778	0.426445
O29	O	1.516008	0.141555	0.759779
O30	O	1.849342	0.474889	1.093112
O31	O	1.086131	-0.312222	0.202742
O32	O	1.419464	0.021111	0.536076
O33	O	1.752798	0.354444	0.869409
O34	O	0.958905	-0.312175	0.329987
O35	O	1.292238	0.021158	0.663320
O36	O	1.625571	0.354492	0.996654
O37	O	1.086157	-0.403350	0.553660
O38	O	1.419491	-0.070017	0.886993
O39	O	1.752824	0.263317	1.220327
O40	O	0.958872	-0.403371	0.426393
O41	O	1.292205	-0.070037	0.759726
O42	O	1.625539	0.263296	1.093059
O43	O	1.182632	-0.312139	0.553683
O44	O	1.515965	0.021194	0.887016
O45	O	1.849299	0.354528	1.220349
O46	O	1.182453	-0.523815	0.329974
O47	O	1.515786	-0.190482	0.663307
O48	O	1.849120	0.142852	0.996640
O49	O	1.086056	-0.523779	0.426385
O50	O	1.419389	-0.190446	0.759718
O51	O	1.752722	0.142888	1.093052
C52	C	0.930406	-0.357770	0.378188
C53	C	1.263740	-0.024437	0.711521
C54	C	1.597073	0.308896	1.044854
C55	C	0.843156	-0.357779	0.378199
C56	C	1.176490	-0.024446	0.711532
C57	C	1.509823	0.308887	1.044865
C58	C	0.802207	-0.310351	0.428489
C59	C	1.135541	0.022982	0.761822
C60	C	1.468874	0.356315	1.095155
C61	C	0.720227	-0.310356	0.428492
C62	C	1.053560	0.022977	0.761826
C63	C	1.386893	0.356311	1.095159
C64	C	0.679197	-0.357793	0.378209
C65	C	1.012530	-0.024460	0.711543
C66	C	1.345864	0.308874	1.044876
C67	C	0.720152	-0.405223	0.327914
C68	C	1.053485	-0.071890	0.661247
C69	C	1.386819	0.261444	0.994581
C70	C	0.802131	-0.405214	0.327907
C71	C	1.135464	-0.071881	0.661240
C72	C	1.468798	0.261453	0.994574
C73	C	0.549282	-0.405240	0.327933
C74	C	0.882615	-0.071907	0.661267
C75	C	1.215949	0.261427	0.994600
C76	C	0.467297	-0.405250	0.327941
C77	C	0.800631	-0.071917	0.661275
C78	C	1.133964	0.261416	0.994608
C79	C	0.467378	-0.310382	0.428519
C80	C	0.800711	0.022951	0.761852
C81	C	1.134044	0.356285	1.095186
C82	C	0.549357	-0.310373	0.428512
C83	C	0.882690	0.022960	0.761845
C84	C	1.216023	0.356294	1.095179
C85	C	0.590306	-0.357804	0.378217
C86	C	0.923639	-0.024471	0.711551
C87	C	1.256973	0.308863	1.044884
C88	C	1.134259	-0.550744	0.378192
C89	C	1.467593	-0.217410	0.711526
C90	C	1.800926	0.115923	1.044859
C91	C	1.134291	-0.633289	0.378213
C92	C	1.467624	-0.299956	0.711546
C93	C	1.800957	0.033377	1.044880
C94	C	1.081921	-0.832747	0.430623
C95	C	1.415255	-0.499414	0.763956
C96	C	1.748588	-0.166081	1.097290
C97	C	1.062786	-0.882188	0.358994
C98	C	1.396119	-0.548855	0.692328
C99	C	1.729453	-0.215522	1.025661
C100	C	1.134368	-0.784420	0.378223
C101	C	1.467701	-0.451086	0.711557
C102	C	1.801034	-0.117753	1.044890
C103	C	1.153541	-0.882060	0.449860
C104	C	1.486875	-0.548727	0.783194
C105	C	1.820208	-0.215394	1.116527
C106	C	1.134441	-0.930405	0.378239
C107	C	1.467774	-0.597071	0.711573
C108	C	1.801107	-0.263738	1.044906
C109	C	1.115195	-0.832773	0.306557
C110	C	1.448528	-0.499440	0.639890
C111	C	1.781862	-0.166107	0.973223
C112	C	1.205983	-0.832641	0.397471
C113	C	1.539317	-0.499308	0.730804
C114	C	1.872650	-0.165974	1.064137
C115	C	1.186876	-0.882060	0.325793
C116	C	1.520209	-0.548726	0.659126
C117	C	1.853542	-0.215393	0.992459
C118	C	1.134324	-0.700321	0.378215
C119	C	1.467657	-0.366988	0.711548
C120	C	1.800990	-0.033655	1.044882
C121	C	1.134485	-1.014501	0.378240
C122	C	1.467818	-0.681168	0.711573
C123	C	1.801152	-0.347835	1.044906
C124	C	1.339098	-0.357813	0.378223
C125	C	1.672432	-0.024480	0.711557
C126	C	2.005765	0.308854	1.044890
C127	C	1.426348	-0.357822	0.378231
C128	C	1.759681	-0.024489	0.711565
C129	C	2.093015	0.308844	1.044898
C130	C	1.134402	-0.357737	0.582950
C131	C	1.467735	-0.024403	0.916283
C132	C	1.801068	0.308930	1.249616
C133	C	1.134422	-0.357713	0.670200
C134	C	1.467755	-0.024380	1.003533
C135	C	1.801088	0.308953	1.336866
C136	C	1.134471	-0.164086	0.378236
C137	C	1.467804	0.169248	0.711569
C138	C	1.801137	0.502581	1.044902
C139	C	1.134520	-0.081540	0.378249
C140	C	1.467854	0.251793	0.711582
C141	C	1.801187	0.585127	1.044915
C142	C	1.134352	-0.357792	0.174258
C143	C	1.467685	-0.024459	0.507591
C144	C	1.801019	0.308874	0.840924
C145	C	1.134484	-0.357606	0.087008
C146	C	1.467817	-0.024273	0.420341
C147	C	1.801150	0.309060	0.753675
C148	C	1.184658	-0.310216	0.711203
C149	C	1.517991	0.023118	1.044536
C150	C	1.851325	0.356451	1.377870
C151	C	1.184667	-0.310191	0.793183
C152	C	1.518001	0.023142	1.126517
C153	C	1.851334	0.356476	1.459850
C154	C	1.134444	-0.357668	0.834159
C155	C	1.467777	-0.024335	1.167492
C156	C	1.801111	0.308998	1.500826
C157	C	1.084202	-0.405168	0.793150
C158	C	1.417536	-0.071835	1.126483
C159	C	1.750869	0.261499	1.459817
C160	C	1.084190	-0.405188	0.711171
C161	C	1.417523	-0.071855	1.044504
C162	C	1.750856	0.261478	1.377838
C163	C	1.084234	-0.405123	0.964020
C164	C	1.417567	-0.071790	1.297353
C165	C	1.750901	0.261543	1.630687
C166	C	1.084248	-0.405104	1.046005
C167	C	1.417581	-0.071771	1.379338
C168	C	1.750914	0.261563	1.712671
C169	C	1.184712	-0.310126	1.046032
C170	C	1.518045	0.023207	1.379366
C171	C	1.851379	0.356541	1.712699
C172	C	1.184699	-0.310146	0.964053
C173	C	1.518032	0.023187	1.297387
C174	C	1.851366	0.356520	1.630720
C175	C	1.134458	-0.357647	0.923050
C176	C	1.467791	-0.024314	1.256383
C177	C	1.801125	0.309019	1.589717
H178	H	0.835471	-0.443834	0.286955
H179	H	1.168804	-0.110501	0.620289
H180	H	1.502137	0.222832	0.953622
Cl181	Cl	0.969330	-0.915788	0.333861
Cl182	Cl	1.302663	-0.582455	0.667194
Cl183	Cl	1.635997	-0.249121	1.000528
H184	H	0.686739	-0.443844	0.286969
H185	H	1.020072	-0.110510	0.620302
H186	H	1.353406	0.222823	0.953636
H187	H	1.037504	-0.811094	0.474873
H188	H	1.370837	-0.477761	0.808207
H189	H	1.704170	-0.144428	1.141540
H190	H	1.225619	-0.271448	1.079421
H191	H	1.558952	0.061886	1.412755
H192	H	1.892285	0.395219	1.746088
H193	H	0.835608	-0.271724	0.469437
H194	H	1.168941	0.061609	0.802770
H195	H	1.502274	0.394942	1.136104
H196	H	1.098937	-0.811213	0.245964
H197	H	1.432270	-0.477880	0.579297
H198	H	1.765604	-0.144546	0.912631
Cl199	Cl	1.247804	-0.250530	0.659699
Cl200	Cl	1.581137	0.082803	0.993032
Cl201	Cl	1.914470	0.416137	1.326365
H202	H	1.043307	-0.443822	0.826519
H203	H	1.376640	-0.110489	1.159852
H204	H	1.709973	0.222845	1.493186
H205	H	0.686890	-0.271737	0.469445
H206	H	1.020223	0.061596	0.802778
H207	H	1.353556	0.394930	1.136112
H208	H	1.231259	-0.903576	0.281435
H209	H	1.564593	-0.570242	0.614769
H210	H	1.897926	-0.236909	0.948102
Cl211	Cl	0.600936	-0.250743	0.491732
Cl212	Cl	0.934269	0.082590	0.825065
Cl213	Cl	1.267603	0.415924	1.158399
Cl214	Cl	1.299415	-0.799014	0.422635
Cl215	Cl	1.632748	-0.465680	0.755969
Cl216	Cl	1.966082	-0.132347	1.089302
H217	H	1.169729	-0.903710	0.510436
H218	H	1.503063	-0.570377	0.843770
H219	H	1.836396	-0.237044	1.177103
Cl220	Cl	1.021030	-0.464900	0.659624
Cl221	Cl	1.354364	-0.131567	0.992957
Cl222	Cl	1.687697	0.201767	1.326290
Cl223	Cl	1.247859	-0.250510	0.844727
Cl224	Cl	1.581193	0.082824	1.178060
Cl225	Cl	1.914526	0.416157	1.511394
Cl226	Cl	1.247843	-0.250464	0.912542
Cl227	Cl	1.581176	0.082869	1.245875
Cl228	Cl	1.914509	0.416202	1.579209
H229	H	1.043350	-0.443763	1.079365
H230	H	1.376683	-0.110429	1.412698
H231	H	1.710016	0.222904	1.746032
Cl232	Cl	1.021072	-0.464839	0.912474
Cl233	Cl	1.354405	-0.131505	1.245808
Cl234	Cl	1.687739	0.201828	1.579141
Cl235	Cl	0.415899	-0.250752	0.491744
Cl236	Cl	0.749233	0.082581	0.825078
Cl237	Cl	1.082566	0.415914	1.158411
Cl238	Cl	0.415718	-0.464904	0.264746
Cl239	Cl	0.749051	-0.131570	0.598079
Cl240	Cl	1.082384	0.201763	0.931413
H241	H	0.582620	-0.443862	0.286976
H242	H	0.915954	-0.110528	0.620310
H243	H	1.249287	0.222805	0.953643
