data_functionalizedCrystal
_audit_creation_method	'MofGen! by Chris Wilmer'
_symmetry_space_group_name_H-M	'P1'
_symmetry_Int_Tables_number	1
_symmetry_cell_setting	triclinic
loop_
_symmetry_equiv_pos_as_xyz
  x,y,z
_cell_length_a	17.077404
_cell_length_b	12.827892
_cell_length_c	17.077396
_cell_angle_alpha	90.025067
_cell_angle_beta	90.019501
_cell_angle_gamma	90.015617
loop_
_atom_site_label
_atom_site_type_symbol
_atom_site_fract_x
_atom_site_fract_y
_atom_site_fract_z
Zn1	Zn	1.200096	-0.416027	0.443861
Zn2	Zn	1.533429	-0.082693	0.777195
Zn3	Zn	1.866762	0.250640	1.110528
Zn4	Zn	1.200020	-0.590789	0.312603
Zn5	Zn	1.533353	-0.257456	0.645936
Zn6	Zn	1.866686	0.075878	0.979270
Zn7	Zn	1.068827	-0.416063	0.312609
Zn8	Zn	1.402161	-0.082730	0.645943
Zn9	Zn	1.735494	0.250603	0.979276
Zn10	Zn	1.068812	-0.590727	0.443827
Zn11	Zn	1.402146	-0.257394	0.777160
Zn12	Zn	1.735479	0.075940	1.110493
O13	O	1.134439	-0.503402	0.378225
O14	O	1.467772	-0.170068	0.711558
O15	O	1.801105	0.163265	1.044892
O16	O	1.309932	-0.439220	0.426462
O17	O	1.643266	-0.105887	0.759795
O18	O	1.976599	0.227447	1.093128
O19	O	1.182591	-0.567653	0.202757
O20	O	1.515925	-0.234319	0.536090
O21	O	1.849258	0.099014	0.869424
O22	O	1.086278	-0.269823	0.330037
O23	O	1.419612	0.063511	0.663371
O24	O	1.752945	0.396844	0.996704
O25	O	1.309877	-0.567617	0.330027
O26	O	1.643210	-0.234284	0.663360
O27	O	1.976543	0.099050	0.996693
O28	O	1.182720	-0.269796	0.426468
O29	O	1.516054	0.063538	0.759801
O30	O	1.849387	0.396871	1.093134
O31	O	1.086205	-0.439282	0.202762
O32	O	1.419538	-0.105949	0.536095
O33	O	1.752871	0.227384	0.869428
O34	O	0.958978	-0.439222	0.330004
O35	O	1.292312	-0.105889	0.663337
O36	O	1.625645	0.227444	0.996670
O37	O	1.086253	-0.567511	0.553678
O38	O	1.419586	-0.234178	0.887012
O39	O	1.752920	0.099155	1.220345
O40	O	0.958968	-0.567547	0.426409
O41	O	1.292301	-0.234214	0.759742
O42	O	1.625634	0.099120	1.093075
O43	O	1.182706	-0.439160	0.553704
O44	O	1.516039	-0.105826	0.887037
O45	O	1.849373	0.227507	1.220370
O46	O	1.182577	-0.737017	0.329993
O47	O	1.515910	-0.403684	0.663327
O48	O	1.849244	-0.070350	0.996660
O49	O	1.086179	-0.736971	0.426403
O50	O	1.419513	-0.403638	0.759736
O51	O	1.752846	-0.070305	1.093069
C52	C	0.930491	-0.503383	0.378203
C53	C	1.263824	-0.170049	0.711537
C54	C	1.597158	0.163284	1.044870
C55	C	0.843241	-0.503400	0.378213
C56	C	1.176574	-0.170066	0.711546
C57	C	1.509908	0.163267	1.044879
C58	C	0.802266	-0.570319	0.428330
C59	C	1.135599	-0.236986	0.761664
C60	C	1.468932	0.096347	1.094997
C61	C	0.720285	-0.570321	0.428343
C62	C	1.053619	-0.236988	0.761676
C63	C	1.386952	0.096345	1.095010
C64	C	0.679282	-0.503409	0.378233
C65	C	1.012615	-0.170075	0.711567
C66	C	1.345948	0.163258	1.044900
C67	C	0.720263	-0.436482	0.328114
C68	C	1.053596	-0.103149	0.661447
C69	C	1.386929	0.230185	0.994780
C70	C	0.802242	-0.436475	0.328106
C71	C	1.135575	-0.103142	0.661439
C72	C	1.468908	0.230191	0.994772
C73	C	0.549393	-0.436502	0.328133
C74	C	0.882726	-0.103169	0.661466
C75	C	1.216059	0.230164	0.994799
C76	C	0.467408	-0.436510	0.328139
C77	C	0.800741	-0.103177	0.661473
C78	C	1.134075	0.230156	0.994806
C79	C	0.467436	-0.570349	0.428370
C80	C	0.800770	-0.237015	0.761703
C81	C	1.134103	0.096318	1.095036
C82	C	0.549415	-0.570342	0.428362
C83	C	0.882749	-0.237009	0.761695
C84	C	1.216082	0.096325	1.095028
C85	C	0.590391	-0.503416	0.378241
C86	C	0.923724	-0.170083	0.711574
C87	C	1.257057	0.163250	1.044907
C88	C	1.134390	-0.774912	0.378211
C89	C	1.467723	-0.441578	0.711544
C90	C	1.801056	-0.108245	1.044877
C91	C	1.134440	-0.891065	0.378231
C92	C	1.467774	-0.557731	0.711564
C93	C	1.801107	-0.224398	1.044897
C94	C	1.182142	-0.942753	0.425990
C95	C	1.515475	-0.609419	0.759324
C96	C	1.848809	-0.276086	1.092657
C97	C	1.182195	-1.062803	0.426012
C98	C	1.515529	-0.729470	0.759345
C99	C	1.848862	-0.396136	1.092679
C100	C	1.339183	-0.503421	0.378247
C101	C	1.672516	-0.170088	0.711581
C102	C	2.005850	0.163245	1.044914
C103	C	1.426433	-0.503430	0.378257
C104	C	1.759766	-0.170096	0.711590
C105	C	2.093099	0.163237	1.044923
C106	C	1.134486	-0.503325	0.582970
C107	C	1.467820	-0.169991	0.916303
C108	C	1.801153	0.163342	1.249636
C109	C	1.134506	-0.503292	0.670219
C110	C	1.467840	-0.169958	1.003553
C111	C	1.801173	0.163375	1.336886
C112	C	1.134509	-0.230831	0.378257
C113	C	1.467843	0.102502	0.711590
C114	C	1.801176	0.435835	1.044924
C115	C	1.134540	-0.114678	0.378270
C116	C	1.467873	0.218655	0.711604
C117	C	1.801206	0.551988	1.044937
C118	C	1.134437	-0.503403	0.174277
C119	C	1.467770	-0.170070	0.507611
C120	C	1.801103	0.163264	0.840944
C121	C	1.134568	-0.503141	0.087028
C122	C	1.467902	-0.169808	0.420361
C123	C	1.801235	0.163525	0.753695
C124	C	1.184731	-0.436454	0.711224
C125	C	1.518065	-0.103120	1.044557
C126	C	1.851398	0.230213	1.377891
C127	C	1.184741	-0.436419	0.793205
C128	C	1.518074	-0.103085	1.126538
C129	C	1.851408	0.230248	1.459871
C130	C	1.134529	-0.503228	0.834179
C131	C	1.467862	-0.169895	1.167512
C132	C	1.801195	0.163438	1.500846
C133	C	1.084298	-0.570069	0.793168
C134	C	1.417632	-0.236736	1.126502
C135	C	1.750965	0.096597	1.459835
C136	C	1.084285	-0.570098	0.711189
C137	C	1.417619	-0.236765	1.044523
C138	C	1.750952	0.096568	1.377856
C139	C	1.084330	-0.570007	0.964039
C140	C	1.417663	-0.236673	1.297372
C141	C	1.750997	0.096660	1.630705
C142	C	1.084344	-0.569980	1.046023
C143	C	1.417677	-0.236646	1.379357
C144	C	1.751010	0.096687	1.712690
C145	C	1.184785	-0.436327	1.046054
C146	C	1.518119	-0.102994	1.379387
C147	C	1.851452	0.230339	1.712720
C148	C	1.184772	-0.436356	0.964075
C149	C	1.518106	-0.103023	1.297408
C150	C	1.851439	0.230311	1.630741
C151	C	1.134543	-0.503199	0.923070
C152	C	1.467876	-0.169865	1.256403
C153	C	1.801209	0.163468	1.589737
H154	H	0.835645	-0.624811	0.469133
H155	H	1.168978	-0.291478	0.802466
H156	H	1.502312	0.041856	1.135799
Br157	Br	1.016147	-0.660735	0.848776
Br158	Br	1.349481	-0.327401	1.182109
Br159	Br	1.682814	0.005932	1.515442
Br160	Br	0.857852	-0.345647	0.260091
Br161	Br	1.191186	-0.012313	0.593424
Br162	Br	1.524519	0.321020	0.926757
H163	H	1.043415	-0.624421	0.930655
H164	H	1.376749	-0.291088	1.263988
H165	H	1.710082	0.042246	1.597322
Br166	Br	1.016116	-0.660804	0.655539
Br167	Br	1.349449	-0.327471	0.988872
Br168	Br	1.682782	0.005862	1.322206
Br169	Br	1.250274	-1.136883	0.494161
Br170	Br	1.583608	-0.803550	0.827494
Br171	Br	1.916941	-0.470216	1.160827
H172	H	1.093638	-0.935689	0.337362
H173	H	1.426971	-0.602356	0.670695
H174	H	1.760304	-0.269023	1.004028
Br175	Br	1.066472	-1.040605	0.310106
Br176	Br	1.399805	-0.707272	0.643440
Br177	Br	1.733139	-0.373938	0.976773
H178	H	0.582798	-0.624834	0.469161
H179	H	0.916132	-0.291501	0.802494
H180	H	1.249465	0.041833	1.135828
H181	H	1.225622	-0.382053	0.677869
H182	H	1.558956	-0.048719	1.011202
H183	H	1.892289	0.284614	1.344535
H184	H	1.225641	-0.381995	0.826587
H185	H	1.558974	-0.048662	1.159920
H186	H	1.892308	0.284672	1.493254
H187	H	1.225664	-0.381960	0.930716
H188	H	1.558997	-0.048626	1.264049
H189	H	1.892331	0.284707	1.597382
H190	H	1.225683	-0.381900	1.079444
H191	H	1.559016	-0.048566	1.412777
H192	H	1.892349	0.284767	1.746110
H193	H	0.686927	-0.624815	0.469153
H194	H	1.020260	-0.291482	0.802486
H195	H	1.353594	0.041852	1.135820
Br196	Br	0.411828	-0.661163	0.496401
Br197	Br	0.745162	-0.327830	0.829735
Br198	Br	1.078495	0.005503	1.163068
H199	H	0.686871	-0.381996	0.287317
H200	H	1.020204	-0.048663	0.620650
H201	H	1.353538	0.284671	0.953984
H202	H	1.043455	-0.624379	1.079382
H203	H	1.376788	-0.291046	1.412716
H204	H	1.710121	0.042287	1.746049
H205	H	0.582752	-0.381995	0.287326
H206	H	0.916086	-0.048662	0.620659
H207	H	1.249419	0.284672	0.953992
H208	H	0.434025	-0.382012	0.287345
H209	H	0.767358	-0.048678	0.620678
H210	H	1.100692	0.284655	0.954012
H211	H	1.222939	-0.898130	0.466867
H212	H	1.556272	-0.564797	0.800200
H213	H	1.889605	-0.231464	1.133533
