data_functionalizedCrystal
_audit_creation_method	'MofGen! by Chris Wilmer'
_symmetry_space_group_name_H-M	'P1'
_symmetry_Int_Tables_number	1
_symmetry_cell_setting	triclinic
loop_
_symmetry_equiv_pos_as_xyz
  x,y,z
_cell_length_a	14.908571
_cell_length_b	16.120484
_cell_length_c	14.908308
_cell_angle_alpha	95.986071
_cell_angle_beta	90.175053
_cell_angle_gamma	89.787312
loop_
_atom_site_label
_atom_site_type_symbol
_atom_site_fract_x
_atom_site_fract_y
_atom_site_fract_z
Zn1	Zn	1.320097	-0.434923	-0.609960
Zn2	Zn	1.820097	0.065077	-0.109960
Zn3	Zn	1.321040	-0.566744	-0.466383
Zn4	Zn	1.821040	-0.066744	0.033617
Zn5	Zn	1.179340	-0.418915	-0.450134
Zn6	Zn	1.679340	0.081085	0.049866
Zn7	Zn	1.162126	-0.565754	-0.607984
Zn8	Zn	1.662126	-0.065754	-0.107984
O9	O	1.245651	-0.496584	-0.533615
O10	O	1.745651	0.003416	-0.033615
O11	O	1.445636	-0.459523	-0.598542
O12	O	1.945636	0.040477	-0.098542
O13	O	1.309843	-0.540849	-0.338080
O14	O	1.809843	-0.040849	0.161920
O15	O	1.204822	-0.304418	-0.465363
O16	O	1.704822	0.195582	0.034637
O17	O	1.446329	-0.556371	-0.493056
O18	O	1.946329	-0.056371	0.006944
O19	O	1.308235	-0.316179	-0.582786
O20	O	1.808235	0.183821	-0.082786
O21	O	1.205736	-0.432240	-0.326142
O22	O	1.705736	0.067760	0.173858
O23	O	1.051643	-0.431280	-0.463446
O24	O	1.551643	0.068720	0.036554
O25	O	1.175482	-0.554684	-0.734394
O26	O	1.675482	-0.054684	-0.234394
O27	O	1.038995	-0.539162	-0.579418
O28	O	1.538995	-0.039162	-0.079418
O29	O	1.291543	-0.458562	-0.735846
O30	O	1.791543	0.041438	-0.235846
O31	O	1.293150	-0.683233	-0.491140
O32	O	1.793150	-0.183233	0.008860
O33	O	1.176396	-0.682506	-0.595173
O34	O	1.676396	-0.182506	-0.095173
C35	C	1.012801	-0.483377	-0.519455
C36	C	1.512801	0.016623	-0.019455
C37	C	0.913184	-0.477748	-0.513419
C38	C	1.413184	0.022252	-0.013419
C39	C	0.712871	-0.579666	-0.622692
C40	C	1.212871	-0.079666	-0.122692
C41	C	0.619272	-0.574380	-0.617025
C42	C	1.119272	-0.074380	-0.117025
C43	C	0.632384	-0.461887	-0.496421
C44	C	1.132384	0.038113	0.003579
C45	C	0.725983	-0.467173	-0.502089
C46	C	1.225983	0.032827	-0.002089
C47	C	0.766223	-0.526065	-0.565226
C48	C	1.266223	-0.026065	-0.065226
C49	C	0.859824	-0.531355	-0.570888
C50	C	1.359824	-0.031355	-0.070888
C51	C	0.872935	-0.418858	-0.450290
C52	C	1.372935	0.081142	0.049710
C53	C	0.779335	-0.413572	-0.444622
C54	C	1.279335	0.086428	0.055378
C55	C	1.233031	-0.713110	-0.544726
C56	C	1.733031	-0.213110	-0.044726
C57	C	1.227712	-0.805747	-0.549515
C58	C	1.727712	-0.305747	-0.049515
C59	C	1.218005	-0.975358	-0.558276
C60	C	1.718005	-0.475358	-0.058276
C61	C	1.273456	-1.016980	-0.508979
C62	C	1.773456	-0.516980	-0.008979
C63	C	1.268055	-1.111356	-0.513854
C64	C	1.768055	-0.611356	-0.013854
C65	C	1.223405	-0.880972	-0.553403
C66	C	1.723405	-0.380972	-0.053403
C67	C	1.479410	-0.509843	-0.547832
C68	C	1.979410	-0.009843	-0.047832
C69	C	1.579025	-0.515493	-0.553890
C70	C	2.079025	-0.015493	-0.053890
C71	C	1.231487	-0.508298	-0.768743
C72	C	1.731487	-0.008298	-0.268743
C73	C	1.225451	-0.513290	-0.868941
C74	C	1.725451	-0.013290	-0.368941
C75	C	1.258344	-0.279214	-0.522482
C76	C	1.758344	0.220786	-0.022482
C77	C	1.263752	-0.186584	-0.517738
C78	C	1.763752	0.313416	-0.017738
C79	C	1.334963	-0.422560	-1.058735
C80	C	1.834963	0.077440	-0.558735
C81	C	1.329294	-0.427248	-1.152880
C82	C	1.829294	0.072752	-0.652880
C83	C	1.208443	-0.527348	-1.151376
C84	C	1.708443	-0.027348	-0.651376
C85	C	1.214111	-0.522661	-1.057231
C86	C	1.714111	-0.022661	-0.557231
C87	C	1.277374	-0.470266	-1.010914
C88	C	1.777374	0.029734	-0.510914
C89	C	1.283046	-0.465583	-0.916769
C90	C	1.783046	0.034417	-0.416769
C91	C	1.162191	-0.565679	-0.915266
C92	C	1.662191	-0.065679	-0.415266
C93	C	1.156523	-0.570366	-1.009410
C94	C	1.656523	-0.070366	-0.509410
C95	C	1.259815	-0.484858	-0.299402
C96	C	1.759815	0.015142	0.200598
C97	C	1.266038	-0.479641	-0.199204
C98	C	1.766038	0.020359	0.300796
H99	H	0.575836	-0.618026	-0.663822
H100	H	1.075836	-0.118026	-0.163822
C101	C	1.062050	-0.996041	-0.594198
C102	C	1.562050	-0.496041	-0.094198
C103	C	1.148440	-1.022927	-0.620188
C104	C	1.648440	-0.522927	-0.120188
H105	H	1.019105	-1.025413	-0.632422
H106	H	1.519105	-0.525413	-0.132422
H107	H	1.051845	-1.006538	-0.533552
H108	H	1.551845	-0.506538	-0.033552
H109	H	1.056609	-0.937940	-0.599009
H110	H	1.556609	-0.437940	-0.099009
H111	H	1.153883	-1.081028	-0.615370
H112	H	1.653883	-0.581028	-0.115370
H113	H	1.158648	-1.012437	-0.680848
H114	H	1.658648	-0.512437	-0.180848
H115	H	1.334559	-0.422921	-0.879059
H116	H	1.834559	0.077079	-0.379059
C117	C	1.388605	-0.282476	-1.025158
C118	C	1.888605	0.217524	-0.525158
C119	C	1.404499	-0.364974	-1.007815
C120	C	1.904499	0.135026	-0.507815
H121	H	1.431533	-0.246926	-0.993717
H122	H	1.931533	0.253074	-0.493717
H123	H	1.393479	-0.278444	-1.088064
H124	H	1.893479	0.221556	-0.588064
H125	H	1.330028	-0.266106	-1.005441
H126	H	1.830028	0.233894	-0.505441
H127	H	1.463075	-0.381347	-1.027538
H128	H	1.963075	0.118653	-0.527538
H129	H	1.399634	-0.369009	-0.944896
H130	H	1.899634	0.130991	-0.444896
H131	H	1.376187	-0.388398	-1.191812
H132	H	1.876187	0.111602	-0.691812
H133	H	0.746559	-0.365621	-0.393220
H134	H	1.246559	0.134379	0.106780
H135	H	1.156937	-0.570005	-1.189103
H136	H	1.656937	-0.070005	-0.689103
C137	C	1.094173	-0.622000	-1.153061
C138	C	1.594173	-0.122000	-0.653061
C139	C	1.086989	-0.627959	-1.060328
C140	C	1.586989	-0.127959	-0.560328
H141	H	1.051249	-0.657562	-1.184492
H142	H	1.551249	-0.157562	-0.684492
H143	H	1.083389	-0.566038	-1.164815
H144	H	1.583389	-0.066038	-0.664815
H145	H	1.152753	-0.638375	-1.172767
H146	H	1.652753	-0.138375	-0.672767
H147	H	1.028411	-0.611578	-1.040620
H148	H	1.528411	-0.111578	-0.540620
H149	H	1.097767	-0.683934	-1.048567
H150	H	1.597767	-0.183934	-0.548567
H151	H	0.599604	-0.413934	-0.445024
H152	H	1.099604	0.086066	0.054976
C153	C	1.117215	-0.602945	-0.770283
C154	C	1.617215	-0.102945	-0.270283
C155	C	1.098883	-0.618121	-0.862699
C156	C	1.598883	-0.118121	-0.362699
H157	H	1.078130	-0.635319	-0.737832
H158	H	1.578130	-0.135319	-0.237832
H159	H	1.177642	-0.617787	-0.759148
H160	H	1.677642	-0.117787	-0.259148
H161	H	1.108291	-0.545438	-0.751193
H162	H	1.608291	-0.045438	-0.251193
H163	H	1.107813	-0.675627	-0.881791
H164	H	1.607813	-0.175627	-0.381791
H165	H	1.038441	-0.603284	-0.873840
H166	H	1.538441	-0.103284	-0.373840
H167	H	0.892586	-0.579309	-0.622296
H168	H	1.392586	-0.079309	-0.122296
C169	C	0.810872	-0.698348	-0.647143
C170	C	1.310872	-0.198348	-0.147143
C171	C	0.757108	-0.644403	-0.692085
C172	C	1.257108	-0.144403	-0.192085
H173	H	0.838175	-0.738317	-0.689986
H174	H	1.338175	-0.238317	-0.189986
H175	H	0.856040	-0.667178	-0.613742
H176	H	1.356040	-0.167178	-0.113742
H177	H	0.774857	-0.726143	-0.607234
H178	H	1.274857	-0.226143	-0.107234
H179	H	0.793123	-0.616604	-0.731990
H180	H	1.293123	-0.116604	-0.231990
H181	H	0.711934	-0.675577	-0.725501
H182	H	1.211934	-0.175577	-0.225501
C183	C	1.393244	-1.026196	-0.402414
C184	C	1.893244	-0.526196	0.097586
C185	C	1.343017	-0.969406	-0.447055
C186	C	1.843017	-0.469406	0.052945
H187	H	1.436188	-0.996822	-0.364190
H188	H	1.936188	-0.496822	0.135810
H189	H	1.354393	-1.056267	-0.367255
H190	H	1.854393	-0.556267	0.132745
H191	H	1.423226	-1.064004	-0.445526
H192	H	1.923226	-0.564004	0.054474
H193	H	1.313030	-0.931602	-0.403943
H194	H	1.813030	-0.431602	0.096057
H195	H	1.381873	-0.939321	-0.482217
H196	H	1.881873	-0.439321	0.017783
H197	H	0.916384	-0.375214	-0.403494
H198	H	1.416384	0.124786	0.096506
