data_functionalizedCrystal
_audit_creation_method	'MofGen! by Chris Wilmer'
_symmetry_space_group_name_H-M	'P1'
_symmetry_Int_Tables_number	1
_symmetry_cell_setting	triclinic
loop_
_symmetry_equiv_pos_as_xyz
  x,y,z
_cell_length_a	19.902436
_cell_length_b	21.606444
_cell_length_c	21.606444
_cell_angle_alpha	60.001013
_cell_angle_beta	89.998324
_cell_angle_gamma	59.995780
loop_
_atom_site_label
_atom_site_type_symbol
_atom_site_fract_x
_atom_site_fract_y
_atom_site_fract_z
Zr1	Zr	0.647319	0.677375	-0.081149
O2	O	0.540032	0.806502	-0.179977
O3	O	0.680209	0.548254	-0.050857
O4	O	0.680216	0.677369	-0.179970
O5	O	0.540017	0.677390	0.050988
O6	O	0.790795	0.677357	-0.179962
O7	O	0.540024	0.677387	-0.050863
O8	O	0.790781	0.446394	0.050999
O9	O	0.540031	0.908353	-0.179973
O10	O	0.776758	0.601352	-0.037927
O11	O	0.694229	0.601363	0.038076
O12	O	0.694238	0.753379	-0.113938
O13	O	0.611709	0.753390	-0.037935
Zr14	Zr	0.823667	0.677360	0.081303
Zr15	Zr	0.823679	0.677356	-0.081136
Zr16	Zr	0.647307	0.677380	0.081290
Zr17	Zr	0.647317	0.839815	-0.081144
Zr18	Zr	0.823669	0.514920	0.081298
O19	O	0.790777	0.806482	0.051011
O20	O	0.790794	0.806475	-0.179958
O21	O	0.540015	0.806509	0.050992
O22	O	0.930954	0.548233	0.180131
O23	O	0.930970	0.548227	-0.050838
O24	O	0.680192	0.548260	0.180112
O25	O	0.930969	0.677345	-0.050834
O26	O	0.790770	0.677367	0.180124
O27	O	0.680191	0.677379	0.180116
O28	O	0.930962	0.677348	0.051017
O29	O	0.680214	0.908338	-0.179963
O30	O	0.790772	0.446398	0.180117
O31	O	0.930955	0.446382	0.180127
O32	O	0.930964	0.446379	0.051009
O33	O	0.540022	0.908357	-0.050855
O34	O	0.680205	0.908341	-0.050845
O35	O	0.776748	0.601356	0.114092
O36	O	0.859277	0.601345	0.038089
O37	O	0.776757	0.753372	-0.037922
O38	O	0.694228	0.753383	0.038081
C39	C	0.735495	0.474180	0.000070
C40	C	0.735496	0.405220	0.000068
C41	C	0.778574	0.372816	-0.039606
C42	C	0.778577	0.308016	-0.039601
C43	C	0.735497	0.275625	0.000074
C44	C	0.692418	0.308031	0.039754
C45	C	0.692420	0.372826	0.039752
C46	C	0.692408	0.046722	0.039760
C47	C	0.692407	-0.018075	0.039756
C48	C	0.778564	-0.018087	-0.039594
C49	C	0.778567	0.046707	-0.039595
C50	C	0.735492	0.079104	0.000087
C51	C	0.735491	0.149366	0.000083
C52	C	0.735493	0.205368	0.000075
C53	C	0.514893	0.677392	0.000061
C54	C	0.440023	0.677400	0.000055
C55	C	0.168021	0.677357	0.000084
C56	C	0.144457	0.773258	-0.047635
C57	C	0.222294	0.773318	-0.047900
C58	C	0.302964	0.677379	0.000070
C59	C	0.300556	0.629750	-0.034898
C60	C	0.222329	0.630364	-0.035251
C61	C	0.223308	0.628397	0.082793
C62	C	0.300229	0.630199	0.082666
C63	C	0.379231	0.677386	0.000062
C64	C	0.091756	0.677347	0.000089
C65	C	0.956093	0.677344	0.000094
C66	C	1.030963	0.677336	0.000099
C67	C	0.735507	0.677362	-0.203110
C68	C	0.735512	0.677360	-0.272070
C69	C	0.735491	0.880556	0.000084
C70	C	0.735490	0.949516	0.000086
C71	C	0.674555	0.677383	-0.695379
C72	C	0.674562	0.677377	-0.630580
C73	C	0.735485	0.677369	-0.598181
C74	C	0.796410	0.677358	-0.630581
C75	C	0.796406	0.677358	-0.695376
C76	C	0.796430	0.677356	-0.369269
C77	C	0.796429	0.677358	-0.304471
C78	C	0.674586	0.677375	-0.304473
C79	C	0.674582	0.677375	-0.369268
C80	C	0.735509	0.677360	-0.401660
C81	C	0.735501	0.677365	-0.471922
C82	C	0.735490	0.677370	-0.527924
C83	C	0.735478	0.677373	0.203264
C84	C	0.735474	0.677375	0.272224
C85	C	0.956095	0.474156	0.000087
C86	C	1.030966	0.405187	0.000090
C87	C	0.735481	0.474185	0.203258
C88	C	0.735477	0.405227	0.272215
C89	C	0.956081	0.474161	0.203274
C90	C	1.030946	0.405195	0.272238
C91	C	0.514905	0.880574	-0.203120
C92	C	0.440040	0.949540	-0.272084
C93	C	0.514891	0.880580	0.000067
C94	C	0.440020	0.949548	0.000064
C95	C	0.735505	0.880550	-0.203104
C96	C	0.735509	0.949508	-0.272061
C97	C	1.023052	0.372803	-0.039595
C98	C	1.093394	0.308009	-0.039607
C99	C	1.171649	0.275596	0.000071
C100	C	1.179561	0.307987	0.039757
C101	C	1.109220	0.372785	0.039764
C102	C	0.778548	0.372840	0.344285
C103	C	0.778541	0.308056	0.409084
C104	C	0.735467	0.275655	0.401812
C105	C	0.692390	0.308048	0.329735
C106	C	0.692393	0.372836	0.264938
C107	C	1.109191	0.372802	0.264950
C108	C	1.179542	0.308010	0.329742
C109	C	1.171646	0.275608	0.401821
C110	C	1.093394	0.308007	0.409107
C111	C	1.023044	0.372802	0.344316
C112	C	0.361795	0.981941	-0.264796
C113	C	0.291444	1.046754	-0.329588
C114	C	0.299340	1.079159	-0.401667
C115	C	0.377592	1.046756	-0.408953
C116	C	0.447941	0.981949	-0.344161
C117	C	0.447934	0.981939	0.039742
C118	C	0.377592	1.046751	0.039736
C119	C	0.299337	1.079166	0.000056
C120	C	0.291425	1.046772	-0.039627
C121	C	0.361766	0.981966	-0.039625
C122	C	0.778592	0.981888	-0.264765
C123	C	0.778612	1.046673	-0.329552
C124	C	0.735544	1.079081	-0.401634
C125	C	0.692460	1.046695	-0.408929
C126	C	0.692445	0.981907	-0.344143
H127	H	0.813643	0.073081	-0.071905
F128	F	0.824400	0.407309	0.352042
H129	H	0.813623	0.281689	0.467766
F130	F	0.861246	0.677346	-0.729852
F131	F	0.824412	-0.052575	-0.081825
H132	H	0.959337	0.399169	0.350260
F133	F	0.939774	0.407289	-0.081830
F134	F	0.646554	-0.052548	0.081987
F135	F	1.084956	0.273545	-0.081845
F136	F	1.246506	0.206631	0.000058
F137	F	0.385982	1.081251	-0.485671
F138	F	0.609737	0.677388	-0.403749
H139	H	0.221014	0.810877	-0.024628
H140	H	1.086977	0.281616	0.467802
F141	F	0.531213	0.947467	-0.351929
H142	H	0.813663	0.955512	-0.206078
H143	H	0.185790	0.664207	-0.096113
H144	H	0.657358	0.955550	-0.350095
H145	H	0.813695	1.073036	-0.323598
F146	F	0.208133	1.081277	-0.081853
F147	F	0.646567	0.081190	0.081996
H148	H	1.243286	0.281587	0.072061
F149	F	0.249351	0.536054	0.129483
H150	H	0.355311	0.955594	-0.071934
F151	F	1.262816	0.273537	0.321973
H152	H	0.241675	0.560002	-0.002741
F153	F	0.374812	0.537547	0.008345
F154	F	0.735565	1.148037	-0.470580
H155	H	0.242050	1.131929	-0.454418
H156	H	0.657320	0.281658	0.323825
H157	H	0.624978	0.677383	-0.278091
H158	H	0.511647	0.955552	0.072059
F159	F	0.646620	1.081200	-0.485651
H160	H	0.735471	0.222901	0.454581
F161	F	0.224480	1.148139	0.000062
F162	F	0.353374	0.947463	-0.188091
H163	H	0.227735	1.073126	-0.323641
F164	F	0.646580	0.273546	0.081990
H165	H	1.115675	0.399144	0.072085
F166	F	0.861275	0.677348	-0.269990
F167	F	0.646551	0.407294	0.188237
F168	F	0.386030	1.081213	0.081976
H169	H	0.813650	0.399189	-0.071918
F170	F	0.646573	0.407310	0.081981
F171	F	0.824411	0.273546	-0.081841
F172	F	0.093257	0.822464	-0.017138
H173	H	0.104549	0.810713	-0.108279
H174	H	0.302111	0.662826	-0.095181
F175	F	0.175840	0.668504	0.120976
F176	F	0.299748	0.675579	0.116817
F177	F	0.219976	0.822465	-0.127645
F178	F	0.375319	0.538703	0.133047
F179	F	0.609707	0.677399	-0.729858
H180	H	0.624958	0.677383	-0.604203
F181	F	0.861270	0.677343	-0.403739
F182	F	1.117612	0.407279	0.188245
F183	F	0.861254	0.677343	-0.596096
F184	F	1.246526	0.206645	0.470772
