data_functionalizedCrystal
_audit_creation_method	'MofGen! by Chris Wilmer'
_symmetry_space_group_name_H-M	'P1'
_symmetry_Int_Tables_number	1
_symmetry_cell_setting	triclinic
loop_
_symmetry_equiv_pos_as_xyz
  x,y,z
_cell_length_a	18.215407
_cell_length_b	12.759400
_cell_length_c	12.759393
_cell_angle_alpha	89.968436
_cell_angle_beta	90.021831
_cell_angle_gamma	89.984868
loop_
_atom_site_label
_atom_site_type_symbol
_atom_site_fract_x
_atom_site_fract_y
_atom_site_fract_z
Zn1	Zn	1.125139	0.418192	0.594075
Zn2	Zn	1.125065	0.593911	0.418395
Zn3	Zn	1.002067	0.418248	0.418404
Zn4	Zn	1.002059	0.593831	0.594026
O5	O	1.063582	0.506045	0.506225
O6	O	1.228113	0.441511	0.570787
O7	O	1.108721	0.570665	0.271375
O8	O	1.018427	0.271219	0.441731
O9	O	1.228059	0.570611	0.441716
O10	O	1.108847	0.271178	0.570796
O11	O	1.018355	0.441607	0.271382
O12	O	0.899082	0.441529	0.441684
O13	O	1.018413	0.570475	0.741054
O14	O	0.899076	0.570529	0.570713
O15	O	1.108840	0.441434	0.741090
O16	O	1.108713	0.740921	0.441669
O17	O	1.018342	0.740862	0.570704
C18	C	1.063539	0.779013	0.506203
C19	C	1.063587	0.895789	0.506229
C20	C	0.872376	0.506027	0.506195
C21	C	0.790577	0.506045	0.506207
C22	C	1.063634	0.505939	0.780258
C23	C	1.063656	0.505894	0.897035
C24	C	0.602399	0.573321	0.573308
C25	C	0.525541	0.573324	0.573321
C26	C	0.525517	0.438789	0.439165
C27	C	0.602375	0.438781	0.439158
C28	C	0.640814	0.506053	0.506228
C29	C	0.487098	0.506064	0.506248
C30	C	0.403764	0.506067	0.506262
C31	C	0.724153	0.506049	0.506216
C32	C	1.255535	0.506064	0.506256
C33	C	1.337334	0.506072	0.506269
C34	C	1.063646	0.232012	0.506270
C35	C	1.063673	0.115235	0.506289
C36	C	1.110696	0.950647	0.439114
C37	C	1.110741	1.060371	0.439147
C38	C	1.016563	1.060370	0.573411
C39	C	1.016522	0.950648	0.573383
C40	C	1.165067	0.950648	0.361595
C41	C	1.165112	1.060372	0.361627
C42	C	1.063573	0.506075	0.233258
C43	C	1.063694	0.505824	0.116482
C44	C	1.110747	0.438696	0.951918
C45	C	1.110765	0.438658	1.061642
C46	C	1.016597	0.573025	1.061591
C47	C	1.016577	0.573057	0.951869
C48	C	1.165116	0.361123	0.951947
C49	C	1.165134	0.361085	1.061672
H50	H	0.633694	0.628095	0.627923
F51	F	1.235864	0.399243	0.907460
F52	F	1.138388	0.906272	0.260531
F53	F	1.235883	1.104746	0.399829
H54	H	0.494267	0.628099	0.627946
F55	F	0.643260	0.367176	0.367764
H56	H	0.978244	1.105049	0.628087
H57	H	0.494211	0.384020	0.384558
H58	H	0.978169	0.905984	0.628042
F59	F	1.239541	0.911616	0.390162
F60	F	1.145185	0.254777	0.913047
F61	F	1.145212	1.099410	0.255258
F62	F	1.239634	0.389556	1.100605
F63	F	0.966446	0.644564	0.893463
H64	H	0.978266	0.627705	1.106251
H65	H	1.144740	0.283776	1.095718
