data_functionalizedCrystal
_audit_creation_method	'MofGen! by Chris Wilmer'
_symmetry_space_group_name_H-M	'P1'
_symmetry_Int_Tables_number	1
_symmetry_cell_setting	triclinic
loop_
_symmetry_equiv_pos_as_xyz
  x,y,z
_cell_length_a	9.130307
_cell_length_b	12.837943
_cell_length_c	12.837942
_cell_angle_alpha	85.171060
_cell_angle_beta	90.002954
_cell_angle_gamma	89.999550
loop_
_atom_site_label
_atom_site_type_symbol
_atom_site_fract_x
_atom_site_fract_y
_atom_site_fract_z
O1	O	0.121772	-1.402331	0.272138
O2	O	0.621772	-0.902331	0.772138
O3	O	0.121781	-1.099198	0.258695
O4	O	0.621781	-0.599198	0.758695
O5	O	0.121767	-1.244043	0.113850
O6	O	0.621767	-0.744043	0.613850
O7	O	0.121785	-1.257486	0.416983
O8	O	0.621785	-0.757486	0.916983
O9	O	-0.121832	-1.244038	0.113848
O10	O	0.378168	-0.744038	0.613848
O11	O	-0.121818	-1.099192	0.258693
O12	O	0.378182	-0.599192	0.758693
O13	O	-0.121827	-1.402326	0.272136
O14	O	0.378173	-0.902326	0.772136
Cu15	Cu	-0.144065	-1.250759	0.265414
Cu16	Cu	0.355935	-0.750759	0.765414
Cu17	Cu	0.144019	-1.250765	0.265417
Cu18	Cu	0.644019	-0.750765	0.765417
O19	O	-0.121814	-1.257481	0.416981
O20	O	0.378186	-0.757481	0.916981
C21	C	-0.000018	-1.060126	0.254153
C22	C	0.499982	-0.560126	0.754153
C23	C	-0.000015	-0.943711	0.240608
C24	C	0.499985	-0.443711	0.740608
N25	N	-0.346688	-1.250762	0.265413
N26	N	0.153312	-0.750762	0.765413
C27	C	-0.000031	-1.239499	0.074780
C28	C	0.499969	-0.739499	0.574780
C29	C	-0.000028	-1.225954	-0.041635
C30	C	0.499972	-0.725954	0.458365
C31	C	-0.346690	-1.379084	0.137199
C32	C	0.153310	-0.879084	0.637199
C33	C	-0.423357	-1.443252	0.073096
C34	C	0.076643	-0.943252	0.573096
C35	C	-0.576691	-1.443263	0.073096
C36	C	-0.076691	-0.943263	0.573096
C37	C	-0.653360	-1.379095	0.137204
C38	C	-0.153360	-0.879095	0.637204
C39	C	-0.576693	-1.314927	0.201307
C40	C	-0.076693	-0.814927	0.701307
C41	C	-0.423356	-1.314926	0.201303
C42	C	0.076644	-0.814926	0.701303
C43	C	-0.576691	-1.186601	0.329514
C44	C	-0.076691	-0.686601	0.829514
C45	C	-0.423357	-1.186595	0.329521
C46	C	0.076643	-0.686595	0.829521
C47	C	-0.653360	-1.122434	0.393622
C48	C	-0.153360	-0.622434	0.893622
C49	C	-0.576693	-1.058270	0.457732
C50	C	-0.076693	-0.558270	0.957732
C51	C	-0.423350	-1.058263	0.457730
C52	C	0.076650	-0.558263	0.957730
C53	C	-0.346690	-1.122426	0.393624
C54	C	0.153310	-0.622426	0.893624
N55	N	0.346642	-1.250769	0.265411
N56	N	0.846642	-0.750769	0.765411
C57	C	-0.000025	-1.441398	0.276679
C58	C	0.499975	-0.941398	0.776679
C59	C	-0.000019	-1.557813	0.290223
C60	C	0.499981	-1.057813	0.790223
C61	C	-0.000026	-0.718837	0.403437
C62	C	0.499974	-0.218837	0.903437
C63	C	-0.000024	-0.609454	0.390716
C64	C	0.499976	-0.109454	0.890716
C65	C	-0.000020	-0.615562	0.202445
C66	C	0.499980	-0.115562	0.702445
C67	C	-0.000022	-0.724944	0.215166
C68	C	0.499978	-0.224944	0.715166
C69	C	-0.000023	-0.776578	0.315666
C70	C	0.499977	-0.276578	0.815666
C71	C	-0.000014	-0.885962	0.328386
C72	C	0.499986	-0.385962	0.828386
C73	C	-0.000020	-0.892067	0.140116
C74	C	0.499980	-0.392067	0.640116
C75	C	-0.000018	-0.782685	0.127395
C76	C	0.499982	-0.282685	0.627395
C77	C	-0.000002	-1.388784	-0.266510
C78	C	0.499998	-0.888784	0.233490
C79	C	0.000000	-1.376062	-0.375892
C80	C	0.500000	-0.876062	0.124108
C81	C	-0.000009	-1.187791	-0.369785
C82	C	0.499991	-0.687791	0.130215
C83	C	-0.000012	-1.200513	-0.260402
C84	C	0.499988	-0.700513	0.239598
C85	C	-0.000011	-1.301012	-0.208769
C86	C	0.499989	-0.801012	0.291231
C87	C	-0.000024	-1.313732	-0.099384
C88	C	0.499976	-0.813732	0.400616
C89	C	-0.000024	-1.125462	-0.093279
C90	C	0.499976	-0.625462	0.406721
C91	C	-0.000021	-1.112741	-0.202661
C92	C	0.499979	-0.612741	0.297339
C93	C	-0.000012	-1.262025	0.456052
C94	C	0.499988	-0.762025	0.956052
C95	C	-0.000005	-1.275569	0.572467
C96	C	0.499995	-0.775569	1.072467
H97	H	-0.221838	-1.379091	0.137202
H98	H	0.278162	-0.879091	0.637202
H99	H	0.000012	-1.447536	-0.422901
H100	H	0.500012	-0.947536	0.077099
F101	F	-0.341754	-1.511537	0.004866
F102	F	0.158246	-1.011537	0.504866
H103	H	0.000005	-1.105969	-0.411844
H104	H	0.500005	-0.605969	0.088156
H105	H	-0.778212	-1.379098	0.137191
H106	H	-0.278212	-0.879098	0.637191
H107	H	-0.000016	-1.030917	-0.244717
H108	H	0.499984	-0.530917	0.255283
F109	F	-0.000009	-0.773792	0.510394
F110	F	0.499991	-0.273792	1.010394
F111	F	0.000002	-0.953527	0.046697
F112	F	0.500002	-0.453527	0.546697
F113	F	-0.658287	-1.511552	0.004865
F114	F	-0.158287	-1.011552	0.504865
H115	H	-0.000042	-1.053992	-0.046254
H116	H	0.499958	-0.553992	0.453746
H117	H	-0.639126	-1.006024	0.509920
H118	H	-0.139126	-0.506024	1.009920
H119	H	-0.000017	-0.928000	0.410218
H120	H	0.499983	-0.428000	0.910218
H121	H	-0.000029	-1.395564	-0.057346
H122	H	0.499971	-0.895564	0.442654
F123	F	-0.183498	-1.122430	0.393620
F124	F	0.316502	-0.622430	0.893620
F125	F	-0.816552	-1.122440	0.393617
F126	F	-0.316552	-0.622440	0.893617
H127	H	-0.000140	-0.573502	0.120623
H128	H	0.499860	-0.073502	0.620623
F129	F	-0.000032	-0.548006	0.484135
F130	F	0.499968	-0.048006	0.984135
H131	H	-0.360935	-1.006005	0.509927
H132	H	0.139065	-0.506005	1.009927
F133	F	-0.000032	-1.495741	-0.211555
F134	F	0.499968	-0.995741	0.288445
F135	F	-0.000022	-0.727721	0.020442
F136	F	0.499978	-0.227721	0.520442
