data_functionalizedCrystal
_audit_creation_method	'MofGen! by Chris Wilmer'
_symmetry_space_group_name_H-M	'P1'
_symmetry_Int_Tables_number	1
_symmetry_cell_setting	triclinic
loop_
_symmetry_equiv_pos_as_xyz
  x,y,z
_cell_length_a	10.654550
_cell_length_b	15.944551
_cell_length_c	9.730223
_cell_angle_alpha	89.997716
_cell_angle_beta	89.996251
_cell_angle_gamma	83.991820
loop_
_atom_site_label
_atom_site_type_symbol
_atom_site_fract_x
_atom_site_fract_y
_atom_site_fract_z
O1	O	1.666308	0.117973	-0.114406
O2	O	1.300684	0.129213	-0.114384
O3	O	1.493480	0.001376	-0.114384
O4	O	1.473511	0.245810	-0.114407
O5	O	1.493478	0.001379	0.114196
O6	O	1.300681	0.129216	0.114196
O7	O	1.666305	0.117976	0.114174
Zn8	Zn	1.483493	0.123597	0.150477
Zn9	Zn	1.483496	0.123592	-0.150687
O10	O	1.473509	0.245813	0.114173
C11	C	1.253895	0.128389	-0.000092
C12	C	1.114484	0.125920	-0.000083
C13	C	1.492650	-0.029921	-0.000093
C14	C	1.490165	-0.123182	-0.000092
C15	C	1.034024	0.201188	-0.000110
C16	C	0.903034	0.198863	-0.000134
C17	C	0.932975	0.045995	-0.000108
C18	C	1.063963	0.048321	-0.000075
C19	C	1.016737	0.289446	-0.000131
C20	C	0.885746	0.287121	-0.000154
C21	C	1.364720	-0.338765	-0.000104
C22	C	1.422971	-0.399443	0.112596
C23	C	1.485668	-0.293934	-0.000103
C24	C	1.423002	-0.399430	-0.112765
C25	C	1.481317	-0.458872	-0.000119
C26	C	1.543953	-0.353384	0.112691
C27	C	1.543967	-0.353364	-0.112772
C28	C	1.602306	-0.414024	-0.000045
C29	C	1.488172	-0.198917	-0.000092
C30	C	1.478822	-0.553887	-0.000119
C31	C	1.713094	0.118800	-0.000122
C32	C	1.852505	0.121269	-0.000140
C33	C	1.474339	0.277110	-0.000120
C34	C	1.476824	0.370371	-0.000130
N35	N	1.483500	0.123599	0.356013
N36	N	1.483499	0.123583	-0.356224
C37	C	1.568892	0.067012	0.427939
C38	C	1.568889	0.067002	0.571822
C39	C	1.398098	0.180173	0.571840
C40	C	1.398096	0.180178	0.427959
C41	C	1.667501	0.001676	0.427931
C42	C	1.667498	0.001666	0.571814
H43	H	0.891824	-0.017184	-0.000123
H44	H	1.637774	-0.059344	0.616437
C45	C	1.229102	-0.294546	0.000048
C46	C	1.138206	-0.310439	-0.117928
C47	C	1.002593	-0.266219	-0.117769
C48	C	0.957874	-0.206107	0.000366
C49	C	1.048771	-0.190211	0.118350
C50	C	1.184385	-0.234431	0.118191
H51	H	1.171308	-0.354940	-0.205386
H52	H	0.935305	-0.277987	-0.205109
H53	H	0.857484	-0.173372	0.000484
H54	H	1.015669	-0.145709	0.205809
H55	H	1.251672	-0.222663	0.205532
C56	C	0.823570	0.323157	0.133151
C57	C	0.723117	0.399879	0.127062
C58	C	0.660941	0.435913	0.260365
C59	C	0.699218	0.395225	0.399756
C60	C	0.799676	0.318499	0.405850
C61	C	0.861852	0.282465	0.272547
H62	H	0.694777	0.430003	0.023871
H63	H	0.586575	0.492711	0.255853
H64	H	0.653192	0.421900	0.498435
H65	H	0.828016	0.288375	0.509041
H66	H	0.936218	0.225667	0.277060
H67	H	1.129470	-0.012970	-0.000033
H68	H	0.843584	0.320374	-0.095825
C69	C	1.055771	0.336076	0.129098
C70	C	0.954895	0.371314	0.233251
C71	C	0.993930	0.417942	0.362475
C72	C	1.133842	0.429332	0.387547
C73	C	1.234727	0.394093	0.283391
C74	C	1.195692	0.347465	0.154166
H75	H	0.851316	0.362883	0.214694
H76	H	0.919247	0.444028	0.439578
H77	H	1.162738	0.463848	0.483207
H78	H	1.338306	0.402524	0.301948
H79	H	1.270375	0.321379	0.077063
C80	C	1.353865	-0.427014	0.241317
C81	C	1.298742	-0.360567	0.345835
C82	C	1.229626	-0.388133	0.474548
C83	C	1.215632	-0.482146	0.498744
C84	C	1.270756	-0.548599	0.394223
C85	C	1.339872	-0.521033	0.265509
H86	H	1.309100	-0.290968	0.327926
H87	H	1.188820	-0.338940	0.551921
H88	H	1.164468	-0.502552	0.594025
H89	H	1.260399	-0.618198	0.412131
H90	H	1.380679	-0.570226	0.188136
C91	C	1.612998	-0.325985	0.241555
C92	C	1.628051	-0.232087	0.265407
C93	C	1.697090	-0.204685	0.394271
C94	C	1.751075	-0.271182	0.499283
C95	C	1.736023	-0.365086	0.475435
C96	C	1.666985	-0.392488	0.346571
H97	H	1.588087	-0.182856	0.187667
H98	H	1.708232	-0.135171	0.411924
H99	H	1.802181	-0.250898	0.594676
H100	H	1.775988	-0.414317	0.553174
H101	H	1.655843	-0.462002	0.328917
C102	C	1.738045	-0.458039	0.000023
C103	C	1.828023	-0.443098	0.119328
C104	C	1.963760	-0.487114	0.119400
C105	C	2.009519	-0.546070	0.000168
C106	C	1.919540	-0.561013	-0.119146
C107	C	1.783803	-0.516998	-0.119219
H108	H	1.794150	-0.399453	0.207598
H109	H	2.030368	-0.476051	0.207725
H110	H	2.110000	-0.578652	0.000222
H111	H	1.953412	-0.604659	-0.207417
H112	H	1.717194	-0.528061	-0.207543
H113	H	1.052030	0.317547	-0.098821
C114	C	1.790323	0.029314	0.367624
C115	C	1.917867	-0.021236	0.400819
C116	C	2.040687	0.006407	0.340513
C117	C	2.035962	0.084599	0.247012
C118	C	1.908412	0.135154	0.213812
C119	C	1.785593	0.107511	0.274118
H120	H	1.921370	-0.079123	0.470039
H121	H	2.135107	-0.031017	0.365091
H122	H	2.126880	0.105062	0.202370
H123	H	1.904910	0.193040	0.144592
H124	H	1.691172	0.144935	0.249540
C125	C	1.797609	0.021122	0.624586
C126	C	1.876924	-0.043301	0.715574
C127	C	2.007023	-0.023837	0.768353
C128	C	2.057807	0.060049	0.730144
C129	C	1.978490	0.124477	0.639151
C130	C	1.848391	0.105014	0.586372
H131	H	1.839332	-0.105403	0.743863
H132	H	2.065738	-0.071532	0.835712
H133	H	2.154114	0.074456	0.769214
H134	H	2.016082	0.186579	0.610862
H135	H	1.789676	0.152708	0.519013
H136	H	1.595080	-0.332939	-0.208062
H137	H	1.371831	-0.419804	-0.208051
H138	H	1.328552	0.226248	0.369398
H139	H	1.328563	0.226238	0.630434
H140	H	1.646893	-0.062885	0.388884
