data_functionalizedCrystal
_audit_creation_method	'MofGen! by Chris Wilmer'
_symmetry_space_group_name_H-M	'P1'
_symmetry_Int_Tables_number	1
_symmetry_cell_setting	triclinic
loop_
_symmetry_equiv_pos_as_xyz
  x,y,z
_cell_length_a	13.635800
_cell_length_b	11.102188
_cell_length_c	19.551833
_cell_angle_alpha	85.477063
_cell_angle_beta	101.663477
_cell_angle_gamma	71.396125
loop_
_atom_site_label
_atom_site_type_symbol
_atom_site_fract_x
_atom_site_fract_y
_atom_site_fract_z
V1	V	2.016320	-0.177171	0.217858
O2	O	1.996592	0.007143	0.213711
O3	O	2.004973	-0.349982	0.216368
O4	O	1.987509	-0.175048	0.312873
O5	O	2.014177	-0.169003	0.116537
V6	V	2.257066	-0.155054	0.205739
O7	O	2.149177	-0.225687	0.244442
O8	O	2.349307	-0.106538	0.179156
O9	O	2.156809	0.017757	0.207229
O10	O	2.335492	-0.339368	0.209886
O11	O	2.317907	-0.163222	0.307060
O12	O	2.174273	-0.157178	0.110724
V13	V	2.516320	-0.177171	0.217858
O14	O	2.496592	0.007143	0.213711
O15	O	2.504973	-0.349982	0.216368
O16	O	2.487509	-0.175048	0.312873
O17	O	2.514177	-0.169003	0.116537
V18	V	2.757066	-0.155054	0.205739
O19	O	2.649177	-0.225687	0.244442
O20	O	2.849307	-0.106538	0.179156
O21	O	2.656809	0.017757	0.207229
O22	O	2.835492	-0.339368	0.209886
O23	O	2.817907	-0.163222	0.307060
O24	O	2.674273	-0.157178	0.110724
C25	C	1.930750	-0.392091	0.212931
C26	C	1.962085	-0.533370	0.212346
C27	C	1.958307	-0.581202	0.148085
C28	C	1.987761	-0.713951	0.147538
C29	C	2.024768	-0.751023	0.275520
C30	C	1.995321	-0.618278	0.276067
C31	C	2.064506	-0.877267	0.072155
C32	C	2.060710	-0.925102	0.007889
C33	C	1.976078	-0.861482	-0.050672
C34	C	1.895217	-0.750027	-0.044970
C35	C	1.899006	-0.702198	0.019297
C36	C	1.983660	-0.765817	0.077856
C37	C	1.918567	-0.454957	0.351445
C38	C	1.922348	-0.407126	0.415712
C39	C	2.006975	-0.470745	0.474278
C40	C	2.087823	-0.582205	0.468583
C41	C	2.084042	-0.630036	0.404316
C42	C	1.999415	-0.566408	0.345749
C43	C	1.908472	-0.168943	0.336033
C44	C	1.925643	-0.168350	0.413708
C45	C	2.062704	0.059859	0.210664
C46	C	2.020987	0.201137	0.211253
C47	C	2.084982	-0.163287	0.087561
C48	C	2.057430	-0.163873	0.009885
C49	C	2.430750	-0.392091	0.212931
C50	C	2.462085	-0.533370	0.212346
C51	C	2.408472	-0.168943	0.336033
C52	C	2.425643	-0.168350	0.413708
C53	C	2.025071	-0.174451	0.453755
C54	C	2.041205	-0.173894	0.526740
C55	C	1.957911	-0.167262	0.559676
C56	C	1.858467	-0.161153	0.519619
C57	C	1.842333	-0.161697	0.446635
C58	C	1.931650	-0.236364	0.678988
C59	C	1.947789	-0.235828	0.751972
C60	C	2.007669	-0.165577	0.784783
C61	C	2.051429	-0.095879	0.744604
C62	C	2.035294	-0.096424	0.671620
C63	C	1.975396	-0.166670	0.638815
C64	C	2.124598	-0.171073	0.903969
C65	C	2.140726	-0.170507	0.976954
C66	C	1.957989	-0.157779	0.969832
C67	C	1.941860	-0.158331	0.896848
C68	C	2.025170	-0.164984	0.863921
C69	C	2.562704	0.059859	0.210664
C70	C	2.520987	0.201137	0.211253
C71	C	2.584982	-0.163287	0.087561
C72	C	2.557430	-0.163873	0.009885
C73	C	2.525075	-0.174430	0.453747
C74	C	2.541219	-0.173856	0.526730
C75	C	2.457931	-0.167212	0.559674
C76	C	2.358489	-0.161127	0.519630
C77	C	2.342345	-0.161692	0.446647
C78	C	2.458486	-0.170503	-0.023041
C79	C	2.432579	-0.171039	-0.096027
C80	C	2.505621	-0.164954	-0.136085
C81	C	2.604573	-0.158319	-0.103154
C82	C	2.630475	-0.157774	-0.030170
C83	C	2.458307	-0.581202	0.148085
C84	C	2.487761	-0.713951	0.147538
C85	C	2.524768	-0.751023	0.275520
C86	C	2.495321	-0.618278	0.276067
C87	C	2.564506	-0.877267	0.072155
C88	C	2.560710	-0.925102	0.007889
C89	C	2.476078	-0.861482	-0.050672
C90	C	2.395217	-0.750027	-0.044970
C91	C	2.399006	-0.702198	0.019297
C92	C	2.483660	-0.765817	0.077856
C93	C	2.418567	-0.454957	0.351445
C94	C	2.422348	-0.407126	0.415712
C95	C	2.506975	-0.470745	0.474278
C96	C	2.587823	-0.582205	0.468583
C97	C	2.584042	-0.630036	0.404316
C98	C	2.499415	-0.566408	0.345749
H99	H	1.931245	-0.512073	0.096200
H100	H	2.398998	-0.175458	0.009565
H101	H	2.261375	-0.156744	0.414053
Cl102	Cl	2.126716	-0.007565	0.785844
H103	H	2.484521	-0.165414	-0.195511
H104	H	2.126555	-1.015851	0.003251
Cl105	Cl	2.666239	-0.181516	0.577058
H106	H	2.472990	-0.900439	-0.102998
H107	H	1.790649	-0.155749	0.546440
Cl108	Cl	2.011720	-0.410618	0.555074
H109	H	1.833168	-0.611458	0.023940
Cl110	Cl	2.308183	-0.179391	-0.137409
H111	H	2.626555	-1.015851	0.003251
H112	H	2.356504	-0.316376	0.420348
Cl113	Cl	2.696391	-0.150686	-0.153522
H114	H	2.592905	-0.179844	0.426934
Cl115	Cl	2.478247	-0.166509	0.651427
Cl116	Cl	2.754878	-0.149459	0.011215
Cl117	Cl	2.297364	-0.562094	0.026468
Cl118	Cl	2.288810	-0.670065	-0.118591
Cl119	Cl	2.312249	-0.374868	0.277789
Cl120	Cl	2.066545	-0.857772	0.355621
Cl121	Cl	2.511720	-0.410618	0.555074
H122	H	2.149877	-0.720797	0.399682
Cl123	Cl	2.416532	-0.474466	0.067980
H124	H	2.290682	-0.155718	0.546464
H125	H	2.633433	-0.929068	0.119833
H126	H	2.133433	-0.929068	0.119833
H127	H	2.649877	-0.720797	0.399682
H128	H	1.860899	-0.153377	0.864242
H129	H	1.761363	-0.156719	0.414027
H130	H	2.551830	-0.820170	0.327399
Cl131	Cl	2.694217	-0.662190	0.542210
H132	H	1.826299	-0.698243	-0.092656
H133	H	1.972990	-0.900439	-0.102998
H134	H	2.156731	-0.634010	0.516273
H135	H	1.890166	-0.152368	0.996647
H136	H	1.849652	-0.403145	0.303757
Cl137	Cl	2.129802	-0.182806	0.412365
Cl138	Cl	2.166209	-0.181557	0.577095
Cl139	Cl	2.090302	-0.008807	0.621111
Cl140	Cl	1.820703	-0.267007	0.422873
H141	H	2.192432	-0.176485	0.877158
H142	H	2.221692	-0.175466	1.009559
H143	H	1.912164	-0.292588	0.784681
Cl144	Cl	1.856351	-0.324670	0.637746
