data_functionalizedCrystal
_audit_creation_method	'MofGen! by Chris Wilmer'
_symmetry_space_group_name_H-M	'P1'
_symmetry_Int_Tables_number	1
_symmetry_cell_setting	triclinic
loop_
_symmetry_equiv_pos_as_xyz
  x,y,z
_cell_length_a	14.044220
_cell_length_b	10.540539
_cell_length_c	12.503572
_cell_angle_alpha	93.560877
_cell_angle_beta	86.164750
_cell_angle_gamma	88.857185
loop_
_atom_site_label
_atom_site_type_symbol
_atom_site_fract_x
_atom_site_fract_y
_atom_site_fract_z
O1	O	1.265193	0.299541	-0.089197
O2	O	0.989150	0.288487	-0.089224
O3	O	1.133469	0.109945	-0.089208
O4	O	1.120874	0.478084	-0.089212
O5	O	1.122616	0.123396	0.089432
O6	O	0.978297	0.301939	0.089417
O7	O	1.254339	0.312993	0.089444
Cu8	Cu	1.115327	0.308694	0.105742
Cu9	Cu	1.128163	0.292786	-0.105522
O10	O	1.110020	0.491536	0.089428
C11	C	0.948377	0.290375	0.000093
C12	C	0.843054	0.275945	0.000082
C13	C	0.650213	0.249566	0.000104
C14	C	0.593272	0.351908	0.000107
C15	C	0.485969	0.337231	0.000119
C16	C	0.757526	0.264241	0.000092
C17	C	1.127098	0.069272	0.000110
C18	C	1.124272	-0.071962	0.000104
C19	C	1.016008	-0.266368	-0.000308
C20	C	1.018848	-0.119430	0.000095
C21	C	1.168809	-0.120809	0.102122
C22	C	1.165206	-0.267711	0.102207
C23	C	1.179693	-0.283309	-0.100941
C24	C	1.180746	-0.136331	-0.102289
C25	C	1.295113	0.311105	0.000125
C26	C	1.400436	0.325535	0.000129
C27	C	1.116392	0.532208	0.000108
C28	C	1.119218	0.673442	0.000107
N29	N	1.106306	0.319883	0.254333
N30	N	1.137191	0.281588	-0.254113
C31	C	1.093036	0.336354	0.473447
C32	C	1.150458	0.265121	0.526780
C33	C	1.143074	0.274286	0.648703
C34	C	1.100419	0.327191	0.351513
H35	H	0.978808	-0.304687	-0.073467
H36	H	0.970113	-0.295291	0.072433
O37	O	0.612357	0.131815	-0.000043
C38	C	0.648450	0.058495	-0.092585
H39	H	0.719236	0.098408	-0.123430
H40	H	0.660072	-0.044202	-0.071788
H41	H	0.595231	0.061989	-0.157366
H42	H	1.128954	-0.076056	0.178033
O43	O	1.027733	0.417150	0.528323
C44	C	0.964764	0.347399	0.593361
H45	H	1.000751	0.253449	0.610064
H46	H	0.945474	0.404598	0.672502
H47	H	0.897150	0.327750	0.550111
O48	O	1.144459	-0.331851	-0.193163
C49	C	1.049202	-0.288776	-0.197632
H50	H	1.036691	-0.197111	-0.144776
H51	H	1.035125	-0.270100	-0.284078
H52	H	0.998763	-0.364282	-0.167658
H53	H	0.625111	0.450550	0.000101
H54	H	0.983371	-0.086369	-0.073036
H55	H	0.974198	-0.076223	0.073339
H56	H	1.123078	-0.293959	0.178460
H57	H	1.240744	-0.307665	0.106843
O58	O	1.260871	-0.084310	0.106529
C59	C	1.286463	-0.013940	0.017158
H60	H	1.219374	0.028149	-0.014765
H61	H	1.335255	0.066086	0.042401
H62	H	1.325456	-0.079150	-0.048426
H63	H	1.148208	-0.104908	-0.177759
H64	H	1.257982	-0.104802	-0.108442
O65	O	1.270533	-0.330675	-0.101624
C66	C	1.279476	-0.402503	-0.011230
H67	H	1.206184	-0.436041	0.018158
H68	H	1.328792	-0.488486	-0.034203
H69	H	1.310685	-0.341065	0.055449
H70	H	1.205164	0.197256	0.480873
