data_functionalizedCrystal
_audit_creation_method	'MofGen! by Chris Wilmer'
_symmetry_space_group_name_H-M	'P1'
_symmetry_Int_Tables_number	1
_symmetry_cell_setting	triclinic
loop_
_symmetry_equiv_pos_as_xyz
  x,y,z
_cell_length_a	18.050589
_cell_length_b	21.395362
_cell_length_c	21.395355
_cell_angle_alpha	90.043940
_cell_angle_beta	90.012902
_cell_angle_gamma	90.044101
loop_
_atom_site_label
_atom_site_type_symbol
_atom_site_fract_x
_atom_site_fract_y
_atom_site_fract_z
Zn1	Zn	-0.295431	0.957870	0.354610
Zn2	Zn	0.204569	1.457870	0.854610
Zn3	Zn	-0.419603	0.957777	0.249843
Zn4	Zn	0.080397	1.457777	0.749843
Zn5	Zn	-0.295465	0.853085	0.249811
Zn6	Zn	0.204535	1.353085	0.749811
Zn7	Zn	-0.419618	0.853059	0.354548
Zn8	Zn	0.080382	1.353059	0.854548
O9	O	-0.357529	0.905448	0.302203
O10	O	0.142471	1.405448	0.802203
O11	O	-0.311882	1.045536	0.340752
O12	O	0.188118	1.545536	0.840752
O13	O	-0.403144	0.943862	0.162161
O14	O	0.096856	1.443862	0.662161
O15	O	-0.191536	0.867035	0.263726
O16	O	0.308464	1.367035	0.763726
O17	O	-0.403110	1.045468	0.263780
O18	O	0.096890	1.545468	0.763780
O19	O	-0.191511	0.944020	0.340721
O20	O	0.308489	1.444020	0.840721
O21	O	-0.311940	0.866945	0.162138
O22	O	0.188060	1.366945	0.662138
O23	O	-0.311955	0.765404	0.263665
O24	O	0.188045	1.265404	0.763665
O25	O	-0.403136	0.866990	0.442234
O26	O	0.096864	1.366990	0.942234
O27	O	-0.403170	0.765385	0.340615
O28	O	0.096830	1.265385	0.840615
O29	O	-0.311896	0.943995	0.442280
O30	O	0.188104	1.443995	0.942280
O31	O	-0.523529	0.943836	0.263719
O32	O	-0.023529	1.443836	0.763719
O33	O	-0.523540	0.866900	0.340645
O34	O	-0.023540	1.366900	0.840645
C35	C	-0.357568	0.742660	0.302130
C36	C	0.142432	1.242660	0.802130
C37	C	-0.357603	0.673019	0.302114
C38	C	0.142397	1.173019	0.802114
C39	C	-0.405161	0.640312	0.342121
C40	C	0.094839	1.140312	0.842121
C41	C	-0.405143	0.574877	0.342149
C42	C	0.094857	1.074877	0.842149
C43	C	-0.357574	0.542151	0.302159
C44	C	0.142426	1.042151	0.802159
C45	C	-0.310007	0.574865	0.262148
C46	C	0.189993	1.074865	0.762148
C47	C	-0.310021	0.640300	0.262126
C48	C	0.189979	1.140300	0.762126
C49	C	-0.351592	0.438426	0.245753
C50	C	0.148408	0.938426	0.745753
C51	C	-0.351583	0.372993	0.245774
C52	C	0.148417	0.872993	0.745774
C53	C	-0.357526	0.340330	0.302228
C54	C	0.142474	0.840330	0.802228
C55	C	-0.363494	0.373108	0.358662
C56	C	0.136506	0.873108	0.858662
C57	C	-0.363508	0.438542	0.358640
C58	C	0.136492	0.938542	0.858640
C59	C	-0.357553	0.471198	0.302179
C60	C	0.142447	0.971198	0.802179
C61	C	-0.405067	0.236671	0.342269
C62	C	0.094933	0.736671	0.842269
C63	C	-0.405044	0.171234	0.342298
C64	C	0.094956	0.671234	0.842298
C65	C	-0.309911	0.171224	0.262291
C66	C	0.190089	0.671224	0.762291
C67	C	-0.309931	0.236659	0.262268
C68	C	0.190069	0.736659	0.762268
C69	C	-0.357513	0.269379	0.302256
C70	C	0.142487	0.769379	0.802256
C71	C	-0.550481	0.905372	0.302192
C72	C	-0.050481	1.405372	0.802192
C73	C	-0.633027	0.905397	0.302209
C74	C	-0.133027	1.405397	0.802209
C75	C	-0.832511	0.863601	0.344027
C76	C	-0.332511	1.363601	0.844027
C77	C	-0.881943	0.848322	0.286848
C78	C	-0.381943	1.348322	0.786848
C79	C	-0.784157	0.905459	0.302217
C80	C	-0.284157	1.405459	0.802217
C81	C	-0.881806	0.920768	0.359402
C82	C	-0.381806	1.420768	0.859402
C83	C	-0.930142	0.905517	0.302230
C84	C	-0.430142	1.405517	0.802230
C85	C	-0.832503	0.890151	0.245009
C86	C	-0.332503	1.390151	0.745009
C87	C	-0.832361	0.962623	0.317601
C88	C	-0.332361	1.462623	0.817601
C89	C	-0.881772	0.947366	0.260383
C90	C	-0.381772	1.447366	0.760383
C91	C	-0.700059	0.905424	0.302211
C92	C	-0.200059	1.405424	0.802211
C93	C	-1.014239	0.905552	0.302230
C94	C	-0.514239	1.405552	0.802230
C95	C	-0.163823	0.905541	0.302227
C96	C	0.336177	1.405541	0.802227
C97	C	-0.081278	0.905581	0.302237
C98	C	0.418722	1.405581	0.802237
C99	C	-0.357514	0.905500	0.465626
C100	C	0.142486	1.405500	0.965626
C101	C	-0.357508	0.905522	0.535268
C102	C	0.142492	1.405522	1.035268
C103	C	-0.357490	1.068871	0.302276
C104	C	0.142510	1.568871	0.802276
C105	C	-0.357474	1.138513	0.302307
C106	C	0.142526	1.638513	0.802307
C107	C	-0.357490	0.905432	0.139415
C108	C	0.142510	1.405432	0.639415
C109	C	-0.357288	0.905531	0.069774
C110	C	0.142712	1.405531	0.569774
C111	C	-0.309997	0.945617	0.568006
C112	C	0.190003	1.445617	1.068006
C113	C	-0.309965	0.945616	0.633441
C114	C	0.190035	1.445616	1.133441
C115	C	-0.357457	0.905527	0.666136
C116	C	0.142543	1.405527	1.166136
C117	C	-0.404971	0.865425	0.633390
C118	C	0.095029	1.365425	1.133390
C119	C	-0.404996	0.865422	0.567956
C120	C	0.095004	1.365422	1.067956
C121	C	-0.424328	0.900554	0.769805
C122	C	0.075672	1.400554	1.269805
C123	C	-0.424304	0.900560	0.835238
C124	C	0.075696	1.400560	1.335238
C125	C	-0.357379	0.905531	0.867957
C126	C	0.142621	1.405531	1.367957
C127	C	-0.290475	0.910508	0.835234
C128	C	0.209525	1.410508	1.335234
C129	C	-0.290501	0.910505	0.769800
C130	C	0.209499	1.410505	1.269800
C131	C	-0.357435	0.905525	0.737088
C132	C	0.142565	1.405525	1.237088
C133	C	-0.309829	0.945627	0.971647
C134	C	0.190171	1.445627	1.471647
C135	C	-0.309796	0.945621	1.037084
C136	C	0.190204	1.445621	1.537084
C137	C	-0.404809	0.865434	1.037032
C138	C	0.095191	1.365434	1.537032
C139	C	-0.404835	0.865436	0.971596
C140	C	0.095165	1.365436	1.471596
C141	C	-0.357347	0.905535	0.938908
C142	C	0.142653	1.405535	1.438908
H143	H	-0.443870	0.548242	0.374731
H144	H	0.056130	1.048242	0.874731
Br145	Br	-0.469587	0.126845	0.396604
Br146	Br	0.030413	0.626845	0.896604
H147	H	-0.236026	0.914556	0.743160
H148	H	0.263974	1.414556	1.243160
Br149	Br	-0.917598	1.006411	0.201398
Br150	Br	-0.417598	1.506411	0.701398
H151	H	-0.271291	0.666929	0.229547
H152	H	0.228709	1.166929	0.729547
Br153	Br	-0.796562	0.868518	0.164389
Br154	Br	-0.296562	1.368518	0.664389
H155	H	-0.443637	0.832782	0.660014
H156	H	0.056363	1.332782	1.160014
H157	H	-0.271177	0.144579	0.229733
H158	H	0.228823	0.644579	0.729733
H159	H	-0.368366	0.465228	0.404590
H160	H	0.131634	0.965228	0.904590
Br161	Br	-0.796036	1.043133	0.339313
Br162	Br	-0.296036	1.543133	0.839313
Br163	Br	-0.796455	0.804519	0.402876
Br164	Br	-0.296455	1.304519	0.902876
H165	H	-0.903463	0.933693	0.407758
H166	H	-0.403463	1.433693	0.907758
H167	H	-0.271327	0.978268	0.541395
H168	H	0.228673	1.478268	1.041395
H169	H	-0.478780	0.896512	0.861876
H170	H	0.021220	1.396512	1.361876
H171	H	-0.271272	0.978264	0.660102
H172	H	0.228728	1.478264	1.160102
Br173	Br	-0.199642	0.917259	0.879629
Br174	Br	0.300358	1.417259	1.379629
Br175	Br	-0.245380	1.000044	0.927281
Br176	Br	0.254620	1.500044	1.427281
Br177	Br	-0.371558	0.328789	0.435284
Br178	Br	0.128442	0.828789	0.935284
Br179	Br	-0.245323	1.000050	1.081516
Br180	Br	0.254677	1.500050	1.581516
H181	H	-0.443470	0.832786	1.063651
H182	H	0.056530	1.332786	1.563651
H183	H	-0.346749	0.465014	0.199778
H184	H	0.153251	0.965014	0.699778
H185	H	-0.443528	0.832790	0.944941
H186	H	0.056472	1.332790	1.444941
H187	H	-0.271208	0.263290	0.229686
H188	H	0.228792	0.763290	0.729686
Br189	Br	-0.515165	0.893826	0.725408
Br190	Br	-0.015165	1.393826	1.225408
H191	H	-0.443684	0.832770	0.541301
H192	H	0.056316	1.332770	1.041301
H193	H	-0.443905	0.666948	0.374684
H194	H	0.056095	1.166948	0.874684
Br195	Br	-0.469637	0.281080	0.396539
Br196	Br	0.030363	0.781080	0.896539
H197	H	-0.346728	0.346310	0.199822
H198	H	0.153272	0.846310	0.699822
H199	H	-0.271275	0.548216	0.229589
H200	H	0.228725	1.048216	0.729589
H201	H	-0.903738	0.800008	0.273849
H202	H	-0.403738	1.300008	0.773849
