data_functionalizedCrystal
_audit_creation_method	'MofGen! by Chris Wilmer'
_symmetry_space_group_name_H-M	'P1'
_symmetry_Int_Tables_number	1
_symmetry_cell_setting	triclinic
loop_
_symmetry_equiv_pos_as_xyz
  x,y,z
_cell_length_a	10.723023
_cell_length_b	10.723024
_cell_length_c	9.798715
_cell_angle_alpha	90.002227
_cell_angle_beta	89.996758
_cell_angle_gamma	95.532291
loop_
_atom_site_label
_atom_site_type_symbol
_atom_site_fract_x
_atom_site_fract_y
_atom_site_fract_z
O1	O	1.657188	-0.175020	-0.113473
O2	O	1.294035	-0.191775	-0.113479
O3	O	1.483988	-0.001821	-0.113471
O4	O	1.467235	-0.364974	-0.113481
O5	O	1.483974	-0.001820	0.113511
O6	O	1.294021	-0.191773	0.113503
O7	O	1.657174	-0.175019	0.113509
Zn8	Zn	1.475595	-0.183396	0.149544
Zn9	Zn	1.475614	-0.183398	-0.149514
O10	O	1.467221	-0.364972	0.113501
C11	C	1.247529	-0.190555	0.000012
C12	C	1.108974	-0.186908	0.000010
C13	C	1.047195	-0.185281	0.117592
C14	C	0.903992	-0.181511	0.117593
C15	C	1.482762	0.044679	0.000019
C16	C	1.479114	0.183233	0.000014
C17	C	1.703680	-0.176239	0.000015
C18	C	1.842235	-0.179886	0.000009
N19	N	1.475592	-0.183394	0.353644
C20	C	1.468447	-0.411473	0.000009
C21	C	1.472095	-0.550027	0.000004
C22	C	1.585402	0.258216	0.000013
C23	C	1.581634	0.401420	0.000008
N24	N	1.475627	-0.183390	-0.353614
C25	C	1.548357	-0.255755	0.421421
C26	C	1.548376	-0.255753	0.578584
H27	H	1.100322	-0.186672	0.218258
H28	H	1.413313	-0.121439	0.411970
F29	F	1.039543	-0.185071	-0.131574
F30	F	0.834552	-0.179692	0.249176
H31	H	1.679188	0.216394	0.000023
H32	H	1.385328	0.225055	0.000003
F33	F	1.629773	-0.336727	0.345192
F34	F	0.911664	-0.181723	-0.131581
F35	F	1.629799	-0.336738	0.654763
H36	H	1.672625	0.465852	0.000014
H37	H	1.381099	0.385548	0.000014
H38	H	1.413321	-0.121442	0.588108
