data_functionalizedCrystal
_audit_creation_method	'MofGen! by Chris Wilmer'
_symmetry_space_group_name_H-M	'P1'
_symmetry_Int_Tables_number	1
_symmetry_cell_setting	triclinic
loop_
_symmetry_equiv_pos_as_xyz
  x,y,z
_cell_length_a	8.497374
_cell_length_b	8.497374
_cell_length_c	21.295418
_cell_angle_alpha	90.022758
_cell_angle_beta	89.983088
_cell_angle_gamma	90.005237
loop_
_atom_site_label
_atom_site_type_symbol
_atom_site_fract_x
_atom_site_fract_y
_atom_site_fract_z
Zn1	Zn	0.627664	0.892992	0.962354
Zn2	Zn	0.891409	0.629257	0.962349
Zn3	Zn	0.627710	0.629122	0.857116
Zn4	Zn	0.891468	0.892892	0.857101
O5	O	0.759563	0.761066	0.909730
O6	O	0.662606	0.858105	1.050443
O7	O	0.856424	0.408477	0.948394
O8	O	0.406941	0.664110	0.871084
O9	O	0.856379	0.664340	1.050439
O10	O	0.406907	0.857974	0.948402
O11	O	0.662685	0.408378	0.871079
O12	O	0.662742	0.664013	0.769024
O13	O	0.856479	1.113667	0.871058
O14	O	0.856524	0.857804	0.769013
O15	O	0.662663	1.113741	0.948388
O16	O	1.112180	0.664244	0.948379
O17	O	1.112223	0.857935	0.871054
C18	C	0.759646	0.760884	0.746178
C19	C	0.759719	0.760844	0.676210
C20	C	1.169443	0.761088	0.909722
C21	C	1.348087	0.761063	0.909739
C22	C	0.759565	1.172546	0.909725
C23	C	0.759582	1.351190	0.909726
C24	C	0.860755	0.861600	0.643354
C25	C	0.860716	0.861671	0.577612
C26	C	0.759658	0.760957	0.544727
C27	C	0.658603	0.660194	0.577591
C28	C	0.658633	0.660138	0.643333
N29	N	0.747296	0.622972	0.441469
N30	N	0.747276	0.623030	0.379018
C31	C	0.759558	0.761125	0.346653
N32	N	0.771891	0.899161	0.379099
N33	N	0.771919	0.899101	0.441556
C34	C	0.759613	0.761008	0.473442
C35	C	0.860557	0.861966	0.242511
C36	C	0.860507	0.862039	0.176768
C37	C	0.658401	0.660549	0.176749
C38	C	0.658443	0.660490	0.242491
C39	C	0.759529	0.761196	0.275369
C40	C	0.759481	0.761249	1.073920
C41	C	0.759446	0.761327	1.143888
H42	H	0.943065	0.943605	0.670119
H43	H	0.576317	0.578196	0.550813
O44	O	0.560440	0.562101	0.675155
C45	C	0.359912	0.362327	0.668198
C46	C	0.471056	0.473251	0.632080
H47	H	0.287593	0.290487	0.633389
H48	H	0.432155	0.279596	0.698918
H49	H	0.277625	0.434874	0.699035
H50	H	0.553366	0.400831	0.601210
H51	H	0.398715	0.555987	0.601401
H52	H	0.942991	0.943724	0.550855
O53	O	0.958781	0.959951	0.274356
C54	C	1.159287	1.159751	0.267438
C55	C	1.048108	1.048888	0.231299
H56	H	1.231560	1.231662	0.232642
H57	H	1.087074	1.242420	0.298239
H58	H	1.241616	1.087152	0.298194
H59	H	0.965757	1.121360	0.200508
H60	H	1.120418	0.966215	0.200537
H61	H	0.942780	0.944097	0.150017
O62	O	0.560528	0.562520	0.274479
C63	C	0.539015	0.349427	0.348613
C64	C	0.650090	0.460304	0.312438
H65	H	0.611383	0.266735	0.379301
H66	H	0.456678	0.421861	0.379472
H67	H	0.466744	0.277527	0.313807
H68	H	0.722463	0.532227	0.347199
H69	H	0.732323	0.387780	0.281569
O70	O	0.560418	0.562727	0.144716
C71	C	0.470816	0.473499	0.043429
C72	C	0.581870	0.584358	0.079631
H73	H	0.488097	0.490973	-0.009198
H74	H	0.498381	0.346223	0.056276
H75	H	0.343657	0.501309	0.056415
H76	H	0.709066	0.556690	0.066665
H77	H	0.554169	0.711601	0.066782
