data_functionalizedCrystal
_audit_creation_method	'MofGen! by Chris Wilmer'
_symmetry_space_group_name_H-M	'P1'
_symmetry_Int_Tables_number	1
_symmetry_cell_setting	triclinic
loop_
_symmetry_equiv_pos_as_xyz
  x,y,z
_cell_length_a	19.077105
_cell_length_b	13.032721
_cell_length_c	19.076919
_cell_angle_alpha	99.138159
_cell_angle_beta	90.076224
_cell_angle_gamma	95.201395
loop_
_atom_site_label
_atom_site_type_symbol
_atom_site_fract_x
_atom_site_fract_y
_atom_site_fract_z
Zn1	Zn	1.013397	-0.505360	-0.481832
Zn2	Zn	1.003124	-0.673317	-0.378090
Zn3	Zn	0.901858	-0.491366	-0.358479
Zn4	Zn	0.881001	-0.672687	-0.490791
O5	O	0.949845	-0.585683	-0.427298
O6	O	1.109823	-0.533760	-0.472529
O7	O	0.994119	-0.643588	-0.276699
O8	O	0.929682	-0.347048	-0.362886
O9	O	1.102275	-0.657157	-0.396309
O10	O	1.011630	-0.357329	-0.453513
O11	O	0.919720	-0.509909	-0.262291
O12	O	0.801303	-0.509299	-0.371572
O13	O	0.894135	-0.656084	-0.588392
O14	O	0.785980	-0.642515	-0.468781
O15	O	0.991406	-0.533149	-0.581810
O16	O	0.973896	-0.819408	-0.404996
O17	O	0.884173	-0.818945	-0.487797
C18	C	0.768286	-0.574321	-0.419021
C19	C	0.690611	-0.569486	-0.415499
C20	C	0.925675	-0.857080	-0.449513
C21	C	0.915397	-0.973191	-0.459043
C22	C	0.646154	-0.636670	-0.464393
C23	C	0.573171	-0.632114	-0.461086
C24	C	0.544646	-0.560378	-0.408881
C25	C	0.589109	-0.493187	-0.359985
C26	C	0.662091	-0.497739	-0.363296
C27	C	0.327230	-0.539312	-0.393562
C28	C	0.254242	-0.534767	-0.390254
C29	C	0.238309	-0.673693	-0.491357
C30	C	0.311292	-0.678243	-0.494660
C31	C	0.355749	-0.611048	-0.445766
N32	N	0.470046	-0.555721	-0.405499
N33	N	0.430348	-0.615700	-0.449153
C34	C	0.955245	-1.025155	-0.422357
C35	C	0.944623	-1.145161	-0.432206
C36	C	1.132113	-0.597090	-0.435607
C37	C	1.209785	-0.601951	-0.439148
C38	C	0.941590	-0.596107	-0.611432
C39	C	0.938072	-0.600549	-0.689899
C40	C	0.974128	-0.313227	-0.405012
C41	C	0.984476	-0.197123	-0.395516
C42	C	0.987061	-0.538633	-0.723338
C43	C	0.983747	-0.542803	-0.797065
C44	C	0.931448	-0.608894	-0.837354
C45	C	0.882454	-0.670812	-0.803910
C46	C	0.885765	-0.666637	-0.730183
C47	C	0.916112	-0.628240	-1.058220
C48	C	0.912806	-0.632414	-1.131952
C49	C	1.014098	-0.504402	-1.125102
C50	C	1.017407	-0.500237	-1.051375
C51	C	0.968412	-0.562151	-1.017937
N52	N	0.928061	-0.613160	-0.912715
N53	N	0.971796	-0.557879	-0.942576
C54	C	0.958115	-0.575226	-0.243875
C55	C	0.961794	-0.570498	-0.165391
H56	H	0.669372	-0.695088	-0.506902
Cl57	Cl	0.218384	-0.444585	-0.324616
H58	H	0.202105	-0.728397	-0.531164
Cl59	Cl	0.347146	-0.768431	-0.560290
Cl60	Cl	0.383109	-0.454835	-0.332097
Cl61	Cl	0.553250	-0.402998	-0.294360
Cl62	Cl	1.075686	-0.426568	-1.167142
Cl63	Cl	0.717981	-0.413273	-0.301828
H64	H	0.997225	-0.980802	-0.383660
Cl65	Cl	0.879811	-1.213630	-0.491964
Cl66	Cl	0.850588	-1.041664	-0.518798
Cl67	Cl	0.517285	-0.716578	-0.522556
H68	H	0.845867	-0.717044	-0.702958
H69	H	1.029650	-0.484818	-0.690541
H70	H	1.026460	-1.152773	-0.356816
Cl71	Cl	1.045363	-0.465010	-0.839104
H72	H	1.059997	-0.446421	-1.018577
Cl73	Cl	0.847050	-0.715500	-1.182599
H74	H	0.876225	-0.678671	-1.031006
H75	H	0.839869	-0.724621	-0.836718
