data_functionalizedCrystal
_audit_creation_method	'MofGen! by Chris Wilmer'
_symmetry_space_group_name_H-M	'P1'
_symmetry_Int_Tables_number	1
_symmetry_cell_setting	triclinic
loop_
_symmetry_equiv_pos_as_xyz
  x,y,z
_cell_length_a	14.446369
_cell_length_b	14.446369
_cell_length_c	14.446369
_cell_angle_alpha	59.995450
_cell_angle_beta	89.997744
_cell_angle_gamma	60.001474
loop_
_atom_site_label
_atom_site_type_symbol
_atom_site_fract_x
_atom_site_fract_y
_atom_site_fract_z
Zr1	Zr	0.891736	1.013282	-0.121570
O2	O	0.743933	1.206404	-0.269381
O3	O	0.937045	0.820163	-0.076252
O4	O	0.937043	1.013292	-0.269382
O5	O	0.743937	1.013266	0.076085
O6	O	1.089373	1.013298	-0.269389
O7	O	0.743934	1.013274	-0.076252
O8	O	1.089376	0.667824	0.076084
O9	O	0.743934	1.358740	-0.269388
O10	O	1.070052	0.899599	-0.056938
O11	O	0.956372	0.899589	0.056755
O12	O	0.956370	1.126974	-0.170630
O13	O	0.842689	1.126963	-0.056937
Zr14	Zr	1.134689	1.013278	0.121378
Zr15	Zr	1.134685	1.013292	-0.121582
Zr16	Zr	0.891741	1.013269	0.121390
Zr17	Zr	0.891738	1.256240	-0.121582
Zr18	Zr	1.134687	0.770320	0.121389
O19	O	1.089381	1.206398	0.076060
O20	O	1.089375	1.206417	-0.269398
O21	O	0.743939	1.206385	0.076077
O22	O	1.282493	0.820157	0.269189
O23	O	1.282487	0.820176	-0.076269
O24	O	0.937051	0.820144	0.269206
O25	O	1.282488	1.013295	-0.076278
O26	O	1.089383	1.013269	0.269189
O27	O	0.937053	1.013263	0.269197
O28	O	1.282491	1.013287	0.076059
O29	O	0.937046	1.358747	-0.269398
O30	O	1.089380	0.667814	0.269205
O31	O	1.282491	0.667821	0.269196
O32	O	1.282488	0.667832	0.076075
O33	O	0.743938	1.358729	-0.076267
O34	O	0.937049	1.358737	-0.076277
O35	O	1.070056	0.899587	0.170437
O36	O	1.183736	0.899597	0.056744
O37	O	1.070054	1.126972	-0.056948
O38	O	0.956374	1.126962	0.056745
C39	C	1.013210	0.709377	-0.000082
C40	C	1.013209	0.606235	-0.000078
C41	C	0.941854	0.459219	0.071957
C42	C	0.941467	0.566839	0.071666
C43	C	0.960903	0.655236	-0.123617
C44	C	0.960367	0.548003	-0.123243
C45	C	1.136920	0.372779	0.050364
C46	C	1.136739	0.478930	0.052885
C47	C	0.709321	1.013269	-0.000081
C48	C	0.606183	1.013265	-0.000076
C49	C	0.638603	0.869845	0.071632
C50	C	0.531348	0.869794	0.071295
C51	C	0.423389	1.084941	-0.123679
C52	C	0.531180	1.083987	-0.123263
C53	C	0.530224	1.086082	0.050775
C54	C	0.424235	1.083418	0.053247
C55	C	1.317105	1.013292	-0.000111
C56	C	1.420243	1.013296	-0.000116
C57	C	1.013207	1.013297	-0.304002
C58	C	1.013205	1.013303	-0.407145
C59	C	1.013215	1.317184	-0.000110
C60	C	1.013216	1.420326	-0.000115
C61	C	0.941160	1.156693	-0.625517
C62	C	0.941464	1.156790	-0.518285
C63	C	1.136733	0.942076	-0.410472
C64	C	1.136345	0.942986	-0.518241
C65	C	0.962746	0.940026	-0.516868
C66	C	0.960239	0.942729	-0.410899
C67	C	1.013218	1.013264	0.303810
C68	C	1.013220	1.013258	0.406953
C69	C	1.317102	0.709389	-0.000097
C70	C	1.420239	0.606251	-0.000098
C71	C	1.013216	0.709360	0.303824
C72	C	1.013216	0.606213	0.406971
C73	C	1.317107	0.709372	0.303809
C74	C	1.420247	0.606228	0.406951
C75	C	0.709318	1.317189	-0.304001
C76	C	0.606179	1.420333	-0.407144
C77	C	0.709324	1.317172	-0.000095
C78	C	0.606186	1.420310	-0.000095
C79	C	1.013210	1.317200	-0.304016
C80	C	1.013209	1.420348	-0.407164
C81	C	1.638598	0.459942	0.071226
C82	C	1.531372	0.566860	0.071638
C83	C	1.423567	0.479389	0.052207
C84	C	1.531330	0.372016	0.052720
C85	C	1.529955	0.547005	-0.123848
C86	C	1.423992	0.655473	-0.123643
C87	C	0.941171	0.459887	0.481968
C88	C	0.941474	0.566820	0.374629
C89	C	1.136744	0.479356	0.481529
C90	C	1.136358	0.371970	0.588398
C91	C	0.962760	0.546936	0.589985
C92	C	0.960252	0.655417	0.481303
C93	C	1.495232	0.459877	0.625323
C94	C	1.387902	0.566823	0.518092
C95	C	1.494786	0.479382	0.410265
C96	C	1.601646	0.371982	0.518033
C97	C	1.603262	0.546927	0.516686
C98	C	1.494589	0.655421	0.410718
H99	H	1.190340	0.346809	-0.001881
H100	H	0.345137	1.190468	-0.179462
Br101	Br	0.998955	1.250077	-0.717173
Br102	Br	0.808647	0.615827	-0.190596
Br103	Br	0.810631	0.809086	-0.191438
Br104	Br	0.999819	0.504393	0.284964
Br105	Br	1.733620	0.505612	0.470930
Br106	Br	1.408757	0.415132	0.406698
H107	H	1.344836	0.687599	-0.181290
H108	H	0.869234	0.994663	-0.411416
Br109	Br	1.297458	0.715734	0.520796
H110	H	0.850219	0.655638	0.036671
Br111	Br	1.610152	0.612850	0.600069
Br112	Br	1.535465	0.504415	0.223741
Br113	Br	1.038619	0.768247	-0.278957
Br114	Br	1.204558	1.024535	-0.406920
Br115	Br	1.486915	0.322082	-0.028320
Br116	Br	1.203700	0.220707	0.587949
H117	H	0.421081	1.035799	-0.164656
H118	H	1.581676	0.281257	0.143749
H119	H	1.601364	0.281230	0.568370
Br120	Br	0.292354	1.257870	-0.024705
Br121	Br	1.232832	0.514768	-0.025507
H122	H	1.192967	0.342011	0.666981
Br123	Br	0.425489	0.996229	0.205034
Br124	Br	0.613840	1.009014	0.200197
H125	H	0.502809	1.191734	-0.001203
Br126	Br	0.789862	1.249813	-0.520911
H127	H	1.680225	0.342025	0.491376
H128	H	0.849964	1.212982	-0.679467
Br129	Br	0.999808	1.250544	-0.522377
Br130	Br	1.408915	0.806227	0.411605
Br131	Br	0.808554	0.806213	0.395618
Br132	Br	1.537132	0.708982	0.278779
H133	H	1.014983	0.834361	-0.489418
H134	H	1.345302	0.501635	0.002732
Br135	Br	1.728525	0.522027	0.013044
Br136	Br	1.041417	0.511373	-0.217588
H137	H	1.175815	0.439325	0.143897
H138	H	1.176751	0.993611	-0.568590
H139	H	1.192952	0.837750	-0.491585
H140	H	1.192751	0.836574	-0.332202
H141	H	1.502507	0.522217	-0.177274
Br142	Br	1.209735	0.216570	0.199680
Br143	Br	1.730227	0.310493	0.222410
H144	H	0.533091	0.813609	0.162271
H145	H	0.692701	0.813231	0.162854
H146	H	0.581365	1.033673	-0.163941
H147	H	1.334104	0.529370	0.520541
H148	H	1.007282	0.687543	0.506823
Br149	Br	0.729970	0.776968	0.013354
Br150	Br	0.813445	0.612884	0.596856
Br151	Br	1.420017	0.415104	0.202498
Br152	Br	1.493492	0.310433	0.716970
Br153	Br	0.535171	0.776541	0.012490
H154	H	0.976553	0.530125	0.162636
Br155	Br	1.230120	0.516426	0.526918
H156	H	1.010383	0.684026	-0.179637
Br157	Br	0.813435	1.016516	-0.600238
H158	H	1.532986	0.656213	0.036557
H159	H	0.976755	0.370347	0.163153
Br160	Br	1.613311	0.612981	-0.196675
Br161	Br	1.424846	0.806309	-0.188779
H162	H	1.522021	0.501637	0.331998
Br163	Br	0.789865	0.715746	0.284166
Br164	Br	1.491355	0.521913	0.715280
Br165	Br	1.204567	0.415092	0.395515
H166	H	1.014997	0.522142	0.668202
H167	H	0.851145	0.494980	0.037255
H168	H	0.504547	1.189239	-0.179518
H169	H	0.849977	0.497123	0.479636
H170	H	0.975854	0.370223	0.480935
