data_functionalizedCrystal
_audit_creation_method	'MofGen! by Chris Wilmer'
_symmetry_space_group_name_H-M	'P1'
_symmetry_Int_Tables_number	1
_symmetry_cell_setting	triclinic
loop_
_symmetry_equiv_pos_as_xyz
  x,y,z
_cell_length_a	17.699077
_cell_length_b	11.792254
_cell_length_c	16.776229
_cell_angle_alpha	89.993192
_cell_angle_beta	89.993415
_cell_angle_gamma	83.739587
loop_
_atom_site_label
_atom_site_type_symbol
_atom_site_fract_x
_atom_site_fract_y
_atom_site_fract_z
O1	O	1.004851	0.143494	-0.066278
O2	O	0.784572	0.162174	-0.066282
O3	O	0.900052	-0.012400	-0.066274
O4	O	0.889370	0.318067	-0.066286
O5	O	0.900036	-0.012411	0.066302
O6	O	0.784556	0.162163	0.066295
O7	O	1.004835	0.143483	0.066299
Zn8	Zn	0.894693	0.152821	0.087346
Zn9	Zn	0.894714	0.152835	-0.087329
O10	O	0.889355	0.318057	0.066291
C11	C	0.756363	0.161500	0.000006
C12	C	0.672334	0.159496	0.000004
C13	C	0.899371	-0.054688	0.000014
C14	C	0.897357	-0.180677	0.000013
C15	C	0.632853	0.158545	0.072273
C16	C	0.553901	0.156644	0.072274
C17	C	0.514429	0.155700	0.000005
C18	C	0.553916	0.156648	-0.072268
C19	C	0.632868	0.158541	-0.072269
C20	C	0.235512	0.149010	-0.072270
C21	C	0.156554	0.147120	-0.072264
C22	C	0.156544	0.147112	0.072273
C23	C	0.235496	0.149006	0.072272
C24	C	0.274977	0.149947	-0.000001
C25	C	0.360586	0.152007	-0.000001
C26	C	0.428821	0.153649	0.000005
C27	C	0.895721	-0.282994	0.000010
C28	C	0.893675	-0.411356	0.000003
C29	C	1.033043	0.144156	0.000009
C30	C	1.117072	0.146161	0.000005
C31	C	0.890036	0.360345	0.000001
C32	C	0.892050	0.486333	-0.000003
N33	N	0.894685	0.152811	0.206557
N34	N	0.894728	0.152837	-0.206541
C35	C	0.945835	0.075541	0.248278
C36	C	0.945839	0.075540	0.331730
C37	C	0.894696	0.152815	0.373460
C38	C	0.843540	0.230089	0.331734
C39	C	0.843533	0.230083	0.248283
C40	C	0.843568	0.230111	0.668281
C41	C	0.843581	0.230113	0.751737
C42	C	0.945874	0.075568	0.751728
C43	C	0.945867	0.075563	0.668277
C44	C	0.894709	0.152831	0.626558
C45	C	0.894704	0.152830	0.536070
C46	C	0.894704	0.152823	0.463947
H47	H	0.664984	0.159322	0.131122
H48	H	0.521760	0.155851	0.131122
H49	H	0.801931	0.293041	0.785713
H50	H	0.987515	0.012642	0.634303
C51	C	0.140345	0.048998	0.195487
C52	C	0.113149	0.146064	0.151721
H53	H	0.113559	0.048359	0.244535
H54	H	0.132905	-0.017459	0.165799
H55	H	0.193015	0.050277	0.205819
H56	H	0.060480	0.144780	0.141384
H57	H	0.120582	0.212537	0.181416
C58	C	0.961573	-0.079003	0.154490
C59	C	1.002035	-0.009456	0.202431
H60	H	0.996264	-0.131491	0.126191
H61	H	0.929892	-0.119708	0.187072
H62	H	0.931132	-0.032974	0.117683
H63	H	1.032472	-0.055485	0.239242
H64	H	1.033729	0.031251	0.169846
C65	C	0.332407	0.053616	-0.156125
C66	C	0.278904	0.150056	-0.151710
H67	H	0.359194	0.054262	-0.205172
H68	H	0.367209	0.054452	-0.113090
H69	H	0.307098	-0.013273	-0.153119
H70	H	0.304213	0.216945	-0.154710
H71	H	0.244097	0.149229	-0.194756
C72	C	0.827774	0.384609	0.574435
C73	C	0.787346	0.315062	0.622433
H74	H	0.793063	0.437055	0.546127
H75	H	0.859447	0.425360	0.606981
H76	H	0.858221	0.338574	0.537637
H77	H	0.756902	0.361096	0.659236
H78	H	0.755660	0.274308	0.589885
H79	H	0.267629	0.149779	0.131121
C80	C	0.164492	0.147292	-0.215145
C81	C	0.113166	0.146073	-0.151708
H82	H	0.137705	0.146640	-0.264186
H83	H	0.189785	0.214183	-0.212150
H84	H	0.200788	0.081865	-0.212128
H85	H	0.076874	0.211504	-0.154721
H86	H	0.087861	0.079174	-0.154705
H87	H	0.801880	0.293003	0.214315
H88	H	0.521773	0.155872	-0.131111
H89	H	0.665012	0.159317	-0.131117
H90	H	0.801895	0.293004	0.365715
H91	H	0.987489	0.012621	0.365698
H92	H	0.987528	0.012648	0.785704
