data_functionalizedCrystal
_audit_creation_method	'MofGen! by Chris Wilmer'
_symmetry_space_group_name_H-M	'P1'
_symmetry_Int_Tables_number	1
_symmetry_cell_setting	triclinic
loop_
_symmetry_equiv_pos_as_xyz
  x,y,z
_cell_length_a	19.077105
_cell_length_b	18.215405
_cell_length_c	18.215399
_cell_angle_alpha	90.030551
_cell_angle_beta	87.683200
_cell_angle_gamma	92.278881
loop_
_atom_site_label
_atom_site_type_symbol
_atom_site_fract_x
_atom_site_fract_y
_atom_site_fract_z
Zn1	Zn	1.075983	0.338265	-0.461243
Zn2	Zn	1.075896	0.461333	-0.338167
Zn3	Zn	0.958286	0.333336	-0.333253
Zn4	Zn	0.958253	0.456341	-0.456257
O5	O	1.017104	0.397319	-0.397230
O6	O	1.174463	0.358742	-0.449060
O7	O	1.060272	0.444380	-0.234530
O8	O	0.973949	0.231008	-0.350261
O9	O	1.174398	0.449160	-0.358637
O10	O	1.060421	0.234629	-0.444295
O11	O	0.973864	0.350341	-0.230919
O12	O	0.859790	0.345501	-0.345426
O13	O	0.973893	0.440652	-0.559904
O14	O	0.859766	0.435872	-0.435797
O15	O	1.060389	0.353902	-0.563567
O16	O	1.060240	0.563653	-0.353802
O17	O	0.973808	0.559985	-0.440562
C18	C	0.834241	0.389610	-0.389537
C19	C	0.756011	0.386331	-0.386264
C20	C	1.017030	0.588522	-0.397192
C21	C	1.017063	0.670322	-0.397202
C22	C	1.017147	0.397270	-0.589185
C23	C	1.017166	0.397249	-0.670985
C24	C	0.719264	0.431912	-0.431703
C25	C	0.645759	0.428820	-0.428631
C26	C	0.609002	0.380151	-0.380115
C27	C	0.645753	0.334564	-0.334674
C28	C	0.719257	0.337653	-0.337750
C29	C	0.389168	0.365857	-0.365880
C30	C	0.315659	0.362774	-0.362805
C31	C	0.315669	0.457030	-0.456763
C32	C	0.389175	0.460117	-0.459833
C33	C	0.425920	0.414528	-0.414394
N34	N	0.533867	0.376991	-0.376972
N35	N	0.501053	0.417684	-0.417542
C36	C	1.200682	0.405058	-0.404953
C37	C	1.278912	0.408356	-0.408244
C38	C	1.017198	0.205370	-0.397286
C39	C	1.017238	0.123573	-0.397309
C40	C	1.062173	0.860406	-0.352118
C41	C	1.062205	0.937266	-0.352137
C42	C	0.972126	0.933483	-0.442399
C43	C	0.972098	0.856625	-0.442383
C44	C	1.017121	0.820088	-0.397238
C45	C	1.017180	0.973807	-0.397273
C46	C	1.017214	1.057142	-0.397294
C47	C	1.017088	0.736748	-0.397218
C48	C	1.062220	0.352035	-0.861088
C49	C	1.062229	0.352014	-0.937947
C50	C	0.972161	0.442351	-0.934121
C51	C	0.972149	0.442368	-0.857263
C52	C	1.017183	0.397211	-0.820749
C53	C	1.017203	0.397173	-0.974466
C54	C	1.017212	0.397151	-1.057800
C55	C	1.017174	0.397232	-0.737409
C56	C	1.017102	0.397316	-0.206024
C57	C	1.017220	0.397135	-0.124230
H58	H	0.749187	0.471547	-0.471207
H59	H	1.098835	0.830659	-0.315359
H60	H	1.098888	0.315263	-0.831360
H61	H	0.935497	0.479118	-0.963861
H62	H	1.098892	0.970089	-0.315396
H63	H	0.419097	0.499751	-0.499338
H64	H	0.749176	0.300531	-0.300753
H65	H	1.098901	0.315226	-0.970788
H66	H	0.935470	0.479155	-0.824418
H67	H	0.935469	0.963241	-0.479154
H68	H	0.419077	0.328741	-0.328875
H69	H	0.935411	0.823796	-0.479130
H70	H	0.615843	0.465938	-0.465632
H71	H	0.285743	0.494145	-0.493758
H72	H	0.615820	0.294933	-0.295174
H73	H	0.285733	0.323133	-0.323302
