data_functionalizedCrystal
_audit_creation_method	'MofGen! by Chris Wilmer'
_symmetry_space_group_name_H-M	'P1'
_symmetry_Int_Tables_number	1
_symmetry_cell_setting	triclinic
loop_
_symmetry_equiv_pos_as_xyz
  x,y,z
_cell_length_a	16.992694
_cell_length_b	16.992695
_cell_length_c	15.455425
_cell_angle_alpha	87.186139
_cell_angle_beta	87.179027
_cell_angle_gamma	90.668223
loop_
_atom_site_label
_atom_site_type_symbol
_atom_site_fract_x
_atom_site_fract_y
_atom_site_fract_z
O1	O	-1.054114	-0.170165	0.072022
O2	O	-0.825715	-0.168335	0.072047
O3	O	-0.938998	-0.055049	0.072028
O4	O	-0.940830	-0.283450	0.072041
O5	O	-0.932452	-0.048539	-0.072232
O6	O	-0.819168	-0.161824	-0.072212
O7	O	-1.047567	-0.163654	-0.072238
Cu8	Cu	-0.932770	-0.162145	-0.085397
Cu9	Cu	-0.940512	-0.169844	0.085207
O10	O	-0.934283	-0.276940	-0.072218
C11	C	-0.793081	-0.162724	-0.000079
C12	C	-0.705597	-0.155696	-0.000070
C13	C	-0.933369	-0.022434	-0.000102
C14	C	-0.926341	0.065051	-0.000101
C15	C	-1.080200	-0.169265	-0.000109
C16	C	-1.167685	-0.176294	-0.000113
C17	C	-0.939913	-0.309555	-0.000087
C18	C	-0.946942	-0.397040	-0.000082
C19	C	-0.659607	-0.223514	-0.000066
C20	C	-0.577405	-0.216904	-0.000079
C21	C	-0.541197	-0.142476	-0.000088
C22	C	-0.587193	-0.074653	-0.000094
C23	C	-0.669393	-0.081263	-0.000088
C24	C	-0.295881	-0.115080	-0.000113
C25	C	-0.213676	-0.108476	-0.000116
C26	C	-0.203893	-0.250728	-0.000103
C27	C	-0.286095	-0.257331	-0.000091
C28	C	-0.332084	-0.189508	-0.000102
N29	N	-0.457174	-0.135718	-0.000098
N30	N	-0.416105	-0.196266	-0.000098
N31	N	-0.927330	-0.156729	-0.205390
C32	C	-0.994158	0.111042	-0.000109
C33	C	-0.987550	0.193242	-0.000100
C34	C	-0.913122	0.229450	-0.000089
C35	C	-0.845300	0.183452	-0.000078
C36	C	-0.851910	0.101253	-0.000081
C37	C	-0.885729	0.474764	-0.000074
C38	C	-0.879124	0.556969	-0.000074
C39	C	-1.021375	0.566753	-0.000094
C40	C	-1.027977	0.484552	-0.000102
C41	C	-0.960155	0.438561	-0.000087
N42	N	-0.906366	0.313472	-0.000082
N43	N	-0.966913	0.354541	-0.000087
C44	C	-0.897283	-0.126554	-0.749386
C45	C	-0.901394	-0.130679	-0.658580
C46	C	-0.954176	-0.183509	-0.613189
C47	C	-1.002856	-0.232211	-0.658610
C48	C	-0.998748	-0.228081	-0.749414
C49	C	-0.971903	-0.201301	-0.341615
C50	C	-0.976005	-0.205429	-0.250804
C51	C	-0.874543	-0.103896	-0.250781
C52	C	-0.870437	-0.099774	-0.341587
C53	C	-0.919120	-0.148473	-0.386999
N54	N	-0.958377	-0.187729	-0.520371
N55	N	-0.914922	-0.144248	-0.479816
N56	N	-0.945958	-0.175254	0.205200
H57	H	-0.689081	-0.284121	-0.000058
N58	N	-0.822049	-0.051362	-0.201801
H59	H	-0.765031	-0.062541	-0.217609
H60	H	-0.832727	-0.062016	-0.137405
H61	H	-0.557705	-0.014051	-0.000114
H62	H	-1.054764	0.081568	-0.000124
H63	H	-1.018985	-0.248455	-0.213850
H64	H	-0.861760	-0.091020	-0.621608
H65	H	-0.784700	0.212939	-0.000063
H66	H	-0.796685	0.063808	-0.000073
N67	N	-0.325144	-0.337608	-0.000097
H68	H	-0.384195	-0.331504	-0.000093
H69	H	-0.311059	-0.369928	0.053381
N70	N	-1.060695	0.242848	-0.000114
H71	H	-1.108846	0.207438	-0.000130
H72	H	-1.058617	0.279583	-0.053593
N73	N	-0.718996	-0.008113	-0.000096
H74	H	-0.709252	0.021722	0.053377
H75	H	-0.776543	-0.023653	-0.000128
N76	N	-0.174611	-0.028199	-0.000144
H77	H	-0.143143	-0.024696	0.053330
H78	H	-0.216256	0.013723	-0.000187
H79	H	-0.854298	-0.083538	-0.786336
N80	N	-0.527796	-0.290046	-0.000173
H81	H	-0.563206	-0.338197	-0.000193
H82	H	-0.495853	-0.292869	0.053270
N83	N	-1.108252	0.445501	-0.000120
H84	H	-1.150213	0.487110	-0.000124
H85	H	-1.116522	0.409190	0.053356
H86	H	-0.333316	-0.059853	-0.000122
N87	N	-1.094517	0.616363	-0.000101
H88	H	-1.129188	0.601779	0.053372
H89	H	-1.124273	0.606596	-0.053617
H90	H	-0.166440	-0.305945	-0.000096
H91	H	-0.818513	0.586447	-0.000079
N92	N	-0.813533	-0.042769	-0.390542
H93	H	-0.783329	-0.012533	-0.347993
H94	H	-0.843772	-0.004757	-0.428186
N95	N	-0.812581	0.425166	-0.000061
H96	H	-0.764431	0.460579	-0.000058
H97	H	-0.809796	0.393264	-0.053539
H98	H	-1.011544	-0.240956	-0.378579
H99	H	-1.045836	-0.275223	-0.621646
N100	N	-1.051256	-0.280598	-0.798402
H101	H	-1.085318	-0.314692	-0.755870
H102	H	-1.017644	-0.315196	-0.836099
