data_functionalizedCrystal
_audit_creation_method	'MofGen! by Chris Wilmer'
_symmetry_space_group_name_H-M	'P1'
_symmetry_Int_Tables_number	1
_symmetry_cell_setting	triclinic
loop_
_symmetry_equiv_pos_as_xyz
  x,y,z
_cell_length_a	10.540510
_cell_length_b	15.995292
_cell_length_c	15.072220
_cell_angle_alpha	90.002061
_cell_angle_beta	89.987223
_cell_angle_gamma	83.990964
loop_
_atom_site_label
_atom_site_type_symbol
_atom_site_fract_x
_atom_site_fract_y
_atom_site_fract_z
O1	O	1.684267	0.117877	-0.073781
O2	O	1.314693	0.129021	-0.073781
O3	O	1.509621	0.001618	-0.073782
O4	O	1.489339	0.245280	-0.073780
O5	O	1.509573	0.001624	0.073783
O6	O	1.314645	0.129027	0.073784
O7	O	1.684219	0.117883	0.073784
Zn8	Zn	1.499424	0.123457	0.097213
Zn9	Zn	1.499488	0.123448	-0.097210
O10	O	1.489291	0.245287	0.073785
C11	C	1.267377	0.128194	0.000001
C12	C	1.126462	0.125709	0.000001
C13	C	0.907762	0.214215	-0.000337
C14	C	1.054320	0.216866	0.000001
C15	C	1.082331	0.079050	0.084266
C16	C	0.935598	0.077045	0.084331
C17	C	0.935873	0.075139	-0.083478
C18	C	1.082154	0.079462	-0.084587
C19	C	1.508772	-0.029579	-0.000002
C20	C	1.506297	-0.122547	-0.000009
C21	C	1.497199	-0.460339	-0.000001
C22	C	1.637893	-0.436196	0.000329
C23	C	1.640567	-0.339504	-0.000007
C24	C	1.501713	-0.292757	-0.000004
C25	C	1.431401	-0.322277	-0.084268
C26	C	1.429707	-0.419078	-0.084336
C27	C	1.426779	-0.418944	0.083474
C28	C	1.431992	-0.322421	0.084584
C29	C	1.504257	-0.198045	-0.000009
C30	C	1.494651	-0.555050	-0.000002
C31	C	1.731535	0.118711	-0.000000
C32	C	1.872450	0.121195	-0.000006
C33	C	1.490141	0.276484	0.000003
C34	C	1.492615	0.369451	0.000004
N35	N	1.499390	0.123462	0.229902
N36	N	1.499532	0.123435	-0.229899
C37	C	1.499485	0.123444	0.589104
C38	C	1.394833	0.191382	0.551497
C39	C	1.395073	0.191634	0.448672
C40	C	1.499437	0.123453	0.410899
C41	C	1.631879	0.143318	0.448191
C42	C	1.631292	0.143802	0.551049
C43	C	1.472877	0.035445	0.551203
C44	C	1.469838	0.036013	0.448339
C45	C	1.499418	0.123457	0.310186
C46	C	1.499513	0.123443	0.689817
H47	H	0.914682	0.006698	-0.084049
H48	H	1.483191	-0.303550	0.146922
Br49	Br	1.422768	0.299589	0.594543
H50	H	1.132159	0.012911	-0.089676
H51	H	1.329224	-0.291013	-0.087399
Br52	Br	1.600078	-0.048836	0.591732
H53	H	1.412061	0.256920	0.424058
Br54	Br	1.732314	-0.307239	0.100684
H55	H	1.471066	-0.446768	0.147345
Br56	Br	1.510943	-0.463304	-0.189321
H57	H	1.655891	0.206792	0.422422
Br58	Br	1.254171	-0.443281	0.084425
H59	H	1.326550	-0.434238	-0.088152
H60	H	0.892942	0.103882	-0.147347
H61	H	1.082188	0.253596	0.060507
H62	H	1.654744	0.208003	0.575031
Br63	Br	0.834384	0.273078	0.099811
H64	H	1.110315	0.113411	-0.146925
Br65	Br	0.867778	0.130204	0.189315
H66	H	0.913560	0.008866	0.088158
H67	H	1.330641	-0.290050	0.089675
H68	H	1.130663	0.011942	0.087399
H69	H	1.296626	0.179683	0.423460
H70	H	0.865329	0.249726	-0.060768
Br71	Br	1.728256	-0.482317	0.101051
Br72	Br	1.727820	-0.484032	-0.099823
Br73	Br	1.132958	0.133064	0.188791
H74	H	1.296067	0.179616	0.576259
Br75	Br	1.102416	0.277710	-0.100677
H76	H	1.696000	-0.320775	-0.060516
H77	H	1.480267	-0.301931	-0.146979
Br78	Br	1.315382	0.003947	0.594489
Br79	Br	1.764854	0.064440	0.592514
H80	H	1.711613	0.095185	0.423721
Br81	Br	1.307454	0.010913	0.407721
Br82	Br	1.588645	-0.052303	0.405504
