data_functionalizedCrystal
_audit_creation_method	'MofGen! by Chris Wilmer'
_symmetry_space_group_name_H-M	'P1'
_symmetry_Int_Tables_number	1
_symmetry_cell_setting	triclinic
loop_
_symmetry_equiv_pos_as_xyz
  x,y,z
_cell_length_a	16.109302
_cell_length_b	27.732048
_cell_length_c	15.186229
_cell_angle_alpha	89.991324
_cell_angle_beta	89.994701
_cell_angle_gamma	83.052218
loop_
_atom_site_label
_atom_site_type_symbol
_atom_site_fract_x
_atom_site_fract_y
_atom_site_fract_z
O1	O	1.102361	0.062132	-0.073278
O2	O	0.860203	0.069863	-0.073272
O3	O	0.988803	-0.004368	-0.073258
O4	O	0.973761	0.136363	-0.073292
O5	O	0.988795	-0.004369	0.073199
O6	O	0.860195	0.069862	0.073185
O7	O	1.102352	0.062131	0.073179
Zn8	Zn	0.981272	0.065996	0.096436
Zn9	Zn	0.981283	0.065998	-0.096528
O10	O	0.973753	0.136362	0.073166
C11	C	0.829228	0.069550	-0.000043
C12	C	0.736944	0.068610	-0.000040
C13	C	0.524626	0.066438	0.079786
C14	C	0.437917	0.065551	0.079783
C15	C	0.437936	0.065554	-0.079893
C16	C	0.524645	0.066438	-0.079889
C17	C	0.567987	0.066883	-0.000047
C18	C	0.394569	0.065111	-0.000053
C19	C	0.300555	0.064149	-0.000057
C20	C	0.662007	0.067844	-0.000043
C21	C	0.988483	-0.022376	-0.000027
C22	C	0.987532	-0.076035	-0.000020
C23	C	1.057541	-0.414557	-0.000067
C24	C	1.054013	-0.616232	-0.000079
O25	O	1.118031	-0.647219	-0.000119
N26	N	0.977759	-0.635675	-0.000076
C27	C	0.902381	-0.604696	-0.000077
O28	O	0.837441	-0.625861	-0.000084
C29	C	0.905910	-0.403022	-0.000071
C30	C	0.982169	-0.383582	-0.000064
C31	C	1.133794	-0.395117	-0.000062
C32	C	1.134675	-0.344701	-0.000054
C33	C	1.059303	-0.313726	-0.000051
C34	C	0.983050	-0.333167	-0.000057
C35	C	0.830533	-0.372044	-0.000077
C36	C	0.831422	-0.321623	-0.000078
C37	C	0.907681	-0.302183	-0.000072
C38	C	0.908559	-0.251776	-0.000046
N39	N	0.984813	-0.232333	-0.000049
C40	C	1.060185	-0.263308	-0.000051
C41	C	0.900534	-0.710577	-0.000078
C42	C	0.899652	-0.760996	-0.000078
C43	C	1.051284	-0.772528	-0.000082
C44	C	1.052165	-0.722109	-0.000076
C45	C	0.976788	-0.691134	-0.000081
C46	C	1.062030	-0.157431	-0.000034
C47	C	1.062904	-0.107010	-0.000023
C48	C	0.911272	-0.095482	-0.000023
C49	C	0.910397	-0.145898	-0.000030
C50	C	0.985783	-0.176872	-0.000038
O51	O	0.844576	-0.220760	-0.000016
O52	O	1.125116	-0.242134	-0.000064
C53	C	1.056660	-0.464973	-0.000075
C54	C	0.980407	-0.484413	-0.000080
C55	C	0.905035	-0.453438	-0.000078
C56	C	0.979524	-0.534832	-0.000080
C57	C	1.054896	-0.565807	-0.000082
C58	C	1.131150	-0.546364	-0.000085
C59	C	1.132032	-0.495948	-0.000077
C60	C	0.828780	-0.472881	-0.000075
C61	C	0.827905	-0.523298	-0.000082
C62	C	0.903277	-0.554273	-0.000084
C63	C	1.133328	0.062444	-0.000052
C64	C	1.225611	0.063384	-0.000061
C65	C	0.974073	0.154370	-0.000067
C66	C	0.975023	0.208029	-0.000080
N67	N	0.981271	0.065995	0.228128
N68	N	0.981292	0.065995	-0.228221
C69	C	1.038234	0.033137	0.453857
C70	C	1.038236	0.033135	0.546047
C71	C	0.924323	0.098855	0.546044
C72	C	0.924317	0.098854	0.453856
C73	C	0.981277	0.065995	0.407765
C74	C	0.981285	0.065995	0.592143
C75	C	0.981288	0.065994	0.692099
C76	C	0.981274	0.065995	0.307802
H77	H	0.559950	0.066799	-0.144902
H78	H	1.194130	-0.480125	-0.000072
C79	C	1.100892	-0.003008	0.596750
C80	C	1.163551	-0.039145	0.546049
C81	C	1.226208	-0.075291	0.596752
C82	C	1.226207	-0.075298	0.698155
C83	C	1.163546	-0.039159	0.748861
C84	C	1.100889	-0.003014	0.698158
H85	H	1.163554	-0.039141	0.470979
H86	H	1.272594	-0.102043	0.559216
H87	H	1.272590	-0.102055	0.735688
H88	H	1.163543	-0.039163	0.823931
H89	H	1.054503	0.023739	0.735695
C90	C	1.146795	-0.085628	-0.000020
C91	C	1.168255	-0.052565	0.076037
C92	C	1.252143	-0.031184	0.076038
C93	C	1.314569	-0.042867	-0.000018
C94	C	1.293110	-0.075932	-0.076080
C95	C	1.209223	-0.097312	-0.076081
H96	H	1.122042	-0.043915	0.132343
H97	H	1.268028	-0.006707	0.132345
H98	H	1.376668	-0.027040	-0.000017
H99	H	1.339323	-0.084582	-0.132386
H100	H	1.193338	-0.121789	-0.132387
H101	H	0.839149	-0.685362	-0.000082
C102	C	0.861674	0.135002	0.596744
C103	C	0.861721	0.135035	0.698147
C104	C	0.799073	0.171184	0.748845
C105	C	0.736378	0.207302	0.698139
C106	C	0.736329	0.207271	0.596730
C107	C	0.798977	0.171121	0.546033
H108	H	0.908134	0.108297	0.735688
H109	H	0.799110	0.171207	0.823914
H110	H	0.690002	0.234062	0.735668
H111	H	0.689916	0.234008	0.559189
H112	H	0.798940	0.171098	0.470963
H113	H	0.402616	0.065189	0.144791
C114	C	1.134196	-0.806606	-0.000092
C115	C	1.196872	-0.804448	0.075949
C116	C	1.279778	-0.838528	0.075931
C117	C	1.300009	-0.874766	-0.000128
C118	C	1.237331	-0.876927	-0.076175
C119	C	1.154425	-0.842847	-0.076157
H120	H	1.181897	-0.777620	0.132258
H121	H	1.326176	-0.836928	0.132226
H122	H	1.361381	-0.899995	-0.000142
H123	H	1.252306	-0.903754	-0.132484
H124	H	1.108027	-0.844446	-0.132452
H125	H	0.877932	0.125611	0.416325
H126	H	0.559912	0.066800	0.144799
C127	C	1.218564	-0.323323	-0.000060
C128	C	1.240040	-0.290259	0.075989
C129	C	1.323934	-0.268887	0.075977
C130	C	1.386353	-0.280578	-0.000082
C131	C	1.364879	-0.313645	-0.076136
C132	C	1.280984	-0.335017	-0.076125
H133	H	1.193832	-0.281602	0.132298
H134	H	1.339831	-0.244409	0.132278
H135	H	1.448457	-0.264757	-0.000090
H136	H	1.411086	-0.322301	-0.132445
H137	H	1.265088	-0.359495	-0.132426
C138	C	0.390257	0.065072	-0.167715
C139	C	0.294880	0.064103	-0.167725
C140	C	0.247202	0.063622	-0.255550
C141	C	0.294901	0.064111	-0.343365
C142	C	0.390283	0.065079	-0.343359
C143	C	0.437961	0.065560	-0.255534
H144	H	0.259566	0.063741	-0.102715
H145	H	0.176594	0.062905	-0.255554
H146	H	0.259607	0.063755	-0.408378
H147	H	0.425597	0.065441	-0.408369
H148	H	0.508569	0.066277	-0.255530
C149	C	1.216713	-0.429184	-0.000060
C150	C	1.279365	-0.427005	0.075998
C151	C	1.362291	-0.461068	0.076008
C152	C	1.382564	-0.497310	-0.000039
C153	C	1.319909	-0.499490	-0.076102
C154	C	1.236984	-0.465427	-0.076112
H155	H	1.264360	-0.400176	0.132297
H156	H	1.408671	-0.459454	0.132315
H157	H	1.443950	-0.522526	-0.000032
H158	H	1.334915	-0.526320	-0.132402
H159	H	1.190603	-0.467041	-0.132420
H160	H	0.849907	-0.070253	-0.000018
C161	C	1.136051	-0.700728	-0.000077
C162	C	1.157521	-0.667650	-0.076130
C163	C	1.241410	-0.646272	-0.076134
C164	C	1.303831	-0.657972	-0.000084
C165	C	1.282363	-0.691051	0.075975
C166	C	1.198473	-0.712429	0.075979
H167	H	1.111312	-0.658987	-0.132432
H168	H	1.257302	-0.621784	-0.132439
H169	H	1.365931	-0.642147	-0.000087
H170	H	1.328571	-0.699714	0.132277
H171	H	1.182582	-0.736917	0.132283
C172	C	0.815764	-0.782375	-0.000072
C173	C	0.794292	-0.815453	0.075980
C174	C	0.710402	-0.836830	0.075981
C175	C	0.647983	-0.825129	-0.000070
C176	C	0.669454	-0.792050	-0.076128
C177	C	0.753344	-0.770673	-0.076129
H178	H	0.840500	-0.824116	0.132283
H179	H	0.694508	-0.861318	0.132285
H180	H	0.585882	-0.840954	-0.000069
H181	H	0.623246	-0.783386	-0.132430
H182	H	0.769238	-0.746185	-0.132432
H183	H	1.123416	-0.182644	-0.000044
C184	C	0.746641	-0.393416	-0.000089
C185	C	0.684205	-0.381722	0.075954
C186	C	0.600307	-0.403090	0.075940
C187	C	0.578844	-0.436152	-0.000118
C188	C	0.641282	-0.447848	-0.076167
C189	C	0.725181	-0.426479	-0.076153
H190	H	0.700092	-0.357246	0.132261
H191	H	0.554086	-0.394432	0.132237
H192	H	0.516738	-0.451970	-0.000128
H193	H	0.625396	-0.472324	-0.132474
H194	H	0.771401	-0.435137	-0.132450
H195	H	0.770039	-0.296405	-0.000083
H196	H	1.192521	-0.571593	-0.000083
C197	C	0.826517	-0.167289	-0.000032
C198	C	0.764081	-0.155614	0.076017
C199	C	0.680201	-0.177002	0.076004
C200	C	0.658756	-0.210066	-0.000060
C201	C	0.721193	-0.221742	-0.076115
C202	C	0.805074	-0.200354	-0.076102
H203	H	0.779954	-0.131137	0.132329
H204	H	0.633981	-0.168358	0.132306
H205	H	0.596663	-0.225898	-0.000070
H206	H	0.705320	-0.246219	-0.132427
H207	H	0.851294	-0.208998	-0.132403
C208	C	0.744012	-0.544676	-0.000088
C209	C	0.681575	-0.532991	0.075958
C210	C	0.597684	-0.554367	0.075943
C211	C	0.576230	-0.587429	-0.000118
C212	C	0.638667	-0.599116	-0.076170
C213	C	0.722559	-0.577740	-0.076155
H214	H	0.697456	-0.508515	0.132268
H215	H	0.551464	-0.545716	0.132242
H216	H	0.514128	-0.603253	-0.000130
H217	H	0.622787	-0.623592	-0.132480
H218	H	0.768779	-0.586392	-0.132454
C219	C	1.100882	-0.003011	0.403157
C220	C	1.164220	0.015883	0.339764
C221	C	1.226868	-0.020267	0.289067
C222	C	1.226178	-0.075310	0.301762
C223	C	1.162838	-0.094206	0.365157
C224	C	1.100190	-0.058057	0.415855
H225	H	1.164733	0.056632	0.330364
H226	H	1.273757	-0.006278	0.242138
H227	H	1.272554	-0.102070	0.264233
H228	H	1.162325	-0.134955	0.374557
H229	H	1.053301	-0.072045	0.462784
H230	H	0.767402	-0.447666	-0.000075
