data_functionalizedCrystal
_audit_creation_method	'MofGen! by Chris Wilmer'
_symmetry_space_group_name_H-M	'P1'
_symmetry_Int_Tables_number	1
_symmetry_cell_setting	triclinic
loop_
_symmetry_equiv_pos_as_xyz
  x,y,z
_cell_length_a	17.019234
_cell_length_b	11.026607
_cell_length_c	9.482900
_cell_angle_alpha	101.363848
_cell_angle_beta	95.506054
_cell_angle_gamma	84.042957
loop_
_atom_site_label
_atom_site_type_symbol
_atom_site_fract_x
_atom_site_fract_y
_atom_site_fract_z
O1	O	0.317404	-1.634713	-0.160656
O2	O	0.280172	-1.280746	-0.155994
O3	O	0.186480	-1.465392	-0.144250
O4	O	0.411097	-1.450067	-0.172400
O5	O	0.205609	-1.427888	0.095145
O6	O	0.299301	-1.243242	0.083401
O7	O	0.336533	-1.597209	0.078739
Cu8	Cu	0.319664	-1.416801	0.102928
Cu9	Cu	0.297042	-1.461154	-0.180184
O10	O	0.430225	-1.412563	0.066995
C11	C	0.282868	-1.216662	-0.035436
C12	C	0.262392	-1.081584	-0.032872
C13	C	0.166841	-1.445324	-0.020896
C14	C	0.079823	-1.441385	-0.010000
N15	N	0.335575	-1.385615	0.302054
C16	C	-0.411820	-1.417984	0.058112
C17	C	-0.330057	-1.421695	0.047881
C18	C	-0.299593	-1.444004	-0.087732
C19	C	-0.350899	-1.462590	-0.213122
C20	C	-0.432661	-1.458870	-0.202889
C21	C	-0.053245	-1.456251	-0.125157
C22	C	0.028525	-1.459974	-0.135380
C23	C	0.049361	-1.419076	0.125624
C24	C	-0.032404	-1.415365	0.135845
C25	C	-0.083703	-1.433945	0.010455
C26	C	-0.216017	-1.447802	-0.098194
C27	C	-0.167277	-1.430138	0.020918
C28	C	0.449864	-1.432633	-0.056363
C29	C	0.536881	-1.436573	-0.067268
C30	C	0.333837	-1.661295	-0.041822
C31	C	0.354312	-1.796374	-0.044396
C32	C	0.318929	-1.008783	-0.039959
C33	C	0.297767	-0.869173	-0.037308
N34	N	0.281125	-1.492350	-0.379309
C35	C	0.301730	-1.451947	0.378496
C36	C	0.314976	-1.426008	0.544253
H37	H	-0.436617	-1.399822	0.168543
O38	O	0.361145	-1.335264	0.612729
C39	C	0.315823	-1.245682	0.706443
H40	H	0.263213	-1.289309	0.735675
H41	H	0.354181	-1.210641	0.808738
H42	H	0.293427	-1.164658	0.650697
H43	H	0.242336	-1.568344	0.563429
H44	H	-0.191204	-1.465973	-0.208610
H45	H	0.374355	-1.309617	0.359323
H46	H	0.382999	-1.049811	-0.047980
O47	O	-0.280131	-1.403831	0.169565
C48	C	-0.226316	-1.509911	0.170714
H49	H	-0.221153	-1.563264	0.055626
H50	H	-0.165737	-1.480234	0.218906
H51	H	-0.248542	-1.572014	0.238539
O52	O	-0.482558	-1.477069	-0.324591
C53	C	-0.524559	-1.581293	-0.327261
H54	H	-0.525802	-1.598041	-0.212675
H55	H	-0.587790	-1.563676	-0.375147
H56	H	-0.494050	-1.666436	-0.396118
O57	O	0.221317	-0.820226	-0.027987
C58	C	0.196213	-0.766979	-0.150049
H59	H	0.234281	-0.811376	-0.242344
H60	H	0.131537	-0.783639	-0.183980
H61	H	0.202521	-0.662866	-0.122527
O62	O	-0.061866	-1.393620	0.267695
C63	C	0.000948	-1.378039	0.376168
H64	H	0.054016	-1.348252	0.330888
H65	H	-0.018703	-1.303726	0.470806
H66	H	0.018323	-1.469536	0.414526
O67	O	0.255423	-1.542495	0.310000
C68	C	0.191251	-1.489882	0.229995
H69	H	0.207332	-1.398808	0.205379
H70	H	0.177560	-1.556913	0.124589
H71	H	0.136969	-1.471381	0.295317
H72	H	0.091136	-1.403947	0.227709
O73	O	0.430768	-0.845181	-0.054177
C74	C	0.458220	-0.825639	-0.182867
H75	H	0.421360	-0.743679	-0.219995
H76	H	0.523024	-0.804935	-0.162832
H77	H	0.452474	-0.912498	-0.269834
O78	O	0.057983	-1.481602	-0.267236
C79	C	-0.004824	-1.497233	-0.375716
H80	H	-0.062214	-1.450151	-0.329904
H81	H	0.008205	-1.453671	-0.469525
H82	H	-0.011252	-1.600513	-0.415441
H83	H	-0.326089	-1.480748	-0.323541
O84	O	-0.103149	-1.474466	-0.246839
C85	C	-0.145136	-1.578691	-0.249440
H86	H	-0.146352	-1.595412	-0.134837
H87	H	-0.208376	-1.561096	-0.297293
H88	H	-0.114632	-1.663843	-0.318292
O89	O	0.185964	-1.032667	-0.023039
C90	C	0.158488	-1.052256	0.105609
H91	H	0.211114	-1.065914	0.186543
H92	H	0.117875	-0.968197	0.152730
H93	H	0.124256	-1.138493	0.081585
H94	H	-0.192084	-1.411967	0.131333
