data_functionalizedCrystal
_audit_creation_method	'MofGen! by Chris Wilmer'
_symmetry_space_group_name_H-M	'P1'
_symmetry_Int_Tables_number	1
_symmetry_cell_setting	triclinic
loop_
_symmetry_equiv_pos_as_xyz
  x,y,z
_cell_length_a	16.974885
_cell_length_b	15.944493
_cell_length_c	15.455313
_cell_angle_alpha	92.670512
_cell_angle_beta	90.969048
_cell_angle_gamma	83.433512
loop_
_atom_site_label
_atom_site_type_symbol
_atom_site_fract_x
_atom_site_fract_y
_atom_site_fract_z
O1	O	1.049049	0.107103	0.001452
O2	O	0.819617	0.119926	-0.014639
O3	O	0.940623	-0.008749	-0.006159
O4	O	0.928044	0.235778	-0.007027
O5	O	0.933703	-0.001422	0.137618
O6	O	0.812697	0.127254	0.129139
O7	O	1.042130	0.114431	0.145230
Cu8	Cu	0.926782	0.121511	0.150312
Cu9	Cu	0.934965	0.112845	-0.019721
O10	O	0.921124	0.243106	0.136750
C11	C	0.786798	0.122967	0.055191
C12	C	0.699317	0.121101	0.049055
C13	C	0.936649	-0.036382	0.065690
C14	C	0.935108	-0.129634	0.065570
C15	C	0.207306	0.110138	0.006044
C16	C	0.289503	0.111892	0.011821
C17	C	0.326821	0.116769	0.093083
C18	C	0.281938	0.119885	0.168573
C19	C	0.199744	0.118125	0.162796
C20	C	0.572241	0.122456	0.118767
C21	C	0.654441	0.124218	0.124539
C22	C	0.662000	0.116224	-0.032214
C23	C	0.579803	0.114469	-0.037984
C24	C	0.534928	0.117580	0.037506
N25	N	0.410838	0.118565	0.098990
N26	N	0.450913	0.115779	0.031598
C27	C	1.006334	-0.365228	0.070582
C28	C	0.971336	-0.419498	-0.003001
C29	C	0.932252	-0.300362	0.065381
C30	C	0.964496	-0.412250	0.138751
C31	C	0.929498	-0.465277	0.065202
C32	C	0.897276	-0.353407	-0.008259
C33	C	0.890445	-0.346152	0.133557
C34	C	0.855393	-0.400390	0.059953
C35	C	0.933840	-0.205358	0.065483
C36	C	0.927904	-0.560278	0.065093
C37	C	1.074949	0.111390	0.075398
C38	C	1.162429	0.113255	0.081528
C39	C	0.925098	0.270738	0.064899
C40	C	0.926639	0.363991	0.065013
N41	N	0.921032	0.127606	0.269905
N42	N	0.940721	0.106744	-0.139313
C43	C	0.972457	0.072961	0.318902
C44	C	0.968116	0.077577	0.409406
C45	C	0.912353	0.136845	0.450911
C46	C	0.860922	0.191493	0.401906
C47	C	0.865260	0.186871	0.311404
C48	C	0.893628	0.156770	0.721180
C49	C	0.889296	0.161390	0.811689
C50	C	0.996489	0.047473	0.819183
C51	C	1.000826	0.042860	0.728678
C52	C	0.949392	0.097505	0.679682
N53	N	0.907916	0.141567	0.543420
N54	N	0.953826	0.092778	0.587174
H55	H	0.176928	0.106172	-0.060129
C56	C	1.017499	-0.462639	-0.080998
N57	N	1.052275	-0.495132	-0.139741
C58	C	0.150379	0.121558	0.245835
N59	N	0.113199	0.124142	0.308383
H60	H	0.815514	0.239746	0.435704
C61	C	1.024669	0.017442	0.463298
N62	N	1.067261	-0.027862	0.503889
H63	H	1.070150	-0.349454	0.074986
C64	C	0.858945	-0.318706	-0.092280
N65	N	0.830078	-0.292569	-0.155564
C66	C	0.322986	0.125285	0.257963
N67	N	0.353901	0.129370	0.325293
C68	C	0.844315	-0.303003	0.211566
N69	N	0.809573	-0.270505	0.270330
H70	H	0.843884	0.209655	0.845477
C71	C	0.338865	0.108451	-0.071218
N72	N	0.376045	0.105854	-0.133768
H73	H	0.549425	0.110496	-0.104157
C74	C	0.769122	-0.421492	0.053851
N75	N	0.704143	-0.437387	0.049250
C76	C	1.002883	-0.447100	0.222682
N77	N	1.031801	-0.473346	0.285896
H78	H	0.684821	0.128196	0.190716
C79	C	1.033801	0.007761	0.273256
N80	N	1.080005	-0.041352	0.238878
H81	H	0.851750	0.201266	0.681294
C82	C	0.522886	0.125904	0.201809
N83	N	0.485708	0.128510	0.264361
C84	C	1.062165	-0.022343	0.683030
N85	N	1.108368	-0.071454	0.648648
C86	C	1.053056	-0.012639	0.873085
N87	N	1.095661	-0.057921	0.913685
H88	H	0.823383	0.231368	0.271510
H89	H	0.698546	0.113690	-0.093673
