data_functionalizedCrystal
_audit_creation_method	'MofGen! by Chris Wilmer'
_symmetry_space_group_name_H-M	'P1'
_symmetry_Int_Tables_number	1
_symmetry_cell_setting	triclinic
loop_
_symmetry_equiv_pos_as_xyz
  x,y,z
_cell_length_a	8.597249
_cell_length_b	16.053802
_cell_length_c	16.992694
_cell_angle_alpha	87.249047
_cell_angle_beta	87.973121
_cell_angle_gamma	100.303612
loop_
_atom_site_label
_atom_site_type_symbol
_atom_site_fract_x
_atom_site_fract_y
_atom_site_fract_z
O1	O	0.329030	-0.045650	1.045087
O2	O	0.325350	-0.045939	0.816788
O3	O	0.097814	-0.062293	0.936206
O4	O	0.556565	-0.029296	0.925669
O5	O	0.110284	0.077462	0.929633
O6	O	0.337819	0.093816	0.810214
O7	O	0.341499	0.094105	1.038514
Zn8	Zn	0.341639	0.116150	0.923321
Zn9	Zn	0.325210	-0.067984	0.931981
O10	O	0.569035	0.110459	0.919095
C11	C	0.326852	0.023595	0.784269
C12	C	0.312734	0.022570	0.697165
C13	C	0.045078	0.003341	0.932154
C14	C	-0.130639	-0.009303	0.929863
N15	N	0.352851	0.241816	0.917416
C16	C	0.621771	0.044823	0.923148
C17	C	0.797487	0.057462	0.925439
N18	N	0.313987	-0.193651	0.937892
C19	C	0.256073	0.278554	0.968247
C20	C	0.263932	0.366526	0.964124
C21	C	0.368577	0.417758	0.909172
C22	C	0.465359	0.381014	0.858335
C23	C	0.457491	0.293043	0.862455
C24	C	0.402900	0.681635	0.891175
C25	C	0.410764	0.769611	0.887061
C26	C	0.209334	0.755117	0.992849
C27	C	0.201482	0.667145	0.996967
C28	C	0.298258	0.630408	0.946127
N29	N	0.376616	0.507680	0.904958
N30	N	0.290210	0.540488	0.950339
C31	C	0.448949	0.032368	0.647502
C32	C	0.435676	0.031425	0.565658
C33	C	0.286185	0.020677	0.533480
C34	C	0.149960	0.010881	0.583150
C35	C	0.163236	0.011830	0.664992
C36	C	0.231164	0.016742	0.289648
C37	C	0.217899	0.015791	0.207801
C38	C	0.503616	0.036336	0.190314
C39	C	0.516878	0.037280	0.272158
C40	C	0.380653	0.027488	0.321821
N41	N	0.272614	0.019710	0.449823
N42	N	0.394226	0.028461	0.405476
C43	C	0.339996	0.024569	1.071033
C44	C	0.354114	0.025589	1.158137
H45	H	-0.129618	0.124291	0.923404
Br46	Br	0.078000	0.804977	1.061841
Br47	Br	0.607369	0.450539	0.783750
H48	H	0.536295	0.263132	0.821062
Br49	Br	-0.252137	-0.120699	0.933272
Br50	Br	0.719765	0.051856	0.315823
H51	H	0.120240	0.008769	0.330074
H52	H	0.614523	0.044310	0.149871
H53	H	0.185127	0.396437	1.005515
Br54	Br	0.114059	0.209034	1.042834
Br55	Br	0.059470	0.597615	1.071548
Br56	Br	0.552803	0.839137	0.812480
Br57	Br	0.651838	0.046945	0.691164
Br58	Br	0.534237	0.631782	0.822182
H59	H	0.546597	0.039402	0.525225
Br60	Br	0.015007	0.001222	0.164130
Br61	Br	-0.052922	-0.003697	0.539481
H62	H	0.052314	0.003851	0.705428
