data_functionalizedCrystal
_audit_creation_method	'MofGen! by Chris Wilmer'
_symmetry_space_group_name_H-M	'P1'
_symmetry_Int_Tables_number	1
_symmetry_cell_setting	triclinic
loop_
_symmetry_equiv_pos_as_xyz
  x,y,z
_cell_length_a	10.967819
_cell_length_b	14.044220
_cell_length_c	9.482900
_cell_angle_alpha	100.188801
_cell_angle_beta	68.706355
_cell_angle_gamma	88.854482
loop_
_atom_site_label
_atom_site_type_symbol
_atom_site_fract_x
_atom_site_fract_y
_atom_site_fract_z
O1	O	1.753045	0.064847	-0.560092
O2	O	2.086379	0.398180	-0.226759
O3	O	2.419712	0.731513	0.106575
O4	O	1.377292	0.089041	-0.465957
O5	O	1.710625	0.422375	-0.132624
O6	O	2.043958	0.755708	0.200710
O7	O	1.559526	-0.060902	-0.511597
O8	O	1.892860	0.272431	-0.178263
O9	O	2.226193	0.605765	0.155070
O10	O	1.570811	0.214790	-0.514452
O11	O	1.904144	0.548123	-0.181119
O12	O	2.237477	0.881457	0.152214
O13	O	1.522524	-0.030327	-0.260537
O14	O	1.855857	0.303006	0.072796
O15	O	2.189191	0.636340	0.406129
O16	O	1.340289	0.119617	-0.214898
O17	O	1.673623	0.452950	0.118436
O18	O	2.006956	0.786283	0.451769
O19	O	1.716043	0.095422	-0.309032
O20	O	2.049376	0.428755	0.024301
O21	O	2.382710	0.762088	0.357634
Cu22	Cu	1.524788	0.110311	-0.239041
Cu23	Cu	1.858121	0.443644	0.094292
Cu24	Cu	2.191454	0.776978	0.427625
Cu25	Cu	1.568547	0.074152	-0.535948
Cu26	Cu	1.901880	0.407486	-0.202615
Cu27	Cu	2.235214	0.740819	0.130718
O28	O	1.533808	0.245365	-0.263393
O29	O	1.867142	0.578699	0.069940
O30	O	2.200475	0.912032	0.403274
C31	C	1.310412	0.104878	-0.328307
C32	C	1.643745	0.438211	0.005026
C33	C	1.977078	0.771545	0.338359
C34	C	1.166257	0.106502	-0.292193
C35	C	1.499590	0.439835	0.041141
C36	C	1.832924	0.773169	0.374474
C37	C	0.972176	0.093072	-0.368851
C38	C	1.305509	0.426405	-0.035518
C39	C	1.638842	0.759739	0.297816
C40	C	1.121166	0.091388	-0.406168
C41	C	1.454500	0.424721	-0.072835
C42	C	1.787833	0.758054	0.260499
C43	C	1.536087	-0.080809	-0.384829
C44	C	1.869421	0.252524	-0.051496
C45	C	2.202754	0.585857	0.281837
C46	C	1.521359	-0.185678	-0.381138
C47	C	1.854692	0.147656	-0.047804
C48	C	2.188025	0.480989	0.285529
C49	C	1.494436	-0.377689	-0.374414
C50	C	1.827769	-0.044356	-0.041080
C51	C	2.161102	0.288978	0.292253
C52	C	1.598895	-0.437855	-0.400588
C53	C	1.932229	-0.104521	-0.067254
C54	C	2.265562	0.228812	0.266079
C55	C	1.583915	-0.544696	-0.396846
C56	C	1.917248	-0.211363	-0.063513
C57	C	2.250582	0.121970	0.269820
C58	C	1.509414	-0.270837	-0.378155
C59	C	1.842747	0.062496	-0.044821
C60	C	2.176081	0.395829	0.288512
C61	C	1.782923	0.079585	-0.446686
C62	C	2.116257	0.412918	-0.113352
C63	C	2.449590	0.746252	0.219981
C64	C	1.927080	0.077960	-0.482810
C65	C	2.260413	0.411293	-0.149477
C66	C	2.593746	0.744626	0.183857
C67	C	1.557248	0.265272	-0.390164
C68	C	1.890581	0.598605	-0.056830
C69	C	2.223915	0.931939	0.276503
C70	C	1.571978	0.370139	-0.393865
C71	C	1.905311	0.703473	-0.060532
C72	C	2.238645	1.036806	0.272802
N73	N	1.494019	0.135742	-0.030215
N74	N	1.827352	0.469076	0.303118
N75	N	2.160686	0.802409	0.636451
N76	N	1.599325	0.048713	-0.744777
N77	N	1.932658	0.382047	-0.411443
N78	N	2.265992	0.715380	-0.078110
C79	C	1.559462	0.081649	0.025594
C80	C	1.892795	0.414982	0.358927
C81	C	2.226129	0.748315	0.692261
C82	C	1.533872	0.102815	0.199420
C83	C	1.867206	0.436148	0.532754
C84	C	2.200539	0.769482	0.866087
H85	H	0.998773	0.063780	-0.608001
H86	H	1.332106	0.397114	-0.274668
H87	H	1.665440	0.730447	0.058666
H88	H	1.674298	-0.013276	0.174323
H89	H	2.007631	0.320057	0.507656
H90	H	2.340965	0.653391	0.840989
H91	H	1.458889	0.164797	0.280324
H92	H	1.792223	0.498131	0.613657
H93	H	2.125556	0.831464	0.946990
H94	H	1.393762	-0.406419	-0.349196
H95	H	1.727095	-0.073085	-0.015863
H96	H	2.060429	0.260248	0.317470
H97	H	0.900482	0.107262	-0.243660
H98	H	1.233815	0.440595	0.089674
H99	H	1.567148	0.773929	0.423007
H100	H	1.419041	0.197721	0.050692
H101	H	1.752374	0.531054	0.384026
H102	H	2.085707	0.864387	0.717359
H103	H	1.634431	0.019663	-0.055309
H104	H	1.967764	0.352996	0.278024
H105	H	2.301097	0.686330	0.611357
H106	H	1.192856	0.077207	-0.531368
H107	H	1.526190	0.410541	-0.198034
H108	H	1.859523	0.743874	0.135299
H109	H	1.699593	-0.409136	-0.425912
H110	H	2.032926	-0.075803	-0.092579
H111	H	2.366259	0.257530	0.240755
H112	H	1.094568	0.120694	-0.166992
H113	H	1.427901	0.454027	0.166341
H114	H	1.761235	0.787360	0.499674
