data_functionalizedCrystal
_audit_creation_method	'MofGen! by Chris Wilmer'
_symmetry_space_group_name_H-M	'P1'
_symmetry_Int_Tables_number	1
_symmetry_cell_setting	triclinic
loop_
_symmetry_equiv_pos_as_xyz
  x,y,z
_cell_length_a	14.044220
_cell_length_b	13.101039
_cell_length_c	14.519709
_cell_angle_alpha	86.632446
_cell_angle_beta	88.434511
_cell_angle_gamma	93.659868
loop_
_atom_site_label
_atom_site_type_symbol
_atom_site_fract_x
_atom_site_fract_y
_atom_site_fract_z
O1	O	1.263284	0.085109	0.217712
O2	O	1.513284	0.335109	0.467712
O3	O	1.763284	0.585109	0.717712
O4	O	2.013284	0.835109	0.967712
O5	O	0.987302	0.085135	0.209687
O6	O	1.237302	0.335135	0.459687
O7	O	1.487302	0.585135	0.709687
O8	O	1.737302	0.835135	0.959687
O9	O	1.132610	0.085112	0.080052
O10	O	1.382610	0.335112	0.330052
O11	O	1.632610	0.585112	0.580052
O12	O	1.882610	0.835112	0.830052
O13	O	1.117976	0.085132	0.347347
O14	O	1.367976	0.335132	0.597347
O15	O	1.617976	0.585132	0.847347
O16	O	1.867976	0.835132	1.097347
O17	O	1.122184	-0.085316	0.089370
O18	O	1.372184	0.164684	0.339370
O19	O	1.622184	0.414684	0.589370
O20	O	1.872184	0.664684	0.839370
O21	O	0.976877	-0.085293	0.219005
O22	O	1.226877	0.164707	0.469005
O23	O	1.476877	0.414707	0.719005
O24	O	1.726877	0.664707	0.969005
O25	O	1.252858	-0.085319	0.227030
O26	O	1.502858	0.164681	0.477030
O27	O	1.752858	0.414681	0.727030
O28	O	2.002858	0.664681	0.977030
Zn29	Zn	1.113212	-0.112365	0.224497
Zn30	Zn	1.363212	0.137635	0.474497
Zn31	Zn	1.613212	0.387635	0.724497
Zn32	Zn	1.863212	0.637635	0.974497
Zn33	Zn	1.126948	0.112181	0.212220
Zn34	Zn	1.376948	0.362181	0.462220
Zn35	Zn	1.626948	0.612181	0.712220
Zn36	Zn	1.876948	0.862181	0.962220
O37	O	1.107551	-0.085296	0.356665
O38	O	1.357551	0.164704	0.606665
O39	O	1.607551	0.414704	0.856665
O40	O	1.857551	0.664704	1.106665
C41	C	0.946769	-0.000076	0.210833
C42	C	1.196769	0.249924	0.460833
C43	C	1.446769	0.499924	0.710833
C44	C	1.696769	0.749924	0.960833
C45	C	0.841527	-0.000066	0.200355
C46	C	1.091527	0.249934	0.450355
C47	C	1.341527	0.499934	0.700355
C48	C	1.591527	0.749934	0.950355
C49	C	0.648831	-0.000088	0.181202
C50	C	0.898831	0.249912	0.431202
C51	C	1.148831	0.499912	0.681202
C52	C	1.398831	0.749912	0.931202
C53	C	0.591324	-0.000087	0.255510
C54	C	0.841324	0.249913	0.505510
C55	C	1.091324	0.499913	0.755510
C56	C	1.341324	0.749913	1.005510
C57	C	0.484102	-0.000099	0.244853
C58	C	0.734102	0.249901	0.494853
C59	C	0.984102	0.499901	0.744853
C60	C	1.234102	0.749901	0.994853
C61	C	0.756064	-0.000076	0.191858
C62	C	1.006064	0.249924	0.441858
C63	C	1.256064	0.499924	0.691858
C64	C	1.506064	0.749924	0.941858
N65	N	1.103845	-0.265612	0.232875
N66	N	1.353845	-0.015612	0.482875
N67	N	1.603845	0.234388	0.732875
N68	N	1.853845	0.484388	0.982875
C69	C	1.091099	-0.474653	0.244283
C70	C	1.341099	-0.224653	0.494283
C71	C	1.591099	0.025347	0.744283
C72	C	1.841099	0.275347	0.994283
C73	C	1.149066	-0.525537	0.192430
C74	C	1.399066	-0.275537	0.442430
C75	C	1.649066	-0.025537	0.692430
C76	C	1.899066	0.224463	0.942430
C77	C	1.141974	-0.641855	0.198777
C78	C	1.391974	-0.391855	0.448777
C79	C	1.641974	-0.141855	0.698777
C80	C	1.891974	0.108145	0.948777
C81	C	1.098190	-0.358325	0.237937
C82	C	1.348190	-0.108325	0.487937
C83	C	1.598190	0.141675	0.737937
C84	C	1.848190	0.391675	0.987937
C85	C	1.293391	-0.000106	0.225884
C86	C	1.543391	0.249894	0.475884
C87	C	1.793391	0.499894	0.725884
C88	C	2.043391	0.749894	0.975884
C89	C	1.398635	-0.000108	0.236361
C90	C	1.648635	0.249892	0.486361
C91	C	1.898635	0.499892	0.736361
C92	C	2.148635	0.749892	0.986361
C93	C	1.126715	-0.000102	0.050296
C94	C	1.376715	0.249898	0.300296
C95	C	1.626715	0.499898	0.550296
C96	C	1.876715	0.749898	0.800296
C97	C	1.124671	-0.000102	-0.052250
C98	C	1.374671	0.249898	0.197750
C99	C	1.624671	0.499898	0.447750
C100	C	1.874671	0.749898	0.697750
N101	N	1.136324	0.265428	0.203835
N102	N	1.386324	0.515428	0.453835
N103	N	1.636324	0.765428	0.703835
N104	N	1.886324	1.015428	0.953835
C105	C	1.117149	-0.000075	-0.427754
C106	C	1.367149	0.249925	-0.177754
C107	C	1.617149	0.499925	0.072246
C108	C	1.867149	0.749925	0.322246
C109	C	1.119238	-0.000083	-0.323277
C110	C	1.369238	0.249917	-0.073277
C111	C	1.619238	0.499917	0.176723
C112	C	1.869238	0.749917	0.426723
C113	C	1.120910	-0.000090	-0.240005
C114	C	1.370910	0.249910	0.009995
C115	C	1.620910	0.499910	0.259995
C116	C	1.870910	0.749910	0.509995
C117	C	1.122999	-0.000096	-0.135522
C118	C	1.372999	0.249904	0.114478
C119	C	1.622999	0.499904	0.364478
C120	C	1.872999	0.749904	0.614478
C121	C	1.113446	-0.000080	0.386421
C122	C	1.363446	0.249920	0.636421
C123	C	1.613446	0.499920	0.886421
C124	C	1.863446	0.749920	1.136421
C125	C	1.115490	-0.000072	0.488967
C126	C	1.365490	0.249928	0.738967
C127	C	1.615490	0.499928	0.988967
C128	C	1.865490	0.749928	1.238967
H129	H	0.622617	-0.000076	0.327131
H130	H	0.872617	0.249924	0.577131
H131	H	1.122617	0.499924	0.827131
H132	H	1.372617	0.749924	1.077131
H133	H	0.617540	-0.000099	0.109587
H134	H	0.867540	0.249901	0.359587
H135	H	1.117540	0.499901	0.609587
H136	H	1.367540	0.749901	0.859587
H137	H	1.204018	-0.481744	0.143270
H138	H	1.454018	-0.231744	0.393270
H139	H	1.704018	0.018256	0.643270
H140	H	1.954018	0.268256	0.893270
H141	H	1.036152	-0.518441	0.293441
H142	H	1.286152	-0.268441	0.543441
H143	H	1.536152	-0.018441	0.793441
H144	H	1.786152	0.231559	1.043441
