data_functionalizedCrystal
_audit_creation_method	'MofGen! by Chris Wilmer'
_symmetry_space_group_name_H-M	'P1'
_symmetry_Int_Tables_number	1
_symmetry_cell_setting	triclinic
loop_
_symmetry_equiv_pos_as_xyz
  x,y,z
_cell_length_a	10.540539
_cell_length_b	14.519709
_cell_length_c	12.996460
_cell_angle_alpha	90.007090
_cell_angle_beta	89.998010
_cell_angle_gamma	95.897182
loop_
_atom_site_label
_atom_site_type_symbol
_atom_site_fract_x
_atom_site_fract_y
_atom_site_fract_z
O1	O	1.684562	-0.129969	-0.085485
O2	O	1.315024	-0.142215	-0.085505
O3	O	1.509591	-0.001906	-0.085485
O4	O	1.489995	-0.270278	-0.085505
O5	O	1.509571	-0.001899	0.085649
O6	O	1.315004	-0.142207	0.085628
O7	O	1.684542	-0.129961	0.085649
Cu8	Cu	1.499771	-0.136083	0.101265
Cu9	Cu	1.499795	-0.136093	-0.101121
O10	O	1.489975	-0.270270	0.085629
C11	C	1.267720	-0.141293	0.000059
C12	C	1.126800	-0.138545	0.000051
C13	C	1.731846	-0.130884	0.000083
C14	C	1.872766	-0.133631	0.000084
C15	C	1.508668	0.032462	0.000082
C16	C	1.505931	0.134858	0.000082
C17	C	2.055118	-0.238911	0.000437
C18	C	1.908528	-0.236126	0.000068
C19	C	1.934913	-0.084310	-0.097644
C20	C	2.081422	-0.087808	-0.097744
C21	C	2.081989	-0.085716	0.096868
C22	C	1.935017	-0.084772	0.098176
C23	C	1.490899	-0.304639	0.000060
C24	C	1.493635	-0.407035	0.000052
N25	N	1.499763	-0.136076	0.243612
C26	C	1.495856	0.509808	0.000055
C27	C	1.498654	0.405485	0.000063
C28	C	1.500893	0.322337	0.000070
C29	C	1.503692	0.218007	0.000076
N30	N	1.499813	-0.136093	-0.243468
C31	C	1.499793	-0.136094	0.663426
C32	C	1.499781	-0.136092	0.546621
C33	C	1.499779	-0.136086	0.453523
C34	C	1.499766	-0.136083	0.336710
H35	H	1.865538	-0.274938	0.070120
H36	H	1.893724	-0.120812	0.170474
Cl37	Cl	1.868594	-0.137214	-0.209927
Cl38	Cl	2.130200	-0.136925	0.211216
H39	H	2.083317	-0.279396	0.070509
H40	H	2.084902	-0.279236	-0.069260
H41	H	2.129967	-0.011683	0.097524
Cl42	Cl	1.843420	-0.296464	-0.108274
Cl43	Cl	2.124374	-0.144098	-0.210537
Cl44	Cl	2.156648	0.025993	-0.104606
Cl45	Cl	1.901588	0.031899	-0.103246
Cl46	Cl	1.898800	0.030602	0.107309
