data_functionalizedCrystal
_audit_creation_method	'MofGen! by Chris Wilmer'
_symmetry_space_group_name_H-M	'P1'
_symmetry_Int_Tables_number	1
_symmetry_cell_setting	triclinic
loop_
_symmetry_equiv_pos_as_xyz
  x,y,z
_cell_length_a	13.897449
_cell_length_b	12.645330
_cell_length_c	13.897441
_cell_angle_alpha	90.027301
_cell_angle_beta	90.020733
_cell_angle_gamma	90.018972
loop_
_atom_site_label
_atom_site_type_symbol
_atom_site_fract_x
_atom_site_fract_y
_atom_site_fract_z
Zn1	Zn	1.474703	-0.421969	0.545403
Zn2	Zn	1.474597	-0.599265	0.384114
Zn3	Zn	1.313392	-0.422020	0.384122
Zn4	Zn	1.313373	-0.599195	0.545367
O5	O	1.394016	-0.510612	0.464751
O6	O	1.609670	-0.445496	0.524020
O7	O	1.453176	-0.575803	0.249133
O8	O	1.334842	-0.273666	0.405535
O9	O	1.609592	-0.575754	0.405521
O10	O	1.453356	-0.273629	0.524028
O11	O	1.334739	-0.445582	0.249139
O12	O	1.178408	-0.445514	0.405499
O13	O	1.334811	-0.575636	0.680353
O14	O	1.178394	-0.575684	0.523965
O15	O	1.453339	-0.445428	0.680380
O16	O	1.453158	-0.747603	0.405486
O17	O	1.334708	-0.747552	0.523957
C18	C	1.143402	-0.510598	0.464729
C19	C	1.036188	-0.510618	0.464743
C20	C	0.839893	-0.510621	0.464768
C21	C	0.949125	-0.510616	0.464751
C22	C	1.393946	-0.786042	0.464738
C23	C	1.394004	-0.903872	0.464764
C24	C	1.319794	-1.071448	0.539525
C25	C	1.319415	-0.948889	0.539284
C26	C	1.366485	-0.948472	0.363109
C27	C	1.366032	-1.071070	0.363563
C28	C	1.496187	-1.070958	0.490835
C29	C	1.495561	-0.948351	0.493058
C30	C	1.645609	-0.510627	0.464774
C31	C	1.752823	-0.510634	0.464784
C32	C	1.394085	-0.510519	0.716344
C33	C	1.394114	-0.510479	0.823558
C34	C	1.394113	-0.234107	0.464786
C35	C	1.394154	-0.116277	0.464801
C36	C	1.394003	-0.510629	0.214137
C37	C	1.394161	-0.510370	0.106924
C38	C	1.394140	-0.510407	1.019854
C39	C	1.394122	-0.510450	0.910621
H40	H	1.336854	-1.100856	0.615149
C41	C	1.478071	-1.024668	0.239057
C42	C	1.435957	-1.111117	0.285831
H43	H	1.521229	-1.049390	0.191062
H44	H	1.512269	-0.982986	0.284517
H45	H	1.429271	-0.983008	0.209854
H46	H	1.484756	-1.152773	0.315040
H47	H	1.401757	-1.152816	0.240363
C48	C	1.574357	-1.220750	0.419011
C49	C	1.570986	-1.110097	0.417379
H50	H	1.620535	-1.244916	0.373666
H51	H	1.512861	-1.248379	0.402903
H52	H	1.591978	-1.243998	0.481570
H53	H	1.553358	-1.086850	0.354822
H54	H	1.632495	-1.082459	0.433481
C55	C	1.642837	-0.850434	0.477982
C56	C	1.574298	-0.906987	0.424938
H57	H	1.691440	-0.824896	0.435919
H58	H	1.670956	-0.895584	0.524790
H59	H	1.612595	-0.792456	0.509200
H60	H	1.604538	-0.964970	0.393726
H61	H	1.546177	-0.861834	0.378113
H62	H	1.516314	-0.919196	0.567871
C63	C	1.357019	-0.994209	0.702775
C64	C	1.342635	-0.908168	0.641044
H65	H	1.371342	-0.969072	0.765602
H66	H	1.409130	-1.035752	0.679855
H67	H	1.300331	-1.036148	0.704744
H68	H	1.399326	-0.866234	0.639069
H69	H	1.290520	-0.866608	0.663969
H70	H	1.418928	-0.919315	0.305912
H71	H	1.244625	-1.102351	0.522497
H72	H	1.291445	-1.099764	0.341508
C73	C	1.156236	-0.996206	0.502183
C74	C	1.217306	-0.909416	0.515984
H75	H	1.093198	-0.971835	0.487788
H76	H	1.154664	-1.037707	0.559109
H77	H	1.179422	-1.037927	0.450279
H78	H	1.194123	-0.867699	0.567893
H79	H	1.218874	-0.867897	0.459052
C80	C	1.204517	-0.992752	0.318359
C81	C	1.266841	-0.907170	0.332792
H82	H	1.143002	-0.967254	0.299641
H83	H	1.198755	-1.031863	0.376404
H84	H	1.229522	-1.037171	0.269228
H85	H	1.241839	-0.862755	0.381929
H86	H	1.272599	-0.868042	0.274739
H87	H	1.521290	-1.101797	0.563702
