data_functionalizedCrystal
_audit_creation_method	'MofGen! by Chris Wilmer'
_symmetry_space_group_name_H-M	'P1'
_symmetry_Int_Tables_number	1
_symmetry_cell_setting	triclinic
loop_
_symmetry_equiv_pos_as_xyz
  x,y,z
_cell_length_a	12.759401
_cell_length_b	12.759399
_cell_length_c	12.759393
_cell_angle_alpha	90.030906
_cell_angle_beta	90.019625
_cell_angle_gamma	90.014160
loop_
_atom_site_label
_atom_site_type_symbol
_atom_site_fract_x
_atom_site_fract_y
_atom_site_fract_z
Zn1	Zn	1.606263	-0.418242	0.593980
Zn2	Zn	2.106263	0.081758	1.093980
Zn3	Zn	1.606153	-0.593958	0.418299
Zn4	Zn	2.106153	-0.093958	0.918299
Zn5	Zn	1.430562	-0.418291	0.418319
Zn6	Zn	1.930562	0.081709	0.918319
Zn7	Zn	1.430553	-0.593877	0.593940
Zn8	Zn	1.930553	-0.093877	1.093940
O9	O	1.518383	-0.506092	0.506135
O10	O	2.018383	-0.006092	1.006135
O11	O	1.753270	-0.441565	0.570684
O12	O	2.253270	0.058435	1.070684
O13	O	1.582818	-0.570709	0.271281
O14	O	2.082818	-0.070709	0.771281
O15	O	1.453919	-0.271263	0.441646
O16	O	1.953919	0.228737	0.941646
O17	O	1.753189	-0.570662	0.441612
O18	O	2.253189	-0.070662	0.941612
O19	O	1.583006	-0.271228	0.570704
O20	O	2.083006	0.228772	1.070704
O21	O	1.453812	-0.441647	0.271296
O22	O	1.953812	0.058353	0.771296
O23	O	1.283540	-0.441569	0.441608
O24	O	1.783540	0.058431	0.941608
O25	O	1.453903	-0.570524	0.740967
O26	O	1.953903	-0.070524	1.240967
O27	O	1.283533	-0.570571	0.570636
O28	O	1.783533	-0.070571	1.070636
O29	O	1.582997	-0.441486	0.740996
O30	O	2.082997	0.058514	1.240996
O31	O	1.582809	-0.740968	0.441573
O32	O	2.082809	-0.240968	0.941573
O33	O	1.453796	-0.740909	0.570616
O34	O	1.953796	-0.240909	1.070616
C35	C	1.518318	-0.779059	0.506111
C36	C	2.018318	-0.279059	1.006111
C37	C	1.518387	-0.895836	0.506136
C38	C	2.018387	-0.395836	1.006136
C39	C	1.245415	-0.506067	0.506120
C40	C	1.745415	-0.006067	1.006120
C41	C	1.128639	-0.506082	0.506139
C42	C	1.628639	-0.006082	1.006139
C43	C	1.585641	-0.950694	0.439020
C44	C	2.085641	-0.450694	0.939020
C45	C	1.585708	-1.060418	0.439055
C46	C	2.085708	-0.560418	0.939055
C47	C	1.451259	-1.060416	0.573325
C48	C	1.951259	-0.560416	1.073325
C49	C	1.451198	-0.950694	0.573295
C50	C	1.951198	-0.450694	1.073295
C51	C	1.073812	-0.438988	0.573451
C52	C	1.573812	0.061012	1.073451
C53	C	0.964088	-0.439008	0.573458
C54	C	1.464088	0.060992	1.073458
C55	C	0.964027	-0.573225	0.438837
C56	C	1.464027	-0.073225	0.938837
C57	C	1.073749	-0.573199	0.438826
C58	C	1.573749	-0.073199	0.938826
C59	C	1.128702	-0.371870	0.640764
C60	C	1.628702	0.128130	1.140764
C61	C	1.073875	-0.304772	0.708082
C62	C	1.573875	0.195228	1.208082
C63	C	0.964151	-0.304792	0.708089
C64	C	1.464151	0.195208	1.208089
C65	C	0.909253	-0.371911	0.640777
C66	C	1.409253	0.128089	1.140777
C67	C	1.792416	-0.506117	0.506150
C68	C	2.292416	-0.006117	1.006150
C69	C	1.909193	-0.506128	0.506157
C70	C	2.409193	-0.006128	1.006157
C71	C	1.518461	-0.505991	0.780168
C72	C	2.018461	-0.005991	1.280168
C73	C	1.518495	-0.505948	0.896945
C74	C	2.018495	-0.005948	1.396945
C75	C	1.518476	-0.232059	0.506182
C76	C	2.018476	0.267941	1.006182
C77	C	1.518516	-0.115282	0.506202
C78	C	2.018516	0.384718	1.006202
C79	C	1.518365	-0.506117	0.233167
C80	C	2.018365	-0.006117	0.733167
C81	C	1.518535	-0.505864	0.116391
C82	C	2.018535	-0.005864	0.616391
C83	C	1.585719	-0.438747	0.951824
C84	C	2.085719	0.061253	1.451824
C85	C	1.585737	-0.438702	1.061548
C86	C	2.085737	0.061298	1.561548
C87	C	1.451303	-0.573067	1.061505
C88	C	1.951303	-0.073067	1.561505
C89	C	1.451281	-0.573107	0.951783
C90	C	1.951281	-0.073107	1.451783
H91	H	1.640352	-0.906031	0.384336
H92	H	2.140352	-0.406031	0.884336
O93	O	1.378638	-0.891525	0.645678
O94	O	1.878638	-0.391525	1.145678
H95	H	1.396612	-0.912506	0.728158
H96	H	1.896612	-0.412506	1.228158
O97	O	1.378817	-0.645501	1.120658
O98	O	1.878817	-0.145501	1.620658
H99	H	1.332060	-0.692229	1.064060
H100	H	1.832060	-0.192229	1.564060
H101	H	0.919513	-0.250149	0.762895
H102	H	1.419513	0.249851	1.262895
O103	O	1.658239	-1.119590	0.366660
O104	O	2.158239	-0.619590	0.866660
H105	H	1.704940	-1.063007	0.319953
H106	H	2.204940	-0.563007	0.819953
O107	O	1.378772	-1.119583	0.645740
O108	O	1.878772	-0.619583	1.145740
H109	H	1.390100	-1.205097	0.634475
H110	H	1.890100	-0.705097	1.134475
O111	O	1.132894	-0.645559	0.366222
O112	O	1.632894	-0.145559	0.866222
H113	H	1.182915	-0.699049	0.413144
H114	H	1.682915	-0.199049	0.913144
O115	O	0.790907	-0.371922	0.640783
O116	O	1.290907	0.128078	1.140783
H117	H	0.761948	-0.350590	0.561580
H118	H	1.261948	0.149410	1.061580
O119	O	1.247046	-0.371837	0.640740
O120	O	1.747046	0.128163	1.140740
H121	H	1.276006	-0.313887	0.698843
H122	H	1.776006	0.186113	1.198843
H123	H	1.118579	-0.250120	0.762878
H124	H	1.618579	0.249880	1.262878
H125	H	0.919321	-0.627872	0.384037
H126	H	1.419321	-0.127872	0.884037
H127	H	1.640446	-0.384060	0.907178
H128	H	2.140446	0.115940	1.407178
H129	H	1.640476	-0.383979	1.106226
H130	H	2.140476	0.116021	1.606226
O131	O	1.378742	-0.645560	0.892579
O132	O	1.878742	-0.145560	1.392579
H133	H	1.332007	-0.692253	0.949142
H134	H	1.832007	-0.192253	1.449142
