data_functionalizedCrystal
_audit_creation_method	'MofGen! by Chris Wilmer'
_symmetry_space_group_name_H-M	'P1'
_symmetry_Int_Tables_number	1
_symmetry_cell_setting	triclinic
loop_
_symmetry_equiv_pos_as_xyz
  x,y,z
_cell_length_a	21.295418
_cell_length_b	13.897448
_cell_length_c	13.897441
_cell_angle_alpha	89.971988
_cell_angle_beta	90.041083
_cell_angle_gamma	89.964616
loop_
_atom_site_label
_atom_site_type_symbol
_atom_site_fract_x
_atom_site_fract_y
_atom_site_fract_z
Zn1	Zn	0.962387	0.383577	0.545922
Zn2	Zn	1.295720	0.716910	0.879256
Zn3	Zn	1.629054	1.050243	1.212589
Zn4	Zn	0.962315	0.544899	0.384631
Zn5	Zn	1.295648	0.878232	0.717964
Zn6	Zn	1.628981	1.211565	1.051298
Zn7	Zn	0.857115	0.383664	0.384584
Zn8	Zn	1.190449	0.716997	0.717917
Zn9	Zn	1.523782	1.050330	1.051250
Zn10	Zn	0.857100	0.544876	0.545826
Zn11	Zn	1.190433	0.878209	0.879160
Zn12	Zn	1.523766	1.211543	1.212493
O13	O	0.909729	0.464254	0.465241
O14	O	1.243063	0.797587	0.798574
O15	O	1.576396	1.130920	1.131908
O16	O	1.050467	0.404950	0.524587
O17	O	1.383800	0.738283	0.857920
O18	O	1.717134	1.071616	1.191254
O19	O	0.948336	0.523556	0.249643
O20	O	1.281669	0.856889	0.582976
O21	O	1.615002	1.190223	0.916310
O22	O	0.871117	0.248671	0.406006
O23	O	1.204450	0.582004	0.739339
O24	O	1.537783	0.915337	1.072672
O25	O	1.050414	0.523472	0.406087
O26	O	1.383747	0.856805	0.739420
O27	O	1.717080	1.190139	1.072753
O28	O	0.948459	0.248607	0.524541
O29	O	1.281793	0.581940	0.857874
O30	O	1.615126	0.915273	1.191207
O31	O	0.871046	0.405098	0.249608
O32	O	1.204379	0.738431	0.582941
O33	O	1.537713	1.071764	0.916275
O34	O	0.769024	0.405076	0.405913
O35	O	1.102357	0.738409	0.739246
O36	O	1.435690	1.071742	1.072579
O37	O	0.871090	0.523434	0.680821
O38	O	1.204424	0.856767	1.014154
O39	O	1.537757	1.190100	1.347488
O40	O	0.769012	0.523518	0.524377
O41	O	1.102346	0.856851	0.857710
O42	O	1.435679	1.190185	1.191044
O43	O	0.948445	0.404928	0.680891
O44	O	1.281778	0.738261	1.014225
O45	O	1.615111	1.071594	1.347558
O46	O	0.948321	0.679877	0.405994
O47	O	1.281654	1.013211	0.739327
O48	O	1.614987	1.346544	1.072660
O49	O	0.871020	0.679861	0.524423
O50	O	1.204353	1.013194	0.857757
O51	O	1.537687	1.346527	1.191090
C52	C	0.909678	0.714868	0.465224
C53	C	1.243011	1.048202	0.798558
C54	C	1.576345	1.381535	1.131891
C55	C	0.909714	0.822082	0.465249
C56	C	1.243047	1.155415	0.798583
C57	C	1.576380	1.488749	1.131916
C58	C	0.746178	0.464305	0.465130
C59	C	1.079511	0.797638	0.798463
C60	C	1.412844	1.130971	1.131797
C61	C	0.676209	0.464349	0.465105
C62	C	1.009543	0.797683	0.798439
C63	C	1.342876	1.131016	1.131772
C64	C	0.909775	1.018377	0.465319
C65	C	1.243109	1.351710	0.798652
C66	C	1.576442	1.685044	1.131985
C67	C	0.909739	0.909145	0.465283
C68	C	1.243073	1.242478	0.798616
C69	C	1.576406	1.575811	1.131950
C70	C	0.643353	0.526104	0.526697
C71	C	0.976687	0.859437	0.860031
C72	C	1.310020	1.192771	1.193364
C73	C	0.577611	0.526080	0.526741
C74	C	0.910944	0.859414	0.860074
C75	C	1.244278	1.192747	1.193407
C76	C	0.544727	0.464312	0.465175
C77	C	0.878060	0.797645	0.798508
C78	C	1.211394	1.130979	1.131841
C79	C	0.577591	0.402546	0.403578
C80	C	0.910924	0.735879	0.736911
C81	C	1.244258	1.069212	1.070245
C82	C	0.643332	0.402564	0.403543
C83	C	0.976665	0.735898	0.736877
C84	C	1.309999	1.069231	1.070210
N85	N	0.441453	0.456784	0.380807
N86	N	0.774786	0.790117	0.714141
N87	N	1.108119	1.123451	1.047474
N88	N	0.379001	0.456772	0.380843
N89	N	0.712334	0.790105	0.714176
N90	N	1.045668	1.123438	1.047510
C91	C	0.346652	0.464251	0.465277
C92	C	0.679986	0.797584	0.798610
C93	C	1.013319	1.130917	1.131944
N94	N	0.379114	0.471761	0.549676
N95	N	0.712447	0.805094	0.883009
N96	N	1.045781	1.138427	1.216342
N97	N	0.441571	0.471778	0.549639
N98	N	0.774905	0.805111	0.882972
N99	N	1.108238	1.138444	1.216305
C100	C	0.473442	0.464284	0.465206
C101	C	0.806775	0.797618	0.798539
C102	C	1.140108	1.130951	1.131872
C103	C	0.242511	0.525983	0.526921
C104	C	0.575844	0.859316	0.860255
C105	C	0.909177	1.192649	1.193588
C106	C	0.176767	0.525952	0.526966
C107	C	0.510100	0.859285	0.860300
C108	C	0.843434	1.192619	1.193633
C109	C	0.176748	0.402422	0.403795
C110	C	0.510082	0.735756	0.737128
C111	C	0.843415	1.069089	1.070462
C112	C	0.242491	0.402448	0.403759
C113	C	0.575824	0.735781	0.737092
C114	C	0.909157	1.069115	1.070425
C115	C	0.275368	0.464233	0.465320
C116	C	0.608701	0.797566	0.798654
C117	C	0.942035	1.130900	1.131987
C118	C	1.073919	0.464204	0.465353
C119	C	1.407253	0.797537	0.798686
C120	C	1.740586	1.130870	1.132020
C121	C	1.143888	0.464182	0.465401
C122	C	1.477221	0.797515	0.798734
C123	C	1.810554	1.130849	1.132067
C124	C	0.909774	0.464169	0.716834
C125	C	1.243107	0.797502	1.050167
C126	C	1.576441	1.130835	1.383501
C127	C	0.909793	0.464132	0.824048
C128	C	1.243126	0.797466	1.157381
C129	C	1.576460	1.130799	1.490715
C130	C	0.909792	1.212661	0.465290
C131	C	1.243126	1.545994	0.798623
C132	C	1.576459	1.879327	1.131957
C133	C	0.909806	1.105447	0.465340
C134	C	1.243139	1.438780	0.798673
C135	C	1.576472	1.772113	1.132007
C136	C	0.909721	0.464269	0.214627
C137	C	1.243054	0.797602	0.547960
C138	C	1.576388	1.130936	0.881293
C139	C	0.909824	0.464034	0.107413
C140	C	1.243157	0.797367	0.440746
C141	C	1.576491	1.130700	0.774080
C142	C	0.909810	0.464067	1.020343
C143	C	1.243143	0.797400	1.353677
C144	C	1.576477	1.130734	1.687010
C145	C	0.909799	0.464106	0.911111
C146	C	1.243132	0.797439	1.244444
C147	C	1.576465	1.130773	1.577777
H148	H	0.550854	0.576368	0.576900
H149	H	0.884188	0.909701	0.910234
H150	H	1.217521	1.243034	1.243567
H151	H	0.269242	0.352165	0.353599
H152	H	0.602576	0.685499	0.686932
H153	H	0.935909	1.018832	1.020265
H154	H	0.670118	0.576413	0.576827
H155	H	1.003451	0.909746	0.910161
H156	H	1.336785	1.243080	1.243494
H157	H	0.150017	0.576238	0.577128
H158	H	0.483350	0.909571	0.910461
H159	H	0.816683	1.242905	1.243795
H160	H	0.550813	0.352252	0.353452
H161	H	0.884146	0.685585	0.686786
H162	H	1.217479	1.018918	1.020119
O163	O	0.678771	0.335955	0.337104
O164	O	1.012104	0.669288	0.670437
O165	O	1.345438	1.002622	1.003770
H166	H	0.730009	0.346343	0.347426
H167	H	1.063342	0.679677	0.680759
H168	H	1.396675	1.013010	1.014092
H169	H	0.269281	0.576287	0.577054
H170	H	0.602614	0.909620	0.910387
H171	H	0.935947	1.242953	1.243720
H172	H	0.149975	0.352125	0.353671
H173	H	0.483308	0.685458	0.687004
H174	H	0.816642	1.018792	1.020338
