data_functionalizedCrystal
_audit_creation_method	'MofGen! by Chris Wilmer'
_symmetry_space_group_name_H-M	'P1'
_symmetry_Int_Tables_number	1
_symmetry_cell_setting	triclinic
loop_
_symmetry_equiv_pos_as_xyz
  x,y,z
_cell_length_a	11.169417
_cell_length_b	16.120484
_cell_length_c	11.169409
_cell_angle_alpha	87.139270
_cell_angle_beta	90.019824
_cell_angle_gamma	92.926269
loop_
_atom_site_label
_atom_site_type_symbol
_atom_site_fract_x
_atom_site_fract_y
_atom_site_fract_z
Zn1	Zn	1.810616	-0.331818	0.702705
Zn2	Zn	2.143949	0.001515	1.036039
Zn3	Zn	2.477282	0.334848	1.369372
Zn4	Zn	1.800274	-0.471261	0.512176
Zn5	Zn	2.133607	-0.137928	0.845510
Zn6	Zn	2.466940	0.195405	1.178843
Zn7	Zn	1.609898	-0.331869	0.502043
Zn8	Zn	1.943231	0.001464	0.835377
Zn9	Zn	2.276565	0.334798	1.168710
Zn10	Zn	1.599683	-0.471193	0.712816
Zn11	Zn	1.933016	-0.137860	1.046149
Zn12	Zn	2.266349	0.195473	1.379483
O13	O	1.705118	-0.401535	0.607435
O14	O	2.038451	-0.068202	0.940769
O15	O	2.371784	0.265131	1.274102
O16	O	1.977193	-0.350323	0.677440
O17	O	2.310526	-0.016989	1.010774
O18	O	2.643860	0.316344	1.344107
O19	O	1.774967	-0.452820	0.342886
O20	O	2.108300	-0.119487	0.676219
O21	O	2.441634	0.213846	1.009552
O22	O	1.645127	-0.215197	0.520189
O23	O	1.978460	0.118136	0.853523
O24	O	2.311794	0.451469	1.186856
O25	O	1.969595	-0.452771	0.537459
O26	O	2.302928	-0.119438	0.870793
O27	O	2.636262	0.213896	1.204126
O28	O	1.792593	-0.215160	0.667615
O29	O	2.125927	0.118173	1.000948
O30	O	2.459260	0.451507	1.334282
O31	O	1.635099	-0.350409	0.335441
O32	O	1.968432	-0.017076	0.668775
O33	O	2.301765	0.316257	1.002108
O34	O	1.440594	-0.350344	0.529994
O35	O	1.773927	-0.017010	0.863327
O36	O	2.107260	0.316323	1.196660
O37	O	1.627717	-0.452655	0.879421
O38	O	1.961050	-0.119322	1.212754
O39	O	2.294383	0.214011	1.546088
O40	O	1.433089	-0.452705	0.684847
O41	O	1.766422	-0.119371	1.018181
O42	O	2.099755	0.213962	1.351514
O43	O	1.782688	-0.350257	0.871993
O44	O	2.116021	-0.016924	1.205326
O45	O	2.449355	0.316410	1.538659
O46	O	1.765062	-0.587917	0.547264
O47	O	2.098395	-0.254584	0.880597
O48	O	2.431728	0.078749	1.213930
O49	O	1.617688	-0.587867	0.694673
O50	O	1.951022	-0.254534	1.028006
O51	O	2.284355	0.078799	1.361340
C52	C	1.689177	-0.618142	0.623191
C53	C	2.022510	-0.284809	0.956524
C54	C	2.355844	0.048524	1.289858
C55	C	1.682467	-0.710808	0.629972
C56	C	2.015801	-0.377474	0.963305
C57	C	2.349134	-0.044141	1.296638
C58	C	1.393294	-0.401523	0.607419
C59	C	1.726627	-0.068189	0.940752
C60	C	2.059960	0.265144	1.274086
C61	C	1.259893	-0.401537	0.607442
C62	C	1.593226	-0.068204	0.940775
C63	C	1.926559	0.265129	1.274108
C64	C	1.670224	-0.880468	0.642376
C65	C	2.003557	-0.547135	0.975709
C66	C	2.336891	-0.213801	1.309042
C67	C	1.740226	-0.921762	0.572514
C68	C	2.073559	-0.588429	0.905848
C69	C	2.406893	-0.255096	1.239181
C70	C	1.733414	-1.016167	0.579416
C71	C	2.066747	-0.682834	0.912749
C72	C	2.400081	-0.349501	1.246083
C73	C	1.677035	-0.786055	0.635476
C74	C	2.010368	-0.452721	0.968809
C75	C	2.343701	-0.119388	1.302142
C76	C	2.018159	-0.401549	0.607452
C77	C	2.351492	-0.068215	0.940786
C78	C	2.684826	0.265118	1.274119
C79	C	2.151558	-0.401554	0.607460
C80	C	2.484892	-0.068221	0.940793
C81	C	2.818225	0.265112	1.274126
C82	C	1.705217	-0.401443	0.920471
C83	C	2.038550	-0.068110	1.253804
C84	C	2.371883	0.265224	1.587138
C85	C	1.705259	-0.401403	1.053868
C86	C	2.038592	-0.068070	1.387202
C87	C	2.371925	0.265263	1.720535
C88	C	1.721153	-0.184083	0.591644
C89	C	2.054487	0.149250	0.924977
C90	C	2.387820	0.482584	1.258311
C91	C	1.727987	-0.091417	0.584915
C92	C	2.061320	0.241916	0.918248
C93	C	2.394653	0.575249	1.251582
C94	C	1.705093	-0.401568	0.295613
C95	C	2.038426	-0.068234	0.628946
C96	C	2.371759	0.265099	0.962279
C97	C	1.705300	-0.401372	0.162199
C98	C	2.038633	-0.068039	0.495532
C99	C	2.371967	0.265295	0.828866
H100	H	1.805272	-0.886215	0.507520
H101	H	2.138605	-0.552881	0.840853
H102	H	2.471939	-0.219548	1.174187
H103	H	1.605182	-0.916013	0.707363
H104	H	1.938515	-0.582680	1.040697
H105	H	2.271848	-0.249347	1.374030
