data_functionalizedCrystal
_audit_creation_method	'MofGen! by Chris Wilmer'
_symmetry_space_group_name_H-M	'P1'
_symmetry_Int_Tables_number	1
_symmetry_cell_setting	triclinic
loop_
_symmetry_equiv_pos_as_xyz
  x,y,z
_cell_length_a	16.625547
_cell_length_b	16.120484
_cell_length_c	16.625539
_cell_angle_alpha	92.868615
_cell_angle_beta	89.975178
_cell_angle_gamma	92.925712
loop_
_atom_site_label
_atom_site_type_symbol
_atom_site_fract_x
_atom_site_fract_y
_atom_site_fract_z
Zn1	Zn	1.216387	-0.331907	-0.472258
Zn2	Zn	1.466387	-0.081907	-0.222258
Zn3	Zn	1.716387	0.168093	0.027742
Zn4	Zn	1.966387	0.418093	0.277742
Zn5	Zn	1.209446	-0.471332	-0.344255
Zn6	Zn	1.459446	-0.221332	-0.094255
Zn7	Zn	1.709446	0.028668	0.155745
Zn8	Zn	1.959446	0.278668	0.405745
Zn9	Zn	1.081547	-0.331936	-0.337430
Zn10	Zn	1.331547	-0.081936	-0.087430
Zn11	Zn	1.581547	0.168064	0.162570
Zn12	Zn	1.831547	0.418064	0.412570
Zn13	Zn	1.074677	-0.471281	-0.479032
Zn14	Zn	1.324677	-0.221281	-0.229032
Zn15	Zn	1.574677	0.028719	0.020968
Zn16	Zn	1.824677	0.278719	0.270968
O17	O	1.145514	-0.401614	-0.408244
O18	O	1.395514	-0.151614	-0.158244
O19	O	1.645514	0.098386	0.091756
O20	O	1.895514	0.348386	0.341756
O21	O	1.328298	-0.350411	-0.455300
O22	O	1.578298	-0.100411	-0.205300
O23	O	1.828298	0.149589	0.044700
O24	O	2.078298	0.399589	0.294700
O25	O	1.192450	-0.452874	-0.230519
O26	O	1.442450	-0.202874	0.019481
O27	O	1.692450	0.047126	0.269481
O28	O	1.942450	0.297126	0.519481
O29	O	1.105214	-0.215267	-0.349625
O30	O	1.355214	0.034733	-0.099625
O31	O	1.605214	0.284733	0.150375
O32	O	1.855214	0.534733	0.400375
O33	O	1.323198	-0.452846	-0.361256
O34	O	1.573198	-0.202846	-0.111256
O35	O	1.823198	0.047154	0.138744
O36	O	2.073198	0.297154	0.388744
O37	O	1.204280	-0.215245	-0.448682
O38	O	1.454280	0.034755	-0.198682
O39	O	1.704280	0.284755	0.051318
O40	O	1.954280	0.534755	0.301318
O41	O	1.098483	-0.350461	-0.225505
O42	O	1.348483	-0.100461	0.024495
O43	O	1.598483	0.149539	0.274495
O44	O	1.848483	0.399539	0.524495
O45	O	0.967804	-0.350412	-0.356193
O46	O	1.217804	-0.100412	-0.106193
O47	O	1.467804	0.149588	0.143807
O48	O	1.717804	0.399588	0.393807
O49	O	1.093505	-0.452759	-0.590964
O50	O	1.343505	-0.202759	-0.340964
O51	O	1.593505	0.047241	-0.090964
O52	O	1.843505	0.297241	0.159036
O53	O	0.962756	-0.452787	-0.460227
O54	O	1.212756	-0.202787	-0.210227
O55	O	1.462756	0.047213	0.039773
O56	O	1.712756	0.297213	0.289773
O57	O	1.197618	-0.350362	-0.585988
O58	O	1.447618	-0.100362	-0.335988
O59	O	1.697618	0.149638	-0.085988
O60	O	1.947618	0.399638	0.164012
O61	O	1.185788	-0.587991	-0.367824
O62	O	1.435788	-0.337991	-0.117824
O63	O	1.685788	-0.087991	0.132176
O64	O	1.935788	0.162009	0.382176
O65	O	1.086774	-0.587953	-0.466845
O66	O	1.336774	-0.337953	-0.216845
O67	O	1.586774	-0.087953	0.033155
O68	O	1.836774	0.162047	0.283155
C69	C	0.936024	-0.401598	-0.408205
C70	C	1.186024	-0.151598	-0.158205
C71	C	1.436024	0.098402	0.091795
C72	C	1.686024	0.348402	0.341795
C73	C	0.846402	-0.401611	-0.408209
C74	C	1.096402	-0.151611	-0.158209
C75	C	1.346402	0.098389	0.091791
C76	C	1.596402	0.348389	0.341791
C77	C	0.773620	-0.401613	-0.408219
C78	C	1.023620	-0.151613	-0.158219
C79	C	1.273620	0.098387	0.091781
C80	C	1.523620	0.348387	0.341781
C81	C	0.682311	-0.401617	-0.408239
C82	C	0.932311	-0.151617	-0.158239
C83	C	1.182311	0.098383	0.091761
C84	C	1.432311	0.348383	0.341761
C85	C	0.609534	-0.401625	-0.408260
C86	C	0.859534	-0.151625	-0.158260
C87	C	1.109534	0.098375	0.091740
C88	C	1.359534	0.348375	0.341740
C89	C	0.518220	-0.401630	-0.408279
C90	C	0.768220	-0.151630	-0.158279
C91	C	1.018220	0.098370	0.091721
C92	C	1.268220	0.348370	0.341721
C93	C	1.134804	-0.618222	-0.418828
C94	C	1.384804	-0.368222	-0.168828
C95	C	1.634804	-0.118222	0.081172
C96	C	1.884804	0.131778	0.331172
C97	C	1.130296	-0.710888	-0.423383
C98	C	1.380296	-0.460888	-0.173383
C99	C	1.630296	-0.210888	0.076617
C100	C	1.880296	0.039112	0.326617
C101	C	1.122071	-0.880550	-0.431715
C102	C	1.372071	-0.630550	-0.181715
C103	C	1.622071	-0.380550	0.068285
C104	C	1.872071	-0.130550	0.318285
C105	C	1.169102	-0.921838	-0.384786
C106	C	1.419102	-0.671838	-0.134786
C107	C	1.669102	-0.421838	0.115214
C108	C	1.919102	-0.171838	0.365214
C109	C	1.164525	-1.016243	-0.389422
C110	C	1.414525	-0.766243	-0.139422
C111	C	1.664525	-0.516243	0.110578
C112	C	1.914525	-0.266243	0.360578
C113	C	1.126646	-0.786136	-0.427080
C114	C	1.376646	-0.536136	-0.177080
C115	C	1.626646	-0.286136	0.072920
C116	C	1.876646	-0.036136	0.322920
C117	C	1.355822	-0.401631	-0.408283
C118	C	1.605822	-0.151631	-0.158283
C119	C	1.855822	0.098369	0.091717
C120	C	2.105822	0.348369	0.341717
C121	C	1.445443	-0.401638	-0.408300
C122	C	1.695443	-0.151638	-0.158300
C123	C	1.945443	0.098362	0.091700
C124	C	2.195443	0.348362	0.341700
C125	C	1.145570	-0.401552	-0.618550
C126	C	1.395570	-0.151552	-0.368550
C127	C	1.645570	0.098448	-0.118550
C128	C	1.895570	0.348448	0.131450
C129	C	1.145593	-0.401525	-0.708170
C130	C	1.395593	-0.151525	-0.458170
C131	C	1.645593	0.098475	-0.208170
C132	C	1.895593	0.348475	0.041830
C133	C	1.156288	-0.184160	-0.397636
C134	C	1.406288	0.065840	-0.147636
C135	C	1.656288	0.315840	0.102364
C136	C	1.906288	0.565840	0.352364
C137	C	1.160879	-0.091494	-0.393116
C138	C	1.410879	0.158506	-0.143116
C139	C	1.660879	0.408506	0.106884
C140	C	1.910879	0.658506	0.356884
C141	C	1.145635	-0.401432	-1.036341
C142	C	1.395635	-0.151432	-0.786341
C143	C	1.645635	0.098568	-0.536341
C144	C	1.895635	0.348568	-0.286341
C145	C	1.145621	-0.401461	-0.945034
C146	C	1.395621	-0.151461	-0.695034
C147	C	1.645621	0.098539	-0.445034
C148	C	1.895621	0.348539	-0.195034
C149	C	1.145615	-0.401479	-0.872258
C150	C	1.395615	-0.151479	-0.622258
C151	C	1.645615	0.098521	-0.372258
C152	C	1.895615	0.348521	-0.122258
C153	C	1.145600	-0.401507	-0.780945
C154	C	1.395600	-0.151507	-0.530945
C155	C	1.645600	0.098493	-0.280945
C156	C	1.895600	0.348493	-0.030945
C157	C	1.145508	-0.401616	-0.198753
C158	C	1.395508	-0.151616	0.051247
C159	C	1.645508	0.098384	0.301247
C160	C	1.895508	0.348384	0.551247
C161	C	1.145652	-0.401407	-0.109122
C162	C	1.395652	-0.151407	0.140878
C163	C	1.645652	0.098593	0.390878
C164	C	1.895652	0.348593	0.640878
H165	H	1.078372	-0.916100	-0.475370
H166	H	1.328372	-0.666100	-0.225370
H167	H	1.578372	-0.416100	0.024630
H168	H	1.828372	-0.166100	0.274630
H169	H	1.212804	-0.886285	-0.341127
H170	H	1.462804	-0.636285	-0.091127
H171	H	1.712804	-0.386285	0.158873
H172	H	1.962804	-0.136285	0.408873
