data_functionalizedCrystal
_audit_creation_method	'MofGen! by Chris Wilmer'
_symmetry_space_group_name_H-M	'P1'
_symmetry_Int_Tables_number	1
_symmetry_cell_setting	triclinic
loop_
_symmetry_equiv_pos_as_xyz
  x,y,z
_cell_length_a	19.288867
_cell_length_b	19.288864
_cell_length_c	17.766277
_cell_angle_alpha	89.971843
_cell_angle_beta	89.992126
_cell_angle_gamma	83.136659
loop_
_atom_site_label
_atom_site_type_symbol
_atom_site_fract_x
_atom_site_fract_y
_atom_site_fract_z
O1	O	0.921352	0.086655	-0.062604
O2	O	1.254685	0.419989	0.270730
O3	O	1.588019	0.753322	0.604063
O4	O	0.719092	0.098343	-0.062616
O5	O	1.052425	0.431676	0.270718
O6	O	1.385758	0.765009	0.604051
O7	O	0.826066	-0.008631	-0.062563
O8	O	1.159400	0.324702	0.270771
O9	O	1.492733	0.658035	0.604104
O10	O	0.814378	0.193629	-0.062657
O11	O	1.147711	0.526963	0.270677
O12	O	1.481044	0.860296	0.604010
O13	O	0.826048	-0.008637	0.062626
O14	O	1.159381	0.324697	0.395959
O15	O	1.492714	0.658030	0.729292
O16	O	0.719073	0.098337	0.062573
O17	O	1.052406	0.431671	0.395906
O18	O	1.385740	0.765004	0.729239
O19	O	0.921333	0.086650	0.062585
O20	O	1.254667	0.419983	0.395918
O21	O	1.588000	0.753317	0.729252
Cu22	Cu	0.820201	0.092493	0.074010
Cu23	Cu	1.153535	0.425826	0.407343
Cu24	Cu	1.486868	0.759160	0.740676
Cu25	Cu	0.820224	0.092500	-0.074040
Cu26	Cu	1.153557	0.425833	0.259293
Cu27	Cu	1.486890	0.759166	0.592626
O28	O	0.814359	0.193624	0.062532
O29	O	1.147692	0.526957	0.395865
O30	O	1.481025	0.860291	0.729199
C31	C	0.693206	0.097964	-0.000022
C32	C	1.026539	0.431297	0.333311
C33	C	1.359873	0.764630	0.666644
C34	C	0.616102	0.096834	-0.000024
C35	C	0.949436	0.430167	0.333309
C36	C	1.282769	0.763501	0.666642
C37	C	0.060547	0.088701	-0.068252
C38	C	0.393881	0.422034	0.265081
C39	C	0.727214	0.755367	0.598414
C40	C	0.132995	0.089758	-0.068256
C41	C	0.466328	0.423091	0.265078
C42	C	0.799661	0.756425	0.598411
C43	C	0.169213	0.090287	-0.000016
C44	C	0.502546	0.423620	0.333318
C45	C	0.835880	0.756954	0.666651
C46	C	0.132980	0.089741	0.068233
C47	C	0.466314	0.423074	0.401566
C48	C	0.799647	0.756407	0.734899
C49	C	0.060535	0.088676	0.068234
C50	C	0.393868	0.422010	0.401567
C51	C	0.727202	0.755343	0.734901
C52	C	0.278533	0.132652	0.052245
C53	C	0.611866	0.465986	0.385579
C54	C	0.945199	0.799319	0.718912
C55	C	0.350976	0.133721	0.052241
C56	C	0.684309	0.467054	0.385575
C57	C	1.017643	0.800387	0.718908
C58	C	0.392659	0.093566	-0.000017
C59	C	0.725992	0.426899	0.333316
C60	C	1.059325	0.760233	0.666650
C61	C	0.361888	0.052352	-0.052284
C62	C	0.695221	0.385685	0.281050
C63	C	1.028555	0.719018	0.614383
C64	C	0.289443	0.051288	-0.052282
C65	C	0.622776	0.384621	0.281051
C66	C	0.956110	0.717954	0.614384
C67	C	0.247768	0.091440	-0.000010
C68	C	0.581101	0.424774	0.333324
C69	C	0.914435	0.758107	0.666657
C70	C	0.507439	0.095254	-0.068264
C71	C	0.840773	0.428587	0.265069
C72	C	1.174106	0.761920	0.598402
C73	C	0.579889	0.096306	-0.068265
C74	C	0.913222	0.429640	0.265068
C75	C	1.246556	0.762973	0.598402
C76	C	0.579872	0.096296	0.068225
C77	C	0.913205	0.429629	0.401558
C78	C	1.246539	0.762963	0.734892
C79	C	0.507425	0.095236	0.068224
C80	C	0.840758	0.428570	0.401557
C81	C	1.174092	0.761903	0.734890
C82	C	0.471213	0.094718	-0.000023
C83	C	0.804546	0.428052	0.333310
C84	C	1.137879	0.761385	0.666643
C85	C	0.825681	-0.034510	0.000042
C86	C	1.159014	0.298823	0.333375
C87	C	1.492347	0.632156	0.666708
C88	C	0.824552	-0.111614	0.000073
C89	C	1.157885	0.221719	0.333406
C90	C	1.491218	0.555053	0.666739
C91	C	0.947219	0.087029	-0.000010
C92	C	1.280553	0.420362	0.333323
C93	C	1.613886	0.753696	0.666656
C94	C	1.024323	0.088159	-0.000013
C95	C	1.357656	0.421492	0.333320
C96	C	1.690989	0.754825	0.666654
N97	N	0.820191	0.092488	0.178140
N98	N	1.153524	0.425822	0.511473
N99	N	1.486858	0.759155	0.844807
C100	C	0.814744	0.219503	-0.000074
C101	C	1.148078	0.552836	0.333259
C102	C	1.481411	0.886170	0.666592
C103	C	0.815873	0.296607	-0.000110
C104	C	1.149207	0.629940	0.333223
C105	C	1.482540	0.963273	0.666557
C106	C	0.753105	0.341302	-0.000099
C107	C	1.086439	0.674636	0.333235
C108	C	1.419772	1.007969	0.666568
C109	C	0.754166	0.413750	-0.000082
C110	C	1.087499	0.747083	0.333252
C111	C	1.420833	1.080416	0.666585
C112	C	0.817998	0.441498	-0.000061
C113	C	1.151332	0.774831	0.333273
C114	C	1.484665	1.108164	0.666606
C115	C	0.880774	0.396792	-0.000076
C116	C	1.214108	0.730125	0.333257
C117	C	1.547441	1.063459	0.666590
C118	C	0.879712	0.324346	-0.000101
C119	C	1.213045	0.657680	0.333232
C120	C	1.546378	0.991013	0.666566
C121	C	0.868171	0.549746	0.043841
C122	C	1.201504	0.883079	0.377174
C123	C	1.534837	1.216413	0.710508
C124	C	0.869230	0.622191	0.043870
C125	C	1.202564	0.955524	0.377204
C126	C	1.535897	1.288857	0.710537
C127	C	0.821278	0.664943	0.000012
C128	C	1.154611	0.998277	0.333345
C129	C	1.487945	1.331610	0.666678
C130	C	0.772254	0.635244	-0.043866
C131	C	1.105587	0.968577	0.289467
C132	C	1.438920	1.301911	0.622800
C133	C	0.771191	0.562799	-0.043891
C134	C	1.104524	0.896132	0.289442
C135	C	1.437858	1.229465	0.622776
C136	C	0.819157	0.520052	-0.000035
C137	C	1.152491	0.853385	0.333299
C138	C	1.485824	1.186718	0.666632
C139	C	0.759656	0.788195	0.000041
C140	C	1.092989	1.121528	0.333374
C141	C	1.426322	1.454862	0.666707
C142	C	0.760719	0.860643	0.000053
C143	C	1.094052	1.193976	0.333386
C144	C	1.427386	1.527310	0.666720
C145	C	0.887329	0.843684	0.000066
C146	C	1.220662	1.177017	0.333399
C147	C	1.553996	1.510350	0.666732
C148	C	0.886264	0.771237	0.000046
C149	C	1.219597	1.104571	0.333379
C150	C	1.552931	1.437904	0.666712
C151	C	0.822425	0.743498	0.000037
C152	C	1.155759	1.076831	0.333370
C153	C	1.489092	1.410164	0.666703
N154	N	0.820240	0.092499	-0.178171
N155	N	1.153573	0.425832	0.155163
N156	N	1.486906	0.759166	0.488496
C157	C	0.867575	0.045143	0.217550
C158	C	1.200908	0.378477	0.550884
C159	C	1.534241	0.711810	0.884217
C160	C	0.867579	0.045140	0.296352
C161	C	1.200912	0.378473	0.629685
C162	C	1.534245	0.711807	0.963019
C163	C	0.820206	0.092494	0.335740
C164	C	1.153539	0.425827	0.669074
C165	C	1.486872	0.759160	1.002407
C166	C	0.772813	0.139842	0.296321
C167	C	1.106146	0.473176	0.629654
C168	C	1.439480	0.806509	0.962987
C169	C	0.772806	0.139839	0.217520
C170	C	1.106139	0.473173	0.550854
C171	C	1.439472	0.806506	0.884187
C172	C	0.810907	0.155781	0.460549
C173	C	1.144240	0.489115	0.793882
C174	C	1.477573	0.822448	1.127216
C175	C	0.810919	0.155785	0.539348
C176	C	1.144252	0.489118	0.872681
C177	C	1.477586	0.822452	1.206014
C178	C	0.820224	0.092502	0.578787
C179	C	1.153557	0.425835	0.912120
C180	C	1.486891	0.759169	1.245453
C181	C	0.829532	0.029213	0.539417
C182	C	1.162865	0.362546	0.872751
C183	C	1.496199	0.695879	1.206084
C184	C	0.829525	0.029210	0.460617
C185	C	1.162858	0.362543	0.793950
C186	C	1.496191	0.695877	1.127284
C187	C	0.820208	0.092502	0.421186
C188	C	1.153541	0.425835	0.754519
C189	C	1.486875	0.759168	1.087853
C190	C	0.867615	0.045150	0.703643
C191	C	1.200948	0.378483	1.036976
C192	C	1.534281	0.711816	1.370310
C193	C	0.867614	0.045146	0.782446
C194	C	1.200947	0.378479	1.115780
C195	C	1.534281	0.711812	1.449113
C196	C	0.772852	0.139854	0.782413
C197	C	1.106185	0.473187	1.115747
C198	C	1.439518	0.806520	1.449080
C199	C	0.772849	0.139852	0.703612
C200	C	1.106183	0.473185	1.036945
C201	C	1.439516	0.806519	1.370278
C202	C	0.820234	0.092501	0.664231
C203	C	1.153568	0.425834	0.997565
C204	C	1.486901	0.759167	1.330898
H205	H	0.477930	0.094797	0.123791
H206	H	0.811264	0.428131	0.457125
H207	H	1.144597	0.761464	0.790458
H208	H	0.939302	0.866275	0.000028
H209	H	1.272636	1.199609	0.333361
H210	H	1.605969	1.532942	0.666694
Br211	Br	0.707162	0.693257	-0.103383
Br212	Br	1.040495	1.026591	0.229950
Br213	Br	1.373829	1.359924	0.563284
Br214	Br	0.668975	0.474420	-0.000065
Br215	Br	1.002309	0.807753	0.333269
Br216	Br	1.335642	1.141087	0.666602
H217	H	0.930827	0.287954	-0.000111
H218	H	1.264160	0.621288	0.333222
H219	H	1.597493	0.954621	0.666556
H220	H	0.837101	-0.022322	0.428566
H221	H	1.170435	0.311011	0.761899
H222	H	1.503768	0.644344	1.095232
H223	H	0.734240	0.178397	0.328395
H224	H	1.067574	0.511731	0.661728
H225	H	1.400907	0.845064	0.995061
Br226	Br	0.247684	-0.004645	-0.123210
Br227	Br	0.581018	0.328689	0.210123
Br228	Br	0.914351	0.662022	0.543457
H229	H	0.609382	0.096743	-0.123836
H230	H	0.942716	0.430076	0.209498
H231	H	1.276049	0.763409	0.542831
H232	H	0.734220	0.178394	0.185432
H233	H	1.067553	0.511727	0.518765
H234	H	1.400886	0.845061	0.852098
Br235	Br	0.708542	0.204111	0.650120
Br236	Br	1.041876	0.537444	0.983453
Br237	Br	1.375209	0.870777	1.316787
H238	H	0.803344	0.207319	0.571396
H239	H	1.136678	0.540652	0.904730
H240	H	1.470011	0.873985	1.238063
Br241	Br	0.798347	0.241675	0.407033
Br242	Br	1.131680	0.575008	0.740366
Br243	Br	1.465014	0.908342	1.073699
Br244	Br	0.182168	0.090494	-0.160872
Br245	Br	0.515501	0.423827	0.172461
Br246	Br	0.848834	0.757160	0.505794
Br247	Br	0.971454	0.710574	0.000035
Br248	Br	1.304787	1.043908	0.333369
Br249	Br	1.638120	1.377241	0.666702
H250	H	0.031041	0.088238	0.123804
H251	H	0.364375	0.421571	0.457138
H252	H	0.697708	0.754904	0.790471
Br253	Br	0.704665	0.522493	-0.103440
Br254	Br	1.037998	0.855827	0.229893
Br255	Br	1.371332	1.189160	0.563227
Br256	Br	0.629020	0.096999	0.160838
Br257	Br	0.962353	0.430332	0.494172
Br258	Br	1.295686	0.763666	0.827505
H259	H	0.031068	0.088276	-0.123824
H260	H	0.364401	0.421610	0.209509
H261	H	0.697735	0.754943	0.542842
Br262	Br	0.708552	0.204113	0.835862
Br263	Br	1.041885	0.537446	1.169196
Br264	Br	1.375219	0.870779	1.502529
H265	H	0.477954	0.094830	-0.123835
H266	H	0.811287	0.428163	0.209498
H267	H	1.144621	0.761496	0.542832
Br268	Br	0.931889	-0.019120	0.349847
Br269	Br	1.265223	0.314213	0.683181
Br270	Br	1.598556	0.647546	1.016514
H271	H	0.376021	0.167297	0.094784
H272	H	0.709355	0.500630	0.428117
H273	H	1.042688	0.833963	0.761451
Br274	Br	0.221971	0.187142	0.123184
Br275	Br	0.555305	0.520475	0.456517
Br276	Br	0.888638	0.853809	0.789851
H277	H	0.906157	0.006586	0.185489
H278	H	1.239490	0.339919	0.518822
H279	H	1.572823	0.673252	0.852156
Br280	Br	0.935721	0.662495	0.103471
Br281	Br	1.269054	0.995828	0.436804
Br282	Br	1.602387	1.329161	0.770137
H283	H	0.162474	0.090170	0.123794
H284	H	0.495808	0.423503	0.457127
H285	H	0.829141	0.756837	0.790461
H286	H	0.395825	0.019656	-0.094840
H287	H	0.729158	0.352989	0.238494
H288	H	1.062492	0.686323	0.571827
H289	H	0.701123	0.318722	-0.000113
H290	H	1.034456	0.652055	0.333221
H291	H	1.367790	0.985389	0.666554
H292	H	0.707675	0.765608	0.000038
H293	H	1.041008	1.098942	0.333371
H294	H	1.374341	1.432275	0.666704
Br295	Br	0.931920	-0.019114	0.650196
Br296	Br	1.265253	0.314219	0.983530
Br297	Br	1.598587	0.647552	1.316863
H298	H	0.709604	0.897035	0.000057
H299	H	1.042937	1.230368	0.333391
H300	H	1.376270	1.563701	0.666724
H301	H	0.907225	0.514941	0.079555
H302	H	1.240559	0.848275	0.412888
H303	H	1.573892	1.181608	0.746222
Br304	Br	0.842170	-0.056678	0.592931
Br305	Br	1.175503	0.276656	0.926264
Br306	Br	1.508836	0.609989	1.259598
Br307	Br	0.967404	0.434448	-0.000056
Br308	Br	1.300738	0.767781	0.333277
Br309	Br	1.634071	1.101114	0.666610
Br310	Br	0.931919	-0.019119	0.835936
Br311	Br	1.265252	0.314214	1.169270
Br312	Br	1.598586	0.647547	1.502603
