data_functionalizedCrystal
_audit_creation_method	'MofGen! by Chris Wilmer'
_symmetry_space_group_name_H-M	'P1'
_symmetry_Int_Tables_number	1
_symmetry_cell_setting	triclinic
loop_
_symmetry_equiv_pos_as_xyz
  x,y,z
_cell_length_a	12.759401
_cell_length_b	17.640280
_cell_length_c	12.759393
_cell_angle_alpha	78.768513
_cell_angle_beta	89.979527
_cell_angle_gamma	78.802151
loop_
_atom_site_label
_atom_site_type_symbol
_atom_site_fract_x
_atom_site_fract_y
_atom_site_fract_z
Zn1	Zn	1.690813	-0.314593	-0.509563
Zn2	Zn	1.726235	-0.446788	-0.298394
Zn3	Zn	1.515125	-0.314637	-0.333887
Zn4	Zn	1.550618	-0.446732	-0.474046
O5	O	1.620698	-0.380688	-0.403972
O6	O	1.842534	-0.332135	-0.481561
O7	O	1.698201	-0.429300	-0.156069
O8	O	1.508752	-0.204025	-0.386908
O9	O	1.868559	-0.429258	-0.326416
O10	O	1.637830	-0.203993	-0.515977
O11	O	1.543099	-0.332209	-0.182146
O12	O	1.372811	-0.332154	-0.352469
O13	O	1.569245	-0.429162	-0.625790
O14	O	1.398887	-0.429204	-0.455443
O15	O	1.672246	-0.332080	-0.651884
O16	O	1.732617	-0.557387	-0.291976
O17	O	1.603592	-0.557345	-0.421027
C18	C	1.347728	-0.380678	-0.403954
C19	C	1.230955	-0.380693	-0.403966
C20	C	1.675828	-0.586045	-0.348819
C21	C	1.699509	-0.673898	-0.325260
C22	C	1.189719	-0.431303	-0.457458
C23	C	1.079996	-0.431306	-0.457478
C24	C	1.052754	-0.330086	-0.350505
C25	C	1.162474	-0.330080	-0.350492
C26	C	1.441226	-0.962864	-0.583334
C27	C	1.463480	-1.045415	-0.561163
C28	C	1.597917	-1.045393	-0.426918
C29	C	1.575678	-0.962840	-0.449081
C30	C	1.497330	-0.921583	-0.527290
C31	C	1.631782	-0.921559	-0.393037
C32	C	1.609541	-0.839013	-0.415196
C33	C	1.531194	-0.797749	-0.493398
C34	C	1.475088	-0.839037	-0.549448
C35	C	1.710124	-0.962818	-0.314824
C36	C	1.766229	-0.921536	-0.258780
C37	C	1.743993	-0.838989	-0.280943
C38	C	1.665647	-0.797725	-0.359145
C39	C	1.800099	-0.797702	-0.224893
C40	C	1.777857	-0.715156	-0.247051
C41	C	1.643405	-0.715180	-0.381304
C42	C	1.894734	-0.380698	-0.403991
C43	C	2.011512	-0.380702	-0.403999
C44	C	1.620753	-0.380610	-0.678027
C45	C	1.620777	-0.380577	-0.794812
C46	C	1.565381	-0.174528	-0.459364
C47	C	1.541808	-0.086675	-0.482968
C48	C	1.674426	-0.329988	-0.973005
C49	C	1.674414	-0.330019	-0.863272
C50	C	1.567157	-0.431112	-0.836088
C51	C	1.567176	-0.431085	-0.945817
C52	C	1.620688	-0.380708	-0.130999
C53	C	1.620808	-0.380519	-0.014274
H54	H	1.245474	-0.472514	-0.501004
O55	O	1.731833	-1.043003	-0.293132
C56	C	1.837564	-1.161445	-0.187707
C57	C	1.813070	-1.070638	-0.212148
H58	H	1.903261	-1.183815	-0.122246
H59	H	1.762311	-1.183958	-0.159734
H60	H	1.865302	-1.183789	-0.263114
H61	H	1.785358	-1.048226	-0.136784
H62	H	1.888346	-1.048178	-0.240165
O63	O	1.842451	-0.961536	-0.182887
C64	C	2.027988	-0.986763	-0.125323
C65	C	1.941767	-0.941400	-0.211337
H66	H	2.108310	-0.970512	-0.148306
H67	H	2.005311	-0.970566	-0.044920
H68	H	2.034183	-1.052847	-0.119101
H69	H	1.935529	-0.875306	-0.217656
H70	H	1.964480	-0.957662	-0.291696
O71	O	1.399129	-0.798912	-0.625548
C72	C	1.359806	-0.705614	-0.792370
C73	C	1.445933	-0.751022	-0.706285
H74	H	1.397610	-0.666872	-0.857656
H75	H	1.323532	-0.749256	-0.828722
H76	H	1.294489	-0.667056	-0.754412
H77	H	1.511314	-0.789582	-0.744161
H78	H	1.482122	-0.707338	-0.669941
H79	H	0.996983	-0.288880	-0.306967
H80	H	1.718095	-0.288813	-1.028740
H81	H	1.513079	-0.730535	-0.511430
O82	O	1.365066	-0.922902	-0.659322
C83	C	1.234132	-0.931625	-0.790227
C84	C	1.320325	-0.976981	-0.704181
H85	H	1.197949	-0.975329	-0.826536
H86	H	1.168752	-0.893049	-0.752362
H87	H	1.271943	-0.892911	-0.855541
H88	H	1.282610	-1.015739	-0.638841
H89	H	1.385694	-1.015508	-0.742125
H90	H	1.046428	-0.472518	-0.501039
H91	H	1.196046	-0.288861	-0.306933
O92	O	1.567385	-0.675178	-0.457409
C93	C	1.509538	-0.649822	-0.642892
C94	C	1.595686	-0.695190	-0.556807
H95	H	1.532400	-0.665972	-0.723280
H96	H	1.429198	-0.666116	-0.620097
H97	H	1.503275	-0.583739	-0.649039
H98	H	1.602046	-0.761283	-0.550617
H99	H	1.675981	-0.678830	-0.579638
O100	O	1.832324	-0.675135	-0.192445
C101	C	1.876565	-0.649876	-0.020556
C102	C	1.814855	-0.695265	-0.082268
H103	H	1.862445	-0.666122	0.068530
H104	H	1.965651	-0.666056	-0.034648
H105	H	1.847221	-0.583796	-0.049881
H106	H	1.844108	-0.761355	-0.052981
H107	H	1.725779	-0.679019	-0.068175
O108	O	1.876317	-0.837701	-0.148995
C109	C	2.061850	-0.862930	-0.091416
C110	C	1.975636	-0.817568	-0.177438
H111	H	2.142174	-0.846682	-0.114393
H112	H	2.039166	-0.846729	-0.011016
H113	H	2.068042	-0.929014	-0.085189
H114	H	1.969400	-0.751473	-0.183761
H115	H	1.998356	-0.833834	-0.257793
H116	H	1.523491	-0.472281	-0.780338
H117	H	1.417799	-1.079024	-0.606819
H118	H	1.523514	-0.472237	-0.979417
O119	O	1.726509	-0.280857	-0.823367
C120	C	1.832944	-0.180614	-0.861909
C121	C	1.773964	-0.236237	-0.907245
H122	H	1.871345	-0.144536	-0.929699
H123	H	1.773647	-0.139245	-0.821677
H124	H	1.897570	-0.216929	-0.800761
H125	H	1.709340	-0.199986	-0.968432
H126	H	1.833326	-0.277609	-0.947410
H127	H	1.661705	-1.078997	-0.363238
