data_functionalizedCrystal
_audit_creation_method	'MofGen! by Chris Wilmer'
_symmetry_space_group_name_H-M	'P1'
_symmetry_Int_Tables_number	1
_symmetry_cell_setting	triclinic
loop_
_symmetry_equiv_pos_as_xyz
  x,y,z
_cell_length_a	12.811438
_cell_length_b	23.532357
_cell_length_c	11.892095
_cell_angle_alpha	93.858312
_cell_angle_beta	91.498957
_cell_angle_gamma	83.440454
loop_
_atom_site_label
_atom_site_type_symbol
_atom_site_fract_x
_atom_site_fract_y
_atom_site_fract_z
O1	O	1.388363	0.078581	0.048330
O2	O	1.084927	0.085720	0.017215
O3	O	1.245821	-0.000696	0.033737
O4	O	1.227469	0.164996	0.031809
O5	O	1.232406	0.006498	0.220367
O6	O	1.071512	0.092914	0.203845
O7	O	1.374948	0.085775	0.234960
Zn8	Zn	1.221100	0.090486	0.249034
Zn9	Zn	1.238775	0.081008	0.003141
O10	O	1.214055	0.172190	0.218439
C11	C	1.039407	0.088695	0.106551
C12	C	0.923757	0.086838	0.094693
C13	C	0.768062	0.080298	-0.023740
C14	C	0.876726	0.082043	-0.012608
C15	C	0.862115	0.089886	0.190868
C16	C	0.753451	0.088142	0.179736
C17	C	0.706428	0.083348	0.072429
C18	C	0.597761	0.081608	0.061297
C19	C	0.583153	0.089447	0.264772
C20	C	0.691817	0.091192	0.275904
C21	C	1.238654	-0.018320	0.127008
C22	C	1.237273	-0.081551	0.126877
C23	C	1.235924	-0.477568	0.024196
C24	C	1.234612	-0.536980	0.024055
O25	O	1.240117	-0.571038	-0.062537
N26	N	1.226649	-0.562776	0.125719
C27	C	1.219987	-0.529156	0.227529
O28	O	1.213092	-0.556553	0.313989
C29	C	1.221291	-0.469744	0.227668
C30	C	1.229265	-0.443952	0.125999
C31	C	1.243896	-0.451775	-0.077465
C32	C	1.245210	-0.392368	-0.077324
C33	C	1.238551	-0.358752	0.024479
C34	C	1.230579	-0.384544	0.126141
C35	C	1.214621	-0.436125	0.329477
C36	C	1.215926	-0.376710	0.329607
C37	C	1.223900	-0.350918	0.227938
C38	C	1.225234	-0.291521	0.228085
N39	N	1.233197	-0.265725	0.126421
C40	C	1.239855	-0.299341	0.024618
C41	C	1.217247	-0.653924	0.227229
C42	C	1.215950	-0.713335	0.227092
C43	C	1.230573	-0.721155	0.023618
C44	C	1.231878	-0.661743	0.023757
C45	C	1.225210	-0.628128	0.125566
C46	C	1.242614	-0.174580	0.024923
C47	C	1.243932	-0.115166	0.025074
C48	C	1.229302	-0.107351	0.228548
C49	C	1.227991	-0.166760	0.228398
C50	C	1.234644	-0.200372	0.126576
O51	O	1.219728	-0.257427	0.314633
O52	O	1.246735	-0.271935	-0.061829
C53	C	1.420469	0.082799	0.145622
C54	C	1.536119	0.084656	0.157473
C55	C	1.221221	0.189814	0.125165
C56	C	1.222603	0.253045	0.125288
N57	N	1.209045	0.096955	0.416850
N58	N	1.250838	0.074535	-0.164674
C59	C	1.334722	0.029492	0.666404
C60	C	1.326303	0.034018	0.783881
C61	C	1.183785	0.110528	0.769284
C62	C	1.192204	0.106003	0.651807
C63	C	1.267676	0.065484	0.600371
C64	C	1.276099	0.060962	0.482892
C65	C	1.133576	0.137469	0.468297
C66	C	1.125157	0.141994	0.585774
H67	H	0.532958	0.091933	0.343080
Cl68	Cl	1.208873	-0.611671	0.355233
H69	H	0.559476	0.077708	-0.026078
Cl70	Cl	1.088901	0.161457	0.833958
H71	H	1.250428	-0.094170	-0.057720
H72	H	1.248027	-0.201940	-0.057990
H73	H	0.729774	0.076402	-0.111114
H74	H	0.926905	0.079560	-0.090918
Cl75	Cl	0.921248	0.095911	0.325757
Cl76	Cl	1.429609	-0.021438	0.601741
H77	H	0.730119	0.095092	0.363271
H78	H	1.380898	0.004709	0.837642
Cl79	Cl	1.255225	-0.359952	-0.205145
Cl80	Cl	1.204590	-0.468534	0.457298
Cl81	Cl	1.252270	-0.494025	-0.205464
H82	H	1.238369	-0.640748	-0.059032
Cl83	Cl	1.238936	-0.763425	-0.104365
Cl84	Cl	1.205945	-0.745753	0.354913
Cl85	Cl	1.030280	0.192929	0.650445
Cl86	Cl	1.207543	-0.334454	0.457604
Cl87	Cl	1.217986	-0.199186	0.356214
Cl88	Cl	1.220932	-0.065081	0.356522
Cl89	Cl	1.370979	0.010026	0.418232
Cl90	Cl	1.049292	0.182721	0.385274
