data_functionalizedCrystal
_audit_creation_method	'MofGen! by Chris Wilmer'
_symmetry_space_group_name_H-M	'P1'
_symmetry_Int_Tables_number	1
_symmetry_cell_setting	triclinic
loop_
_symmetry_equiv_pos_as_xyz
  x,y,z
_cell_length_a	10.723024
_cell_length_b	17.019294
_cell_length_c	9.798715
_cell_angle_alpha	86.117884
_cell_angle_beta	89.996609
_cell_angle_gamma	83.929829
loop_
_atom_site_label
_atom_site_type_symbol
_atom_site_fract_x
_atom_site_fract_y
_atom_site_fract_z
O1	O	1.655492	0.110636	-0.126482
O2	O	1.292177	0.121226	-0.127731
O3	O	1.483970	0.001154	-0.113611
O4	O	1.463699	0.230709	-0.140602
O5	O	1.483956	0.001153	0.113371
O6	O	1.292163	0.121226	0.099251
O7	O	1.655478	0.110636	0.100500
Zn8	Zn	1.473818	0.115931	0.135914
Zn9	Zn	1.473837	0.115931	-0.163145
O10	O	1.463685	0.230709	0.086380
C11	C	1.245683	0.120456	-0.014150
C12	C	1.107164	0.118150	-0.013880
C13	C	1.031152	0.185336	-0.021781
C14	C	0.887985	0.182955	-0.021503
C15	C	1.483194	-0.028240	0.003333
C16	C	1.480888	-0.115823	0.013622
C17	C	1.479816	-0.156965	-0.105271
C18	C	1.477641	-0.239257	-0.095599
C19	C	1.476548	-0.280407	0.032967
C20	C	1.477617	-0.239259	0.151869
C21	C	1.479783	-0.156967	0.142196
C22	C	1.470001	-0.528875	0.068364
C23	C	1.467839	-0.611173	0.078029
C24	C	1.467861	-0.611165	-0.169441
C25	C	1.470034	-0.528872	-0.179103
C26	C	1.471096	-0.487731	-0.060201
C27	C	1.474330	-0.364524	0.042857
C28	C	1.473306	-0.403615	-0.070092
C29	C	1.701973	0.111407	-0.013084
C30	C	1.840492	0.113713	-0.013362
C31	C	1.464461	0.260102	-0.030567
C32	C	1.466767	0.347685	-0.040865
N33	N	1.473815	0.115930	0.340014
N34	N	1.473851	0.115926	-0.367244
C35	C	1.554346	0.065293	0.413745
C36	C	1.554367	0.065290	0.570909
H37	H	0.905798	0.056193	-0.006607
H38	H	0.822671	0.240471	-0.028272
H39	H	1.072065	0.244620	-0.028744
H40	H	1.470926	-0.495374	-0.283796
Cl41	Cl	1.466473	-0.662904	0.239667
Cl42	Cl	1.660496	-0.001819	0.331599
H43	H	1.466994	-0.644671	-0.266244
Cl44	Cl	1.660827	-0.001642	0.668762
H45	H	1.404878	0.159278	0.393241
Cl46	Cl	1.044008	0.026615	-0.003108
H47	H	1.470891	-0.495390	0.165183
H48	H	1.480713	-0.123467	-0.209964
H49	H	1.404905	0.159284	0.569381
H50	H	1.476720	-0.272770	0.256551
H51	H	1.476773	-0.272752	-0.192415
H52	H	1.474188	-0.370107	-0.174770
Cl53	Cl	1.481130	-0.105246	0.291669
H54	H	1.473444	-0.398038	0.147536
