data_functionalizedCrystal
_audit_creation_method	'MofGen! by Chris Wilmer'
_symmetry_space_group_name_H-M	'P1'
_symmetry_Int_Tables_number	1
_symmetry_cell_setting	triclinic
loop_
_symmetry_equiv_pos_as_xyz
  x,y,z
_cell_length_a	19.805407
_cell_length_b	12.827892
_cell_length_c	19.805399
_cell_angle_alpha	90.022719
_cell_angle_beta	90.017803
_cell_angle_gamma	90.012708
loop_
_atom_site_label
_atom_site_type_symbol
_atom_site_fract_x
_atom_site_fract_y
_atom_site_fract_z
Zn1	Zn	1.034787	-0.416132	0.382711
Zn2	Zn	1.534787	0.083868	0.882711
Zn3	Zn	1.034724	-0.590887	0.269532
Zn4	Zn	1.534724	-0.090887	0.769532
Zn5	Zn	0.921602	-0.416153	0.269539
Zn6	Zn	1.421602	0.083847	0.769539
Zn7	Zn	0.921587	-0.590824	0.382682
Zn8	Zn	1.421587	-0.090824	0.882682
O9	O	0.978175	-0.503499	0.326116
O10	O	1.478175	-0.003499	0.826116
O11	O	1.129496	-0.439332	0.367706
O12	O	1.629496	0.060668	0.867706
O13	O	1.019698	-0.567744	0.174816
O14	O	1.519698	-0.067744	0.674816
O15	O	0.936649	-0.269914	0.284566
O16	O	1.436649	0.230086	0.784566
O17	O	1.129449	-0.567724	0.284554
O18	O	1.629449	-0.067724	0.784554
O19	O	1.019806	-0.269899	0.367713
O20	O	1.519806	0.230101	0.867713
O21	O	0.936588	-0.439367	0.174821
O22	O	1.436588	0.060633	0.674821
O23	O	0.826884	-0.439305	0.284538
O24	O	1.326884	0.060695	0.784538
O25	O	0.936624	-0.567615	0.477403
O26	O	1.436624	-0.067615	0.977403
O27	O	0.826873	-0.567635	0.367664
O28	O	1.326873	-0.067635	0.867664
O29	O	1.019792	-0.439270	0.477423
O30	O	1.519792	0.060730	0.977423
O31	O	1.019684	-0.737115	0.284527
O32	O	1.519684	-0.237115	0.784527
O33	O	0.936563	-0.737068	0.367658
O34	O	1.436563	-0.237068	0.867658
C35	C	0.802319	-0.503466	0.326099
C36	C	1.302319	-0.003466	0.826099
C37	C	0.727087	-0.503477	0.326108
C38	C	1.227087	-0.003477	0.826108
C39	C	0.691768	-0.436742	0.369471
C40	C	1.191768	0.063258	0.869471
C41	C	0.621080	-0.436747	0.369474
C42	C	1.121080	0.063253	0.869474
C43	C	0.585712	-0.503494	0.326117
C44	C	1.085712	-0.003494	0.826117
C45	C	0.621036	-0.570233	0.282749
C46	C	1.121036	-0.070233	0.782749
C47	C	0.691723	-0.570221	0.282743
C48	C	1.191723	-0.070221	0.782743
C49	C	0.335963	-0.570280	0.282769
C50	C	0.835963	-0.070280	0.782769
C51	C	0.265271	-0.570288	0.282780
C52	C	0.765271	-0.070288	0.782780
C53	C	0.265319	-0.436806	0.369500
C54	C	0.765319	0.063194	0.869500
C55	C	0.336006	-0.436794	0.369495
C56	C	0.836006	0.063206	0.869495
C57	C	0.371324	-0.503528	0.326125
C58	C	0.871324	-0.003528	0.826125
C59	C	0.447973	-0.503520	0.326122
C60	C	0.947973	-0.003520	0.826122
C61	C	0.509065	-0.503509	0.326123
C62	C	1.009065	-0.003509	0.826123
C63	C	0.978133	-0.775009	0.326103
C64	C	1.478133	-0.275009	0.826103
C65	C	0.978177	-0.891162	0.326121
C66	C	1.478177	-0.391162	0.826121
C67	C	1.019307	-0.942856	0.367301
C68	C	1.519307	-0.442856	0.867301
C69	C	1.019353	-1.062906	0.367320
C70	C	1.519353	-0.562906	0.867320
C71	C	1.154718	-0.503533	0.326133
C72	C	1.654718	-0.003533	0.826133
C73	C	1.229950	-0.503547	0.326140
C74	C	1.729950	-0.003547	0.826140
C75	C	0.978213	-0.503433	0.502659
C76	C	1.478213	-0.003433	1.002659
C77	C	0.978229	-0.503405	0.577891
C78	C	1.478229	-0.003405	1.077891
C79	C	0.978236	-0.230929	0.326143
C80	C	1.478236	0.269071	0.826143
C81	C	0.978262	-0.114776	0.326155
C82	C	1.478262	0.385224	0.826155
C83	C	0.978176	-0.503489	0.150260
C84	C	1.478176	-0.003489	0.650260
C85	C	0.978291	-0.503223	0.075028
C86	C	1.478291	-0.003223	0.575028
C87	C	1.021536	-0.436572	0.613247
C88	C	1.521536	0.063428	1.113247
C89	C	1.021543	-0.436542	0.683935
C90	C	1.521543	0.063458	1.183935
C91	C	0.978246	-0.503350	0.719266
C92	C	1.478246	-0.003350	1.219266
C93	C	0.934935	-0.570186	0.683905
C94	C	1.434935	-0.070186	1.183905
C95	C	0.934925	-0.570210	0.613218
C96	C	1.434925	-0.070210	1.113218
C97	C	0.934973	-0.570089	0.968979
C98	C	1.434973	-0.070089	1.468979
C99	C	0.934988	-0.570061	1.039671
C100	C	1.434988	-0.070061	1.539671
C101	C	1.021591	-0.436420	1.039696
C102	C	1.521591	0.063580	1.539696
C103	C	1.021581	-0.436445	0.969009
C104	C	1.521581	0.063555	1.469009
C105	C	0.978268	-0.503276	0.933654
C106	C	1.478268	-0.003276	1.433654
C107	C	0.978260	-0.503307	0.857005
C108	C	1.478260	-0.003307	1.357005
C109	C	0.978257	-0.503326	0.795913
C110	C	1.478257	-0.003326	1.295913
H111	H	0.720560	-0.382391	0.404780
H112	H	1.220560	0.117609	0.904780
Br113	Br	1.078054	-1.136995	0.426081
Br114	Br	1.578054	-0.636995	0.926081
Br115	Br	0.919533	-0.965520	0.267383
Br116	Br	1.419533	-0.465520	0.767383
H117	H	0.364710	-0.624620	0.247456
H118	H	0.864710	-0.124620	0.747456
H119	H	0.592234	-0.624574	0.247443
H120	H	1.092234	-0.124574	0.747443
Br121	Br	1.080304	-0.345907	0.565304
Br122	Br	1.580304	0.154093	1.065304
H123	H	1.056809	-0.382123	0.712719
H124	H	1.556809	0.117877	1.212719
H125	H	1.054484	-0.898239	0.402547
H126	H	1.554484	-0.398239	0.902547
Br127	Br	0.876190	-0.660786	0.921006
Br128	Br	1.376190	-0.160786	1.421006
Br129	Br	0.876170	-0.660850	0.731854
Br130	Br	1.376170	-0.160850	1.231854
H131	H	0.943049	-1.070328	0.290894
H132	H	1.443049	-0.570328	0.790894
Br133	Br	0.876146	-0.660909	0.565234
Br134	Br	1.376146	-0.160909	1.065234
H135	H	1.056840	-0.382046	0.940246
H136	H	1.556840	0.117954	1.440246
H137	H	1.056856	-0.382000	1.068490
H138	H	1.556856	0.118000	1.568490
Br139	Br	0.573149	-0.346175	0.428327
Br140	Br	1.073149	0.153825	0.928327
Br141	Br	0.739657	-0.660793	0.223890
Br142	Br	1.239657	-0.160793	0.723890
H143	H	0.899728	-0.624467	1.068435
H144	H	1.399728	-0.124467	1.568435
H145	H	0.364799	-0.382446	0.404803
H146	H	0.864799	0.117554	0.904803
H147	H	0.236555	-0.382464	0.404812
H148	H	0.736555	0.117536	0.904812
Br149	Br	0.217271	-0.660880	0.223933
Br150	Br	0.717271	-0.160880	0.723933
