data_functionalizedCrystal
_audit_creation_method	'MofGen! by Chris Wilmer'
_symmetry_space_group_name_H-M	'P1'
_symmetry_Int_Tables_number	1
_symmetry_cell_setting	triclinic
loop_
_symmetry_equiv_pos_as_xyz
  x,y,z
_cell_length_a	19.077068
_cell_length_b	18.215407
_cell_length_c	18.215399
_cell_angle_alpha	89.982223
_cell_angle_beta	87.731836
_cell_angle_gamma	87.677405
loop_
_atom_site_label
_atom_site_type_symbol
_atom_site_fract_x
_atom_site_fract_y
_atom_site_fract_z
Zn1	Zn	-0.280290	-1.113284	0.427832
Zn2	Zn	-0.030290	-0.863284	0.677832
Zn3	Zn	0.219710	-0.613284	0.927832
Zn4	Zn	0.469710	-0.363284	1.177832
Zn5	Zn	-0.397991	-1.108243	0.309703
Zn6	Zn	-0.147991	-0.858243	0.559703
Zn7	Zn	0.102009	-0.608243	0.809703
Zn8	Zn	0.352009	-0.358243	1.059703
Zn9	Zn	-0.280303	-0.990216	0.304785
Zn10	Zn	-0.030303	-0.740216	0.554785
Zn11	Zn	0.219697	-0.490216	0.804785
Zn12	Zn	0.469697	-0.240216	1.054785
Zn13	Zn	-0.397942	-0.985235	0.432730
Zn14	Zn	-0.147942	-0.735235	0.682730
Zn15	Zn	0.102058	-0.485235	0.932730
Zn16	Zn	0.352058	-0.235235	1.182730
O17	O	-0.339132	-1.049244	0.368763
O18	O	-0.089132	-0.799244	0.618763
O19	O	0.160868	-0.549244	0.868763
O20	O	0.410868	-0.299244	1.118763
O21	O	-0.295918	-1.215599	0.412171
O22	O	-0.045918	-0.965599	0.662171
O23	O	0.204082	-0.715599	0.912171
O24	O	0.454082	-0.465599	1.162171
O25	O	-0.382406	-1.092561	0.206068
O26	O	-0.132406	-0.842561	0.456068
O27	O	0.117594	-0.592561	0.706068
O28	O	0.367594	-0.342561	0.956068
O29	O	-0.181811	-1.010736	0.316999
O30	O	0.068189	-0.760736	0.566999
O31	O	0.318189	-0.510736	0.816999
O32	O	0.568189	-0.260736	1.066999
O33	O	-0.382393	-1.211895	0.325382
O34	O	-0.132393	-0.961895	0.575382
O35	O	0.117607	-0.711895	0.825382
O36	O	0.367607	-0.461895	1.075382
O37	O	-0.181801	-1.101154	0.407402
O38	O	0.068199	-0.851154	0.657402
O39	O	0.318199	-0.601154	0.907402
O40	O	0.568199	-0.351154	1.157402
O41	O	-0.295941	-1.005847	0.202454
O42	O	-0.045941	-0.755847	0.452454
O43	O	0.204059	-0.505847	0.702454
O44	O	0.454059	-0.255847	0.952454
O45	O	-0.295893	-0.886572	0.321749
O46	O	-0.045893	-0.636572	0.571749
O47	O	0.204107	-0.386572	0.821749
O48	O	0.454107	-0.136572	1.071749
O49	O	-0.382309	-1.002246	0.535064
O50	O	-0.132309	-0.752246	0.785064
O51	O	0.117691	-0.502246	1.035064
O52	O	0.367691	-0.252246	1.285064
O53	O	-0.382322	-0.882912	0.415750
O54	O	-0.132322	-0.632912	0.665750
O55	O	0.117678	-0.382912	0.915750
O56	O	0.367678	-0.132912	1.165750
O57	O	-0.295871	-1.096323	0.531465
O58	O	-0.045871	-0.846323	0.781465
O59	O	0.204129	-0.596323	1.031465
O60	O	0.454129	-0.346323	1.281465
O61	O	-0.496476	-1.087731	0.330131
O62	O	-0.246476	-0.837731	0.580131
O63	O	0.003524	-0.587731	0.830131
O64	O	0.253524	-0.337731	1.080131
O65	O	-0.496440	-0.997357	0.420519
O66	O	-0.246440	-0.747357	0.670519
O67	O	0.003560	-0.497357	0.920519
O68	O	0.253560	-0.247357	1.170519
C69	C	-0.339104	-0.858039	0.368747
C70	C	-0.089104	-0.608039	0.618747
C71	C	0.160896	-0.358039	0.868747
C72	C	0.410896	-0.108039	1.118747
C73	C	-0.339110	-0.776240	0.368759
C74	C	-0.089110	-0.526240	0.618759
C75	C	0.160890	-0.276240	0.868759
C76	C	0.410890	-0.026240	1.118759
C77	C	-0.294169	-0.589970	0.414027
C78	C	-0.044169	-0.339970	0.664027
C79	C	0.205831	-0.089970	0.914027
C80	C	0.455831	0.160030	1.164027
C81	C	-0.294173	-0.513111	0.414029
C82	C	-0.044173	-0.263111	0.664029
C83	C	0.205827	-0.013111	0.914029
C84	C	0.455827	0.236889	1.164029
C85	C	-0.384084	-0.509271	0.323504
C86	C	-0.134084	-0.259271	0.573504
C87	C	0.115916	-0.009271	0.823504
C88	C	0.365916	0.240729	1.073504
C89	C	-0.384076	-0.586129	0.323499
C90	C	-0.134076	-0.336129	0.573499
C91	C	0.115924	-0.086129	0.823499
C92	C	0.365924	0.163871	1.073499
C93	C	-0.339120	-0.626476	0.368764
C94	C	-0.089120	-0.376476	0.618764
C95	C	0.160880	-0.126476	0.868764
C96	C	0.410880	0.123524	1.118764
C97	C	-0.339131	-0.472760	0.368772
C98	C	-0.089131	-0.222760	0.618772
C99	C	0.160869	0.027240	0.868772
C100	C	0.410869	0.277240	1.118772
C101	C	-0.339136	-0.389426	0.368774
C102	C	-0.089136	-0.139426	0.618774
C103	C	0.160864	0.110574	0.868774
C104	C	0.410864	0.360574	1.118774
C105	C	-0.339114	-0.709815	0.368761
C106	C	-0.089114	-0.459815	0.618761
C107	C	0.160886	-0.209815	0.868761
C108	C	0.410886	0.040185	1.118761
C109	C	-0.521995	-1.041476	0.376406
C110	C	-0.271995	-0.791476	0.626406
C111	C	-0.021995	-0.541476	0.876406
C112	C	0.228005	-0.291476	1.126406
C113	C	-0.600225	-1.038220	0.379701
C114	C	-0.350225	-0.788220	0.629701
C115	C	-0.100225	-0.538220	0.879701
C116	C	0.149775	-0.288220	1.129701
C117	C	-0.636973	-1.083780	0.334228
C118	C	-0.386973	-0.833780	0.584228
C119	C	-0.136973	-0.583780	0.834228
C120	C	0.113027	-0.333780	1.084228
C121	C	-0.710478	-1.080722	0.337331
C122	C	-0.460478	-0.830722	0.587331
C123	C	-0.210478	-0.580722	0.837331
C124	C	0.039522	-0.330722	1.087331
C125	C	-0.747234	-1.032100	0.385904
C126	C	-0.497234	-0.782100	0.635904
C127	C	-0.247234	-0.532100	0.885904
C128	C	0.002766	-0.282100	1.135904
C129	C	-0.710481	-0.986539	0.431382
C130	C	-0.460481	-0.736539	0.681382
C131	C	-0.210481	-0.486539	0.931382
C132	C	0.039519	-0.236539	1.181382
C133	C	-0.636977	-0.989601	0.428282
C134	C	-0.386977	-0.739601	0.678282
C135	C	-0.136977	-0.489601	0.928282
C136	C	0.113023	-0.239601	1.178282
C137	C	-0.967067	-1.017896	0.400221
C138	C	-0.717067	-0.767896	0.650221
C139	C	-0.467067	-0.517896	0.900221
C140	C	-0.217067	-0.267896	1.150221
C141	C	-1.040576	-1.014835	0.403315
C142	C	-0.790576	-0.764835	0.653315
C143	C	-0.540576	-0.514835	0.903315
C144	C	-0.290576	-0.264835	1.153315
C145	C	-1.040569	-1.109020	0.309265
C146	C	-0.790569	-0.859020	0.559265
C147	C	-0.540569	-0.609020	0.809265
C148	C	-0.290569	-0.359020	1.059265
C149	C	-0.967063	-1.112074	0.306166
C150	C	-0.717063	-0.862074	0.556166
C151	C	-0.467063	-0.612074	0.806166
C152	C	-0.217063	-0.362074	1.056166
C153	C	-0.930317	-1.066516	0.351647
C154	C	-0.680317	-0.816516	0.601647
C155	C	-0.430317	-0.566516	0.851647
C156	C	-0.180317	-0.316516	1.101647
N157	N	-0.822368	-1.028971	0.389075
N158	N	-0.572368	-0.778971	0.639075
N159	N	-0.322368	-0.528971	0.889075
N160	N	-0.072368	-0.278971	1.139075
N161	N	-0.855184	-1.069649	0.348479
N162	N	-0.605184	-0.819649	0.598479
N163	N	-0.355184	-0.569649	0.848479
N164	N	-0.105184	-0.319649	1.098479
C165	C	-0.155554	-1.057063	0.361105
C166	C	0.094446	-0.807063	0.611105
C167	C	0.344446	-0.557063	0.861105
C168	C	0.594446	-0.307063	1.111105
C169	C	-0.077324	-1.060395	0.357842
C170	C	0.172676	-0.810395	0.607842
C171	C	0.422676	-0.560395	0.857842
C172	C	0.672676	-0.310395	1.107842
C173	C	-0.339083	-1.049291	0.560714
C174	C	-0.089083	-0.799291	0.810714
C175	C	0.160917	-0.549291	1.060714
C176	C	0.410917	-0.299291	1.310714
C177	C	-0.339063	-1.049311	0.642512
C178	C	-0.089063	-0.799311	0.892512
C179	C	0.160937	-0.549311	1.142512
C180	C	0.410937	-0.299311	1.392512
C181	C	-0.339152	-0.241196	0.368777
C182	C	-0.089152	0.008804	0.618777
C183	C	0.160848	0.258804	0.868777
C184	C	0.410848	0.508804	1.118777
C185	C	-0.339141	-0.322996	0.368777
C186	C	-0.089141	-0.072996	0.618777
C187	C	0.160859	0.177004	0.868777
C188	C	0.410859	0.427004	1.118777
C189	C	-0.339129	-1.049242	0.177556
C190	C	-0.089129	-0.799242	0.427556
C191	C	0.160871	-0.549242	0.677556
C192	C	0.410871	-0.299242	0.927556
C193	C	-0.338952	-1.049373	0.095750
C194	C	-0.088952	-0.799373	0.345750
C195	C	0.161048	-0.549373	0.595750
C196	C	0.411048	-0.299373	0.845750
C197	C	-0.294012	-1.098316	0.828831
C198	C	-0.044012	-0.848316	1.078831
C199	C	0.205988	-0.598316	1.328831
C200	C	0.455988	-0.348316	1.578831
C201	C	-0.293991	-1.098326	0.905689
C202	C	-0.043991	-0.848326	1.155689
C203	C	0.206009	-0.598326	1.405689
C204	C	0.456009	-0.348326	1.655689
C205	C	-0.384004	-1.000363	0.909425
C206	C	-0.134004	-0.750363	1.159425
C207	C	0.115996	-0.500363	1.409425
C208	C	0.365996	-0.250363	1.659425
C209	C	-0.384021	-1.000350	0.832569
C210	C	-0.134021	-0.750350	1.082569
C211	C	0.115979	-0.500350	1.332569
C212	C	0.365979	-0.250350	1.582569
C213	C	-0.339026	-1.049331	0.792274
C214	C	-0.089026	-0.799331	1.042274
C215	C	0.160974	-0.549331	1.292274
C216	C	0.410974	-0.299331	1.542274
C217	C	-0.338989	-1.049353	0.945988
C218	C	-0.088989	-0.799353	1.195988
C219	C	0.161011	-0.549353	1.445988
C220	C	0.411011	-0.299353	1.695988
C221	C	-0.338967	-1.049363	1.029321
C222	C	-0.088967	-0.799363	1.279321
C223	C	0.161033	-0.549363	1.529321
C224	C	0.411033	-0.299363	1.779321
C225	C	-0.339046	-1.049320	0.708936
C226	C	-0.089046	-0.799320	0.958936
C227	C	0.160954	-0.549320	1.208936
C228	C	0.410954	-0.299320	1.458936
H229	H	-0.607051	-1.123369	0.294671
H230	H	-0.357051	-0.873369	0.544671
H231	H	-0.107051	-0.623369	0.794671
H232	H	0.142949	-0.373369	1.044671
H233	H	-0.420639	-0.960486	0.942243
H234	H	-0.170639	-0.710486	1.192243
H235	H	0.079361	-0.460486	1.442243
H236	H	0.329361	-0.210486	1.692243
H237	H	-0.257336	-1.138213	0.935451
H238	H	-0.007336	-0.888213	1.185451
H239	H	0.242664	-0.638213	1.435451
H240	H	0.492664	-0.388213	1.685451
H241	H	-0.257568	-0.483392	0.450885
H242	H	-0.007568	-0.233392	0.700885
H243	H	0.242432	0.016608	0.950885
H244	H	0.492432	0.266608	1.200885
H245	H	-0.420686	-0.476411	0.286651
H246	H	-0.170686	-0.226411	0.536651
H247	H	0.079314	0.023589	0.786651
H248	H	0.329314	0.273589	1.036651
C249	C	-0.244510	-1.152190	0.784509
C250	C	0.005490	-0.902190	1.034509
C251	C	0.255490	-0.652190	1.284509
C252	C	0.505490	-0.402190	1.534509
N253	N	-0.207221	-1.192767	0.751128
N254	N	0.042779	-0.942767	1.001128
N255	N	0.292779	-0.692767	1.251128
N256	N	0.542779	-0.442767	1.501128
C257	C	-0.750898	-1.130836	0.287302
C258	C	-0.500898	-0.880836	0.537302
C259	C	-0.250898	-0.630836	0.787302
C260	C	-0.000898	-0.380836	1.037302
N261	N	-0.781341	-1.168584	0.249616
N262	N	-0.531341	-0.918584	0.499616
N263	N	-0.281341	-0.668584	0.749616
N264	N	-0.031341	-0.418584	0.999616
H265	H	-0.420681	-0.615852	0.286637
H266	H	-0.170681	-0.365852	0.536637
H267	H	0.079319	-0.115852	0.786637
H268	H	0.329319	0.134148	1.036637
H269	H	-0.937138	-1.151666	0.266614
H270	H	-0.687138	-0.901666	0.516614
H271	H	-0.437138	-0.651666	0.766614
H272	H	-0.187138	-0.401666	1.016614
C273	C	-0.433540	-0.946458	0.792353
C274	C	-0.183540	-0.696458	1.042353
C275	C	0.066460	-0.446458	1.292353
C276	C	0.316460	-0.196458	1.542353
N277	N	-0.470834	-0.905866	0.762062
N278	N	-0.220834	-0.655866	1.012062
N279	N	0.029166	-0.405866	1.262062
N280	N	0.279166	-0.155866	1.512062
H281	H	-0.740413	-0.946953	0.470934
H282	H	-0.490413	-0.696953	0.720934
H283	H	-0.240413	-0.446953	0.970934
H284	H	0.009587	-0.196953	1.220934
H285	H	-0.607058	-0.952503	0.465312
H286	H	-0.357058	-0.702503	0.715312
H287	H	-0.107058	-0.452503	0.965312
H288	H	0.142942	-0.202503	1.215312
H289	H	-1.070496	-1.146112	0.272238
H290	H	-0.820496	-0.896112	0.522238
H291	H	-0.570496	-0.646112	0.772238
H292	H	-0.320496	-0.396112	1.022238
C293	C	-0.244710	-0.634350	0.463813
C294	C	0.005290	-0.384350	0.713813
C295	C	0.255290	-0.134350	0.963813
C296	C	0.505290	0.115650	1.213813
N297	N	-0.207453	-0.667775	0.501311
N298	N	0.042547	-0.417775	0.751311
N299	N	0.292547	-0.167775	1.001311
N300	N	0.542547	0.082225	1.251311
H301	H	-1.070501	-0.975250	0.442882
H302	H	-0.820501	-0.725250	0.692882
H303	H	-0.570501	-0.475250	0.942882
H304	H	-0.320501	-0.225250	1.192882
C305	C	-0.926656	-0.967817	0.450289
C306	C	-0.676656	-0.717817	0.700289
C307	C	-0.426656	-0.467817	0.950289
C308	C	-0.176656	-0.217817	1.200289
N309	N	-0.896215	-0.930109	0.488017
N310	N	-0.646215	-0.680109	0.738017
N311	N	-0.396215	-0.430109	0.988017
N312	N	-0.146215	-0.180109	1.238017
