data_functionalizedCrystal
_audit_creation_method	'MofGen! by Chris Wilmer'
_symmetry_space_group_name_H-M	'P1'
_symmetry_Int_Tables_number	1
_symmetry_cell_setting	triclinic
loop_
_symmetry_equiv_pos_as_xyz
  x,y,z
_cell_length_a	10.723023
_cell_length_b	19.188924
_cell_length_c	9.798715
_cell_angle_alpha	89.994789
_cell_angle_beta	89.996770
_cell_angle_gamma	83.804756
loop_
_atom_site_label
_atom_site_type_symbol
_atom_site_fract_x
_atom_site_fract_y
_atom_site_fract_z
O1	O	1.655151	0.097920	-0.113484
O2	O	1.291803	0.107293	-0.113490
O3	O	1.483967	0.001019	-0.113471
O4	O	1.462987	0.204194	-0.113504
O5	O	1.483953	0.001018	0.113511
O6	O	1.291789	0.107293	0.113492
O7	O	1.655137	0.097919	0.113498
Zn8	Zn	1.473461	0.102606	0.149533
Zn9	Zn	1.473479	0.102607	-0.149526
O10	O	1.462973	0.204194	0.113479
C11	C	1.245311	0.106611	-0.000000
C12	C	1.106799	0.104571	-0.000002
C13	C	1.045039	0.103661	0.117581
C14	C	0.901879	0.101552	0.117582
C15	C	1.483282	-0.024997	0.000021
C16	C	1.481247	-0.102515	0.000025
C17	C	1.480305	-0.138920	-0.123703
C18	C	1.478375	-0.211755	-0.123714
C19	C	1.477412	-0.248184	0.000011
C20	C	1.478347	-0.211770	0.123756
C21	C	1.480265	-0.138935	0.123763
N22	N	1.545403	-0.367406	0.092098
N23	N	1.543584	-0.436596	0.092083
C24	C	1.471632	-0.467631	-0.000002
N25	N	1.401583	-0.426863	-0.092092
N26	N	1.403408	-0.357667	-0.092081
C27	C	1.475332	-0.327161	0.000018
C28	C	1.468596	-0.583012	-0.123750
C29	C	1.466658	-0.655848	-0.123755
C30	C	1.466643	-0.655863	0.123718
C31	C	1.468568	-0.583027	0.123719
C32	C	1.469550	-0.546607	-0.000018
C33	C	1.701629	0.098602	0.000005
C34	C	1.840141	0.100642	-0.000002
C35	C	1.463658	0.230210	-0.000017
C36	C	1.465693	0.307728	-0.000029
N37	N	1.473457	0.102606	0.353633
N38	N	1.473493	0.102602	-0.353625
C39	C	1.554145	0.057787	0.421418
C40	C	1.554165	0.057785	0.578581
H41	H	1.481101	-0.109271	-0.224460
C42	C	1.469623	-0.542976	0.259823
C43	C	1.579267	-0.500317	0.293852
C44	C	1.580318	-0.460266	0.429961
C45	C	1.471725	-0.462873	0.532042
C46	C	1.362072	-0.505534	0.498015
C47	C	1.361021	-0.545585	0.361906
H48	H	1.659662	-0.498386	0.218284
H49	H	1.661491	-0.428685	0.455150
H50	H	1.472502	-0.433224	0.632798
H51	H	1.281677	-0.507465	0.573583
H52	H	1.279849	-0.577166	0.336717
C53	C	0.911873	0.101699	-0.136012
C54	C	0.879602	0.161957	-0.238125
C55	C	0.951345	0.163014	-0.374133
C56	C	1.055359	0.103813	-0.408029
C57	C	1.087635	0.043550	-0.305914
C58	C	1.015892	0.042493	-0.169905
H59	H	0.802600	0.205786	-0.213035
H60	H	0.927451	0.207625	-0.449726
H61	H	1.108467	0.104595	-0.508711
H62	H	1.164637	-0.000279	-0.331003
H63	H	1.039786	-0.002118	-0.094312
C64	C	1.465622	-0.695895	-0.259869
C65	C	1.574232	-0.693288	-0.361928
C66	C	1.573198	-0.733334	-0.498044
C67	C	1.463553	-0.775987	-0.532103
C68	C	1.354934	-0.778596	-0.430042
C69	C	1.355969	-0.738549	-0.293925
H70	H	1.655406	-0.661712	-0.336718
H71	H	1.653605	-0.731403	-0.573596
H72	H	1.462787	-0.805632	-0.632864
H73	H	1.273761	-0.810172	-0.455251
H74	H	1.275561	-0.740481	-0.218373
H75	H	1.623251	0.019416	0.636873
H76	H	1.404413	0.140977	0.588091
C77	C	1.380148	0.154443	0.432403
C78	C	1.382174	0.233943	0.412878
C79	C	1.288861	0.285782	0.491643
C80	C	1.193523	0.258122	0.589934
C81	C	1.191493	0.178617	0.609464
C82	C	1.284805	0.126778	0.530698
H83	H	1.452753	0.254423	0.340113
H84	H	1.290365	0.344637	0.477186
H85	H	1.124447	0.296496	0.648241
H86	H	1.120914	0.158138	0.682228
H87	H	1.283302	0.067924	0.545156
C88	C	0.830139	0.100495	0.253585
C89	C	0.833407	0.161277	0.355679
C90	C	0.761665	0.160220	0.491688
C91	C	0.686654	0.098381	0.525603
C92	C	0.683383	0.037594	0.423507
C93	C	0.755125	0.038651	0.287498
H94	H	0.888938	0.207058	0.330575
H95	H	0.764087	0.205218	0.567266
H96	H	0.633546	0.097598	0.626285
H97	H	0.627853	-0.008187	0.448611
H98	H	0.752704	-0.006348	0.211920
H99	H	1.477600	-0.241401	-0.224471
C100	C	1.477291	-0.251839	0.259856
C101	C	1.475191	-0.331955	0.259855
C102	C	1.474128	-0.372022	0.395960
C103	C	1.475165	-0.331974	0.532066
C104	C	1.477266	-0.251853	0.532072
C105	C	1.478329	-0.211786	0.395967
H106	H	1.474423	-0.361605	0.159097
H107	H	1.472573	-0.431333	0.395955
H108	H	1.474379	-0.361634	0.632819
H109	H	1.478034	-0.222203	0.632830
H110	H	1.479884	-0.152475	0.395972
C111	C	1.481311	-0.098887	0.259873
C112	C	1.374305	-0.041403	0.293905
C113	C	1.375355	-0.001353	0.430017
C114	C	1.483412	-0.018787	0.532096
C115	C	1.590426	-0.076274	0.498066
C116	C	1.589376	-0.116324	0.361955
H117	H	1.294308	-0.028494	0.218338
H118	H	1.296135	0.041203	0.455207
H119	H	1.484189	0.010860	0.632854
H120	H	1.670423	-0.089183	0.573634
H121	H	1.668596	-0.158880	0.336764
C122	C	1.647456	0.005949	0.342651
C123	C	1.647189	0.005958	0.185495
C124	C	1.740503	-0.045883	0.106734
C125	C	1.834085	-0.097732	0.185129
C126	C	1.834355	-0.097742	0.342294
C127	C	1.741041	-0.045902	0.421055
H128	H	1.577911	0.044341	0.127455
H129	H	1.740302	-0.045875	-0.009610
H130	H	1.903161	-0.136107	0.126825
H131	H	1.903633	-0.136125	0.400334
H132	H	1.741242	-0.045910	0.537399
H133	H	1.053690	0.103786	-0.100668
H134	H	1.098149	0.104439	0.218247
H135	H	1.465850	-0.685522	0.224457
H136	H	1.469388	-0.553356	-0.224505
