data_functionalizedCrystal
_audit_creation_method	'MofGen! by Chris Wilmer'
_symmetry_space_group_name_H-M	'P1'
_symmetry_Int_Tables_number	1
_symmetry_cell_setting	triclinic
loop_
_symmetry_equiv_pos_as_xyz
  x,y,z
_cell_length_a	10.686220
_cell_length_b	17.077402
_cell_length_c	10.686551
_cell_angle_alpha	94.409396
_cell_angle_beta	90.308082
_cell_angle_gamma	85.595179
loop_
_atom_site_label
_atom_site_type_symbol
_atom_site_fract_x
_atom_site_fract_y
_atom_site_fract_z
Zn1	Zn	1.972244	0.191377	-0.562366
Zn2	Zn	1.955982	0.333458	-0.352593
Zn3	Zn	1.746357	0.211458	-0.368682
Zn4	Zn	1.762412	0.331867	-0.578371
O5	O	1.859249	0.267040	-0.465503
O6	O	2.145630	0.202486	-0.521108
O7	O	1.914650	0.326344	-0.179181
O8	O	1.776408	0.098941	-0.394410
O9	O	2.133682	0.306872	-0.366989
O10	O	1.942366	0.084188	-0.536709
O11	O	1.760640	0.236711	-0.191001
O12	O	1.572943	0.235168	-0.409928
O13	O	1.803771	0.304161	-0.751794
O14	O	1.584739	0.323632	-0.563986
O15	O	1.957934	0.200944	-0.740036
O16	O	1.930217	0.443099	-0.382507
O17	O	1.788003	0.441931	-0.548385
C18	C	1.859124	0.470996	-0.465462
C19	C	1.859188	0.558241	-0.465478
C20	C	1.533325	0.281407	-0.490440
C21	C	1.393895	0.287571	-0.501139
C22	C	1.884457	0.250135	-0.792705
C23	C	1.895200	0.242931	-0.932139
C24	C	2.186445	0.252617	-0.440468
C25	C	2.325877	0.246470	-0.429800
C26	C	1.859410	0.062285	-0.465569
C27	C	1.859479	-0.024970	-0.465597
C28	C	1.933328	0.599806	-0.379185
C29	C	1.933392	0.681782	-0.379212
C30	C	1.859308	0.722193	-0.465527
C31	C	1.785166	0.680622	-0.551829
C32	C	1.785109	0.598647	-0.551807
C33	C	1.785285	0.851485	-0.551868
C34	C	1.785340	0.933466	-0.551889
C35	C	1.933568	0.934620	-0.379273
C36	C	1.933512	0.852645	-0.379251
C37	C	1.859367	0.811080	-0.465552
C38	C	1.834210	0.283819	-0.139568
C39	C	1.823711	0.290791	-0.000116
H40	H	1.374312	0.206567	-0.360539
O41	O	1.335921	0.335120	-0.583745
C42	C	1.204942	0.330912	-0.576381
H43	H	1.184030	0.273184	-0.536814
H44	H	1.162572	0.382495	-0.512266
C45	C	1.173038	0.405520	-0.756991
C46	C	1.147353	0.334614	-0.708404
H47	H	1.137511	0.407807	-0.838427
H48	H	1.261280	0.408357	-0.761950
H49	H	1.137728	0.448497	-0.703550
H50	H	1.182675	0.291638	-0.761836
H51	H	1.059115	0.331769	-0.703457
O52	O	1.740726	0.346217	-0.942454
C53	C	1.618138	0.332935	-0.983928
H54	H	1.622804	0.298009	-1.079302
H55	H	1.570300	0.298209	-0.913448
C56	C	1.536820	0.455415	-0.878462
C57	C	1.542550	0.412523	-0.995608
H58	H	1.490190	0.504507	-0.885662
H59	H	1.619409	0.464362	-0.850516
H60	H	1.496958	0.426467	-0.819741
H61	H	1.582425	0.441465	-1.054322
H62	H	1.459966	0.403582	-1.023564
O63	O	1.977958	0.187368	-0.989827
C64	C	1.948149	0.111967	-0.960046
H65	H	1.892676	0.117327	-0.868570
H66	H	1.889292	0.084605	-1.038711
C67	C	2.138163	0.052740	-1.057173
C68	C	2.070039	0.059323	-0.944814
H69	H	2.213349	0.020265	-1.047782
H70	H	2.158244	0.103539	-1.077241
H71	H	2.089102	0.029941	-1.122716
H72	H	2.119094	0.082131	-0.879277
H73	H	2.049968	0.008527	-0.924734
H74	H	1.993649	0.566910	-0.308892
H75	H	1.993763	0.715621	-0.308943
H76	H	1.725039	0.966363	-0.622197
H77	H	1.993829	0.819743	-0.308961
H78	H	1.724913	0.817645	-0.622147
O79	O	1.713380	0.719951	-0.635725
C80	C	1.791015	0.759959	-0.711378
H81	H	1.882722	0.770288	-0.659938
H82	H	1.811864	0.722927	-0.803298
C83	C	1.611136	0.827046	-0.802513
C84	C	1.723769	0.839738	-0.739329
H85	H	1.569656	0.876256	-0.819761
H86	H	1.558831	0.800090	-0.751548
H87	H	1.628527	0.796184	-0.879106
H88	H	1.706376	0.870591	-0.662731
H89	H	1.776070	0.866702	-0.790282
H90	H	1.993944	0.968465	-0.309008
H91	H	1.724739	0.564806	-0.622077
