data_functionalizedCrystal
_audit_creation_method	'MofGen! by Chris Wilmer'
_symmetry_space_group_name_H-M	'P1'
_symmetry_Int_Tables_number	1
_symmetry_cell_setting	triclinic
loop_
_symmetry_equiv_pos_as_xyz
  x,y,z
_cell_length_a	19.805407
_cell_length_b	12.759399
_cell_length_c	19.805399
_cell_angle_alpha	90.022080
_cell_angle_beta	90.020409
_cell_angle_gamma	90.017686
loop_
_atom_site_label
_atom_site_type_symbol
_atom_site_fract_x
_atom_site_fract_y
_atom_site_fract_z
Zn1	Zn	1.034786	-0.418236	0.382761
Zn2	Zn	1.034722	-0.593930	0.269583
Zn3	Zn	0.921601	-0.418271	0.269584
Zn4	Zn	0.921585	-0.593880	0.382728
O5	O	0.978173	-0.506079	0.326164
O6	O	1.129494	-0.441549	0.367761
O7	O	1.019696	-0.570664	0.174867
O8	O	0.936648	-0.271245	0.284610
O9	O	1.129447	-0.570630	0.284610
O10	O	1.019805	-0.271220	0.367761
O11	O	0.936586	-0.441608	0.174867
O12	O	0.826882	-0.441560	0.284579
O13	O	0.936622	-0.570545	0.477449
O14	O	0.826871	-0.570579	0.367706
O15	O	1.019790	-0.441500	0.477473
O16	O	1.019681	-0.740944	0.284579
O17	O	0.936560	-0.740907	0.367706
C18	C	0.802317	-0.506068	0.326140
C19	C	0.727085	-0.506089	0.326145
C20	C	0.265322	-0.438992	0.369553
C21	C	0.336011	-0.438994	0.369548
C22	C	0.371324	-0.506095	0.326186
C23	C	0.335944	-0.573206	0.282830
C24	C	0.265257	-0.573209	0.282839
C25	C	0.621018	-0.573198	0.282794
C26	C	0.691710	-0.573188	0.282788
C27	C	0.691771	-0.438984	0.369504
C28	C	0.621084	-0.438986	0.369512
C29	C	0.585711	-0.506100	0.326160
C30	C	0.509063	-0.506099	0.326166
C31	C	0.447971	-0.506092	0.326175
C32	C	0.978130	-0.779047	0.326153
C33	C	0.978173	-0.895823	0.326172
C34	C	0.934886	-0.950704	0.369424
C35	C	0.934928	-1.060428	0.369437
C36	C	1.021551	-1.060380	0.282943
C37	C	1.021505	-0.950658	0.282927
C38	C	0.855152	-1.210475	0.393568
C39	C	0.811871	-1.265360	0.436831
C40	C	0.801425	-1.229702	0.502860
C41	C	0.834272	-1.139161	0.525639
C42	C	0.877558	-1.084282	0.482379
C43	C	0.887991	-1.119938	0.416340
C44	C	1.101282	-0.800610	0.258804
C45	C	1.144572	-0.745729	0.215547
C46	C	1.155024	-0.781384	0.149517
C47	C	1.122190	-0.871928	0.126740
C48	C	1.078899	-0.926810	0.169997
C49	C	1.068446	-0.891146	0.236027
C50	C	1.154716	-0.506091	0.326189
C51	C	1.229948	-0.506096	0.326200
C52	C	0.978211	-0.506013	0.502707
C53	C	0.978227	-0.505985	0.577939
C54	C	0.978235	-0.232046	0.326189
C55	C	0.978262	-0.115269	0.326200
C56	C	0.978174	-0.506069	0.150308
C57	C	0.978289	-0.505801	0.075076
C58	C	1.021534	-0.438788	0.613296
C59	C	1.021541	-0.438758	0.683985
C60	C	0.978244	-0.505930	0.719314
C61	C	0.934933	-0.573130	0.683952
C62	C	0.934923	-0.573154	0.613265
C63	C	0.934971	-0.573032	0.969025
C64	C	0.934986	-0.573004	1.039717
C65	C	1.021589	-0.438635	1.039745
C66	C	1.021579	-0.438660	0.969058
C67	C	0.978266	-0.505855	0.933702
C68	C	0.978258	-0.505886	0.857053
C69	C	0.978255	-0.505905	0.795962
H70	H	0.236456	-0.627853	0.247537
H71	H	1.056855	-0.383918	1.068541
H72	H	0.364702	-0.627845	0.247526
Cl73	Cl	0.220936	-0.354626	0.424066
H74	H	0.899651	-0.627862	0.584477
Cl75	Cl	0.880550	-0.657455	1.084131
Cl76	Cl	0.868262	-1.255290	0.310549
Cl77	Cl	1.076014	-0.354214	0.924648
H78	H	1.052165	-1.000537	0.151448
Cl79	Cl	0.380478	-0.354637	0.424056
Cl80	Cl	0.880500	-0.657572	0.728366
H81	H	1.130704	-0.900964	0.072975
H82	H	0.592336	-0.384342	0.404820
Cl83	Cl	0.880409	-0.881772	0.423786
H84	H	0.720580	-0.384339	0.404806
Cl85	Cl	0.821148	-1.094350	0.608655
Cl86	Cl	0.918849	-0.970467	0.511008
H87	H	0.720459	-0.627834	0.247475
H88	H	1.190277	-0.736691	0.114298
H89	H	1.056807	-0.384042	0.712770
H90	H	0.766184	-1.274397	0.538085
H91	H	1.092763	-0.771558	0.312567
Cl92	Cl	1.185855	-0.631905	0.244183
H93	H	0.899712	-0.627762	0.940247
H94	H	0.592225	-0.627844	0.247492
Cl95	Cl	1.075971	-0.354343	0.568889
Cl96	Cl	1.076029	-1.129324	0.228587
H97	H	0.785127	-1.339078	0.418278
