data_functionalizedCrystal
_audit_creation_method	'MofGen! by Chris Wilmer'
_symmetry_space_group_name_H-M	'P1'
_symmetry_Int_Tables_number	1
_symmetry_cell_setting	triclinic
loop_
_symmetry_equiv_pos_as_xyz
  x,y,z
_cell_length_a	15.995350
_cell_length_b	16.109301
_cell_length_c	14.586319
_cell_angle_alpha	90.005214
_cell_angle_beta	89.999859
_cell_angle_gamma	83.476928
loop_
_atom_site_label
_atom_site_type_symbol
_atom_site_fract_x
_atom_site_fract_y
_atom_site_fract_z
O1	O	-1.110955	-0.107165	-0.076166
O2	O	-0.867176	-0.120399	-0.076185
O3	O	-0.995763	0.007247	-0.076165
O4	O	-0.982369	-0.234811	-0.076185
O5	O	-0.995754	0.007249	0.076315
O6	O	-0.867167	-0.120397	0.076296
O7	O	-1.110946	-0.107164	0.076315
Cu8	Cu	-0.989056	-0.113780	0.090228
Cu9	Cu	-0.989067	-0.113782	-0.090098
O10	O	-0.982360	-0.234810	0.076296
C11	C	-0.835977	-0.119851	0.000053
C12	C	-0.743027	-0.118211	0.000046
C13	C	-0.995216	0.038223	0.000075
C14	C	-0.993589	0.130519	0.000077
C15	C	-1.142145	-0.107712	0.000075
C16	C	-1.235095	-0.109352	0.000076
C17	C	-0.405281	-0.112320	0.000066
C18	C	-0.452740	-0.021413	0.000413
C19	C	-0.549430	-0.023054	0.000063
C20	C	-0.572841	-0.115242	0.000057
C21	C	-0.531747	-0.160082	-0.087017
C22	C	-0.435112	-0.157798	-0.087084
C23	C	-0.434762	-0.159674	0.086315
C24	C	-0.531708	-0.159653	0.087460
C25	C	-0.667538	-0.116898	0.000048
C26	C	-0.310584	-0.110667	0.000068
C27	C	-0.982907	-0.265786	0.000053
C28	C	-0.984534	-0.358081	0.000046
N29	N	-0.989055	-0.113778	0.217060
C30	C	-1.066107	0.352771	0.000068
C31	C	-1.064573	0.439492	0.000060
C32	C	-0.912009	0.419659	0.000052
C33	C	-0.913545	0.332940	0.000053
C34	C	-0.990597	0.299499	0.000066
C35	C	-0.987526	0.472939	0.000057
C36	C	-0.985861	0.566965	0.000048
C37	C	-0.992262	0.205466	0.000072
N38	N	-0.989075	-0.113778	-0.216930
C39	C	-1.046011	-0.057275	0.452075
C40	C	-1.046014	-0.057273	0.548056
C41	C	-0.932112	-0.170283	0.548049
C42	C	-0.932106	-0.170281	0.452069
C43	C	-0.989061	-0.113778	0.404085
C44	C	-0.989069	-0.113778	0.596046
C45	C	-0.989071	-0.113777	0.700113
C46	C	-0.989057	-0.113778	0.300011
H47	H	-0.434224	0.014925	0.062858
H48	H	-0.433160	0.014756	-0.061681
O49	O	-0.569334	-0.118825	-0.172852
H50	H	-0.599383	-0.165262	-0.213972
H51	H	-0.577301	0.012429	-0.062458
O52	O	-0.828911	0.455736	0.000053
H53	H	-0.792628	0.434342	-0.062101
H54	H	-1.092386	-0.011266	0.413009
O55	O	-1.107449	0.003657	0.599821
H56	H	-1.147056	0.042938	0.550326
H57	H	-0.852051	0.289563	0.000048
H58	H	-0.416816	-0.125101	-0.152169
O59	O	-0.392361	-0.246200	-0.092343
H60	H	-0.440736	-0.290390	-0.094835
H61	H	-0.414231	-0.129954	0.152315
H62	H	-0.545853	-0.227810	-0.090260
H63	H	-0.547054	-0.226879	0.092714
O64	O	-1.149211	0.316703	0.000061
H65	H	-1.185501	0.338114	0.062203
H66	H	-0.402982	-0.226699	0.086899
H67	H	-0.559029	-0.126920	0.151877
H68	H	-1.126061	0.482864	0.000060
H69	H	-0.885725	-0.216292	0.412993
O70	O	-0.870696	-0.231237	0.599802
H71	H	-0.830017	-0.196226	0.643549
O72	O	-0.587105	0.023622	0.082747
H73	H	-0.536269	0.047578	0.123341
