data_functionalizedCrystal
_audit_creation_method	'MofGen! by Chris Wilmer'
_symmetry_space_group_name_H-M	'P1'
_symmetry_Int_Tables_number	1
_symmetry_cell_setting	triclinic
loop_
_symmetry_equiv_pos_as_xyz
  x,y,z
_cell_length_a	14.519709
_cell_length_b	14.853567
_cell_length_c	13.930277
_cell_angle_alpha	90.000757
_cell_angle_beta	90.001602
_cell_angle_gamma	83.657537
loop_
_atom_site_label
_atom_site_type_symbol
_atom_site_fract_x
_atom_site_fract_y
_atom_site_fract_z
O1	O	-1.223823	-0.118178	-0.079698
O2	O	-0.955341	-0.132096	-0.079726
O3	O	-1.096754	0.006090	-0.079714
O4	O	-1.082410	-0.256364	-0.079710
O5	O	-1.096734	0.006093	0.079948
O6	O	-0.955321	-0.132093	0.079936
O7	O	-1.223804	-0.118176	0.079964
Zn8	Zn	-1.089559	-0.125134	0.105300
Zn9	Zn	-1.089585	-0.125138	-0.105061
O10	O	-1.082391	-0.256361	0.079952
C11	C	-1.096094	0.039680	0.000114
C12	C	-1.094146	0.139765	0.000106
C13	C	-0.920971	-0.131446	0.000101
C14	C	-0.818591	-0.129502	0.000090
C15	C	-1.258173	-0.118826	0.000135
C16	C	-1.360553	-0.120769	0.000140
C17	C	-0.443698	-0.122347	0.000134
C18	C	-0.548005	-0.124334	0.000121
C19	C	-0.631141	-0.125924	0.000111
C20	C	-0.735455	-0.127912	0.000100
C21	C	-1.083050	-0.289952	0.000122
C22	C	-1.084998	-0.390036	0.000124
N23	N	-1.089548	-0.125130	0.248866
C24	C	-1.001911	0.552334	0.000114
C25	C	-1.169913	0.573550	0.000132
C26	C	-1.171744	0.479516	0.000126
C27	C	-1.088658	0.421886	0.000116
C28	C	-1.003740	0.458291	0.000112
C29	C	-1.256661	0.443104	0.000141
C30	C	-1.258495	0.349064	0.000136
C31	C	-1.175408	0.291433	0.000119
C32	C	-1.090486	0.327843	0.000114
C33	C	-1.007400	0.270213	0.000104
C34	C	-0.922478	0.306621	0.000091
C35	C	-0.920653	0.400660	0.000095
C36	C	-1.177233	0.197394	0.000116
C37	C	-1.009229	0.176170	0.000101
N38	N	-1.089603	-0.125134	-0.248628
C39	C	-1.026965	-0.186302	0.701130
C40	C	-1.152231	-0.063966	0.701110
C41	C	-1.152220	-0.063963	0.600614
C42	C	-1.089581	-0.125132	0.550372
C43	C	-1.026954	-0.186303	0.600625
C44	C	-1.214852	-0.002799	0.550354
C45	C	-1.214844	-0.002795	0.449852
C46	C	-1.152201	-0.063959	0.399607
C47	C	-1.089570	-0.125132	0.449867
C48	C	-1.026932	-0.186301	0.399624
C49	C	-0.964296	-0.247470	0.449882
C50	C	-0.964310	-0.247468	0.550381
C51	C	-1.152186	-0.063962	0.299108
C52	C	-1.026921	-0.186302	0.299119
H53	H	-0.854829	0.259687	0.000089
H54	H	-1.265855	0.046998	0.591264
H55	H	-0.851513	0.430312	0.000085
H56	H	-1.324305	0.490032	0.000158
C57	C	-1.220225	0.002543	0.244717
C58	C	-1.275072	0.056121	0.310227
C59	C	-1.337753	0.117408	0.260158
H60	H	-1.258731	-0.029870	0.205499
H61	H	-1.187026	0.040198	0.205541
H62	H	-1.308268	0.018471	0.349387
H63	H	-1.236590	0.088554	0.349447
H64	H	-1.304554	0.155063	0.220982
H65	H	-1.376253	0.084988	0.220943
H66	H	-1.374968	0.153773	0.304599
C67	C	-1.350598	0.309364	0.000186
C68	C	-1.334421	0.214675	0.000198
C69	C	-1.419244	0.178072	0.000252
H70	H	-1.384887	0.329042	-0.055473
H71	H	-1.384818	0.329079	0.055889
H72	H	-1.300216	0.194969	-0.055499
H73	H	-1.300146	0.194973	0.055854
H74	H	-1.453464	0.197786	0.055955
H75	H	-1.453526	0.197756	-0.055408
H76	H	-1.408279	0.113822	0.000269
H77	H	-1.203233	-0.014169	0.742021
C78	C	-0.958870	-0.252817	0.244747
C79	C	-0.904040	-0.306396	0.310273
C80	C	-0.841351	-0.367687	0.260222
H81	H	-0.920353	-0.220408	0.205541
H82	H	-0.992063	-0.290472	0.205561
H83	H	-0.870850	-0.268745	0.349442
H84	H	-0.942532	-0.338824	0.349481
H85	H	-0.874544	-0.405342	0.221036
H86	H	-0.802841	-0.335271	0.221017
H87	H	-0.804147	-0.404053	0.304673
H88	H	-1.246375	0.167755	0.000132
H89	H	-1.265844	0.047013	0.408938
C90	C	-0.896421	-0.313842	0.605120
C91	C	-0.909861	-0.300767	0.703885
C92	C	-0.847351	-0.361904	0.754344
H93	H	-0.834818	-0.303980	0.588781
H94	H	-0.906519	-0.374052	0.588700
H95	H	-0.899756	-0.240572	0.720299
H96	H	-0.971452	-0.310636	0.720252
H97	H	-0.857448	-0.422114	0.737924
H98	H	-0.785751	-0.352037	0.737998
H99	H	-0.856466	-0.353047	0.821361
H100	H	-0.941568	0.129253	0.000089
H101	H	-0.932770	0.581982	0.000100
H102	H	-0.913300	-0.297278	0.408963
C103	C	-1.260087	0.636161	-0.000052
C104	C	-1.263961	0.690759	-0.082202
C105	C	-1.347024	0.748443	-0.082411
H106	H	-1.262946	0.673368	0.055564
H107	H	-1.310950	0.601044	-0.000102
H108	H	-1.213112	0.725873	-0.082142
H109	H	-1.261118	0.653577	-0.137831
H110	H	-1.397887	0.713326	-0.082461
H111	H	-1.349876	0.785644	-0.026792
H112	H	-1.349668	0.785489	-0.138152
H113	H	-0.975965	-0.236103	0.742052
