data_functionalizedCrystal
_audit_creation_method	'MofGen! by Chris Wilmer'
_symmetry_space_group_name_H-M	'P1'
_symmetry_Int_Tables_number	1
_symmetry_cell_setting	triclinic
loop_
_symmetry_equiv_pos_as_xyz
  x,y,z
_cell_length_a	13.897449
_cell_length_b	13.897448
_cell_length_c	19.805399
_cell_angle_alpha	89.974981
_cell_angle_beta	89.979867
_cell_angle_gamma	90.018519
loop_
_atom_site_label
_atom_site_type_symbol
_atom_site_fract_x
_atom_site_fract_y
_atom_site_fract_z
Zn1	Zn	1.474672	-0.384016	-0.382742
Zn2	Zn	1.974672	0.115984	0.117258
Zn3	Zn	1.474575	-0.545322	-0.269559
Zn4	Zn	1.974575	-0.045322	0.230441
Zn5	Zn	1.313370	-0.384045	-0.269565
Zn6	Zn	1.813370	0.115955	0.230435
Zn7	Zn	1.313342	-0.545273	-0.382704
Zn8	Zn	1.813342	-0.045273	0.117296
O9	O	1.393990	-0.464664	-0.326143
O10	O	1.893990	0.035336	0.173857
O11	O	1.609640	-0.405422	-0.367741
O12	O	2.109640	0.094578	0.132259
O13	O	1.453162	-0.523961	-0.174843
O14	O	1.953162	-0.023961	0.325157
O15	O	1.334819	-0.249059	-0.284597
O16	O	1.834819	0.250941	0.215403
O17	O	1.609569	-0.523933	-0.284586
O18	O	2.109569	-0.023933	0.215414
O19	O	1.453327	-0.249038	-0.367747
O20	O	1.953327	0.250962	0.132253
O21	O	1.334725	-0.405471	-0.174848
O22	O	1.834725	0.094529	0.325152
O23	O	1.178385	-0.405424	-0.284561
O24	O	1.678385	0.094576	0.215439
O25	O	1.334772	-0.523849	-0.477426
O26	O	1.834772	-0.023849	0.022574
O27	O	1.178364	-0.523877	-0.367683
O28	O	1.678364	-0.023877	0.132317
O29	O	1.453300	-0.405374	-0.477453
O30	O	1.953300	0.094626	0.022547
O31	O	1.453135	-0.680297	-0.284549
O32	O	1.953135	-0.180297	0.215451
O33	O	1.334678	-0.680261	-0.367677
O34	O	1.834678	-0.180261	0.132323
C35	C	1.143375	-0.464649	-0.326119
C36	C	1.643375	0.035351	0.173881
C37	C	1.036161	-0.464666	-0.326125
C38	C	1.536161	0.035334	0.173875
C39	C	1.393919	-0.715278	-0.326123
C40	C	1.893919	-0.215278	0.173877
C41	C	1.393977	-0.822492	-0.326137
C42	C	1.893977	-0.322492	0.173863
C43	C	0.949092	-0.464669	-0.326136
C44	C	1.449092	0.035331	0.173864
C45	C	0.839859	-0.464676	-0.326157
C46	C	1.339859	0.035324	0.173843
C47	C	1.394079	-1.018787	-0.326180
C48	C	1.894079	-0.518787	0.173820
C49	C	1.394020	-0.909555	-0.326158
C50	C	1.894020	-0.409555	0.173842
C51	C	1.645583	-0.464680	-0.326167
C52	C	2.145583	0.035320	0.173833
C53	C	1.752797	-0.464686	-0.326177
C54	C	2.252797	0.035314	0.173823
C55	C	1.394044	-0.464603	-0.502685
C56	C	1.894044	0.035397	-0.002685
C57	C	1.394067	-0.464577	-0.577917
C58	C	1.894067	0.035423	-0.077917
C59	C	1.394087	-0.213071	-0.326177
C60	C	1.894087	0.286929	0.173823
C61	C	1.394128	-0.105857	-0.326192
C62	C	1.894128	0.394143	0.173808
C63	C	1.455786	-0.402884	-0.613277
C64	C	1.955786	0.097116	-0.113277
C65	C	1.455796	-0.402856	-0.683965
C66	C	1.955796	0.097144	-0.183965
C67	C	1.394091	-0.464527	-0.719293
C68	C	1.894091	0.035473	-0.219293
C69	C	1.332365	-0.526223	-0.683928
C70	C	1.832365	-0.026223	-0.183928
C71	C	1.332351	-0.526245	-0.613241
C72	C	1.832351	-0.026245	-0.113241
C73	C	1.332420	-0.526133	-0.969002
C74	C	1.832420	-0.026133	-0.469002
C75	C	1.332440	-0.526108	-1.039694
C76	C	1.832440	-0.026108	-0.539694
C77	C	1.455864	-0.402744	-1.039726
C78	C	1.955864	0.097256	-0.539726
C79	C	1.455850	-0.402766	-0.969039
C80	C	1.955850	0.097234	-0.469039
C81	C	1.394121	-0.464458	-0.933680
C82	C	1.894121	0.035542	-0.433680
C83	C	1.394110	-0.464486	-0.857032
C84	C	1.894110	0.035514	-0.357032
C85	C	1.394106	-0.464504	-0.795940
C86	C	1.894106	0.035496	-0.295940
C87	C	1.393991	-0.464655	-0.150287
C88	C	1.893991	0.035345	0.349713
C89	C	1.394155	-0.464409	-0.075055
C90	C	1.894155	0.035591	0.424945
H91	H	1.506036	-0.352668	-0.584518
H92	H	2.006036	0.147332	-0.084518
H93	H	1.506100	-0.352551	-0.940279
H94	H	2.006100	0.147449	-0.440279
C95	C	1.523693	-0.334991	-0.722858
C96	C	2.023693	0.165009	-0.222858
N97	N	1.574836	-0.283871	-0.752151
N98	N	2.074836	0.216129	-0.252151
H99	H	1.282084	-0.576472	-0.584452
H100	H	1.782084	-0.076472	-0.084452
C101	C	1.523756	-0.334869	-1.078627
C102	C	2.023756	0.165131	-0.578627
N103	N	1.574890	-0.283747	-1.107925
N104	N	2.074890	0.216253	-0.607925
C105	C	1.264480	-0.594052	-0.722791
C106	C	1.764480	-0.094052	-0.222791
N107	N	1.213347	-0.645141	-0.752062
N108	N	1.713347	-0.145141	-0.252062
C109	C	1.264551	-0.593947	-1.078553
C110	C	1.764551	-0.093947	-0.578553
N111	N	1.213418	-0.645040	-1.107821
N112	N	1.713418	-0.145040	-0.607821
C113	C	1.264513	-0.593992	-0.930117
C114	C	1.764513	-0.093992	-0.430117
N115	N	1.213361	-0.645106	-0.900826
N116	N	1.713361	-0.145106	-0.400826
