data_functionalizedCrystal
_audit_creation_method	'MofGen! by Chris Wilmer'
_symmetry_space_group_name_H-M	'P1'
_symmetry_Int_Tables_number	1
_symmetry_cell_setting	triclinic
loop_
_symmetry_equiv_pos_as_xyz
  x,y,z
_cell_length_a	11.792241
_cell_length_b	14.048226
_cell_length_c	14.971486
_cell_angle_alpha	90.006640
_cell_angle_beta	83.903772
_cell_angle_gamma	90.002244
loop_
_atom_site_label
_atom_site_type_symbol
_atom_site_fract_x
_atom_site_fract_y
_atom_site_fract_z
O1	O	1.506121	0.079069	0.122599
O2	O	1.175698	0.079091	0.135234
O3	O	1.349766	0.079072	-0.001248
O4	O	1.332053	0.079087	0.259081
O5	O	1.349745	-0.079249	-0.001256
O6	O	1.175677	-0.079230	0.135226
O7	O	1.506100	-0.079253	0.122591
Zn8	Zn	1.340885	-0.104378	0.128907
Zn9	Zn	1.340913	0.104217	0.128918
O10	O	1.332032	-0.079234	0.259073
C11	C	1.133402	-0.000067	0.134436
C12	C	1.007404	-0.000059	0.132061
N13	N	1.340875	-0.246739	0.128899
C14	C	1.417976	-0.296565	0.068490
C15	C	1.417984	-0.396223	0.068490
C16	C	1.340895	-0.446053	0.128903
C17	C	1.263785	-0.396219	0.189315
C18	C	1.263773	-0.296564	0.189311
C19	C	1.263818	-0.603934	0.189322
C20	C	1.263831	-0.703596	0.189328
C21	C	1.418029	-0.703593	0.068501
C22	C	1.418016	-0.603937	0.068496
C23	C	1.340908	-0.554111	0.128910
C24	C	0.776720	-0.000086	0.127692
C25	C	0.905089	-0.000071	0.130120
C26	C	1.548396	-0.000093	0.123389
C27	C	1.674395	-0.000095	0.125764
C28	C	1.348963	-0.000088	-0.034580
C29	C	1.346589	-0.000087	-0.133887
N30	N	1.340932	0.246577	0.128919
C31	C	1.448849	-0.000094	-0.190702
C32	C	1.446612	-0.000085	-0.284011
C33	C	1.342114	-0.000074	-0.320502
C34	C	1.239846	-0.000064	-0.263679
C35	C	1.242084	-0.000067	-0.170372
C36	C	1.235188	-0.000060	-0.458160
C37	C	1.232949	-0.000059	-0.551473
C38	C	1.439715	-0.000078	-0.571798
C39	C	1.441954	-0.000081	-0.478492
C40	C	1.339685	-0.000072	-0.421675
C41	C	1.332835	-0.000072	0.292405
C42	C	1.335209	-0.000066	0.391711
H43	H	1.480765	-0.436791	0.019299
H44	H	1.480793	-0.563366	0.019307
O45	O	1.180682	-0.757340	0.254487
H46	H	1.193659	-0.835007	0.244346
O47	O	1.180644	-0.449957	0.254485
H48	H	1.125444	-0.495385	0.216549
H49	H	1.529883	-0.000093	-0.330267
H50	H	1.154761	-0.000049	-0.293397
O51	O	1.561564	-0.000106	-0.151353
H52	H	1.545945	-0.000116	-0.076925
H53	H	1.158814	-0.000060	-0.124113
H54	H	1.527045	-0.000096	-0.448784
O55	O	1.501118	-0.242821	0.003326
H56	H	1.554723	-0.294215	-0.038687
O57	O	1.501205	-0.757333	0.003348
H58	H	1.554823	-0.705941	-0.038649
O59	O	1.180659	-0.550186	0.254484
H60	H	1.127065	-0.601576	0.296503
O61	O	1.550025	-0.000078	-0.633071
H62	H	1.530917	-0.000061	-0.704084
H63	H	1.200988	-0.255996	0.238501
H64	H	1.147857	-0.000066	-0.581181
H65	H	1.151910	-0.000051	-0.411902
