data_functionalizedCrystal
_audit_creation_method	'MofGen! by Chris Wilmer'
_symmetry_space_group_name_H-M	'P1'
_symmetry_Int_Tables_number	1
_symmetry_cell_setting	triclinic
loop_
_symmetry_equiv_pos_as_xyz
  x,y,z
_cell_length_a	19.077142
_cell_length_b	19.077068
_cell_length_c	19.076919
_cell_angle_alpha	85.529249
_cell_angle_beta	89.925643
_cell_angle_gamma	90.114550
loop_
_atom_site_label
_atom_site_type_symbol
_atom_site_fract_x
_atom_site_fract_y
_atom_site_fract_z
Zn1	Zn	-1.044046	0.340467	-0.453535
Zn2	Zn	-1.043960	0.453617	-0.340376
Zn3	Zn	-0.931658	0.331038	-0.330962
Zn4	Zn	-0.921799	0.453191	-0.453108
O5	O	-0.985366	0.394578	-0.394495
O6	O	-1.142194	0.359601	-0.442642
O7	O	-1.033152	0.433589	-0.240651
O8	O	-0.950729	0.233814	-0.343461
O9	O	-1.142130	0.442732	-0.359505
O10	O	-1.033300	0.240742	-0.433514
O11	O	-0.950645	0.343531	-0.233735
O12	O	-0.832191	0.343117	-0.343047
O13	O	-0.933926	0.442005	-0.551640
O14	O	-0.824948	0.432862	-0.432787
O15	O	-1.023740	0.359188	-0.551954
O16	O	-1.023592	0.552035	-0.359091
O17	O	-0.933842	0.551722	-0.441915
C18	C	-0.803118	0.386921	-0.386849
C19	C	-0.725150	0.383663	-0.383596
C20	C	-0.684768	0.428922	-0.428722
C21	C	-0.611509	0.425852	-0.425668
C22	C	-0.578633	0.377525	-0.377484
C23	C	-0.619021	0.332260	-0.332356
C24	C	-0.692278	0.335328	-0.335414
C25	C	-0.359939	0.363329	-0.363338
C26	C	-0.286676	0.360266	-0.360282
C27	C	-0.279169	0.453858	-0.453596
C28	C	-0.352428	0.456924	-0.456647
C29	C	-0.392810	0.411657	-0.411521
N30	N	-0.503751	0.374386	-0.374359
N31	N	-0.467691	0.414792	-0.414650
C32	C	-0.977656	0.577413	-0.401494
C33	C	-0.974421	0.655634	-0.404515
C34	C	-0.977743	0.401601	-0.578045
C35	C	-0.974495	0.404593	-0.656263
C36	C	-0.168326	0.402262	-0.402163
C37	C	-0.246294	0.405526	-0.405409
C38	C	-0.993124	0.211031	-0.387485
C39	C	-0.996430	0.132814	-0.384498
C40	C	-1.019663	0.692526	-0.362850
C41	C	-1.016624	0.766023	-0.365696
C42	C	-0.968340	0.802628	-0.410202
C43	C	-0.923096	0.765732	-0.451871
C44	C	-0.926139	0.692236	-0.449029
C45	C	-0.954229	1.022422	-0.423325
C46	C	-0.951188	1.095922	-0.426162
C47	C	-1.044718	1.096209	-0.339988
C48	C	-1.047753	1.022711	-0.337147
C49	C	-1.002512	0.985822	-0.378818
N50	N	-0.965231	0.877754	-0.413109
N51	N	-1.005625	0.910697	-0.375914
C52	C	-1.019728	0.362883	-0.693174
C53	C	-1.016667	0.365691	-0.766668
C54	C	-0.968376	0.410215	-0.803249
C55	C	-0.923138	0.451927	-0.766332
C56	C	-0.926196	0.449114	-0.692840
C57	C	-0.954214	0.423248	-1.023031
C58	C	-0.951161	0.426060	-1.096528
C59	C	-1.044689	0.339822	-1.096859
C60	C	-1.047745	0.337016	-1.023365
C61	C	-1.002505	0.378726	-0.986454
N62	N	-0.965248	0.413089	-0.878372
N63	N	-1.005630	0.375848	-0.911333
C64	C	-0.993001	0.387534	-0.211659
C65	C	-0.996394	0.384349	-0.133440
H66	H	-0.379190	0.496279	-0.495882
N67	N	-0.401184	0.317108	-0.317232
N68	N	-0.442875	0.341795	-0.275000
H69	H	-0.472008	0.309151	-0.242433
N70	N	-0.901855	1.133303	-0.471624
N71	N	-0.861462	1.100359	-0.508824
H72	H	-0.826619	1.126758	-0.540928
N73	N	-0.570249	0.472092	-0.471745
N74	N	-0.504842	0.469353	-0.469006
H75	H	-0.475701	0.502014	-0.501547
H76	H	-0.889356	0.483072	-0.662787
H77	H	-0.592248	0.292908	-0.293126
N78	N	-0.253083	0.310896	-0.311071
N79	N	-0.187674	0.308169	-0.308349
H80	H	-0.163947	0.273305	-0.273594
H81	H	-0.917390	0.992392	-0.457254
N82	N	-1.090902	0.297213	-1.134550
N83	N	-1.155773	0.304282	-1.129237
H84	H	-1.188412	0.274184	-1.155854
N85	N	-0.873775	0.803132	-0.497324
N86	N	-0.828427	0.841367	-0.472238
H87	H	-0.793591	0.867782	-0.504338
N88	N	-0.879925	0.654561	-0.491597
N89	N	-0.836818	0.687250	-0.531334
H90	H	-0.804179	0.660644	-0.561402
N91	N	-1.097074	0.291525	-0.986015
N92	N	-1.094827	0.226710	-0.991552
H93	H	-1.129668	0.194581	-0.965176
N94	N	-0.733520	0.289084	-0.289320
N95	N	-0.704161	0.245935	-0.246304
H96	H	-0.733286	0.213270	-0.213751
H97	H	-0.246283	0.490710	-0.490335
N98	N	-0.873809	0.497398	-0.803707
N99	N	-0.871084	0.499905	-0.869325
H100	H	-0.836245	0.532020	-0.895721
H101	H	-1.059053	0.326629	-0.663395
H102	H	-1.053502	0.331728	-0.796718
N103	N	-0.901804	0.471522	-1.133884
N104	N	-0.861400	0.508743	-1.100920
H105	H	-0.826536	0.540841	-1.127301
H106	H	-0.711529	0.468278	-0.467956
N107	N	-1.068984	0.655149	-0.317378
N108	N	-1.109374	0.688099	-0.280182
H109	H	-1.144209	0.661704	-0.248066
N110	N	-0.907999	0.465857	-0.985345
N111	N	-0.864888	0.505608	-1.018018
H112	H	-0.832247	0.535703	-0.991400
N113	N	-1.062853	0.803696	-0.323143
N114	N	-1.105964	0.771005	-0.283412
H115	H	-1.138619	0.797611	-0.253360
H116	H	-1.087070	0.992909	-0.300906
N117	N	-1.090940	1.133890	-0.297436
N118	N	-1.155808	1.128521	-0.304553
H119	H	-1.188457	1.155132	-0.274499
