data_functionalizedCrystal
_audit_creation_method	'MofGen! by Chris Wilmer'
_symmetry_space_group_name_H-M	'P1'
_symmetry_Int_Tables_number	1
_symmetry_cell_setting	triclinic
loop_
_symmetry_equiv_pos_as_xyz
  x,y,z
_cell_length_a	17.699077
_cell_length_b	14.044220
_cell_length_c	16.776229
_cell_angle_alpha	89.992645
_cell_angle_beta	89.993415
_cell_angle_gamma	88.234727
loop_
_atom_site_label
_atom_site_type_symbol
_atom_site_fract_x
_atom_site_fract_y
_atom_site_fract_z
O1	O	1.012347	0.119823	-0.066280
O2	O	0.793044	0.135422	-0.066284
O3	O	0.899404	-0.010355	-0.066274
O4	O	0.905987	0.265599	-0.066290
O5	O	0.899388	-0.010364	0.066302
O6	O	0.793028	0.135413	0.066293
O7	O	1.012331	0.119814	0.066297
Zn8	Zn	0.902677	0.127612	0.087344
Zn9	Zn	0.902698	0.127624	-0.087331
O10	O	0.905971	0.265590	0.066287
C11	C	0.764800	0.134859	0.000004
C12	C	0.680667	0.133185	0.000002
C13	C	0.641136	0.132392	0.072271
C14	C	0.562084	0.130804	0.072272
C15	C	0.522564	0.130016	0.000004
C16	C	0.562100	0.130807	-0.072270
C17	C	0.641151	0.132388	-0.072271
C18	C	0.243297	0.124429	-0.072272
C19	C	0.164240	0.122851	-0.072266
C20	C	0.164230	0.122845	0.072271
C21	C	0.243281	0.124426	0.072271
C22	C	0.282810	0.125212	-0.000003
C23	C	0.368528	0.126932	-0.000003
C24	C	0.436848	0.128303	0.000003
C25	C	0.896514	-0.045667	0.000014
C26	C	0.887918	-0.150873	0.000015
C27	C	0.872203	-0.343497	0.000004
C28	C	0.933169	-0.401273	0.000002
C29	C	0.924425	-0.508456	-0.000004
C30	C	0.880946	-0.236304	0.000010
C31	C	1.040575	0.120376	0.000007
C32	C	1.124708	0.122050	0.000003
C33	C	0.908861	0.300903	-0.000003
C34	C	0.917457	0.406108	-0.000010
N35	N	0.902668	0.127603	0.206555
N36	N	0.902712	0.127625	-0.206542
C37	C	0.949782	0.063080	0.248277
C38	C	0.949786	0.063079	0.331729
C39	C	0.902680	0.127607	0.373458
C40	C	0.855561	0.192133	0.331731
C41	C	0.855553	0.192129	0.248280
C42	C	0.855589	0.192152	0.668278
C43	C	0.855602	0.192153	0.751735
C44	C	0.949822	0.063102	0.751727
C45	C	0.949814	0.063098	0.668276
C46	C	0.902693	0.127620	0.626556
C47	C	0.902688	0.127619	0.536068
C48	C	0.902688	0.127613	0.463945
H49	H	0.132065	0.122209	-0.131119
C50	C	1.001649	-0.007883	0.797617
H51	H	1.029707	-0.046306	0.760812
H52	H	0.971770	-0.047294	0.830182
H53	H	1.035456	0.026166	0.830159
C54	C	1.012551	-0.359355	0.000021
H55	H	1.008093	-0.291769	0.000035
H56	H	1.039281	-0.380197	-0.046205
H57	H	1.039247	-0.380225	0.046265
H58	H	0.813446	-0.374530	0.000000
C59	C	0.803719	0.263086	0.377627
H60	H	0.775647	0.301499	0.340825
H61	H	0.833583	0.302509	0.410181
H62	H	0.769926	0.229011	0.410180
C63	C	1.001598	-0.007903	0.202382
H64	H	1.029652	-0.046336	0.239185
H65	H	1.035397	0.026134	0.169814
H66	H	0.971705	-0.047317	0.169842
C67	C	0.120743	0.122051	0.151771
H68	H	0.068002	0.121011	0.141425
H69	H	0.131673	0.177580	0.181416
H70	H	0.135718	0.067082	0.181513
H71	H	0.988149	0.010539	0.365698
H72	H	0.817188	0.244669	0.214311
C73	C	0.684605	0.133260	0.151765
H74	H	0.737347	0.134324	0.141417
H75	H	0.673692	0.077754	0.181464
H76	H	0.669600	0.188251	0.181454
C77	C	0.518603	0.129938	0.151767
H78	H	0.553462	0.130647	0.194807
H79	H	0.489810	0.074077	0.154781
H80	H	0.485721	0.184574	0.154763
H81	H	0.817240	0.244702	0.785709
H82	H	0.673335	0.133036	-0.131119
C83	C	1.001644	-0.007863	0.622374
H84	H	0.994901	0.001386	0.566699
H85	H	0.989174	-0.071109	0.636054
H86	H	1.052843	0.002373	0.636045
C87	C	0.286749	0.125287	0.151765
H88	H	0.251884	0.124577	0.194807
H89	H	0.315545	0.181146	0.154770
H90	H	0.319629	0.070648	0.154767
C91	C	0.286769	0.125304	-0.151769
H92	H	0.251908	0.124620	-0.194806
H93	H	0.319652	0.070676	-0.154775
H94	H	0.315561	0.181174	-0.154776
H95	H	0.817223	0.244690	0.634316
H96	H	0.529916	0.130159	-0.131112
