data_functionalizedCrystal
_audit_creation_method	'MofGen! by Chris Wilmer'
_symmetry_space_group_name_H-M	'P1'
_symmetry_Int_Tables_number	1
_symmetry_cell_setting	triclinic
loop_
_symmetry_equiv_pos_as_xyz
  x,y,z
_cell_length_a	15.944551
_cell_length_b	16.053802
_cell_length_c	16.992695
_cell_angle_alpha	92.741074
_cell_angle_beta	87.083481
_cell_angle_gamma	87.423060
loop_
_atom_site_label
_atom_site_type_symbol
_atom_site_fract_x
_atom_site_fract_y
_atom_site_fract_z
O1	O	1.124624	-0.069342	0.097830
O2	O	0.880912	-0.069363	0.110297
O3	O	1.001791	-0.069346	-0.010079
O4	O	1.003745	-0.069359	0.218206
O5	O	0.995135	0.069512	-0.003480
O6	O	0.874256	0.069495	0.116896
O7	O	1.117969	0.069516	0.104429
Zn8	Zn	0.995056	0.091552	0.111710
Zn9	Zn	1.003825	-0.091399	0.103016
O10	O	0.997090	0.069499	0.224805
C11	C	0.846256	0.000063	0.113079
C12	C	0.752906	0.000055	0.111527
C13	C	0.532795	0.000076	0.033203
C14	C	0.477496	-0.068390	0.066321
C15	C	0.581991	0.000065	0.108720
C16	C	0.470958	0.068513	0.072845
C17	C	0.416896	0.000079	0.106003
C18	C	0.527924	-0.068457	0.141855
C19	C	0.521389	0.068507	0.148371
C20	C	0.466111	0.000024	0.181543
C21	C	0.677099	0.000057	0.110283
C22	C	0.321790	0.000081	0.104446
C23	C	0.995949	0.000083	-0.035992
C24	C	0.988449	0.000082	-0.123037
C25	C	1.152625	0.000087	0.101647
C26	C	1.245975	0.000090	0.103199
N27	N	0.989078	0.216411	0.117643
N28	N	1.009809	-0.216259	0.097077
C29	C	1.040533	0.260113	0.066441
C30	C	1.036359	0.347519	0.070598
C31	C	0.980734	0.391222	0.125962
C32	C	0.929273	0.347515	0.177166
C33	C	0.933443	0.260110	0.173004
C34	C	0.962518	0.652629	0.144119
C35	C	0.958354	0.740040	0.148279
C36	C	1.065439	0.740038	0.041710
C37	C	1.069608	0.652632	0.037556
C38	C	1.018144	0.608932	0.088757
N39	N	0.976469	0.480565	0.130215
N40	N	1.022406	0.519590	0.084500
C41	C	1.060814	0.000089	-0.173273
C42	C	1.053762	0.000080	-0.255060
C43	C	0.974345	0.000071	-0.286610
C44	C	0.901975	0.000061	-0.236367
C45	C	0.909028	0.000064	-0.154581
C46	C	0.945114	0.000057	-0.530210
C47	C	0.938067	0.000057	-0.612001
C48	C	1.089855	0.000074	-0.630689
C49	C	1.096901	0.000082	-0.548901
C50	C	1.024531	0.000068	-0.498666
N51	N	0.967135	0.000065	-0.370209
N52	N	1.031742	0.000068	-0.415068
C53	C	1.002931	0.000068	0.250718
C54	C	1.010432	0.000064	0.337762
H55	H	0.458018	-0.126270	0.031630
N56	N	0.545858	0.141108	0.191872
N57	N	0.521224	0.153984	0.262602
H58	H	0.538506	0.205263	0.293321
H59	H	1.078258	0.383100	0.028905
N60	N	1.141937	0.000118	-0.141048
N61	N	1.189155	0.058657	-0.153664
H62	H	1.246451	0.058677	-0.130907
N63	N	1.117986	0.784677	-0.010605
N64	N	1.112433	0.774926	-0.083545
H65	H	1.149543	0.806452	-0.120497
N66	N	1.178019	0.000099	-0.516667
N67	N	1.196078	0.058638	-0.470340
H68	H	1.253369	0.058655	-0.447574
H69	H	0.883977	0.383103	0.222242
N70	N	1.126435	0.607901	-0.018930
N71	N	1.182505	0.559115	0.003767
H72	H	1.222645	0.527492	-0.036101
H73	H	0.445954	0.126394	0.043641
N74	N	0.901535	0.784692	0.204833
N75	N	0.929119	0.833450	0.255846
H76	H	0.888993	0.864985	0.295786
H77	H	1.085833	0.224535	0.021361
H78	H	0.920615	0.617056	0.185811
N79	N	0.559172	-0.141137	0.178457
N80	N	0.636395	-0.152881	0.185536
H81	H	0.658466	-0.204207	0.211391
N82	N	0.880873	0.215481	0.225309
N83	N	0.831210	0.254509	0.274737
H84	H	0.794078	0.222991	0.311677
N85	N	1.127690	0.000079	-0.306365
N86	N	1.198593	0.000089	-0.278186
H87	H	1.250809	0.000085	-0.314419
H88	H	0.886185	0.000045	-0.489317
N89	N	1.163766	0.000090	-0.682014
N90	N	1.157462	0.000089	-0.755036
H91	H	1.209665	0.000099	-0.791286
H92	H	0.873392	0.000062	-0.637684
N93	N	0.820858	0.000041	-0.268604
N94	N	0.814570	0.000039	-0.341627
H95	H	0.757280	0.000026	-0.364395
H96	H	0.437162	-0.000018	0.244278
N97	N	0.835101	0.000046	-0.103275
N98	N	0.764197	0.000032	-0.131452
H99	H	0.711983	0.000014	-0.095218
H100	H	0.561929	-0.000005	-0.029473
