data_functionalizedCrystal
_audit_creation_method	'MofGen! by Chris Wilmer'
_symmetry_space_group_name_H-M	'P1'
_symmetry_Int_Tables_number	1
_symmetry_cell_setting	triclinic
loop_
_symmetry_equiv_pos_as_xyz
  x,y,z
_cell_length_a	14.044220
_cell_length_b	14.044190
_cell_length_c	13.101039
_cell_angle_alpha	93.663707
_cell_angle_beta	93.659868
_cell_angle_gamma	86.809672
loop_
_atom_site_label
_atom_site_type_symbol
_atom_site_fract_x
_atom_site_fract_y
_atom_site_fract_z
O1	O	-1.281975	0.225348	-0.085126
O2	O	-0.948642	0.558681	0.248208
O3	O	-0.615308	0.892015	0.581541
O4	O	-1.005305	0.217041	-0.085151
O5	O	-0.671972	0.550374	0.248183
O6	O	-0.338638	0.883708	0.581516
O7	O	-1.139483	0.082859	-0.085118
O8	O	-0.806149	0.416193	0.248215
O9	O	-0.472816	0.749526	0.581548
O10	O	-1.147797	0.359530	-0.085158
O11	O	-0.814464	0.692863	0.248175
O12	O	-0.481131	1.026196	0.581509
O13	O	-1.129857	0.092504	0.085309
O14	O	-0.796524	0.425838	0.418643
O15	O	-0.463190	0.759171	0.751976
O16	O	-0.995679	0.226686	0.085277
O17	O	-0.662346	0.560019	0.418610
O18	O	-0.329013	0.893352	0.751944
O19	O	-1.272349	0.234993	0.085302
O20	O	-0.939016	0.568326	0.418635
O21	O	-0.605683	0.901660	0.751969
Zn22	Zn	-1.132486	0.232371	0.112348
Zn23	Zn	-0.799153	0.565704	0.445682
Zn24	Zn	-0.465819	0.899037	0.779015
Zn25	Zn	-1.145168	0.219663	-0.112197
Zn26	Zn	-0.811835	0.552997	0.221136
Zn27	Zn	-0.478502	0.886330	0.554470
O28	O	-1.138172	0.369174	0.085270
O29	O	-0.804838	0.702508	0.418603
O30	O	-0.471505	1.035841	0.751936
C31	C	-0.964870	0.218228	0.000060
C32	C	-0.631537	0.551561	0.333393
C33	C	-0.298204	0.884894	0.666727
C34	C	-0.858728	0.207382	0.000051
C35	C	-0.525394	0.540716	0.333385
C36	C	-0.192061	0.874049	0.666718
C37	C	-1.131033	0.052060	0.000098
C38	C	-0.797700	0.385393	0.333431
C39	C	-0.464366	0.718727	0.666765
C40	C	-1.120185	-0.054083	0.000106
C41	C	-0.786852	0.279251	0.333439
C42	C	-0.453519	0.612584	0.666773
C43	C	-1.312784	0.233806	0.000089
C44	C	-0.979451	0.567140	0.333422
C45	C	-0.646118	0.900473	0.666756
C46	C	-1.418927	0.244651	0.000091
C47	C	-1.085594	0.577984	0.333424
C48	C	-0.752260	0.911318	0.666758
C49	C	-0.664388	0.187557	0.000075
C50	C	-0.331055	0.520891	0.333408
C51	C	0.002278	0.854224	0.666741
C52	C	-0.613261	0.264472	0.000068
C53	C	-0.279927	0.597805	0.333401
C54	C	0.053406	0.931138	0.666735
C55	C	-0.505123	0.253441	0.000081
C56	C	-0.171790	0.586774	0.333414
C57	C	0.161543	0.920107	0.666747
C58	C	-0.772535	0.198587	0.000062
C59	C	-0.439202	0.531920	0.333395
C60	C	-0.105869	0.865254	0.666728
C61	C	-1.177288	-0.299543	0.000071
C62	C	-0.843954	0.033790	0.333404
C63	C	-0.510621	0.367124	0.666738
C64	C	-1.100371	-0.248418	0.000071
C65	C	-0.767038	0.084916	0.333405
C66	C	-0.433705	0.418249	0.666738
C67	C	-1.111398	-0.140280	0.000091
C68	C	-0.778065	0.193054	0.333424
C69	C	-0.444732	0.526387	0.666757
C70	C	-1.166262	-0.407691	0.000052
C71	C	-0.832929	-0.074358	0.333385
C72	C	-0.499595	0.258976	0.666718
C73	C	-1.146621	0.399974	0.000051
C74	C	-0.813288	0.733307	0.333384
C75	C	-0.479955	1.066640	0.666718
C76	C	-1.157470	0.506116	0.000036
C77	C	-0.824136	0.839449	0.333370
C78	C	-0.490803	1.172783	0.666703
N79	N	-1.123838	0.241043	0.265595
N80	N	-0.790504	0.574376	0.598928
N81	N	-0.457171	0.907710	0.932262
N82	N	-1.153824	0.210984	-0.265444
N83	N	-0.820490	0.544317	0.067890
N84	N	-0.487157	0.877651	0.401223
C85	C	-1.112072	0.252851	0.474635
C86	C	-0.778739	0.586184	0.807968
C87	C	-0.445405	0.919518	1.141301
C88	C	-1.165586	0.199179	0.525523
C89	C	-0.832253	0.532512	0.858857
C90	C	-0.498920	0.865845	1.192190
C91	C	-1.159040	0.205749	0.641840
C92	C	-0.825706	0.539082	0.975173
C93	C	-0.492373	0.872416	1.308507
C94	C	-1.118618	0.246282	0.358307
C95	C	-0.785284	0.579615	0.691641
C96	C	-0.451951	0.912949	1.024974
H97	H	-0.626948	0.113431	0.000091
H98	H	-0.293615	0.446764	0.333424
H99	H	0.039718	0.780097	0.666757
O100	O	-1.265752	-0.254933	-0.000088
O101	O	-0.932418	0.078400	0.333245
O102	O	-0.599085	0.411734	0.666579
C103	C	-1.320640	-0.286650	-0.088336
C104	C	-0.987307	0.046684	0.244998
C105	C	-0.653973	0.380017	0.578331
H106	H	-1.271043	-0.315275	-0.150044
H107	H	-0.937710	0.018058	0.183289
H108	H	-0.604376	0.351392	0.516623
H109	H	-1.367925	-0.224482	-0.117943
H110	H	-1.034592	0.108851	0.215391
H111	H	-0.701259	0.442185	0.548724
H112	H	-1.367336	-0.345836	-0.068381
H113	H	-1.034002	-0.012503	0.264952
H114	H	-0.700669	0.320830	0.598285
H115	H	-0.650703	0.338605	0.000052
H116	H	-0.317369	0.671938	0.333386
H117	H	0.015964	1.005271	0.666719
O118	O	-1.225878	0.138245	0.473284
O119	O	-0.892545	0.471578	0.806618
O120	O	-0.559211	0.804912	1.139951
C121	C	-1.172942	0.071629	0.411400
C122	C	-0.839609	0.404962	0.744733
C123	C	-0.506275	0.738295	1.078067
H124	H	-1.102497	0.102685	0.395348
H125	H	-0.769164	0.436018	0.728682
H126	H	-0.435831	0.769352	1.062015
H127	H	-1.215641	0.055383	0.335945
H128	H	-0.882308	0.388717	0.669278
H129	H	-0.548975	0.722050	1.002611
H130	H	-1.157883	0.002951	0.452863
H131	H	-0.824549	0.336284	0.786196
H132	H	-0.491216	0.669618	1.119530
H133	H	-1.026240	-0.285862	0.000059
H134	H	-0.692906	0.047472	0.333392
H135	H	-0.359573	0.380805	0.666725
O136	O	-1.051638	0.313540	0.527024
O137	O	-0.718305	0.646873	0.860357
O138	O	-0.384972	0.980206	1.193691
C139	C	-1.058469	0.306661	0.633179
C140	C	-0.725136	0.639994	0.966512
C141	C	-0.391802	0.973327	1.299845
H142	H	-1.130492	0.278109	0.647699
H143	H	-0.797158	0.611442	0.981033
H144	H	-0.463825	0.944776	1.314366
H145	H	-1.051832	0.380343	0.674036
H146	H	-0.718498	0.713676	1.007370
H147	H	-0.385165	1.047009	1.340703
H148	H	-0.998609	0.255970	0.663640
H149	H	-0.665276	0.589303	0.996974
H150	H	-0.331943	0.922636	1.330307
