data_functionalizedCrystal
_audit_creation_method	'MofGen! by Chris Wilmer'
_symmetry_space_group_name_H-M	'P1'
_symmetry_Int_Tables_number	1
_symmetry_cell_setting	triclinic
loop_
_symmetry_equiv_pos_as_xyz
  x,y,z
_cell_length_a	8.497374
_cell_length_b	8.497374
_cell_length_c	14.908571
_cell_angle_alpha	93.295221
_cell_angle_beta	93.301816
_cell_angle_gamma	90.005237
loop_
_atom_site_label
_atom_site_type_symbol
_atom_site_fract_x
_atom_site_fract_y
_atom_site_fract_z
Zn1	Zn	0.767758	1.031138	1.379201
Zn2	Zn	1.031503	0.767403	1.379194
Zn3	Zn	0.752484	0.752162	1.228379
Zn4	Zn	1.016241	1.015929	1.228357
O5	O	0.891996	0.891658	1.303783
O6	O	0.815524	1.008897	1.505446
O7	O	0.994486	0.544620	1.359194
O8	O	0.533749	0.789155	1.248398
O9	O	1.009296	0.815132	1.505441
O10	O	0.544971	0.994118	1.359206
O11	O	0.789492	0.533422	1.248391
O12	O	0.774693	0.774407	1.102130
O13	O	0.983284	1.238708	1.248361
O14	O	0.968473	0.968196	1.102114
O15	O	0.800724	1.249882	1.359185
O16	O	1.250240	0.800384	1.359173
O17	O	1.239026	0.982975	1.248354
C18	C	0.868270	0.867999	1.069388
C19	C	0.858158	0.857914	0.969113
C20	C	1.301875	0.891680	1.303771
C21	C	1.480522	0.891656	1.303795
C22	C	0.891998	1.303138	1.303776
C23	C	0.892015	1.481782	1.303778
C24	C	1.041253	1.040486	0.780717
C25	C	1.031757	1.031017	0.686500
C26	C	0.829662	0.829515	0.686459
C27	C	0.839159	0.838984	0.780676
C28	C	0.944959	0.944472	0.827802
C29	C	0.954463	0.953932	0.922021
C30	C	0.752361	0.752439	0.921979
C31	C	0.742865	0.742970	0.827761
C32	C	0.915816	0.915411	1.539093
C33	C	0.925967	0.925533	1.639368
H34	H	1.040614	1.039823	0.960390
H35	H	0.673955	0.674254	0.960325
O36	O	0.727085	0.726932	0.640618
C37	C	0.811201	0.619461	0.586069
H38	H	0.938292	0.612309	0.614471
H39	H	0.753787	0.498051	0.584944
H40	H	0.809541	0.661118	0.514684
H41	H	1.127409	1.126370	0.819088
O42	O	0.639875	0.640675	0.782023
C43	C	0.485019	0.677657	0.805057
H44	H	0.479852	0.806302	0.830970
H45	H	0.400808	0.657944	0.743090
H46	H	0.449175	0.598631	0.859735
H47	H	1.110166	1.109205	0.648167
