data_functionalizedCrystal
_audit_creation_method	'MofGen! by Chris Wilmer'
_symmetry_space_group_name_H-M	'P1'
_symmetry_Int_Tables_number	1
_symmetry_cell_setting	triclinic
loop_
_symmetry_equiv_pos_as_xyz
  x,y,z
_cell_length_a	13.033293
_cell_length_b	13.032721
_cell_length_c	18.215399
_cell_angle_alpha	97.151969
_cell_angle_beta	82.794170
_cell_angle_gamma	105.184121
loop_
_atom_site_label
_atom_site_type_symbol
_atom_site_fract_x
_atom_site_fract_y
_atom_site_fract_z
Zn1	Zn	1.570163	-0.216811	-0.576175
Zn2	Zn	1.547489	-0.394458	-0.466963
Zn3	Zn	1.392537	-0.239388	-0.439228
Zn4	Zn	1.369942	-0.416917	-0.576090
O5	O	1.470033	-0.316894	-0.514614
O6	O	1.715796	-0.221529	-0.573331
O7	O	1.526902	-0.373936	-0.360301
O8	O	1.435045	-0.087751	-0.445822
O9	O	1.699138	-0.352045	-0.493093
O10	O	1.565546	-0.071164	-0.546437
O11	O	1.413059	-0.260007	-0.339924
O12	O	1.240899	-0.281785	-0.445740
O13	O	1.396534	-0.390324	-0.679084
O14	O	1.224298	-0.412215	-0.546292
O15	O	1.543636	-0.243307	-0.679147
O16	O	1.504992	-0.546079	-0.493011
O17	O	1.374548	-0.562580	-0.573186
C18	C	1.194057	-0.351888	-0.492998
C19	C	1.075991	-0.366884	-0.483770
C20	C	1.031582	-0.309094	-0.519432
C21	C	0.909554	-0.324592	-0.509896
C22	C	1.434886	-0.592867	-0.536118
C23	C	1.419948	-0.710918	-0.545349
C24	C	1.477886	-0.755342	-0.509834
C25	C	1.462447	-0.877353	-0.519374
C26	C	1.747086	-0.281763	-0.536315
C27	C	1.865149	-0.266793	-0.545563
C28	C	1.470094	-0.316802	-0.706564
C29	C	1.470120	-0.316763	-0.788362
C30	C	1.505345	-0.039838	-0.493045
C31	C	1.520393	0.078226	-0.483854
C32	C	1.410905	-0.257387	-0.965948
C33	C	1.410926	-0.257364	-1.042806
C34	C	1.529477	-0.375997	-1.064015
C35	C	1.529449	-0.376026	-0.987158
C36	C	1.470166	-0.316715	-0.938126
C37	C	1.470215	-0.316662	-1.091841
C38	C	1.470238	-0.316637	-1.175175
C39	C	1.470140	-0.316742	-0.854787
C40	C	1.470043	-0.316900	-0.323409
C41	C	1.470261	-0.316614	-0.241605
H42	H	0.917466	-0.205832	-0.583154
C43	C	1.338721	-0.780750	-0.595380
C44	C	1.390831	-0.836723	-0.652216
C45	C	1.316037	-0.901069	-0.698314
H46	H	1.304333	-0.737182	-0.616502
H47	H	1.287030	-0.830016	-0.566970
H48	H	1.442503	-0.787462	-0.680622
H49	H	1.425215	-0.880311	-0.631115
H50	H	1.264345	-0.950336	-0.669905
H51	H	1.281653	-0.857493	-0.719431
H52	H	1.351381	-0.939062	-0.736879
H53	H	1.577708	-0.424341	-0.964506
H54	H	1.362632	-0.209093	-0.926027
H55	H	1.401415	-0.929644	-0.556849
H56	H	1.362669	-0.209054	-1.065454
C57	C	1.101512	-0.227911	-0.569555
C58	C	1.208640	-0.228704	-0.569069
C59	C	1.273086	-0.153941	-0.615242
H60	H	1.092595	-0.158752	-0.551950
H61	H	1.081485	-0.245831	-0.618820
H62	H	1.228661	-0.210777	-0.519814
H63	H	1.217591	-0.297845	-0.586681
H64	H	1.253059	-0.171861	-0.664507
H65	H	1.264159	-0.084788	-0.597632
H66	H	1.345778	-0.154476	-0.614923
C67	C	1.593876	-0.440489	-1.117130
C68	C	1.645745	-0.492475	-1.076312
C69	C	1.705072	-0.551904	-1.125215
H70	H	1.645425	-0.394079	-1.147592
H71	H	1.547375	-0.491968	-1.147524
H72	H	1.692242	-0.441003	-1.045931
H73	H	1.594222	-0.538903	-1.045852
H74	H	1.658572	-0.603383	-1.155608
H75	H	1.756615	-0.505487	-1.155674
H76	H	1.740265	-0.587191	-1.097527
H77	H	1.538922	-0.703049	-0.472367
H78	H	0.857237	-0.385544	-0.472299
C79	C	1.006051	-0.448144	-0.433705
C80	C	0.898918	-0.447387	-0.434220
C81	C	0.834461	-0.522241	-0.388117
H82	H	1.026002	-0.430315	-0.384427
H83	H	1.015036	-0.517274	-0.451372
H84	H	0.889938	-0.378272	-0.416550
H85	H	0.878935	-0.465228	-0.483486
H86	H	0.843446	-0.591371	-0.405783
H87	H	0.854421	-0.504405	-0.338842
H88	H	0.761764	-0.521744	-0.388465
H89	H	1.581434	-0.869483	-0.446385
