data_functionalizedCrystal
_audit_creation_method	'MofGen! by Chris Wilmer'
_symmetry_space_group_name_H-M	'P1'
_symmetry_Int_Tables_number	1
_symmetry_cell_setting	triclinic
loop_
_symmetry_equiv_pos_as_xyz
  x,y,z
_cell_length_a	12.645331
_cell_length_b	12.645330
_cell_length_c	12.645323
_cell_angle_alpha	90.027006
_cell_angle_beta	90.022676
_cell_angle_gamma	90.011625
loop_
_atom_site_label
_atom_site_type_symbol
_atom_site_fract_x
_atom_site_fract_y
_atom_site_fract_z
Zn1	Zn	1.620768	-0.422060	0.599431
Zn2	Zn	1.620666	-0.599348	0.422164
Zn3	Zn	1.443483	-0.422096	0.422175
Zn4	Zn	1.443480	-0.599279	0.599379
O5	O	1.532099	-0.510695	0.510787
O6	O	1.769102	-0.445591	0.575933
O7	O	1.597120	-0.575879	0.273818
O8	O	1.467044	-0.273744	0.445714
O9	O	1.769027	-0.575844	0.445696
O10	O	1.597295	-0.273717	0.575943
O11	O	1.466945	-0.445653	0.273826
O12	O	1.295135	-0.445585	0.445665
O13	O	1.467040	-0.575726	0.747734
O14	O	1.295133	-0.575761	0.575856
O15	O	1.597293	-0.445524	0.747771
O16	O	1.597118	-0.747686	0.445646
O17	O	1.466940	-0.747635	0.575845
C18	C	1.256670	-0.510670	0.510757
C19	C	1.138840	-0.510685	0.510769
C20	C	1.532046	-0.786125	0.510762
C21	C	1.532121	-0.903955	0.510787
C22	C	0.971241	-0.428415	0.429317
C23	C	1.093801	-0.428628	0.428958
C24	C	1.094329	-0.622359	0.480250
C25	C	0.971731	-0.621910	0.479694
C26	C	0.971688	-0.482344	0.623054
C27	C	1.094293	-0.479849	0.622430
C28	C	1.613884	-1.071507	0.428712
C29	C	1.614150	-0.948947	0.428913
C30	C	1.562421	-0.948338	0.622532
C31	C	1.563069	-1.070936	0.622096
C32	C	1.420025	-1.071281	0.482218
C33	C	1.420562	-0.948676	0.479712
C34	C	1.808605	-0.510722	0.510819
C35	C	1.926435	-0.510733	0.510832
C36	C	1.532177	-0.510613	0.787293
C37	C	1.532211	-0.510579	0.905123
C38	C	1.532182	-0.234190	0.510836
C39	C	1.532217	-0.116360	0.510856
C40	C	1.532083	-0.510701	0.235357
C41	C	1.532255	-0.510437	0.117528
C42	C	1.450016	-0.592103	1.072663
C43	C	1.450231	-0.592506	0.950103
C44	C	1.643913	-0.540899	0.949642
C45	C	1.643462	-0.541410	1.072240
C46	C	1.503760	-0.398278	1.072325
C47	C	1.501267	-0.398951	0.949718
H48	H	0.941770	-0.345355	0.448241
C49	C	1.333923	-0.907321	0.554606
H50	H	1.364791	-0.862044	0.606041
H51	H	1.282767	-0.869101	0.515048
H52	H	1.300772	-0.965313	0.588957
H53	H	1.123504	-0.685331	0.537758
H54	H	1.359177	-1.100287	0.542047
H55	H	1.697246	-0.919540	0.447855
H56	H	1.124987	-0.646847	0.399090
C57	C	1.389672	-0.909481	0.368637
H58	H	1.322116	-0.936797	0.350292
H59	H	1.387257	-0.834400	0.368393
H60	H	1.440583	-0.933076	0.318696
C61	C	1.484499	-0.908999	0.707431
H62	H	1.504273	-0.936784	0.774367
H63	H	1.486069	-0.833939	0.710053
H64	H	1.415072	-0.932035	0.690251
H65	H	1.645076	-1.099450	0.646354
H66	H	0.940784	-0.402333	0.650808
H67	H	1.366940	-0.573311	1.102138
C68	C	1.729058	-0.464567	1.112342
H69	H	1.763958	-0.433182	1.053703
H70	H	1.697043	-0.410929	1.154074
H71	H	1.778998	-0.502200	1.153974
H72	H	1.667614	-0.623400	1.100848
C73	C	1.475634	-0.704831	0.910490
H74	H	1.485879	-0.750390	0.969326
H75	H	1.418515	-0.730219	0.868783
H76	H	1.538184	-0.703189	0.868935
C77	C	0.933030	-0.654420	0.368866
H78	H	0.992234	-0.667772	0.324604
H79	H	0.891192	-0.716594	0.374137
H80	H	0.891802	-0.598933	0.339472
H81	H	1.668479	-0.622030	0.918950
H82	H	1.123390	-0.397670	0.645443
C83	C	1.486220	-1.111019	0.707605
H84	H	1.454748	-1.052373	0.742460
H85	H	1.432648	-1.152829	0.675533
H86	H	1.523870	-1.152568	0.757595
C87	C	0.932549	-0.563330	0.705109
H88	H	0.960160	-0.545766	0.772758
H89	H	0.857479	-0.562167	0.707601
H90	H	0.955878	-0.632025	0.685591
C91	C	1.725539	-1.113019	0.454001
H92	H	1.774391	-1.085549	0.403995
H93	H	1.745402	-1.091062	0.523061
H94	H	1.725709	-1.188066	0.450529
H95	H	0.942092	-0.685319	0.536477
C96	C	1.135693	-0.554947	0.708867
H97	H	1.180884	-0.606323	0.677848
H98	H	1.174013	-0.515516	0.760092
H99	H	1.077710	-0.589360	0.741973
C100	C	1.588553	-0.908409	0.316981
H101	H	1.577902	-0.966869	0.270975
H102	H	1.526207	-0.866571	0.319134
H103	H	1.645782	-0.866792	0.291766
C104	C	1.338340	-0.566861	0.909433
H105	H	1.292342	-0.556109	0.967839
H106	H	1.340593	-0.504560	0.867551
H107	H	1.313046	-0.624110	0.867834
C108	C	1.395642	-0.360937	1.114073
H109	H	1.366865	-0.413409	1.159465
H110	H	1.404326	-0.296806	1.152253
H111	H	1.349022	-0.349586	1.056254
C112	C	1.390220	-0.368051	0.910417
H113	H	1.371950	-0.300457	0.937666
H114	H	1.389959	-0.365718	0.835334
H115	H	1.340235	-0.418916	0.934024
C116	C	1.134461	-0.316755	0.454776
H117	H	1.076051	-0.270767	0.465574
H118	H	1.176381	-0.319048	0.517086
H119	H	1.176019	-0.291421	0.397572
C120	C	1.588707	-1.111571	0.316477
H121	H	1.528158	-1.156003	0.318702
H122	H	1.575148	-1.053036	0.271414
H123	H	1.647310	-1.150455	0.290084
H124	H	1.706830	-0.483299	0.920508
C125	C	1.576276	-0.312405	0.908368
H126	H	1.627680	-0.343357	0.863169
H127	H	1.536788	-0.261265	0.870065
H128	H	1.610659	-0.279215	0.966368
H129	H	1.563658	-0.337434	1.101341
H130	H	1.643501	-0.917551	0.647194
C131	C	1.382799	-1.113156	0.374055
H132	H	1.314956	-1.085005	0.358281
H133	H	1.431588	-1.092156	0.320959
H134	H	1.378878	-1.188149	0.376201
C135	C	0.929568	-0.453463	0.317634
H136	H	0.957014	-0.403354	0.268874
H137	H	0.951449	-0.522481	0.297605
H138	H	0.854523	-0.449986	0.317520
C139	C	1.133369	-0.453982	0.316622
H140	H	1.208495	-0.454190	0.316016
H141	H	1.107946	-0.521530	0.295727
H142	H	1.108087	-0.401853	0.268815
C143	C	1.475165	-0.703725	1.114300
H144	H	1.535570	-0.700776	1.158902
H145	H	1.416471	-0.729707	1.153300
H146	H	1.488990	-0.749552	1.056383
