data_functionalizedCrystal
_audit_creation_method	'MofGen! by Chris Wilmer'
_symmetry_space_group_name_H-M	'P1'
_symmetry_Int_Tables_number	1
_symmetry_cell_setting	triclinic
loop_
_symmetry_equiv_pos_as_xyz
  x,y,z
_cell_length_a	13.032831
_cell_length_b	13.032721
_cell_length_c	13.033327
_cell_angle_alpha	105.164023
_cell_angle_beta	103.316083
_cell_angle_gamma	89.097115
loop_
_atom_site_label
_atom_site_type_symbol
_atom_site_fract_x
_atom_site_fract_y
_atom_site_fract_z
Zn1	Zn	1.617000	0.734950	0.889167
Zn2	Zn	1.950333	1.068283	1.222501
Zn3	Zn	2.283667	1.401616	1.555834
Zn4	Zn	1.577544	0.884219	0.728371
Zn5	Zn	1.910878	1.217553	1.061704
Zn6	Zn	2.244211	1.550886	1.395038
Zn7	Zn	1.422620	0.684049	0.683334
Zn8	Zn	1.755953	1.017382	1.016667
Zn9	Zn	2.089286	1.350715	1.350001
Zn10	Zn	1.422521	0.884183	0.883406
Zn11	Zn	1.755854	1.217516	1.216739
Zn12	Zn	2.089188	1.550850	1.550072
O13	O	1.509921	0.796850	0.796070
O14	O	1.843255	1.130184	1.129403
O15	O	2.176588	1.463517	1.462736
O16	O	1.757993	0.776068	0.889097
O17	O	2.091326	1.109402	1.222430
O18	O	2.424659	1.442735	1.555764
O19	O	1.540522	0.836379	0.571372
O20	O	1.873856	1.169712	0.904706
O21	O	2.207189	1.503046	1.238039
O22	O	1.464958	0.544574	0.694202
O23	O	1.798291	0.877907	1.027535
O24	O	2.131625	1.211241	1.360868
O25	O	1.729005	0.885736	0.770961
O26	O	2.062338	1.219069	1.104294
O27	O	2.395671	1.552403	1.437627
O28	O	1.607768	0.581971	0.845426
O29	O	1.941102	0.915304	1.178760
O30	O	2.274435	1.248638	1.512093
O31	O	1.426700	0.689315	0.538284
O32	O	1.760033	1.022648	0.871617
O33	O	2.093366	1.355981	1.204951
O34	O	1.276380	0.689279	0.688614
O35	O	1.609713	1.022613	1.021948
O36	O	1.943047	1.355946	1.355281
O37	O	1.464790	0.885674	1.035194
O38	O	1.798123	1.219007	1.368528
O39	O	2.131457	1.552341	1.701861
O40	O	1.276307	0.836317	0.835606
O41	O	1.609641	1.169651	1.168939
O42	O	1.942974	1.502984	1.502273
O43	O	1.607673	0.776033	1.039428
O44	O	1.941006	1.109366	1.372761
O45	O	2.274339	1.442700	1.706094
O46	O	1.540427	1.030441	0.765374
O47	O	1.873760	1.363775	1.098707
O48	O	2.207093	1.697108	1.432040
O49	O	1.426532	1.030415	0.879277
O50	O	1.759865	1.363748	1.212610
O51	O	2.093198	1.697081	1.545943
C52	C	1.238429	0.757272	0.756599
C53	C	1.571762	1.090605	1.089932
C54	C	1.905095	1.423938	1.423265
C55	C	1.122283	0.740369	0.739741
C56	C	1.455616	1.073702	1.073075
C57	C	1.788950	1.407035	1.406408
C58	C	1.070471	0.805672	0.804867
C59	C	1.403805	1.139006	1.138201
C60	C	1.737138	1.472339	1.471534
C61	C	0.950429	0.788204	0.787446
C62	C	1.283762	1.121537	1.120779
C63	C	1.617095	1.454870	1.454113
C64	C	1.479218	1.068350	0.826615
C65	C	1.812551	1.401684	1.159948
C66	C	2.145885	1.735017	1.493281
C67	C	1.466182	1.184518	0.839732
C68	C	1.799516	1.517852	1.173065
C69	C	2.132849	1.851185	1.506399
C70	C	1.540622	0.836527	1.077565
C71	C	1.873955	1.169861	1.410898
C72	C	2.207288	1.503194	1.744231
C73	C	1.553704	0.853435	1.197521
C74	C	1.887038	1.186769	1.530855
C75	C	2.220371	1.520102	1.864188
C76	C	1.782474	0.836584	0.835695
C77	C	2.115807	1.169917	1.169029
C78	C	2.449140	1.503251	1.502362
C79	C	1.898619	0.853516	0.852581
C80	C	2.231953	1.186850	1.185915
C81	C	2.565286	1.520183	1.519248
C82	C	1.540775	0.524297	0.765433
C83	C	1.874109	0.857631	1.098766
C84	C	2.207442	1.190964	1.432100
C85	C	1.553924	0.408151	0.752377
C86	C	1.887257	0.741485	1.085711
C87	C	2.220590	1.074818	1.419044
C88	C	1.516785	1.236303	0.789280
C89	C	1.850119	1.569637	1.122613
C90	C	2.183452	1.902970	1.455947
C91	C	1.503314	1.356369	0.802836
C92	C	1.836647	1.689702	1.136170
C93	C	2.169980	2.023036	1.469503
C94	C	1.503220	0.788209	1.234630
C95	C	1.836553	1.121542	1.567963
C96	C	2.169886	1.454876	1.901297
C97	C	1.516740	0.805683	1.358611
C98	C	1.850073	1.139016	1.691944
C99	C	2.183407	1.472349	2.025278
C100	C	1.479330	0.757351	1.515671
C101	C	1.812664	1.090684	1.849004
C102	C	2.145997	1.424018	2.182338
C103	C	1.466249	0.740447	1.395715
C104	C	1.799582	1.073780	1.729048
C105	C	2.132915	1.407114	2.062382
H106	H	0.943128	0.922358	0.921247
H107	H	1.276462	1.255691	1.254580
H108	H	1.609795	1.589024	1.587913
C109	C	1.588558	0.898685	1.439680
C110	C	1.921891	1.232018	1.773013
C111	C	2.255225	1.565351	2.106347
N112	N	1.642615	0.968759	1.500742
N113	N	1.975948	1.302093	1.834075
N114	N	2.309282	1.635426	2.167408
C115	C	1.625931	1.347974	0.680460
C116	C	1.959264	1.681307	1.013794
C117	C	2.292598	2.014640	1.347127
N118	N	1.680164	1.302647	0.626292
N119	N	2.013498	1.635980	0.959625
N120	N	2.346831	1.969313	1.292958
C121	C	1.625518	0.946433	1.278593
C122	C	1.958852	1.279766	1.611927
C123	C	2.292185	1.613099	1.945260
N124	N	1.679575	1.016507	1.339655
N125	N	2.012909	1.349841	1.672988
N126	N	2.346242	1.683174	2.006322
H127	H	0.905920	0.719354	0.718791
H128	H	1.239254	1.052687	1.052124
H129	H	1.572587	1.386021	1.385457
C130	C	1.130601	0.898678	0.897617
C131	C	1.463934	1.232012	1.230950
C132	C	1.797267	1.565345	1.564284
N133	N	1.175889	0.968735	0.967476
N134	N	1.509222	1.302068	1.300810
N135	N	1.842555	1.635401	1.634143
C136	C	1.431305	1.416549	0.874751
C137	C	1.764639	1.749882	1.208084
C138	C	2.097972	2.083215	1.541418
N139	N	1.377068	1.461877	0.928914
N140	N	1.710401	1.795211	1.262247
N141	N	2.043734	2.128544	1.595581
H142	H	1.077771	0.671524	0.671091
H143	H	1.411104	1.004857	1.004424
H144	H	1.744438	1.338190	1.337757
H145	H	1.570087	1.191754	0.736055
H146	H	1.903420	1.525087	1.069388
H147	H	2.236753	1.858421	1.402721
C148	C	1.394178	1.244702	0.911643
C149	C	1.727511	1.578035	1.244976
C150	C	2.060844	1.911369	1.578310
N151	N	1.339940	1.290030	0.965806
N152	N	1.673273	1.623364	1.299139
N153	N	2.006607	1.956697	1.632473
C154	C	1.431315	0.695281	1.153555
C155	C	1.764648	1.028615	1.486889
C156	C	2.097982	1.361948	1.820222
N157	N	1.377159	0.625282	1.092491
N158	N	1.710493	0.958615	1.425824
N159	N	2.043826	1.291949	1.759157
C160	C	1.394328	0.647523	1.314645
C161	C	1.727661	0.980856	1.647978
C162	C	2.060994	1.314190	1.981312
N163	N	1.340158	0.577533	1.253582
N164	N	1.673491	0.910866	1.586916
N165	N	2.006825	1.244200	1.920249
