data_functionalizedCrystal
_audit_creation_method	'MofGen! by Chris Wilmer'
_symmetry_space_group_name_H-M	'P1'
_symmetry_Int_Tables_number	1
_symmetry_cell_setting	triclinic
loop_
_symmetry_equiv_pos_as_xyz
  x,y,z
_cell_length_a	13.033293
_cell_length_b	19.120786
_cell_length_c	13.032268
_cell_angle_alpha	85.590044
_cell_angle_beta	90.920818
_cell_angle_gamma	99.298280
loop_
_atom_site_label
_atom_site_type_symbol
_atom_site_fract_x
_atom_site_fract_y
_atom_site_fract_z
Zn1	Zn	1.486522	-0.218229	0.766087
Zn2	Zn	1.986522	0.281771	1.266087
Zn3	Zn	1.502749	-0.319030	0.587002
Zn4	Zn	2.002749	0.180970	1.087002
Zn5	Zn	1.336584	-0.214525	0.572524
Zn6	Zn	1.836584	0.285475	1.072524
Zn7	Zn	1.307400	-0.348271	0.734979
Zn8	Zn	1.807400	0.151729	1.234979
O9	O	1.408314	-0.275014	0.665148
O10	O	1.908314	0.224986	1.165148
O11	O	1.633178	-0.220913	0.761409
O12	O	2.133178	0.279087	1.261409
O13	O	1.499712	-0.291380	0.442146
O14	O	1.999712	0.208620	0.942146
O15	O	1.361897	-0.116857	0.605159
O16	O	1.861897	0.383143	1.105159
O17	O	1.645100	-0.294971	0.629836
O18	O	2.145100	0.205029	1.129836
O19	O	1.472055	-0.119578	0.747369
O20	O	1.972055	0.380422	1.247369
O21	O	1.377632	-0.214600	0.431509
O22	O	1.877632	0.285400	0.931509
O23	O	1.188210	-0.242954	0.574996
O24	O	1.688210	0.257046	1.074996
O25	O	1.312156	-0.344808	0.882042
O26	O	1.812156	0.155192	1.382042
O27	O	1.166768	-0.341216	0.694351
O28	O	1.666768	0.158784	1.194351
O29	O	1.443756	-0.249267	0.904896
O30	O	1.943756	0.250733	1.404896
O31	O	1.471413	-0.421068	0.599673
O32	O	1.971413	0.078932	1.099673
O33	O	1.327891	-0.442551	0.708391
O34	O	1.827891	0.057449	1.208391
C35	C	1.140020	-0.294857	0.629728
C36	C	1.640020	0.205143	1.129728
C37	C	1.025239	-0.303365	0.614598
C38	C	1.525239	0.196635	1.114598
C39	C	0.968151	-0.270591	0.673043
C40	C	1.468151	0.229409	1.173043
C41	C	0.849518	-0.279384	0.657407
C42	C	1.349518	0.220616	1.157407
C43	C	1.398271	-0.457261	0.652253
C44	C	1.898271	0.042739	1.152253
C45	C	1.394064	-0.535224	0.646783
C46	C	1.894064	-0.035224	1.146783
C47	C	1.449385	-0.573216	0.718301
C48	C	1.949385	-0.073216	1.218301
C49	C	1.445428	-0.646471	0.713163
C50	C	1.945428	-0.146471	1.213163
C51	C	1.386156	-0.681731	0.636502
C52	C	1.886156	-0.181731	1.136502
C53	C	1.330828	-0.643734	0.564980
C54	C	1.830828	-0.143734	1.064980
C55	C	1.334780	-0.570481	0.570124
C56	C	1.834780	-0.070481	1.070124
C57	C	1.371352	-0.902838	0.617269
C58	C	1.871352	-0.402838	1.117269
C59	C	1.367407	-0.976096	0.612129
C60	C	1.867407	-0.476096	1.112129
C61	C	1.482006	-0.978828	0.760314
C62	C	1.982006	-0.478828	1.260314
C63	C	1.485958	-0.905573	0.765447
C64	C	1.985958	-0.405573	1.265447
C65	C	1.430626	-0.867583	0.693928
C66	C	1.930626	-0.367583	1.193928
C67	C	1.382112	-0.756609	0.631246
C68	C	1.882112	-0.256609	1.131246
C69	C	1.434664	-0.792708	0.699190
C70	C	1.934664	-0.292708	1.199190
C71	C	1.677655	-0.255094	0.700707
C72	C	2.177655	0.244906	1.200707
C73	C	1.792432	-0.246605	0.715861
C74	C	2.292432	0.253395	1.215861
C75	C	1.372890	-0.300712	0.931567
C76	C	1.872890	0.199288	1.431567
C77	C	1.357794	-0.311664	1.045098
C78	C	1.857794	0.188336	1.545098
C79	C	1.418421	-0.092054	0.678119
C80	C	1.918421	0.407946	1.178119
C81	C	1.422728	-0.014088	0.683647
C82	C	1.922728	0.485912	1.183647
C83	C	1.443662	-0.249360	0.399777
C84	C	1.943662	0.250640	0.899777
C85	C	1.458968	-0.238196	0.286286
C86	C	1.958968	0.261804	0.786286
C87	C	1.416177	-0.269274	1.107022
C88	C	1.916177	0.230726	1.607022
C89	C	1.400577	-0.280592	1.224364
C90	C	1.900577	0.219408	1.724364
H91	H	1.497656	-0.544512	0.780723
H92	H	1.997656	-0.044512	1.280723
H93	H	0.810571	-0.313953	0.595787
H94	H	1.310571	0.186047	1.095787
O95	O	1.281196	-0.533482	0.500623
O96	O	1.781196	-0.033482	1.000623
C97	C	1.351091	-0.480386	0.445424
C98	C	1.851091	0.019614	0.945424
H99	H	1.425116	-0.467047	0.492610
H100	H	1.925116	0.032953	0.992610
H101	H	1.313637	-0.430693	0.429767
H102	H	1.813637	0.069307	0.929767
H103	H	1.371036	-0.500483	0.369260
H104	H	1.871036	-0.000483	0.869260
O105	O	1.014769	-0.229400	0.746533
O106	O	1.514769	0.270600	1.246533
C107	C	1.122842	-0.229781	0.745771
C108	C	1.622842	0.270219	1.245771
H109	H	1.138956	-0.279562	0.710276
H110	H	1.638956	0.220438	1.210276
H111	H	1.154012	-0.229462	0.827998
H112	H	1.654012	0.270538	1.327998
H113	H	1.162949	-0.180627	0.698427
H114	H	1.662949	0.319373	1.198427
H115	H	0.986288	-0.337932	0.552982
H116	H	1.486288	0.162068	1.052982
O117	O	1.284523	-0.365027	1.085536
O118	O	1.784523	0.134973	1.585536
C119	C	1.332665	-0.411882	1.151826
C120	C	1.832665	0.088118	1.651826
H121	H	1.418009	-0.407111	1.130038
H122	H	1.918009	0.092889	1.630038
H123	H	1.292166	-0.468754	1.144383
H124	H	1.792166	0.031246	1.644383
H125	H	1.326749	-0.397672	1.234661
H126	H	1.826749	0.102328	1.734661
H127	H	1.520501	-0.193519	1.252436
H128	H	2.020501	0.306481	1.752436
O129	O	1.535902	-1.015678	0.829709
O130	O	2.035902	-0.515678	1.329709
C131	C	1.642764	-0.987950	0.822353
C132	C	2.142764	-0.487950	1.322353
H133	H	1.659994	-0.959575	0.742865
H134	H	2.159994	-0.459575	1.242865
H135	H	1.689999	-1.033170	0.834567
H136	H	2.189999	-0.533170	1.334567
H137	H	1.664712	-0.948686	0.883676
H138	H	2.164712	-0.448686	1.383676
H139	H	1.319136	-1.004803	0.549700
H140	H	1.819136	-0.504803	1.049700
H141	H	0.831378	-0.212030	0.777474
H142	H	1.331378	0.287970	1.277474
H143	H	1.490485	-0.677400	0.771394
H144	H	1.990485	-0.177400	1.271394
H145	H	1.534222	-0.876866	0.827870
H146	H	2.034222	-0.376866	1.327870
H147	H	1.282562	-0.672449	0.502564
H148	H	1.782562	-0.172449	1.002564
O149	O	1.317594	-0.866041	0.547680
O150	O	1.817594	-0.366041	1.047680
C151	C	1.264422	-0.912875	0.478926
C152	C	1.764422	-0.412875	0.978926
H153	H	1.304372	-0.961600	0.477356
H154	H	1.804372	-0.461600	0.977356
H155	H	1.265325	-0.884786	0.398476
H156	H	1.765325	-0.384786	0.898476
H157	H	1.180573	-0.930109	0.505349
H158	H	1.680573	-0.430109	1.005349
H159	H	1.482919	-0.763998	0.761611
H160	H	1.982919	-0.263998	1.261611
O161	O	1.324473	-0.790956	0.556901
O162	O	1.824473	-0.290956	1.056901
C163	C	1.247701	-0.843886	0.603211
C164	C	1.747701	-0.343886	1.103211
H165	H	1.273164	-0.859592	0.684686
H166	H	1.773164	-0.359592	1.184686
H167	H	1.236663	-0.892427	0.556163
H168	H	1.736663	-0.392427	1.056163
H169	H	1.171199	-0.822442	0.606232
H170	H	1.671199	-0.322442	1.106232
H171	H	1.477707	-0.224602	1.073166
H172	H	1.977707	0.275398	1.573166
H173	H	1.339033	-0.325261	1.258214
H174	H	1.839033	0.174739	1.758214
