data_functionalizedCrystal
_audit_creation_method	'MofGen! by Chris Wilmer'
_symmetry_space_group_name_H-M	'P1'
_symmetry_Int_Tables_number	1
_symmetry_cell_setting	triclinic
loop_
_symmetry_equiv_pos_as_xyz
  x,y,z
_cell_length_a	34.571875
_cell_length_b	34.571051
_cell_length_c	34.567439
_cell_angle_alpha	60.004367
_cell_angle_beta	60.008842
_cell_angle_gamma	59.994195
loop_
_atom_site_label
_atom_site_type_symbol
_atom_site_fract_x
_atom_site_fract_y
_atom_site_fract_z
O1	O	0.053721	-0.565181	0.472559
O2	O	0.020283	-0.440038	0.380761
O3	O	0.099534	-0.519209	0.380676
O4	O	-0.025530	-0.486010	0.472643
O5	O	0.125831	-0.492917	0.406885
O6	O	0.046580	-0.413746	0.406969
O7	O	0.080018	-0.538889	0.498767
Zn8	Zn	0.067475	-0.472143	0.457030
Zn9	Zn	0.032827	-0.506784	0.422498
O10	O	0.000767	-0.459718	0.498852
N11	N	0.091122	-0.448505	0.480598
N12	N	0.009184	-0.530426	0.398930
C13	C	0.124402	-0.415465	0.717633
C14	C	0.328327	-0.415388	0.513477
C15	C	0.124221	-0.415437	0.513630
C16	C	0.124201	-0.211364	0.513624
C17	C	0.157075	-0.309853	0.546423
C18	C	0.157084	-0.382601	0.546423
C19	C	0.175289	-0.364414	0.564591
C20	C	0.254624	-0.350722	0.522790
C21	C	0.304220	-0.367243	0.506229
C22	C	0.304249	-0.447494	0.536832
C23	C	0.254655	-0.430972	0.553394
C24	C	0.169014	-0.285043	0.497667
C25	C	0.152454	-0.235444	0.481153
C26	C	0.112020	-0.235469	0.562154
C27	C	0.128580	-0.285068	0.578668
C28	C	0.108321	-0.370634	0.558439
C29	C	0.091776	-0.387168	0.541918
C30	C	0.172754	-0.427637	0.501375
C31	C	0.189301	-0.411103	0.517891
C32	C	0.108399	-0.370649	0.643978
C33	C	0.091911	-0.387197	0.693575
C34	C	0.172928	-0.427676	0.693511
C35	C	0.189415	-0.411128	0.643912
C36	C	0.157149	-0.382613	0.619147
C37	C	0.229844	-0.382585	0.546371
C38	C	0.105624	-0.433333	0.772186
C39	C	0.382878	-0.432925	0.495007
C40	C	0.105380	-0.433313	0.495792
C41	C	0.105683	-0.156808	0.496094
C42	C	-0.023527	-0.563458	0.161535
C43	C	-0.023851	-0.767445	0.365663
C44	C	-0.023821	-0.563448	0.365756
C45	C	-0.227785	-0.563229	0.365355
C46	C	-0.129302	-0.596153	0.332678
C47	C	-0.056593	-0.596234	0.332823
C48	C	-0.074746	-0.614396	0.314578
C49	C	-0.088477	-0.693710	0.356299
C50	C	-0.071982	-0.743310	0.372851
C51	C	0.008266	-0.743392	0.342376
C52	C	-0.008230	-0.693794	0.325823
C53	C	-0.154162	-0.608103	0.381422
C54	C	-0.203757	-0.591517	0.397874
C55	C	-0.203630	-0.551037	0.316836
C56	C	-0.154034	-0.567623	0.300384
C57	C	-0.068543	-0.547475	0.320829
C58	C	-0.052041	-0.530969	0.337421
C59	C	-0.011639	-0.611977	0.377990
C60	C	-0.028141	-0.628485	0.361404
C61	C	-0.068417	-0.547482	0.235199
C62	C	-0.051814	-0.530977	0.185602
C63	C	-0.011349	-0.611990	0.185649
C64	C	-0.027951	-0.628493	0.235248
C65	C	-0.056486	-0.596238	0.260022
C66	C	-0.056602	-0.668955	0.332787
C67	C	-0.005599	-0.544662	0.106983
C68	C	-0.006342	-0.821999	0.384121
C69	C	-0.005979	-0.544649	0.383673
C70	C	-0.282336	-0.544682	0.382817
N71	N	0.427518	-0.448428	0.480350
O72	O	0.589573	-0.456297	0.363634
O73	O	0.589761	-0.548399	0.488643
O74	O	0.589681	-0.548188	0.409364
O75	O	0.589654	-0.456508	0.442913
O76	O	0.510890	-0.521988	0.435708
O77	O	0.510970	-0.522199	0.514987
O78	O	0.510782	-0.430098	0.389978
Zn79	Zn	0.498366	-0.471989	0.456665
Zn80	Zn	0.602177	-0.506508	0.421956
O81	O	0.510862	-0.430308	0.469257
N82	N	0.673025	-0.530068	0.398267
N83	N	0.091092	-0.112167	0.480590
O84	O	-0.025539	0.049976	0.472612
O85	O	0.099472	0.050011	0.380491
O86	O	0.020155	0.049979	0.380751
O87	O	0.053778	0.050009	0.472352
O88	O	0.046458	-0.028818	0.407008
O89	O	0.125775	-0.028785	0.406748
O90	O	0.000764	-0.028821	0.498869
Zn91	Zn	0.067445	-0.041314	0.456977
Zn92	Zn	0.032791	0.062504	0.422382
O93	O	0.080081	-0.028788	0.498609
N94	N	0.009138	0.133358	0.398771
N95	N	0.091421	-0.448552	0.816827
O96	O	0.083469	-0.565164	0.978960
O97	O	-0.008614	-0.440110	0.979002
O98	O	-0.008399	-0.519410	0.978978
O99	O	0.083253	-0.485863	0.978984
O100	O	0.017837	-0.493128	0.900185
O101	O	0.017621	-0.413827	0.900208
O102	O	0.109704	-0.538881	0.900167
Zn103	Zn	0.067828	-0.472181	0.887677
Zn104	Zn	0.033262	-0.506810	0.991491
O105	O	0.109489	-0.459581	0.900191
N106	N	0.009668	-0.530444	1.062341
C107	C	0.030297	-0.411123	0.381218
C108	C	0.128439	-0.509167	0.381113
C109	C	0.070004	-0.567805	0.498310
C110	C	-0.028138	-0.469761	0.498415
C111	C	0.550388	-0.547982	0.517564
C112	C	0.550290	-0.547721	0.419387
C113	C	0.550153	-0.430514	0.361058
C114	C	0.550253	-0.430775	0.459234
C115	C	0.128339	0.010714	0.380902
C116	C	0.030148	0.010577	0.381256
C117	C	-0.028136	0.010574	0.498426
C118	C	0.070089	0.010613	0.498104
C119	C	-0.008178	-0.411214	0.939610
C120	C	-0.007906	-0.509413	0.939566
C121	C	0.109268	-0.567777	0.939558
C122	C	0.109002	-0.469572	0.939586
H123	H	0.082121	-0.347425	0.623816
H124	H	-0.064037	0.010563	0.527345
C125	C	0.550297	-0.408967	0.515147
C126	C	0.550239	-0.391893	0.468921
H127	H	0.550285	-0.384961	0.521127
H128	H	0.577796	-0.435891	0.518645
H129	H	0.522843	-0.417621	0.537019
H130	H	0.577694	-0.383242	0.447049
H131	H	0.522737	-0.364960	0.465419
H132	H	0.023152	-0.375173	0.352387
H133	H	0.077150	-0.603753	0.527142
C134	C	0.158717	-0.421786	0.899079
C135	C	0.147876	-0.459885	0.939578
H136	H	0.182719	-0.415808	0.899073
H137	H	0.131142	-0.394408	0.899094
H138	H	0.169649	-0.429308	0.871601
H139	H	0.136940	-0.452361	0.967056
H140	H	0.175456	-0.487268	0.939567
C141	C	-0.093493	-0.452557	0.190544
C142	C	-0.064939	-0.477380	0.158322
H143	H	-0.101598	-0.419469	0.173701
H144	H	-0.076703	-0.460699	0.209931
H145	H	-0.121548	-0.460665	0.209847
H146	H	-0.036882	-0.469275	0.139021
H147	H	-0.081729	-0.469234	0.138927
H148	H	0.164358	-0.516243	0.352233
C149	C	-0.105929	-0.413994	0.520472
C150	C	-0.076627	-0.460214	0.537404
H151	H	-0.135862	-0.408100	0.544545
H152	H	-0.110075	-0.410436	0.493563
H153	H	-0.091725	-0.392100	0.511834
H154	H	-0.090830	-0.482108	0.546039
H155	H	-0.072483	-0.463776	0.564321
H156	H	0.011877	-0.638258	0.165483
C157	C	0.039460	0.010612	0.577609
C158	C	0.079805	0.010622	0.536957
H159	H	0.045459	0.010620	0.601594
H160	H	0.031954	-0.016871	0.588559
H161	H	0.013607	0.038086	0.570245
H162	H	0.105657	-0.016854	0.544320
H163	H	0.087317	0.038107	0.526006
C164	C	0.206027	0.011134	0.358573
C165	C	0.176702	0.011028	0.341759
H166	H	0.235883	0.011331	0.334407
H167	H	0.210353	-0.016403	0.385400
H168	H	0.191736	0.038553	0.367308
H169	H	0.190991	-0.016393	0.333027
H170	H	0.172377	0.038568	0.314924
C171	C	0.550374	-0.627257	0.450052
C172	C	0.550306	-0.586604	0.409700
H173	H	0.550387	-0.651262	0.444069
H174	H	0.522917	-0.619906	0.475909
H175	H	0.577870	-0.638177	0.457537
H176	H	0.522808	-0.575682	0.402217
H177	H	0.577766	-0.593956	0.383835
H178	H	-0.037087	-0.375298	0.939623
H179	H	-0.036687	-0.516580	0.939532
H180	H	0.550436	-0.576894	0.553469
H181	H	0.550093	-0.401597	0.325157
C182	C	0.052667	-0.029941	0.329685
C183	C	0.020440	0.010564	0.342399
H184	H	0.046678	-0.029948	0.305693
H185	H	0.049149	-0.057414	0.356629
H186	H	0.084031	-0.029924	0.318102
H187	H	-0.010924	0.010545	0.353985
H188	H	0.023955	0.038044	0.315450
C189	C	0.159267	-0.624766	0.899029
C190	C	0.148298	-0.616260	0.939540
H191	H	0.183360	-0.654698	0.899019
H192	H	0.170117	-0.600659	0.871562
H193	H	0.131762	-0.624717	0.899035
H194	H	0.175802	-0.616305	0.939532
H195	H	0.137449	-0.640373	0.967014
C196	C	0.017777	-0.390848	0.708892
C197	C	0.038320	-0.374035	0.720863
H198	H	-0.015308	-0.382719	0.725737
H199	H	0.031714	-0.424309	0.717013
H200	H	0.022986	-0.376912	0.675809
H201	H	0.033114	-0.387974	0.753946
H202	H	0.024378	-0.340568	0.712745
C203	C	0.254667	-0.466015	0.688458
C204	C	0.208396	-0.459011	0.720729
H205	H	0.276564	-0.485362	0.705262
H206	H	0.259406	-0.436282	0.669115
H207	H	0.259414	-0.481156	0.669114
H208	H	0.203648	-0.443866	0.740071
H209	H	0.203656	-0.488749	0.740080
H210	H	-0.133793	-0.557888	0.260690
H211	H	0.229113	-0.420876	0.623698
C212	C	0.239304	-0.272048	0.466455
C213	C	0.227354	-0.297534	0.515071
H214	H	0.222470	-0.239211	0.461691
H215	H	0.231158	-0.282308	0.451484
H216	H	0.272389	-0.277333	0.453222
H217	H	0.194270	-0.292252	0.528304
H218	H	0.235497	-0.287270	0.530049
C219	C	0.013389	-0.345518	0.583666
C220	C	0.038174	-0.374021	0.555130
H221	H	-0.019702	-0.337406	0.591826
H222	H	0.021496	-0.317468	0.566839
H223	H	0.021558	-0.362354	0.611692
H224	H	0.030008	-0.357184	0.527102
H225	H	0.030063	-0.402076	0.571957
H226	H	0.082085	-0.347427	0.581670
H227	H	0.229008	-0.420842	0.508101
C228	C	0.254463	-0.465978	0.462961
C229	C	0.208169	-0.458967	0.470015
H230	H	0.276327	-0.485317	0.443598
H231	H	0.259253	-0.481126	0.492675
H232	H	0.259207	-0.436243	0.447820
H233	H	0.203424	-0.488702	0.485160
H234	H	0.203378	-0.443819	0.440296
C235	C	0.013708	-0.706914	0.230310
C236	C	-0.014838	-0.682091	0.262531
H237	H	0.021800	-0.740002	0.247154
H238	H	0.041765	-0.698819	0.211012
H239	H	-0.003086	-0.698761	0.210918
H240	H	0.001957	-0.690241	0.281921
H241	H	-0.042900	-0.690189	0.281837
C242	C	0.239378	-0.489099	0.549224
C243	C	0.227414	-0.465998	0.579312
H244	H	0.222558	-0.510720	0.565225
H245	H	0.272462	-0.505861	0.540368
H246	H	0.231220	-0.466380	0.521675
H247	H	0.235575	-0.488717	0.606860
H248	H	0.194322	-0.449235	0.588175
C249	C	0.360012	-0.507444	0.500607
C250	C	0.331527	-0.500682	0.544545
H251	H	0.376850	-0.540279	0.505371
H252	H	0.381866	-0.490832	0.484198
H253	H	0.340638	-0.495812	0.482459
H254	H	0.350902	-0.512311	0.562692
H255	H	0.309671	-0.517300	0.560961
H256	H	0.192214	-0.305222	0.471410
C257	C	0.359945	-0.334086	0.434500
C258	C	0.331460	-0.332217	0.480304
H259	H	0.376764	-0.312463	0.418496
H260	H	0.340576	-0.325792	0.417625
H261	H	0.381819	-0.365270	0.436319
H262	H	0.309584	-0.301034	0.478485
H263	H	0.350831	-0.340508	0.497183
H264	H	0.088825	-0.215289	0.588411
C265	C	0.194084	-0.240397	0.402742
C266	C	0.165575	-0.208168	0.427556
H267	H	0.202187	-0.223558	0.369654
H268	H	0.177263	-0.259747	0.410883
H269	H	0.222142	-0.259738	0.410854
H270	H	0.137516	-0.188829	0.419446
H271	H	0.182397	-0.188810	0.419412
H272	H	-0.091654	-0.521212	0.255368
C273	C	0.086951	-0.280115	0.657079
C274	C	0.115459	-0.312344	0.632265
H275	H	0.078853	-0.296954	0.690167
H276	H	0.058895	-0.260777	0.648970
H277	H	0.103775	-0.260761	0.648934
H278	H	0.098633	-0.331695	0.640407
H279	H	0.143519	-0.331690	0.640377
H280	H	-0.061773	-0.491265	0.327657
C281	C	0.026639	-0.693712	0.416423
C282	C	0.019637	-0.647430	0.409403
H283	H	0.045945	-0.715599	0.435820
H284	H	0.041819	-0.698489	0.386701
H285	H	-0.003099	-0.698437	0.431515
H286	H	0.049375	-0.642704	0.394307
H287	H	0.004458	-0.642651	0.439130
H288	H	-0.018411	-0.668189	0.371171
C289	C	0.072750	-0.698859	0.297368
C290	C	0.026810	-0.666580	0.299979
H291	H	0.094381	-0.682058	0.281414
H292	H	0.081063	-0.718206	0.280462
H293	H	0.073964	-0.718198	0.328459
H294	H	0.025595	-0.647243	0.268887
H295	H	0.018495	-0.647225	0.316884
H296	H	0.047655	-0.763617	0.336709
C297	C	-0.130150	-0.758494	0.368638
C298	C	-0.107052	-0.770495	0.398745
H299	H	-0.151813	-0.775268	0.384640
H300	H	-0.107442	-0.766682	0.341111
H301	H	-0.146869	-0.725394	0.359754
H302	H	-0.090331	-0.803595	0.407627
H303	H	-0.129764	-0.762310	0.426281
C304	C	-0.159270	-0.646441	0.463179
C305	C	-0.126975	-0.639462	0.416918
H306	H	-0.142485	-0.665799	0.485093
H307	H	-0.178615	-0.661558	0.467902
H308	H	-0.178608	-0.616699	0.467916
H309	H	-0.107639	-0.669204	0.412180
H310	H	-0.107621	-0.624346	0.412193
C311	C	-0.148342	-0.637887	0.319977
C312	C	-0.141646	-0.666400	0.363943
H313	H	-0.181166	-0.621022	0.324695
H314	H	-0.136694	-0.657245	0.301811
H315	H	-0.131711	-0.616051	0.303609
H316	H	-0.158274	-0.688239	0.380309
H317	H	-0.153299	-0.647041	0.382116
H318	H	-0.223999	-0.601245	0.437568
C319	C	-0.218807	-0.544498	0.252820
C320	C	-0.230821	-0.519679	0.281341
H321	H	-0.235592	-0.525136	0.230906
H322	H	-0.226969	-0.572517	0.272160
H323	H	-0.185712	-0.552664	0.236045
H324	H	-0.263917	-0.511516	0.298120
H325	H	-0.222663	-0.491651	0.261999
H326	H	-0.091707	-0.521211	0.297556
