data_functionalizedCrystal
_audit_creation_method	'MofGen! by Chris Wilmer'
_symmetry_space_group_name_H-M	'P1'
_symmetry_Int_Tables_number	1
_symmetry_cell_setting	triclinic
loop_
_symmetry_equiv_pos_as_xyz
  x,y,z
_cell_length_a	14.853558
_cell_length_b	13.339070
_cell_length_c	11.804365
_cell_angle_alpha	74.887832
_cell_angle_beta	101.864074
_cell_angle_gamma	99.630214
loop_
_atom_site_label
_atom_site_type_symbol
_atom_site_fract_x
_atom_site_fract_y
_atom_site_fract_z
O1	O	-1.242367	-0.111673	-0.099008
O2	O	-0.983828	-0.127420	-0.099013
O3	O	-1.083425	0.027757	-0.099008
O4	O	-1.142770	-0.266850	-0.099014
O5	O	-1.057195	-0.013054	0.099047
O6	O	-0.957598	-0.168231	0.099041
O7	O	-1.216136	-0.152484	0.099046
Cu8	Cu	-1.084472	-0.164084	0.117128
Cu9	Cu	-1.115493	-0.115820	-0.117095
O10	O	-1.116540	-0.307661	0.099041
C11	C	-0.936947	-0.147114	0.000013
C12	C	-0.836332	-0.144980	0.000011
C13	C	-1.060286	0.045055	0.000018
C14	C	-1.030407	0.157398	0.000012
C15	C	-1.263018	-0.132790	0.000017
C16	C	-1.363634	-0.134922	0.000011
C17	C	-0.803362	-0.121733	-0.107953
C18	C	-0.774760	-0.166214	0.107974
C19	C	-0.680225	-0.164205	0.107976
C20	C	-0.647255	-0.140958	0.000012
C21	C	-0.708818	-0.119719	-0.107954
C22	C	-0.618653	-0.185432	0.215940
C23	C	-0.524112	-0.183423	0.215946
C24	C	-0.491141	-0.160182	0.107981
C25	C	-0.552711	-0.138944	0.000011
C26	C	-0.519741	-0.115697	-0.107953
C27	C	-0.581311	-0.094466	-0.215925
C28	C	-0.675847	-0.096479	-0.215919
C29	C	-0.396605	-0.158169	0.107975
C30	C	-0.425198	-0.113684	-0.107955
C31	C	-1.139679	-0.324958	0.000013
C32	C	-1.169560	-0.437301	0.000010
C33	C	-1.262738	0.521873	0.000018
C34	C	-1.290813	0.416319	0.000029
C35	C	-1.225714	0.351584	0.000025
C36	C	-1.132535	0.392412	0.000009
C37	C	-1.104456	0.497974	0.000007
C38	C	-1.067431	0.327686	0.000014
C39	C	-0.974252	0.368514	-0.000002
C40	C	-0.946178	0.474066	-0.000005
C41	C	-1.011277	0.538801	-0.000000
C42	C	-1.095511	0.222124	0.000016
C43	C	-0.937228	0.198225	0.000005
C44	C	-0.909153	0.303779	-0.000007
N45	N	-1.062661	-0.198030	0.281867
N46	N	-1.137309	-0.081867	-0.281834
C47	C	-1.189682	-0.000332	0.655823
C48	C	-1.206181	0.025352	0.531162
C49	C	-1.170302	-0.030491	0.468832
C50	C	-1.117922	-0.112023	0.531175
C51	C	-1.101428	-0.137715	0.655848
C52	C	-1.082048	-0.167874	0.468858
C53	C	-1.029668	-0.249406	0.531201
C54	C	-1.013176	-0.275093	0.655862
C55	C	-1.049055	-0.219250	0.718192
C56	C	-1.098542	-0.142182	0.344185
C57	C	-1.010288	-0.279565	0.344210
C58	C	-0.993789	-0.305249	0.468871
H59	H	-0.398362	-0.094759	-0.195873
C60	C	-0.971152	-0.340182	0.276702
C61	C	-0.874403	-0.329867	0.307068
C62	C	-0.838328	-0.385701	0.244906
H63	H	-0.988369	-0.313271	0.193510
H64	H	-0.995084	-0.411977	0.297149
H65	H	-0.850480	-0.258087	0.286612
H66	H	-0.857161	-0.356784	0.390250
H67	H	-0.862260	-0.457496	0.265354
H68	H	-0.855552	-0.358784	0.161717
H69	H	-0.772681	-0.378718	0.265509
C70	C	-1.188268	-0.002409	0.333485
C71	C	-1.241797	0.080963	0.292228
C72	C	-1.258354	0.106877	0.167549
H73	H	-1.220555	-0.061208	0.305123
H74	H	-1.130896	0.017434	0.305258
H75	H	-1.299160	0.061116	0.320443
H76	H	-1.209527	0.139780	0.320558
H77	H	-1.200981	0.126719	0.139322
H78	H	-1.290637	0.048072	0.139198
H79	H	-1.294667	0.163453	0.139539
C80	C	-1.256384	0.237024	-0.000033
C81	C	-1.351923	0.215130	-0.000052
C82	C	-1.380216	0.109609	-0.000128
H83	H	-1.224452	0.194384	0.069008
H84	H	-1.242714	0.222941	-0.069133
H85	H	-1.365585	0.229202	0.069041
H86	H	-1.383878	0.257743	-0.069088
H87	H	-1.366546	0.095526	-0.069228
H88	H	-1.348278	0.066978	0.068914
H89	H	-1.445043	0.094742	-0.000152
H90	H	-1.035619	-0.240158	0.819701
C91	C	-1.228558	0.060485	0.723350
C92	C	-1.193087	0.166210	0.693019
C93	C	-1.228887	0.222274	0.755193
H94	H	-1.211256	0.033640	0.806540
H95	H	-1.294215	0.053657	0.702888
H96	H	-1.127445	0.173033	0.713489
H97	H	-1.210387	0.193086	0.609839
H98	H	-1.294544	0.215446	0.734731
H99	H	-1.211583	0.195420	0.838380
H100	H	-1.204832	0.294015	0.734614
H101	H	-0.473989	-0.200709	0.303863
H102	H	-0.554453	-0.075532	-0.303829
H103	H	-0.346480	-0.175465	0.195884
H104	H	-0.951141	-0.371634	0.519646
C105	C	-1.392023	0.372202	-0.000014
C106	C	-1.443029	0.451488	-0.000042
C107	C	-1.536273	0.410889	-0.000097
H108	H	-1.397240	0.317312	0.069037
H109	H	-1.415463	0.345782	-0.069104
H110	H	-1.419596	0.477892	0.069041
H111	H	-1.437839	0.506384	-0.069088
H112	H	-1.559714	0.384470	-0.069187
H113	H	-1.541481	0.356000	0.068956
H114	H	-1.570894	0.464681	-0.000126
H115	H	-1.171377	0.188892	0.000029
H116	H	-1.315730	0.574586	0.000031
H117	H	-0.853496	-0.104451	-0.195860
C118	C	-0.956150	-0.363490	0.723485
C119	C	-0.867415	-0.340639	0.693206
C120	C	-0.814854	-0.422040	0.755485
H121	H	-0.985421	-0.426892	0.703097
H122	H	-0.951402	-0.370793	0.806669
H123	H	-0.872165	-0.333349	0.610041
H124	H	-0.838117	-0.277251	0.713597
H125	H	-0.810106	-0.429344	0.838669
H126	H	-0.844133	-0.485437	0.735092
H127	H	-0.754639	-0.406543	0.734958
H128	H	-0.988423	0.624753	-0.000014
C129	C	-0.742821	-0.073601	-0.333046
C130	C	-0.809561	-0.160439	-0.339330
C131	C	-0.871283	-0.139394	-0.447199
H132	H	-0.709776	-0.059502	-0.397451
H133	H	-0.772477	-0.014523	-0.337538
H134	H	-0.779907	-0.219499	-0.334849
H135	H	-0.842628	-0.174551	-0.274950
H136	H	-0.900939	-0.080316	-0.451691
H137	H	-0.838230	-0.125294	-0.511596
H138	H	-0.916578	-0.198305	-0.451472
H139	H	-0.801610	-0.185134	0.195873
C140	C	-0.654636	-0.210703	0.333027
C141	C	-0.750611	-0.207956	0.309915
C142	C	-0.783796	-0.231248	0.417751
H143	H	-0.625503	-0.160582	0.377475
H144	H	-0.641190	-0.278504	0.377400
H145	H	-0.764049	-0.140164	0.265562
H146	H	-0.779768	-0.258077	0.265485
H147	H	-0.770350	-0.299049	0.462124
H148	H	-0.754657	-0.181124	0.462191
H149	H	-0.848919	-0.229397	0.402085
C150	C	-0.844977	0.518210	-0.000070
C151	C	-0.793977	0.438937	-0.000104
C152	C	-0.700750	0.479564	-0.000178
H153	H	-0.821463	0.544649	0.068977
H154	H	-0.839845	0.573098	-0.069164
H155	H	-0.799104	0.384068	0.068983
H156	H	-0.817461	0.412490	-0.069145
H157	H	-0.695618	0.534452	-0.069272
H158	H	-0.677246	0.506003	0.068870
H159	H	-0.666137	0.425787	-0.000212
C160	C	-0.866466	0.128112	-0.000189
C161	C	-0.825370	0.167586	-0.102070
C162	C	-0.760177	0.103027	-0.102278
H163	H	-0.896421	0.059378	-0.000251
H164	H	-0.820150	0.126290	0.068840
H165	H	-0.871678	0.169396	-0.171081
H166	H	-0.795397	0.236312	-0.102030
H167	H	-0.713861	0.101206	-0.033249
H168	H	-0.790140	0.034297	-0.102337
H169	H	-0.732280	0.129807	-0.171397
H170	H	-0.833285	0.337036	-0.000019
H171	H	-1.141189	-0.075799	0.293436
H172	H	-1.248828	0.091734	0.480407
