data_functionalizedCrystal
_audit_creation_method	'MofGen! by Chris Wilmer'
_symmetry_space_group_name_H-M	'P1'
_symmetry_Int_Tables_number	1
_symmetry_cell_setting	triclinic
loop_
_symmetry_equiv_pos_as_xyz
  x,y,z
_cell_length_a	19.288840
_cell_length_b	10.654559
_cell_length_c	17.766277
_cell_angle_alpha	89.996285
_cell_angle_beta	89.983415
_cell_angle_gamma	83.807350
loop_
_atom_site_label
_atom_site_type_symbol
_atom_site_fract_x
_atom_site_fract_y
_atom_site_fract_z
O1	O	0.922392	0.156506	-0.062716
O2	O	0.720268	0.177672	-0.062689
O3	O	0.825974	-0.015750	-0.062703
O4	O	0.816686	0.349927	-0.062702
O5	O	0.825955	-0.015760	0.062485
O6	O	0.720249	0.177662	0.062499
O7	O	0.922373	0.156496	0.062473
Cu8	Cu	0.821309	0.167078	0.073917
Cu9	Cu	0.821331	0.167090	-0.074133
O10	O	0.816667	0.349918	0.062487
C11	C	0.694377	0.176991	-0.000092
C12	C	0.617259	0.174962	-0.000082
C13	C	0.581060	0.173993	-0.068324
C14	C	0.508600	0.172073	-0.068333
C15	C	0.472345	0.171097	-0.000096
C16	C	0.508553	0.172073	0.068155
C17	C	0.581010	0.174006	0.068162
C18	C	0.362506	0.094476	0.052172
C19	C	0.290051	0.092536	0.052162
C20	C	0.248862	0.165141	-0.000116
C21	C	0.280139	0.239671	-0.052396
C22	C	0.352596	0.241604	-0.052389
C23	C	0.393777	0.169002	-0.000096
C24	C	0.134093	0.162092	-0.068373
C25	C	0.061632	0.160180	-0.068379
C26	C	0.061587	0.160167	0.068111
C27	C	0.134046	0.162092	0.068115
C28	C	0.170295	0.163048	-0.000129
C29	C	0.825281	-0.062538	-0.000110
C30	C	0.823237	-0.201936	-0.000115
C31	C	0.759077	-0.252092	-0.000108
C32	C	0.757160	-0.383073	-0.000102
C33	C	0.883569	-0.413732	-0.000113
C34	C	0.885484	-0.282753	-0.000113
C35	C	0.696829	-0.171276	-0.000110
C36	C	0.632665	-0.221430	-0.000104
C37	C	0.630748	-0.352411	-0.000098
C38	C	0.692996	-0.433237	-0.000098
C39	C	0.948264	0.157177	-0.000127
C40	C	1.025381	0.159206	-0.000142
C41	C	0.817360	0.396706	-0.000108
C42	C	0.819404	0.536104	-0.000108
N43	N	0.821299	0.167069	0.178047
N44	N	0.821347	0.167089	-0.178264
C45	C	0.868121	0.081464	0.217428
C46	C	0.868125	0.081458	0.296230
C47	C	0.821313	0.167079	0.335648
C48	C	0.774482	0.252691	0.296257
C49	C	0.774475	0.252686	0.217457
C50	C	0.812766	0.281501	0.460487
C51	C	0.812778	0.281508	0.539285
C52	C	0.821332	0.167094	0.578694
C53	C	0.829889	0.052669	0.539294
C54	C	0.829881	0.052664	0.460494
C55	C	0.821316	0.167094	0.421093
C56	C	0.868161	0.081476	0.703521
C57	C	0.868160	0.081468	0.782324
C58	C	0.774521	0.252712	0.782350
C59	C	0.774519	0.252708	0.703548
C60	C	0.821342	0.167092	0.664138
H61	H	0.246604	0.298799	-0.094963
H62	H	0.578502	-0.393243	-0.000086
C63	C	0.952036	-0.502644	-0.000119
N64	N	1.003607	-0.569613	-0.000128
C65	C	0.723028	0.346897	0.825705
N66	N	0.684242	0.417840	0.858364
H67	H	0.163608	0.162884	-0.123941
C68	C	0.564196	-0.132521	-0.000102
N69	N	0.512624	-0.065555	-0.000102
C70	C	0.255653	0.010563	0.109677
N71	N	0.229745	-0.051174	0.153002
C72	C	0.956063	-0.227578	-0.000124
N73	N	1.009225	-0.186021	-0.000132
H74	H	0.691430	-0.539889	-0.000094
H75	H	0.836854	-0.040497	0.571378
C76	C	0.919621	-0.012729	0.174081
N77	N	0.958410	-0.083680	0.141432
H78	H	0.479120	0.171286	-0.123906
H79	H	0.610569	0.174772	-0.123893
C80	C	0.021813	0.159108	-0.143455
N81	N	-0.008179	0.158296	-0.200004
C82	C	0.021710	0.159095	0.143173
N83	N	-0.008329	0.158290	0.199711
H84	H	0.736367	0.322403	0.328355
H85	H	0.378058	0.302292	-0.094956
H86	H	0.906286	0.011751	0.814388
H87	H	0.805788	0.374676	0.428407
C88	C	0.919642	-0.012705	0.339557
N89	N	0.958447	-0.083625	0.372189
C90	C	0.698932	-0.027193	-0.000112
N91	N	0.700516	0.081330	-0.000114
C92	C	0.173868	0.163141	0.143188
N93	N	0.203862	0.163931	0.199737
C94	C	0.407807	0.014595	0.109684
N95	N	0.441927	-0.045571	0.153000
C96	C	0.468670	0.170998	0.143216
N97	N	0.438631	0.170191	0.199754
C98	C	0.620831	0.175062	0.143237
N99	N	0.650826	0.175852	0.199785
C100	C	0.839284	-0.073201	0.417156
N101	N	0.846362	-0.168005	0.384515
H102	H	0.736346	0.322397	0.185392
C103	C	0.919661	-0.012715	0.660167
N104	N	0.958450	-0.083662	0.627515
C105	C	0.803359	0.407376	0.582618
N106	N	0.796260	0.502184	0.615254
C107	C	0.723061	0.346973	0.660228
N108	N	0.684316	0.418005	0.627599
