data_functionalizedCrystal
_audit_creation_method	'MofGen! by Chris Wilmer'
_symmetry_space_group_name_H-M	'P1'
_symmetry_Int_Tables_number	1
_symmetry_cell_setting	triclinic
loop_
_symmetry_equiv_pos_as_xyz
  x,y,z
_cell_length_a	16.625545
_cell_length_b	17.077404
_cell_length_c	17.077396
_cell_angle_alpha	89.980499
_cell_angle_beta	89.971947
_cell_angle_gamma	90.024262
loop_
_atom_site_label
_atom_site_type_symbol
_atom_site_fract_x
_atom_site_fract_y
_atom_site_fract_z
Zn1	Zn	0.320997	-1.200048	0.443845
Zn2	Zn	0.654330	-0.866715	0.777178
Zn3	Zn	0.987663	-0.533382	1.110512
Zn4	Zn	0.455839	-1.199953	0.312580
Zn5	Zn	0.789173	-0.866619	0.645913
Zn6	Zn	1.122506	-0.533286	0.979247
Zn7	Zn	0.321025	-1.068780	0.312593
Zn8	Zn	0.654358	-0.735447	0.645926
Zn9	Zn	0.987692	-0.402113	0.979260
Zn10	Zn	0.455792	-1.068746	0.443804
Zn11	Zn	0.789125	-0.735412	0.777137
Zn12	Zn	1.122458	-0.402079	1.110470
O13	O	0.388413	-1.134382	0.378205
O14	O	0.721747	-0.801048	0.711539
O15	O	1.055080	-0.467715	1.044872
O16	O	0.338892	-1.309883	0.426444
O17	O	0.672225	-0.976549	0.759778
O18	O	1.005559	-0.643216	1.093111
O19	O	0.437988	-1.182527	0.202735
O20	O	0.771321	-0.849194	0.536068
O21	O	1.104655	-0.515860	0.869401
O22	O	0.208189	-1.086248	0.330027
O23	O	0.541522	-0.752914	0.663360
O24	O	0.874856	-0.419581	0.996693
O25	O	0.437960	-1.309812	0.330005
O26	O	0.771294	-0.976479	0.663338
O27	O	1.104627	-0.643146	0.996671
O28	O	0.208168	-1.182690	0.426457
O29	O	0.541501	-0.849357	0.759790
O30	O	0.874835	-0.516023	1.093124
O31	O	0.338940	-1.086155	0.202744
O32	O	0.672274	-0.752822	0.536078
O33	O	1.005607	-0.419488	0.869411
O34	O	0.338894	-0.958929	0.329986
O35	O	0.672227	-0.625595	0.663320
O36	O	1.005561	-0.292262	0.996653
O37	O	0.437879	-1.086189	0.553656
O38	O	0.771212	-0.752855	0.886989
O39	O	1.104546	-0.419522	1.220323
O40	O	0.437906	-0.958903	0.426386
O41	O	0.771240	-0.625570	0.759720
O42	O	1.104573	-0.292237	1.093053
O43	O	0.338846	-1.182656	0.553687
O44	O	0.672179	-0.849323	0.887020
O45	O	1.005512	-0.515990	1.220353
O46	O	0.568666	-1.182493	0.329964
O47	O	0.901999	-0.849160	0.663298
O48	O	1.235332	-0.515827	0.996631
O49	O	0.568630	-1.086096	0.426374
O50	O	0.901964	-0.752763	0.759707
O51	O	1.235297	-0.419429	1.093040
C52	C	0.597904	-1.134302	0.378180
C53	C	0.931237	-0.800969	0.711514
C54	C	1.264571	-0.467635	1.044847
C55	C	0.687525	-1.134339	0.378196
C56	C	1.020859	-0.801006	0.711529
C57	C	1.354192	-0.467673	1.044862
C58	C	0.388399	-0.930434	0.378184
C59	C	0.721732	-0.597101	0.711517
C60	C	1.055065	-0.263767	1.044850
C61	C	0.388412	-0.843184	0.378193
C62	C	0.721745	-0.509851	0.711526
C63	C	1.055078	-0.176517	1.044860
C64	C	0.388354	-1.134429	0.582950
C65	C	0.721687	-0.801096	0.916283
C66	C	1.055021	-0.467763	1.249616
C67	C	0.388329	-1.134449	0.670200
C68	C	0.721662	-0.801116	1.003533
C69	C	1.054995	-0.467783	1.336866
C70	C	1.015701	-1.134468	0.378290
C71	C	1.349034	-0.801134	0.711623
C72	C	1.682367	-0.467801	1.044956
C73	C	0.924392	-1.134429	0.378266
C74	C	1.257726	-0.801096	0.711599
C75	C	1.591059	-0.467763	1.044932
C76	C	0.851616	-1.134403	0.378242
C77	C	1.184949	-0.801070	0.711576
C78	C	1.518283	-0.467736	1.044909
C79	C	0.760302	-1.134366	0.378219
C80	C	1.093635	-0.801033	0.711552
C81	C	1.426968	-0.467699	1.044886
C82	C	1.178104	-1.134477	0.378257
C83	C	1.511438	-0.801143	0.711590
C84	C	1.844771	-0.467810	1.044924
C85	C	1.088483	-1.134500	0.378303
C86	C	1.421817	-0.801167	0.711636
C87	C	1.755150	-0.467833	1.044969
C88	C	0.388428	-1.339126	0.378228
C89	C	0.721762	-1.005793	0.711561
C90	C	1.055095	-0.672459	1.044894
C91	C	0.388435	-1.426376	0.378237
C92	C	0.721768	-1.093042	0.711570
C93	C	1.055102	-0.759709	1.044904
C94	C	0.440045	-0.802201	0.428308
C95	C	0.773379	-0.468868	0.761641
C96	C	1.106712	-0.135535	1.094975
C97	C	0.440047	-0.720221	0.428321
C98	C	0.773380	-0.386887	0.761654
C99	C	1.106714	-0.053554	1.094987
C100	C	0.388419	-0.679225	0.378214
C101	C	0.721752	-0.345891	0.711547
C102	C	1.055085	-0.012558	1.044880
C103	C	0.336780	-0.720213	0.328097
C104	C	0.670113	-0.386880	0.661430
C105	C	1.003446	-0.053547	0.994763
C106	C	0.336774	-0.802192	0.328089
C107	C	0.670108	-0.468859	0.661422
C108	C	1.003441	-0.135526	0.994755
C109	C	0.336795	-0.549343	0.328115
C110	C	0.670129	-0.216010	0.661449
C111	C	1.003462	0.117323	0.994782
C112	C	0.336801	-0.467359	0.328122
C113	C	0.670135	-0.134025	0.661456
C114	C	1.003468	0.199308	0.994789
C115	C	0.440068	-0.467372	0.428347
C116	C	0.773402	-0.134038	0.761681
C117	C	1.106735	0.199295	1.095014
C118	C	0.440063	-0.549351	0.428339
C119	C	0.773396	-0.216017	0.761673
C120	C	1.106730	0.117316	1.095006
C121	C	0.388425	-0.590334	0.378221
C122	C	0.721758	-0.257000	0.711554
C123	C	1.055091	0.076333	1.044888
C124	C	0.388414	-1.134380	0.174258
C125	C	0.721748	-0.801046	0.507591
C126	C	1.055081	-0.467713	0.840924
C127	C	0.388212	-1.134511	0.087008
C128	C	0.721546	-0.801178	0.420342
C129	C	1.054879	-0.467845	0.753675
C130	C	0.336758	-1.184682	0.711207
C131	C	0.670091	-0.851349	1.044540
C132	C	1.003424	-0.518015	1.377874
C133	C	0.336731	-1.184691	0.793187
C134	C	0.670064	-0.851358	1.126521
C135	C	1.003397	-0.518025	1.459854
C136	C	0.388280	-1.134472	0.834159
C137	C	0.721613	-0.801138	1.167492
C138	C	1.054946	-0.467805	1.500826
C139	C	0.439853	-1.084234	0.793146
C140	C	0.773186	-0.750900	1.126479
C141	C	1.106519	-0.417567	1.459813
C142	C	0.439875	-1.084221	0.711167
C143	C	0.773208	-0.750888	1.044500
C144	C	1.106541	-0.417554	1.377834
C145	C	0.439804	-1.084265	0.964016
C146	C	0.773138	-0.750932	1.297350
C147	C	1.106471	-0.417599	1.630683
C148	C	0.439783	-1.084279	1.046001
C149	C	0.773117	-0.750946	1.379334
C150	C	1.106450	-0.417612	1.712668
C151	C	0.336660	-1.184736	1.046037
C152	C	0.669993	-0.851403	1.379370
C153	C	1.003327	-0.518069	1.712703
C154	C	0.336682	-1.184723	0.964058
C155	C	0.670016	-0.851390	1.297391
C156	C	1.003349	-0.518056	1.630724
C157	C	0.388257	-1.134486	0.923050
C158	C	0.721590	-0.801152	1.256384
C159	C	1.054923	-0.467819	1.589717
H160	H	0.482090	-0.835574	0.469108
H161	H	0.815423	-0.502241	0.802442
H162	H	1.148757	-0.168908	1.135775
H163	H	0.482093	-0.686856	0.469128
H164	H	0.815426	-0.353523	0.802462
H165	H	1.148760	-0.020189	1.135795
H166	H	0.294739	-1.225598	0.826572
H167	H	0.628072	-0.892264	1.159905
H168	H	0.961405	-0.558931	1.493239
H169	H	0.481789	-1.043344	0.930631
H170	H	0.815122	-0.710011	1.263964
H171	H	1.148456	-0.376678	1.597297
H172	H	0.294725	-0.835559	0.287284
H173	H	0.628058	-0.502226	0.620617
H174	H	0.961391	-0.168893	0.953951
H175	H	0.481861	-1.043308	0.677780
H176	H	0.815194	-0.709975	1.011113
H177	H	1.148528	-0.376642	1.344447
H178	H	0.482108	-0.582728	0.469137
H179	H	0.815441	-0.249394	0.802470
H180	H	1.148774	0.083939	1.135803
H181	H	0.294665	-1.225640	1.079429
H182	H	0.627998	-0.892306	1.412762
H183	H	0.961332	-0.558973	1.746095
H184	H	0.294783	-1.225579	0.677854
H185	H	0.628116	-0.892246	1.011187
H186	H	0.961450	-0.558913	1.344520
H187	H	0.294739	-0.582709	0.287311
H188	H	0.628072	-0.249376	0.620644
H189	H	0.961405	0.083958	0.953977
H190	H	0.481757	-1.043384	1.079358
H191	H	0.815090	-0.710051	1.412691
H192	H	1.148424	-0.376717	1.746025
H193	H	0.481822	-1.043341	0.826512
H194	H	0.815155	-0.710008	1.159845
H195	H	1.148488	-0.376674	1.493178
H196	H	0.482112	-0.433999	0.469158
H197	H	0.815445	-0.100666	0.802491
H198	H	1.148778	0.232667	1.135825
H199	H	0.294752	-0.433982	0.287330
H200	H	0.628085	-0.100648	0.620663
H201	H	0.961418	0.232685	0.953997
H202	H	0.294739	-0.686828	0.287302
H203	H	0.628073	-0.353494	0.620635
H204	H	0.961406	-0.020161	0.953969
H205	H	0.294711	-1.225621	0.930701
H206	H	0.628045	-0.892287	1.264034
H207	H	0.961378	-0.558954	1.597367
