data_functionalizedCrystal
_audit_creation_method	'MofGen! by Chris Wilmer'
_symmetry_space_group_name_H-M	'P1'
_symmetry_Int_Tables_number	1
_symmetry_cell_setting	triclinic
loop_
_symmetry_equiv_pos_as_xyz
  x,y,z
_cell_length_a	18.101395
_cell_length_b	18.101398
_cell_length_c	19.805398
_cell_angle_alpha	90.021302
_cell_angle_beta	89.973857
_cell_angle_gamma	89.973721
loop_
_atom_site_label
_atom_site_type_symbol
_atom_site_fract_x
_atom_site_fract_y
_atom_site_fract_z
Zn1	Zn	-0.294935	-1.132071	-0.382879
Zn2	Zn	-0.418780	-1.131982	-0.269696
Zn3	Zn	-0.294947	-1.008245	-0.269687
Zn4	Zn	-0.418728	-1.008181	-0.382826
O5	O	-0.356848	-1.070120	-0.326272
O6	O	-0.311380	-1.235692	-0.367890
O7	O	-0.402380	-1.115557	-0.174978
O8	O	-0.191312	-1.024735	-0.284721
O9	O	-0.402369	-1.235627	-0.284735
O10	O	-0.191303	-1.115710	-0.367882
O11	O	-0.311400	-1.024648	-0.174972
O12	O	-0.311350	-0.904603	-0.284670
O13	O	-0.402280	-1.024626	-0.477550
O14	O	-0.402292	-0.904556	-0.367792
O15	O	-0.311329	-1.115647	-0.477589
O16	O	-0.522406	-1.115495	-0.284684
O17	O	-0.522368	-1.024539	-0.367800
C18	C	-0.356817	-0.877709	-0.326225
C19	C	-0.356822	-0.795395	-0.326221
C20	C	-0.356830	-0.644687	-0.326243
C21	C	-0.299529	-0.613338	-0.274030
C22	C	-0.299310	-0.527719	-0.274197
C23	C	-0.356839	-0.496304	-0.326264
C24	C	-0.336008	-0.527435	-0.397678
C25	C	-0.335588	-0.613080	-0.397364
C26	C	-0.435109	-0.613085	-0.307671
C27	C	-0.434693	-0.527434	-0.306110
C28	C	-0.356845	-0.412445	-0.326281
C29	C	-0.356823	-0.728546	-0.326232
C30	C	-0.549258	-1.070021	-0.326252
C31	C	-0.631572	-1.070046	-0.326266
C32	C	-0.930663	-1.070208	-0.326303
C33	C	-0.899345	-1.013114	-0.378727
C34	C	-0.813727	-1.012843	-0.378563
C35	C	-0.782281	-1.070128	-0.326285
C36	C	-0.813429	-1.049008	-0.254948
C37	C	-0.899074	-1.048640	-0.255261
C38	C	-0.899014	-1.148548	-0.344588
C39	C	-0.813363	-1.148087	-0.346152
C40	C	-0.698421	-1.070083	-0.326271
C41	C	-1.014523	-1.070251	-0.326312
C42	C	-0.163686	-1.070239	-0.326307
C43	C	-0.081371	-1.070290	-0.326322
C44	C	-0.356797	-1.070139	-0.502815
C45	C	-0.356776	-1.070148	-0.578047
C46	C	-0.356867	-0.263282	-0.326306
C47	C	-0.356847	-0.345596	-0.326287
C48	C	-0.404032	-1.117601	-1.039839
C49	C	-0.404052	-1.117580	-0.969150
C50	C	-0.356693	-1.070240	-0.933809
C51	C	-0.309316	-1.022911	-0.969159
C52	C	-0.309300	-1.022929	-1.039847
C53	C	-0.309379	-1.022840	-0.684086
C54	C	-0.309397	-1.022828	-0.613394
C55	C	-0.404131	-1.117492	-0.613390
C56	C	-0.404115	-1.117509	-0.684077
C57	C	-0.356741	-1.070178	-0.719421
C58	C	-0.356721	-1.070200	-0.796070
C59	C	-0.356709	-1.070221	-0.857162
C60	C	-0.356844	-1.070143	-0.150416
C61	C	-0.356657	-1.070278	-0.075184
H62	H	-0.479647	-0.506042	-0.341339
H63	H	-0.793061	-1.089285	-0.214822
H64	H	-0.920926	-0.955400	-0.366767
N65	N	-0.315617	-0.639169	-0.207406
N66	N	-0.268817	-0.676401	-0.175861
H67	H	-0.280178	-0.694659	-0.128808
H68	H	-0.375526	-0.633820	-0.437614
H69	H	-0.270829	-0.984275	-0.584621
H70	H	-0.279429	-0.506012	-0.413651
N71	N	-0.452481	-1.165876	-0.720177
N72	N	-0.447582	-1.234213	-0.712295
H73	H	-0.481743	-1.268373	-0.737790
H74	H	-0.793298	-0.954776	-0.366450
H75	H	-0.442707	-1.156029	-0.584604
H76	H	-0.920565	-1.167805	-0.395721
N77	N	-0.924406	-1.201913	-0.296685
N78	N	-0.909051	-1.194601	-0.235521
H79	H	-0.926985	-1.232286	-0.201688
N80	N	-0.452402	-1.165975	-1.075926
N81	N	-0.494694	-1.208228	-1.044355
H82	H	-0.528857	-1.242395	-1.069839
N83	N	-0.260939	-0.974566	-0.933048
N84	N	-0.213763	-1.000648	-0.893619
H85	H	-0.179594	-0.966506	-0.868113
N86	N	-0.227178	-0.640362	-0.289314
N87	N	-0.198409	-0.626484	-0.345274
H88	H	-0.147312	-0.645571	-0.356072
N89	N	-0.925115	-1.029571	-0.445293
N90	N	-0.992848	-1.029775	-0.457548
H91	H	-1.011045	-1.041417	-0.504561
H92	H	-0.278378	-0.633082	-0.413062
N93	N	-0.226543	-0.502053	-0.289657
N94	N	-0.175763	-0.547393	-0.300363
H95	H	-0.124368	-0.529268	-0.311283
H96	H	-0.270721	-0.984394	-1.068624
N97	N	-0.315619	-0.501318	-0.207779
N98	N	-0.327242	-0.546146	-0.160977
H99	H	-0.338760	-0.527504	-0.114066
N100	N	-0.386770	-0.501923	-0.447833
N101	N	-0.453943	-0.516951	-0.442847
H102	H	-0.489795	-0.498934	-0.478268
N103	N	-0.458966	-0.640141	-0.243435
N104	N	-0.418560	-0.683049	-0.210560
H105	H	-0.435400	-0.702158	-0.165190
H106	H	-0.791953	-1.192875	-0.310753
H107	H	-0.477798	-0.633354	-0.345700
H108	H	-0.792039	-0.992349	-0.239183
H109	H	-0.442638	-1.156107	-0.940375
H110	H	-0.450406	-0.507085	-0.253552
N111	N	-0.787291	-1.029427	-0.444914
N112	N	-0.747410	-1.084849	-0.454465
H113	H	-0.728744	-1.096562	-0.501328
N114	N	-0.925060	-1.098529	-0.204574
N115	N	-0.879942	-1.133504	-0.169078
H116	H	-0.898291	-1.168730	-0.133274
N117	N	-0.924205	-0.976801	-0.235827
N118	N	-0.878491	-0.927284	-0.222128
H119	H	-0.896236	-0.876545	-0.208402
N120	N	-0.787801	-1.168065	-0.412007
N121	N	-0.720070	-1.173419	-0.423327
H122	H	-0.702011	-1.187525	-0.469838
H123	H	-0.270805	-0.984299	-0.712855
