data_functionalizedCrystal
_audit_creation_method	'MofGen! by Chris Wilmer'
_symmetry_space_group_name_H-M	'P1'
_symmetry_Int_Tables_number	1
_symmetry_cell_setting	triclinic
loop_
_symmetry_equiv_pos_as_xyz
  x,y,z
_cell_length_a	14.519709
_cell_length_b	9.065215
_cell_length_c	13.596369
_cell_angle_alpha	89.994989
_cell_angle_beta	89.999709
_cell_angle_gamma	95.652579
loop_
_atom_site_label
_atom_site_type_symbol
_atom_site_fract_x
_atom_site_fract_y
_atom_site_fract_z
O1	O	1.225283	-0.193397	0.081661
O2	O	1.725283	0.306603	0.581661
O3	O	0.956973	-0.216172	0.081691
O4	O	1.456973	0.283828	0.581691
O5	O	1.096675	0.009962	0.081671
O6	O	1.596675	0.509962	0.581671
O7	O	1.085581	-0.419531	0.081681
O8	O	1.585581	0.080469	0.581681
O9	O	1.096661	0.009974	-0.081912
O10	O	1.596661	0.509974	0.418088
O11	O	0.956959	-0.216160	-0.081892
O12	O	1.456959	0.283840	0.418108
O13	O	1.225269	-0.193385	-0.081922
O14	O	1.725269	0.306615	0.418078
Zn15	Zn	1.091112	-0.204770	-0.107879
Zn16	Zn	1.591112	0.295230	0.392121
Zn17	Zn	1.091130	-0.204786	0.107648
Zn18	Zn	1.591130	0.295214	0.607648
O19	O	1.085567	-0.419519	-0.081902
O20	O	1.585567	0.080481	0.418098
C21	C	0.922598	-0.215104	-0.000097
C22	C	1.422598	0.284896	0.499903
C23	C	0.820194	-0.211924	-0.000085
C24	C	1.320194	0.288076	0.499915
C25	C	0.445212	-0.200215	-0.000130
C26	C	0.945212	0.299785	0.499870
C27	C	0.549544	-0.203466	-0.000118
C28	C	1.049544	0.296534	0.499882
C29	C	0.632700	-0.206069	-0.000107
C30	C	1.132700	0.293931	0.499893
C31	C	0.737038	-0.209321	-0.000096
C32	C	1.237038	0.290679	0.499904
C33	C	1.095603	0.064935	-0.000119
C34	C	1.595603	0.564935	0.499881
C35	C	1.092416	0.228718	-0.000116
C36	C	1.592416	0.728718	0.499884
C37	C	1.259644	-0.194452	-0.000132
C38	C	1.759644	0.305548	0.499868
C39	C	1.362048	-0.197633	-0.000137
C40	C	1.862048	0.302367	0.499863
C41	C	1.086639	-0.474492	-0.000110
C42	C	1.586639	0.025508	0.499890
C43	C	1.089826	-0.638275	-0.000106
C44	C	1.589826	-0.138275	0.499894
N45	N	1.091106	-0.204759	-0.254971
N46	N	1.591106	0.295241	0.245029
C47	C	1.091129	-0.204788	-0.656262
C48	C	1.591129	0.295212	-0.156262
C49	C	1.091120	-0.204785	-0.544611
C50	C	1.591120	0.295215	-0.044611
C51	C	1.091118	-0.204774	-0.455620
C52	C	1.591118	0.295226	0.044380
C53	C	1.091108	-0.204769	-0.343962
C54	C	1.591108	0.295231	0.156038
N55	N	1.091144	-0.204786	0.254740
N56	N	1.591144	0.295214	0.754740
