data_functionalizedCrystal
_audit_creation_method	'MofGen! by Chris Wilmer'
_symmetry_space_group_name_H-M	'P1'
_symmetry_Int_Tables_number	1
_symmetry_cell_setting	triclinic
loop_
_symmetry_equiv_pos_as_xyz
  x,y,z
_cell_length_a	17.077404
_cell_length_b	19.121063
_cell_length_c	17.077396
_cell_angle_alpha	92.408800
_cell_angle_beta	89.980499
_cell_angle_gamma	92.469213
loop_
_atom_site_label
_atom_site_type_symbol
_atom_site_fract_x
_atom_site_fract_y
_atom_site_fract_z
Zn1	Zn	1.186697	-0.279610	-0.457152
Zn2	Zn	1.520031	0.053724	-0.123818
Zn3	Zn	1.853364	0.387057	0.209515
Zn4	Zn	1.180993	-0.397067	-0.331476
Zn5	Zn	1.514327	-0.063733	0.001857
Zn6	Zn	1.847660	0.269600	0.335190
Zn7	Zn	1.055428	-0.279634	-0.325901
Zn8	Zn	1.388761	0.053699	0.007433
Zn9	Zn	1.722095	0.387032	0.340766
Zn10	Zn	1.049788	-0.397025	-0.462698
Zn11	Zn	1.383121	-0.063692	-0.129365
Zn12	Zn	1.716455	0.269642	0.203969
O13	O	1.118227	-0.338334	-0.394307
O14	O	1.451560	-0.005001	-0.060973
O15	O	1.784893	0.328333	0.272360
O16	O	1.295787	-0.295198	-0.440493
O17	O	1.629121	0.038136	-0.107159
O18	O	1.962454	0.371469	0.226174
O19	O	1.164310	-0.381517	-0.220891
O20	O	1.497643	-0.048184	0.112442
O21	O	1.830977	0.285150	0.445776
O22	O	1.077589	-0.181347	-0.338657
O23	O	1.410922	0.151987	-0.005324
O24	O	1.744255	0.485320	0.328010
O25	O	1.291597	-0.381493	-0.348160
O26	O	1.624930	-0.048160	-0.014826
O27	O	1.958263	0.285174	0.318507
O28	O	1.174032	-0.181328	-0.435086
O29	O	1.507365	0.152005	-0.101753
O30	O	1.840698	0.485338	0.231580
O31	O	1.072058	-0.295240	-0.216795
O32	O	1.405391	0.038094	0.116539
O33	O	1.738724	0.371427	0.449872
O34	O	0.944833	-0.295199	-0.344035
O35	O	1.278167	0.038134	-0.010702
O36	O	1.611500	0.371467	0.322632
O37	O	1.067976	-0.381422	-0.571808
O38	O	1.401309	-0.048089	-0.238475
O39	O	1.734643	0.285245	0.094859
O40	O	0.940690	-0.381446	-0.444539
O41	O	1.274023	-0.048112	-0.111206
O42	O	1.607356	0.285221	0.222127
O43	O	1.168563	-0.295157	-0.567733
O44	O	1.501896	0.038176	-0.234400
O45	O	1.835229	0.371509	0.098934
O46	O	1.158841	-0.495346	-0.353538
O47	O	1.492175	-0.162012	-0.020204
O48	O	1.825508	0.171321	0.313129
O49	O	1.062445	-0.495315	-0.449946
O50	O	1.395779	-0.161982	-0.116612
O51	O	1.729112	0.171351	0.216721
C52	C	0.914279	-0.338321	-0.394284
C53	C	1.247613	-0.004988	-0.060951
C54	C	1.580946	0.328345	0.272382
C55	C	0.827029	-0.338333	-0.394294
C56	C	1.160362	-0.004999	-0.060961
C57	C	1.493696	0.328334	0.272372
C58	C	1.109434	-0.520815	-0.402966
C59	C	1.442767	-0.187481	-0.069632
C60	C	1.776100	0.145852	0.263701
C61	C	1.105744	-0.598881	-0.406696
C62	C	1.439077	-0.265547	-0.073363
C63	C	1.772410	0.067786	0.259970
C64	C	0.783899	-0.383309	-0.446550
C65	C	1.117232	-0.049976	-0.113216
C66	C	1.450565	0.283358	0.220117
C67	C	0.701918	-0.383311	-0.446562
C68	C	1.035251	-0.049977	-0.113229
C69	C	1.368585	0.283356	0.220104
C70	C	0.663069	-0.338339	-0.394315
C71	C	0.996403	-0.005005	-0.060982
C72	C	1.329736	0.328328	0.272352
C73	C	0.706206	-0.293358	-0.342057
C74	C	1.039539	0.039976	-0.008724
C75	C	1.372872	0.373309	0.324609
C76	C	0.788185	-0.293353	-0.342049
C77	C	1.121518	0.039980	-0.008716
C78	C	1.454852	0.373314	0.324618
C79	C	0.535335	-0.293371	-0.342077
C80	C	0.868668	0.039962	-0.008744
C81	C	1.202002	0.373295	0.324590
C82	C	0.453350	-0.293377	-0.342084
C83	C	0.786684	0.039957	-0.008751
C84	C	1.120017	0.373290	0.324583
C85	C	0.449068	-0.383329	-0.446590
C86	C	0.782402	-0.049996	-0.113257
C87	C	1.115735	0.283338	0.220077
C88	C	0.531047	-0.383324	-0.446582
C89	C	0.864381	-0.049991	-0.113248
C90	C	1.197714	0.283342	0.220085
C91	C	0.574178	-0.338344	-0.394323
C92	C	0.907511	-0.005011	-0.060989
C93	C	1.240845	0.328323	0.272344
C94	C	1.154237	-0.635549	-0.358296
C95	C	1.487571	-0.302215	-0.024963
C96	C	1.820904	0.031118	0.308371
C97	C	1.150772	-0.708900	-0.361809
C98	C	1.484105	-0.375567	-0.028476
C99	C	1.817438	-0.042233	0.304857
C100	C	1.098808	-0.745582	-0.413719
C101	C	1.432141	-0.412248	-0.080386
C102	C	1.765474	-0.078915	0.252947
C103	C	1.050312	-0.708908	-0.462125
C104	C	1.383645	-0.375575	-0.128792
C105	C	1.716979	-0.042242	0.204542
C106	C	1.053782	-0.635558	-0.458615
C107	C	1.387116	-0.302225	-0.125282
C108	C	1.720449	0.031108	0.208052
C109	C	1.085821	-0.967052	-0.426830
C110	C	1.419154	-0.633718	-0.093496
C111	C	1.752487	-0.300385	0.239837
C112	C	1.082353	-1.040407	-0.430334
C113	C	1.415686	-0.707073	-0.097001
C114	C	1.749019	-0.373740	0.236333
C115	C	1.182814	-1.040393	-0.330019
C116	C	1.516147	-0.707060	0.003314
C117	C	1.849480	-0.373726	0.336647
C118	C	1.186276	-0.967042	-0.326511
C119	C	1.519609	-0.633708	0.006823
C120	C	1.852943	-0.300375	0.340156
C121	C	1.137783	-0.930375	-0.374919
C122	C	1.471117	-0.597042	-0.041586
C123	C	1.804450	-0.263708	0.291748
C124	C	1.095262	-0.820559	-0.417310
C125	C	1.428596	-0.487225	-0.083977
C126	C	1.761929	-0.153892	0.249357
C127	C	1.141333	-0.855399	-0.371332
C128	C	1.474667	-0.522066	-0.037998
C129	C	1.808000	-0.188733	0.295335
C130	C	1.322970	-0.338347	-0.394329
C131	C	1.656304	-0.005014	-0.060996
C132	C	1.989637	0.328319	0.272337
C133	C	1.410220	-0.338353	-0.394339
C134	C	1.743553	-0.005020	-0.061006
C135	C	2.076886	0.328314	0.272327
C136	C	1.118277	-0.338282	-0.599049
C137	C	1.451610	-0.004949	-0.265715
C138	C	1.784943	0.328384	0.067618
C139	C	1.118298	-0.338260	-0.686297
C140	C	1.451631	-0.004927	-0.352964
C141	C	1.784965	0.328406	-0.019631
C142	C	1.127075	-0.155141	-0.385631
C143	C	1.460409	0.178193	-0.052298
C144	C	1.793742	0.511526	0.281036
C145	C	1.130846	-0.077075	-0.381934
C146	C	1.464180	0.256259	-0.048601
C147	C	1.797513	0.589592	0.284733
C148	C	1.170675	-0.293338	-0.725167
C149	C	1.504009	0.039995	-0.391833
C150	C	1.837342	0.373328	-0.058500
C151	C	1.170686	-0.293315	-0.807146
C152	C	1.504019	0.040018	-0.473813
C153	C	1.837353	0.373352	-0.140480
C154	C	1.118322	-0.338217	-0.850255
C155	C	1.451656	-0.004884	-0.516921
C156	C	1.784989	0.328449	-0.183588
C157	C	1.065939	-0.383141	-0.811380
C158	C	1.399272	-0.049808	-0.478046
C159	C	1.732606	0.283526	-0.144713
C160	C	1.065925	-0.383160	-0.729402
C161	C	1.399259	-0.049827	-0.396068
C162	C	1.732592	0.283506	-0.062735
C163	C	1.065973	-0.383099	-0.982248
C164	C	1.399306	-0.049766	-0.648915
C165	C	1.732639	0.283568	-0.315581
C166	C	1.065987	-0.383081	-1.064232
C167	C	1.399321	-0.049747	-0.730898
C168	C	1.732654	0.283586	-0.397565
C169	C	1.170733	-0.293254	-1.059992
C170	C	1.504067	0.040080	-0.726659
C171	C	1.837400	0.373413	-0.393326
C172	C	1.170720	-0.293273	-0.978014
C173	C	1.504053	0.040060	-0.644681
C174	C	1.837386	0.373394	-0.311348
C175	C	1.118337	-0.338198	-0.939145
C176	C	1.451671	-0.004864	-0.605812
C177	C	1.785004	0.328469	-0.272478
C178	C	1.118224	-0.338335	-0.190359
C179	C	1.451558	-0.005001	0.142974
C180	C	1.784891	0.328332	0.476308
C181	C	1.118365	-0.338159	-0.103101
C182	C	1.451698	-0.004826	0.230232
C183	C	1.785031	0.328508	0.563566
H184	H	0.815523	-0.419933	-0.489093
H185	H	1.148856	-0.086599	-0.155759
H186	H	1.482190	0.246734	0.177574
H187	H	1.190260	-0.738752	-0.322396
H188	H	1.523593	-0.405419	0.010937
H189	H	1.856927	-0.072085	0.344271
H190	H	0.666805	-0.419935	-0.489113
H191	H	1.000138	-0.086602	-0.155780
H192	H	1.333471	0.246731	0.177554
Br193	Br	1.241827	-0.232287	-1.112742
Br194	Br	1.575160	0.101046	-0.779409
Br195	Br	1.908494	0.434380	-0.446076
Br196	Br	1.211858	-0.805616	-0.300890
Br197	Br	1.545192	-0.472283	0.032444
Br198	Br	1.878525	-0.138950	0.365777
H199	H	1.046335	-0.937203	-0.466244
H200	H	1.379668	-0.603870	-0.132911
H201	H	1.713001	-0.270536	0.200422
H202	H	1.014295	-0.605704	-0.498029
H203	H	1.347628	-0.272371	-0.164695
H204	H	1.680961	0.060963	0.168638
H205	H	1.023346	-0.419643	-1.099329
H206	H	1.356680	-0.086309	-0.765995
H207	H	1.690013	0.247024	-0.432662
H208	H	1.040047	-1.070271	-0.472619
H209	H	1.373380	-0.736937	-0.139286
H210	H	1.706713	-0.403604	0.194047
H211	H	1.023306	-0.419670	-0.950603
H212	H	1.356639	-0.086337	-0.617269
H213	H	1.689972	0.246996	-0.283936
Br214	Br	0.994868	-0.444077	-0.869883
Br215	Br	1.328202	-0.110743	-0.536550
Br216	Br	1.661535	0.222590	-0.203216
Br217	Br	0.583770	-0.444365	-0.517482
Br218	Br	0.917104	-0.111031	-0.184149
Br219	Br	1.250437	0.222302	0.149185
H220	H	0.674569	-0.256738	-0.299520
H221	H	1.007902	0.076596	0.033813
H222	H	1.341235	0.409929	0.367147
H223	H	1.213318	-0.256776	-0.690074
H224	H	1.546652	0.076557	-0.356740
H225	H	1.879985	0.409891	-0.023407
Br226	Br	1.241792	-0.232340	-0.919510
Br227	Br	1.575125	0.100994	-0.586177
Br228	Br	1.908459	0.434327	-0.252843
Br229	Br	0.994834	-0.444124	-0.676649
Br230	Br	1.328168	-0.110790	-0.343316
Br231	Br	1.661501	0.222543	-0.009982
Br232	Br	1.241808	-0.232380	-0.859896
Br233	Br	1.575141	0.100953	-0.526563
Br234	Br	1.908475	0.434287	-0.193230
Br235	Br	1.248625	-1.090159	-0.264330
Br236	Br	1.581959	-0.756825	0.069004
Br237	Br	1.915292	-0.423492	0.402337
Br238	Br	0.390536	-0.444365	-0.517523
Br239	Br	0.723869	-0.111032	-0.184189
Br240	Br	1.057202	0.222302	0.149144
Br241	Br	0.593869	-0.232324	-0.271155
Br242	Br	0.927203	0.101009	0.062178
Br243	Br	1.260536	0.434342	0.395512
Br244	Br	0.400627	-0.232348	-0.271171
Br245	Br	0.733960	0.100985	0.062163
Br246	Br	1.067293	0.434318	0.395496
H247	H	0.823301	-0.256725	-0.299501
H248	H	1.156634	0.076608	0.033832
H249	H	1.489968	0.409942	0.367165
H250	H	1.196548	-0.605687	-0.316022
H251	H	1.529882	-0.272354	0.017311
H252	H	1.863215	0.060979	0.350645
Br253	Br	1.256811	-0.917264	-0.256069
Br254	Br	1.590144	-0.583931	0.077265
Br255	Br	1.923478	-0.250598	0.410598
Br256	Br	0.979795	-0.758690	-0.532582
Br257	Br	1.313129	-0.425357	-0.199249
Br258	Br	1.646462	-0.092023	0.134085
Br259	Br	1.024743	-0.870347	-0.487759
Br260	Br	1.358076	-0.537013	-0.154426
Br261	Br	1.691410	-0.203680	0.178908
