data_functionalizedCrystal
_audit_creation_method	'MofGen! by Chris Wilmer'
_symmetry_space_group_name_H-M	'P1'
_symmetry_Int_Tables_number	1
_symmetry_cell_setting	triclinic
loop_
_symmetry_equiv_pos_as_xyz
  x,y,z
_cell_length_a	10.654550
_cell_length_b	11.792241
_cell_length_c	9.130313
_cell_angle_alpha	89.995332
_cell_angle_beta	89.999724
_cell_angle_gamma	84.339173
loop_
_atom_site_label
_atom_site_type_symbol
_atom_site_fract_x
_atom_site_fract_y
_atom_site_fract_z
O1	O	1.667388	0.159420	-0.121691
O2	O	1.301867	0.174608	-0.121718
O3	O	1.493498	0.001864	-0.121693
O4	O	1.475758	0.332164	-0.121715
O5	O	1.493485	0.001859	0.121906
O6	O	1.301854	0.174603	0.121881
O7	O	1.667375	0.159415	0.121908
Cu8	Cu	1.484613	0.167009	0.144137
Cu9	Cu	1.484629	0.167015	-0.143947
O10	O	1.475744	0.332159	0.121884
C11	C	1.255066	0.173491	0.000078
C12	C	1.115632	0.170154	0.000068
C13	C	1.492377	-0.040432	0.000106
C14	C	1.489042	-0.166453	0.000104
C15	C	1.035859	0.271863	0.000066
C16	C	0.904847	0.268721	0.000092
C17	C	0.933394	0.062152	0.000116
C18	C	1.064403	0.065295	0.000101
C19	C	1.482908	-0.397180	0.000079
C20	C	1.486316	-0.268787	0.000093
C21	C	1.714177	0.160533	0.000109
C22	C	1.853611	0.163869	0.000109
C23	C	1.476865	0.374455	0.000082
C24	C	1.480201	0.500477	0.000074
N25	N	1.484612	0.167004	0.346760
N26	N	1.484641	0.167011	-0.346569
C27	C	1.569495	0.090545	0.423422
C28	C	1.569507	0.090545	0.576759
C29	C	1.399749	0.243473	0.576757
C30	C	1.399732	0.243466	0.423423
H31	H	0.839900	0.351543	0.000092
H32	H	1.638607	0.028283	0.361007
H33	H	1.638624	0.028284	0.639174
H34	H	1.330643	0.305729	0.639192
C35	C	1.306356	0.327577	0.339081
C36	C	1.213044	0.411733	0.423398
C37	C	1.119670	0.495835	0.339054
C38	C	1.119607	0.495781	0.170392
C39	C	1.212922	0.411622	0.086066
C40	C	1.306296	0.327520	0.170410
H41	H	1.213088	0.411776	0.548260
H42	H	1.050592	0.558136	0.401479
H43	H	1.050485	0.558039	0.107956
H44	H	1.212878	0.411579	-0.038796
H45	H	1.375374	0.265219	0.107985
C46	C	0.877036	-0.053187	0.000136
C47	C	0.790899	-0.083753	0.126637
C48	C	0.734543	-0.199094	0.126651
C49	C	0.764325	-0.283869	0.000164
C50	C	0.850466	-0.253305	-0.126347
C51	C	0.906822	-0.137964	-0.126361
H52	H	0.768849	-0.020995	0.220279
H53	H	0.670776	-0.221719	0.220303
H54	H	0.722607	-0.369251	0.000174
H55	H	0.872516	-0.316062	-0.219989
H56	H	0.970590	-0.115339	-0.220014
H57	H	1.129359	-0.017534	0.000107
H58	H	1.077564	0.357246	0.000050
