data_functionalizedCrystal
_audit_creation_method	'MofGen! by Chris Wilmer'
_symmetry_space_group_name_H-M	'P1'
_symmetry_Int_Tables_number	1
_symmetry_cell_setting	triclinic
loop_
_symmetry_equiv_pos_as_xyz
  x,y,z
_cell_length_a	19.288865
_cell_length_b	10.654550
_cell_length_c	9.730223
_cell_angle_alpha	89.999758
_cell_angle_beta	90.008198
_cell_angle_gamma	96.189411
loop_
_atom_site_label
_atom_site_type_symbol
_atom_site_fract_x
_atom_site_fract_y
_atom_site_fract_z
O1	O	0.097553	-1.665751	0.114205
O2	O	0.106847	-1.300074	0.114232
O3	O	0.001139	-1.493479	0.114191
O4	O	0.203261	-1.472346	0.114247
O5	O	0.001139	-1.493465	-0.114389
O6	O	0.106847	-1.300060	-0.114348
O7	O	0.097553	-1.665738	-0.114375
Zn8	Zn	0.102200	-1.482897	-0.150653
Zn9	Zn	0.102200	-1.482915	0.150511
O10	O	0.203261	-1.472333	-0.114333
C11	C	0.106165	-1.253284	-0.000055
C12	C	0.104123	-1.113884	-0.000046
C13	C	-0.024742	-1.492792	-0.000103
C14	C	-0.101859	-1.490751	-0.000115
N15	N	0.102200	-1.482894	-0.356190
C16	C	-0.145812	-1.604232	-0.000131
C17	C	-0.218272	-1.602315	-0.000109
C18	C	-0.246775	-1.486909	-0.000099
C19	C	-0.202812	-1.373413	-0.000076
C20	C	-0.130354	-1.375334	-0.000085
C21	C	-0.355656	-1.396182	-0.080159
C22	C	-0.428113	-1.394266	-0.080160
C23	C	-0.470259	-1.480980	-0.000068
C24	C	-0.439941	-1.569631	0.080006
C25	C	-0.367483	-1.571552	0.079998
C26	C	-0.325343	-1.484814	-0.000090
C27	C	-0.592782	-1.592390	-0.000057
C28	C	-0.665243	-1.590467	-0.000027
C29	C	-0.649781	-1.361562	-0.000009
C30	C	-0.577322	-1.363488	-0.000025
C31	C	-0.548827	-1.478905	-0.000056
C32	C	0.229142	-1.473020	-0.000036
C33	C	0.306259	-1.475061	-0.000015
C34	C	0.098236	-1.712528	-0.000085
C35	C	0.100277	-1.851928	-0.000085
C36	C	0.166363	-1.033066	-0.000033
C37	C	0.164440	-0.902087	-0.000057
C38	C	0.038033	-0.932756	-0.000102
C39	C	0.039956	-1.063733	-0.000088
C40	C	0.144718	-1.558815	-0.428104
C41	C	0.144714	-1.558836	-0.571987
C42	C	0.059672	-1.407004	-0.572029
C43	C	0.059673	-1.406990	-0.428148
N44	N	0.102195	-1.482928	0.356047
H45	H	-0.122616	-1.698214	-0.000151
H46	H	-0.701029	-1.682881	-0.000032
Cl47	Cl	0.198175	-1.654247	-0.337647
H48	H	0.179336	-1.620660	-0.630534
H49	H	0.025049	-1.345204	-0.630635
H50	H	-0.541534	-1.271079	-0.000021
H51	H	0.025045	-1.345165	-0.369594
Cl52	Cl	-0.042629	-0.869698	-0.000146
Cl53	Cl	-0.273537	-1.744988	-0.000126
H54	H	-0.342800	-1.643732	0.145200
H55	H	-0.474255	-1.640241	0.145225
H56	H	-0.569580	-1.686369	-0.000076
Cl57	Cl	-0.075095	-1.232660	-0.000066
Cl58	Cl	-0.685607	-1.216479	0.000011
Cl59	Cl	-0.238643	-1.228332	-0.000054
H60	H	-0.452792	-1.322076	-0.145353
Cl61	Cl	0.242688	-0.800492	-0.000042
Cl62	Cl	0.247029	-1.096110	0.000011
H63	H	-0.321346	-1.325566	-0.145387
H64	H	-0.010730	-1.129539	-0.000102
