data_functionalizedCrystal
_audit_creation_method	'MofGen! by Chris Wilmer'
_symmetry_space_group_name_H-M	'P1'
_symmetry_Int_Tables_number	1
_symmetry_cell_setting	triclinic
loop_
_symmetry_equiv_pos_as_xyz
  x,y,z
_cell_length_a	17.019282
_cell_length_b	27.732048
_cell_length_c	15.500227
_cell_angle_alpha	92.799543
_cell_angle_beta	91.034464
_cell_angle_gamma	83.017024
loop_
_atom_site_label
_atom_site_type_symbol
_atom_site_fract_x
_atom_site_fract_y
_atom_site_fract_z
O1	O	1.045624	0.061734	0.005975
O2	O	0.816739	0.069061	-0.011086
O3	O	0.938289	-0.004955	-0.002009
O4	O	0.924073	0.135750	-0.003102
O5	O	0.930913	-0.000481	0.141328
O6	O	0.809363	0.073535	0.132252
O7	O	1.038248	0.066208	0.149313
Cu8	Cu	0.923132	0.070280	0.153870
Cu9	Cu	0.931855	0.064989	-0.015644
O10	O	0.916698	0.140224	0.140236
C11	C	0.783778	0.070933	0.058401
C12	C	0.696552	0.069840	0.051900
C13	C	0.651558	0.071764	0.126981
C14	C	0.569602	0.070729	0.120875
C15	C	0.532641	0.067774	0.039687
C16	C	0.577642	0.065848	-0.035400
C17	C	0.659597	0.066880	-0.029293
C18	C	0.285391	0.064535	0.017339
C19	C	0.203429	0.063505	0.011238
C20	C	0.195395	0.068385	0.167514
C21	C	0.277352	0.069419	0.173613
C22	C	0.322346	0.067491	0.098527
C23	C	0.448869	0.066718	0.033444
C24	C	0.406117	0.068544	0.104771
C25	C	0.934303	-0.020726	0.069640
C26	C	0.933404	-0.074387	0.069580
C27	C	0.999577	-0.412793	0.074468
C28	C	0.996243	-0.614474	0.074207
O29	O	1.056754	-0.645356	0.078680
N30	N	0.924169	-0.634044	0.068836
C31	C	0.852923	-0.603191	0.063523
O32	O	0.791543	-0.624464	0.058939
C33	C	0.856257	-0.401511	0.063778
C34	C	0.928336	-0.381944	0.069158
C35	C	1.071650	-0.393225	0.079847
C36	C	1.072483	-0.342808	0.079917
C37	C	1.001242	-0.311958	0.074607
C38	C	0.929169	-0.331526	0.069228
C39	C	0.785012	-0.370659	0.058459
C40	C	0.785853	-0.320237	0.058521
C41	C	0.857932	-0.300669	0.063902
C42	C	0.858760	-0.250260	0.063988
N43	N	0.930835	-0.230690	0.069360
C44	C	1.002076	-0.261539	0.074670
C45	C	0.851177	-0.709076	0.063392
C46	C	0.850343	-0.759495	0.063330
C47	C	0.993664	-0.770775	0.074012
C48	C	0.994497	-0.720354	0.074080
C49	C	0.923251	-0.689506	0.068763
C50	C	1.003818	-0.155658	0.074816
C51	C	1.004644	-0.105236	0.074889
C52	C	0.861324	-0.093961	0.064202
C53	C	0.860497	-0.144379	0.064134
C54	C	0.931751	-0.175227	0.069439
O55	O	0.798283	-0.219350	0.059508
O56	O	1.063448	-0.240256	0.079234
C57	C	0.998745	-0.463210	0.074398
C58	C	0.926672	-0.482778	0.069019
C59	C	0.855431	-0.451929	0.063709
C60	C	0.925838	-0.533198	0.068957
C61	C	0.997078	-0.564047	0.074266
C62	C	1.069153	-0.544477	0.079638
C63	C	1.069985	-0.494060	0.079708
C64	C	0.783356	-0.471499	0.058338
C65	C	0.782529	-0.521917	0.058269
C66	C	0.853770	-0.552767	0.063579
C67	C	1.071209	0.064336	0.079824
C68	C	1.158435	0.065429	0.086319
C69	C	0.920684	0.155995	0.068585
C70	C	0.921584	0.209655	0.068639
N71	N	0.917003	0.074001	0.273097
N72	N	0.937990	0.061264	-0.134870
C73	C	0.968525	0.042649	0.322221
C74	C	0.963897	0.045468	0.412449
C75	C	0.907749	0.079641	0.453550
C76	C	0.856221	0.110994	0.404419
C77	C	0.860846	0.108172	0.314194
C78	C	0.891087	0.089796	0.725773
C79	C	0.886468	0.092616	0.816005
C80	C	0.994143	0.027089	0.824028
C81	C	0.998766	0.024273	0.733801
C82	C	0.947236	0.055624	0.684678
C83	C	0.903019	0.082524	0.545777
C84	C	0.951963	0.052739	0.592452
H85	H	1.063342	-0.089307	0.079273
H86	H	1.051671	-0.795901	0.078336
F87	F	1.079655	-0.188482	0.080462
H88	H	0.818890	0.133701	0.274197
H89	H	1.129666	-0.418338	0.084168
H90	H	0.532972	0.072288	0.182014
H91	H	0.997676	0.024913	0.558985
F92	F	0.836247	0.123163	0.673500
H93	H	1.044486	-0.003553	0.700338
F94	F	0.164095	0.060361	-0.075178
H95	H	0.810500	0.138816	0.437889
H96	H	0.726318	-0.386582	0.054072
F97	F	1.048980	-0.006276	0.876314
F98	F	1.144972	-0.577318	0.085293
F99	F	0.826705	0.128990	0.859743
F100	F	0.785508	-0.061120	0.058552
H101	H	0.857303	0.110349	0.579249
H102	H	0.681644	0.074174	0.193093
H103	H	0.158752	0.069954	0.228645
F104	F	0.316681	0.072567	0.260025
H105	H	0.322016	0.062963	-0.043802
H106	H	0.547543	0.063439	-0.101505
F107	F	1.149200	-0.321990	0.085625
H108	H	0.696231	0.065314	-0.090433
H109	H	1.014250	0.014824	0.288763
H110	H	0.436215	0.070947	0.170874
H111	H	1.005850	0.019939	0.452445
H112	H	0.793157	-0.683963	0.059062
F113	F	0.409529	0.063555	-0.052960
H114	H	0.791648	-0.775422	0.058963
F115	F	1.071212	-0.699534	0.079807
H116	H	0.727835	-0.295122	0.054190
H117	H	0.801804	-0.160311	0.059776
H118	H	1.128679	-0.478133	0.084089
H119	H	0.723829	-0.537844	0.053895
H120	H	0.725342	-0.446386	0.054012
