data_functionalizedCrystal
_audit_creation_method	'MofGen! by Chris Wilmer'
_symmetry_space_group_name_H-M	'P1'
_symmetry_Int_Tables_number	1
_symmetry_cell_setting	triclinic
loop_
_symmetry_equiv_pos_as_xyz
  x,y,z
_cell_length_a	27.731994
_cell_length_b	27.732048
_cell_length_c	26.210047
_cell_angle_alpha	90.011237
_cell_angle_beta	90.018354
_cell_angle_gamma	82.631595
loop_
_atom_site_label
_atom_site_type_symbol
_atom_site_fract_x
_atom_site_fract_y
_atom_site_fract_z
O1	O	0.640958	0.057392	0.042362
O2	O	0.500161	0.066164	0.042379
O3	O	0.574933	-0.008620	0.042360
O4	O	0.566187	0.132176	0.042381
O5	O	0.574898	-0.008620	-0.042498
O6	O	0.500127	0.066164	-0.042479
O7	O	0.640924	0.057391	-0.042496
Cu8	Cu	0.570522	0.061777	-0.050236
Cu9	Cu	0.570563	0.061778	0.050119
O10	O	0.566152	0.132175	-0.042477
C11	C	0.482137	0.065984	-0.000047
C12	C	0.428480	0.065442	-0.000041
C13	C	0.095743	0.062025	-0.046317
C14	C	-0.105915	0.059964	-0.046324
O15	O	-0.132004	0.059676	-0.085663
N16	N	-0.131111	0.059708	-0.000067
C17	C	-0.105889	0.059965	0.046193
O18	O	-0.131946	0.059695	0.085537
C19	C	0.095769	0.062023	0.046199
C20	C	0.120961	0.062283	-0.000060
C21	C	0.120936	0.062285	-0.092573
C22	C	0.171347	0.062803	-0.092571
C23	C	0.196565	0.063061	-0.046313
C24	C	0.171372	0.062801	-0.000058
C25	C	0.120990	0.062276	0.092459
C26	C	0.171408	0.062789	0.092457
C27	C	0.196601	0.063050	0.046197
C28	C	0.247002	0.063578	0.046201
N29	N	0.272198	0.063833	-0.000055
C30	C	0.246980	0.063575	-0.046312
C31	C	-0.211763	0.058885	0.046187
C32	C	-0.262177	0.058372	0.046186
C33	C	-0.262199	0.058370	-0.046331
C34	C	-0.211784	0.058887	-0.046329
C35	C	-0.186567	0.059141	-0.000069
C36	C	0.352847	0.064663	-0.046305
C37	C	0.403262	0.065184	-0.046298
C38	C	0.403280	0.065183	0.046218
C39	C	0.352869	0.064665	0.046213
C40	C	0.327654	0.064404	-0.000053
O41	O	0.273122	0.063860	0.085520
O42	O	0.273047	0.063834	-0.085650
C43	C	0.045332	0.061507	-0.046319
C44	C	0.020139	0.061247	-0.000064
C45	C	0.045357	0.061505	0.046193
C46	C	-0.030275	0.060734	-0.000065
C47	C	-0.055494	0.060476	-0.046323
C48	C	-0.030298	0.060731	-0.092579
C49	C	0.020114	0.061249	-0.092577
C50	C	0.020161	0.061250	0.092449
C51	C	-0.030250	0.060732	0.092443
C52	C	-0.055468	0.060474	0.046186
C53	C	0.574732	-0.026627	-0.000070
C54	C	0.574179	-0.080282	-0.000074
C55	C	0.614884	-0.419105	-0.000053
C56	C	0.612833	-0.620764	-0.000046
O57	O	0.650055	-0.652027	-0.000028
N58	N	0.568496	-0.639879	-0.000041
C59	C	0.524670	-0.608576	-0.000034
O60	O	0.486912	-0.629462	-0.000024
C61	C	0.526721	-0.406918	-0.000038
C62	C	0.571060	-0.387805	-0.000048
C63	C	0.659220	-0.399992	-0.000063
C64	C	0.659732	-0.349580	-0.000068
C65	C	0.615908	-0.318281	-0.000062
C66	C	0.571573	-0.337394	-0.000053
C67	C	0.482895	-0.375615	-0.000028
C68	C	0.483412	-0.325198	-0.000027
C69	C	0.527751	-0.306086	-0.000037
C70	C	0.528262	-0.255683	-0.000052
N71	N	0.572598	-0.236567	-0.000057
C72	C	0.616421	-0.267867	-0.000062
C73	C	0.523596	-0.714450	-0.000033
C74	C	0.523083	-0.764864	-0.000033
C75	C	0.611246	-0.777049	-0.000044
C76	C	0.611759	-0.726633	-0.000048
C77	C	0.567932	-0.695335	-0.000038
C78	C	0.617494	-0.161998	-0.000073
C79	C	0.618002	-0.111581	-0.000079
C80	C	0.529839	-0.099401	-0.000066
C81	C	0.529331	-0.149813	-0.000062
C82	C	0.573162	-0.181111	-0.000063
O83	O	0.491060	-0.224391	-0.000064
O84	O	0.654174	-0.246971	-0.000061
C85	C	0.614372	-0.469517	-0.000049
C86	C	0.570036	-0.488629	-0.000039
C87	C	0.526213	-0.457330	-0.000034
C88	C	0.569523	-0.539043	-0.000039
C89	C	0.613346	-0.570343	-0.000044
C90	C	0.657683	-0.551228	-0.000049
C91	C	0.658195	-0.500816	-0.000054
C92	C	0.481876	-0.476445	-0.000029
C93	C	0.481367	-0.526857	-0.000025
C94	C	0.525191	-0.558157	-0.000030
C95	C	0.658949	0.057571	-0.000068
C96	C	0.712605	0.058114	-0.000071
C97	C	0.566353	0.150182	-0.000046
C98	C	0.566906	0.203837	-0.000038
N99	N	0.570497	0.061776	-0.120820
C100	C	0.537423	0.094877	-0.526779
C101	C	0.537399	0.094877	-0.313120
O102	O	0.509221	0.123016	-0.285494
N103	N	0.570512	0.061774	-0.286403
C104	C	0.603632	0.028667	-0.313105
O105	O	0.631792	0.000508	-0.285478
C106	C	0.603652	0.028665	-0.526762
C107	C	0.570540	0.061773	-0.553476
C108	C	0.504313	0.127982	-0.553493
C109	C	0.504321	0.127983	-0.606904
C110	C	0.537438	0.094880	-0.633602
C111	C	0.570548	0.061774	-0.606888
C112	C	0.636769	-0.004444	-0.553463
C113	C	0.636770	-0.004442	-0.606880
C114	C	0.603658	0.028666	-0.633594
C115	C	0.603674	0.028672	-0.686997
N116	N	0.570560	0.061775	-0.713713
C117	C	0.537443	0.094878	-0.687016
C118	C	0.603619	0.028671	-0.200931
C119	C	0.603615	0.028672	-0.147517
C120	C	0.537382	0.094882	-0.147536
C121	C	0.537389	0.094883	-0.200951
C122	C	0.570506	0.061774	-0.227648
C123	C	0.537462	0.094879	-0.799184
C124	C	0.537474	0.094879	-0.852600
C125	C	0.603705	0.028668	-0.852576
C126	C	0.603695	0.028670	-0.799165
C127	C	0.570570	0.061777	-0.772470
O128	O	0.631834	0.000544	-0.714655
O129	O	0.509279	0.123026	-0.714652
C130	C	0.537415	0.094875	-0.473367
C131	C	0.570524	0.061770	-0.446653
C132	C	0.603642	0.028667	-0.473351
C133	C	0.570520	0.061771	-0.393239
C134	C	0.537402	0.094875	-0.366542
C135	C	0.504289	0.127978	-0.393258
C136	C	0.504297	0.127979	-0.446670
C137	C	0.636755	-0.004436	-0.446634
C138	C	0.636745	-0.004434	-0.393223
C139	C	0.603627	0.028670	-0.366525
N140	N	0.570592	0.061775	0.120703
H141	H	-0.050758	0.060524	0.130116
H142	H	0.446789	-0.391167	-0.000016
H143	H	0.486977	-0.780420	-0.000034
H144	H	0.040689	0.061459	0.130118
H145	H	0.510426	0.121842	-0.222699
H146	H	-0.191276	0.059099	-0.083998
H147	H	0.630588	0.001710	-0.222664
F148	F	-0.288985	0.058103	0.095421
H149	H	0.510416	0.121837	-0.125790
F150	F	0.658950	-0.706298	-0.000058
H151	H	0.423771	0.065397	-0.083970
F152	F	0.046919	0.061526	-0.141812
H153	H	0.663731	-0.031404	-0.531720
H154	H	0.510488	0.121838	-0.777455
H155	H	0.487905	-0.688970	-0.000026
F156	F	0.436764	-0.291890	-0.000016
F157	F	0.469054	0.163217	-0.475094
H158	H	-0.282741	0.058161	-0.083996
H159	H	0.493226	-0.165375	-0.000068
F160	F	0.704323	-0.584547	-0.000057
F161	F	0.638863	-0.006560	-0.119092
F162	F	0.198244	0.063058	0.141695
F163	F	-0.184930	0.059156	0.095427
F164	F	0.483202	-0.066081	-0.000061
F165	F	0.326018	0.064384	-0.095546
H166	H	0.694301	-0.485260	-0.000062
F167	F	0.094189	0.061998	0.141695
H168	H	0.663738	-0.031405	-0.628614
H169	H	0.445258	-0.542413	-0.000021
H170	H	0.477357	0.154941	-0.628651
F171	F	0.435231	-0.443140	-0.000022
F172	F	0.664144	-0.195300	-0.000074
F173	F	0.502232	0.130119	-0.881028
H174	H	-0.050840	0.060524	-0.130243
H175	H	0.477342	0.154939	-0.531760
H176	H	0.646929	-0.802541	-0.000048
H177	H	0.630663	0.001715	-0.777414
H178	H	0.630671	0.001717	-0.874322
F179	F	0.665196	-0.091244	-0.000090
F180	F	0.469044	0.163211	-0.364835
F181	F	0.671992	-0.039672	-0.364797
H182	H	0.663723	-0.031394	-0.468367
H183	H	0.191855	0.063013	-0.130240
H184	H	0.100409	0.062074	-0.130243
F185	F	0.430128	0.065456	0.095446
F186	F	0.706924	-0.329246	-0.000067
F187	F	0.705867	-0.433296	-0.000068
F188	F	0.326055	0.064396	0.095446
