data_functionalizedCrystal
_audit_creation_method	'MofGen! by Chris Wilmer'
_symmetry_space_group_name_H-M	'P1'
_symmetry_Int_Tables_number	1
_symmetry_cell_setting	triclinic
loop_
_symmetry_equiv_pos_as_xyz
  x,y,z
_cell_length_a	19.288874
_cell_length_b	14.971486
_cell_length_c	17.766277
_cell_angle_alpha	89.995240
_cell_angle_beta	89.994527
_cell_angle_gamma	83.377177
loop_
_atom_site_label
_atom_site_type_symbol
_atom_site_fract_x
_atom_site_fract_y
_atom_site_fract_z
O1	O	0.090515	1.186466	-0.062509
O2	O	0.590515	1.686466	0.437491
O3	O	0.101355	0.926008	-0.062529
O4	O	0.601355	1.426008	0.437471
O5	O	-0.005171	1.063759	-0.062512
O6	O	0.494829	1.563759	0.437488
O7	O	0.197040	1.048716	-0.062525
O8	O	0.697040	1.548716	0.437475
O9	O	-0.005173	1.063733	0.062676
O10	O	0.494827	1.563733	0.562676
O11	O	0.101352	0.925982	0.062659
O12	O	0.601352	1.425982	0.562659
O13	O	0.090512	1.186441	0.062680
O14	O	0.590512	1.686441	0.562680
Cu15	Cu	0.095932	1.056209	0.074100
Cu16	Cu	0.595932	1.556209	0.574100
Cu17	Cu	0.095935	1.056239	-0.073950
Cu18	Cu	0.595935	1.556239	0.426050
O19	O	0.197038	1.048690	0.062663
O20	O	0.697038	1.548690	0.562663
C21	C	0.100869	0.892673	0.000063
C22	C	0.600869	1.392673	0.500063
C23	C	0.099416	0.793384	0.000055
C24	C	0.599416	1.293384	0.500055
C25	C	-0.031050	1.063260	0.000082
C26	C	0.468950	1.563260	0.500082
C27	C	-0.108158	1.061803	0.000081
C28	C	0.391842	1.561803	0.500081
C29	C	0.161996	0.735823	0.000052
C30	C	0.661996	1.235823	0.500052
C31	C	0.160627	0.642531	0.000063
C32	C	0.660627	1.142531	0.500063
C33	C	0.096677	0.606801	0.000072
C34	C	0.596677	1.106801	0.500072
C35	C	0.034091	0.664370	0.000077
C36	C	0.534091	1.164370	0.500077
C37	C	0.035461	0.757660	0.000071
C38	C	0.535461	1.257660	0.500071
C39	C	0.031241	0.469922	0.000088
C40	C	0.531241	0.969922	0.500088
C41	C	0.029871	0.376626	0.000092
C42	C	0.529871	0.876626	0.500092
C43	C	0.156407	0.354793	0.000080
C44	C	0.656407	0.854793	0.500080
C45	C	0.157777	0.448084	0.000074
C46	C	0.657777	0.948084	0.500074
C47	C	0.095191	0.505645	0.000078
C48	C	0.595191	1.005645	0.500078
C49	C	-0.663762	1.051325	0.068302
C50	C	-0.163762	1.551325	0.568302
C51	C	-0.591310	1.052685	0.068307
C52	C	-0.091310	1.552685	0.568307
C53	C	-0.555076	1.053383	0.000067
C54	C	-0.055076	1.553383	0.500067
C55	C	-0.591297	1.052698	-0.068181
C56	C	-0.091297	1.552698	0.431819
C57	C	-0.663746	1.051329	-0.068184
C58	C	-0.163746	1.551329	0.431816
C59	C	-0.445565	1.107949	-0.052207
C60	C	0.054435	1.607949	0.447793
C61	C	-0.373117	1.109323	-0.052202
C62	C	0.126883	1.609323	0.447798
C63	C	-0.331616	1.057600	0.000071
C64	C	0.168384	1.557600	0.500071
C65	C	-0.362572	1.004514	0.052352
C66	C	0.137428	1.504514	0.552352
C67	C	-0.435022	1.003146	0.052350
C68	C	0.064978	1.503146	0.552350
C69	C	-0.476516	1.054866	0.000062
C70	C	0.023484	1.554866	0.500062
C71	C	-0.216842	1.059753	0.068320
C72	C	0.283158	1.559753	0.568320
C73	C	-0.144388	1.061107	0.068321
C74	C	0.355612	1.561107	0.568321
C75	C	-0.144376	1.061129	-0.068169
C76	C	0.355624	1.561129	0.431831
C77	C	-0.216828	1.059766	-0.068168
C78	C	0.283172	1.559766	0.431832
C79	C	-0.253057	1.059082	0.000079
C80	C	0.246943	1.559082	0.500079
C81	C	0.222917	1.049188	0.000067
C82	C	0.722917	1.549188	0.500067
C83	C	0.300025	1.050646	0.000063
C84	C	0.800025	1.550646	0.500063
C85	C	0.090998	1.219776	0.000087
C86	C	0.590998	1.719776	0.500087
C87	C	0.092451	1.319065	0.000089
C88	C	0.592451	1.819065	0.500089
N89	N	0.095929	1.056195	0.178231
N90	N	0.595929	1.556195	0.678231
C91	C	0.138130	1.110265	0.217613
C92	C	0.638130	1.610265	0.717613
C93	C	0.138128	1.110278	0.296415
C94	C	0.638128	1.610278	0.796415
C95	C	0.095934	1.056205	0.335831
C96	C	0.595934	1.556205	0.835831
C97	C	0.053726	1.002131	0.296439
C98	C	0.553726	1.502131	0.796439
C99	C	0.053723	1.002126	0.217639
C100	C	0.553723	1.502126	0.717639
C101	C	0.093915	0.975576	0.460684
C102	C	0.593915	1.475576	0.960684
C103	C	0.093923	0.975579	0.539483
C104	C	0.593923	1.475579	1.039483
C105	C	0.095938	1.056222	0.578878
C106	C	0.595938	1.556222	1.078878
C107	C	0.097960	1.136863	0.539463
C108	C	0.597960	1.636863	1.039463
C109	C	0.097958	1.136857	0.460663
C110	C	0.597958	1.636857	0.960663
C111	C	0.095932	1.056205	0.421277
C112	C	0.595932	1.556205	0.921277
C113	C	0.138138	1.110311	0.703706
C114	C	0.638138	1.610311	1.203706
C115	C	0.138132	1.110327	0.782509
C116	C	0.638132	1.610327	1.282509
C117	C	0.053734	1.002171	0.782532
C118	C	0.553734	1.502171	1.282532
C119	C	0.053736	1.002164	0.703730
C120	C	0.553736	1.502164	1.203730
C121	C	0.095942	1.056233	0.664322
C122	C	0.595942	1.556233	1.164322
N123	N	0.095937	1.056254	0.821920
N124	N	0.595937	1.556254	1.321920
H125	H	0.211587	0.595668	0.000060
H126	H	0.711587	1.095668	0.500060
H127	H	-0.015498	0.804526	0.000073
H128	H	0.484502	1.304526	0.500073
H129	H	0.019358	0.958094	0.185575
H130	H	0.519358	1.458094	0.685575
C131	C	-0.256665	1.059029	-0.143232
C132	C	0.243335	1.559029	0.356768
H133	H	-0.224711	1.059646	-0.183874
H134	H	0.275289	1.559646	0.316126
H135	H	-0.279676	1.006349	-0.146074
H136	H	0.220324	1.506349	0.353926
H137	H	-0.290179	1.110652	-0.146066
H138	H	0.209821	1.610652	0.353934
C139	C	-0.339069	1.167720	-0.109701
C140	C	0.160931	1.667720	0.390299
H141	H	-0.289978	1.161139	-0.102206
H142	H	0.210022	1.661139	0.397794
H143	H	-0.349078	1.149084	-0.159244
H144	H	0.150922	1.649084	0.340756
H145	H	-0.357140	1.228975	-0.103112
H146	H	0.142860	1.728975	0.396888
H147	H	-0.246340	1.059188	0.123890
H148	H	0.253660	1.559188	0.623890
H149	H	-0.561818	1.053222	0.123877
H150	H	-0.061818	1.553222	0.623877
H151	H	0.172505	1.154338	0.671618
H152	H	0.672505	1.654338	1.171618
C153	C	-0.037602	0.533238	0.000083
C154	C	0.462398	1.033238	0.500083
H155	H	-0.075885	0.498600	0.000079
H156	H	0.424115	0.998600	0.500079
H157	H	-0.039705	0.570091	0.043733
H158	H	0.460295	1.070091	0.543733
H159	H	-0.039690	0.570078	-0.043584
H160	H	0.460310	1.070078	0.456416
C161	C	-0.469071	0.944747	0.109846
C162	C	0.030929	1.444747	0.609846
H163	H	-0.433982	0.914130	0.140977
H164	H	0.066018	1.414130	0.640977
H165	H	-0.501144	0.981974	0.140081
H166	H	-0.001144	1.481974	0.640081
H167	H	-0.493084	0.902088	0.083945
H168	H	0.006916	1.402088	0.583945
H169	H	-0.022203	0.347538	0.000101
H170	H	0.477797	0.847538	0.500101
H171	H	-0.328783	0.962399	0.094920
H172	H	0.171217	1.462399	0.594920
C173	C	0.184545	1.169746	0.174264
C174	C	0.684545	1.669746	0.674264
H175	H	0.178504	1.161997	0.121692
H176	H	0.678504	1.661997	0.621692
H177	H	0.171720	1.230994	0.187176
H178	H	0.671720	1.730994	0.687176
H179	H	0.232053	1.152930	0.187172
H180	H	0.732053	1.652930	0.687172
H181	H	-0.561789	1.053263	-0.123742
H182	H	-0.061789	1.553263	0.376258
C183	C	-0.104553	1.061856	0.143389
C184	C	0.395447	1.561856	0.643389
H185	H	-0.136510	1.061262	0.184030
H186	H	0.363490	1.561262	0.684030
H187	H	-0.071039	1.010241	0.146231
H188	H	0.428961	1.510241	0.646231
H189	H	-0.081544	1.114544	0.146223
H190	H	0.418456	1.614544	0.646223
C191	C	-0.104527	1.061901	-0.143231
C192	C	0.395473	1.561901	0.356769
H193	H	-0.056192	1.062820	-0.133457
H194	H	0.443808	1.562820	0.366543
H195	H	-0.111145	1.009536	-0.171277
H196	H	0.388855	1.509536	0.328723
H197	H	-0.121652	1.113839	-0.171263
H198	H	0.378348	1.613839	0.328737
H199	H	-0.479350	1.150064	-0.094783
H200	H	0.020650	1.650064	0.405217
H201	H	0.099604	1.202529	0.571537
H202	H	0.599604	1.702529	1.071537
H203	H	-0.693255	1.050767	0.123874
H204	H	-0.193255	1.550767	0.623874
C205	C	-0.703584	1.050597	-0.143250
C206	C	-0.203584	1.550597	0.356750
H207	H	-0.671630	1.051213	-0.183893
H208	H	-0.171630	1.551213	0.316107
H209	H	-0.726600	0.997921	-0.146095
H210	H	-0.226600	1.497921	0.353905
H211	H	-0.737094	1.102224	-0.146080
H212	H	-0.237094	1.602224	0.353920
H213	H	0.092280	0.909916	0.571568
H214	H	0.592280	1.409916	1.071568
C215	C	0.184557	1.169749	0.339745
C216	C	0.684557	1.669749	0.839745
H217	H	0.209696	1.201944	0.304988
H218	H	0.709696	1.701944	0.804988
H219	H	0.156154	1.211031	0.370489
H220	H	0.656154	1.711031	0.870489
H221	H	0.216476	1.132952	0.370479
H222	H	0.716476	1.632952	0.870479
H223	H	0.099603	1.202518	0.428575
H224	H	0.599603	1.702518	0.928575
C225	C	0.184555	1.169803	0.825833
C226	C	0.684555	1.669803	1.325833
H227	H	0.178508	1.162071	0.878409
H228	H	0.678508	1.662071	1.378409
H229	H	0.232057	1.152983	0.812916
H230	H	0.732057	1.652983	1.312916
H231	H	0.171730	1.231056	0.812913
H232	H	0.671730	1.731056	1.312913
C233	C	0.228120	0.487385	0.000066
C234	C	0.728120	0.987385	0.500066
H235	H	0.265198	0.439744	0.000072
H236	H	0.765198	0.939744	0.500072
H237	H	0.231285	0.523327	-0.043591
H238	H	0.731285	1.023327	0.456409
H239	H	0.231279	0.523321	0.043726
H240	H	0.731279	1.023321	0.543726
C241	C	0.007322	0.942691	0.825881
C242	C	0.507322	1.442691	1.325881
H243	H	0.013369	0.950433	0.878453
H244	H	0.513369	1.450433	1.378453
H245	H	-0.040182	0.959498	0.812971
H246	H	0.459818	1.459498	1.312971
H247	H	0.020155	0.881438	0.812973
H248	H	0.520155	1.381438	1.312973
H249	H	0.019375	0.958130	0.671665
H250	H	0.519375	1.458130	1.171665
C251	C	0.225250	0.291480	0.000078
C252	C	0.725250	0.791480	0.500078
H253	H	0.215277	0.230802	0.000091
H254	H	0.715277	0.730802	0.500091
H255	H	0.251467	0.302282	-0.043584
H256	H	0.751467	0.802282	0.456416
H257	H	0.251470	0.302284	0.043734
H258	H	0.751470	0.802284	0.543734
H259	H	0.092279	0.909901	0.428616
H260	H	0.592279	1.409901	0.928616
H261	H	0.214072	0.764906	0.000044
H262	H	0.714072	1.264906	0.500044
H263	H	0.019371	0.958105	0.328537
H264	H	0.519371	1.458105	0.828537
H265	H	-0.017978	0.635271	0.000095
H266	H	0.482022	1.135271	0.500095
