data_functionalizedCrystal
_audit_creation_method	'MofGen! by Chris Wilmer'
_symmetry_space_group_name_H-M	'P1'
_symmetry_Int_Tables_number	1
_symmetry_cell_setting	triclinic
loop_
_symmetry_equiv_pos_as_xyz
  x,y,z
_cell_length_a	12.827892
_cell_length_b	12.827893
_cell_length_c	12.827885
_cell_angle_alpha	89.978811
_cell_angle_beta	90.029976
_cell_angle_gamma	89.986399
loop_
_atom_site_label
_atom_site_type_symbol
_atom_site_fract_x
_atom_site_fract_y
_atom_site_fract_z
Zn1	Zn	-0.416032	-1.597670	0.590901
Zn2	Zn	-0.590810	-1.597564	0.416160
Zn3	Zn	-0.416078	-1.422911	0.416169
Zn4	Zn	-0.590727	-1.422896	0.590855
O5	O	-0.503412	-1.510260	0.503521
O6	O	-0.439233	-1.743892	0.567737
O7	O	-0.567685	-1.574358	0.269925
O8	O	-0.269836	-1.446144	0.439370
O9	O	-0.567641	-1.743814	0.439356
O10	O	-0.269802	-1.574538	0.567745
O11	O	-0.439310	-1.446041	0.269931
O12	O	-0.439230	-1.276673	0.439325
O13	O	-0.567499	-1.446118	0.737097
O14	O	-0.567543	-1.276662	0.567666
O15	O	-0.439152	-1.574524	0.737131
O16	O	-0.737035	-1.574343	0.439311
O17	O	-0.736974	-1.446016	0.567658
C18	C	-0.503383	-1.238750	0.503492
C19	C	-0.503396	-1.122597	0.503504
C20	C	-0.774922	-1.510195	0.503502
C21	C	-0.891075	-1.510262	0.503528
C22	C	-0.439967	-1.070851	0.567129
C23	C	-0.439979	-0.950800	0.567143
C24	C	-0.942759	-1.573768	0.567109
C25	C	-1.062810	-1.573839	0.567139
C26	C	-0.230841	-1.510354	0.503563
C27	C	-0.114688	-1.510394	0.503581
C28	C	-0.503311	-1.510331	0.776091
C29	C	-0.503269	-1.510362	0.892245
C30	C	-0.503432	-0.782830	0.503542
C31	C	-0.503419	-0.898983	0.503530
C32	C	-0.503436	-1.510249	0.232011
C33	C	-0.503185	-1.510422	0.115859
C34	C	-0.439746	-1.573907	0.944046
C35	C	-0.439700	-1.573940	1.064097
H36	H	-0.385650	-1.115425	0.621585
H37	H	-0.557707	-1.078022	0.449042
C38	C	-0.576792	-0.959080	0.429941
H39	H	-0.616601	-0.910997	0.390039
H40	H	-0.536726	-1.001648	0.384510
H41	H	-0.622333	-1.001667	0.469883
H42	H	-1.070248	-1.456026	0.449140
C43	C	-0.951347	-1.436878	0.430019
H44	H	-0.903353	-1.397021	0.390131
H45	H	-0.993932	-1.476939	0.384574
H46	H	-0.993929	-1.391383	0.470010
H47	H	-1.107258	-1.628212	0.621569
C48	C	-0.576676	-1.436934	1.055698
H49	H	-0.616508	-1.397097	1.103747
H50	H	-0.536689	-1.391439	1.013110
H51	H	-0.622190	-1.476941	1.013128
H52	H	-0.898134	-1.628081	0.621527
H53	H	-0.385392	-1.628283	0.899519
C54	C	-0.366233	-1.647442	1.124269
H55	H	-0.375837	-1.637819	1.197062
H56	H	-0.381526	-1.717661	1.106434
H57	H	-0.296003	-1.632179	1.106445
H58	H	-0.557612	-1.455975	0.936772
H59	H	-0.385678	-0.906300	0.621617
