data_functionalizedCrystal
_audit_creation_method	'MofGen! by Chris Wilmer'
_symmetry_space_group_name_H-M	'P1'
_symmetry_Int_Tables_number	1
_symmetry_cell_setting	triclinic
loop_
_symmetry_equiv_pos_as_xyz
  x,y,z
_cell_length_a	7.088928
_cell_length_b	14.044191
_cell_length_c	8.559649
_cell_angle_alpha	81.485220
_cell_angle_beta	84.684688
_cell_angle_gamma	96.794043
loop_
_atom_site_label
_atom_site_type_symbol
_atom_site_fract_x
_atom_site_fract_y
_atom_site_fract_z
O1	O	0.158878	1.240772	0.366492
O2	O	0.658878	1.740772	0.866492
O3	O	0.158903	0.965807	0.352720
O4	O	0.658903	1.465807	0.852720
O5	O	0.158887	1.127514	0.130458
O6	O	0.658887	1.627514	0.630458
O7	O	0.158895	1.079065	0.588754
O8	O	0.658895	1.579065	1.088754
O9	O	-0.159086	1.105843	0.160120
O10	O	0.340914	1.605843	0.660120
O11	O	-0.159070	0.944136	0.382382
O12	O	0.340930	1.444136	0.882382
O13	O	-0.159094	1.219101	0.396154
O14	O	0.340906	1.719101	0.896154
Cu15	Cu	-0.188116	1.079640	0.391976
Cu16	Cu	0.311884	1.579640	0.891976
Cu17	Cu	0.187924	1.105268	0.356898
Cu18	Cu	0.687924	1.605268	0.856898
O19	O	-0.159078	1.057394	0.618415
O20	O	0.340922	1.557394	1.118415
C21	C	-0.000080	0.920096	0.361527
C22	C	0.499920	1.420096	0.861527
C23	C	-0.000070	0.816178	0.343558
C24	C	0.499930	1.316178	0.843558
N25	N	-0.452602	1.061621	0.416648
N26	N	0.047398	1.561621	0.916648
N27	N	0.452410	1.123296	0.332215
N28	N	0.952410	1.623296	0.832215
C29	C	-0.000088	0.559005	0.438144
C30	C	0.499912	1.059005	0.938144
C31	C	-0.000087	0.625909	0.310735
C32	C	0.499913	1.125909	0.810735
C33	C	-0.000078	0.731784	0.329002
C34	C	0.499922	1.231784	0.829002
C35	C	-0.000097	0.453120	0.419880
C36	C	0.499903	0.953120	0.919880
C37	C	-0.000097	1.120351	0.086282
C38	C	0.499903	1.620351	0.586282
C39	C	-0.000087	1.131280	-0.089540
C40	C	0.499913	1.631280	0.410460
C41	C	-0.000107	1.264813	0.387347
C42	C	0.499893	1.764813	0.887347
C43	C	-0.000104	1.368731	0.405314
C44	C	0.499896	1.868731	0.905314
C45	C	-0.000090	1.064558	0.662591
C46	C	0.499910	1.564558	1.162591
C47	C	-0.000088	1.053629	0.838413
C48	C	0.499912	1.553629	1.338413
H49	H	0.000046	0.603682	0.187925
H50	H	0.500046	1.103682	0.687925
H51	H	0.465759	0.997708	0.504154
H52	H	0.965759	1.497708	1.004154
H53	H	-0.000080	0.581241	0.560931
H54	H	0.499920	1.081241	1.060931
H55	H	0.534060	1.187207	0.244690
H56	H	1.034060	1.687207	0.744690
H57	H	-0.000087	0.978787	-0.088761
H58	H	0.499913	1.478787	0.411239
H59	H	-0.000109	1.206126	-0.162373
H60	H	0.499891	1.706126	0.337627
