data_functionalizedCrystal
_audit_creation_method	'MofGen! by Chris Wilmer'
_symmetry_space_group_name_H-M	'P1'
_symmetry_Int_Tables_number	1
_symmetry_cell_setting	triclinic
loop_
_symmetry_equiv_pos_as_xyz
  x,y,z
_cell_length_a	25.639239
_cell_length_b	12.827893
_cell_length_c	12.827885
_cell_angle_alpha	89.980728
_cell_angle_beta	90.035982
_cell_angle_gamma	89.961343
loop_
_atom_site_label
_atom_site_type_symbol
_atom_site_fract_x
_atom_site_fract_y
_atom_site_fract_z
Zn1	Zn	-0.208126	-1.597500	0.590804
Zn2	Zn	-0.295571	-1.597324	0.416045
Zn3	Zn	-0.208151	-1.422742	0.416077
Zn4	Zn	-0.295532	-1.422656	0.590745
O5	O	-0.251845	-1.510055	0.503418
O6	O	-0.219731	-1.743713	0.567633
O7	O	-0.284002	-1.574127	0.269813
O8	O	-0.134983	-1.446034	0.439293
O9	O	-0.283977	-1.743583	0.439238
O10	O	-0.134964	-1.574428	0.567664
O11	O	-0.219775	-1.445862	0.269837
O12	O	-0.219737	-1.276494	0.439236
O13	O	-0.283911	-1.445888	0.736989
O14	O	-0.283935	-1.276431	0.567564
O15	O	-0.219694	-1.574345	0.737032
O16	O	-0.368731	-1.574044	0.439181
O17	O	-0.368702	-1.445716	0.567533
C18	C	-0.387688	-1.509880	0.503370
C19	C	-0.445802	-1.509900	0.503384
C20	C	-0.251835	-1.238546	0.503398
C21	C	-0.251843	-1.122392	0.503414
C22	C	-0.251795	-1.510127	0.775988
C23	C	-0.251773	-1.510157	0.892141
C24	C	-0.806167	-1.577050	0.436699
C25	C	-0.860771	-1.577090	0.436713
O26	O	-0.889010	-1.634001	0.379962
N27	N	-0.888084	-1.510239	0.503487
C28	C	-0.860790	-1.443350	0.570259
O29	O	-0.889035	-1.386493	0.627057
C30	C	-0.806186	-1.443316	0.570249
C31	C	-0.778876	-1.510164	0.503463
C32	C	-0.778857	-1.643893	0.369920
C33	C	-0.724256	-1.643851	0.369904
C34	C	-0.696966	-1.576966	0.436669
C35	C	-0.724276	-1.510122	0.503448
C36	C	-0.778893	-1.376433	0.637026
C37	C	-0.724286	-1.376405	0.637011
C38	C	-0.696976	-1.443253	0.570225
C39	C	-0.642385	-1.443194	0.570198
N40	N	-0.615072	-1.510045	0.503424
C41	C	-0.642363	-1.576931	0.436659
C42	C	-0.975460	-1.443429	0.570275
C43	C	-1.030063	-1.443458	0.570280
C44	C	-1.030040	-1.577199	0.436735
C45	C	-0.975437	-1.577165	0.436726
C46	C	-0.948148	-1.510281	0.503501
C47	C	-0.527698	-1.576837	0.436632
C48	C	-0.473092	-1.576786	0.436620
C49	C	-0.473119	-1.443049	0.570168
C50	C	-0.527720	-1.443095	0.570177
C51	C	-0.555008	-1.509998	0.503405
O52	O	-0.614112	-1.386315	0.626923
O53	O	-0.614110	-1.633789	0.379880
C54	C	-0.115472	-1.510260	0.503489
C55	C	-0.057358	-1.510348	0.503519
C56	C	-0.251856	-1.782626	0.503438
C57	C	-0.251860	-1.898779	0.503447
C58	C	-0.283660	-1.070604	0.566817
C59	C	-0.283670	-0.950554	0.566835
C60	C	-0.251857	-1.510045	0.231908
C61	C	-0.251731	-1.510217	0.115755
C62	C	-0.219991	-1.573729	0.943947
C63	C	-0.219968	-1.573761	1.063998
H64	H	-0.450858	-1.631221	0.382231
C65	C	-0.288513	-1.436659	0.952278
C66	C	-0.347960	-1.445079	0.937344
C67	C	-0.384701	-1.371578	0.997478
C68	C	-0.361994	-1.289657	1.072546
C69	C	-0.302543	-1.281233	1.087484
C70	C	-0.265803	-1.354734	1.027350
H71	H	-0.364772	-1.505725	0.881771
H72	H	-0.428710	-1.377814	0.986420
H73	H	-0.389191	-1.235247	1.117061
H74	H	-0.285731	-1.220587	1.143057
H75	H	-0.221793	-1.348498	1.038408
C76	C	-0.183206	-1.647293	1.124175
C77	C	-0.187473	-1.766094	1.109275
C78	C	-0.150709	-1.839628	1.169454
C79	C	-0.109679	-1.794361	1.244533
C80	C	-0.105410	-1.675553	1.259437
C81	C	-0.142173	-1.602019	1.199257
H82	H	-0.217847	-1.799609	1.053694
H83	H	-0.153869	-1.927578	1.158421
H84	H	-0.082464	-1.848795	1.289082
H85	H	-0.075035	-1.642038	1.315018
H86	H	-0.139013	-1.514070	1.210290
C87	C	-0.320471	-0.890397	0.640171
C88	C	-0.357317	-0.950284	0.713596
C89	C	-0.394120	-0.890125	0.786934
C90	C	-0.394077	-0.770080	0.786848
C91	C	-0.357230	-0.710186	0.713420
C92	C	-0.320427	-0.770345	0.640082
H93	H	-0.357350	-1.039155	0.713662
H94	H	-0.421397	-0.934463	0.841290
H95	H	-0.421321	-0.725547	0.841137
H96	H	-0.357196	-0.621315	0.713354
H97	H	-0.293150	-0.726007	0.585726
H98	H	-0.549909	-1.631318	0.382263
C99	C	-0.183253	-1.647228	0.883808
C100	C	-0.142252	-1.601921	0.808761
C101	C	-0.105513	-1.675423	0.748624
C102	C	-0.109776	-1.794233	0.763534
C103	C	-0.150779	-1.839546	0.838584
C104	C	-0.187517	-1.766044	0.898721
H105	H	-0.139095	-1.513965	0.797721
H106	H	-0.075160	-1.641879	0.693067
H107	H	-0.082580	-1.848644	0.719017
H108	H	-0.153936	-1.927502	0.849624
H109	H	-0.217870	-1.799588	0.954278
C110	C	-0.215057	-0.958928	0.430108
C111	C	-0.174063	-1.034055	0.475595
C112	C	-0.137260	-1.094213	0.402256
C113	C	-0.141451	-1.079245	0.283431
C114	C	-0.182446	-1.004115	0.237939
C115	C	-0.219249	-0.943957	0.311277
H116	H	-0.170960	-1.045138	0.563562
H117	H	-0.106913	-1.149830	0.435933
H118	H	-0.114207	-1.123778	0.229141
H119	H	-0.185550	-0.993032	0.149972
H120	H	-0.249597	-0.888341	0.277600
H121	H	-0.549957	-1.388665	0.624562
H122	H	-0.702024	-1.698288	0.315525
C123	C	-0.808870	-1.717474	0.296468
C124	C	-0.801398	-1.708995	0.177664
C125	C	-0.831406	-1.782575	0.104200
C126	C	-0.868885	-1.864634	0.149540
C127	C	-0.876358	-1.873117	0.268350
C128	C	-0.846350	-1.799537	0.341813
H129	H	-0.773652	-1.648247	0.144095
H130	H	-0.825873	-1.776295	0.016249
H131	H	-0.891098	-1.919103	0.095157
H132	H	-0.904104	-1.933865	0.301918
H133	H	-0.851883	-1.805816	0.429765
H134	H	-0.953205	-1.631599	0.382344
H135	H	-1.052270	-1.631665	0.382375
C136	C	-1.060100	-1.369915	0.643737
C137	C	-1.030074	-1.296346	0.717173
C138	C	-1.060109	-1.222806	0.790638
C139	C	-1.120170	-1.222836	0.790668
C140	C	-1.150200	-1.296408	0.717230
C141	C	-1.120165	-1.369947	0.643764
H142	H	-0.985609	-1.296322	0.717153
H143	H	-1.037878	-1.168343	0.845002
H144	H	-1.142404	-1.168397	0.845051
H145	H	-1.194664	-1.296432	0.717249
H146	H	-1.142395	-1.424410	0.589401
H147	H	-0.224608	-1.077854	0.449151
H148	H	-0.278945	-1.455792	1.071210
H149	H	-0.953244	-1.388955	0.624648
C150	C	-0.694268	-1.302826	0.710463
C151	C	-0.656790	-1.220776	0.665105
C152	C	-0.626772	-1.147196	0.738553
C153	C	-0.634233	-1.155667	0.857360
C154	C	-0.671713	-1.237721	0.902725
C155	C	-0.701730	-1.311301	0.829276
H156	H	-0.651265	-1.214502	0.577151
H157	H	-0.599027	-1.086454	0.704971
H158	H	-0.612013	-1.101199	0.911731
H159	H	-0.677237	-1.243995	0.990678
H160	H	-0.729475	-1.372042	0.862859
H161	H	-0.801120	-1.321993	0.691405
C162	C	-0.443091	-1.369478	0.643605
C163	C	-0.450655	-1.250687	0.634982
C164	C	-0.420625	-1.177121	0.708424
C165	C	-0.383031	-1.222347	0.790488
C166	C	-0.375466	-1.341144	0.799114
C167	C	-0.405496	-1.414710	0.725673
H168	H	-0.478485	-1.217203	0.574230
H169	H	-0.426225	-1.089179	0.702038
H170	H	-0.360801	-1.167889	0.844854
H171	H	-0.347635	-1.374628	0.859867
H172	H	-0.399896	-1.502651	0.732059
H173	H	-0.310891	-1.115143	0.621088
