data_functionalizedCrystal
_audit_creation_method	'MofGen! by Chris Wilmer'
_symmetry_space_group_name_H-M	'P1'
_symmetry_Int_Tables_number	1
_symmetry_cell_setting	triclinic
loop_
_symmetry_equiv_pos_as_xyz
  x,y,z
_cell_length_a	11.169417
_cell_length_b	29.839131
_cell_length_c	11.169409
_cell_angle_alpha	89.959939
_cell_angle_beta	89.979436
_cell_angle_gamma	90.042299
loop_
_atom_site_label
_atom_site_type_symbol
_atom_site_fract_x
_atom_site_fract_y
_atom_site_fract_z
Zn1	Zn	1.834712	-0.178807	-0.678478
Zn2	Zn	1.834490	-0.253948	-0.477767
Zn3	Zn	1.633995	-0.178834	-0.477812
Zn4	Zn	1.633896	-0.253912	-0.678412
O5	O	1.734273	-0.216375	-0.578117
O6	O	2.002632	-0.188778	-0.651862
O7	O	1.807842	-0.244011	-0.309823
O8	O	1.660755	-0.115963	-0.504477
O9	O	2.002469	-0.243984	-0.504401
O10	O	1.808221	-0.115943	-0.651905
O11	O	1.660540	-0.188825	-0.309856
O12	O	1.466032	-0.188789	-0.504413
O13	O	1.660587	-0.243922	-0.846371
O14	O	1.465960	-0.243949	-0.651794
O15	O	1.808125	-0.188743	-0.846419
O16	O	1.807746	-0.316810	-0.504337
O17	O	1.660371	-0.316784	-0.651750
C18	C	1.422449	-0.216368	-0.578102
C19	C	1.289049	-0.216376	-0.578124
C20	C	1.734057	-0.333098	-0.578058
C21	C	1.734074	-0.383032	-0.578073
C22	C	1.811151	-0.692677	-0.501472
C23	C	1.811299	-0.880350	-0.501518
O24	O	1.876661	-0.904616	-0.436344
N25	N	1.734522	-0.903817	-0.578208
C26	C	1.657708	-0.880363	-0.654897
O27	O	1.592417	-0.904630	-0.720136
C28	C	1.657567	-0.692691	-0.654856
C29	C	1.734340	-0.669226	-0.578152
C30	C	1.887919	-0.669212	-0.424776
C31	C	1.887877	-0.622296	-0.424760
C32	C	1.811066	-0.598846	-0.501441
C33	C	1.734298	-0.622311	-0.578137
C34	C	1.580760	-0.669238	-0.731550
C35	C	1.580734	-0.622317	-0.731535
C36	C	1.657507	-0.598852	-0.654831
C37	C	1.657445	-0.551945	-0.654802
N38	N	1.734222	-0.528478	-0.578112
C39	C	1.811033	-0.551928	-0.501432
C40	C	1.657786	-0.978894	-0.654912
C41	C	1.657820	-1.025812	-0.654921
C42	C	1.811413	-1.025795	-0.501543
C43	C	1.811372	-0.978876	-0.501529
C44	C	1.734563	-0.955427	-0.578222
C45	C	1.810937	-0.453402	-0.501404
C46	C	1.810884	-0.406483	-0.501392
C47	C	1.657296	-0.406503	-0.654773
C48	C	1.657344	-0.453419	-0.654782
C49	C	1.734174	-0.476867	-0.578093
O50	O	1.592127	-0.527650	-0.719952
O51	O	1.876333	-0.527653	-0.436221
C52	C	1.811194	-0.739592	-0.501487
C53	C	1.734425	-0.763057	-0.578183
C54	C	1.657615	-0.739607	-0.654864
C55	C	1.734459	-0.809975	-0.578192
C56	C	1.811270	-0.833425	-0.501512
C57	C	1.888047	-0.809958	-0.424822
C58	C	1.888004	-0.763043	-0.424807
C59	C	1.580838	-0.763074	-0.731553
C60	C	1.580885	-0.809989	-0.731562
C61	C	1.657696	-0.833440	-0.654881
C62	C	2.047316	-0.216382	-0.578134
C63	C	2.180716	-0.216385	-0.578140
C64	C	1.734370	-0.216325	-0.891160
C65	C	1.734411	-0.216304	-1.024560
C66	C	1.734524	-0.099197	-0.578203
C67	C	1.734630	-0.049262	-0.578240
C68	C	1.734247	-0.216392	-0.266293
C69	C	1.734438	-0.216287	-0.132893
H70	H	1.873402	-0.387379	-0.438927
H71	H	1.950396	-0.603194	-0.362305
H72	H	1.518188	-0.603227	-0.793991
O73	O	1.962843	-0.832687	-0.350395
C74	C	2.167055	-0.846993	-0.292402
C75	C	2.082475	-0.821218	-0.376733
H76	H	2.263795	-0.837737	-0.313682
H77	H	2.146133	-0.837799	-0.195581
H78	H	2.153844	-0.884556	-0.305564
H79	H	2.095638	-0.783649	-0.363677
H80	H	2.103417	-0.830449	-0.473522
H81	H	1.518291	-0.743984	-0.793998
O82	O	1.885739	-0.476122	-0.426965
C83	C	2.089946	-0.490411	-0.368924
C84	C	2.005371	-0.464648	-0.453288
H85	H	2.186687	-0.481151	-0.390192
H86	H	2.069002	-0.481209	-0.272113
H87	H	2.076752	-0.527975	-0.382065
H88	H	2.018517	-0.427078	-0.440254
H89	H	2.026335	-0.473887	-0.550067
O90	O	1.506262	-0.832711	-0.806189
C91	C	1.353883	-0.827763	-0.958283
C92	C	1.438338	-0.801977	-0.873842
H93	H	1.298927	-0.802926	-1.012984
H94	H	1.408919	-0.849672	-1.021176
H95	H	1.291218	-0.849785	-0.903129
H96	H	1.501020	-0.779931	-0.928899
H97	H	1.383228	-0.780096	-0.810946
H98	H	1.950474	-0.688300	-0.362333
H99	H	1.518237	-0.688335	-0.794004
H100	H	1.873888	-0.959774	-0.439071
H101	H	1.873955	-1.044896	-0.439107
O102	O	1.582726	-0.476146	-0.729398
C103	C	1.430341	-0.471205	-0.881486
C104	C	1.514791	-0.445416	-0.797051
H105	H	1.375375	-0.446371	-0.936187
H106	H	1.485380	-0.493113	-0.944380
H107	H	1.367684	-0.493229	-0.826329
H108	H	1.577465	-0.423367	-0.852111
H109	H	1.459677	-0.423536	-0.734153
H110	H	1.595292	-1.044913	-0.717369
H111	H	1.595236	-0.959804	-0.717366
H112	H	1.594754	-0.387403	-0.717202
H113	H	1.950520	-0.743941	-0.362348
