data_functionalizedCrystal
_audit_creation_method	'MofGen! by Chris Wilmer'
_symmetry_space_group_name_H-M	'P1'
_symmetry_Int_Tables_number	1
_symmetry_cell_setting	triclinic
loop_
_symmetry_equiv_pos_as_xyz
  x,y,z
_cell_length_a	15.297327
_cell_length_b	19.805407
_cell_length_c	19.805399
_cell_angle_alpha	89.984884
_cell_angle_beta	99.647572
_cell_angle_gamma	99.704146
loop_
_atom_site_label
_atom_site_type_symbol
_atom_site_fract_x
_atom_site_fract_y
_atom_site_fract_z
Zn1	Zn	-0.359237	0.988071	-0.429312
Zn2	Zn	-0.510108	0.968401	-0.335705
Zn3	Zn	-0.359258	0.874889	-0.316143
Zn4	Zn	-0.510049	0.855267	-0.448847
O5	O	-0.434663	0.921657	-0.382502
O6	O	-0.379266	1.080177	-0.416906
O7	O	-0.490131	0.955976	-0.238397
O8	O	-0.233009	0.906346	-0.314792
O9	O	-0.490110	1.065725	-0.348133
O10	O	-0.232993	0.989501	-0.397937
O11	O	-0.379303	0.887273	-0.224025
O12	O	-0.379246	0.777571	-0.333735
O13	O	-0.490010	0.872904	-0.540968
O14	O	-0.490031	0.763155	-0.431233
O15	O	-0.379209	0.970475	-0.526616
O16	O	-0.636347	0.936950	-0.367076
O17	O	-0.636303	0.853831	-0.450201
C18	C	-0.434635	0.745805	-0.382482
C19	C	-0.434645	0.670571	-0.382492
C20	C	-0.377030	0.642740	-0.418381
C21	C	-0.377035	0.572051	-0.418384
C22	C	-0.434659	0.529194	-0.382502
C23	C	-0.492276	0.557030	-0.346608
C24	C	-0.492266	0.627719	-0.346601
C25	C	-0.492317	0.271952	-0.346634
C26	C	-0.492324	0.201259	-0.346646
C27	C	-0.377085	0.216284	-0.418417
C28	C	-0.377075	0.286972	-0.418410
C29	C	-0.434689	0.314803	-0.382514
C30	C	-0.434682	0.391452	-0.382510
C31	C	-0.434671	0.452545	-0.382510
C32	C	-0.669059	0.891145	-0.412896
C33	C	-0.769335	0.878154	-0.425921
C34	C	-1.051960	1.014787	-0.289638
C35	C	-0.957746	1.026992	-0.277397
C36	C	-0.910639	0.989784	-0.314527
C37	C	-0.957755	0.940367	-0.363900
C38	C	-1.051978	0.928157	-0.376139
C39	C	-0.910656	0.903154	-0.401028
C40	C	-0.957772	0.853737	-0.450401
C41	C	-1.051986	0.841530	-0.462638
C42	C	-1.099094	0.878738	-0.425508
C43	C	-0.816433	0.915365	-0.388789
C44	C	-0.816451	0.828735	-0.475290
C45	C	-0.910665	0.816529	-0.487531
C46	C	-0.199352	0.952307	-0.352004
C47	C	-0.099076	0.965368	-0.339007
C48	C	-0.434601	0.921695	-0.559036
C49	C	-0.434574	0.921711	-0.634265
C50	C	-0.434692	1.098196	-0.382522
C51	C	-0.434704	1.173426	-0.382531
C52	C	-0.376860	0.885950	-0.662124
C53	C	-0.376842	0.885962	-0.732810
C54	C	-0.434535	0.921739	-0.775635
C55	C	-0.492255	0.957500	-0.747772
C56	C	-0.492276	0.957484	-0.677088
C57	C	-0.492171	0.957565	-1.032834
C58	C	-0.492143	0.957580	-1.103523
C59	C	-0.376737	0.886042	-1.088557
C60	C	-0.376758	0.886026	-1.017873
C61	C	-0.434481	0.921785	-0.990016
C62	C	-0.434501	0.921771	-0.913370
C63	C	-0.434511	0.921757	-0.852280
C64	C	-0.434660	0.921667	-0.206645
C65	C	-0.434433	0.921815	-0.131384
H66	H	-0.330170	0.193616	-0.447643
C67	C	-0.555708	0.154118	-0.307168
H68	H	-0.590013	0.180817	-0.285782
H69	H	-0.595067	0.121432	-0.338114
H70	H	-0.521138	0.131030	-0.273241
C71	C	-0.764612	0.969715	-0.334481
H72	H	-0.701752	0.971655	-0.332502
H73	H	-0.779997	1.013194	-0.346419
H74	H	-0.780108	0.957818	-0.291008
C75	C	-0.905925	1.081350	-0.223096
H76	H	-0.947472	1.101766	-0.202740
H77	H	-0.869221	1.060234	-0.188814
H78	H	-0.869120	1.115596	-0.244238
C79	C	-1.103778	1.055711	-0.248804
H80	H	-1.166638	1.041363	-0.263168
H81	H	-1.088389	1.047831	-0.201318
H82	H	-1.088285	1.103192	-0.256744
C83	C	-0.555692	0.302557	-0.307153
H84	H	-0.590016	0.266906	-0.285791
H85	H	-0.521127	0.334616	-0.273219
H86	H	-0.595046	0.325022	-0.338098
H87	H	-0.833925	0.999724	-0.304556
H88	H	-1.090345	0.801283	-0.502833
H89	H	-0.330121	0.549394	-0.447610
H90	H	-1.175810	0.868804	-0.435474
C91	C	-0.962498	0.762170	-0.541834
H92	H	-1.025356	0.760226	-0.543799
H93	H	-0.947011	0.774051	-0.585309
H94	H	-0.947115	0.718689	-0.529885
H95	H	-0.778097	0.798435	-0.505523
C96	C	-0.555714	0.996855	-0.794877
H97	H	-0.547429	0.991750	-0.840964
H98	H	-0.616333	0.979054	-0.791149
H99	H	-0.542514	1.044051	-0.781584
C100	C	-0.313299	0.846673	-0.970766
H101	H	-0.321573	0.851789	-0.924678
H102	H	-0.326491	0.799480	-0.984056
H103	H	-0.252677	0.864480	-0.974495
H104	H	-0.539191	0.522131	-0.317389
C105	C	-0.313405	0.846589	-0.615024
H106	H	-0.279039	0.825286	-0.641743
H107	H	-0.274106	0.877587	-0.582355
H108	H	-0.347932	0.812594	-0.591925
H109	H	-0.329849	0.856839	-0.755490
C110	C	-0.555762	0.996821	-0.646442
H111	H	-0.590114	1.018135	-0.682069
H112	H	-0.595073	0.965802	-0.623960
H113	H	-0.521262	1.030804	-0.614398
H114	H	-0.539181	0.650378	-0.317376
H115	H	-0.329738	0.856924	-1.111247
H116	H	-0.539126	0.986715	-1.138390
C117	C	-0.555659	0.996899	-1.002196
H118	H	-0.547421	0.991762	-0.953967
H119	H	-0.542462	1.044098	-1.012074
H120	H	-0.616270	0.979094	-1.021639
C121	C	-0.313642	0.689876	-0.457852
H122	H	-0.279324	0.663174	-0.479221
H123	H	-0.348197	0.712967	-0.491780
H124	H	-0.274282	0.722561	-0.426898
H125	H	-0.330154	0.321863	-0.447632
