data_functionalizedCrystal
_audit_creation_method	'MofGen! by Chris Wilmer'
_symmetry_space_group_name_H-M	'P1'
_symmetry_Int_Tables_number	1
_symmetry_cell_setting	triclinic
loop_
_symmetry_equiv_pos_as_xyz
  x,y,z
_cell_length_a	14.908571
_cell_length_b	13.897448
_cell_length_c	14.908308
_cell_angle_alpha	93.269663
_cell_angle_beta	89.824947
_cell_angle_gamma	93.284087
loop_
_atom_site_label
_atom_site_type_symbol
_atom_site_fract_x
_atom_site_fract_y
_atom_site_fract_z
Zn1	Zn	1.345301	0.503381	0.587603
Zn2	Zn	1.353883	0.655952	0.437249
Zn3	Zn	1.203616	0.484854	0.428600
Zn4	Zn	1.194911	0.654806	0.578901
O5	O	1.274428	0.574749	0.508088
O6	O	1.472266	0.531854	0.574919
O7	O	1.341185	0.625982	0.310277
O8	O	1.222463	0.352335	0.449714
O9	O	1.478571	0.643947	0.464455
O10	O	1.326558	0.365947	0.566532
O11	O	1.230784	0.500277	0.303922
O12	O	1.076636	0.499165	0.441276
O13	O	1.207626	0.641994	0.705880
O14	O	1.070240	0.624029	0.551701
O15	O	1.318117	0.530742	0.712273
O16	O	1.332744	0.790777	0.456018
O17	O	1.215948	0.789936	0.560088
C18	C	1.040812	0.559463	0.494606
C19	C	0.940869	0.552948	0.488860
C20	C	0.746463	0.670908	0.592894
C21	C	0.652558	0.664790	0.587498
C22	C	0.659150	0.534590	0.472677
C23	C	0.753056	0.540708	0.478073
C24	C	0.796709	0.608871	0.538183
C25	C	0.890617	0.614993	0.543573
C26	C	0.897208	0.484788	0.428758
C27	C	0.803302	0.478670	0.423362
C28	C	1.274356	0.825357	0.508068
C29	C	1.274405	0.932576	0.508095
C30	C	1.274490	1.128880	0.508164
C31	C	1.274440	1.019643	0.508128
C32	C	1.508956	0.590095	0.521623
C33	C	1.608898	0.596634	0.527391
C34	C	1.260943	0.588307	0.742614
C35	C	1.255197	0.594085	0.842555
C36	C	1.274516	1.323164	0.508139
C37	C	1.274532	1.215954	0.508187
C38	C	1.287912	0.561177	0.274477
C39	C	1.293833	0.555139	0.174547
C40	C	1.359450	0.489073	1.037013
C41	C	1.354054	0.494499	1.130917
C42	C	1.239003	0.610355	1.124267
C43	C	1.244400	0.604930	1.030363
C44	C	1.304626	0.544288	0.986740
C45	C	1.310027	0.538868	0.892835
C46	C	1.194972	0.654719	0.886187
C47	C	1.189576	0.660145	0.980090
H48	H	0.611650	0.715306	0.632051
O49	O	1.180622	0.669358	1.166704
C50	C	1.162362	0.804850	1.272082
C51	C	1.228583	0.738122	1.224065
H52	H	1.201110	0.860450	1.318483
H53	H	1.124106	0.843460	1.220070
H54	H	1.112828	0.759986	1.313288
H55	H	1.278171	0.782915	1.182860
H56	H	1.266772	0.699508	1.276122
H57	H	0.767747	0.423172	0.374425
H58	H	0.623591	0.479090	0.423745
H59	H	0.938128	0.434274	0.384206
O60	O	1.368547	0.479880	0.850597
C61	C	1.482123	0.365576	0.867110
C62	C	1.415875	0.432327	0.915054
H63	H	1.520419	0.327126	0.919203
H64	H	1.443424	0.309843	0.820799
H65	H	1.531616	0.410402	0.825827
H66	H	1.366366	0.387580	0.956385
H67	H	1.454632	0.488063	0.961312
O68	O	1.131202	0.719163	1.022518
C69	C	1.112969	0.854685	1.127869
C70	C	1.179176	0.787929	1.079868
H71	H	1.151728	0.910285	1.174261
H72	H	1.074726	0.893294	1.075847
H73	H	1.063424	0.809844	1.169083
H74	H	1.228776	0.832699	1.038656
H75	H	1.217353	0.749316	1.131935
H76	H	1.150333	0.699682	0.845244
H77	H	0.926157	0.670495	0.592516
O78	O	1.417974	0.430092	0.994773
C79	C	1.531568	0.315806	1.011278
C80	C	1.465313	0.382544	1.059226
H81	H	1.569872	0.277361	1.063368
H82	H	1.492875	0.260068	0.964967
H83	H	1.581054	0.360640	0.969994
H84	H	1.415811	0.337789	1.100558
H85	H	1.504065	0.438285	1.105484
H86	H	0.782006	0.726414	0.641832
H87	H	1.398695	0.449534	1.171846
