data_functionalizedCrystal
_audit_creation_method	'MofGen! by Chris Wilmer'
_symmetry_space_group_name_H-M	'P1'
_symmetry_Int_Tables_number	1
_symmetry_cell_setting	triclinic
loop_
_symmetry_equiv_pos_as_xyz
  x,y,z
_cell_length_a	16.994748
_cell_length_b	19.121102
_cell_length_c	19.120904
_cell_angle_alpha	89.911827
_cell_angle_beta	87.577049
_cell_angle_gamma	87.559037
loop_
_atom_site_label
_atom_site_type_symbol
_atom_site_fract_x
_atom_site_fract_y
_atom_site_fract_z
Zn1	Zn	-0.385854	1.054968	0.442119
Zn2	Zn	-0.512384	1.059927	0.324901
Zn3	Zn	-0.374635	0.942733	0.319901
Zn4	Zn	-0.511854	0.937738	0.437103
O5	O	-0.446182	0.998842	0.381006
O6	O	-0.407556	1.153732	0.430761
O7	O	-0.489638	1.048547	0.226132
O8	O	-0.265743	0.957636	0.336120
O9	O	-0.500517	1.157376	0.344642
O10	O	-0.273986	1.040094	0.425913
O11	O	-0.388434	0.962445	0.222459
O12	O	-0.387920	0.843963	0.331257
O13	O	-0.499614	0.949123	0.535874
O14	O	-0.488734	0.840294	0.417365
O15	O	-0.407042	1.035251	0.539559
O16	O	-0.622694	1.043704	0.339778
O17	O	-0.622305	0.953932	0.422213
C18	C	-0.437053	0.816691	0.373224
C19	C	-0.433167	0.738765	0.369912
C20	C	-0.240443	0.998864	0.381017
C21	C	-0.151122	0.998876	0.381022
C22	C	-0.651120	0.998823	0.380992
C23	C	-0.740442	0.998838	0.380971
C24	C	-0.483903	0.700266	0.413117
C25	C	-0.480242	0.627047	0.410008
C26	C	-0.425848	0.592327	0.363690
C27	C	-0.375106	0.630831	0.320483
C28	C	-0.378764	0.704049	0.323596
C29	C	-0.412170	0.371351	0.352054
C30	C	-0.408517	0.298127	0.348943
C31	C	-0.513652	0.294348	0.438469
C32	C	-0.517308	0.367567	0.441575
C33	C	-0.466564	0.406065	0.398371
C34	C	-0.422106	0.517485	0.360509
C35	C	-0.470303	0.480905	0.401556
Zn36	Zn	0.119506	1.059832	0.324749
Zn37	Zn	0.120008	0.937874	0.437202
Zn38	Zn	-0.017698	1.055108	0.441989
Zn39	Zn	-0.006543	0.942623	0.320002
O40	O	0.053818	0.998859	0.380986
O41	O	0.229955	1.043643	0.339649
O42	O	0.097283	0.949461	0.535951
O43	O	-0.004376	1.153850	0.430427
O44	O	0.230324	0.954041	0.422268
O45	O	0.096427	1.157321	0.344291
O46	O	-0.003889	1.035593	0.539468
O47	O	-0.126601	1.040198	0.425824
O48	O	0.014636	0.962135	0.222518
O49	O	-0.118405	0.957555	0.336201
O50	O	0.107244	1.048248	0.226006
O51	O	0.108099	0.840389	0.417665
O52	O	0.015123	0.843878	0.331559
C53	C	-0.454520	0.991077	0.563866
C54	C	-0.458073	0.987768	0.641790
C55	C	-0.455347	1.181704	0.388819
C56	C	-0.459253	1.259629	0.392148
C57	C	-0.437821	1.006616	0.198860
C58	C	-0.434053	1.010061	0.120942
C59	C	-0.411548	1.031053	0.680318
C60	C	-0.414883	1.027936	0.753535
C61	C	-0.464748	0.981536	0.788223
C62	C	-0.511276	0.938246	0.749689
C63	C	-0.507936	0.941360	0.676473
C64	C	-0.477240	0.969885	1.009192
C65	C	-0.480578	0.966776	1.082414
C66	C	-0.384184	1.056465	1.086255
C67	C	-0.380852	1.059578	1.013037
C68	C	-0.427376	1.016286	0.974510
C69	C	-0.468161	0.978350	0.863063
C70	C	-0.423959	1.019469	0.899671
C71	C	0.062878	0.816693	0.373579
C72	C	0.066776	0.738760	0.370431
C73	C	0.062128	1.006249	0.198111
C74	C	0.065669	1.009397	0.120180
C75	C	0.044725	1.181737	0.388423
C76	C	0.040850	1.259669	0.391592
C77	C	0.045582	0.991548	0.563151
C78	C	0.042179	0.988592	0.641089
C79	C	0.117062	0.700368	0.413748
C80	C	0.120740	0.627142	0.410791
C81	C	0.074127	0.592310	0.364519
C82	C	0.023839	0.630708	0.321197
C83	C	0.020166	0.703933	0.324152
C84	C	0.115548	1.055716	0.085395
C85	C	0.118874	1.058689	0.012172
C86	C	0.072325	1.015339	-0.026266
C87	C	0.022441	0.969018	0.008524
C88	C	0.019111	0.966049	0.081747
C89	C	-0.013459	1.294463	0.437927
C90	C	-0.017115	1.367688	0.440905
C91	C	0.033541	1.406117	0.397551
C92	C	0.087853	1.371318	0.351211
C93	C	0.091505	1.298094	0.348230
C94	C	-0.012442	1.031729	0.679478
C95	C	-0.015639	1.028966	0.752709
C96	C	0.035780	0.983063	0.787551
C97	C	0.090407	0.939925	0.749157
C98	C	0.093608	0.942692	0.675927
H99	H	-0.528199	0.728529	0.450832
H100	H	-0.014110	0.602337	0.283523
H101	H	-0.054710	1.263183	0.473236
H102	H	-0.370944	1.068839	0.652081
Br103	Br	0.165222	1.250882	0.285345
Br104	Br	-0.090827	1.414900	0.503801
H105	H	0.138085	0.907561	0.644677
H106	H	-0.515136	0.934644	0.977832
H107	H	0.129095	1.402618	0.315914
H108	H	0.132271	0.902551	0.777537
H109	H	-0.020787	0.735186	0.288879
H110	H	-0.330814	0.602557	0.282773
H111	H	-0.561604	0.395831	0.479291
H112	H	-0.337446	0.735394	0.288417
Br113	Br	0.180332	0.747623	0.476552
H114	H	-0.521557	0.595704	0.445190
H115	H	-0.554964	0.262995	0.473645
H116	H	0.153460	1.091016	0.116682
H117	H	-0.364214	0.269861	0.311229
H118	H	0.030560	1.465740	0.399986
H119	H	0.077129	0.532686	0.362117
H120	H	-0.514587	0.509177	0.439271
Br121	Br	-0.343298	0.423588	0.293424
Br122	Br	-0.578946	0.875269	0.796765
H123	H	-0.545814	0.906106	0.645104
H124	H	-0.376999	1.063185	0.784902
Br125	Br	-0.313178	1.122554	0.965966
H126	H	0.159499	1.096408	-0.016144
H127	H	-0.054309	1.069116	0.651120
Br128	Br	-0.089782	1.087513	0.804799
H129	H	-0.015458	0.933725	-0.022782
Br130	Br	-0.321046	1.115215	1.138545
H131	H	0.075044	1.017764	-0.085887
Br132	Br	-0.356276	1.082429	0.852593
Br133	Br	-0.548254	0.903798	1.129490
H134	H	0.033166	0.980817	0.847180
H135	H	0.161691	0.595889	0.446071
Br136	Br	-0.535835	0.915382	0.910145
H137	H	-0.377819	0.489209	0.322795
Br138	Br	-0.048587	0.903180	0.128945
