data_functionalizedCrystal
_audit_creation_method	'MofGen! by Chris Wilmer'
_symmetry_space_group_name_H-M	'P1'
_symmetry_Int_Tables_number	1
_symmetry_cell_setting	triclinic
loop_
_symmetry_equiv_pos_as_xyz
  x,y,z
_cell_length_a	6.817900
_cell_length_b	17.982783
_cell_length_c	11.102193
_cell_angle_alpha	94.235533
_cell_angle_beta	108.604059
_cell_angle_gamma	102.448572
loop_
_atom_site_label
_atom_site_type_symbol
_atom_site_fract_x
_atom_site_fract_y
_atom_site_fract_z
V1	V	-4.080364	-0.105417	-0.396785
O2	O	-4.072043	0.005060	-0.388689
O3	O	-4.026527	-0.209020	-0.394593
O4	O	-4.057617	-0.103798	-0.569599
O5	O	-4.040738	-0.100890	-0.212472
V6	V	-4.561372	-0.092203	-0.374676
O7	O	-4.347138	-0.134405	-0.445282
O8	O	-4.744795	-0.063215	-0.326179
O9	O	-4.392003	0.011399	-0.376868
O10	O	-4.687090	-0.202680	-0.382772
O11	O	-4.718395	-0.096731	-0.558989
O12	O	-4.360913	-0.093822	-0.201863
C13	C	-3.869375	-0.234276	-0.388469
C14	C	-3.906814	-0.318972	-0.387829
C15	C	-3.867452	-0.347880	-0.271089
C16	C	-3.902651	-0.427462	-0.270492
C17	C	-3.977198	-0.478134	-0.386636
C18	C	-4.016568	-0.449221	-0.503385
C19	C	-3.981383	-0.369640	-0.503981
C20	C	-4.158467	-0.770159	-0.500984
C21	C	-4.193644	-0.849743	-0.500379
C22	C	-4.079735	-0.827980	-0.267494
C23	C	-4.044550	-0.748400	-0.268090
C24	C	-4.083934	-0.719494	-0.384839
C25	C	-4.045770	-0.633202	-0.385485
C26	C	-4.015347	-0.564424	-0.385991
C27	C	-3.909032	-0.100054	-0.611703
C28	C	-3.971681	-0.099416	-0.752983
C29	C	-4.050774	-0.238962	-0.790008
C30	C	-4.119745	-0.308432	-0.874892
C31	C	-4.178610	-0.307828	-1.007635
C32	C	-4.168506	-0.237746	-1.055495
C33	C	-4.099535	-0.168277	-0.970612
C34	C	-4.040667	-0.168888	-0.837867
C35	C	-4.020457	-0.028733	-0.933587
C36	C	-3.961577	-0.029335	-0.800843
C37	C	-4.010354	0.041349	-0.981448
C38	C	-3.941367	0.110820	-0.896563
C39	C	-3.882498	0.110214	-0.763813
C40	C	-3.892606	0.040135	-0.715960
C41	C	-4.212496	0.036651	-0.382989
C42	C	-4.154296	0.121347	-0.383637
C43	C	-4.172839	-0.097568	-0.159751
C44	C	-4.089428	-0.098203	-0.018471
H45	H	-4.013459	-0.346106	-0.599044
C46	C	-4.233270	-0.237079	-1.201513
C47	C	-4.418123	-0.201998	-1.270516
C48	C	-4.482885	-0.201328	-1.416534
C49	C	-4.362794	-0.235740	-1.493549
C50	C	-4.177929	-0.270824	-1.424546
C51	C	-4.113167	-0.271494	-1.278528
H52	H	-4.507033	-0.176522	-1.213504
H53	H	-4.619735	-0.175356	-1.467614
H54	H	-4.410734	-0.235244	-1.601640
H55	H	-4.089019	-0.296300	-1.481558
H56	H	-3.976317	-0.297466	-1.227448
H57	H	-4.127971	-0.365491	-0.835909
C58	C	-3.930263	0.187902	-0.949212
C59	C	-3.785650	0.211133	-1.029209
C60	C	-3.774546	0.288216	-1.081864
C61	C	-3.908054	0.342067	-1.054521
C62	C	-4.052677	0.318837	-0.974520
C63	C	-4.063781	0.241754	-0.921865
H64	H	-3.686810	0.171268	-1.049454
H65	H	-3.667486	0.305412	-1.141087
H66	H	-3.899834	0.399128	-1.093499
H67	H	-4.151516	0.358702	-0.954275
H68	H	-4.170841	0.224558	-0.862642
H69	H	-4.254350	-0.891000	-0.594963
C70	C	-4.254481	-0.384243	-1.101015
C71	C	-4.265607	-0.461329	-1.048384
C72	C	-4.341478	-0.537744	-1.141763
C73	C	-4.406224	-0.537073	-1.287774
C74	C	-4.395100	-0.459984	-1.340413
C75	C	-4.319229	-0.383569	-1.247033
H76	H	-4.217676	-0.461829	-0.940291
H77	H	-4.349712	-0.594811	-1.102796
H78	H	-4.462388	-0.593640	-1.356900
H79	H	-4.443031	-0.459484	-1.448505
H80	H	-4.310995	-0.326503	-1.286000
H81	H	-4.047678	-0.851524	-0.172432
H82	H	-4.002816	-0.239460	-0.681923
C83	C	-3.827855	0.039467	-0.569943
C84	C	-3.947966	0.073874	-0.492936
C85	C	-3.883222	0.073203	-0.346919
C86	C	-3.698367	0.038124	-0.277908
C87	C	-3.578245	0.003714	-0.354915
C88	C	-3.642988	0.004386	-0.500932
H89	H	-4.084817	0.099844	-0.544022
H90	H	-3.972146	0.098676	-0.289914
H91	H	-3.650440	0.037627	-0.169818
H92	H	-3.441394	-0.022256	-0.303829
H93	H	-3.554064	-0.021087	-0.557937
H94	H	-3.806734	-0.306627	-0.176510
H95	H	-4.058303	0.041835	-1.089536
H96	H	-4.190511	-0.746633	-0.596047
H97	H	-3.870602	-0.450994	-0.175430
H98	H	-3.826350	0.166785	-0.694706
H99	H	-4.077281	-0.490484	-0.597952
H100	H	-3.983840	-0.707145	-0.173513
