data_functionalizedCrystal
_audit_creation_method	'MofGen! by Chris Wilmer'
_symmetry_space_group_name_H-M	'P1'
_symmetry_Int_Tables_number	1
_symmetry_cell_setting	triclinic
loop_
_symmetry_equiv_pos_as_xyz
  x,y,z
_cell_length_a	14.044191
_cell_length_b	14.044220
_cell_length_c	13.101018
_cell_angle_alpha	86.335600
_cell_angle_beta	93.666878
_cell_angle_gamma	93.190327
loop_
_atom_site_label
_atom_site_type_symbol
_atom_site_fract_x
_atom_site_fract_y
_atom_site_fract_z
O1	O	1.281983	0.225382	0.085170
O2	O	1.781983	0.725382	0.585170
O3	O	1.005311	0.217069	0.085182
O4	O	1.505311	0.717069	0.585182
O5	O	1.139494	0.082890	0.085166
O6	O	1.639494	0.582890	0.585166
O7	O	1.147800	0.359561	0.085186
O8	O	1.647800	0.859561	0.585186
O9	O	1.129855	0.092525	-0.085263
O10	O	1.629855	0.592525	0.414737
O11	O	0.995672	0.226704	-0.085247
O12	O	1.495672	0.726704	0.414753
O13	O	1.272344	0.235017	-0.085260
O14	O	1.772344	0.735017	0.414740
Zn15	Zn	1.132478	0.232390	-0.112313
Zn16	Zn	1.632478	0.732390	0.387687
Zn17	Zn	1.145177	0.219695	0.112235
Zn18	Zn	1.645177	0.719695	0.612235
O19	O	1.138162	0.369196	-0.085243
O20	O	1.638162	0.869196	0.414757
C21	C	0.964870	0.218250	-0.000031
C22	C	1.464870	0.718250	0.499969
C23	C	0.858727	0.207402	-0.000026
C24	C	1.358727	0.707402	0.499974
C25	C	0.613268	0.264503	-0.000032
C26	C	1.113268	0.764503	0.499968
C27	C	0.664393	0.187587	-0.000036
C28	C	1.164393	0.687587	0.499964
C29	C	0.772531	0.198615	-0.000031
C30	C	1.272531	0.698615	0.499969
C31	C	0.505121	0.253476	-0.000038
C32	C	1.005121	0.753476	0.499962
C33	C	1.131038	0.052086	-0.000049
C34	C	1.631038	0.552086	0.499951
C35	C	1.120194	-0.054057	-0.000050
C36	C	1.620194	0.445943	0.499950
C37	C	1.100368	-0.248396	-0.000034
C38	C	1.600368	0.251604	0.499966
C39	C	1.177283	-0.299524	-0.000034
C40	C	1.677283	0.200476	0.499966
C41	C	1.166252	-0.407661	-0.000026
C42	C	1.666252	0.092339	0.499974
C43	C	1.111398	-0.140250	-0.000043
C44	C	1.611398	0.359750	0.499957
C45	C	1.312785	0.233836	-0.000044
C46	C	1.812785	0.733836	0.499956
C47	C	1.418929	0.244683	-0.000042
C48	C	1.918929	0.744683	0.499958
C49	C	1.146617	0.400000	-0.000026
C50	C	1.646617	0.900000	0.499974
C51	C	1.157462	0.506143	-0.000019
C52	C	1.657462	1.006143	0.499981
N53	N	1.123818	0.241054	-0.265560
N54	N	1.623818	0.741054	0.234440
C55	C	1.165622	0.199233	-0.525475
C56	C	1.665622	0.699233	-0.025475
C57	C	1.112043	0.252843	-0.474596
C58	C	1.612043	0.752843	0.025404
C59	C	1.118596	0.246282	-0.358278
C60	C	1.618596	0.746282	0.141722
C61	C	1.159070	0.205793	-0.641804
C62	C	1.659070	0.705793	-0.141804
N63	N	1.153844	0.211025	0.265483
N64	N	1.653844	0.711025	0.765483
H65	H	0.626954	0.113451	0.000031
H66	H	1.126954	0.613451	0.500031
C67	C	1.234240	0.130585	-0.466315
C68	C	1.734240	0.630585	0.033685
H69	H	1.229704	0.135136	-0.394765
H70	H	1.729704	0.635136	0.105235
H71	H	1.217487	0.066961	-0.483832
H72	H	1.717487	0.566961	0.016168
H73	H	1.297872	0.147326	-0.483829
H74	H	1.797872	0.647326	0.016171
C75	C	1.277430	-0.248950	-0.000062
C76	C	1.777430	0.251050	0.499938
H77	H	1.271804	-0.181849	-0.000079
H78	H	1.771804	0.318151	0.499921
H79	H	1.314507	-0.270240	0.059363
H80	H	1.814507	0.229760	0.559363
H81	H	1.307754	-0.263544	-0.059509
H82	H	1.807754	0.236456	0.440491
C83	C	0.663841	0.364644	-0.000009
C84	C	1.163841	0.864644	0.499991
H85	H	0.617546	0.411457	-0.000010
H86	H	1.117546	0.911457	0.499990
H87	H	0.705943	0.368761	0.059428
H88	H	1.205943	0.868761	0.559428
H89	H	0.699232	0.375497	-0.059445
H90	H	1.199232	0.875497	0.440555
C91	C	1.000225	-0.298965	-0.000028
C92	C	1.500225	0.201035	0.499972
H93	H	0.953413	-0.252669	-0.000023
H94	H	1.453413	0.247331	0.499977
H95	H	0.989378	-0.334361	-0.059456
H96	H	1.489378	0.165639	0.440544
H97	H	0.996100	-0.341063	0.059416
H98	H	1.496100	0.158937	0.559416
H99	H	1.061253	0.303669	-0.518395
H100	H	1.561253	0.803669	-0.018395
