data_functionalizedCrystal
_audit_creation_method	'MofGen! by Chris Wilmer'
_symmetry_space_group_name_H-M	'P1'
_symmetry_Int_Tables_number	1
_symmetry_cell_setting	triclinic
loop_
_symmetry_equiv_pos_as_xyz
  x,y,z
_cell_length_a	19.121215
_cell_length_b	19.121063
_cell_length_c	14.908308
_cell_angle_alpha	84.445373
_cell_angle_beta	89.306701
_cell_angle_gamma	95.002544
loop_
_atom_site_label
_atom_site_type_symbol
_atom_site_fract_x
_atom_site_fract_y
_atom_site_fract_z
Zn1	Zn	1.036454	-0.261605	0.581341
Zn2	Zn	1.369787	0.071728	0.914675
Zn3	Zn	1.703121	0.405062	1.248008
Zn4	Zn	1.038135	-0.372493	0.436642
Zn5	Zn	1.371468	-0.039160	0.769976
Zn6	Zn	1.704802	0.294174	1.103309
Zn7	Zn	0.926158	-0.259273	0.424313
Zn8	Zn	1.259491	0.074061	0.757646
Zn9	Zn	1.592824	0.407394	1.090979
Zn10	Zn	0.913733	-0.384239	0.581258
Zn11	Zn	1.247066	-0.050906	0.914591
Zn12	Zn	1.580400	0.282427	1.247925
O13	O	0.978620	-0.319402	0.505889
O14	O	1.311953	0.013931	0.839222
O15	O	1.645287	0.347264	1.172555
O16	O	1.134899	-0.272375	0.567341
O17	O	1.468232	0.060958	0.900675
O18	O	1.801566	0.394292	1.234008
O19	O	1.029184	-0.351582	0.308768
O20	O	1.362518	-0.018249	0.642101
O21	O	1.695851	0.315084	0.975434
O22	O	0.945285	-0.160876	0.440018
O23	O	1.278618	0.172457	0.773351
O24	O	1.611952	0.505791	1.106684
O25	O	1.136134	-0.353844	0.461032
O26	O	1.469467	-0.020511	0.794365
O27	O	1.802801	0.312823	1.127699
O28	O	1.026319	-0.162589	0.555386
O29	O	1.359652	0.170744	0.888719
O30	O	1.692986	0.504077	1.222052
O31	O	0.946915	-0.268400	0.299709
O32	O	1.280248	0.064934	0.633042
O33	O	1.613582	0.398267	0.966376
O34	O	0.826287	-0.279789	0.439937
O35	O	1.159621	0.053544	0.773270
O36	O	1.492954	0.386877	1.106604
O37	O	0.924109	-0.373863	0.707508
O38	O	1.257442	-0.040530	1.040842
O39	O	1.590775	0.292803	1.374175
O40	O	0.817159	-0.371602	0.555244
O41	O	1.150492	-0.038268	0.888577
O42	O	1.483826	0.295065	1.221911
O43	O	1.014271	-0.283765	0.707569
O44	O	1.347605	0.049569	1.040903
O45	O	1.680938	0.382902	1.374236
O46	O	1.017137	-0.472757	0.460951
O47	O	1.350470	-0.139424	0.794285
O48	O	1.683803	0.193909	1.127618
O49	O	0.925739	-0.481387	0.567200
O50	O	1.259072	-0.148054	0.900533
O51	O	1.592406	0.185280	1.233866
C52	C	0.796255	-0.326718	0.496244
C53	C	1.129589	0.006616	0.829577
C54	C	1.462922	0.339949	1.162911
C55	C	0.718237	-0.329865	0.492140
C56	C	1.051571	0.003468	0.825474
C57	C	1.384904	0.336802	1.158807
C58	C	0.277013	-0.349791	0.466180
C59	C	0.610347	-0.016458	0.799513
C60	C	0.943680	0.316876	1.132846
C61	C	0.350320	-0.346830	0.470028
C62	C	0.683653	-0.013496	0.803362
C63	C	1.016987	0.319837	1.136695
C64	C	0.386325	-0.303011	0.527400
C65	C	0.719658	0.030323	0.860734
C66	C	1.052991	0.363656	1.194067
C67	C	0.349019	-0.262145	0.580920
C68	C	0.682353	0.071188	0.914254
C69	C	1.015686	0.404522	1.247587
C70	C	0.275714	-0.265103	0.577066
C71	C	0.609047	0.068230	0.910400
C72	C	0.942381	0.401564	1.243733
C73	C	0.607627	-0.291957	0.541806
C74	C	0.940960	0.041376	0.875140
C75	C	1.274293	0.374709	1.208473
C76	C	0.680937	-0.289004	0.545658
C77	C	1.014270	0.044329	0.878992
C78	C	1.347603	0.377663	1.212325
C79	C	0.682233	-0.373688	0.434765
C80	C	1.015566	-0.040355	0.768098
C81	C	1.348899	0.292979	1.101431
C82	C	0.608926	-0.376646	0.430920
C83	C	0.942259	-0.043312	0.764253
C84	C	1.275592	0.290021	1.097586
C85	C	0.571627	-0.335777	0.484436
C86	C	0.904960	-0.002444	0.817770
C87	C	1.238294	0.330890	1.151103
C88	C	0.461256	-0.299984	0.531338
C89	C	0.794589	0.033349	0.864671
C90	C	1.127923	0.366683	1.198004
C91	C	0.496698	-0.338800	0.480493
C92	C	0.830031	-0.005467	0.813827
C93	C	1.163364	0.327866	1.147160
C94	C	0.970290	-0.502666	0.515425
C95	C	1.303623	-0.169332	0.848758
C96	C	1.636957	0.164001	1.182092
C97	C	0.966789	-0.581065	0.519538
C98	C	1.300123	-0.247732	0.852872
C99	C	1.633456	0.085601	1.186205
C100	C	1.012763	-0.613382	0.466203
C101	C	1.346096	-0.280049	0.799536
C102	C	1.679430	0.053284	1.132869
C103	C	1.009475	-0.687047	0.470077
C104	C	1.342808	-0.353714	0.803410
C105	C	1.676141	-0.020381	1.136743
C106	C	0.960208	-0.728394	0.527282
C107	C	1.293542	-0.395061	0.860616
C108	C	1.626875	-0.061728	1.193949
C109	C	0.914232	-0.696073	0.580624
C110	C	1.247566	-0.362739	0.913958
C111	C	1.580899	-0.029406	1.247291
C112	C	0.917525	-0.622409	0.576754
C113	C	1.250858	-0.289076	0.910088
C114	C	1.584191	0.044258	1.243421
C115	C	0.947888	-0.951037	0.541737
C116	C	1.281222	-0.617704	0.875070
C117	C	1.614555	-0.284371	1.208403
C118	C	0.944598	-1.024706	0.545601
C119	C	1.277931	-0.691373	0.878934
C120	C	1.611265	-0.358039	1.212267
C121	C	1.039841	-1.015676	0.435054
C122	C	1.373175	-0.682342	0.768387
C123	C	1.706508	-0.349009	1.101720
C124	C	1.043127	-0.942011	0.431185
C125	C	1.376460	-0.608677	0.764518
C126	C	1.709793	-0.275344	1.097852
C127	C	0.997153	-0.909696	0.484530
C128	C	1.330486	-0.576362	0.817863
C129	C	1.663820	-0.243029	1.151197
C130	C	0.956844	-0.803692	0.531242
C131	C	1.290178	-0.470359	0.864575
C132	C	1.623511	-0.137025	1.197908
C133	C	1.000521	-0.834399	0.480575
C134	C	1.333854	-0.501066	0.813908
C135	C	1.667188	-0.167733	1.147242
C136	C	1.161696	-0.312059	0.515571
C137	C	1.495030	0.021274	0.848905
C138	C	1.828363	0.354607	1.182238
C139	C	1.239713	-0.308930	0.519697
C140	C	1.573046	0.024403	0.853031
C141	C	1.906379	0.357737	1.186364
C142	C	0.967617	-0.330384	0.741187
C143	C	1.300950	0.002949	1.074520
C144	C	1.634283	0.336282	1.407853
C145	C	0.962928	-0.335064	0.841456
C146	C	1.296261	-0.001731	1.174790
C147	C	1.629594	0.331602	1.508123
C148	C	0.987000	-0.135424	0.496336
C149	C	1.320334	0.197910	0.829669
C150	C	1.653667	0.531243	1.163002
C151	C	0.990572	-0.057023	0.492265
C152	C	1.323905	0.276310	0.825598
C153	C	1.657238	0.609644	1.158931
C154	C	0.989623	-0.308411	0.271506
C155	C	1.322956	0.024923	0.604839
C156	C	1.656290	0.358256	0.938172
C157	C	0.994457	-0.303527	0.171233
C158	C	1.327790	0.029807	0.504566
C159	C	1.661124	0.363140	0.837900
C160	C	1.048001	-0.250022	1.029939
C161	C	1.381335	0.083311	1.363272
C162	C	1.714668	0.416645	1.696605
C163	C	1.043598	-0.254416	1.124151
C164	C	1.376931	0.078917	1.457485
C165	C	1.710265	0.412250	1.790818
C166	C	0.949715	-0.348244	1.124095
C167	C	1.283048	-0.014911	1.457429
C168	C	1.616381	0.318423	1.790762
C169	C	0.954118	-0.343850	1.029883
C170	C	1.287451	-0.010516	1.363216
C171	C	1.620785	0.322817	1.696550
C172	C	1.003264	-0.294737	0.982808
C173	C	1.336597	0.038596	1.316141
C174	C	1.669930	0.371929	1.649475
C175	C	1.007670	-0.290347	0.888594
C176	C	1.341003	0.042987	1.221927
C177	C	1.674337	0.376320	1.555261
C178	C	0.913784	-0.384171	0.888540
C179	C	1.247117	-0.050837	1.221873
C180	C	1.580450	0.282496	1.555206
C181	C	0.909380	-0.388565	0.982752
C182	C	1.242713	-0.055232	1.316085
C183	C	1.576047	0.278102	1.649419
H184	H	0.710250	-0.253316	0.592376
H185	H	1.043583	0.080017	0.925709
H186	H	1.376917	0.413351	1.259043
H187	H	0.577266	-0.258683	0.585388
H188	H	0.910600	0.074650	0.918721
H189	H	1.243933	0.407984	1.252055
H190	H	0.904487	-1.058370	0.592201
H191	H	1.237820	-0.725036	0.925534
H192	H	1.571154	-0.391703	1.258867
O193	O	1.054163	-0.718326	0.418174
O194	O	1.387496	-0.384992	0.751507
O195	O	1.720830	-0.051659	1.084840
C196	C	1.098360	-0.666036	0.366865
C197	C	1.431693	-0.332703	0.700198
C198	C	1.765027	0.000631	1.033531
H199	H	1.072103	-0.614560	0.359436
H200	H	1.405436	-0.281227	0.692769
H201	H	1.738770	0.052107	1.026102
H202	H	1.108261	-0.683719	0.297312
H203	H	1.441594	-0.350385	0.630646
H204	H	1.774927	-0.017052	0.963979
H205	H	1.150455	-0.657547	0.402354
H206	H	1.483788	-0.324214	0.735687
H207	H	1.817121	0.009120	1.069021
H208	H	0.467380	-0.374475	0.433779
H209	H	0.800713	-0.041142	0.767112
H210	H	1.134046	0.292191	1.100445
H211	H	1.077271	-1.041995	0.391624
H212	H	1.410605	-0.708661	0.724958
H213	H	1.743938	-0.375328	1.058291
O214	O	1.087131	-0.210950	1.169798
O215	O	1.420465	0.122384	1.503131
O216	O	1.753798	0.455717	1.836464
C217	C	1.131437	-0.166650	1.108040
C218	C	1.464770	0.166684	1.441373
C219	C	1.798104	0.500017	1.774706
H220	H	1.135692	-0.192311	1.042512
H221	H	1.469025	0.141023	1.375845
H222	H	1.802358	0.474356	1.709178
H223	H	1.185810	-0.158173	1.137791
H224	H	1.519143	0.175161	1.471125
H225	H	1.852476	0.508494	1.804458
H226	H	1.108638	-0.113644	1.093878
H227	H	1.441971	0.219689	1.427211
H228	H	1.775305	0.553022	1.760544
H229	H	0.247703	-0.385477	0.419466
H230	H	0.581037	-0.052144	0.752799
H231	H	0.914370	0.281190	1.086132
O232	O	0.901878	-0.395872	1.169776
O233	O	1.235211	-0.062539	1.503110
O234	O	1.568545	0.270794	1.836443
C235	C	0.833703	-0.382200	1.142231
C236	C	1.167037	-0.048867	1.475564
C237	C	1.500370	0.284467	1.808897
H238	H	0.833939	-0.324785	1.113212
H239	H	1.167273	0.008548	1.446545
H240	H	1.500606	0.341882	1.779879
H241	H	0.795849	-0.392554	1.202667
H242	H	1.129183	-0.059221	1.536001
H243	H	1.462516	0.274113	1.869334
H244	H	0.816193	-0.418204	1.088541
H245	H	1.149526	-0.084871	1.421874
H246	H	1.482860	0.248463	1.755207
O247	O	1.090958	-0.901925	0.375497
O248	O	1.424291	-0.568591	0.708830
O249	O	1.757625	-0.235258	1.042163
C250	C	1.079067	-0.916372	0.285707
C251	C	1.412400	-0.583039	0.619040
C252	C	1.745733	-0.249706	0.952373
H253	H	1.049780	-0.970874	0.285191
H254	H	1.383113	-0.637541	0.618524
H255	H	1.716446	-0.304207	0.951858
H256	H	1.131528	-0.914947	0.248125
H257	H	1.464862	-0.581613	0.581458
H258	H	1.798195	-0.248280	0.914791
H259	H	1.046277	-0.874981	0.251198
H260	H	1.379611	-0.541647	0.584531
H261	H	1.712944	-0.208314	0.917864
H262	H	0.378340	-0.226463	0.627630
H263	H	0.711674	0.106870	0.960963
H264	H	1.045007	0.440203	1.294297
O265	O	1.055314	-0.242603	0.842758
O266	O	1.388647	0.090731	1.176092
O267	O	1.721981	0.424064	1.509425
C268	C	1.019967	-0.196099	0.783801
C269	C	1.353300	0.137234	1.117134
C270	C	1.686633	0.470567	1.450468
H271	H	0.966305	-0.222460	0.768166
H272	H	1.299638	0.110873	1.101499
H273	H	1.632972	0.444207	1.434832
H274	H	1.052084	-0.182402	0.718571
H275	H	1.385417	0.150932	1.051905
H276	H	1.718750	0.484265	1.385238
H277	H	1.012929	-0.145834	0.816990
H278	H	1.346263	0.187499	1.150323
H279	H	1.679596	0.520833	1.483656
O280	O	1.095650	-0.202286	0.984098
O281	O	1.428984	0.131047	1.317431
O282	O	1.762317	0.464380	1.650765
C283	C	1.060312	-0.155778	0.925137
C284	C	1.393645	0.177555	1.258470
C285	C	1.726979	0.510889	1.591803
H286	H	1.006644	-0.182128	0.909507
H287	H	1.339978	0.151205	1.242841
H288	H	1.673311	0.484538	1.576174
H289	H	1.092429	-0.142093	0.859905
H290	H	1.425762	0.191241	1.193238
H291	H	1.759095	0.524574	1.526571
H292	H	1.053288	-0.105507	0.958319
H293	H	1.386622	0.227826	1.291652
H294	H	1.719955	0.561160	1.624985
H295	H	0.869366	-0.428549	1.021093
H296	H	1.202699	-0.095216	1.354427
H297	H	1.536033	0.238117	1.687760
H298	H	0.877356	-0.420583	0.850156
H299	H	1.210690	-0.087250	1.183489
H300	H	1.544023	0.246084	1.516823
O301	O	0.239583	-0.225390	0.629147
O302	O	0.572917	0.107943	0.962480
O303	O	0.906250	0.441276	1.295813
C304	C	0.287080	-0.186068	0.680596
C305	C	0.620414	0.147266	1.013930
C306	C	0.953747	0.480599	1.347263
H307	H	0.337882	-0.212997	0.687910
H308	H	0.671216	0.120336	1.021243
H309	H	1.004549	0.453670	1.354576
H310	H	0.262925	-0.182805	0.750189
H311	H	0.596258	0.150528	1.083523
H312	H	0.929592	0.483862	1.416856
H313	H	0.298841	-0.130605	0.645297
H314	H	0.632174	0.202728	0.978630
H315	H	0.965507	0.536062	1.311963
H316	H	0.380687	-0.380102	0.426447
H317	H	0.714020	-0.046769	0.759780
H318	H	1.047354	0.286565	1.093113
H319	H	0.579616	-0.412327	0.384200
H320	H	0.912949	-0.078994	0.717534
H321	H	1.246283	0.254340	1.050867
O322	O	0.718576	-0.413311	0.382808
O323	O	1.051909	-0.079978	0.716141
O324	O	1.385242	0.253356	1.049475
C325	C	0.790996	-0.401320	0.398525
C326	C	1.124329	-0.067987	0.731858
C327	C	1.457663	0.265346	1.065191
H328	H	0.802094	-0.347904	0.425885
H329	H	1.135427	-0.014571	0.759219
H330	H	1.468761	0.318763	1.092552
H331	H	0.821789	-0.401740	0.332649
H332	H	1.155122	-0.068407	0.665983
H333	H	1.488456	0.264926	0.999316
H334	H	0.807666	-0.444619	0.449746
H335	H	1.140999	-0.111286	0.783079
H336	H	1.474333	0.222048	1.116413
H337	H	1.052878	-0.579722	0.419615
H338	H	1.386211	-0.246388	0.752949
H339	H	1.719545	0.086945	1.086282
O340	O	1.048343	-0.794311	0.424882
O341	O	1.381676	-0.460978	0.758215
O342	O	1.715010	-0.127644	1.091549
C343	C	1.036442	-0.808754	0.335092
C344	C	1.369775	-0.475421	0.668426
C345	C	1.703108	-0.142087	1.001759
H346	H	1.007163	-0.863260	0.334576
H347	H	1.340497	-0.529926	0.667910
H348	H	1.673830	-0.196593	1.001243
H349	H	1.088899	-0.807316	0.297497
H350	H	1.422233	-0.473983	0.630830
H351	H	1.755566	-0.140649	0.964164
H352	H	1.003640	-0.767367	0.300597
H353	H	1.336974	-0.434034	0.633930
H354	H	1.670307	-0.100700	0.967264
H355	H	0.490579	-0.264308	0.578052
H356	H	0.823912	0.069025	0.911386
H357	H	1.157246	0.402358	1.244719
H358	H	0.874122	-0.729744	0.627207
H359	H	1.207455	-0.396410	0.960540
H360	H	1.540788	-0.063077	1.293873
O361	O	0.903149	-0.919766	0.593571
O362	O	1.236483	-0.586432	0.926905
O363	O	1.569816	-0.253099	1.260238
C364	C	0.858968	-0.972058	0.644899
C365	C	1.192302	-0.638725	0.978232
C366	C	1.525635	-0.305392	1.311565
H367	H	0.855952	-1.022955	0.610577
H368	H	1.189286	-0.689621	0.943911
H369	H	1.522619	-0.356288	1.277244
H370	H	0.804159	-0.953491	0.650410
H371	H	1.137492	-0.620157	0.983744
H372	H	1.470825	-0.286824	1.317077
H373	H	0.881066	-0.982014	0.715211
H374	H	1.214399	-0.648681	1.048544
H375	H	1.547733	-0.315348	1.381877
O376	O	0.872795	-0.591127	0.628598
O377	O	1.206129	-0.257794	0.961932
O378	O	1.539462	0.075539	1.295265
C379	C	0.828618	-0.643416	0.679939
C380	C	1.161951	-0.310082	1.013272
C381	C	1.495285	0.023251	1.346605
H382	H	0.825585	-0.694311	0.645614
H383	H	1.158918	-0.360978	0.978948
H384	H	1.492252	-0.027644	1.312281
H385	H	0.773814	-0.624840	0.685474
H386	H	1.107147	-0.291507	1.018807
H387	H	1.440480	0.041827	1.352140
H388	H	0.850731	-0.653377	0.750241
H389	H	1.184065	-0.320044	1.083575
H390	H	1.517398	0.013290	1.416908
H391	H	0.916730	-0.837365	0.577817
H392	H	1.250064	-0.504032	0.911150
H393	H	1.583397	-0.170698	1.244484
