data_functionalizedCrystal
_audit_creation_method	'MofGen! by Chris Wilmer'
_symmetry_space_group_name_H-M	'P1'
_symmetry_Int_Tables_number	1
_symmetry_cell_setting	triclinic
loop_
_symmetry_equiv_pos_as_xyz
  x,y,z
_cell_length_a	12.594517
_cell_length_b	19.120786
_cell_length_c	12.594509
_cell_angle_alpha	92.474225
_cell_angle_beta	90.011478
_cell_angle_gamma	92.461418
loop_
_atom_site_label
_atom_site_type_symbol
_atom_site_fract_x
_atom_site_fract_y
_atom_site_fract_z
Zn1	Zn	1.609116	-0.279686	0.583455
Zn2	Zn	2.109116	0.220314	1.083455
Zn3	Zn	1.601383	-0.397156	0.397864
Zn4	Zn	2.101383	0.102844	0.897864
Zn5	Zn	1.431118	-0.279708	0.405513
Zn6	Zn	1.931118	0.220292	0.905513
Zn7	Zn	1.423482	-0.397100	0.575828
Zn8	Zn	1.923482	0.102900	1.075828
O9	O	1.516275	-0.338413	0.490665
O10	O	2.016275	0.161587	0.990665
O11	O	1.757035	-0.295284	0.558826
O12	O	2.257035	0.204716	1.058826
O13	O	1.578757	-0.381610	0.249930
O14	O	2.078757	0.118390	0.749930
O15	O	1.461162	-0.181415	0.435510
O16	O	1.961162	0.318585	0.935510
O17	O	1.751354	-0.381588	0.422473
O18	O	2.251354	0.118412	0.922473
O19	O	1.591936	-0.181399	0.566244
O20	O	2.091936	0.318601	1.066244
O21	O	1.453664	-0.295321	0.255550
O22	O	1.953664	0.204679	0.755550
O23	O	1.281160	-0.295266	0.428115
O24	O	1.781160	0.204734	0.928115
O25	O	1.448147	-0.381491	0.725788
O26	O	1.948147	0.118509	1.225788
O27	O	1.275550	-0.381513	0.553245
O28	O	1.775550	0.118487	1.053245
O29	O	1.584531	-0.295228	0.731391
O30	O	2.084531	0.204772	1.231391
O31	O	1.571352	-0.495439	0.415078
O32	O	2.071352	0.004561	0.915078
O33	O	1.440649	-0.495397	0.545827
O34	O	1.940649	0.004603	1.045827
C35	C	1.239736	-0.338386	0.490683
C36	C	1.739736	0.161614	0.990683
C37	C	1.121430	-0.338392	0.490714
C38	C	1.621430	0.161608	0.990714
C39	C	1.049150	-0.385393	0.558629
C40	C	1.549150	0.114607	1.058629
C41	C	0.982498	-0.321352	0.588958
C42	C	1.482498	0.178648	1.088958
C43	C	0.977280	-0.402486	0.460359
C44	C	1.477280	0.097514	0.960359
C45	C	1.056338	-0.274316	0.521096
C46	C	1.556338	0.225684	1.021096
C47	C	1.051123	-0.355493	0.392449
C48	C	1.551123	0.144507	0.892449
C49	C	0.984506	-0.291408	0.422744
C50	C	1.484506	0.208592	0.922744
C51	C	1.504362	-0.520904	0.478818
C52	C	2.004362	-0.020904	0.978818
C53	C	1.499363	-0.598974	0.473785
C54	C	1.999363	-0.098974	0.973785
C55	C	1.565050	-0.635583	0.539542
C56	C	2.065050	-0.135583	1.039542
C57	C	1.560349	-0.708939	0.534815
C58	C	2.060349	-0.208939	1.034815
C59	C	1.489964	-0.745684	0.464326
C60	C	1.989964	-0.245684	0.964326
C61	C	1.424269	-0.709070	0.398566
C62	C	1.924269	-0.209070	0.898566
C63	C	1.428966	-0.635716	0.403299
C64	C	1.928966	-0.135716	0.903299
C65	C	1.472374	-0.967170	0.446633
C66	C	1.972374	-0.467170	0.946633
C67	C	1.467684	-1.040529	0.441902
C68	C	1.967684	-0.540529	0.941902
C69	C	1.603763	-1.040393	0.578153
C70	C	2.103763	-0.540393	1.078153
C71	C	1.608458	-0.967037	0.582876
C72	C	2.108458	-0.467037	1.082876
C73	C	1.542760	-0.930430	0.517120
C74	C	2.042760	-0.430430	1.017120
C75	C	1.485159	-0.820665	0.459490
C76	C	1.985159	-0.320665	0.959490
C77	C	1.547560	-0.855450	0.521962
C78	C	2.047560	-0.355450	1.021962
C79	C	1.793894	-0.338440	0.490647
C80	C	2.293894	0.161560	0.990647
C81	C	1.912198	-0.338451	0.490640
C82	C	2.412198	0.161549	0.990640
C83	C	1.516350	-0.338351	0.768290
C84	C	2.016350	0.161649	1.268290
C85	C	1.516382	-0.338325	0.886597
C86	C	2.016382	0.161675	1.386597
C87	C	1.528263	-0.155209	0.502581
C88	C	2.028263	0.344791	1.002581
C89	C	1.533372	-0.077138	0.507659
C90	C	2.033372	0.422862	1.007659
C91	C	1.516264	-0.338423	0.214123
C92	C	2.016264	0.161577	0.714123
C93	C	1.516451	-0.338252	0.095829
C94	C	2.016451	0.161748	0.595829
C95	C	1.442227	-0.385217	0.952804
C96	C	1.942227	0.114783	1.452804
C97	C	1.538233	-0.402383	1.022465
C98	C	2.038233	0.097617	1.522465
C99	C	1.420454	-0.321116	1.027738
C100	C	1.920454	0.178884	1.527738
C101	C	1.612437	-0.355525	0.954698
C102	C	2.112437	0.144475	1.454698
C103	C	1.494595	-0.274228	0.959966
C104	C	1.994595	0.225772	1.459966
C105	C	1.590670	-0.291370	1.029597
C106	C	2.090670	0.208630	1.529597
H107	H	0.956220	-0.251640	0.365282
H108	H	1.456220	0.248360	0.865282
O109	O	1.091160	-0.374651	0.282455
O110	O	1.591160	0.125349	0.782455
H111	H	1.059433	-0.427880	0.257465
H112	H	1.559433	0.072120	0.757465
O113	O	1.674606	-1.079875	0.649090
O114	O	2.174606	-0.579875	1.149090
H115	H	1.659509	-1.137056	0.633970
H116	H	2.159509	-0.637056	1.133970
O117	O	1.631198	-0.748422	0.605743
O118	O	2.131198	-0.248422	1.105743
H119	H	1.683229	-0.781843	0.555991
H120	H	2.183229	-0.281843	1.055991
H121	H	1.604863	-0.825530	0.579359
H122	H	2.104863	-0.325530	1.079359
O123	O	1.359213	-0.437817	0.908255
O124	O	1.859213	0.062183	1.408255
H125	H	1.359413	-0.437028	0.820186
H126	H	1.859413	0.062972	1.320186
H127	H	1.556699	-0.456557	1.050056
H128	H	2.056699	0.043443	1.550056
H129	H	1.622370	-0.605670	0.596938
H130	H	2.122370	-0.105670	1.096938
H131	H	1.693611	-0.370111	0.922779
H132	H	2.193611	0.129889	1.422779
H133	H	1.339300	-0.306592	1.059783
H134	H	1.839300	0.193408	1.559783
O135	O	0.942440	-0.302187	0.698949
O136	O	1.442440	0.197813	1.198949
H137	H	0.854340	-0.301896	0.697643
H138	H	1.354340	0.198104	1.197643
O139	O	1.673866	-0.238803	1.073878
O140	O	2.173866	0.261197	1.573878
H141	H	1.656369	-0.185814	1.047683
H142	H	2.156369	0.314186	1.547683
H143	H	1.665771	-0.937121	0.640274
H144	H	2.165771	-0.437121	1.140274
H145	H	1.476099	-0.220070	0.932351
H146	H	1.976099	0.279930	1.432351
H147	H	1.077641	-0.425064	0.616144
H148	H	1.577641	0.074936	1.116144
O149	O	1.391759	-1.080167	0.365879
O150	O	1.891759	-0.580167	0.865879
H151	H	1.346854	-1.042388	0.320958
H152	H	1.846854	-0.542388	0.820958
H153	H	1.090799	-0.220122	0.546833
H154	H	1.590799	0.279878	1.046833
H155	H	1.418882	-0.937370	0.393090
H156	H	1.918882	-0.437370	0.893090
O157	O	0.931491	-0.474256	0.426377
O158	O	1.431491	0.025744	0.926377
H159	H	0.880447	-0.494855	0.490760
H160	H	1.380447	0.005145	0.990760
O161	O	1.348365	-0.748697	0.322521
O162	O	1.848365	-0.248697	0.822521
H163	H	1.356147	-0.805856	0.330263
H164	H	1.856147	-0.305856	0.830263
H165	H	1.375475	-0.605910	0.349754
H166	H	1.875475	-0.105910	0.849754
H167	H	1.427855	-0.850592	0.402094
H168	H	1.927855	-0.350592	0.902094
