data_functionalizedCrystal
_audit_creation_method	'MofGen! by Chris Wilmer'
_symmetry_space_group_name_H-M	'P1'
_symmetry_Int_Tables_number	1
_symmetry_cell_setting	triclinic
loop_
_symmetry_equiv_pos_as_xyz
  x,y,z
_cell_length_a	10.723024
_cell_length_b	14.750779
_cell_length_c	10.723023
_cell_angle_alpha	102.763774
_cell_angle_beta	84.467709
_cell_angle_gamma	77.235498
loop_
_atom_site_label
_atom_site_type_symbol
_atom_site_fract_x
_atom_site_fract_y
_atom_site_fract_z
O1	O	1.630334	0.079817	0.201867
O2	O	1.267180	0.079820	0.218622
O3	O	1.457135	0.079815	0.028667
O4	O	1.440378	0.079823	0.391822
O5	O	1.510833	-0.079837	-0.025025
O6	O	1.320878	-0.079831	0.164930
O7	O	1.684032	-0.079834	0.148175
Zn8	Zn	1.510981	-0.105181	0.148028
Zn9	Zn	1.440231	0.105167	0.218769
O10	O	1.494076	-0.079829	0.338130
C11	C	1.247529	-0.000005	0.190557
C12	C	1.108975	-0.000004	0.186909
N13	N	1.559274	-0.248738	0.099748
C14	C	1.033991	-0.000001	0.293198
C15	C	0.890787	0.000000	0.289431
C16	C	1.257069	-0.600548	0.401823
C17	C	1.290919	-0.701048	0.368000
C18	C	1.459160	-0.701015	0.199858
C19	C	1.425320	-0.600513	0.233663
C20	C	1.324274	-0.550287	0.334647
C21	C	1.492525	-0.550253	0.166487
C22	C	1.458691	-0.449759	0.200294
C23	C	1.357652	-0.399526	0.301277
C24	C	1.290440	-0.449794	0.368454
C25	C	1.593576	-0.600481	0.065509
C26	C	1.660781	-0.550220	-0.001667
C27	C	1.626942	-0.449725	0.032134
C28	C	1.525903	-0.399492	0.133117
C29	C	1.694154	-0.399458	-0.035044
C30	C	1.660320	-0.298964	-0.001237
C31	C	1.492069	-0.298999	0.166924
C32	C	1.703682	-0.000007	0.176241
C33	C	1.842234	-0.000002	0.179891
C34	C	1.482765	-0.000010	-0.044678
C35	C	1.479117	-0.000007	-0.183232
N36	N	1.391947	0.248724	0.267040
C37	C	1.449673	0.082699	-0.217183
C38	C	1.445902	0.082704	-0.360384
C39	C	1.468446	-0.000002	0.411476
C40	C	1.472092	0.000001	0.550032
H41	H	1.075814	-0.000004	0.386983
H42	H	1.743057	-0.591126	-0.083887
C43	C	0.803743	0.000003	0.412361
N44	N	0.738179	0.000003	0.504955
C45	C	0.929271	-0.000008	0.056954
N46	N	0.994838	-0.000014	-0.035642
H47	H	1.501524	-0.070810	-0.260180
C48	C	1.380862	-0.243744	0.277961
N49	N	1.297090	-0.202127	0.361577
H50	H	1.067145	0.000019	0.093131
C51	C	1.179233	-0.394540	0.479492
N52	N	1.095462	-0.352922	0.563108
C53	C	1.419397	0.178355	-0.113233
N54	N	1.396597	0.250406	-0.034940
C55	C	1.411837	0.178366	-0.399968
N56	N	1.386177	0.250421	-0.429784
H57	H	1.236185	-0.741965	0.422713
H58	H	1.330110	-0.317698	0.328805
C59	C	1.506155	-0.095664	-0.410394
N60	N	1.531808	-0.167719	-0.380577
C61	C	1.734246	-0.243675	-0.075137
N62	N	1.789931	-0.202030	-0.130799
H63	H	1.776434	-0.440365	-0.117258
H64	H	1.541436	-0.741921	0.117638
C65	C	1.145862	-0.545293	0.512861
N66	N	1.062090	-0.503676	0.596476
C67	C	1.630791	-0.711027	0.028322
N68	N	1.658818	-0.794291	0.000312
