data_functionalizedCrystal
_audit_creation_method	'MofGen! by Chris Wilmer'
_symmetry_space_group_name_H-M	'P1'
_symmetry_Int_Tables_number	1
_symmetry_cell_setting	triclinic
loop_
_symmetry_equiv_pos_as_xyz
  x,y,z
_cell_length_a	18.215407
_cell_length_b	21.295417
_cell_length_c	21.295420
_cell_angle_alpha	90.018953
_cell_angle_beta	90.006529
_cell_angle_gamma	90.030955
loop_
_atom_site_label
_atom_site_type_symbol
_atom_site_fract_x
_atom_site_fract_y
_atom_site_fract_z
Zn1	Zn	1.124947	-0.250690	0.355913
Zn2	Zn	1.124871	-0.355937	0.250639
Zn3	Zn	1.001908	-0.250687	0.250658
Zn4	Zn	1.001833	-0.355926	0.355870
O5	O	1.063390	-0.303310	0.303270
O6	O	1.227921	-0.264657	0.341958
O7	O	1.108560	-0.341978	0.162552
O8	O	1.018292	-0.162598	0.264647
O9	O	1.227866	-0.341982	0.264614
O10	O	1.108688	-0.162600	0.341977
O11	O	1.018219	-0.264651	0.162566
O12	O	0.898914	-0.264641	0.264605
O13	O	1.018164	-0.341964	0.443965
O14	O	0.898859	-0.341960	0.341904
O15	O	1.108615	-0.264647	0.443997
O16	O	1.108487	-0.444025	0.264572
O17	O	1.018092	-0.444017	0.341885
C18	C	0.872183	-0.303299	0.303252
C19	C	0.790384	-0.303310	0.303259
C20	C	0.602181	-0.343633	0.343458
C21	C	0.525322	-0.343635	0.343466
C22	C	0.525350	-0.262998	0.263096
C23	C	0.602207	-0.262994	0.263092
C24	C	0.640621	-0.303315	0.303272
C25	C	0.486905	-0.303321	0.303284
C26	C	0.403571	-0.303323	0.303292
C27	C	0.723960	-0.303312	0.303265
C28	C	1.063293	-0.466862	0.303235
C29	C	1.063319	-0.536830	0.303241
C30	C	1.110430	-0.569680	0.263026
C31	C	1.110465	-0.635422	0.263040
C32	C	1.063375	-0.668312	0.303263
C33	C	1.016261	-0.635454	0.343487
C34	C	1.016233	-0.569713	0.343476
N35	N	0.998995	-0.771580	0.308056
N36	N	0.999024	-0.834031	0.308063
C37	C	1.063458	-0.866387	0.303299
N38	N	1.127863	-0.833932	0.298517
N39	N	1.127834	-0.771475	0.298507
C40	C	1.063400	-0.739598	0.303280
C41	C	1.110610	-0.970522	0.263097
C42	C	1.110646	-1.036266	0.263115
C43	C	1.016435	-1.036297	0.343559
C44	C	1.016406	-0.970555	0.343543
C45	C	1.063492	-0.937671	0.303309
C46	C	1.255343	-0.303321	0.303289
C47	C	1.337141	-0.303326	0.303296
C48	C	1.063390	-0.303304	0.467460
C49	C	1.063390	-0.303302	0.537428
C50	C	1.063507	-0.139120	0.303319
C51	C	1.063556	-0.069152	0.303340
C52	C	1.110455	-0.263050	1.036904
C53	C	1.110463	-0.263052	0.971161
C54	C	1.063372	-0.303305	0.938268
C55	C	1.016282	-0.343571	0.971122
C56	C	1.016281	-0.343573	1.036864
N57	N	0.998951	-0.308127	0.835039
N58	N	0.998954	-0.308121	0.772588
C59	C	1.063374	-0.303302	0.740193
N60	N	1.127791	-0.298476	0.772609
N61	N	1.127787	-0.298478	0.835067
C62	C	1.063368	-0.303307	0.866983
C63	C	1.110472	-0.263042	0.636061
C64	C	1.110481	-0.263048	0.570317
C65	C	1.016294	-0.343564	0.570280
C66	C	1.016291	-0.343562	0.636022
C67	C	1.063379	-0.303297	0.668909
C68	C	1.063380	-0.303324	1.139719
C69	C	1.063369	-0.303309	1.069750
H70	H	1.148831	-0.662174	0.230292
H71	H	0.977941	-0.376346	0.944336
C72	C	1.161543	-0.219237	1.072524
C73	C	1.145568	-0.156955	1.056537
C74	C	1.192622	-0.116578	1.089331
H75	H	1.154851	-0.224913	1.116393
H76	H	1.210995	-0.228412	1.061734
H77	H	1.096127	-0.147783	1.067331
H78	H	1.152264	-0.151259	1.012674
H79	H	1.242074	-0.125753	1.078542
H80	H	1.185927	-0.122260	1.133198
H81	H	1.181794	-0.074316	1.078485
C82	C	0.483734	-0.219264	0.219368
C83	C	0.502423	-0.232866	0.157060
C84	C	0.464109	-0.192586	0.116759
H85	H	0.432444	-0.225003	0.225040
H86	H	0.496368	-0.176971	0.228619
H87	H	0.489783	-0.275150	0.147812
H88	H	0.553706	-0.227124	0.151368
H89	H	0.476743	-0.150293	0.126010
H90	H	0.412821	-0.198328	0.122437
H91	H	0.476789	-0.201806	0.074480
H92	H	0.977937	-0.376357	1.063607
H93	H	0.977954	-0.376341	0.543498
H94	H	1.148814	-0.230257	0.662839
C95	C	0.965120	-0.534124	0.387240
C96	C	0.981082	-0.550080	0.449538
C97	C	0.934004	-0.517312	0.489870
H98	H	0.971799	-0.490251	0.381557
H99	H	0.915674	-0.544955	0.378029
H100	H	1.030516	-0.539244	0.458746
H101	H	0.974398	-0.593947	0.455242
H102	H	0.884558	-0.528144	0.480659
H103	H	0.940687	-0.473442	0.484181
H104	H	0.944823	-0.528138	0.532143
C105	C	0.643927	-0.387481	0.386982
C106	C	0.688007	-0.427787	0.351267
C107	C	0.726463	-0.468193	0.391341
H108	H	0.673988	-0.363512	0.414463
H109	H	0.610046	-0.411529	0.410906
H110	H	0.721884	-0.403741	0.327353
H111	H	0.657964	-0.451770	0.323787
H112	H	0.692582	-0.492241	0.415266
H113	H	0.756520	-0.444218	0.418820
H114	H	0.756371	-0.495548	0.367114
C115	C	1.161635	-0.219268	0.534766
C116	C	1.202855	-0.183997	0.577642
C117	C	1.249979	-0.143654	0.544914
H118	H	1.193755	-0.243276	0.509115
H119	H	1.133516	-0.191808	0.509139
H120	H	1.230972	-0.211453	0.603258
H121	H	1.170755	-0.159976	0.603294
H122	H	1.221860	-0.116194	0.519287
H123	H	1.282094	-0.167667	0.519264
H124	H	1.277948	-0.119714	0.574000
C125	C	0.644042	-0.219319	0.219420
C126	C	0.688153	-0.254899	0.179019
C127	C	0.726709	-0.214688	0.138790
H128	H	0.610242	-0.195294	0.195428
H129	H	0.674086	-0.191936	0.243533
H130	H	0.658112	-0.282271	0.154908
H131	H	0.721966	-0.278923	0.202994
H132	H	0.756753	-0.187305	0.162903
H133	H	0.692904	-0.190666	0.114802
H134	H	0.756648	-0.238823	0.111377
C135	C	0.965080	-0.387290	0.671575
C136	C	0.923826	-0.422531	0.628700
C137	C	0.876635	-0.462817	0.661428
H138	H	0.993130	-0.414775	0.697217
H139	H	0.932991	-0.363222	0.697211
H140	H	0.955911	-0.446597	0.603074
H141	H	0.895761	-0.395063	0.603056
H142	H	0.844546	-0.438750	0.687064
H143	H	0.904691	-0.490298	0.687069
H144	H	0.848634	-0.486730	0.632342
C145	C	1.161518	-0.534061	0.219248
C146	C	1.145572	-0.550108	0.156956
C147	C	1.192627	-0.517314	0.116612
H148	H	1.154805	-0.490192	0.224913
H149	H	1.210971	-0.544810	0.228466
H150	H	1.096131	-0.539354	0.147741
H151	H	1.152289	-0.593971	0.151270
H152	H	1.242081	-0.528063	0.125830
H153	H	1.185911	-0.473447	0.122283
H154	H	1.181819	-0.528201	0.074343
C155	C	0.483721	-0.387481	0.387120
C156	C	0.533815	-0.422799	0.422294
C157	C	0.495519	-0.463203	0.462511
H158	H	0.453756	-0.363514	0.414651
H159	H	0.453732	-0.414907	0.363006
H160	H	0.563790	-0.395376	0.446406
H161	H	0.563781	-0.446778	0.394780
H162	H	0.465531	-0.490629	0.438397
H163	H	0.465556	-0.439231	0.490037
H164	H	0.529502	-0.487175	0.486377
C165	C	0.965162	-0.671274	0.387089
C166	C	0.975254	-0.735879	0.378479
C167	C	0.928188	-0.768895	0.418632
H168	H	0.975842	-0.660548	0.429417
H169	H	0.915703	-0.660578	0.377830
H170	H	1.024701	-0.746571	0.387742
H171	H	0.964568	-0.746624	0.336159
H172	H	0.878730	-0.758199	0.409373
H173	H	0.938872	-0.758164	0.460957
H174	H	0.935025	-0.812733	0.412791
H175	H	1.148953	-0.943748	0.230337
C176	C	1.161827	-1.071821	0.219381
C177	C	1.203039	-1.028948	0.184134
C178	C	1.250188	-1.061679	0.143833
H179	H	1.193950	-1.097430	0.243419
H180	H	1.133726	-1.097490	0.191905
H181	H	1.231138	-1.003290	0.211607
H182	H	1.170936	-1.003338	0.160084
H183	H	1.222087	-1.087349	0.116357
H184	H	1.282306	-1.087287	0.167876
H185	H	1.278151	-1.032595	0.119909
H186	H	0.978097	-1.063076	0.376312
C187	C	0.965167	-0.934998	0.387224
C188	C	0.923919	-0.977870	0.422442
C189	C	0.876702	-0.945139	0.462684
H190	H	0.993197	-0.909313	0.414726
H191	H	0.933074	-0.909404	0.363126
H192	H	0.956008	-1.003453	0.446539
H193	H	0.895874	-1.003557	0.394957
H194	H	0.844610	-0.919545	0.438585
H195	H	0.904738	-0.919455	0.490182
H196	H	0.848706	-0.974223	0.486580
H197	H	1.148806	-0.230266	0.944413
