data_functionalizedCrystal
_audit_creation_method	'MofGen! by Chris Wilmer'
_symmetry_space_group_name_H-M	'P1'
_symmetry_Int_Tables_number	1
_symmetry_cell_setting	triclinic
loop_
_symmetry_equiv_pos_as_xyz
  x,y,z
_cell_length_a	12.759401
_cell_length_b	19.805405
_cell_length_c	19.805399
_cell_angle_alpha	89.971945
_cell_angle_beta	90.017921
_cell_angle_gamma	89.966564
loop_
_atom_site_label
_atom_site_type_symbol
_atom_site_fract_x
_atom_site_fract_y
_atom_site_fract_z
Zn1	Zn	1.606089	0.269474	0.382688
Zn2	Zn	1.605936	0.382663	0.269498
Zn3	Zn	1.430400	0.269493	0.269515
Zn4	Zn	1.430323	0.382627	0.382648
O5	O	1.518187	0.326064	0.326087
O6	O	1.753090	0.284496	0.367682
O7	O	1.582619	0.367673	0.174784
O8	O	1.453802	0.174774	0.284551
O9	O	1.752977	0.367655	0.284522
O10	O	1.582880	0.174760	0.367699
O11	O	1.453654	0.284528	0.174797
O12	O	1.283369	0.284494	0.284513
O13	O	1.453670	0.367594	0.477370
O14	O	1.283312	0.367613	0.367632
O15	O	1.582805	0.284461	0.477399
O16	O	1.582544	0.477374	0.284484
O17	O	1.453522	0.477348	0.367615
C18	C	1.245220	0.326052	0.326071
C19	C	1.128443	0.326063	0.326079
C20	C	1.073519	0.369295	0.282723
C21	C	0.963794	0.369307	0.282740
C22	C	0.963929	0.282849	0.369474
C23	C	1.073651	0.282841	0.369459
C24	C	0.813766	0.449110	0.258432
C25	C	0.758838	0.492335	0.215065
C26	C	0.794387	0.502637	0.148997
C27	C	0.884863	0.469703	0.126284
C28	C	0.939786	0.426472	0.169648
C29	C	0.904238	0.416183	0.235725
C30	C	1.223682	0.203037	0.393760
C31	C	1.278606	0.159802	0.437121
C32	C	1.243059	0.149494	0.503189
C33	C	1.152579	0.182416	0.525900
C34	C	1.097655	0.225651	0.482539
C35	C	1.133210	0.235960	0.416472
C36	C	1.518036	0.501920	0.326059
C37	C	1.518068	0.577152	0.326069
C38	C	1.585233	0.612431	0.369397
C39	C	1.585259	0.683119	0.369407
C40	C	1.518124	0.718528	0.326086
C41	C	1.450952	0.683244	0.282757
C42	C	1.450922	0.612557	0.282750
C43	C	1.451071	0.968318	0.282784
C44	C	1.451108	1.039010	0.282793
C45	C	1.585408	1.038880	0.369442
C46	C	1.585378	0.968193	0.369435
C47	C	1.518202	0.932915	0.326108
C48	C	1.518174	0.856267	0.326098
C49	C	1.518157	0.795175	0.326093
C50	C	1.792220	0.326077	0.326105
C51	C	1.908997	0.326082	0.326112
C52	C	1.518323	1.149522	0.326125
C53	C	1.518268	1.074290	0.326125
C54	C	1.518246	0.326022	0.502630
C55	C	1.518271	0.326003	0.577862
C56	C	1.518189	0.326058	0.150231
C57	C	1.518367	0.325885	0.075000
C58	C	1.585513	0.282714	0.613222
C59	C	1.585524	0.282694	0.683911
C60	C	1.518297	0.325968	0.719238
C61	C	1.451048	0.369260	0.683873
C62	C	1.451032	0.369275	0.613186
C63	C	1.451107	0.369196	0.968946
C64	C	1.451130	0.369179	1.039638
C65	C	1.585598	0.282616	1.039672
C66	C	1.585583	0.282631	0.968984
C67	C	1.518330	0.325920	0.933625
C68	C	1.518318	0.325940	0.856977
C69	C	1.518314	0.325952	0.795885
H70	H	0.749659	0.537835	0.113688
H71	H	1.640048	0.939365	0.404708
Cl72	Cl	0.769079	0.436173	0.341496
H73	H	1.013447	0.399656	0.151155
H74	H	1.396376	0.939600	0.247505
H75	H	1.639906	0.583606	0.404670
H76	H	1.396285	0.712080	0.247487
Cl77	Cl	1.366481	0.568207	0.228279
Cl78	Cl	1.670107	0.228301	0.728361
H79	H	1.396307	0.404491	0.712642
Cl80	Cl	1.670037	0.228313	0.568818
Cl81	Cl	1.107880	0.169453	0.608958
H82	H	1.640102	1.067611	0.404723
H83	H	1.639959	0.711840	0.404684
Cl84	Cl	1.670103	0.228230	0.924577
H85	H	1.640355	0.247365	1.068469
Cl86	Cl	1.366609	0.423584	1.084049
Cl87	Cl	1.366702	1.083523	0.228329
H88	H	1.396361	0.404455	0.940165
H89	H	1.396267	0.404519	0.584396
H90	H	1.118127	0.404491	0.247402
H91	H	0.913794	0.478088	0.072483
H92	H	0.685171	0.519150	0.233564
Cl93	Cl	1.268383	0.216000	0.310701
Cl94	Cl	0.983907	0.267039	0.511091
Cl95	Cl	1.312097	0.095129	0.557696
Cl96	Cl	0.895040	0.228514	0.424004
H97	H	1.352274	0.132991	0.418622
