data_functionalizedCrystal
_audit_creation_method	'MofGen! by Chris Wilmer'
_symmetry_space_group_name_H-M	'P1'
_symmetry_Int_Tables_number	1
_symmetry_cell_setting	triclinic
loop_
_symmetry_equiv_pos_as_xyz
  x,y,z
_cell_length_a	18.101398
_cell_length_b	18.101397
_cell_length_c	12.759387
_cell_angle_alpha	89.962982
_cell_angle_beta	89.971304
_cell_angle_gamma	90.018196
loop_
_atom_site_label
_atom_site_type_symbol
_atom_site_fract_x
_atom_site_fract_y
_atom_site_fract_z
Zn1	Zn	1.132204	-0.294835	-0.594189
Zn2	Zn	1.132115	-0.418695	-0.418491
Zn3	Zn	1.008355	-0.294867	-0.418501
Zn4	Zn	1.008337	-0.418635	-0.594105
O5	O	1.070253	-0.356758	-0.506321
O6	O	1.235825	-0.311278	-0.570913
O7	O	1.115668	-0.402308	-0.271471
O8	O	1.024829	-0.191230	-0.441846
O9	O	1.235759	-0.402277	-0.441828
O10	O	1.115820	-0.191207	-0.570924
O11	O	1.024742	-0.311332	-0.271478
O12	O	0.904720	-0.311273	-0.441764
O13	O	1.024798	-0.402173	-0.741137
O14	O	0.904706	-0.402205	-0.570779
O15	O	1.115803	-0.311219	-0.741199
O16	O	1.115650	-0.522320	-0.441746
O17	O	1.024711	-0.522276	-0.570769
C18	C	0.877842	-0.356736	-0.506264
C19	C	0.795528	-0.356745	-0.506265
C20	C	0.644820	-0.356760	-0.506312
C21	C	0.613449	-0.299467	-0.425274
C22	C	0.527831	-0.299251	-0.425540
C23	C	0.496437	-0.356775	-0.506357
C24	C	0.527578	-0.335934	-0.617206
C25	C	0.613223	-0.335510	-0.616712
C26	C	0.613229	-0.435043	-0.477477
C27	C	0.527577	-0.434630	-0.475062
C28	C	0.412578	-0.356785	-0.506389
C29	C	0.728679	-0.356749	-0.506287
C30	C	1.070189	-0.549169	-0.506270
C31	C	1.070230	-0.631483	-0.506284
C32	C	1.070324	-0.930574	-0.506380
C33	C	1.127381	-0.899246	-0.424984
C34	C	1.127579	-0.813627	-0.425195
C35	C	1.070278	-0.782191	-0.506331
C36	C	1.091439	-0.813191	-0.617077
C37	C	1.091880	-0.898836	-0.616633
C38	C	0.991954	-0.899082	-0.477988
C39	C	0.992341	-0.813433	-0.475516
C40	C	1.070250	-0.698332	-0.506310
C41	C	1.070354	-1.014433	-0.506408
C42	C	1.263415	-0.356781	-0.506379
C43	C	1.345729	-0.356790	-0.506404
C44	C	1.070309	-0.356686	-0.780355
C45	C	1.070332	-0.356655	-0.897132
C46	C	1.070336	-0.163596	-0.506395
C47	C	1.070372	-0.081282	-0.506427
C48	C	1.165102	-0.261950	-0.897216
C49	C	1.212497	-0.214586	-0.952119
C50	C	1.212515	-0.214559	-1.061841
C51	C	1.165132	-0.261899	-1.116662
C52	C	1.117736	-0.309263	-1.061759
C53	C	1.117725	-0.309286	-0.952035
C54	C	1.022964	-0.403963	-1.061675
C55	C	1.022949	-0.403995	-0.951953
C56	C	0.975580	-0.451303	-1.116496
C57	C	0.928188	-0.498672	-1.061593
C58	C	0.928172	-0.498697	-0.951864
C59	C	0.975553	-0.451358	-0.897050
C60	C	1.070240	-0.356777	-0.233354
C61	C	1.070359	-0.356599	-0.116578
H62	H	1.114339	-0.792672	-0.343079
H63	H	0.947543	-0.792041	-0.530458
O64	O	0.501935	-0.268494	-0.646926
C65	C	0.461418	-0.275497	-0.740744
H66	H	0.440766	-0.334714	-0.748916
H67	H	0.498462	-0.261277	-0.810176
C68	C	0.420383	-0.149629	-0.728361
C69	C	0.395013	-0.222359	-0.738393
H70	H	0.379423	-0.116849	-0.726913
H71	H	0.447682	-0.144909	-0.665156
H72	H	0.451253	-0.137790	-0.786222
H73	H	0.364151	-0.234200	-0.680525
H74	H	0.367707	-0.227079	-0.801588
H75	H	0.506772	-0.312255	-0.343361
H76	H	0.507359	-0.241249	-0.444685
O77	O	0.639215	-0.230660	-0.447664
C78	C	0.679580	-0.203497	-0.361416
H79	H	0.700075	-0.251790	-0.311971
H80	H	0.642471	-0.166610	-0.311708
C81	C	0.720939	-0.099104	-0.461870
C82	C	0.746118	-0.158419	-0.401146
H83	H	0.761981	-0.071295	-0.486376
H84	H	0.693743	-0.117402	-0.519976
H85	H	0.690015	-0.068373	-0.420438
H86	H	0.777033	-0.189153	-0.442582
H87	H	0.773321	-0.140125	-0.343047
O88	O	0.638985	-0.457621	-0.382615
C89	C	0.686030	-0.402983	-0.340850
H90	H	0.672277	-0.347240	-0.377594
H91	H	0.745924	-0.417773	-0.358821
C92	C	0.691982	-0.467083	-0.176189
C93	C	0.675086	-0.398618	-0.221312
H94	H	0.685234	-0.464392	-0.102452
H95	H	0.660289	-0.503896	-0.204328
H96	H	0.741893	-0.479401	-0.191175
H97	H	0.625173	-0.386306	-0.206338
H98	H	0.706770	-0.361803	-0.193169
O99	O	1.196849	-0.789079	-0.447429
C100	C	1.223084	-0.745865	-0.363413
H101	H	1.192231	-0.761496	-0.288706
H102	H	1.213544	-0.684907	-0.381365
C103	C	1.344199	-0.740695	-0.440059
C104	C	1.306309	-0.759897	-0.348302
H105	H	1.395537	-0.749347	-0.430740
H106	H	1.326524	-0.769807	-0.496665
H107	H	1.336241	-0.689897	-0.455010
H108	H	1.314260	-0.810696	-0.333360
H109	H	1.323988	-0.730794	-0.291693
O110	O	1.196305	-0.924807	-0.446963
C111	C	1.246868	-0.896244	-0.373370
H112	H	1.216143	-0.880171	-0.298785
H113	H	1.275275	-0.845447	-0.407607
C114	C	1.342966	-0.975117	-0.439094
C115	C	1.305230	-0.955381	-0.347483
H116	H	1.378970	-1.011593	-0.423128
H117	H	1.308903	-0.994359	-0.488678
H118	H	1.366633	-0.932780	-0.467615
H119	H	1.281557	-0.997716	-0.318971
H120	H	1.339292	-0.936148	-0.297893
O121	O	1.258447	-0.168499	-0.898910
C122	C	1.242321	-0.094678	-0.925764
H123	H	1.183165	-0.090916	-0.955903
H124	H	1.282046	-0.075314	-0.989477
C125	C	1.323610	-0.049903	-0.791300
C126	C	1.250951	-0.045280	-0.828309
H127	H	1.328936	-0.019430	-0.731188
H128	H	1.334477	-0.099637	-0.773210
H129	H	1.356706	-0.033767	-0.844403
H130	H	1.217858	-0.061424	-0.775211
H131	H	1.240079	0.004452	-0.846388
H132	H	0.506201	-0.479581	-0.529743
H133	H	1.165099	-0.261974	-0.807875
O134	O	0.503199	-0.453293	-0.377748
C135	C	0.458214	-0.396210	-0.338063
H136	H	0.435002	-0.362435	-0.405909
H137	H	0.492496	-0.358868	-0.285082
C138	C	0.422631	-0.471408	-0.191302
C139	C	0.394117	-0.429928	-0.274633
H140	H	0.383095	-0.492206	-0.152171
H141	H	0.452940	-0.509865	-0.218036
H142	H	0.451199	-0.440283	-0.147164
H143	H	0.365558	-0.461056	-0.318776
H144	H	0.363801	-0.391477	-0.247904
H145	H	1.051152	-0.792825	-0.679354
H146	H	0.633514	-0.477725	-0.536501
O147	O	0.503232	-0.384242	-0.691117
C148	C	0.457591	-0.437771	-0.643556
H149	H	0.434140	-0.414736	-0.567356
H150	H	0.491395	-0.489453	-0.626056
C151	C	0.422550	-0.485839	-0.811765
C152	C	0.393743	-0.457544	-0.718179
H153	H	0.383168	-0.498039	-0.857797
H154	H	0.453302	-0.449777	-0.843809
H155	H	0.450720	-0.528904	-0.797168
H156	H	0.365582	-0.414476	-0.732776
H157	H	0.362986	-0.493599	-0.686140
O158	O	0.637959	-0.383055	-0.691375
C159	C	0.611750	-0.360461	-0.790372
H160	H	0.598153	-0.298994	-0.788164
H161	H	0.559861	-0.393089	-0.810897
C162	C	0.688283	-0.450235	-0.876478
C163	C	0.671588	-0.374738	-0.873769
H164	H	0.725192	-0.459044	-0.927923
H165	H	0.705938	-0.465459	-0.809782
H166	H	0.645037	-0.477415	-0.893579
H167	H	0.714831	-0.347560	-0.856655
H168	H	0.653941	-0.359509	-0.940464
O169	O	0.637121	-0.267306	-0.645953
C170	C	0.680547	-0.273303	-0.737316
H171	H	0.665530	-0.326277	-0.780635
H172	H	0.741488	-0.274740	-0.714895
C173	C	0.684390	-0.141290	-0.755680
C174	C	0.665942	-0.206351	-0.808890
H175	H	0.675385	-0.099990	-0.799829
H176	H	0.655136	-0.137249	-0.694125
H177	H	0.735174	-0.142498	-0.736999
H178	H	0.615158	-0.205146	-0.827558
H179	H	0.695188	-0.210390	-0.870451
H180	H	1.114302	-0.919895	-0.342623
O181	O	0.969024	-0.925047	-0.383365
C182	C	0.964977	-1.002797	-0.386694
H183	H	1.002709	-1.024371	-0.451349
H184	H	0.905658	-1.020403	-0.403337
C185	C	0.943372	-1.008303	-0.201103
C186	C	0.989721	-1.034801	-0.280507
H187	H	0.958632	-1.028046	-0.135601
H188	H	0.946096	-0.955921	-0.198860
H189	H	0.893944	-1.022977	-0.214986
H190	H	1.039146	-1.020119	-0.266631
H191	H	0.987006	-1.087181	-0.282746
O192	O	0.882216	-0.544816	-0.898577
C193	C	0.898357	-0.618620	-0.925390
H194	H	0.957520	-0.622359	-0.955584
H195	H	0.858648	-0.637955	-0.989050
C196	C	0.817044	-0.663478	-0.790813
C197	C	0.889711	-0.668072	-0.827890
H198	H	0.811707	-0.693983	-0.730673
H199	H	0.806167	-0.613755	-0.772751
H200	H	0.783961	-0.679589	-0.843873
H201	H	0.922790	-0.651952	-0.774836
H202	H	0.900593	-0.717793	-0.845941
H203	H	0.949443	-0.919341	-0.537271
H204	H	1.149166	-0.918755	-0.640682
O205	O	1.044553	-0.923527	-0.691593
C206	C	1.067422	-0.897188	-0.790439
H207	H	1.128880	-0.883541	-0.787858
H208	H	1.034843	-0.845304	-0.811125
C209	C	0.977912	-0.973700	-0.877126
C210	C	1.053397	-0.956945	-0.873958
H211	H	0.969258	-1.010559	-0.928646
H212	H	0.962502	-0.991444	-0.810532
H213	H	0.950771	-0.930458	-0.894360
H214	H	1.080535	-1.000184	-0.856711
H215	H	1.068811	-0.939209	-0.940552
H216	H	0.976385	-0.793180	-0.394016
O217	O	1.159040	-0.787502	-0.646073
C218	C	1.187351	-0.741481	-0.566533
H219	H	1.159913	-0.755925	-0.488732
H220	H	1.175469	-0.681290	-0.586745
C221	C	1.305088	-0.735265	-0.652997
C222	C	1.271393	-0.753010	-0.557439
H223	H	1.356930	-0.742373	-0.647390
H224	H	1.286014	-0.766268	-0.706588
H225	H	1.295179	-0.685106	-0.669830
H226	H	1.281295	-0.803169	-0.540614
H227	H	1.290471	-0.722016	-0.503845
H228	H	1.251104	-0.175987	-1.106543
O229	O	1.165260	-0.261798	-1.223245
C230	C	1.217234	-0.209825	-1.259948
H231	H	1.260501	-0.199479	-1.196744
H232	H	1.187897	-0.155814	-1.279420
C233	C	1.202047	-0.252694	-1.436745
C234	C	1.255192	-0.239992	-1.359119
H235	H	1.225459	-0.271300	-1.497920
H236	H	1.167029	-0.287708	-1.412018
H237	H	1.177604	-0.207682	-1.452958
H238	H	1.279627	-0.285005	-1.342898
H239	H	1.290215	-0.204986	-1.383845
O240	O	0.975600	-0.451414	-1.223079
C241	C	0.994602	-0.522383	-1.259707
H242	H	0.981915	-0.565050	-1.196450
H243	H	1.056052	-0.523964	-1.279197
C244	C	0.965072	-0.487731	-1.436533
C245	C	0.949483	-0.540136	-1.358843
H246	H	0.937243	-0.498681	-1.497687
H247	H	0.952272	-0.439917	-1.411857
H248	H	1.016281	-0.489054	-1.452762
H249	H	0.898277	-0.538806	-1.342605
H250	H	0.962273	-0.587950	-1.383518
H251	H	0.889608	-0.537208	-1.106237
H252	H	0.633989	-0.312322	-0.342821
H253	H	0.975549	-0.451378	-0.807709
