data_functionalizedCrystal
_audit_creation_method	'MofGen! by Chris Wilmer'
_symmetry_space_group_name_H-M	'P1'
_symmetry_Int_Tables_number	1
_symmetry_cell_setting	triclinic
loop_
_symmetry_equiv_pos_as_xyz
  x,y,z
_cell_length_a	13.635800
_cell_length_b	27.923496
_cell_length_c	9.582880
_cell_angle_alpha	85.081990
_cell_angle_beta	68.792966
_cell_angle_gamma	98.963946
loop_
_atom_site_label
_atom_site_type_symbol
_atom_site_fract_x
_atom_site_fract_y
_atom_site_fract_z
V1	V	-2.047361	-0.066920	0.467544
O2	O	-2.051754	0.003426	0.457671
O3	O	-2.012035	-0.132894	0.465283
O4	O	-2.042931	-0.065798	0.671030
O5	O	-2.020644	-0.064134	0.250500
V6	V	-2.288055	-0.058517	0.441470
O7	O	-2.180332	-0.085354	0.524740
O8	O	-2.380182	-0.040083	0.384275
O9	O	-2.211777	0.007457	0.443732
O10	O	-2.342360	-0.128864	0.451344
O11	O	-2.373470	-0.061303	0.658515
O12	O	-2.180881	-0.059639	0.237985
V13	V	-1.547361	-0.066920	0.467544
O14	O	-1.551754	0.003426	0.457671
O15	O	-1.512035	-0.132894	0.465283
O16	O	-1.542931	-0.065798	0.671030
O17	O	-1.520644	-0.064134	0.250500
V18	V	-1.788055	-0.058517	0.441470
O19	O	-1.680332	-0.085354	0.524740
O20	O	-1.880182	-0.040083	0.384275
O21	O	-1.711777	0.007457	0.443732
O22	O	-1.842360	-0.128864	0.451344
O23	O	-1.873470	-0.061303	0.658515
O24	O	-1.680881	-0.059639	0.237985
C25	C	-1.931189	-0.148980	0.458149
C26	C	-1.943081	-0.202914	0.457656
C27	C	-2.108344	-0.539840	0.462267
C28	C	-2.153110	-0.742550	0.460486
O29	O	-2.236620	-0.770863	0.466701
N30	N	-2.067332	-0.765428	0.452754
C31	C	-1.970358	-0.737626	0.445478
O32	O	-1.898430	-0.761737	0.438876
C33	C	-1.925596	-0.534918	0.447270
C34	C	-2.011377	-0.512042	0.454986
C35	C	-2.194117	-0.516964	0.469984
C36	C	-2.182924	-0.466289	0.470421
C37	C	-2.085957	-0.438490	0.463141
C38	C	-2.000183	-0.461367	0.455423
C39	C	-1.828626	-0.507117	0.440004
C40	C	-1.817444	-0.456437	0.440456
C41	C	-1.903225	-0.433561	0.448173
C42	C	-1.892022	-0.382893	0.448579
N43	N	-1.977800	-0.360015	0.456311
C44	C	-2.074767	-0.387814	0.463591
C45	C	-1.993865	-0.844051	0.444534
C46	C	-2.005054	-0.894728	0.444084
C47	C	-2.187806	-0.899648	0.459095
C48	C	-2.176612	-0.848970	0.459534
C49	C	-2.079642	-0.821173	0.452266
C50	C	-2.051252	-0.281393	0.464507
C51	C	-2.040048	-0.230713	0.464937
C52	C	-1.857300	-0.225797	0.449934
C53	C	-1.868501	-0.276472	0.449496
C54	C	-1.965486	-0.304269	0.456788
O55	O	-1.808550	-0.354551	0.442385
O56	O	-2.146690	-0.363695	0.470225
C57	C	-2.119537	-0.590515	0.461830
C58	C	-2.033764	-0.613391	0.454112
C59	C	-1.936797	-0.585593	0.446832
C60	C	-2.044954	-0.664068	0.453662
C61	C	-2.141921	-0.691866	0.460942
C62	C	-2.227698	-0.668988	0.468674
C63	C	-2.216505	-0.618313	0.469110
C64	C	-1.851019	-0.608471	0.439100
C65	C	-1.862220	-0.659146	0.438662
C66	C	-1.959187	-0.686945	0.445943
C67	C	-1.970600	-0.063392	0.720597
C68	C	-2.007547	-0.062912	0.886954
C69	C	-2.124293	0.023540	0.450862
C70	C	-2.102021	0.077474	0.451364
C71	C	-2.084882	-0.062047	0.188410
C72	C	-2.037555	-0.062525	0.022052
C73	C	-1.431189	-0.148980	0.458149
C74	C	-1.443081	-0.202914	0.457656
C75	C	-1.470600	-0.063392	0.720597
C76	C	-1.507547	-0.062912	0.886954
C77	C	-1.624293	0.023540	0.450862
C78	C	-1.602021	0.077474	0.451364
C79	C	-1.584882	-0.062047	0.188410
C80	C	-1.537555	-0.062525	0.022052
C81	C	-1.540048	-0.230713	0.464937
C82	C	-1.551242	-0.281391	0.464497
C83	C	-1.465464	-0.304269	0.456766
C84	C	-1.368490	-0.276467	0.449489
C85	C	-1.357301	-0.225790	0.449940
C86	C	-1.677548	0.105272	0.444088
C87	C	-1.656628	0.155950	0.444535
C88	C	-1.560182	0.178828	0.452270
C89	C	-1.484649	0.151026	0.459542
C90	C	-1.505567	0.100350	0.459084
H91	H	-2.109904	-0.212089	0.471215
H92	H	-1.738480	-0.433808	0.434545
H93	H	-1.630208	-0.304020	0.470419
O94	O	-1.539931	0.228069	0.452510
C95	C	-1.540258	0.252875	0.318230
H96	H	-1.589233	0.227282	0.270134
H97	H	-1.454301	0.264885	0.231817
C98	C	-1.530421	0.329754	0.412326
C99	C	-1.590580	0.298321	0.353260
H100	H	-1.561457	0.357788	0.433930
H101	H	-1.530196	0.313042	0.502791
H102	H	-1.458793	0.339757	0.340305
H103	H	-1.662202	0.288314	0.425288
H104	H	-1.590818	0.315032	0.262807
H105	H	-2.130226	-0.304019	0.470447
O106	O	-1.263008	-0.198858	0.442773
C107	C	-1.189717	-0.229924	0.435886
H108	H	-1.213318	-0.264386	0.390146
H109	H	-1.191135	-0.240598	0.554229
C110	C	-1.046873	-0.160563	0.386466
C111	C	-1.075855	-0.202888	0.330275
H112	H	-0.976637	-0.143885	0.321326
H113	H	-1.096251	-0.139632	0.391111
H114	H	-1.048063	-0.169464	0.485084
H115	H	-1.074678	-0.193986	0.231667
H116	H	-1.026474	-0.223816	0.325610
H117	H	-1.798654	-0.295099	0.443223
H118	H	-2.252779	-0.447668	0.476715
H119	H	-1.406122	0.169662	0.465838
H120	H	-1.444062	0.077720	0.465023
H121	H	-2.246463	-0.830347	0.465814
O122	O	-1.763027	-0.198796	0.442595
C123	C	-1.679570	-0.203165	0.307645
H124	H	-1.714719	-0.213982	0.220827
H125	H	-1.636000	-0.232516	0.332175
C126	C	-1.556611	-0.140393	0.351003
C127	C	-1.599781	-0.153674	0.244368
H128	H	-1.507390	-0.109866	0.311973
H129	H	-1.612836	-0.137451	0.441925
H130	H	-1.520310	-0.164857	0.371436
H131	H	-1.636092	-0.129214	0.223951
H132	H	-1.543561	-0.156612	0.153441
O133	O	-2.281904	-0.926696	0.465956
C134	C	-2.263263	-0.949624	0.335823
H135	H	-2.175406	-0.952900	0.285792
H136	H	-2.282633	-0.926742	0.248462
C137	C	-2.443323	-0.997128	0.440717
C138	C	-2.335417	-1.001156	0.379275
H139	H	-2.487834	-1.028915	0.467517
H140	H	-2.455884	-0.981680	0.528388
H141	H	-2.459449	-0.978058	0.367906
H142	H	-2.319290	-1.020220	0.452093
H143	H	-2.322856	-1.016609	0.291617
H144	H	-2.286357	-0.599692	0.475393
O145	O	-1.476353	-0.353509	0.456586
C146	C	-1.460533	-0.375617	0.582596
H147	H	-1.477064	-0.351017	0.674068
H148	H	-1.374081	-0.380943	0.546356
C149	C	-1.517401	-0.456015	0.533285
C150	C	-1.537713	-0.425803	0.645638
H151	H	-1.565005	-0.486974	0.572170
H152	H	-1.528055	-0.441121	0.448386
H153	H	-1.445356	-0.460449	0.503096
H154	H	-1.609752	-0.421366	0.675812
H155	H	-1.527073	-0.440698	0.730544
O156	O	-2.288374	-0.543886	0.476993
C157	C	-2.361674	-0.512820	0.483941
H158	H	-2.315713	-0.473592	0.434439
H159	H	-2.416917	-0.514228	0.606996
C160	C	-2.485658	-0.578154	0.452972
C161	C	-2.429206	-0.529974	0.392160
H162	H	-2.527319	-0.588736	0.396364
H163	H	-2.436277	-0.599085	0.448297
H164	H	-2.531684	-0.579321	0.555516
H165	H	-2.383171	-0.528808	0.289625
H166	H	-2.478582	-0.509043	0.396816
H167	H	-1.718143	0.178579	0.438615
O168	O	-1.921599	-0.916880	0.436364
C169	C	-1.832700	-0.896483	0.301589
H170	H	-1.840369	-0.858216	0.260605
H171	H	-1.830239	-0.920780	0.211134
C172	C	-1.719139	-0.940074	0.382260
C173	C	-1.728553	-0.893072	0.331930
H174	H	-1.654895	-0.937972	0.400972
H175	H	-1.779032	-0.953818	0.473058
H176	H	-1.717093	-0.960316	0.306872
H177	H	-1.730612	-0.872832	0.407325
H178	H	-1.668658	-0.879325	0.241145
O179	O	-1.756734	-0.581480	0.431747
C180	C	-1.673307	-0.585864	0.296785
H181	H	-1.708484	-0.596676	0.209992
H182	H	-1.629755	-0.615225	0.321309
C183	C	-1.550281	-0.523108	0.340076
C184	C	-1.593486	-0.536383	0.233471
H185	H	-1.501040	-0.492587	0.301023
H186	H	-1.606486	-0.520155	0.431006
H187	H	-1.513996	-0.547579	0.360503
H188	H	-1.629781	-0.511916	0.213060
H189	H	-1.537284	-0.539331	0.142536
H190	H	-1.758769	-0.525734	0.433709
H191	H	-2.306651	-0.691630	0.474588
H192	H	-1.914897	-0.821423	0.438613
H193	H	-1.756085	0.086652	0.437791
H194	H	-1.792358	-0.677767	0.432368
H195	H	-1.609902	-0.212092	0.471223
H196	H	-1.298655	-0.295102	0.443195
