data_functionalizedCrystal
_audit_creation_method	'MofGen! by Chris Wilmer'
_symmetry_space_group_name_H-M	'P1'
_symmetry_Int_Tables_number	1
_symmetry_cell_setting	triclinic
loop_
_symmetry_equiv_pos_as_xyz
  x,y,z
_cell_length_a	12.645330
_cell_length_b	18.101398
_cell_length_c	12.645323
_cell_angle_alpha	90.027810
_cell_angle_beta	90.024870
_cell_angle_gamma	90.012959
loop_
_atom_site_label
_atom_site_type_symbol
_atom_site_fract_x
_atom_site_fract_y
_atom_site_fract_z
Zn1	Zn	-0.422165	1.132216	0.599591
Zn2	Zn	-0.599453	1.132133	0.422332
Zn3	Zn	-0.422189	1.008367	0.422320
Zn4	Zn	-0.599372	1.008354	0.599531
O5	O	-0.510795	1.070267	0.510943
O6	O	-0.445706	1.235837	0.576108
O7	O	-0.575982	1.115686	0.273983
O8	O	-0.273839	1.024836	0.445856
O9	O	-0.575959	1.235777	0.445876
O10	O	-0.273821	1.115827	0.576096
O11	O	-0.445748	1.024755	0.273974
O12	O	-0.445669	0.904732	0.445797
O13	O	-0.575821	1.024814	0.747886
O14	O	-0.575845	0.904723	0.575993
O15	O	-0.445628	1.115814	0.747931
O16	O	-0.747789	1.115673	0.445817
O17	O	-0.747730	1.024734	0.576005
C18	C	-0.510752	0.877857	0.510888
C19	C	-0.510759	0.795543	0.510890
C20	C	-0.510825	0.496452	0.510979
C21	C	-0.428513	0.527758	0.429462
C22	C	-0.428733	0.613376	0.429115
C23	C	-0.510791	0.644834	0.510934
C24	C	-0.622463	0.613733	0.480419
C25	C	-0.622006	0.528088	0.479852
C26	C	-0.482436	0.528067	0.623203
C27	C	-0.479949	0.613717	0.622590
C28	C	-0.510779	0.728694	0.510911
C29	C	-0.510845	0.412592	0.510999
C30	C	-0.786224	1.070213	0.510929
C31	C	-0.904054	1.070258	0.510958
C32	C	-1.071625	1.013284	0.593111
C33	C	-0.949066	1.012992	0.592847
C34	C	-0.948646	1.049129	0.399233
C35	C	-1.071244	1.048781	0.399732
C36	C	-1.071153	1.148710	0.539623
C37	C	-0.948546	1.148229	0.542066
C38	C	-0.234289	1.070342	0.510982
C39	C	-0.116459	1.070374	0.510998
C40	C	-0.510713	1.070322	0.787449
C41	C	-0.510678	1.070345	0.905279
C42	C	-0.510839	1.263429	0.511000
C43	C	-0.510857	1.345743	0.511024
C44	C	-0.510800	1.070256	0.235514
C45	C	-0.510536	1.070376	0.117684
C46	C	-0.592196	1.012920	1.072815
C47	C	-0.592600	1.013071	0.950255
C48	C	-0.541005	1.148377	0.949809
C49	C	-0.541517	1.148062	1.072407
C50	C	-0.398376	1.050477	1.072474
C51	C	-0.399048	1.048736	0.949868
H52	H	-0.685435	0.634110	0.537934
F53	F	-0.909651	1.030269	0.701129
H54	H	-0.535532	0.635134	0.686580
H55	H	-0.542389	0.507822	0.683940
F56	F	-0.648686	1.170107	1.109810
F57	F	-0.453259	0.640113	0.320421
F58	F	-0.315318	1.099443	0.909863
H59	H	-0.917901	1.193004	0.486614
F60	F	-0.701271	1.030276	0.911937
F61	F	-1.109065	1.204307	0.461465
F62	F	-0.654479	0.641722	0.374343
H63	H	-0.484622	1.192322	1.102091
H64	H	-0.919492	1.089392	0.336380
F65	F	-0.362245	0.977397	1.112855
H66	H	-0.345450	0.507175	0.448378
H67	H	-0.573621	0.955208	0.920146
H68	H	-0.447068	0.506208	0.346789
H69	H	-1.100906	1.088559	0.336464
H70	H	-1.101039	1.026382	0.676226
H71	H	-0.376177	0.991311	0.920761
H72	H	-0.918028	0.992462	0.374547
H73	H	-0.573400	0.954886	1.102281
F74	F	-0.372543	0.640301	0.652677
H75	H	-1.102519	0.955572	0.574389
F76	F	-0.465725	1.205833	0.911738
F77	F	-0.700188	1.029888	1.113161
F78	F	-0.653471	0.501929	0.372619
H79	H	-0.622138	1.165533	0.919122
F80	F	-1.108740	0.973933	0.368038
F81	F	-0.910840	0.937084	0.568063
H82	H	-1.101999	1.167983	0.619708
H83	H	-0.345924	0.634404	0.448241
F84	F	-0.910448	1.169058	0.649538
F85	F	-0.318853	1.105174	1.110402
H86	H	-0.402422	0.506483	0.650949
H87	H	-0.685412	0.507379	0.536636
