data_functionalizedCrystal
_audit_creation_method	'MofGen! by Chris Wilmer'
_symmetry_space_group_name_H-M	'P1'
_symmetry_Int_Tables_number	1
_symmetry_cell_setting	triclinic
loop_
_symmetry_equiv_pos_as_xyz
  x,y,z
_cell_length_a	14.044191
_cell_length_b	13.101039
_cell_length_c	17.699083
_cell_angle_alpha	86.645432
_cell_angle_beta	88.237396
_cell_angle_gamma	93.662449
loop_
_atom_site_label
_atom_site_type_symbol
_atom_site_fract_x
_atom_site_fract_y
_atom_site_fract_z
O1	O	1.262509	0.085168	0.178644
O2	O	0.986555	0.085181	0.172055
O3	O	1.132328	0.085165	0.065699
O4	O	1.116736	0.085184	0.285000
O5	O	1.121869	-0.085263	0.073343
O6	O	0.976096	-0.085247	0.179699
O7	O	1.252050	-0.085260	0.186289
Zn8	Zn	1.112412	-0.112313	0.184208
Zn9	Zn	1.126192	0.112234	0.174136
O10	O	1.106277	-0.085244	0.292645
C11	C	0.946018	-0.000032	0.172994
C12	C	0.840812	-0.000027	0.164396
N13	N	1.103014	-0.265561	0.191082
C14	C	0.590421	-0.000033	0.209657
C15	C	0.648190	-0.000037	0.148690
C16	C	0.755375	-0.000031	0.157431
C17	C	0.483226	-0.000039	0.200917
C18	C	1.090228	-0.474602	0.200441
C19	C	1.148381	-0.525484	0.157899
C20	C	1.141266	-0.641801	0.163107
C21	C	1.097341	-0.358274	0.195235
C22	C	1.292587	-0.000045	0.185349
C23	C	1.397793	-0.000043	0.193947
C24	C	1.126539	-0.000049	0.041286
C25	C	1.124863	-0.000049	-0.042848
N26	N	1.135598	0.265482	0.167256
C27	C	1.210429	-0.000055	-0.085565
C28	C	1.208849	-0.000046	-0.164617
C29	C	1.121702	-0.000038	-0.200952
C30	C	1.036130	-0.000030	-0.158230
C31	C	1.037711	-0.000032	-0.079179
C32	C	1.029750	-0.000021	-0.477034
C33	C	1.028175	-0.000023	-0.556090
C34	C	1.200888	-0.000035	-0.562472
C35	C	1.202469	-0.000037	-0.483421
C36	C	1.116898	-0.000023	-0.440706
C37	C	1.118612	-0.000031	-0.354988
C38	C	1.119986	-0.000038	-0.286668
C39	C	1.112065	-0.000028	0.317058
C40	C	1.113742	-0.000021	0.401192
H41	H	0.617154	0.000030	0.089926
Br42	Br	1.320744	-0.000046	-0.434114
Br43	Br	0.909895	-0.000014	-0.605401
H44	H	0.621460	-0.000025	0.268413
H45	H	1.281394	-0.000067	-0.055987
Br46	Br	0.998349	-0.547592	0.267663
Br47	Br	1.324979	-0.000053	-0.222587
H48	H	1.203510	-0.481687	0.117567
H49	H	1.270564	-0.000041	-0.597261
H50	H	0.960072	-0.000010	-0.442264
H51	H	0.965173	-0.000018	-0.187820
H52	H	0.968035	-0.000027	-0.044400
