data_functionalizedCrystal
_audit_creation_method	'MofGen! by Chris Wilmer'
_symmetry_space_group_name_H-M	'P1'
_symmetry_Int_Tables_number	1
_symmetry_cell_setting	triclinic
loop_
_symmetry_equiv_pos_as_xyz
  x,y,z
_cell_length_a	14.519731
_cell_length_b	10.654550
_cell_length_c	9.730223
_cell_angle_alpha	89.998521
_cell_angle_beta	89.996618
_cell_angle_gamma	84.086891
loop_
_atom_site_label
_atom_site_type_symbol
_atom_site_fract_x
_atom_site_fract_y
_atom_site_fract_z
O1	O	1.224708	0.164750	-0.114284
O2	O	1.724708	0.664750	0.385716
O3	O	0.956334	0.184109	-0.114285
O4	O	1.456334	0.684109	0.385715
O5	O	1.096692	-0.008368	-0.114285
O6	O	1.596692	0.491632	0.385715
O7	O	1.084351	0.357227	-0.114283
O8	O	1.584351	0.857227	0.385717
O9	O	1.096682	-0.008374	0.114295
O10	O	1.596682	0.491626	0.614295
O11	O	0.956325	0.184104	0.114295
O12	O	1.456325	0.684104	0.614295
O13	O	1.224699	0.164745	0.114296
O14	O	1.724699	0.664745	0.614296
Zn15	Zn	1.090511	0.174423	0.150588
Zn16	Zn	1.590511	0.674423	0.650588
Zn17	Zn	1.090523	0.174430	-0.150576
Zn18	Zn	1.590523	0.674430	0.349424
O19	O	1.084342	0.357222	0.114297
O20	O	1.584342	0.857222	0.614297
C21	C	0.921965	0.183199	0.000005
C22	C	1.421965	0.683199	0.500005
C23	C	0.819571	0.180481	0.000004
C24	C	1.319571	0.680481	0.500004
C25	C	1.095781	-0.055160	0.000002
C26	C	1.595781	0.444840	0.500002
C27	C	1.093070	-0.194578	-0.000008
C28	C	1.593070	0.305422	0.499992
C29	C	1.089244	-0.391079	-0.124596
C30	C	1.589244	0.108921	0.375404
C31	C	1.091801	-0.260083	-0.124605
C32	C	1.591801	0.239917	0.375395
C33	C	1.091792	-0.260077	0.124605
C34	C	1.591792	0.239923	0.624605
C35	C	1.089242	-0.391072	0.124612
C36	C	1.589242	0.108928	0.624612
C37	C	0.736416	0.178272	-0.000001
C38	C	1.236416	0.678272	0.499999
C39	C	0.632092	0.175513	-0.000002
C40	C	1.132092	0.675513	0.499998
C41	C	0.548942	0.173322	-0.000002
C42	C	1.048942	0.673322	0.499998
C43	C	0.444612	0.170563	-0.000005
C44	C	0.944612	0.670563	0.499995
C45	C	1.259068	0.165655	0.000003
C46	C	1.759068	0.665655	0.500003
C47	C	1.361462	0.168373	-0.000005
C48	C	1.861462	0.668373	0.499995
C49	C	1.085252	0.404014	0.000007
C50	C	1.585252	0.904014	0.500007
C51	C	1.087963	0.543432	0.000007
C52	C	1.587963	1.043432	0.500007
N53	N	1.090509	0.174418	0.356124
N54	N	1.590509	0.674418	0.856124
N55	N	1.090531	0.174426	-0.356113
N56	N	1.590531	0.674426	0.143887
C57	C	1.152681	0.089225	0.428050
C58	C	1.652681	0.589225	0.928050
C59	C	1.152690	0.089225	0.571933
C60	C	1.652690	0.589225	1.071933
C61	C	1.028353	0.259623	0.571952
C62	C	1.528353	0.759623	1.071952
C63	C	1.028340	0.259616	0.428071
C64	C	1.528340	0.759616	0.928071
H65	H	1.088202	-0.444403	-0.226058
H66	H	1.588202	0.055597	0.273942
H67	H	0.977708	0.328990	0.369505
H68	H	1.477708	0.828990	0.869505
Cl69	Cl	1.093414	-0.177760	-0.281257
Cl70	Cl	1.593414	0.322240	0.218743
H71	H	1.203301	0.019850	0.369474
H72	H	1.703301	0.519850	0.869474
Cl73	Cl	1.087637	-0.473408	0.281271
Cl74	Cl	1.587637	0.026592	0.781271
H75	H	1.203314	0.019852	0.630491
H76	H	1.703314	0.519852	1.130491
Cl77	Cl	0.950205	0.366728	0.662406
Cl78	Cl	1.450205	0.866728	1.162406
Cl79	Cl	1.093393	-0.177728	0.281243
Cl80	Cl	1.593393	0.322272	0.781243
