data_functionalizedCrystal
_audit_creation_method	'MofGen! by Chris Wilmer'
_symmetry_space_group_name_H-M	'P1'
_symmetry_Int_Tables_number	1
_symmetry_cell_setting	triclinic
loop_
_symmetry_equiv_pos_as_xyz
  x,y,z
_cell_length_a	11.026607
_cell_length_b	13.101018
_cell_length_c	10.967953
_cell_angle_alpha	74.505618
_cell_angle_beta	96.379953
_cell_angle_gamma	94.101240
loop_
_atom_site_label
_atom_site_type_symbol
_atom_site_fract_x
_atom_site_fract_y
_atom_site_fract_z
O1	O	1.613937	-0.007312	0.523955
O2	O	1.260966	0.003335	0.463672
O3	O	1.448119	0.030119	0.311972
O4	O	1.426785	-0.034096	0.675655
O5	O	1.434676	-0.142235	0.322865
O6	O	1.247523	-0.169019	0.474565
O7	O	1.600494	-0.179666	0.534848
Zn8	Zn	1.421874	-0.201707	0.506436
Zn9	Zn	1.439586	0.025376	0.492084
O10	O	1.413341	-0.206450	0.686548
C11	C	1.209095	-0.080878	0.457997
C12	C	1.074565	-0.075023	0.424844
N13	N	1.409795	-0.356686	0.516232
C14	C	1.000252	-0.091185	0.516385
C15	C	0.861208	-0.085134	0.482122
C16	C	1.468103	-0.608246	0.468946
C17	C	1.393371	-0.568076	0.529563
C18	C	1.402511	-0.450447	0.522144
C19	C	1.458964	-0.725886	0.476364
C20	C	1.652365	-0.095451	0.540523
C21	C	1.786895	-0.101299	0.573675
C22	C	1.440861	-0.047707	0.270136
C23	C	1.439250	-0.022823	0.129244
N24	N	1.451675	0.180356	0.482280
C25	C	1.429895	-0.075309	-0.073548
C26	C	1.431565	-0.101024	0.072071
C27	C	1.420599	-0.128622	0.728384
C28	C	1.422211	-0.153499	0.869276
H29	H	1.039567	-0.109508	0.620121
Cl30	Cl	1.577483	-0.524957	0.380229
H31	H	0.826203	-0.119624	0.677420
Cl32	Cl	1.438162	0.057440	-0.164404
H33	H	1.426228	-0.187009	0.130923
Cl34	Cl	1.283994	-0.651372	0.618294
H35	H	1.416875	-0.239478	-0.071868
Cl36	Cl	0.800524	-0.056860	0.321949
Cl37	Cl	1.013876	-0.046750	0.264678
Cl38	Cl	1.447502	0.109933	0.038394
