data_functionalizedCrystal
_audit_creation_method	'MofGen! by Chris Wilmer'
_symmetry_space_group_name_H-M	'P1'
_symmetry_Int_Tables_number	1
_symmetry_cell_setting	triclinic
loop_
_symmetry_equiv_pos_as_xyz
  x,y,z
_cell_length_a	14.519709
_cell_length_b	10.723024
_cell_length_c	9.798715
_cell_angle_alpha	90.003391
_cell_angle_beta	89.995905
_cell_angle_gamma	95.925993
loop_
_atom_site_label
_atom_site_type_symbol
_atom_site_fract_x
_atom_site_fract_y
_atom_site_fract_z
O1	O	0.129347	-1.655978	-0.113485
O2	O	0.629347	-1.155978	0.386515
O3	O	0.141728	-1.292710	-0.113490
O4	O	0.641728	-0.792710	0.386510
O5	O	0.001349	-1.483975	-0.113475
O6	O	0.501349	-0.983975	0.386525
O7	O	0.269727	-1.464712	-0.113500
O8	O	0.769727	-0.964712	0.386500
O9	O	0.001348	-1.483961	0.113507
O10	O	0.501348	-0.983961	0.613507
O11	O	0.141728	-1.292695	0.113492
O12	O	0.641728	-0.792695	0.613492
O13	O	0.129347	-1.655963	0.113497
O14	O	0.629347	-1.155963	0.613497
Zn15	Zn	0.135537	-1.474327	0.149533
Zn16	Zn	0.635537	-0.974327	0.649533
Zn17	Zn	0.135538	-1.474346	-0.149526
Zn18	Zn	0.635538	-0.974346	0.350474
O19	O	0.269727	-1.464698	0.113482
O20	O	0.769727	-0.964698	0.613482
C21	C	0.140827	-1.246211	0.000000
C22	C	0.640827	-0.746211	0.500000
C23	C	0.138132	-1.107682	-0.000001
C24	C	0.638132	-0.607682	0.499999
N25	N	0.135537	-1.474323	0.353632
N26	N	0.635537	-0.974323	0.853632
C27	C	-0.033016	-1.483070	0.000016
C28	C	0.466984	-0.983070	0.500016
C29	C	-0.135411	-1.480380	0.000017
C30	C	0.364589	-0.980380	0.500017
C31	C	-0.510357	-1.470476	-0.000019
C32	C	-0.010357	-0.970476	0.499981
C33	C	-0.406035	-1.473227	-0.000009
C34	C	0.093965	-0.973227	0.499991
C35	C	-0.322887	-1.475428	0.000000
C36	C	0.177113	-0.975428	0.500000
C37	C	-0.218559	-1.478179	0.000008
C38	C	0.281441	-0.978179	0.500008
C39	C	0.304091	-1.465603	-0.000012
C40	C	0.804091	-0.965603	0.499988
C41	C	0.406486	-1.468293	-0.000022
C42	C	0.906486	-0.968293	0.499978
C43	C	0.130248	-1.702462	0.000003
C44	C	0.630248	-1.202462	0.500003
C45	C	0.132944	-1.840991	-0.000004
C46	C	0.632944	-1.340991	0.499996
C47	C	0.216681	-1.031965	-0.000009
C48	C	0.716681	-0.531965	0.499991
C49	C	0.213896	-0.888788	-0.000011
C50	C	0.713896	-0.388788	0.499989
N51	N	0.135532	-1.474359	-0.353626
N52	N	0.635532	-0.974359	0.146374
C53	C	0.076335	-1.554633	0.421415
C54	C	0.576335	-1.054633	0.921415
C55	C	0.076332	-1.554653	0.578578
C56	C	0.576332	-1.054653	1.078578
H57	H	0.285991	-1.073139	-0.000008
H58	H	0.785991	-0.573139	0.499992
H59	H	0.025649	-1.623371	0.363098
H60	H	0.525649	-1.123371	0.863098
C61	C	0.304744	-0.800896	-0.000019
C62	C	0.804744	-0.300896	0.499981
N63	N	0.373173	-0.734692	-0.000023
N64	N	0.873173	-0.234692	0.499977
H65	H	0.065696	-0.906045	-0.000006
H66	H	0.565696	-0.406045	0.499994
C67	C	0.044493	-1.052065	0.000007
C68	C	0.544493	-0.552065	0.500007
N69	N	-0.026038	-1.010175	0.000012
N70	N	0.473962	-0.510175	0.500012
C71	C	0.007856	-1.647543	0.657324
C72	C	0.507856	-1.147543	1.157324
N73	N	-0.043723	-1.717508	0.716639
N74	N	0.456277	-1.217508	1.216639
C75	C	0.204009	-1.381465	0.567637
C76	C	0.704009	-0.881465	1.067637
N77	N	0.255586	-1.311496	0.508322
N78	N	0.755586	-0.811496	1.008322
H79	H	0.186216	-1.405577	0.411951
H80	H	0.686216	-0.905577	0.911951
