data_functionalizedCrystal
_audit_creation_method	'MofGen! by Chris Wilmer'
_symmetry_space_group_name_H-M	'P1'
_symmetry_Int_Tables_number	1
_symmetry_cell_setting	triclinic
loop_
_symmetry_equiv_pos_as_xyz
  x,y,z
_cell_length_a	8.559649
_cell_length_b	11.792254
_cell_length_c	7.681481
_cell_angle_alpha	84.218036
_cell_angle_beta	94.913240
_cell_angle_gamma	76.988631
loop_
_atom_site_label
_atom_site_type_symbol
_atom_site_fract_x
_atom_site_fract_y
_atom_site_fract_z
O1	O	2.104792	-0.026423	-0.146400
O2	O	2.604792	0.473577	0.353600
O3	O	1.640099	0.032147	-0.146410
O4	O	2.140099	0.532147	0.353590
O5	O	1.883713	-0.163340	-0.146392
O6	O	2.383713	0.336660	0.353608
O7	O	1.861178	0.169064	-0.146418
O8	O	2.361178	0.669064	0.353582
O9	O	1.913698	-0.187450	0.146468
O10	O	2.413698	0.312550	0.646468
O11	O	1.670083	0.008038	0.146450
O12	O	2.170083	0.508038	0.646450
O13	O	2.134777	-0.050533	0.146460
O14	O	2.634777	0.449467	0.646460
Zn15	Zn	1.907191	-0.025076	0.192953
Zn16	Zn	2.407191	0.474924	0.692953
Zn17	Zn	1.867685	0.006690	-0.192903
Zn18	Zn	2.367685	0.506690	0.307097
O19	O	1.891162	0.144954	0.146442
O20	O	2.391162	0.644954	0.646442
C21	C	1.595600	0.024531	0.000018
C22	C	2.095600	0.524531	0.500018
C23	C	1.418334	0.037743	0.000015
C24	C	1.918334	0.537743	0.500015
C25	C	1.897286	-0.217555	0.000037
C26	C	2.397286	0.282445	0.500037
C27	C	1.893037	-0.343179	0.000035
C28	C	2.393037	0.156821	0.500035
C29	C	1.889585	-0.445200	0.000029
C30	C	2.389585	0.054800	0.500029
C31	C	1.885267	-0.573190	0.000013
C32	C	2.385267	-0.073190	0.500013
C33	C	2.179276	-0.042916	0.000027
C34	C	2.679276	0.457084	0.500027
C35	C	2.356540	-0.056128	0.000020
C36	C	2.856540	0.443872	0.500020
C37	C	1.877589	0.199170	0.000009
C38	C	2.377589	0.699170	0.500009
C39	C	1.881837	0.324795	-0.000001
C40	C	2.381837	0.824795	0.499999
N41	N	1.934164	-0.046757	0.456289
N42	N	2.434164	0.453243	0.956289
N43	N	1.840724	0.028361	-0.456239
N44	N	2.340724	0.528361	0.043761
H45	H	1.745341	0.105034	0.468557
H46	H	2.245341	0.605034	0.968557
H47	H	2.029565	-0.123427	0.531502
H48	H	2.529565	0.376573	1.031502
H49	H	1.335617	0.128225	-0.000002
H50	H	1.835617	0.628225	0.499998
O51	O	1.455434	-0.163990	0.000106
O52	O	1.955434	0.336010	0.500106
C53	C	1.616341	-0.153612	0.000061
C54	C	2.116341	0.346388	0.500061
H55	H	1.629025	-0.069622	0.055499
H56	H	2.129025	0.430378	0.555499
H57	H	1.650080	-0.150500	-0.140439
H58	H	2.150080	0.349500	0.359561
C59	C	1.713821	-0.363093	0.046825
C60	C	2.213821	0.136907	0.546825
C61	C	1.729402	-0.259940	0.114930
C62	C	2.229402	0.240060	0.614930
H63	H	1.783564	-0.428683	0.117674
H64	H	2.283564	0.071317	0.617674
H65	H	1.605415	-0.370086	0.046849
H66	H	2.105415	0.129914	0.546849
H67	H	1.741934	-0.360483	-0.070257
H68	H	2.241934	0.139517	0.429743
H69	H	1.701270	-0.262545	0.232000
H70	H	2.201270	0.237455	0.732000
H71	H	1.837806	-0.252950	0.114929
H72	H	2.337806	0.247050	0.614929
