data_functionalizedCrystal
_audit_creation_method	'MofGen! by Chris Wilmer'
_symmetry_space_group_name_H-M	'P1'
_symmetry_Int_Tables_number	1
_symmetry_cell_setting	triclinic
loop_
_symmetry_equiv_pos_as_xyz
  x,y,z
_cell_length_a	14.044191
_cell_length_b	14.044190
_cell_length_c	13.101039
_cell_angle_alpha	93.663707
_cell_angle_beta	86.337551
_cell_angle_gamma	93.191777
loop_
_atom_site_label
_atom_site_type_symbol
_atom_site_fract_x
_atom_site_fract_y
_atom_site_fract_z
O1	O	1.281983	0.225377	-0.085186
O2	O	1.531983	0.475377	0.164814
O3	O	1.781983	0.725377	0.414814
O4	O	2.031983	0.975377	0.664814
O5	O	1.005311	0.217064	-0.085198
O6	O	1.255311	0.467064	0.164802
O7	O	1.505311	0.717064	0.414802
O8	O	1.755311	0.967064	0.664802
O9	O	1.139490	0.082885	-0.085172
O10	O	1.389490	0.332885	0.164828
O11	O	1.639490	0.582885	0.414828
O12	O	1.889490	0.832885	0.664828
O13	O	1.147805	0.359556	-0.085212
O14	O	1.397805	0.609556	0.164788
O15	O	1.647805	0.859556	0.414788
O16	O	1.897805	1.109556	0.664788
O17	O	1.129864	0.092530	0.085256
O18	O	1.379864	0.342530	0.335256
O19	O	1.629864	0.592530	0.585256
O20	O	1.879864	0.842530	0.835256
O21	O	0.995685	0.226708	0.085230
O22	O	1.245685	0.476708	0.335230
O23	O	1.495685	0.726708	0.585230
O24	O	1.745685	0.976708	0.835230
O25	O	1.272357	0.235022	0.085242
O26	O	1.522357	0.485022	0.335242
O27	O	1.772357	0.735022	0.585242
O28	O	2.022357	0.985022	0.835242
Zn29	Zn	1.132493	0.232396	0.112295
Zn30	Zn	1.382493	0.482396	0.362295
Zn31	Zn	1.632493	0.732396	0.612295
Zn32	Zn	1.882493	0.982396	0.862295
Zn33	Zn	1.145175	0.219689	-0.112251
Zn34	Zn	1.395175	0.469689	0.137749
Zn35	Zn	1.645175	0.719689	0.387749
Zn36	Zn	1.895175	0.969689	0.637749
O37	O	1.138179	0.369200	0.085216
O38	O	1.388179	0.619200	0.335216
O39	O	1.638179	0.869200	0.585216
O40	O	1.888179	1.119200	0.835216
C41	C	0.964876	0.218249	0.000015
C42	C	1.214876	0.468249	0.250015
C43	C	1.464876	0.718249	0.500015
C44	C	1.714876	0.968249	0.750015
C45	C	0.858733	0.207402	0.000011
C46	C	1.108733	0.457402	0.250011
C47	C	1.358733	0.707402	0.500011
C48	C	1.608733	0.957402	0.750011
C49	C	1.131040	0.052086	0.000045
C50	C	1.381040	0.302086	0.250045
C51	C	1.631040	0.552086	0.500045
C52	C	1.881040	0.802086	0.750045
C53	C	1.120192	-0.054057	0.000054
C54	C	1.370192	0.195943	0.250054
C55	C	1.620192	0.445943	0.500054
C56	C	1.870192	0.695943	0.750054
C57	C	0.613276	0.264503	0.000013
C58	C	0.863276	0.514503	0.250013
C59	C	1.113276	0.764503	0.500013
C60	C	1.363276	1.014503	0.750013
C61	C	0.664399	0.187587	0.000022
C62	C	0.914399	0.437587	0.250022
C63	C	1.164399	0.687587	0.500022
C64	C	1.414399	0.937587	0.750022
C65	C	0.772536	0.198615	0.000016
C66	C	1.022536	0.448615	0.250016
C67	C	1.272536	0.698615	0.500016
C68	C	1.522536	0.948615	0.750016
C69	C	0.505129	0.253476	0.000019
C70	C	0.755129	0.503476	0.250019
C71	C	1.005129	0.753476	0.500019
C72	C	1.255129	1.003476	0.750019
C73	C	1.177295	-0.299516	0.000016
C74	C	1.427295	-0.049516	0.250016
C75	C	1.677295	0.200484	0.500016
C76	C	1.927295	0.450484	0.750016
C77	C	1.100378	-0.248393	0.000020
C78	C	1.350378	0.001607	0.250020
C79	C	1.600378	0.251607	0.500020
C80	C	1.850378	0.501607	0.750020
C81	C	1.111405	-0.140254	0.000038
C82	C	1.361405	0.109746	0.250038
C83	C	1.611405	0.359746	0.500038
C84	C	1.861405	0.609746	0.750038
C85	C	1.166269	-0.407664	-0.000003
C86	C	1.416269	-0.157664	0.249997
C87	C	1.666269	0.092336	0.499997
C88	C	1.916269	0.342336	0.749997
C89	C	1.312792	0.233836	0.000027
C90	C	1.562792	0.483836	0.250027
C91	C	1.812792	0.733836	0.500027
C92	C	2.062792	0.983836	0.750027
C93	C	1.418936	0.244683	0.000024
C94	C	1.668936	0.494683	0.250024
C95	C	1.918936	0.744683	0.500024
C96	C	2.168936	0.994683	0.750024
C97	C	1.146629	0.400000	-0.000003
C98	C	1.396629	0.650000	0.249997
C99	C	1.646629	0.900000	0.499997
C100	C	1.896629	1.150000	0.749997
C101	C	1.157477	0.506142	-0.000018
C102	C	1.407477	0.756142	0.249982
C103	C	1.657477	1.006142	0.499982
C104	C	1.907477	1.256142	0.749982
N105	N	1.123845	0.241069	0.265542
N106	N	1.373845	0.491069	0.515542
N107	N	1.623845	0.741069	0.765542
N108	N	1.873845	0.991069	1.015542
N109	N	1.153831	0.211010	-0.265498
N110	N	1.403831	0.461010	-0.015498
N111	N	1.653831	0.711010	0.234502
N112	N	1.903831	0.961010	0.484502
C113	C	1.112079	0.252876	0.474582
C114	C	1.362079	0.502876	0.724582
C115	C	1.612079	0.752876	0.974582
C116	C	1.862079	1.002876	1.224582
C117	C	1.165594	0.199205	0.525469
C118	C	1.415594	0.449205	0.775469
C119	C	1.665594	0.699205	1.025469
C120	C	1.915594	0.949205	1.275469
C121	C	1.159047	0.205775	0.641786
C122	C	1.409047	0.455775	0.891786
C123	C	1.659047	0.705775	1.141786
C124	C	1.909047	0.955775	1.391786
C125	C	1.118624	0.246307	0.358255
C126	C	1.368624	0.496307	0.608255
C127	C	1.618624	0.746307	0.858255
C128	C	1.868624	0.996307	1.108255
H129	H	0.626957	0.113450	-0.000039
H130	H	0.876957	0.363450	0.249961
H131	H	1.126957	0.613450	0.499961
H132	H	1.376957	0.863450	0.749961
H133	H	1.026246	-0.285839	0.000010
H134	H	1.276246	-0.035839	0.250010
H135	H	1.526246	0.214161	0.500010
H136	H	1.776246	0.464161	0.750010
O137	O	1.232797	0.131806	0.467465
O138	O	1.482797	0.381806	0.717465
O139	O	1.732797	0.631806	0.967465
O140	O	1.982797	0.881806	1.217465
H141	H	1.270987	0.093499	0.522688
H142	H	1.520987	0.343499	0.772688
H143	H	1.770987	0.593499	1.022688
H144	H	2.020987	0.843499	1.272688
O145	O	1.275488	-0.249924	0.000030
O146	O	1.525488	0.000076	0.250030
O147	O	1.775488	0.250076	0.500030
O148	O	2.025488	0.500076	0.750030
H149	H	1.310889	-0.267021	0.069491
H150	H	1.560889	-0.017021	0.319491
H151	H	1.810889	0.232979	0.569491
H152	H	2.060889	0.482979	0.819491
O153	O	0.662866	0.362696	-0.000014
O154	O	0.912866	0.612696	0.249986
O155	O	1.162866	0.862696	0.499986
O156	O	1.412866	1.112696	0.749986
H157	H	0.741250	0.356056	-0.000027
H158	H	0.991250	0.606056	0.249973
H159	H	1.241250	0.856056	0.499973
H160	H	1.491250	1.106056	0.749973
O161	O	1.044891	0.320287	0.532577
O162	O	1.294891	0.570287	0.782577
O163	O	1.544891	0.820287	1.032577
O164	O	1.794891	1.070287	1.282577
H165	H	1.050241	0.314941	0.616159
H166	H	1.300241	0.564941	0.866159
H167	H	1.550241	0.814941	1.116159
H168	H	1.800241	1.064941	1.366159
