data_functionalizedCrystal
_audit_creation_method	'MofGen! by Chris Wilmer'
_symmetry_space_group_name_H-M	'P1'
_symmetry_Int_Tables_number	1
_symmetry_cell_setting	triclinic
loop_
_symmetry_equiv_pos_as_xyz
  x,y,z
_cell_length_a	27.731988
_cell_length_b	26.210047
_cell_length_c	15.995350
_cell_angle_alpha	90.003919
_cell_angle_beta	96.944628
_cell_angle_gamma	89.981104
loop_
_atom_site_label
_atom_site_type_symbol
_atom_site_fract_x
_atom_site_fract_y
_atom_site_fract_z
O1	O	-0.641389	0.042360	0.099389
O2	O	-0.308055	0.375694	0.432722
O3	O	0.025278	0.709027	0.766056
O4	O	-0.500657	0.042376	0.114590
O5	O	-0.167323	0.375709	0.447923
O6	O	0.166010	0.709042	0.781256
O7	O	-0.574870	0.042367	-0.014949
O8	O	-0.241536	0.375701	0.318384
O9	O	0.091797	0.709034	0.651717
O10	O	-0.567176	0.042369	0.228928
O11	O	-0.233842	0.375702	0.562262
O12	O	0.099491	0.709036	0.895595
O13	O	-0.574835	-0.042491	-0.014951
O14	O	-0.241502	0.290842	0.318383
O15	O	0.091831	0.624176	0.651716
O16	O	-0.500622	-0.042482	0.114588
O17	O	-0.167289	0.290851	0.447922
O18	O	0.166045	0.624184	0.781255
O19	O	-0.641354	-0.042498	0.099388
O20	O	-0.308021	0.290836	0.432721
O21	O	0.025312	0.624169	0.766054
Cu22	Cu	-0.570985	-0.050238	0.106988
Cu23	Cu	-0.237652	0.283095	0.440321
Cu24	Cu	0.095682	0.616428	0.773655
Cu25	Cu	-0.571026	0.050116	0.106990
Cu26	Cu	-0.237692	0.383450	0.440323
Cu27	Cu	0.095641	0.716783	0.773656
O28	O	-0.567141	-0.042489	0.228927
O29	O	-0.233808	0.290844	0.562260
O30	O	0.099525	0.624178	0.895594
C31	C	-0.482631	-0.000051	0.114278
C32	C	-0.149297	0.333282	0.447611
C33	C	0.184036	0.666615	0.780944
C34	C	-0.428970	-0.000046	0.113340
C35	C	-0.095637	0.333288	0.446673
C36	C	0.237697	0.666621	0.780007
C37	C	-0.096207	-0.046325	0.107434
C38	C	0.237127	0.287009	0.440767
C39	C	0.570460	0.620342	0.774100
C40	C	0.105468	-0.046333	0.103869
C41	C	0.438801	0.287001	0.437203
C42	C	0.772134	0.620334	0.770536
O43	O	0.131558	-0.085672	0.103372
O44	O	0.464892	0.247662	0.436705
O45	O	0.798225	0.580995	0.770038
N46	N	0.130666	-0.000077	0.103427
N47	N	0.463999	0.333257	0.436761
N48	N	0.797332	0.666590	0.770094
C49	C	0.105442	0.046184	0.103871
C50	C	0.438775	0.379518	0.437205
C51	C	0.772108	0.712851	0.770538
O52	O	0.131501	0.085528	0.103405
O53	O	0.464834	0.418861	0.436738
O54	O	0.798168	0.752194	0.770072
C55	C	-0.096232	0.046192	0.107430
C56	C	0.237101	0.379525	0.440763
C57	C	0.570435	0.712858	0.774096
C58	C	-0.121427	-0.000067	0.107880
C59	C	0.211907	0.333266	0.441213
C60	C	0.545240	0.666599	0.774547
C61	C	-0.121401	-0.092580	0.107883
C62	C	0.211932	0.240754	0.441216
C63	C	0.545265	0.574087	0.774550
C64	C	-0.171817	-0.092577	0.108779
C65	C	0.161517	0.240756	0.442112
C66	C	0.494850	0.574089	0.775445
C67	C	-0.197037	-0.046320	0.109225
C68	C	0.136297	0.287013	0.442558
C69	C	0.469630	0.620347	0.775892
C70	C	-0.171842	-0.000065	0.108776
C71	C	0.161491	0.333269	0.442109
C72	C	0.494825	0.666602	0.775442
C73	C	-0.121456	0.092452	0.107867
C74	C	0.211878	0.425786	0.441201
C75	C	0.545211	0.759119	0.774534
C76	C	-0.171877	0.092450	0.108755
C77	C	0.161456	0.425783	0.442088
C78	C	0.494789	0.759117	0.775421
C79	C	-0.197072	0.046191	0.109205
C80	C	0.136261	0.379524	0.442538
C81	C	0.469595	0.712858	0.775872
C82	C	-0.247477	0.046195	0.110117
C83	C	0.085856	0.379529	0.443451
C84	C	0.419189	0.712862	0.776784
N85	N	-0.272675	-0.000061	0.110559
N86	N	0.060658	0.333273	0.443893
N87	N	0.393991	0.666606	0.777226
C88	C	-0.247455	-0.046318	0.110113
C89	C	0.085878	0.287015	0.443446
C90	C	0.419212	0.620348	0.776780
C91	C	0.211323	0.046177	0.102005
C92	C	0.544657	0.379511	0.435338
C93	C	0.877990	0.712844	0.768671
C94	C	0.261741	0.046176	0.101117
C95	C	0.595075	0.379509	0.434450
C96	C	0.928408	0.712842	0.767783
C97	C	0.261764	-0.046342	0.101113
C98	C	0.595097	0.286992	0.434447
C99	C	0.928431	0.620325	0.767780
C100	C	0.211345	-0.046339	0.102007
C101	C	0.544678	0.286994	0.435341
C102	C	0.878012	0.620327	0.768674
C103	C	0.186125	-0.000079	0.102447
C104	C	0.519459	0.333255	0.435780
C105	C	0.852792	0.666588	0.769113
C106	C	-0.353330	-0.046310	0.111995
C107	C	-0.019997	0.287024	0.445328
C108	C	0.313336	0.620357	0.778661
C109	C	-0.403750	-0.046303	0.112894
C110	C	-0.070416	0.287030	0.446227
C111	C	0.262917	0.620364	0.779561
C112	C	-0.403768	0.046214	0.112893
C113	C	-0.070435	0.379547	0.446226
C114	C	0.262898	0.712880	0.779559
C115	C	-0.353353	0.046208	0.111998
C116	C	-0.020020	0.379541	0.445331
C117	C	0.313314	0.712874	0.778665
C118	C	-0.328136	-0.000058	0.111546
C119	C	0.005198	0.333275	0.444880
C120	C	0.338531	0.666608	0.778213
O121	O	-0.273600	0.085514	0.110606
O122	O	0.059733	0.418847	0.443939
O123	O	0.393067	0.752180	0.777273
O124	O	-0.273525	-0.085656	0.110561
O125	O	0.059809	0.247678	0.443894
O126	O	0.393142	0.581011	0.777227
C127	C	-0.045791	-0.046327	0.106538
C128	C	0.287542	0.287006	0.439871
C129	C	0.620875	0.620340	0.773205
C130	C	-0.020597	-0.000072	0.106089
C131	C	0.312737	0.333261	0.439422
C132	C	0.646070	0.666595	0.772755
C133	C	-0.045817	0.046185	0.106535
C134	C	0.287517	0.379519	0.439868
C135	C	0.620850	0.712852	0.773201
C136	C	0.029822	-0.000074	0.105201
C137	C	0.363155	0.333260	0.438534
C138	C	0.696488	0.666593	0.771867
C139	C	0.055042	-0.046331	0.104754
C140	C	0.388375	0.287002	0.438088
C141	C	0.721709	0.620335	0.771421
C142	C	0.029844	-0.092587	0.105196
C143	C	0.363177	0.240746	0.438530
C144	C	0.696511	0.574080	0.771863
C145	C	-0.020571	-0.092585	0.106092
C146	C	0.312762	0.240749	0.439425
C147	C	0.646096	0.574082	0.772759
C148	C	-0.020619	0.092441	0.106093
C149	C	0.312715	0.425775	0.439426
C150	C	0.646048	0.759108	0.772760
C151	C	0.029796	0.092435	0.105198
C152	C	0.363130	0.425768	0.438532
C153	C	0.696463	0.759102	0.771865
C154	C	0.055017	0.046178	0.104752
C155	C	0.388350	0.379511	0.438085
C156	C	0.721683	0.712844	0.771419
C157	C	0.340620	-0.000072	0.099708
C158	C	0.673954	0.333261	0.433041
C159	C	1.007287	0.666595	0.766375
C160	C	0.286962	-0.000082	0.100670
C161	C	0.620295	0.333251	0.434004
C162	C	0.953628	0.666585	0.767337
N163	N	-0.570960	-0.120822	0.106986
N164	N	-0.237627	0.212511	0.440320
N165	N	0.095707	0.545845	0.773653
C166	C	-0.574534	-0.000061	-0.046141
C167	C	-0.241201	0.333272	0.287193
C168	C	0.092132	0.666606	0.620526
C169	C	-0.573581	-0.000058	-0.139078
C170	C	-0.240247	0.333275	0.194255
C171	C	0.093086	0.666609	0.527588
C172	C	-0.538133	-0.526786	0.164322
C173	C	-0.204799	-0.193452	0.497656
C174	C	0.128534	0.139881	0.830989
C175	C	-0.538109	-0.313127	0.164323
C176	C	-0.204776	0.020206	0.497656
C177	C	0.128557	0.353539	0.830990
O178	O	-0.510141	-0.285505	0.213064
O179	O	-0.176807	0.047828	0.546398
O180	O	0.156526	0.381161	0.879731
N181	N	-0.570975	-0.286406	0.106983
N182	N	-0.237642	0.046927	0.440317
N183	N	0.095691	0.380261	0.773650
C184	C	-0.603847	-0.313102	0.049636
C185	C	-0.270514	0.020231	0.382969
C186	C	0.062819	0.353564	0.716303
O187	O	-0.631798	-0.285472	0.000859
O188	O	-0.298464	0.047862	0.334193
O189	O	0.034869	0.381195	0.667526
C190	C	-0.603868	-0.526760	0.049632
C191	C	-0.270534	-0.193427	0.382965
C192	C	0.062799	0.139907	0.716299
C193	C	-0.571003	-0.553479	0.106981
C194	C	-0.237670	-0.220145	0.440314
C195	C	0.095664	0.113188	0.773648
C196	C	-0.505270	-0.553504	0.221666
C197	C	-0.171937	-0.220171	0.555000
C198	C	0.161397	0.113162	0.888333
C199	C	-0.505278	-0.606916	0.221669
C200	C	-0.171945	-0.273583	0.555002
C201	C	0.161389	0.059751	0.888335
C202	C	-0.538148	-0.633609	0.164327
C203	C	-0.204815	-0.300275	0.497660
C204	C	0.128518	0.033058	0.830994
C205	C	-0.571011	-0.606890	0.106983
C206	C	-0.237678	-0.273557	0.440317
C207	C	0.095656	0.059777	0.773650
C208	C	-0.636737	-0.553456	-0.007719
C209	C	-0.303404	-0.220122	0.325615
C210	C	0.029930	0.113211	0.658948
C211	C	-0.636738	-0.606873	-0.007716
C212	C	-0.303405	-0.273540	0.325617
C213	C	0.029928	0.059793	0.658951
C214	C	-0.603874	-0.633592	0.049633
C215	C	-0.270540	-0.300259	0.382966
C216	C	0.062793	0.033075	0.716300
C217	C	-0.603889	-0.686994	0.049644
C218	C	-0.270556	-0.353661	0.382978
C219	C	0.062777	-0.020328	0.716311
N220	N	-0.571023	-0.713716	0.106984
N221	N	-0.237690	-0.380382	0.440317
N222	N	0.095643	-0.047049	0.773651
C223	C	-0.538153	-0.687023	0.164325
C224	C	-0.204820	-0.353690	0.497659
C225	C	0.128514	-0.020356	0.830992
C226	C	-0.603835	-0.200929	0.049643
C227	C	-0.270501	0.132404	0.382976
C228	C	0.062832	0.465738	0.716310
C229	C	-0.603830	-0.147515	0.049645
C230	C	-0.270497	0.185818	0.382978
C231	C	0.062836	0.519152	0.716311
C232	C	-0.538092	-0.147543	0.164331
C233	C	-0.204758	0.185790	0.497664
C234	C	0.128575	0.519123	0.830998
C235	C	-0.538099	-0.200959	0.164333
C236	C	-0.204765	0.132375	0.497666
C237	C	0.128568	0.465708	0.830999
C238	C	-0.570969	-0.227650	0.106983
C239	C	-0.237635	0.105683	0.440316
C240	C	0.095698	0.439016	0.773649
C241	C	-0.538172	-0.799191	0.164326
C242	C	-0.204839	-0.465857	0.497660
C243	C	0.128494	-0.132524	0.830993
C244	C	-0.538184	-0.852607	0.164326
C245	C	-0.204851	-0.519274	0.497659
C246	C	0.128482	-0.185940	0.830993
C247	C	-0.603921	-0.852574	0.049637
C248	C	-0.270588	-0.519241	0.382971
C249	C	0.062746	-0.185907	0.716304
C250	C	-0.603911	-0.799162	0.049640
C251	C	-0.270578	-0.465829	0.382973
C252	C	0.062756	-0.132496	0.716307
C253	C	-0.571032	-0.772472	0.106988
C254	C	-0.237699	-0.439139	0.440321
C255	C	0.095634	-0.105805	0.773655
O256	O	-0.631839	-0.714649	0.000922
O257	O	-0.298506	-0.381316	0.334256
O258	O	0.034827	-0.047983	0.667589
O259	O	-0.510199	-0.714663	0.213082
O260	O	-0.176866	-0.381329	0.546416
O261	O	0.156467	-0.047996	0.879749
C262	C	-0.538125	-0.473374	0.164320
C263	C	-0.204791	-0.140041	0.497653
C264	C	0.128542	0.193292	0.830987
C265	C	-0.570987	-0.446656	0.106976
C266	C	-0.237654	-0.113322	0.440310
C267	C	0.095680	0.220011	0.773643
C268	C	-0.603858	-0.473349	0.049635
C269	C	-0.270524	-0.140015	0.382968
C270	C	0.062809	0.193318	0.716302
C271	C	-0.570983	-0.393242	0.106978
C272	C	-0.237649	-0.059908	0.440312
C273	C	0.095684	0.273425	0.773645
C274	C	-0.538112	-0.366549	0.164320
C275	C	-0.204779	-0.033215	0.497653
C276	C	0.128554	0.300118	0.830986
C277	C	-0.505246	-0.393270	0.221659
C278	C	-0.171913	-0.059937	0.554993
C279	C	0.161420	0.273397	0.888326
C280	C	-0.505254	-0.446682	0.221662
C281	C	-0.171921	-0.113348	0.554995
C282	C	0.161412	0.219985	0.888328
C283	C	-0.636723	-0.446627	-0.007705
C284	C	-0.303390	-0.113294	0.325629
C285	C	0.029943	0.220039	0.658962
C286	C	-0.636713	-0.393216	-0.007702
C287	C	-0.303380	-0.059882	0.325632
C288	C	0.029953	0.273451	0.658965
C289	C	-0.603843	-0.366523	0.049640
C290	C	-0.270510	-0.033190	0.382973
C291	C	0.062824	0.300144	0.716306
N292	N	-0.571055	0.120700	0.106985
N293	N	-0.237721	0.454034	0.440318
N294	N	0.095612	0.787367	0.773651
C295	C	-0.570156	-0.000059	-0.476780
C296	C	-0.236823	0.333274	-0.143447
C297	C	0.096511	0.666607	0.189886
C298	C	-0.517303	0.000137	-0.428643
C299	C	-0.183970	0.333470	-0.095309
C300	C	0.149364	0.666803	0.238024
C301	C	-0.518257	-0.000055	-0.331965
C302	C	-0.184923	0.333279	0.001368
C303	C	0.148410	0.666612	0.334701
C304	C	-0.571855	-0.000058	-0.309242
C305	C	-0.238521	0.333275	0.024091
C306	C	0.094812	0.666608	0.357424
C307	C	-0.597904	-0.048518	-0.350668
C308	C	-0.264571	0.284815	-0.017334
C309	C	0.068763	0.618148	0.315999
C310	C	-0.596576	-0.048559	-0.447286
C311	C	-0.263243	0.284775	-0.113952
C312	C	0.070090	0.618108	0.219381
C313	C	-0.597707	0.047941	-0.447657
C314	C	-0.264374	0.381274	-0.114323
C315	C	0.068959	0.714607	0.219010
C316	C	-0.597695	0.048581	-0.350711
C317	C	-0.264362	0.381914	-0.017378
C318	C	0.068971	0.715248	0.315956
C319	C	-0.572818	-0.000059	-0.214558
C320	C	-0.239484	0.333274	0.118776
C321	C	0.093849	0.666607	0.452109
C322	C	-0.569195	-0.000061	-0.571465
C323	C	-0.235861	0.333272	-0.238132
C324	C	0.097472	0.666605	0.095201
C325	C	-0.567477	-0.000060	0.260118
C326	C	-0.234143	0.333273	0.593451
C327	C	0.099190	0.666607	0.926785
C328	C	-0.568430	-0.000060	0.353056
C329	C	-0.235097	0.333274	0.686389
C330	C	0.098237	0.666607	1.019722
H331	H	-0.192409	0.130122	0.109113
H332	H	0.140925	0.463455	0.442446
H333	H	0.474258	0.796789	0.775779
Br334	Br	-0.460650	-0.482935	0.299497
Br335	Br	-0.127317	-0.149602	0.632830
Br336	Br	0.206016	0.183732	0.966163
Br337	Br	-0.493482	-0.111307	0.242151
Br338	Br	-0.160149	0.222027	0.575484
Br339	Br	0.173184	0.555360	0.908818
Br340	Br	-0.493495	-0.237214	0.242166
Br341	Br	-0.160162	0.096120	0.575499
Br342	Br	0.173172	0.429453	0.908833
Br343	Br	-0.054756	-0.155368	0.106705
Br344	Br	0.278577	0.177965	0.440038
Br345	Br	0.611911	0.511299	0.773371
Br346	Br	-0.484126	0.057845	-0.284133
Br347	Br	-0.150793	0.391178	0.049200
Br348	Br	0.182541	0.724512	0.382534
Br349	Br	-0.566218	0.108343	-0.304336
Br350	Br	-0.232885	0.441676	0.028998
Br351	Br	0.100448	0.775010	0.362331
H352	H	-0.636782	0.051504	-0.335869
H353	H	-0.303449	0.384838	-0.002536
H354	H	0.029884	0.718171	0.330797
H355	H	-0.332837	0.083875	0.111645
H356	H	0.000496	0.417209	0.444978
H357	H	0.333829	0.750542	0.778312
Br358	Br	-0.482124	-0.057279	-0.461232
Br359	Br	-0.148791	0.276055	-0.127899
Br360	Br	0.184542	0.609388	0.205435
H361	H	-0.478484	-0.371528	0.268352
H362	H	-0.145150	-0.038195	0.601685
H363	H	0.188183	0.295139	0.935019
Br364	Br	-0.648521	-0.762903	-0.028182
Br365	Br	-0.315187	-0.429569	0.305151
Br366	Br	0.018146	-0.096236	0.638485
H367	H	-0.635380	-0.050760	-0.480050
H368	H	-0.302046	0.282573	-0.146717
H369	H	0.031287	0.615907	0.186616
Br370	Br	-0.648442	-0.111260	-0.028175
Br371	Br	-0.315109	0.222073	0.305158
Br372	Br	0.018225	0.555407	0.638492
Br373	Br	-0.648449	-0.237148	-0.028194
Br374	Br	-0.315115	0.096185	0.305139
Br375	Br	0.018218	0.429519	0.638472
Br376	Br	0.296001	-0.109119	0.100507
Br377	Br	0.629334	0.224214	0.433841
Br378	Br	0.962668	0.557547	0.767174
H379	H	-0.663498	-0.531709	-0.054418
H380	H	-0.330165	-0.198376	0.278916
H381	H	0.003169	0.134958	0.612249
H382	H	-0.580442	0.084670	-0.467966
H383	H	-0.247109	0.418004	-0.134632
H384	H	0.086225	0.751337	0.198701
Br385	Br	-0.438006	0.108989	0.113495
Br386	Br	-0.104672	0.442322	0.446828
Br387	Br	0.228661	0.775655	0.780161
Br388	Br	0.064082	-0.155365	0.104597
Br389	Br	0.397415	0.177969	0.437930
Br390	Br	0.730749	0.511302	0.771263
Br391	Br	-0.567703	-0.108622	-0.302967
Br392	Br	-0.234370	0.224711	0.030367
Br393	Br	0.098963	0.558044	0.363700
H394	H	-0.636676	0.048264	-0.479936
H395	H	-0.303343	0.381597	-0.146603
H396	H	0.029991	0.714930	0.186731
Br397	Br	-0.648531	-0.888808	-0.028179
Br398	Br	-0.315197	-0.555475	0.305155
Br399	Br	0.018136	-0.222142	0.638488
Br400	Br	0.063984	0.155221	0.104595
Br401	Br	0.397317	0.488555	0.437928
Br402	Br	0.730650	0.821888	0.771261
H403	H	-0.663480	-0.371465	-0.054401
H404	H	-0.330147	-0.038132	0.278933
H405	H	0.003187	0.295202	0.612266
Br406	Br	-0.681337	-0.482847	-0.085533
Br407	Br	-0.348004	-0.149513	0.247801
Br408	Br	-0.014670	0.183820	0.581134
H409	H	-0.497613	-0.034848	-0.303827
H410	H	-0.164279	0.298486	0.029507
H411	H	0.169054	0.631819	0.362840
Br412	Br	-0.437939	-0.109087	0.113511
Br413	Br	-0.104606	0.224246	0.446844
Br414	Br	0.228727	0.557580	0.780177
H415	H	-0.637280	-0.050323	-0.337066
H416	H	-0.303947	0.283010	-0.003733
H417	H	0.029386	0.616344	0.329601
H418	H	-0.663505	-0.628604	-0.054420
H419	H	-0.330171	-0.295270	0.278913
H420	H	0.003162	0.038063	0.612247
Br421	Br	-0.564866	-0.108930	-0.477373
Br422	Br	-0.231533	0.224404	-0.144040
Br423	Br	0.101800	0.557737	0.189293
H424	H	-0.496192	0.034889	-0.446893
H425	H	-0.162859	0.368222	-0.113559
H426	H	0.170474	0.701555	0.219774
Br427	Br	0.295930	0.108958	0.100526
Br428	Br	0.629263	0.442291	0.433859
Br429	Br	0.962596	0.775625	0.767193
H430	H	0.190794	0.083850	0.102362
H431	H	0.524127	0.417184	0.435695
H432	H	0.857460	0.750517	0.769028
H433	H	-0.332804	-0.083984	0.111634
H434	H	0.000529	0.249350	0.444968
H435	H	0.333863	0.582683	0.778301
Br436	Br	0.177158	-0.109121	0.102618
Br437	Br	0.510491	0.224212	0.435951
Br438	Br	0.843824	0.557546	0.769285
H439	H	-0.100873	-0.130250	0.107518
H440	H	0.232461	0.203083	0.440851
H441	H	0.565794	0.536416	0.774185
Br442	Br	-0.206002	-0.155361	0.109386
Br443	Br	0.127331	0.177973	0.442720
Br444	Br	0.460665	0.511306	0.776053
H445	H	-0.100951	0.130121	0.107499
H446	H	0.232383	0.463455	0.440833
H447	H	0.565716	0.796788	0.774166
Br448	Br	-0.054839	0.155226	0.106696
Br449	Br	0.278495	0.488559	0.440029
Br450	Br	0.611828	0.821893	0.773363
H451	H	-0.511422	-0.874360	0.211029
H452	H	-0.178089	-0.541026	0.544363
H453	H	0.155245	-0.207693	0.877696
Br454	Br	-0.493551	-0.762977	0.242156
Br455	Br	-0.160218	-0.429644	0.575490
Br456	Br	0.173116	-0.096310	0.908823
H457	H	-0.478515	-0.628667	0.268365
H458	H	-0.145182	-0.295334	0.601698
H459	H	0.188151	0.038000	0.935031
H460	H	-0.478501	-0.531776	0.268360
H461	H	-0.145168	-0.198442	0.601694
H462	H	0.188166	0.134891	0.935027
