data_functionalizedCrystal
_audit_creation_method	'MofGen! by Chris Wilmer'
_symmetry_space_group_name_H-M	'P1'
_symmetry_Int_Tables_number	1
_symmetry_cell_setting	triclinic
loop_
_symmetry_equiv_pos_as_xyz
  x,y,z
_cell_length_a	19.288840
_cell_length_b	10.540539
_cell_length_c	17.766277
_cell_angle_alpha	90.000648
_cell_angle_beta	89.986186
_cell_angle_gamma	83.825754
loop_
_atom_site_label
_atom_site_type_symbol
_atom_site_fract_x
_atom_site_fract_y
_atom_site_fract_z
O1	O	0.922417	0.158185	-0.062717
O2	O	0.720297	0.179579	-0.062690
O3	O	0.825969	-0.015928	-0.062703
O4	O	0.816746	0.353692	-0.062704
O5	O	0.825954	-0.015921	0.062485
O6	O	0.720283	0.179586	0.062498
O7	O	0.922403	0.158192	0.062472
Cu8	Cu	0.821342	0.168890	0.073916
Cu9	Cu	0.821359	0.168881	-0.074134
O10	O	0.816732	0.353699	0.062485
C11	C	0.694409	0.178899	-0.000092
C12	C	0.617290	0.176849	-0.000082
C13	C	0.581088	0.175860	-0.068325
C14	C	0.508628	0.173919	-0.068334
C15	C	0.472375	0.172942	-0.000097
C16	C	0.508586	0.173938	0.068154
C17	C	0.581043	0.175891	0.068161
C18	C	0.362525	0.095502	0.052172
C19	C	0.290069	0.093540	0.052162
C20	C	0.248891	0.166922	-0.000117
C21	C	0.280180	0.242248	-0.052397
C22	C	0.352637	0.244202	-0.052390
C23	C	0.393807	0.170824	-0.000097
C24	C	0.134120	0.163830	-0.068374
C25	C	0.061658	0.161897	-0.068380
C26	C	0.061618	0.161903	0.068110
C27	C	0.134077	0.163849	0.068115
C28	C	0.170324	0.164806	-0.000129
C29	C	0.825270	-0.063212	-0.000110
C30	C	0.823201	-0.204114	-0.000114
C31	C	0.743911	-0.385760	-0.000384
C32	C	0.746008	-0.239189	-0.000103
C33	C	0.860341	-0.266601	0.071370
C34	C	0.857706	-0.413087	0.071431
C35	C	0.859292	-0.413648	-0.070932
C36	C	0.860004	-0.266682	-0.071878
C37	C	0.948292	0.158872	-0.000127
C38	C	1.025410	0.160922	-0.000142
C39	C	0.817431	0.400983	-0.000110
C40	C	0.819500	0.541884	-0.000111
N41	N	0.821335	0.168895	0.178046
N42	N	0.821371	0.168866	-0.178264
C43	C	0.863876	0.245637	0.782328
C44	C	0.863869	0.245649	0.703526
C45	C	0.821365	0.168867	0.664135
C46	C	0.778851	0.092092	0.703552
C47	C	0.778854	0.092091	0.782352
C48	C	0.818875	0.054425	0.539292
C49	C	0.818877	0.054423	0.460493
C50	C	0.821352	0.168870	0.421089
C51	C	0.823840	0.283321	0.460493
C52	C	0.823843	0.283321	0.539293
C53	C	0.821357	0.168860	0.578689
C54	C	0.863853	0.245661	0.296235
C55	C	0.863841	0.245676	0.217432
C56	C	0.778826	0.092106	0.217459
C57	C	0.778834	0.092103	0.296261
C58	C	0.821351	0.168878	0.335644
H59	H	0.163554	0.164646	0.123685
H60	H	0.917028	-0.245520	0.074021
Br61	Br	0.693135	-0.435570	0.084330
H62	H	0.032183	0.161100	-0.123953
Br63	Br	0.721146	-0.012094	0.349746
H64	H	0.915048	-0.462126	-0.071420
Br65	Br	0.721160	-0.012103	0.650095
Br66	Br	0.953807	-0.228411	-0.079093
H67	H	0.479146	0.173116	-0.123907
Br68	Br	0.395098	0.346429	-0.123336
H69	H	0.898496	0.308156	0.814389
H70	H	0.264601	0.032199	0.094728
Br71	Br	0.921570	0.349826	0.650033
H72	H	0.816856	-0.038771	0.428416
H73	H	0.816853	-0.038776	0.571368
H74	H	0.898469	0.308182	0.328303
Br75	Br	0.827214	0.438639	0.592769
Br76	Br	0.224305	0.341848	-0.123350
H77	H	0.825855	0.376515	0.428412
Br78	Br	0.921513	0.349910	0.163949
H79	H	0.396047	0.035742	0.094746
Br80	Br	0.721132	-0.012086	0.164008
Br81	Br	0.693092	-0.432285	-0.085826
Br82	Br	0.721162	-0.012104	0.835838
H83	H	0.610596	0.176639	-0.123894
H84	H	0.830246	-0.440667	0.124874
H85	H	0.163633	0.164623	-0.123942
Br86	Br	0.012424	0.160596	0.160719
H87	H	0.834315	-0.444643	-0.125113
Br88	Br	0.817323	-0.194635	0.160049
Br89	Br	0.630179	0.177236	0.160783
Br90	Br	0.459387	0.172625	0.160762
H91	H	0.716784	-0.195933	-0.051345
H92	H	0.716567	-0.196770	0.051232
H93	H	0.832828	-0.225217	-0.124759
Br94	Br	0.950232	-0.495122	0.076834
