data_functionalizedCrystal
_audit_creation_method	'MofGen! by Chris Wilmer'
_symmetry_space_group_name_H-M	'P1'
_symmetry_Int_Tables_number	1
_symmetry_cell_setting	triclinic
loop_
_symmetry_equiv_pos_as_xyz
  x,y,z
_cell_length_a	18.050591
_cell_length_b	21.395363
_cell_length_c	21.395355
_cell_angle_alpha	90.007968
_cell_angle_beta	90.030556
_cell_angle_gamma	89.996470
loop_
_atom_site_label
_atom_site_type_symbol
_atom_site_fract_x
_atom_site_fract_y
_atom_site_fract_z
Zn1	Zn	1.135506	-0.249578	0.354408
Zn2	Zn	1.135456	-0.354338	0.249650
Zn3	Zn	1.011305	-0.249571	0.249634
Zn4	Zn	1.011334	-0.354314	0.354379
O5	O	1.073400	-0.301950	0.302017
O6	O	1.239424	-0.263487	0.340530
O7	O	1.118954	-0.340447	0.161970
O8	O	1.027789	-0.161894	0.263537
O9	O	1.239388	-0.340454	0.263565
O10	O	1.119040	-0.161899	0.340515
O11	O	1.027741	-0.263475	0.161958
O12	O	0.907384	-0.263452	0.263509
O13	O	1.027839	-0.340414	0.442061
O14	O	0.907405	-0.340407	0.340465
O15	O	1.119068	-0.263464	0.442082
O16	O	1.118983	-0.442012	0.263537
O17	O	1.027790	-0.441995	0.340481
C18	C	0.880448	-0.301927	0.301983
C19	C	0.797902	-0.301932	0.301983
C20	C	1.073404	-0.464738	0.302021
C21	C	1.073474	-0.534379	0.302044
C22	C	1.073462	-0.301937	0.465441
C23	C	1.073488	-0.301932	0.535082
C24	C	0.598419	-0.260035	0.260231
C25	C	0.549029	-0.317181	0.244821
C26	C	0.646772	-0.301951	0.302011
C27	C	0.549080	-0.244825	0.317419
C28	C	0.500787	-0.301964	0.302037
C29	C	0.598469	-0.359126	0.286572
C30	C	0.598525	-0.286732	0.359197
C31	C	0.549158	-0.343917	0.343809
C32	C	0.730870	-0.301942	0.301994
C33	C	0.416691	-0.301979	0.302054
C34	C	1.267106	-0.301974	0.302053
C35	C	1.349652	-0.301984	0.302068
C36	C	1.073417	-0.138527	0.302027
C37	C	1.073424	-0.068886	0.302032
C38	C	1.026000	0.432919	0.342107
C39	C	1.025989	0.367483	0.342104
C40	C	1.073465	0.334753	0.302043
C41	C	1.120942	0.367463	0.261972
C42	C	1.120946	0.432897	0.261972
C43	C	1.140365	0.231078	0.297108
C44	C	1.140362	0.165645	0.297112
C45	C	1.073450	0.132932	0.302039
C46	C	1.006540	0.165660	0.306975
C47	C	1.006545	0.231094	0.306975
C48	C	1.073465	0.263800	0.302038
C49	C	1.025961	0.029277	0.342101
C50	C	1.025948	-0.036160	0.342093
C51	C	1.120908	-0.036178	0.261965
C52	C	1.120913	0.029257	0.261970
C53	C	1.073441	0.061981	0.302041
C54	C	1.073382	-0.301917	0.139230
C55	C	1.073499	-0.301746	0.069589
C56	C	1.120989	-0.261863	0.567807
C57	C	1.120988	-0.261836	0.633243
C58	C	1.073494	-0.301889	0.665950
C59	C	1.025984	-0.341961	0.633217
C60	C	1.025981	-0.341983	0.567783
C61	C	1.067631	-0.358304	0.769626
C62	C	1.067639	-0.358284	0.835059
C63	C	1.073499	-0.301823	0.867771
C64	C	1.079365	-0.245381	0.835043
C65	C	1.079362	-0.245402	0.769608
C66	C	1.073492	-0.301870	0.736903
C67	C	1.121001	-0.261721	0.971449
C68	C	1.120995	-0.261693	1.036886
C69	C	1.025994	-0.341824	1.036859
C70	C	1.025997	-0.341847	0.971424
C71	C	1.073504	-0.301796	0.938723
H72	H	0.620049	-0.224627	0.224860
Br73	Br	0.512793	-0.338653	0.164237
Br74	Br	1.185471	-0.207366	0.927065
Br75	Br	0.513330	-0.403071	0.402719
H76	H	0.987336	0.340852	0.374735
Br77	Br	1.185440	-0.207437	0.677666
H78	H	0.987297	-0.374611	0.541139
Br79	Br	0.915725	0.121272	0.313664
Br80	Br	0.634471	-0.439680	0.264776
Br81	Br	1.185478	-0.207318	1.081300
H82	H	1.084137	-0.199445	0.742964
H83	H	0.987311	-0.374571	0.659852
H84	H	0.952065	0.257740	0.310993
Br85	Br	0.961532	0.073692	0.396479
H86	H	1.159606	0.459524	0.229347
H87	H	1.062661	-0.404270	0.742997
H88	H	0.620283	-0.273833	0.407531
H89	H	0.987283	-0.062785	0.374715
Br90	Br	1.185370	0.323045	0.207601
Br91	Br	0.512913	-0.164299	0.339120
H92	H	1.159562	-0.062827	0.229346
H93	H	0.987344	0.459560	0.374734
Br94	Br	1.185352	0.073642	0.207600
Br95	Br	1.231181	0.275468	0.290410
Br96	Br	1.231168	0.121235	0.290425
H97	H	0.987316	-0.374430	1.063489
Br98	Br	1.185460	-0.207506	0.523430
H99	H	1.084138	-0.199405	0.861676
H100	H	0.987321	-0.374479	0.944779
Br101	Br	1.059688	-0.434883	0.879470
