data_functionalizedCrystal
_audit_creation_method	'MofGen! by Chris Wilmer'
_symmetry_space_group_name_H-M	'P1'
_symmetry_Int_Tables_number	1
_symmetry_cell_setting	triclinic
loop_
_symmetry_equiv_pos_as_xyz
  x,y,z
_cell_length_a	25.639242
_cell_length_b	25.639240
_cell_length_c	14.908308
_cell_angle_alpha	86.744551
_cell_angle_beta	86.722498
_cell_angle_gamma	90.025061
loop_
_atom_site_label
_atom_site_type_symbol
_atom_site_fract_x
_atom_site_fract_y
_atom_site_fract_z
Zn1	Zn	0.782209	-0.225305	0.510043
Zn2	Zn	0.787182	-0.307700	0.359162
Zn3	Zn	0.699824	-0.220270	0.359201
Zn4	Zn	0.694743	-0.312697	0.509966
O5	O	0.740990	-0.266493	0.434593
O6	O	0.856034	-0.236250	0.490044
O7	O	0.779802	-0.291903	0.232927
O8	O	0.710799	-0.147774	0.379259
O9	O	0.859687	-0.296786	0.379192
O10	O	0.771327	-0.151473	0.490082
O11	O	0.715620	-0.227669	0.232956
O12	O	0.625986	-0.232514	0.379184
O13	O	0.702137	-0.305302	0.636216
O14	O	0.622252	-0.300420	0.489950
O15	O	0.766399	-0.241096	0.636273
O16	O	0.774874	-0.381526	0.379118
O17	O	0.706959	-0.385197	0.489913
C18	C	0.605148	-0.266463	0.434564
C19	C	0.547034	-0.266464	0.434573
C20	C	0.293942	-0.235035	0.492419
C21	C	0.348546	-0.235029	0.492413
O22	O	0.375169	-0.208284	0.541590
N23	N	0.377759	-0.266487	0.434603
C24	C	0.352364	-0.297956	0.376801
O25	O	0.382225	-0.324712	0.327629
C26	C	0.297760	-0.297963	0.376811
C27	C	0.268551	-0.266500	0.434619
C28	C	0.264732	-0.203574	0.550222
C29	C	0.210132	-0.203579	0.550226
C30	C	0.184740	-0.235044	0.492426
C31	C	0.213950	-0.266505	0.434622
C32	C	0.272366	-0.329434	0.319014
C33	C	0.217758	-0.329440	0.319030
C34	C	0.188549	-0.297976	0.376837
C35	C	0.133958	-0.297974	0.376826
N36	N	0.104746	-0.266517	0.434636
C37	C	0.130137	-0.235052	0.492436
C38	C	0.467035	-0.297938	0.376784
C39	C	0.521638	-0.297927	0.376769
C40	C	0.517817	-0.235002	0.492383
C41	C	0.463213	-0.235010	0.492393
C42	C	0.437823	-0.266480	0.434595
C43	C	0.015472	-0.235064	0.492439
C44	C	-0.039134	-0.235070	0.492435
C45	C	-0.035308	-0.297997	0.376825
C46	C	0.019293	-0.297989	0.376825
C47	C	0.044681	-0.266521	0.434640
O48	O	0.107300	-0.324708	0.327678
O49	O	0.100269	-0.208305	0.541608
C50	C	0.740918	-0.402333	0.434522
C51	C	0.740934	-0.460447	0.434522
C52	C	0.772520	-0.822703	0.492402
C53	C	0.772534	-0.877308	0.492421
O54	O	0.799304	-0.907153	0.541560
N55	N	0.741059	-0.902735	0.434680
C56	C	0.709563	-0.873553	0.376924
O57	O	0.682792	-0.900194	0.327813
C58	C	0.709546	-0.818949	0.376910
C59	C	0.741027	-0.793526	0.434649
C60	C	0.803998	-0.797280	0.550137
C61	C	0.803984	-0.742679	0.550117
C62	C	0.772491	-0.713501	0.492363
C63	C	0.741013	-0.738925	0.434629
C64	C	0.678047	-0.789769	0.319159
C65	C	0.678033	-0.735162	0.319152
C66	C	0.709514	-0.709738	0.376890
C67	C	0.709506	-0.655146	0.376855
N68	N	0.740982	-0.629720	0.434596
C69	C	0.772474	-0.658897	0.492350
C70	C	0.709601	-0.988225	0.376957
C71	C	0.709621	-1.042827	0.376964
C72	C	0.772591	-1.046579	0.492463
C73	C	0.772574	-0.991975	0.492450
C74	C	0.741076	-0.962799	0.434697
C75	C	0.772442	-0.544231	0.492303
C76	C	0.772427	-0.489624	0.492276
C77	C	0.709454	-0.485878	0.376781
C78	C	0.709471	-0.540479	0.376805
C79	C	0.740967	-0.569654	0.434573
O80	O	0.682749	-0.625268	0.327744
O81	O	0.799235	-0.632250	0.541461
C82	C	0.877362	-0.266522	0.434623
C83	C	0.935475	-0.266535	0.434635
C84	C	0.733147	-0.274318	0.669892
C85	C	0.729805	-0.277653	0.770162
C86	C	0.741075	-0.130123	0.434683
C87	C	0.741111	-0.072010	0.434722
C88	C	0.748832	-0.258660	0.200209
C89	C	0.752275	-0.255178	0.099939
C90	C	0.790438	-0.217049	0.958642
C91	C	0.787300	-0.220181	1.052855
C92	C	0.720386	-0.287045	1.052803
C93	C	0.723525	-0.283913	0.958590
C94	C	0.758553	-0.248915	0.911513
C95	C	0.761694	-0.245786	0.817298
C96	C	0.694778	-0.312647	0.817248
C97	C	0.691639	-0.315779	0.911461
H98	H	0.545416	-0.323542	0.329686
C99	C	0.431433	-0.200940	0.555214
C100	C	0.398153	-0.232519	0.612932
C101	C	0.368868	-0.201151	0.670811
H102	H	0.454318	-0.182191	0.589719
H103	H	0.411250	-0.176994	0.520815
H104	H	0.418335	-0.256455	0.647328
H105	H	0.375258	-0.251267	0.578453
H106	H	0.348684	-0.177205	0.636412
H107	H	0.391756	-0.182404	0.705309
H108	H	0.346281	-0.222572	0.709974
C109	C	0.828388	-0.179022	0.907407
C110	C	0.800610	-0.143716	0.853315
C111	C	0.835554	-0.108683	0.806097
H112	H	0.846948	-0.160440	0.948865
H113	H	0.852373	-0.197792	0.870595
H114	H	0.776635	-0.124947	0.890124
H115	H	0.782053	-0.162282	0.811841
H116	H	0.859538	-0.127453	0.769284
H117	H	0.854111	-0.090105	0.847561
H118	H	0.816712	-0.084726	0.769384
H119	H	0.790216	-0.217289	0.778969
H120	H	0.446366	-0.323563	0.329710
H121	H	0.285400	-0.177952	0.597294
H122	H	0.296139	-0.355055	0.271941
H123	H	-0.055991	-0.323613	0.329762
C124	C	0.806675	-0.575961	0.554876
C125	C	0.841914	-0.605615	0.503870
C126	C	0.873455	-0.634854	0.561477
H127	H	0.825466	-0.553051	0.589271
H128	H	0.785371	-0.598599	0.594151
H129	H	0.863215	-0.582979	0.464611
H130	H	0.823138	-0.628534	0.469476
H131	H	0.852152	-0.657492	0.600752
H132	H	0.892243	-0.611941	0.595870
H133	H	0.897365	-0.654982	0.526879
C134	C	0.190290	-0.363625	0.256174
C135	C	0.227563	-0.391165	0.205538
C136	C	0.202280	-0.422655	0.147618
H137	H	0.167839	-0.387627	0.290508
H138	H	0.170313	-0.342298	0.216884
H139	H	0.247531	-0.412490	0.244823
H140	H	0.250016	-0.367176	0.171185
H141	H	0.182303	-0.401328	0.108328
H142	H	0.179830	-0.446654	0.181959
H143	H	0.227566	-0.441341	0.113248
C144	C	0.806623	-0.462120	0.555069
C145	C	0.834192	-0.499365	0.605668
C146	C	0.865691	-0.474050	0.663530
H147	H	0.830608	-0.439669	0.520694
H148	H	0.785299	-0.442140	0.594385
H149	H	0.855515	-0.519337	0.566358
H150	H	0.810220	-0.521818	0.640062
H151	H	0.844367	-0.454070	0.702846
H152	H	0.889673	-0.451600	0.629148
H153	H	0.884397	-0.499317	0.697875
C154	C	0.682439	-0.325098	1.103980
C155	C	0.710217	-0.360417	1.158049
C156	C	0.675276	-0.395480	1.205199
H157	H	0.658437	-0.306369	1.140806
H158	H	0.663901	-0.343661	1.062454
H159	H	0.728746	-0.341856	1.199570
H160	H	0.734217	-0.379158	1.121245
H161	H	0.656738	-0.414044	1.163673
H162	H	0.651275	-0.376747	1.242020
H163	H	0.694118	-0.419452	1.241884
C164	C	0.675263	-0.568158	0.314258
C165	C	0.640042	-0.601217	0.365293
C166	C	0.608523	-0.626725	0.307711
H167	H	0.656458	-0.543019	0.279834
H168	H	0.696582	-0.588185	0.275009
H169	H	0.618725	-0.581192	0.404526
H170	H	0.658833	-0.626366	0.399715
H171	H	0.629842	-0.646752	0.268462
H172	H	0.589721	-0.601583	0.273289
H173	H	0.584625	-0.649162	0.342329
C174	C	0.178514	-0.169406	0.613096
C175	C	0.212446	-0.141864	0.663725
C176	C	0.183342	-0.110384	0.721664
H177	H	0.158357	-0.145405	0.578776
H178	H	0.155914	-0.190740	0.652390
H179	H	0.235037	-0.120533	0.624436
H180	H	0.232603	-0.165852	0.698063
H181	H	0.160743	-0.131718	0.760958
H182	H	0.163187	-0.086387	0.687337
H183	H	0.206361	-0.091697	0.756028
H184	H	0.652382	-0.711409	0.272123
C185	C	0.675174	-0.454260	0.314140
C186	C	0.622787	-0.468232	0.333701
C187	C	0.591189	-0.439120	0.276014
H188	H	0.679606	-0.418090	0.322351
H189	H	0.684838	-0.461212	0.253521
H190	H	0.613126	-0.461276	0.394305
H191	H	0.618339	-0.504397	0.325483
H192	H	0.600854	-0.446072	0.215395
H193	H	0.595626	-0.402952	0.284230
H194	H	0.555643	-0.448599	0.289273
H195	H	0.538500	-0.209381	0.539447
C196	C	0.838251	-0.828859	0.612878
C197	C	0.865820	-0.794896	0.663412
C198	C	0.897390	-0.823963	0.721209
H199	H	0.816992	-0.851476	0.652245
H200	H	0.862234	-0.848994	0.578431
H201	H	0.841840	-0.774770	0.697857
H202	H	0.887089	-0.772279	0.624069
H203	H	0.921373	-0.844098	0.686762
H204	H	0.876127	-0.846579	0.760570
H205	H	0.916103	-0.800923	0.755497
C206	C	0.050916	-0.332205	0.314029
C207	C	0.016989	-0.359770	0.263427
C208	C	0.046097	-0.391306	0.205587
H209	H	0.073537	-0.310923	0.274707
H210	H	0.071049	-0.356189	0.348448
H211	H	-0.003135	-0.335790	0.229011
H212	H	-0.005633	-0.381062	0.302725
H213	H	0.066230	-0.415290	0.240005
H214	H	0.068717	-0.370020	0.166271
H215	H	0.023081	-0.410016	0.171252
C216	C	0.821983	-0.185559	1.103862
C217	C	0.853337	-0.154250	1.042465
C218	C	0.885299	-0.122353	1.089419
H219	H	0.800829	-0.163951	1.140630
H220	H	0.843557	-0.206772	1.140586
H221	H	0.831765	-0.133039	1.005756
H222	H	0.874501	-0.175844	1.005696
H223	H	0.906873	-0.143566	1.126143
H224	H	0.864142	-0.100749	1.126185
H225	H	0.906580	-0.101110	1.047769
H226	H	0.798233	-1.070345	0.539491
H227	H	0.036136	-0.209439	0.539517
H228	H	0.663120	-0.344272	0.949804
C229	C	0.660182	-0.347185	0.765916
C230	C	0.670419	-0.336946	0.673331
C231	C	0.638557	-0.368748	0.626016
H232	H	0.667271	-0.382845	0.781230
H233	H	0.624532	-0.340035	0.781299
H234	H	0.706060	-0.344100	0.657953
H235	H	0.663327	-0.301292	0.657989
H236	H	0.602907	-0.361598	0.641399
H237	H	0.645648	-0.404407	0.641338
H238	H	0.645495	-0.361802	0.563192
C239	C	0.838072	-0.715017	0.612868
C240	C	0.806507	-0.685587	0.670622
C241	C	0.837892	-0.660098	0.728439
H242	H	0.856835	-0.740165	0.647349
H243	H	0.862008	-0.692534	0.578425
H244	H	0.782582	-0.708068	0.705061
H245	H	0.787745	-0.660430	0.636166
H246	H	0.861827	-0.637614	0.693996
H247	H	0.856653	-0.685249	0.762914
H248	H	0.816481	-0.640122	0.767626
H249	H	0.798209	-0.971279	0.539466
H250	H	-0.062914	-0.209446	0.539509
H251	H	0.683954	-0.964471	0.329920
C252	C	0.675353	-1.070401	0.314381
C253	C	0.622958	-1.057805	0.333955
C254	C	0.591371	-1.083199	0.276332
H255	H	0.684983	-1.059471	0.253746
H256	H	0.679832	-1.107106	0.322663
H257	H	0.618482	-1.021108	0.325665
H258	H	0.613312	-1.068736	0.394579
H259	H	0.595850	-1.119904	0.284614
H260	H	0.601006	-1.072267	0.215701
H261	H	0.555818	-1.074660	0.289610
C262	C	0.643808	-0.817267	0.256441
C263	C	0.616216	-0.780017	0.205890
C264	C	0.584660	-0.805328	0.148111
H265	H	0.665079	-0.837260	0.217084
H266	H	0.619839	-0.839706	0.290901
H267	H	0.640181	-0.757587	0.171432
H268	H	0.594934	-0.760022	0.245223
H269	H	0.560692	-0.827767	0.182571
H270	H	0.605936	-0.825320	0.108760
H271	H	0.565932	-0.780059	0.113811
