data_functionalizedCrystal
_audit_creation_method	'MofGen! by Chris Wilmer'
_symmetry_space_group_name_H-M	'P1'
_symmetry_Int_Tables_number	1
_symmetry_cell_setting	triclinic
loop_
_symmetry_equiv_pos_as_xyz
  x,y,z
_cell_length_a	21.295418
_cell_length_b	21.295417
_cell_length_c	21.295411
_cell_angle_alpha	90.021644
_cell_angle_beta	90.043738
_cell_angle_gamma	90.046319
loop_
_atom_site_label
_atom_site_type_symbol
_atom_site_fract_x
_atom_site_fract_y
_atom_site_fract_z
Zn1	Zn	0.962356	-0.250415	0.356234
Zn2	Zn	1.462356	0.249585	0.856234
Zn3	Zn	0.962258	-0.355667	0.250959
Zn4	Zn	1.462258	0.144333	0.750959
Zn5	Zn	0.857079	-0.250445	0.250943
Zn6	Zn	1.357079	0.249555	0.750943
Zn7	Zn	0.857048	-0.355680	0.356155
Zn8	Zn	1.357048	0.144320	0.856155
O9	O	0.909685	-0.303052	0.303573
O10	O	1.409685	0.196948	0.803573
O11	O	1.050432	-0.264360	0.342308
O12	O	1.550432	0.235640	0.842308
O13	O	0.948278	-0.341716	0.162867
O14	O	1.448278	0.158284	0.662867
O15	O	0.871098	-0.162351	0.264937
O16	O	1.371098	0.337649	0.764937
O17	O	1.050361	-0.341688	0.264963
O18	O	1.550361	0.158312	0.764963
O19	O	0.948444	-0.162330	0.342293
O20	O	1.448444	0.337670	0.842293
O21	O	0.871003	-0.264410	0.162856
O22	O	1.371003	0.235590	0.662856
O23	O	0.768985	-0.264422	0.264861
O24	O	1.268985	0.235578	0.764861
O25	O	0.871046	-0.341709	0.444255
O26	O	1.371046	0.158291	0.944255
O27	O	0.768963	-0.341738	0.342160
O28	O	1.268963	0.158262	0.842160
O29	O	0.948415	-0.264372	0.444313
O30	O	1.448415	0.235628	0.944313
O31	O	0.948248	-0.443758	0.264887
O32	O	1.448248	0.056242	0.764887
O33	O	0.870951	-0.443767	0.342175
O34	O	1.370951	0.056233	0.842175
C35	C	0.746134	-0.303085	0.303500
C36	C	1.246134	0.196915	0.803500
C37	C	0.676166	-0.303114	0.303484
C38	C	1.176166	0.196886	0.803484
C39	C	0.643304	-0.343426	0.343674
C40	C	1.143304	0.156574	0.843674
C41	C	0.577561	-0.343410	0.343702
C42	C	1.077561	0.156590	0.843702
C43	C	0.544683	-0.303090	0.303530
C44	C	1.044683	0.196910	0.803530
C45	C	0.577553	-0.262770	0.263337
C46	C	1.077553	0.237230	0.763337
C47	C	0.643294	-0.262783	0.263315
C48	C	1.143294	0.237217	0.763315
N49	N	0.441407	-0.298163	0.248472
N50	N	0.941407	0.201837	0.748472
N51	N	0.378956	-0.298155	0.248495
N52	N	0.878956	0.201845	0.748495
C53	C	0.346608	-0.303050	0.303596
C54	C	0.846608	0.196950	0.803596
N55	N	0.379072	-0.307965	0.358675
N56	N	0.879072	0.192035	0.858675
N57	N	0.441529	-0.307976	0.358650
N58	N	0.941529	0.192024	0.858650
C59	C	0.473398	-0.303072	0.303550
C60	C	0.973398	0.196928	0.803550
C61	C	0.242461	-0.343346	0.343820
C62	C	0.742461	0.156654	0.843820
C63	C	0.176717	-0.343326	0.343849
C64	C	0.676717	0.156674	0.843849
C65	C	0.176710	-0.262690	0.263479
C66	C	0.676710	0.237310	0.763479
C67	C	0.242453	-0.262707	0.263455
C68	C	0.742453	0.237293	0.763455
C69	C	0.275324	-0.303038	0.303625
C70	C	0.775324	0.196962	0.803625
C71	C	0.909603	-0.466603	0.303538
C72	C	1.409603	0.033397	0.803538
C73	C	0.909625	-0.536571	0.303544
C74	C	1.409625	-0.036571	0.803544
C75	C	0.949910	-0.569412	0.263342
C76	C	1.449910	-0.069412	0.763342
C77	C	0.949939	-0.635155	0.263356
C78	C	1.449939	-0.135155	0.763356
C79	C	0.909673	-0.668054	0.303566
C80	C	1.409673	-0.168054	0.803566
C81	C	0.869386	-0.635205	0.343776
C82	C	1.369386	-0.135205	0.843776
C83	C	0.869362	-0.569464	0.343765
C84	C	1.369362	-0.069464	0.843765
N85	N	0.854606	-0.771336	0.308340
N86	N	1.354606	-0.271336	0.808340
N87	N	0.854630	-0.833787	0.308347
N88	N	1.354630	-0.333787	0.808347
C89	C	0.909743	-0.866129	0.303602
C90	C	1.409743	-0.366129	0.803602
N91	N	0.964832	-0.833659	0.298838
N92	N	1.464832	-0.333659	0.798838
N93	N	0.964807	-0.771202	0.298828
N94	N	1.464807	-0.271202	0.798828
C95	C	0.909695	-0.739339	0.303582
C96	C	1.409695	-0.239339	0.803582
C97	C	0.950063	-0.970255	0.263413
C98	C	1.450063	-0.470255	0.763413
C99	C	0.950094	-1.035999	0.263431
C100	C	1.450094	-0.535999	0.763431
C101	C	0.869535	-1.036048	0.343848
C102	C	1.369535	-0.536048	0.843848
C103	C	0.869510	-0.970305	0.343833
C104	C	1.369510	-0.470305	0.843833
C105	C	0.909773	-0.937413	0.303612
C106	C	1.409773	-0.437413	0.803612
C107	C	1.073876	-0.303019	0.303646
C108	C	1.573876	0.196981	0.803646
C109	C	1.143844	-0.303005	0.303677
C110	C	1.643844	0.196995	0.803677
C111	C	0.909738	-0.303038	0.467763
C112	C	1.409738	0.196962	0.967763
C113	C	0.909760	-0.303033	0.537731
C114	C	1.409760	0.196967	1.037731
C115	C	0.909785	-0.138861	0.303622
C116	C	1.409785	0.361139	0.803622
C117	C	0.909828	-0.068893	0.303642
C118	C	1.409828	0.431107	0.803642
C119	C	0.909670	-0.303019	0.140021
C120	C	1.409670	0.196981	0.640021
C121	C	0.909769	-0.302848	0.070054
C122	C	1.409769	0.197152	0.570054
C123	C	0.950044	-0.262761	0.570629
C124	C	1.450044	0.237239	1.070629
C125	C	0.950043	-0.262734	0.636371
C126	C	1.450043	0.237266	1.136371
C127	C	0.909765	-0.302989	0.669214
C128	C	1.409765	0.197011	1.169214
C129	C	0.869473	-0.343263	0.636308
C130	C	1.369473	0.156737	1.136308
C131	C	0.869470	-0.343285	0.570567
C132	C	1.369470	0.156715	1.070567
N133	N	0.904908	-0.358058	0.772428
N134	N	1.404908	0.141942	1.272428
N135	N	0.904914	-0.358036	0.834879
N136	N	1.404914	0.141964	1.334879
C137	C	0.909769	-0.302926	0.867289
C138	C	1.409769	0.197074	1.367289
N139	N	0.914629	-0.247837	0.834888
N140	N	1.414629	0.252163	1.334888
N141	N	0.914627	-0.247860	0.772430
N142	N	1.414627	0.252140	1.272430
C143	C	0.909763	-0.302970	0.740499
C144	C	1.409763	0.197030	1.240499
C145	C	0.950054	-0.262621	0.971472
C146	C	1.450054	0.237379	1.471472
C147	C	0.950049	-0.262593	1.037216
C148	C	1.450049	0.237407	1.537216
C149	C	0.869482	-0.343128	1.037151
C150	C	1.369482	0.156872	1.537151
C151	C	0.869484	-0.343151	0.971409
C152	C	1.369484	0.156849	1.471409
C153	C	0.909773	-0.302898	0.938573
C154	C	1.409773	0.197102	1.438573
H155	H	0.149962	-0.376152	0.376580
H156	H	0.649962	0.123848	0.876580
O157	O	0.989347	-1.067902	0.224496
O158	O	1.489347	-0.567902	0.724496
C159	C	1.029993	-1.105831	0.260435
C160	C	1.529993	-0.605831	0.760435
H161	H	1.033773	-1.085985	0.310020
H162	H	1.533773	-0.585985	0.810020
H163	H	1.078474	-1.106478	0.237782
H164	H	1.578474	-0.606478	0.737782
H165	H	1.010599	-1.155698	0.262564
H166	H	1.510599	-0.655698	0.762564
O167	O	0.274476	-0.223574	0.224468
O168	O	0.774476	0.276426	0.724468
C169	C	0.339550	-0.232243	0.233049
C170	C	0.839550	0.267757	0.733049
H171	H	0.348562	-0.252931	0.281588
H172	H	0.848562	0.247069	0.781588
H173	H	0.364579	-0.185091	0.228855
H174	H	0.864579	0.314909	0.728855
H175	H	0.358130	-0.265716	0.195643
H176	H	0.858130	0.234284	0.695643
O177	O	0.675204	-0.382531	0.382789
O178	O	1.175204	0.117469	0.882789
C179	C	0.659205	-0.368873	0.445557
C180	C	1.159205	0.131127	0.945557
H181	H	0.641188	-0.318585	0.448833
H182	H	1.141188	0.181415	0.948833
H183	H	0.702465	-0.374351	0.476636
H184	H	1.202465	0.125649	0.976636
H185	H	0.621027	-0.402638	0.461959
H186	H	1.121027	0.097362	0.961959
O187	O	0.830378	-0.382457	0.668139
O188	O	1.330378	0.117543	1.168139
C189	C	0.844106	-0.445199	0.652091
C190	C	1.344106	0.054801	1.152091
H191	H	0.868301	-0.446513	0.604375
H192	H	1.368301	0.053487	1.104375
H193	H	0.798657	-0.473435	0.649807
H194	H	1.298657	0.026565	1.149807
H195	H	0.876459	-0.466384	0.689112
H196	H	1.376459	0.033616	1.189112
O197	O	0.830442	-1.068095	0.382852
O198	O	1.330442	-0.568095	0.882852
C199	C	0.839115	-1.133163	0.374256
C200	C	1.339115	-0.633163	0.874256
H201	H	0.859756	-1.142146	0.325703
H202	H	1.359756	-0.642146	0.825703
H203	H	0.791971	-1.158203	0.378475
H204	H	1.291971	-0.658203	0.878475
H205	H	0.872629	-1.151756	0.411639
H206	H	1.372629	-0.651756	0.911639
H207	H	0.982852	-0.229795	1.064000
H208	H	1.482852	0.270205	1.564000
H209	H	0.836704	-0.943564	0.376567
H210	H	1.336704	-0.443564	0.876567
O211	O	0.989087	-0.938269	0.224283
O212	O	1.489087	-0.438269	0.724283
C213	C	0.953254	-0.900297	0.183583
C214	C	1.453254	-0.400297	0.683583
H215	H	0.903686	-0.920173	0.179634
H216	H	1.403686	-0.420173	0.679634
H217	H	0.976046	-0.899550	0.135168
H218	H	1.476046	-0.399550	0.635168
H219	H	0.951053	-0.850465	0.203034
H220	H	1.451053	-0.350465	0.703034
O221	O	0.545645	-0.223516	0.224380
O222	O	1.045645	0.276484	0.724380
C223	C	0.561794	-0.160799	0.238237
C224	C	1.061794	0.339201	0.738237
H225	H	0.579925	-0.157696	0.288525
H226	H	1.079925	0.342304	0.788525
H227	H	0.518583	-0.129687	0.232886
H228	H	1.018583	0.370313	0.732886
H229	H	0.599932	-0.144300	0.204505
H230	H	1.099932	0.355700	0.704505
O231	O	0.830250	-0.667063	0.382895
O232	O	1.330250	-0.167063	0.882895
C233	C	0.794676	-0.623975	0.418366
C234	C	1.294676	-0.123975	0.918366
H235	H	0.820442	-0.577081	0.420571
H236	H	1.320442	-0.077081	0.920571
H237	H	0.787945	-0.642952	0.467958
H238	H	1.287945	-0.142952	0.967958
H239	H	0.746875	-0.617051	0.395255
H240	H	1.246875	-0.117051	0.895255
O241	O	0.545599	-0.382481	0.382808
O242	O	1.045599	0.117519	0.882808
C243	C	0.507638	-0.346696	0.423533
C244	C	1.007638	0.153304	0.923533
H245	H	0.527507	-0.297129	0.427515
H246	H	1.027507	0.202871	0.927515
H247	H	0.506915	-0.369540	0.471933
H248	H	1.006915	0.130460	0.971933
H249	H	0.457798	-0.344484	0.404085
H250	H	0.957798	0.155516	0.904085
O251	O	0.830419	-0.382217	1.069144
O252	O	1.330419	0.117783	1.569144
C253	C	0.839048	-0.373553	1.134224
C254	C	1.339048	0.126447	1.634224
H255	H	0.887638	-0.352917	1.143239
H256	H	1.387638	0.147083	1.643239
H257	H	0.834758	-0.420699	1.159202
H258	H	1.334758	0.079301	1.659202
H259	H	0.801726	-0.340039	1.152857
H260	H	1.301726	0.159961	1.652857
H261	H	0.982850	-0.229984	0.543898
H262	H	1.482850	0.270016	1.043898
H263	H	0.982846	-0.229937	0.663162
H264	H	1.482846	0.270063	1.163162
H265	H	0.836663	-0.376078	0.543782
H266	H	1.336663	0.123922	1.043782
H267	H	0.982857	-0.229842	0.944736
H268	H	1.482857	0.270158	1.444736
H269	H	0.836557	-0.542724	0.376503
H270	H	1.336557	-0.042724	0.876503
O271	O	0.830334	-0.382333	0.939546
O272	O	1.330334	0.117667	1.439546
C273	C	0.794769	-0.417847	0.982628
C274	C	1.294769	0.082153	1.482628
H275	H	0.820554	-0.420008	1.029509
H276	H	1.320554	0.079992	1.529509
H277	H	0.788021	-0.467451	0.963625
H278	H	1.288021	0.032549	1.463625
H279	H	0.746976	-0.394799	0.989587
H280	H	1.246976	0.105201	1.489587
H281	H	0.982696	-0.542633	0.230593
H282	H	1.482696	-0.042633	0.730593
O283	O	0.675191	-0.223693	0.224179
O284	O	1.175191	0.276307	0.724179
C285	C	0.659029	-0.237343	0.161421
C286	C	1.159029	0.262657	0.661421
H287	H	0.640899	-0.287623	0.158157
H288	H	1.140899	0.212377	0.658157
H289	H	0.702234	-0.231887	0.130316
H290	H	1.202234	0.268113	0.630316
H291	H	0.620887	-0.203560	0.145043
H292	H	1.120887	0.296440	0.645043
H293	H	0.269226	-0.376183	0.376531
H294	H	0.769226	0.123817	0.876531
H295	H	0.149942	-0.229857	0.230773
H296	H	0.649942	0.270143	0.730773
H297	H	0.982746	-0.661899	0.230619
H298	H	1.482746	-0.161899	0.730619
