data_functionalizedCrystal
_audit_creation_method	'MofGen! by Chris Wilmer'
_symmetry_space_group_name_H-M	'P1'
_symmetry_Int_Tables_number	1
_symmetry_cell_setting	triclinic
loop_
_symmetry_equiv_pos_as_xyz
  x,y,z
_cell_length_a	14.971486
_cell_length_b	14.971486
_cell_length_c	14.048226
_cell_angle_alpha	89.997552
_cell_angle_beta	90.003179
_cell_angle_gamma	96.385871
loop_
_atom_site_label
_atom_site_type_symbol
_atom_site_fract_x
_atom_site_fract_y
_atom_site_fract_z
O1	O	1.186950	-0.116559	0.079052
O2	O	1.686950	0.383441	0.579052
O3	O	0.926550	-0.130518	0.079078
O4	O	1.426550	0.369482	0.579078
O5	O	1.063729	0.006662	0.079057
O6	O	1.563729	0.506662	0.579057
O7	O	1.049770	-0.253738	0.079072
O8	O	1.549770	0.246262	0.579072
O9	O	1.063707	0.006658	-0.079264
O10	O	1.563707	0.506658	0.420736
O11	O	0.926528	-0.130521	-0.079244
O12	O	1.426528	0.369479	0.420756
O13	O	1.186928	-0.116562	-0.079270
O14	O	1.686928	0.383438	0.420730
Zn15	Zn	1.056724	-0.123542	-0.104394
Zn16	Zn	1.556724	0.376458	0.395606
Zn17	Zn	1.056753	-0.123538	0.104202
Zn18	Zn	1.556753	0.376462	0.604202
O19	O	1.049748	-0.253742	-0.079249
O20	O	1.549748	0.246258	0.420751
C21	C	0.893214	-0.129895	-0.000080
C22	C	1.393214	0.370105	0.499920
C23	C	0.793917	-0.128024	-0.000070
C24	C	1.293917	0.371976	0.499930
C25	C	1.063094	0.039985	-0.000103
C26	C	1.563094	0.539985	0.499897
C27	C	1.061223	0.139282	-0.000102
C28	C	1.561223	0.639282	0.499898
N29	N	1.056711	-0.123545	-0.246754
N30	N	1.556711	0.376455	0.253246
C31	C	0.736691	-0.208614	-0.000067
C32	C	1.236691	0.291386	0.499933
C33	C	0.643392	-0.206850	-0.000081
C34	C	1.143392	0.293150	0.499919
C35	C	0.607320	-0.124497	-0.000092
C36	C	1.107320	0.375503	0.499908
C37	C	0.664552	-0.043902	-0.000098
C38	C	1.164552	0.456098	0.499902
C39	C	0.757850	-0.045666	-0.000090
C40	C	1.257850	0.454334	0.499910
C41	C	0.470090	-0.040231	-0.000111
C42	C	0.970090	0.459769	0.499889
C43	C	0.376786	-0.038466	-0.000117
C44	C	0.876786	0.461534	0.499883
C45	C	0.355632	-0.201415	-0.000102
C46	C	0.855632	0.298585	0.499898
C47	C	0.448930	-0.203179	-0.000094
C48	C	0.948930	0.296821	0.499906
C49	C	0.506156	-0.122584	-0.000099
C50	C	1.006156	0.377416	0.499901
C51	C	1.220263	-0.117185	-0.000110
C52	C	1.720263	0.382815	0.499890
C53	C	1.319561	-0.119056	-0.000114
C54	C	1.819561	0.380944	0.499886
C55	C	1.050384	-0.287065	-0.000087
C56	C	1.550384	0.212935	0.499913
C57	C	1.052254	-0.386362	-0.000082
C58	C	1.552254	0.113638	0.499918
C59	C	1.141812	0.196507	-0.000111
C60	C	1.641812	0.696507	0.499889
C61	C	1.140049	0.289807	-0.000101
C62	C	1.640049	0.789807	0.499899
C63	C	1.057696	0.325879	-0.000089
C64	C	1.557696	0.825879	0.499911
C65	C	0.977101	0.268646	-0.000078
C66	C	1.477101	0.768646	0.499922
C67	C	0.978865	0.175349	-0.000081
C68	C	1.478865	0.675349	0.499919
C69	C	0.973430	0.463109	-0.000074
C70	C	1.473430	0.963109	0.499926
C71	C	0.971665	0.556413	-0.000073
C72	C	1.471665	1.056413	0.499927
C73	C	1.134614	0.577567	-0.000094
C74	C	1.634614	1.077567	0.499906
C75	C	1.136378	0.484269	-0.000097
C76	C	1.636378	0.984269	0.499903
C77	C	1.055782	0.427043	-0.000088
C78	C	1.555782	0.927043	0.499912
C79	C	1.117525	-0.062810	-0.703603
C80	C	1.617525	0.437190	-0.203603
C81	C	1.117517	-0.062816	-0.603945
C82	C	1.617517	0.437184	-0.103945
C83	C	1.056753	-0.123537	-0.554124
C84	C	1.556753	0.376463	-0.054124
C85	C	0.995998	-0.184262	-0.603966
C86	C	1.495998	0.315738	-0.103966
C87	C	0.996011	-0.184259	-0.703622
C88	C	1.496011	0.315741	-0.203622
C89	C	0.995974	-0.184261	-0.396252
C90	C	1.495974	0.315739	0.103748
C91	C	0.995959	-0.184263	-0.296589
C92	C	1.495959	0.315737	0.203411
C93	C	1.117480	-0.062818	-0.296575
C94	C	1.617480	0.437182	0.203425
C95	C	1.117493	-0.062816	-0.396231
C96	C	1.617493	0.437184	0.103769
C97	C	1.056737	-0.123540	-0.446066
C98	C	1.556737	0.376460	0.053934
N99	N	1.056774	-0.123528	0.246562
N100	N	1.556774	0.376472	0.746562
H101	H	0.766054	-0.275675	-0.000057
H102	H	1.266054	0.224325	0.499943
O103	O	1.183047	0.002678	-0.550204
O104	O	1.683047	0.502678	-0.050204
H105	H	1.226559	-0.035050	-0.504804
H106	H	1.726559	0.464950	-0.004804
H107	H	0.946479	-0.233709	-0.256030
H108	H	1.446479	0.266291	0.243970
O109	O	1.183039	0.002664	-0.449973
O110	O	1.683039	0.502664	0.050027
H111	H	1.225293	0.044880	-0.398579
H112	H	1.725293	0.544880	0.101421
H113	H	0.596802	-0.272474	-0.000077
H114	H	1.096802	0.227526	0.499923
O115	O	0.625652	0.044925	-0.000118
O116	O	1.125652	0.544925	0.499882
H117	H	0.583658	0.049637	0.064412
H118	H	1.083658	0.549637	0.564412
H119	H	0.804443	0.019958	-0.000093
H120	H	1.304443	0.519958	0.499907
H121	H	1.167003	-0.013360	-0.744160
H122	H	1.667003	0.486640	-0.244160
H123	H	0.478296	-0.270239	-0.000077
H124	H	0.978296	0.229761	0.499923
H125	H	0.910047	0.298024	-0.000062
H126	H	1.410047	0.798024	0.499938
H127	H	0.946525	-0.233706	-0.563396
H128	H	1.446525	0.266294	-0.063396
O129	O	0.531809	0.046701	-0.000116
O130	O	1.031809	0.546701	0.499884
H131	H	0.574816	0.049798	-0.064647
H132	H	1.074816	0.549798	0.435353
H133	H	0.309033	-0.267039	-0.000103
H134	H	0.809033	0.232961	0.499897
O135	O	1.221547	0.639281	-0.000096
O136	O	1.721547	1.139281	0.499904
H137	H	1.206488	0.710218	-0.000078
H138	H	1.706488	1.210218	0.499922
O139	O	0.337881	0.050359	-0.000141
O140	O	0.837881	0.550359	0.499859
H141	H	0.295875	0.055040	-0.064672
H142	H	0.795875	0.555040	0.435328
O143	O	0.891945	0.113620	-0.000082
O144	O	1.391945	0.613620	0.499918
H145	H	0.834382	0.154375	-0.000084
H146	H	1.334382	0.654375	0.499916
O147	O	1.230637	0.157601	-0.000114
O148	O	1.730637	0.657601	0.499886
H149	H	1.286378	0.213072	-0.000106
H150	H	1.786378	0.713072	0.499894
H151	H	1.166949	-0.013375	-0.255994
H152	H	1.666949	0.486625	0.244006
H153	H	0.946503	-0.233712	-0.436824
H154	H	1.446503	0.266288	0.063176
O155	O	0.930497	-0.249757	-0.757380
O156	O	1.430497	0.250243	-0.257380
H157	H	0.888240	-0.291980	-0.705997
H158	H	1.388240	0.208020	-0.205997
H159	H	1.205673	0.336396	-0.000110
H160	H	1.705673	0.836396	0.499890
O161	O	1.225203	0.445364	-0.000098
O162	O	1.725203	0.945364	0.499902
H163	H	1.263933	0.468350	-0.064624
H164	H	1.763933	0.968350	0.435376
O165	O	0.882844	0.595326	-0.000044
O166	O	1.382844	1.095326	0.499956
H167	H	0.827097	0.539861	-0.000020
H168	H	1.327097	1.039861	0.499980
H169	H	0.907800	0.416517	-0.000064
H170	H	1.407800	0.916517	0.499936
