data_functionalizedCrystal
_audit_creation_method	'MofGen! by Chris Wilmer'
_symmetry_space_group_name_H-M	'P1'
_symmetry_Int_Tables_number	1
_symmetry_cell_setting	triclinic
loop_
_symmetry_equiv_pos_as_xyz
  x,y,z
_cell_length_a	17.000383
_cell_length_b	17.038272
_cell_length_c	14.586319
_cell_angle_alpha	89.995924
_cell_angle_beta	89.993336
_cell_angle_gamma	83.355929
loop_
_atom_site_label
_atom_site_type_symbol
_atom_site_fract_x
_atom_site_fract_y
_atom_site_fract_z
O1	O	1.057999	0.028051	-0.076304
O2	O	0.828179	0.056294	-0.076292
O3	O	0.941723	-0.071549	-0.076290
O4	O	0.944455	0.155895	-0.076305
O5	O	0.941714	-0.071550	0.076190
O6	O	0.828170	0.056293	0.076189
O7	O	1.057990	0.028050	0.076177
Cu8	Cu	0.943079	0.042171	0.090106
Cu9	Cu	0.943089	0.042173	-0.090221
O10	O	0.944446	0.155893	0.076176
C11	C	0.798624	0.057810	-0.000050
C12	C	0.710571	0.062321	-0.000045
C13	C	0.212326	0.091445	-0.000082
C14	C	0.295061	0.087201	-0.000081
C15	C	0.341068	0.013535	-0.000069
C16	C	0.304335	-0.055892	-0.000067
C17	C	0.221601	-0.051647	-0.000075
C18	C	0.591103	-0.002861	-0.000052
C19	C	0.673843	-0.007101	-0.000041
C20	C	0.664564	0.135993	-0.000056
C21	C	0.581828	0.140231	-0.000058
C22	C	0.545103	0.070804	-0.000062
C23	C	0.425637	0.009195	-0.000065
C24	C	0.460535	0.075145	-0.000072
C25	C	0.939234	-0.100508	-0.000050
C26	C	0.931821	-0.186793	-0.000050
C27	C	0.999879	-0.241568	-0.000052
C28	C	0.992910	-0.322641	-0.000061
C29	C	0.917881	-0.348938	-0.000060
C30	C	0.849817	-0.294156	-0.000060
C31	C	0.856788	-0.213085	-0.000059
C32	C	0.893255	-0.593009	-0.000071
C33	C	0.886289	-0.674088	-0.000070
C34	C	1.029382	-0.702567	-0.000073
C35	C	1.036346	-0.621493	-0.000065
C36	C	0.968283	-0.566718	-0.000070
C37	C	0.910755	-0.431807	-0.000066
C38	C	0.975410	-0.483850	-0.000071
C39	C	1.087545	0.026534	-0.000067
C40	C	1.175598	0.022024	-0.000077
C41	C	0.946935	0.184852	-0.000067
C42	C	0.954348	0.271137	-0.000073
N43	N	0.943078	0.042170	0.216937
N44	N	0.943097	0.042168	-0.217052
C45	C	0.993374	-0.014423	0.451945
C46	C	0.993376	-0.014425	0.547926
C47	C	0.892795	0.098764	0.547934
C48	C	0.892789	0.098761	0.451954
C49	C	0.943083	0.042169	0.403962
C50	C	0.943091	0.042169	0.595923
C51	C	0.943093	0.042167	0.699990
C52	C	0.943081	0.042169	0.299888
H53	H	0.711300	-0.067092	-0.000036
H54	H	1.034326	-0.060505	0.412872
N55	N	0.532208	0.219685	0.000051
H56	H	0.568030	0.263021	0.000087
H57	H	0.497641	0.224635	-0.056439
H58	H	0.561212	-0.059393	-0.000052
H59	H	0.463105	-0.050784	-0.000052
H60	H	0.341800	-0.115872	-0.000063
H61	H	0.191699	-0.108177	-0.000073
N62	N	0.704182	0.210866	-0.000067
H63	H	0.687764	0.242877	-0.056598
H64	H	0.687736	0.242827	0.056489
H65	H	0.423073	0.135124	-0.000086
H66	H	1.034327	-0.060508	0.586990
H67	H	0.851847	0.144841	0.587019
H68	H	1.060976	-0.220165	-0.000047
N69	N	0.838542	0.159807	0.400204
H70	H	0.871145	0.192199	0.360368
H71	H	0.801458	0.132401	0.360448
H72	H	1.097443	-0.600089	-0.000066
N73	N	1.066315	-0.381721	-0.000058
H74	H	1.114902	-0.352760	-0.000050
H75	H	1.066529	-0.415980	0.056468
H76	H	0.174873	0.151432	-0.000084
H77	H	1.084795	-0.747173	-0.000070
N78	N	0.805362	-0.702453	-0.000071
H79	H	0.763301	-0.655452	-0.000077
H80	H	0.799365	-0.735470	-0.056597
H81	H	0.837832	-0.548421	-0.000075
N82	N	0.334676	0.162076	-0.000100
H83	H	0.292976	0.209387	-0.000108
H84	H	0.368797	0.163440	0.056423
H85	H	0.801367	-0.168486	-0.000057
N86	N	0.768892	-0.322514	-0.000066
H87	H	0.774801	-0.382185	-0.000064
H88	H	0.738864	-0.302126	0.056462
N89	N	1.056330	-0.455488	-0.000065
H90	H	1.086386	-0.475825	0.056463
H91	H	1.086343	-0.475821	-0.056624
N92	N	0.829830	-0.460168	-0.000057
H93	H	0.823753	-0.493166	-0.056582
H94	H	0.823802	-0.493140	0.056505
