data_functionalizedCrystal
_audit_creation_method	'MofGen! by Chris Wilmer'
_symmetry_space_group_name_H-M	'P1'
_symmetry_Int_Tables_number	1
_symmetry_cell_setting	triclinic
loop_
_symmetry_equiv_pos_as_xyz
  x,y,z
_cell_length_a	14.044220
_cell_length_b	10.654550
_cell_length_c	9.130313
_cell_angle_alpha	89.999512
_cell_angle_beta	90.003971
_cell_angle_gamma	91.163096
loop_
_atom_site_label
_atom_site_type_symbol
_atom_site_fract_x
_atom_site_fract_y
_atom_site_fract_z
O1	O	0.133230	-1.681228	0.121694
O2	O	0.145923	-1.317025	0.121721
O3	O	0.001556	-1.493660	0.121693
O4	O	0.277597	-1.504594	0.121721
O5	O	0.001556	-1.493646	-0.121906
O6	O	0.145923	-1.317011	-0.121878
O7	O	0.133230	-1.681214	-0.121905
Cu8	Cu	0.139576	-1.499111	-0.144134
Cu9	Cu	0.139576	-1.499128	0.143950
O10	O	0.277597	-1.504579	-0.121877
C11	C	0.144991	-1.270127	-0.000075
C12	C	0.142202	-1.130403	-0.000065
C13	C	-0.033790	-1.488867	-0.000106
C14	C	-0.139110	-1.474592	-0.000107
N15	N	0.139576	-1.499108	-0.346757
C16	C	-0.331943	-1.448493	-0.000084
C17	C	-0.388910	-1.549741	-0.000087
C18	C	-0.496209	-1.535219	-0.000074
C19	C	-0.224634	-1.463013	-0.000097
C20	C	0.312943	-1.509372	-0.000075
C21	C	0.418262	-1.523648	-0.000064
C22	C	0.134162	-1.728113	-0.000106
C23	C	0.136950	-1.867836	-0.000106
C24	C	0.227204	-1.059459	-0.000061
C25	C	0.224578	-0.928175	-0.000086
C26	C	0.051942	-0.938790	-0.000115
C27	C	0.054569	-1.070072	-0.000100
C28	C	0.197644	-1.581775	-0.423403
C29	C	0.197638	-1.581794	-0.576740
C30	C	0.081495	-1.416470	-0.576770
C31	C	0.081496	-1.416458	-0.423436
N32	N	0.139569	-1.499140	0.346572
H33	H	-0.357098	-1.647328	0.000004
C34	C	-0.374918	-1.316665	-0.000093
N35	N	-0.407299	-1.217373	-0.000112
C36	C	0.323603	-1.125819	-0.000041
N37	N	0.396213	-1.175797	-0.000034
H38	H	0.293795	-0.870417	-0.000086
H39	H	0.244936	-1.649074	-0.360975
H40	H	-0.019406	-0.889652	-0.000152
H41	H	-0.014653	-1.127837	-0.000108
C42	C	0.261534	-1.672714	-0.661044
N43	N	0.309669	-1.741192	-0.724541
C44	C	0.017620	-1.325547	-0.661133
N45	N	-0.030488	-1.257057	-0.724673
H46	H	0.034205	-1.349139	-0.361029
