data_functionalizedCrystal
_audit_creation_method	'MofGen! by Chris Wilmer'
_symmetry_space_group_name_H-M	'P1'
_symmetry_Int_Tables_number	1
_symmetry_cell_setting	triclinic
loop_
_symmetry_equiv_pos_as_xyz
  x,y,z
_cell_length_a	14.971486
_cell_length_b	12.837942
_cell_length_c	13.448316
_cell_angle_alpha	89.994234
_cell_angle_beta	89.998199
_cell_angle_gamma	89.221535
loop_
_atom_site_label
_atom_site_type_symbol
_atom_site_fract_x
_atom_site_fract_y
_atom_site_fract_z
O1	O	1.198338	0.135106	-0.082576
O2	O	1.698338	0.635106	0.417424
O3	O	0.939302	0.151285	-0.082603
O4	O	1.439302	0.651285	0.417397
O5	O	1.063076	-0.007715	-0.082584
O6	O	1.563076	0.492285	0.417416
O7	O	1.074564	0.294105	-0.082595
O8	O	1.574564	0.794105	0.417405
O9	O	1.063058	-0.007724	0.082800
O10	O	1.563058	0.492276	0.582800
O11	O	0.939284	0.151275	0.082781
O12	O	1.439284	0.651275	0.582781
O13	O	1.198320	0.135096	0.082808
O14	O	1.698320	0.635096	0.582808
Cu15	Cu	1.068800	0.143185	0.097895
Cu16	Cu	1.568800	0.643185	0.597895
Cu17	Cu	1.068822	0.143196	-0.097690
Cu18	Cu	1.568822	0.643196	0.402310
O19	O	1.074546	0.294095	0.082789
O20	O	1.574546	0.794095	0.582789
C21	C	0.905907	0.150556	0.000086
C22	C	1.405907	0.650556	0.500086
C23	C	0.806427	0.148388	0.000075
C24	C	1.306427	0.648388	0.500075
C25	C	0.757077	0.241796	0.000073
C26	C	1.257077	0.741796	0.500073
C27	C	0.663606	0.239752	0.000088
C28	C	1.163606	0.739752	0.500088
C29	C	0.619486	0.144300	0.000098
C30	C	1.119486	0.644300	0.500098
C31	C	0.668842	0.050885	0.000103
C32	C	1.168842	0.550885	0.500103
C33	C	0.762313	0.052930	0.000095
C34	C	1.262313	0.552930	0.500095
C35	C	0.474021	0.046630	0.000117
C36	C	0.974021	0.546630	0.500117
C37	C	0.380545	0.044585	0.000123
C38	C	0.880545	0.544585	0.500123
C39	C	0.375314	0.233453	0.000110
C40	C	0.875314	0.733453	0.500110
C41	C	0.468784	0.235497	0.000102
C42	C	0.968784	0.735497	0.500102
C43	C	0.518135	0.142082	0.000105
C44	C	1.018135	0.642082	0.500105
C45	C	1.059187	-0.046345	0.000107
C46	C	1.559187	0.453655	0.500107
C47	C	1.047612	-0.161436	0.000104
C48	C	1.547612	0.338564	0.500104
C49	C	1.186755	-0.402222	0.000098
C50	C	1.686755	0.097778	0.500098
C51	C	1.175884	-0.510362	0.000095
C52	C	1.675884	-0.010362	0.500095
C53	C	1.015001	-0.485856	0.000089
C54	C	1.515001	0.014144	0.500089
C55	C	1.025872	-0.377717	0.000092
C56	C	1.525872	0.122283	0.500092
C57	C	1.111751	-0.335904	0.000098
C58	C	1.611751	0.164096	0.500098
C59	C	1.122621	-0.227763	0.000108
C60	C	1.622621	0.272237	0.500108
C61	C	0.961739	-0.203260	0.000094
C62	C	1.461739	0.296740	0.500094
C63	C	0.950868	-0.311399	0.000091
C64	C	1.450868	0.188601	0.500091
C65	C	1.231715	0.135824	0.000117
C66	C	1.731715	0.635824	0.500117
C67	C	1.331195	0.137993	0.000121
C68	C	1.831195	0.637993	0.500121
C69	C	1.078436	0.332726	0.000096
C70	C	1.578436	0.832726	0.500096
C71	C	1.090010	0.447817	0.000092
C72	C	1.590010	0.947817	0.500092
N73	N	1.068792	0.143176	0.235460
N74	N	1.568792	0.643176	0.735460
N75	N	1.068837	0.143197	-0.235255
N76	N	1.568837	0.643197	0.264745
C77	C	1.123620	0.072800	0.287508
C78	C	1.623620	0.572800	0.787508
C79	C	1.123626	0.072799	0.391612
C80	C	1.623626	0.572799	0.891612
C81	C	1.068807	0.143180	0.443664
C82	C	1.568807	0.643180	0.943664
C83	C	1.013972	0.213559	0.391608
C84	C	1.513972	0.713559	0.891608
C85	C	1.013963	0.213554	0.287507
C86	C	1.513963	0.713554	0.787507
C87	C	1.013998	0.213566	0.608588
C88	C	1.513998	0.713566	1.108588
C89	C	1.014008	0.213573	0.712697
C90	C	1.514008	0.713573	1.212697
C91	C	1.123661	0.072811	0.712693
C92	C	1.623661	0.572811	1.212693
C93	C	1.123651	0.072806	0.608592
C94	C	1.623651	0.572806	1.108592
C95	C	1.068818	0.143187	0.556543
C96	C	1.568818	0.643187	1.056543
H97	H	0.632913	-0.026834	0.000125
H98	H	1.132913	0.473166	0.500125
H99	H	1.168264	0.015492	0.245134
H100	H	1.668264	0.515492	0.745134
H101	H	1.168294	0.015502	0.566211
H102	H	1.668294	0.515502	1.066211
Cl103	Cl	0.313275	0.350890	0.000108
Cl104	Cl	0.813275	0.850890	0.500108
Cl105	Cl	0.824353	-0.064503	0.000102
Cl106	Cl	1.324353	0.435497	0.500102
H107	H	1.256681	-0.368178	0.000113
H108	H	1.756681	0.131822	0.500113
Cl109	Cl	0.907047	-0.538440	0.000052
Cl110	Cl	1.407047	-0.038440	0.500052
Cl111	Cl	1.230582	-0.175199	0.000122
Cl112	Cl	1.730582	0.324801	0.500122
Cl113	Cl	0.524248	0.355497	0.000079
Cl114	Cl	1.024248	0.855497	0.500079
Cl115	Cl	0.945087	0.302054	0.778126
Cl116	Cl	1.445087	0.802054	1.278126
H117	H	1.168271	0.015493	0.433989
H118	H	1.668271	0.515493	0.933989
Cl119	Cl	0.536060	-0.070809	0.000123
Cl120	Cl	1.036060	0.429191	0.500123
H121	H	0.900666	-0.149251	0.000102
H122	H	1.400666	0.350749	0.500102
H123	H	0.792993	0.319524	0.000065
H124	H	1.292993	0.819524	0.500065
Cl125	Cl	1.192595	-0.015665	0.778129
Cl126	Cl	1.692595	0.484335	1.278129
H127	H	0.344625	-0.033141	0.000132
H128	H	0.844625	0.466859	0.500132
Cl129	Cl	0.842911	-0.363975	0.000075
Cl130	Cl	1.342911	0.136025	0.500075
H131	H	1.236960	-0.564355	0.000092
H132	H	1.736960	-0.064355	0.500092
Cl133	Cl	0.945059	0.302045	0.543159
Cl134	Cl	1.445059	0.802045	1.043159
H135	H	0.969333	0.270861	0.433995
H136	H	1.469333	0.770861	0.933995
H137	H	0.623429	0.315815	0.000086
H138	H	1.123429	0.815815	0.500086
Cl139	Cl	0.945028	0.302028	0.222075
Cl140	Cl	1.445028	0.802028	0.722075
