data_functionalizedCrystal
_audit_creation_method	'MofGen! by Chris Wilmer'
_symmetry_space_group_name_H-M	'P1'
_symmetry_Int_Tables_number	1
_symmetry_cell_setting	triclinic
loop_
_symmetry_equiv_pos_as_xyz
  x,y,z
_cell_length_a	16.120530
_cell_length_b	13.033615
_cell_length_c	13.032268
_cell_angle_alpha	90.919108
_cell_angle_beta	85.357344
_cell_angle_gamma	93.931702
loop_
_atom_site_label
_atom_site_type_symbol
_atom_site_fract_x
_atom_site_fract_y
_atom_site_fract_z
Zn1	Zn	1.157364	-0.564931	0.592636
Zn2	Zn	1.490697	-0.231598	0.925969
Zn3	Zn	1.824030	0.101735	1.259303
Zn4	Zn	1.161674	-0.715402	0.399073
Zn5	Zn	1.495007	-0.382069	0.732407
Zn6	Zn	1.828341	-0.048735	1.065740
Zn7	Zn	1.039079	-0.534792	0.414227
Zn8	Zn	1.372412	-0.201459	0.747560
Zn9	Zn	1.705745	0.131874	1.080894
Zn10	Zn	1.004682	-0.726084	0.562438
Zn11	Zn	1.338015	-0.392751	0.895771
Zn12	Zn	1.671349	-0.059417	1.229105
O13	O	1.090700	-0.635302	0.492094
O14	O	1.424033	-0.301969	0.825427
O15	O	1.757366	0.031364	1.158760
O16	O	1.273140	-0.593034	0.573255
O17	O	1.606473	-0.259701	0.906589
O18	O	1.939807	0.073632	1.239922
O19	O	1.161610	-0.674360	0.258050
O20	O	1.494944	-0.341027	0.591383
O21	O	1.828277	-0.007693	0.924717
O22	O	1.067361	-0.395762	0.456873
O23	O	1.400694	-0.062428	0.790206
O24	O	1.734027	0.270905	1.123540
O25	O	1.276307	-0.703584	0.431046
O26	O	1.609640	-0.370251	0.764379
O27	O	1.942973	-0.036918	1.097712
O28	O	1.154264	-0.417904	0.587949
O29	O	1.487598	-0.084571	0.921283
O30	O	1.820931	0.248762	1.254616
O31	O	1.071540	-0.541667	0.269183
O32	O	1.404873	-0.208333	0.602517
O33	O	1.738207	0.125000	0.935850
O34	O	0.919311	-0.552025	0.427591
O35	O	1.252645	-0.218692	0.760925
O36	O	1.585978	0.114642	1.094258
O37	O	1.008737	-0.721791	0.709477
O38	O	1.342070	-0.388457	1.042811
O39	O	1.675403	-0.055124	1.376144
O40	O	0.894040	-0.692566	0.536482
O41	O	1.227374	-0.359233	0.869815
O42	O	1.560707	-0.025899	1.203148
O43	O	1.120911	-0.603392	0.731664
O44	O	1.454245	-0.270059	1.064997
O45	O	1.787578	0.063274	1.398330
O46	O	1.128258	-0.859848	0.401764
O47	O	1.461591	-0.526514	0.735097
O48	O	1.794924	-0.193181	1.068431
O49	O	1.012916	-0.867696	0.521788
O50	O	1.346250	-0.534363	0.855121
O51	O	1.679583	-0.201029	1.188454
C52	C	0.876805	-0.620185	0.480405
C53	C	1.210138	-0.286852	0.813738
C54	C	1.543471	0.046482	1.147071
C55	C	0.785294	-0.613745	0.475425
C56	C	1.118628	-0.280412	0.808758
C57	C	1.451961	0.052921	1.142092
C58	C	1.067342	-0.900862	0.456878
C59	C	1.400675	-0.567528	0.790211
C60	C	1.734009	-0.234195	1.123545
C61	C	1.057421	-1.014479	0.441851
C62	C	1.390754	-0.681145	0.775184
C63	C	1.724088	-0.347812	1.108518
C64	C	1.060506	-0.667145	0.758695
C65	C	1.393840	-0.333812	1.092028
C66	C	1.727173	-0.000478	1.425361
C67	C	1.047640	-0.680714	0.872304
C68	C	1.380973	-0.347381	1.205637
C69	C	1.714306	-0.014048	1.538971
C70	C	0.617744	-0.601965	0.466345
C71	C	0.951077	-0.268632	0.799679
C72	C	1.284411	0.064702	1.133012
C73	C	0.564481	-0.668724	0.517906
C74	C	0.897814	-0.335391	0.851240
C75	C	1.231147	-0.002057	1.184573
C76	C	0.471250	-0.662169	0.512854
C77	C	0.804583	-0.328836	0.846188
C78	C	1.137916	0.004497	1.179521
C79	C	0.710984	-0.608518	0.471396
C80	C	1.044317	-0.275185	0.804729
C81	C	1.377650	0.058149	1.138063
C82	C	1.305430	-0.650480	0.503829
C83	C	1.638763	-0.317146	0.837162
C84	C	1.972096	0.016187	1.170495
C85	C	1.396935	-0.656947	0.508830
C86	C	1.730268	-0.323614	0.842163
C87	C	2.063602	0.009719	1.175496
C88	C	1.114168	-0.368710	0.527470
C89	C	1.447502	-0.035377	0.860803
C90	C	1.780835	0.297956	1.194137
C91	C	1.124169	-0.255105	0.542545
C92	C	1.457503	0.078229	0.875879
C93	C	1.790836	0.411562	1.209212
C94	C	1.085630	-0.193500	0.484412
C95	C	1.418963	0.139834	0.817746
C96	C	1.752297	0.473167	1.151079
C97	C	1.095966	-0.076082	0.499992
C98	C	1.429299	0.257251	0.833325
C99	C	1.762632	0.590585	1.166659
C100	C	1.120829	-0.603513	0.226542
C101	C	1.454163	-0.270180	0.559875
C102	C	1.787496	0.063153	0.893209
C103	C	1.133881	-0.589667	0.112980
C104	C	1.467214	-0.256334	0.446313
C105	C	1.800547	0.076999	0.779647
C106	C	1.097405	-0.628183	0.933932
C107	C	1.430739	-0.294849	1.267265
C108	C	1.764072	0.038484	1.600599
C109	C	1.084108	-0.642206	1.051353
C110	C	1.417442	-0.308873	1.384687
C111	C	1.750775	0.024461	1.718020
H112	H	0.593327	-0.539894	0.418411
H113	H	0.926660	-0.206561	0.751745
H114	H	1.259994	0.126773	1.085078
H115	H	1.164813	-0.220920	0.603853
H116	H	1.498146	0.112413	0.937186
H117	H	1.831479	0.445746	1.270520
H118	H	0.995185	-0.736063	0.906473
H119	H	1.328518	-0.402730	1.239807
H120	H	1.661852	-0.069397	1.573140
H121	H	1.016765	-0.048658	0.380549
H122	H	1.350099	0.284675	0.713882
H123	H	1.683432	0.618008	1.047215
O124	O	1.021571	-0.708385	1.091970
O125	O	1.354904	-0.375051	1.425303
O126	O	1.688237	-0.041718	1.758637
C127	C	1.033534	-0.808444	1.053439
C128	C	1.366867	-0.475111	1.386773
C129	C	1.700200	-0.141778	1.720106
H130	H	1.073714	-0.803604	0.977338
H131	H	1.407048	-0.470271	1.310671
H132	H	1.740381	-0.136937	1.644005
H133	H	0.970483	-0.849657	1.040565
H134	H	1.303817	-0.516324	1.373898
H135	H	1.637150	-0.182991	1.707231
H136	H	1.066075	-0.852983	1.111257
H137	H	1.399409	-0.519649	1.444590
H138	H	1.732742	-0.186316	1.777923
H139	H	1.044980	-0.227686	0.423112
H140	H	1.378313	0.105648	0.756445
H141	H	1.711647	0.438981	1.089779
H142	H	1.186331	-0.534301	1.078818
H143	H	1.519664	-0.200968	1.412151
H144	H	1.852997	0.132365	1.745485
O145	O	1.144459	-0.035143	0.573058
O146	O	1.477792	0.298190	0.906391
O147	O	1.811126	0.631523	1.239724
C148	C	1.143971	0.072977	0.572361
C149	C	1.477305	0.406310	0.905694
C150	C	1.810638	0.739644	1.239027
H151	H	1.127207	0.098783	0.493914
H152	H	1.460541	0.432116	0.827247
H153	H	1.793874	0.765450	1.160580
H154	H	1.208403	0.108443	0.588019
H155	H	1.541737	0.441776	0.921353
H156	H	1.875070	0.775110	1.254686
H157	H	1.095911	0.099134	0.634584
H158	H	1.429245	0.432467	0.967917
H159	H	1.762578	0.765801	1.301251
H160	H	0.588899	-0.730799	0.565845
H161	H	0.922232	-0.397466	0.899178
H162	H	1.255566	-0.064133	1.232512
H163	H	1.149853	-0.572823	0.899764
H164	H	1.483186	-0.239490	1.233097
H165	H	1.816519	0.093844	1.566430
