data_functionalizedCrystal
_audit_creation_method	'MofGen! by Chris Wilmer'
_symmetry_space_group_name_H-M	'P1'
_symmetry_Int_Tables_number	1
_symmetry_cell_setting	triclinic
loop_
_symmetry_equiv_pos_as_xyz
  x,y,z
_cell_length_a	10.968094
_cell_length_b	14.853569
_cell_length_c	9.482900
_cell_angle_alpha	99.346518
_cell_angle_beta	92.548310
_cell_angle_gamma	84.184613
loop_
_atom_site_label
_atom_site_type_symbol
_atom_site_fract_x
_atom_site_fract_y
_atom_site_fract_z
O1	O	1.610452	0.159123	0.282518
O2	O	1.261247	0.161106	0.195039
O3	O	1.445174	0.029208	0.241128
O4	O	1.426525	0.291021	0.236428
O5	O	1.407814	0.056112	0.473559
O6	O	1.223887	0.188010	0.427469
O7	O	1.573092	0.186027	0.514948
Cu8	Cu	1.395078	0.189475	0.492432
Cu9	Cu	1.439260	0.157658	0.217555
O10	O	1.389165	0.317925	0.468859
C11	C	1.197877	0.172382	0.300059
C12	C	1.064714	0.165887	0.266701
C13	C	0.848357	0.170206	0.337749
C14	C	0.985984	0.176927	0.372240
C15	C	1.425648	0.009042	0.357132
C16	C	1.423114	-0.091129	0.356499
C17	C	1.312667	-0.131313	0.328833
C18	C	1.531183	-0.145071	0.383557
C19	C	1.528807	-0.239187	0.382956
C20	C	1.418360	-0.279371	0.355291
C21	C	1.310288	-0.225438	0.328227
C22	C	1.636878	-0.293129	0.410005
C23	C	1.634507	-0.387252	0.409403
C24	C	1.524057	-0.427436	0.381748
C25	C	1.415981	-0.373497	0.354684
C26	C	1.305534	-0.413681	0.327019
C27	C	1.197455	-0.359742	0.299965
C28	C	1.199838	-0.265623	0.300571
C29	C	1.521674	-0.521556	0.381142
C30	C	1.303155	-0.507807	0.326412
C31	C	1.636463	0.174751	0.409925
C32	C	1.769627	0.181244	0.443274
C33	C	1.408691	0.338090	0.352852
C34	C	1.411226	0.438260	0.353476
N35	N	1.364012	0.211854	0.685767
N36	N	1.470336	0.135272	0.024222
C37	C	1.430089	0.164253	0.774524
C38	C	1.404250	0.182880	0.935467
H39	H	1.213212	-0.540516	0.303896
H40	H	1.111847	-0.221698	0.278542
H41	H	1.020464	0.191349	0.488126
H42	H	0.813873	0.155776	0.221872
H43	H	1.726785	-0.260394	0.432615
H44	H	1.328540	0.237422	0.978619
C45	C	1.664957	-0.649202	0.292706
C46	C	1.640462	-0.580845	0.410871
H47	H	1.738301	-0.685800	0.311062
H48	H	1.598845	-0.686598	0.276165
H49	H	1.674359	-0.621564	0.210758
H50	H	1.631051	-0.608484	0.492818
H51	H	1.706590	-0.543444	0.427430
H52	H	0.804112	0.195665	0.559151
C53	C	1.287139	0.370746	0.713657
C54	C	1.261812	0.285485	0.744012
H55	H	1.224037	0.416200	0.749605
H56	H	1.363437	0.385985	0.757635
H57	H	1.291097	0.367876	0.613140
H58	H	1.257862	0.288352	0.844530
H59	H	1.185493	0.270242	0.700039
C60	C	1.737357	-0.141633	0.310883
C61	C	1.652581	-0.100900	0.413951
H62	H	1.812303	-0.114355	0.329644
H63	H	1.751410	-0.205396	0.314416
H64	H	1.705859	-0.132758	0.218691
H65	H	1.684076	-0.109781	0.506143
H66	H	1.638530	-0.037121	0.410432
H67	H	1.505785	0.109707	0.731364
H68	H	1.224671	-0.087391	0.306812
C69	C	1.096801	-0.497922	0.274734
C70	C	1.076052	-0.403919	0.269556
H71	H	1.021852	-0.525194	0.255969
H72	H	1.154318	-0.525533	0.204821
H73	H	1.128286	-0.506788	0.366935
H74	H	1.044576	-0.395053	0.177351
H75	H	1.018515	-0.376300	0.339473
H76	H	1.546037	0.080723	0.981067
H77	H	1.722511	-0.431161	0.431435
C78	C	0.890852	0.143531	0.106363
C79	C	1.018183	0.146417	0.110255
H80	H	0.862127	0.131518	0.009780
H81	H	0.871098	0.096344	0.155589
H82	H	0.852976	0.200783	0.151060
H83	H	1.056059	0.089163	0.065567
H84	H	1.037948	0.193608	0.061008
