data_functionalizedCrystal
_audit_creation_method	'MofGen! by Chris Wilmer'
_symmetry_space_group_name_H-M	'P1'
_symmetry_Int_Tables_number	1
_symmetry_cell_setting	triclinic
loop_
_symmetry_equiv_pos_as_xyz
  x,y,z
_cell_length_a	8.497367
_cell_length_b	8.497366
_cell_length_c	13.897449
_cell_angle_alpha	89.966723
_cell_angle_beta	90.032196
_cell_angle_gamma	90.003193
loop_
_atom_site_label
_atom_site_type_symbol
_atom_site_fract_x
_atom_site_fract_y
_atom_site_fract_z
Zn1	Zn	0.627625	-0.892502	1.475165
Zn2	Zn	1.127625	-0.392502	1.975165
Zn3	Zn	0.891564	-0.628921	1.475168
Zn4	Zn	1.391564	-0.128921	1.975168
Zn5	Zn	0.627797	-0.628726	1.313819
Zn6	Zn	1.127797	-0.128726	1.813819
Zn7	Zn	0.891363	-0.892649	1.313980
Zn8	Zn	1.391363	-0.392649	1.813980
O9	O	0.759587	-0.760699	1.394533
O10	O	1.259587	-0.260699	1.894533
O11	O	0.662649	-0.857557	1.610147
O12	O	1.162649	-0.357557	2.110147
O13	O	0.856730	-0.408132	1.453698
O14	O	1.356730	0.091868	1.953698
O15	O	0.407012	-0.663573	1.335153
O16	O	0.907012	-0.163573	1.835153
O17	O	0.856564	-0.663905	1.610149
O18	O	1.356564	-0.163905	2.110149
O19	O	0.406886	-0.857368	1.453693
O20	O	0.906886	-0.357368	1.953693
O21	O	0.662942	-0.407989	1.335156
O22	O	1.162942	0.092011	1.835156
O23	O	0.662748	-0.663716	1.178859
O24	O	1.162748	-0.163716	1.678859
O25	O	0.856222	-1.113392	1.335428
O26	O	1.356222	-0.613392	1.835428
O27	O	0.856389	-0.857619	1.178977
O28	O	1.356389	-0.357619	1.678977
O29	O	0.662455	-1.113284	1.453850
O30	O	1.162455	-0.613284	1.953850
O31	O	1.112300	-0.664048	1.453854
O32	O	1.612300	-0.164048	1.953854
O33	O	1.112153	-0.857808	1.335430
O34	O	1.612153	-0.357808	1.835430
C35	C	0.759566	-0.760663	1.143919
C36	C	1.259566	-0.260663	1.643919
C37	C	0.759595	-0.760685	1.036705
C38	C	1.259595	-0.260685	1.536705
C39	C	1.348107	-0.760553	1.394466
C40	C	1.848107	-0.260553	1.894466
C41	C	1.169463	-0.760842	1.394587
C42	C	1.669463	-0.260842	1.894587
C43	C	0.759444	-0.172180	1.394589
C44	C	1.259444	0.327820	1.894589
C45	C	0.759774	-0.350823	1.394461
C46	C	1.259774	0.149177	1.894461
C47	C	0.759601	-0.760727	0.840410
C48	C	1.259601	-0.260727	1.340410
C49	C	0.759593	-0.760699	0.949642
C50	C	1.259593	-0.260699	1.449642
C51	C	0.759610	-0.760736	1.646126
C52	C	1.259610	-0.260736	2.146126
C53	C	0.759619	-0.760752	1.753340
C54	C	1.259619	-0.260752	2.253340
