data_functionalizedCrystal
_audit_creation_method	'MofGen! by Chris Wilmer'
_symmetry_space_group_name_H-M	'P1'
_symmetry_Int_Tables_number	1
_symmetry_cell_setting	triclinic
loop_
_symmetry_equiv_pos_as_xyz
  x,y,z
_cell_length_a	13.032831
_cell_length_b	16.625546
_cell_length_c	13.033255
_cell_angle_alpha	97.150402
_cell_angle_beta	76.666554
_cell_angle_gamma	82.826778
loop_
_atom_site_label
_atom_site_type_symbol
_atom_site_fract_x
_atom_site_fract_y
_atom_site_fract_z
Zn1	Zn	1.700029	-0.566816	-0.806342
Zn2	Zn	2.033363	-0.233483	-0.473008
Zn3	Zn	2.366696	0.099851	-0.139675
Zn4	Zn	1.677351	-0.682035	-0.628717
Zn5	Zn	2.010685	-0.348702	-0.295384
Zn6	Zn	2.344018	-0.015369	0.037949
Zn7	Zn	1.499862	-0.527601	-0.606242
Zn8	Zn	1.833196	-0.194268	-0.272909
Zn9	Zn	2.166529	0.139066	0.060424
Zn10	Zn	1.522363	-0.681963	-0.783759
Zn11	Zn	1.855696	-0.348630	-0.450425
Zn12	Zn	2.189030	-0.015296	-0.117092
O13	O	1.599902	-0.614604	-0.706265
O14	O	1.933235	-0.281271	-0.372932
O15	O	2.266568	0.052063	-0.039598
O16	O	1.845655	-0.598542	-0.801637
O17	O	2.178988	-0.265209	-0.468303
O18	O	2.512322	0.068124	-0.134970
O19	O	1.634900	-0.645168	-0.477108
O20	O	1.968233	-0.311835	-0.143775
O21	O	2.301566	0.021499	0.189558
O22	O	1.526489	-0.419982	-0.632831
O23	O	1.859823	-0.086649	-0.299498
O24	O	2.193156	0.246684	0.033836
O25	O	1.828993	-0.683193	-0.671137
O26	O	2.162327	-0.349860	-0.337803
O27	O	2.495660	-0.016527	-0.004470
O28	O	1.673551	-0.448793	-0.779843
O29	O	2.006884	-0.115460	-0.446510
O30	O	2.340218	0.217873	-0.113177
O31	O	1.504499	-0.531706	-0.460596
O32	O	1.837833	-0.198372	-0.127262
O33	O	2.171166	0.134961	0.206071
O34	O	1.354213	-0.531635	-0.610933
O35	O	1.687547	-0.198302	-0.277600
O36	O	2.020880	0.135031	0.055734
O37	O	1.564838	-0.683070	-0.935382
O38	O	1.898172	-0.349736	-0.602049
O39	O	2.231505	-0.016403	-0.268715
O40	O	1.370744	-0.645044	-0.741354
O41	O	1.704078	-0.311711	-0.408020
O42	O	2.037411	0.021622	-0.074687
O43	O	1.695369	-0.598472	-0.951974
O44	O	2.028702	-0.265139	-0.618640
O45	O	2.362036	0.068195	-0.285307
O46	O	1.656718	-0.794846	-0.649239
O47	O	1.990051	-0.461513	-0.315905
O48	O	2.323384	-0.128180	0.017428
O49	O	1.542848	-0.794793	-0.763147
O50	O	1.876182	-0.461460	-0.429813
O51	O	2.209515	-0.128127	-0.096480
C52	C	1.323940	-0.584077	-0.671254
C53	C	1.657273	-0.250744	-0.337921
C54	C	1.990607	0.082589	-0.004588
C55	C	1.205886	-0.571040	-0.656302
C56	C	1.539219	-0.237707	-0.322969
C57	C	1.872552	0.095627	0.010365
C58	C	1.161448	-0.621408	-0.714069
C59	C	1.494781	-0.288075	-0.380735
C60	C	1.828114	0.045258	-0.047402
C61	C	1.039433	-0.607935	-0.698616
C62	C	1.372766	-0.274602	-0.365283
C63	C	1.706099	0.058732	-0.031949
C64	C	1.599795	-0.824079	-0.706208
C65	C	1.933129	-0.490745	-0.372874
C66	C	2.266462	-0.157412	-0.039541
C67	C	1.599852	-0.913708	-0.706231
C68	C	1.933185	-0.580374	-0.372898
C69	C	2.266518	-0.247041	-0.039564
C70	C	1.600051	-1.241916	-0.706365
C71	C	1.933384	-0.908583	-0.373032
C72	C	2.266718	-0.575249	-0.039699
C73	C	1.599992	-1.150598	-0.706330
C74	C	1.933326	-0.817265	-0.372997
C75	C	2.266659	-0.483932	-0.039664
C76	C	1.599950	-1.077814	-0.706298
C77	C	1.933284	-0.744481	-0.372964
C78	C	2.266617	-0.411148	-0.039631
C79	C	1.599894	-0.986491	-0.706264
C80	C	1.933227	-0.653158	-0.372931
C81	C	2.266560	-0.319825	-0.039597
C82	C	1.876941	-0.645250	-0.741413
C83	C	2.210274	-0.311917	-0.408079
C84	C	2.543607	0.021416	-0.074746
C85	C	1.994998	-0.658310	-0.756391
C86	C	2.328332	-0.324977	-0.423057
C87	C	2.661665	0.008357	-0.089724
C88	C	1.635143	-0.645137	-0.983293
C89	C	1.968477	-0.311804	-0.649960
C90	C	2.301810	0.021529	-0.316626
C91	C	1.650161	-0.658149	-1.101346
C92	C	1.983495	-0.324815	-0.768012
C93	C	2.316828	0.008518	-0.434679
C94	C	1.600040	-0.404317	-0.706349
C95	C	1.933373	-0.070983	-0.373016
C96	C	2.266707	0.262350	-0.039683
C97	C	1.600099	-0.314705	-0.706385
C98	C	1.933432	0.018628	-0.373052
C99	C	2.266766	0.351962	-0.039719
C100	C	1.607865	-0.621257	-1.267827
C101	C	1.941198	-0.287924	-0.934493
C102	C	2.274531	0.045409	-0.601160
C103	C	1.592334	-0.607806	-1.145812
C104	C	1.925668	-0.274473	-0.812478
C105	C	2.259001	0.058860	-0.479145
C106	C	1.564858	-0.584138	-0.430322
C107	C	1.898191	-0.250805	-0.096989
C108	C	2.231525	0.082529	0.236344
C109	C	1.550046	-0.570922	-0.312296
C110	C	1.883379	-0.237589	0.021037
C111	C	2.216713	0.095745	0.354370
H112	H	1.213735	-0.674502	-0.774968
H113	H	1.547068	-0.341169	-0.441635
H114	H	1.880401	-0.007836	-0.108302
F115	F	1.729893	-0.727500	-1.169641
F116	F	2.063227	-0.394167	-0.836307
F117	F	2.396560	-0.060834	-0.502974
F118	F	1.687590	-0.690606	-1.336127
F119	F	2.020923	-0.357273	-1.002793
F120	F	2.354256	-0.023940	-0.669460
H121	H	1.153600	-0.517941	-0.595410
H122	H	1.486933	-0.184607	-0.262077
H123	H	1.820266	0.148726	0.071256
F124	F	1.470309	-0.501581	-1.243995
F125	F	1.803643	-0.168247	-0.910661
F126	F	2.136976	0.165086	-0.577328
F127	F	0.971100	-0.538525	-0.619019
F128	F	1.304433	-0.205191	-0.285686
F129	F	1.637766	0.128142	0.047647
F130	F	1.063332	-0.727708	-0.836007
F131	F	1.396665	-0.394375	-0.502674
F132	F	1.729998	-0.061042	-0.169340
H133	H	1.531329	-0.554753	-1.093556
H134	H	1.864662	-0.221419	-0.760223
H135	H	2.197995	0.111914	-0.426889
