data_functionalizedCrystal
_audit_creation_method	'MofGen! by Chris Wilmer'
_symmetry_space_group_name_H-M	'P1'
_symmetry_Int_Tables_number	1
_symmetry_cell_setting	triclinic
loop_
_symmetry_equiv_pos_as_xyz
  x,y,z
_cell_length_a	20.016444
_cell_length_b	14.446369
_cell_length_c	14.446369
_cell_angle_alpha	89.999999
_cell_angle_beta	60.001269
_cell_angle_gamma	60.003525
loop_
_atom_site_label
_atom_site_type_symbol
_atom_site_fract_x
_atom_site_fract_y
_atom_site_fract_z
Zr1	Zr	0.731286	0.891770	-0.121534
O2	O	0.870648	0.743978	-0.269329
O3	O	0.591916	0.937070	-0.076225
O4	O	0.731282	0.937080	-0.269337
O5	O	0.731288	0.743969	0.076112
O6	O	0.731288	1.089408	-0.269346
O7	O	0.731282	0.743969	-0.076217
O8	O	0.481987	1.089391	0.076098
O9	O	0.980589	0.743986	-0.269331
O10	O	0.649248	1.070079	-0.056909
O11	O	0.649248	0.956397	0.056778
O12	O	0.813334	0.956409	-0.170587
O13	O	0.813334	0.842727	-0.056900
Zr14	Zr	0.731305	1.134717	0.121400
Zr15	Zr	0.731296	1.134717	-0.121547
Zr16	Zr	0.731296	0.891770	0.121413
Zr17	Zr	0.906629	0.891782	-0.121537
Zr18	Zr	0.555963	1.134705	0.121403
O19	O	0.870676	1.089417	0.076091
O20	O	0.870662	1.089417	-0.269348
O21	O	0.870662	0.743978	0.076110
O22	O	0.591943	1.282509	0.269196
O23	O	0.591929	1.282509	-0.076243
O24	O	0.591929	0.937070	0.269214
O25	O	0.731303	1.282518	-0.076246
O26	O	0.731309	1.089408	0.269204
O27	O	0.731303	0.937079	0.269212
O28	O	0.731309	1.282518	0.076083
O29	O	0.980596	0.937096	-0.269342
O30	O	0.481995	1.089391	0.269208
O31	O	0.482003	1.282501	0.269198
O32	O	0.481995	1.282502	0.076088
O33	O	0.980596	0.743985	-0.076221
O34	O	0.980604	0.937096	-0.076231
O35	O	0.649257	1.070078	0.170453
O36	O	0.649257	1.183760	0.056766
O37	O	0.813343	1.070090	-0.056912
O38	O	0.813343	0.956408	0.056775
C39	C	0.511969	1.013229	-0.000063
C40	C	0.437531	1.013224	-0.000062
C41	C	0.326829	0.929325	-0.083985
C42	C	0.256885	0.929333	-0.083989
C43	C	0.135762	1.097170	0.083856
C44	C	0.205706	1.097166	0.083855
C45	C	0.301240	1.013238	-0.000065
C46	C	0.161352	1.013249	-0.000068
C47	C	0.085514	1.013258	-0.000072
C48	C	0.377082	1.013230	-0.000063
C49	C	0.731284	0.709354	-0.000051
C50	C	0.731280	0.606217	-0.000045
C51	C	0.627801	0.531227	0.071280
C52	C	0.627732	0.638556	0.071689
C53	C	0.782687	0.531660	0.052253
C54	C	0.782030	0.424801	0.052768
C55	C	0.784154	0.423228	-0.123783
C56	C	0.782204	0.531900	-0.123580
C57	C	0.950622	1.013258	-0.000071
C58	C	1.025060	1.013263	-0.000072
C59	C	0.731284	1.013244	-0.303956
C60	C	0.731280	1.013244	-0.407093
C61	C	0.731308	1.317133	-0.000083
C62	C	0.731312	1.420270	-0.000089
C63	C	0.627802	1.085293	-0.482078
C64	C	0.627732	1.084981	-0.374749
C65	C	0.782680	0.889724	-0.481648
C66	C	0.782023	0.890119	-0.588506
C67	C	0.784161	1.063717	-0.590089
C68	C	0.782211	1.066216	-0.481418
C69	C	0.731308	1.013243	0.303823
C70	C	0.731312	1.013243	0.406960
C71	C	0.511981	1.317118	-0.000079
C72	C	0.437548	1.420251	-0.000083
C73	C	0.511981	1.013229	0.303826
C74	C	0.437548	1.013224	0.406965
C75	C	0.511993	1.317118	0.303810
C76	C	0.437564	1.420250	0.406943
C77	C	0.950598	0.709369	-0.303944
C78	C	1.025028	0.606237	-0.407077
C79	C	0.950610	0.709369	-0.000054
C80	C	1.025044	0.606236	-0.000050
C81	C	0.950610	1.013258	-0.303960
C82	C	1.025044	1.013263	-0.407099
C83	C	0.402588	1.409342	-0.059433
C84	C	0.332660	1.506237	-0.059460
C85	C	0.297687	1.614039	-0.000130
C86	C	0.332654	1.624945	0.059222
C87	C	0.402585	1.528051	0.059241
C88	C	0.402598	1.072561	0.514747
C89	C	0.332669	1.072552	0.611666
C90	C	0.297687	1.013211	0.600800
C91	C	0.332644	0.953866	0.493007
C92	C	0.402576	0.953869	0.396090
C93	C	0.402611	1.528033	0.396032
C94	C	0.332686	1.624946	0.492927
C95	C	0.297711	1.614074	0.600732
C96	C	0.332671	1.506280	0.611641
C97	C	0.402599	1.409369	0.514747
C98	C	1.059989	0.498454	-0.396166
C99	C	1.129935	0.401541	-0.493061
C100	C	1.164914	0.412413	-0.600866
C101	C	1.129950	0.520207	-0.611775
C102	C	1.060010	0.617118	-0.514881
C103	C	1.060010	0.617145	0.059289
C104	C	1.129958	0.520250	0.059289
C105	C	1.164933	0.412448	-0.000044
C106	C	1.129964	0.401542	-0.059391
C107	C	1.060022	0.498436	-0.059397
C108	C	1.060003	1.072616	-0.396196
C109	C	1.129932	1.072643	-0.493097
C110	C	1.164905	1.013310	-0.600898
C111	C	1.129938	0.953956	-0.611798
C112	C	1.060006	0.953936	-0.514899
H113	H	0.587413	0.692817	0.036593
N114	N	0.732589	1.186754	-0.413326
H115	H	0.709011	1.239819	-0.451810
H116	H	0.677381	1.206883	-0.334667
N117	N	0.573963	1.038608	-0.303492
H118	H	0.550220	1.018283	-0.341765
H119	H	0.617141	0.968699	-0.294704
H120	H	1.158395	1.120975	-0.484199
N121	N	0.178113	1.187670	0.174373
H122	H	0.204436	1.231763	0.137753
H123	H	0.106977	1.240758	0.227516
N124	N	0.885161	0.319639	-0.194554
H125	H	0.896677	0.271003	-0.146787
H126	H	0.897048	0.274729	-0.261157
N127	N	0.882279	0.498072	-0.199950
H128	H	0.890137	0.528272	-0.265044
H129	H	0.896030	0.530590	-0.155270
H130	H	0.304184	1.497444	0.699429
N131	N	0.222271	1.718607	0.705232
H132	H	0.205408	1.695373	0.775188
H133	H	0.246665	1.765213	0.705167
H134	H	1.158424	0.905648	-0.699583
H135	H	0.857974	0.346227	0.004145
N136	N	0.573981	1.206090	-0.478974
H137	H	0.616170	1.215287	-0.549467
H138	H	0.516826	1.224634	-0.475550
H139	H	0.857966	0.833514	-0.667084
N140	N	0.732573	0.600019	-0.175347
H141	H	0.664825	0.625011	-0.127862
H142	H	0.734069	0.668858	-0.178059
N143	N	0.294959	1.136580	0.727921
H144	H	0.307135	1.082168	0.770786
H145	H	0.327741	1.174180	0.719998
N146	N	0.882286	1.003932	-0.515249
H147	H	0.890145	1.058138	-0.485051
H148	H	0.896034	0.940202	-0.482729
N149	N	0.032722	1.187683	0.174362
H150	H	0.001002	1.151068	0.218460
H151	H	0.027201	1.240819	0.227448
N152	N	0.573977	0.534338	0.025051
H153	H	0.616164	0.463851	-0.042601
H154	H	0.516821	0.537760	0.085692
H155	H	0.858822	0.504435	0.002778
H156	H	0.587404	1.175937	-0.320480
N157	N	1.240323	1.013349	-0.705406
H158	H	1.257157	1.059956	-0.682131
H159	H	1.298314	0.932959	-0.752014
H160	H	1.031539	1.120932	-0.308427
H161	H	1.031513	0.489580	-0.308394
N162	N	0.294987	1.741199	0.481147
H163	H	0.327751	1.733372	0.398148
H164	H	0.224779	1.783994	0.518770
N165	N	0.735375	0.835828	-0.413296
H166	H	0.711326	0.814787	-0.450592
H167	H	0.782480	0.765418	-0.409458
N168	N	1.022305	0.889914	-0.526666
H169	H	1.055077	0.852333	-0.609664
H170	H	1.034484	0.830248	-0.489053
N171	N	0.740269	0.417791	-0.181652
H172	H	0.775243	0.419809	-0.260879
H173	H	0.744339	0.345184	-0.185634
H174	H	0.404615	0.860979	-0.152312
H175	H	0.860421	1.011469	-0.668286
H176	H	0.746986	0.583261	0.142415
H177	H	0.587379	0.532257	0.161977
H178	H	1.158451	0.313757	-0.107699
N179	N	1.167674	0.532019	0.123294
H180	H	1.114320	0.574814	0.206309
H181	H	1.217307	0.454242	0.114196
H182	H	0.587031	0.692416	0.162947
N183	N	1.240338	0.307886	-0.705372
H184	H	1.298380	0.307832	-0.752022
H185	H	1.257093	0.238016	-0.682003
N186	N	0.574250	1.039352	-0.480712
H187	H	0.607230	0.957946	-0.483201
H188	H	0.507840	1.086184	-0.409155
H189	H	0.277729	0.861004	-0.152326
H190	H	0.431048	1.321611	0.523647
H191	H	1.158391	0.313780	-0.484156
H192	H	1.031539	0.704913	0.107613
N193	N	0.222259	1.013215	0.705337
H194	H	0.205429	1.059817	0.775262
H195	H	0.164269	1.046962	0.705288
N196	N	0.440329	1.136558	0.526479
H197	H	0.428155	1.196281	0.488924
H198	H	0.407558	1.174065	0.609491
N199	N	0.440321	1.539793	0.279771
H200	H	0.510527	1.502232	0.236919
H201	H	0.428077	1.502259	0.237007
H202	H	0.304169	1.712730	0.107526
H203	H	0.745501	0.425068	0.143791
H204	H	0.431062	1.321574	-0.107760
H205	H	0.745489	0.849712	-0.588234
H206	H	1.158439	0.529046	-0.699562
H207	H	0.858815	0.833710	-0.508877
H208	H	1.031545	0.704877	-0.523779
H209	H	0.751039	1.153301	-0.594210
N210	N	1.240370	0.307946	-0.000033
H211	H	1.257207	0.331225	0.046568
H212	H	1.215977	0.261344	0.033720
H213	H	1.031554	0.489538	-0.107715
H214	H	0.240743	1.692926	-0.000153
N215	N	0.294956	1.494460	-0.123478
H216	H	0.327720	1.411463	-0.161047
H217	H	0.224749	1.532079	-0.069000
N218	N	0.440288	1.539823	0.123258
H219	H	0.386924	1.582634	0.206267
H220	H	0.489910	1.462050	0.114181
H221	H	0.304152	0.905552	0.484176
N222	N	0.440318	0.889798	0.279840
H223	H	0.407556	0.852188	0.287674
H224	H	0.428175	0.944225	0.236983
