data_functionalizedCrystal
_audit_creation_method	'MofGen! by Chris Wilmer'
_symmetry_space_group_name_H-M	'P1'
_symmetry_Int_Tables_number	1
_symmetry_cell_setting	triclinic
loop_
_symmetry_equiv_pos_as_xyz
  x,y,z
_cell_length_a	19.077105
_cell_length_b	14.908520
_cell_length_c	19.077271
_cell_angle_alpha	84.556616
_cell_angle_beta	89.912562
_cell_angle_gamma	91.150228
loop_
_atom_site_label
_atom_site_type_symbol
_atom_site_fract_x
_atom_site_fract_y
_atom_site_fract_z
Zn1	Zn	1.037788	-0.436514	0.459236
Zn2	Zn	1.537788	0.063486	0.959236
Zn3	Zn	1.035674	-0.581504	0.347983
Zn4	Zn	1.535674	-0.081504	0.847983
Zn5	Zn	0.925595	-0.424391	0.336508
Zn6	Zn	1.425595	0.075609	0.836508
Zn7	Zn	0.913498	-0.580997	0.460712
Zn8	Zn	1.413498	-0.080997	0.960712
O9	O	0.978139	-0.505852	0.401110
O10	O	1.478139	-0.005852	0.901110
O11	O	1.135592	-0.461033	0.448663
O12	O	1.635592	0.038967	0.948663
O13	O	1.025250	-0.555802	0.247920
O14	O	1.525250	-0.055802	0.747920
O15	O	0.946425	-0.299780	0.347369
O16	O	1.446425	0.200220	0.847369
O17	O	1.134038	-0.567557	0.366925
O18	O	1.634038	-0.067557	0.866925
O19	O	1.028853	-0.308687	0.437537
O20	O	1.528853	0.191313	0.937537
O21	O	0.944375	-0.440371	0.239490
O22	O	1.444375	0.059629	0.739490
O23	O	0.825907	-0.439879	0.348800
O24	O	1.325907	0.060121	0.848800
O25	O	0.925808	-0.566693	0.559057
O26	O	1.425808	-0.066693	1.059057
O27	O	0.817019	-0.554937	0.440052
O28	O	1.317019	-0.054937	0.940052
O29	O	1.017123	-0.460542	0.557972
O30	O	1.517123	0.039458	1.057972
O31	O	1.013520	-0.707657	0.368356
O32	O	1.513520	-0.207657	0.868356
O33	O	0.923758	-0.707284	0.451178
O34	O	1.423758	-0.207284	0.951178
C35	C	0.796031	-0.496038	0.393341
C36	C	1.296031	0.003962	0.893341
C37	C	0.718122	-0.491863	0.390035
C38	C	1.218122	0.008137	0.890035
C39	C	0.967115	-0.740199	0.411189
C40	C	1.467115	-0.240199	0.911189
C41	C	0.962462	-0.840459	0.415527
C42	C	1.462462	-0.340459	0.915527
C43	C	0.676911	-0.549889	0.435926
C44	C	1.176911	-0.049889	0.935926
C45	C	0.603708	-0.545954	0.432822
C46	C	1.103708	-0.045954	0.932822
C47	C	0.571718	-0.483996	0.383825
C48	C	1.071718	0.016004	0.883825
C49	C	0.612935	-0.425964	0.337933
C50	C	1.112935	0.074036	0.837933
C51	C	0.686136	-0.429895	0.341040
C52	C	1.186136	0.070105	0.841040
C53	C	0.353284	-0.465801	0.369448
C54	C	0.853284	0.034199	0.869448
C55	C	0.280076	-0.461876	0.366343
C56	C	0.780076	0.038124	0.866343
C57	C	0.270855	-0.581866	0.461233
C58	C	0.770855	-0.081866	0.961233
C59	C	0.344058	-0.585795	0.464333
C60	C	0.844058	-0.085795	0.964333
C61	C	0.385268	-0.527760	0.418444
C62	C	0.885268	-0.027760	0.918444
N63	N	0.496893	-0.479974	0.380650
N64	N	0.996893	0.020026	0.880650
N65	N	0.460092	-0.531778	0.421622
N66	N	0.960092	-0.031778	0.921622
C67	C	1.047277	-1.029192	0.337512
C68	C	1.547277	-0.529192	0.837512
C69	C	1.042907	-1.123395	0.341586
C70	C	1.542907	-0.623395	0.841586
C71	C	0.949357	-1.123069	0.427751
C72	C	1.449357	-0.623069	0.927751
C73	C	0.953727	-1.028866	0.423677
C74	C	1.453727	-0.528866	0.923677
C75	C	1.002687	-0.981931	0.378556
C76	C	1.502687	-0.481931	0.878556
C77	C	1.007053	-0.887726	0.374479
C78	C	1.507053	-0.387726	0.874479
C79	C	0.913507	-0.887402	0.460647
C80	C	1.413507	-0.387402	0.960647
C81	C	0.909138	-0.981605	0.464721
C82	C	1.409138	-0.481605	0.964721
C83	C	1.160958	-0.515704	0.408909
C84	C	1.660958	-0.015704	0.908909
C85	C	1.238865	-0.519902	0.412233
C86	C	1.738865	-0.019902	0.912233
C87	C	0.970352	-0.514913	0.584779
C88	C	1.470352	-0.014913	1.084779
C89	C	0.967034	-0.518774	0.663048
C90	C	1.467034	-0.018774	1.163048
C91	C	0.989225	-0.270591	0.391008
C92	C	1.489225	0.229409	0.891008
C93	C	0.993948	-0.170337	0.386703
C94	C	1.493948	0.329663	0.886703
C95	C	1.013015	-0.465324	0.699256
C96	C	1.513015	0.034676	1.199256
C97	C	1.009889	-0.468948	0.772797
C98	C	1.509889	0.031052	1.272797
C99	C	0.960784	-0.526028	0.810130
C100	C	1.460784	-0.026028	1.310130
C101	C	0.914798	-0.579481	0.773917
C102	C	1.414798	-0.079481	1.273917
C103	C	0.917921	-0.575851	0.700377
C104	C	1.417921	-0.075851	1.200377
C105	C	0.946341	-0.542805	1.030133
C106	C	1.446341	-0.042805	1.530133
C107	C	0.943223	-0.546433	1.103679
C108	C	1.443223	-0.046433	1.603679
C109	C	1.038314	-0.435898	1.102553
C110	C	1.538314	0.064102	1.602553
C111	C	1.041435	-0.432278	1.029012
C112	C	1.541435	0.067722	1.529012
C113	C	0.995447	-0.485727	0.992805
C114	C	1.495447	0.014273	1.492805
N115	N	0.957589	-0.529736	0.885302
N116	N	1.457589	-0.029736	1.385302
N117	N	0.998639	-0.482014	0.917635
N118	N	1.498639	0.017986	1.417635
C119	C	0.985889	-0.496845	1.218155
C120	C	1.485889	0.003155	1.718155
C121	C	0.989204	-0.492982	1.139886
C122	C	1.489204	0.007018	1.639886
H123	H	0.702951	-0.600345	0.475822
H124	H	1.202951	-0.100345	0.975822
C125	C	1.060474	-0.410149	0.812622
C126	C	1.560474	0.089851	1.312622
N127	N	1.098577	-0.365859	0.842618
N128	N	1.598577	0.134141	1.342618
H129	H	0.570156	-0.593206	0.470190
H130	H	1.070156	-0.093206	0.970190
H131	H	0.370099	-0.636250	0.504231
H132	H	0.870099	-0.136250	1.004231
H133	H	0.874813	-0.625954	0.804320
H134	H	1.374813	-0.125954	1.304320
C135	C	0.895504	-1.174714	0.477380
C136	C	1.395504	-0.674714	0.977380
N137	N	0.854940	-1.213614	0.514759
N138	N	1.354940	-0.713614	1.014759
C139	C	0.864456	-0.835408	0.505798
C140	C	1.364456	-0.335408	1.005798
N141	N	0.827510	-0.796244	0.539803
N142	N	1.327510	-0.296244	1.039803
H143	H	0.237293	-0.629114	0.498595
H144	H	0.737293	-0.129114	0.998595
C145	C	1.060910	-0.836099	0.324844
C146	C	1.560910	-0.336099	0.824844
N147	N	1.101478	-0.797216	0.287459
N148	N	1.601478	-0.297216	0.787459
H149	H	0.719690	-0.382639	0.303675
H150	H	1.219690	0.117361	0.803675
H151	H	1.081424	-0.385800	0.998620
H152	H	1.581424	0.114200	1.498620
H153	H	1.053004	-0.418846	0.668865
H154	H	1.553004	0.081154	1.168865
C155	C	0.244890	-0.393714	0.312440
C156	C	0.744890	0.106286	0.812440
N157	N	0.218386	-0.342377	0.271843
N158	N	0.718386	0.157623	0.771843
H159	H	1.087137	-0.990977	0.300767
H160	H	1.587137	-0.490977	0.800767
C161	C	0.398606	-0.401965	0.318963
C162	C	0.898606	0.098035	0.818963
N163	N	0.432745	-0.353882	0.280935
N164	N	0.932745	0.146118	0.780935
C165	C	0.889199	-0.609226	1.144743
C166	C	1.389199	-0.109226	1.644743
N167	N	0.848510	-0.656519	1.175673
N168	N	1.348510	-0.156519	1.675673
H169	H	1.079217	-1.161872	0.308165
H170	H	1.579217	-0.661872	0.808165
C171	C	0.855280	-1.033244	0.514348
C172	C	1.355280	-0.533244	1.014348
N173	N	0.814711	-1.072137	0.551725
N174	N	1.314711	-0.572137	1.051725
H175	H	0.586883	-0.375513	0.298041
H176	H	1.086883	0.124487	0.798041
H177	H	1.075754	-0.392382	1.132041
H178	H	1.575754	0.107618	1.632041
C179	C	0.895750	-0.601599	0.990315
C180	C	1.395750	-0.101599	1.490315
N181	N	0.857640	-0.645883	0.960322
N182	N	1.357640	-0.145883	1.460322
C183	C	0.867339	-0.634653	0.660549
C184	C	1.367339	-0.134653	1.160549
N185	N	0.829237	-0.678943	0.630552
N186	N	1.329237	-0.178943	1.130552
