data_functionalizedCrystal
_audit_creation_method	'MofGen! by Chris Wilmer'
_symmetry_space_group_name_H-M	'P1'
_symmetry_Int_Tables_number	1
_symmetry_cell_setting	triclinic
loop_
_symmetry_equiv_pos_as_xyz
  x,y,z
_cell_length_a	16.959455
_cell_length_b	11.169416
_cell_length_c	11.169409
_cell_angle_alpha	90.030874
_cell_angle_beta	89.977953
_cell_angle_gamma	89.992713
loop_
_atom_site_label
_atom_site_type_symbol
_atom_site_fract_x
_atom_site_fract_y
_atom_site_fract_z
Zn1	Zn	1.208498	0.477808	-0.678626
Zn2	Zn	1.208425	0.678548	-0.477948
Zn3	Zn	1.076308	0.477867	-0.477953
Zn4	Zn	1.076313	0.678437	-0.678585
O5	O	1.142386	0.578165	-0.578278
O6	O	1.319099	0.504458	-0.652021
O7	O	1.190867	0.651999	-0.309999
O8	O	1.093872	0.309909	-0.504591
O9	O	1.319045	0.651941	-0.504584
O10	O	1.190991	0.309866	-0.652025
O11	O	1.093801	0.504559	-0.310002
O12	O	0.965698	0.504451	-0.504552
O13	O	1.093880	0.651751	-0.846540
O14	O	0.965702	0.651809	-0.651956
O15	O	1.190996	0.504350	-0.846570
O16	O	1.190871	0.846483	-0.504544
O17	O	1.093810	0.846401	-0.651951
C18	C	0.937020	0.578125	-0.578250
C19	C	0.849163	0.578137	-0.578267
C20	C	1.142355	0.889990	-0.578269
C21	C	1.142413	1.023390	-0.578305
C22	C	1.142439	0.265123	-0.578313
C23	C	1.142461	0.131723	-0.578329
C24	C	0.477661	0.501373	-0.501685
C25	C	0.477714	0.655056	-0.654940
C26	C	0.560260	0.655039	-0.654932
C27	C	0.601510	0.578189	-0.578299
C28	C	0.560215	0.501356	-0.501673
C29	C	0.601561	0.731878	-0.731548
C30	C	0.684112	0.731865	-0.731543
C31	C	0.725364	0.655008	-0.654915
C32	C	0.684064	0.578172	-0.578287
C33	C	0.725314	0.501322	-0.501653
C34	C	0.684015	0.424478	-0.425030
C35	C	0.601467	0.424499	-0.425045
C36	C	0.807913	0.654987	-0.654901
C37	C	0.807868	0.501305	-0.501641
C38	C	1.348554	0.578206	-0.578306
C39	C	1.436411	0.578223	-0.578318
C40	C	1.142447	0.578032	-0.891321
C41	C	1.142472	0.577975	-1.024721
C42	C	1.142371	0.578211	-0.266453
C43	C	1.142498	0.577930	-0.133054
H44	H	0.841448	0.438716	-0.439243
H45	H	0.444123	0.717630	-0.717324
O46	O	0.433120	0.418494	-0.419049
H47	H	0.475675	0.365050	-0.365768
O48	O	0.852447	0.737847	-0.737557
H49	H	0.890068	0.684177	-0.798700
H50	H	0.717731	0.794435	-0.793935
O51	O	0.557074	0.814761	-0.814202
H52	H	0.492735	0.801849	-0.801348
H53	H	0.717612	0.361912	-0.362630
H54	H	0.567834	0.361938	-0.362661
