data_functionalizedCrystal
_audit_creation_method	'MofGen! by Chris Wilmer'
_symmetry_space_group_name_H-M	'P1'
_symmetry_Int_Tables_number	1
_symmetry_cell_setting	triclinic
loop_
_symmetry_equiv_pos_as_xyz
  x,y,z
_cell_length_a	14.971486
_cell_length_b	16.109301
_cell_length_c	13.448316
_cell_angle_alpha	89.991973
_cell_angle_beta	89.998199
_cell_angle_gamma	83.537805
loop_
_atom_site_label
_atom_site_type_symbol
_atom_site_fract_x
_atom_site_fract_y
_atom_site_fract_z
O1	O	1.186791	0.108348	-0.082581
O2	O	0.926372	0.121323	-0.082608
O3	O	1.063736	-0.006187	-0.082584
O4	O	1.049428	0.235857	-0.082605
O5	O	1.063718	-0.006195	0.082800
O6	O	0.926355	0.121315	0.082776
O7	O	1.186774	0.108340	0.082803
Cu8	Cu	1.056563	0.114827	0.097890
Cu9	Cu	1.056583	0.114836	-0.097695
O10	O	1.049410	0.235850	0.082778
C11	C	0.893040	0.120739	0.000080
C12	C	0.793745	0.119000	0.000070
C13	C	0.736412	0.193908	0.000065
C14	C	0.643115	0.192269	0.000080
C15	C	0.607153	0.115721	0.000093
C16	C	0.664494	0.040807	0.000101
C17	C	0.757789	0.042447	0.000093
C18	C	0.470036	0.037395	0.000115
C19	C	0.376734	0.035755	0.000121
C20	C	0.355362	0.187217	0.000102
C21	C	0.448657	0.188857	0.000094
C22	C	0.505991	0.113942	0.000100
C23	C	1.063147	-0.037166	0.000109
C24	C	1.061410	-0.129464	0.000110
C25	C	1.138878	-0.351640	0.000102
C26	C	1.137239	-0.438362	0.000094
C27	C	0.974262	-0.418691	0.000081
C28	C	0.975902	-0.331970	0.000082
C29	C	1.058213	-0.298447	0.000098
C30	C	1.054933	-0.471890	0.000088
C31	C	1.053155	-0.565918	0.000079
C32	C	1.059992	-0.204413	0.000105
C33	C	1.220106	0.108924	0.000112
C34	C	1.319401	0.110663	0.000116
C35	C	1.049999	0.266829	0.000084
C36	C	1.051736	0.359127	0.000076
N37	N	1.056555	0.114820	0.235454
N38	N	1.056598	0.114837	-0.235260
C39	C	1.117398	0.058382	0.287506
C40	C	1.117404	0.058381	0.391609
C41	C	1.056570	0.114823	0.443659
C42	C	0.995720	0.171264	0.391601
C43	C	0.995711	0.171260	0.287499
C44	C	0.995745	0.171269	0.608581
C45	C	0.995755	0.171275	0.712689
C46	C	1.117438	0.058391	0.712690
C47	C	1.117429	0.058387	0.608589
C48	C	1.056580	0.114829	0.556538
H49	H	0.347458	-0.026577	0.000133
C50	C	0.488213	0.273061	0.000080
C51	C	0.466573	0.335307	0.085957
C52	C	0.506127	0.419513	0.085947
C53	C	0.567322	0.441473	0.000061
C54	C	0.588966	0.379227	-0.085822
C55	C	0.549411	0.295020	-0.085812
H56	H	0.421270	0.319051	0.149540
H57	H	0.490105	0.465592	0.149524
H58	H	0.596603	0.503808	0.000054
H59	H	0.634269	0.395482	-0.149405
H60	H	0.565434	0.248941	-0.149389
C61	C	0.533107	-0.045010	0.000121
C62	C	0.529104	-0.107720	0.086003
C63	C	0.592176	-0.190122	0.086003
C64	C	0.659251	-0.209814	0.000120
C65	C	0.663257	-0.147102	-0.085769
C66	C	0.600185	-0.064700	-0.085769
H67	H	0.479449	-0.093144	0.149585
H68	H	0.589211	-0.236544	0.149584
H69	H	0.705941	-0.270812	0.000120
H70	H	0.712912	-0.161678	-0.149351
H71	H	0.603151	-0.018278	-0.149350
H72	H	1.205901	-0.324348	0.000113
C73	C	0.820859	-0.039954	0.000096
C74	C	0.887937	-0.059653	-0.085783
C75	C	0.951005	-0.142056	-0.085776
C76	C	0.946996	-0.204762	0.000111
C77	C	0.879916	-0.185064	0.085997
C78	C	0.816847	-0.102661	0.085989
H79	H	0.890907	-0.013233	-0.149368
H80	H	1.000663	-0.156637	-0.149355
H81	H	0.993684	-0.265762	0.000116
H82	H	0.876946	-0.231484	0.149581
H83	H	0.767190	-0.088080	0.149568
C84	C	0.928783	0.233344	0.230240
C85	C	0.861898	0.295459	0.287489
C86	C	0.794965	0.357543	0.230231
C87	C	0.794917	0.357512	0.115724
C88	C	0.861806	0.295395	0.058468
C89	C	0.928739	0.233311	0.115726
H90	H	0.861930	0.295484	0.372260
H91	H	0.745449	0.403526	0.272616
H92	H	0.745370	0.403470	0.073338
H93	H	0.861773	0.295370	-0.026303
H94	H	0.978254	0.187328	0.073341
H95	H	0.635206	-0.021520	0.000126
C96	C	0.292301	0.269627	0.000100
C97	C	0.225216	0.289331	-0.085773
C98	C	0.162153	0.371738	-0.085781
C99	C	0.166175	0.434441	0.000084
C100	C	0.233263	0.414739	0.085964
C101	C	0.296326	0.332332	0.085972
H102	H	0.222236	0.242913	-0.149342
H103	H	0.112490	0.386323	-0.149355
H104	H	0.119492	0.495444	0.000078
H105	H	0.236243	0.461157	0.149532
H106	H	0.345989	0.317747	0.149546
H107	H	0.596437	0.253267	0.000074
C108	C	0.887164	-0.273451	0.000078
C109	C	0.865889	-0.211120	-0.085805
C110	C	0.777156	-0.152602	-0.085814
C111	C	0.709697	-0.156415	0.000061
C112	C	0.730970	-0.218749	0.085951
C113	C	0.819703	-0.277267	0.085959
H114	H	0.915828	-0.208295	-0.149380
H115	H	0.761409	-0.106459	-0.149395
H116	H	0.644011	-0.113097	0.000055
H117	H	0.681031	-0.221574	0.149526
H118	H	0.835451	-0.323411	0.149541
C119	C	1.184369	-0.003699	0.769945
C120	C	1.184376	-0.003700	0.884452
C121	C	1.251307	-0.065784	0.941714
C122	C	1.318231	-0.127865	0.884467
C123	C	1.318226	-0.127866	0.769953
C124	C	1.251295	-0.065783	0.712692
H125	H	1.134833	0.042258	0.926835
H126	H	1.251311	-0.065783	1.026484
H127	H	1.367777	-0.173823	0.926855
H128	H	1.367769	-0.173825	0.727570
H129	H	1.251292	-0.065784	0.627921
H130	H	1.202924	-0.481669	0.000096
H131	H	0.907247	-0.445996	0.000070
C132	C	1.184318	-0.003707	0.230256
C133	C	1.149388	-0.067348	0.158708
C134	C	1.216308	-0.129441	0.101462
C135	C	1.318158	-0.127892	0.115764
C136	C	1.353094	-0.064248	0.187315
C137	C	1.286174	-0.002156	0.244561
H138	H	1.073987	-0.068497	0.148118
H139	H	1.190445	-0.176554	0.048495
H140	H	1.367696	-0.173857	0.073387
H141	H	1.428495	-0.063100	0.197905
H142	H	1.312037	0.044958	0.297528
C143	C	1.184346	-0.003697	0.551329
C144	C	1.182881	-0.098378	0.565654
C145	C	1.249797	-0.160463	0.508392
C146	C	1.318176	-0.127868	0.436804
C147	C	1.319642	-0.033183	0.422476
C148	C	1.252727	0.028903	0.479738
H149	H	1.132261	-0.122511	0.618650
H150	H	1.248710	-0.230556	0.518999
H151	H	1.367710	-0.173828	0.394416
H152	H	1.370263	-0.009050	0.369480
H153	H	1.253814	0.098995	0.469131
H154	H	1.166947	0.012425	0.433989
H155	H	0.946216	0.217235	0.755063
H156	H	0.946192	0.217228	0.566204
H157	H	0.765684	0.256242	0.000053
H158	H	0.946183	0.217217	0.433986
