data_functionalizedCrystal
_audit_creation_method	'MofGen! by Chris Wilmer'
_symmetry_space_group_name_H-M	'P1'
_symmetry_Int_Tables_number	1
_symmetry_cell_setting	triclinic
loop_
_symmetry_equiv_pos_as_xyz
  x,y,z
_cell_length_a	15.995343
_cell_length_b	27.732048
_cell_length_c	15.072220
_cell_angle_alpha	89.993868
_cell_angle_beta	89.991823
_cell_angle_gamma	83.065920
loop_
_atom_site_label
_atom_site_type_symbol
_atom_site_fract_x
_atom_site_fract_y
_atom_site_fract_z
O1	O	1.110194	0.062283	-0.073703
O2	O	0.866318	0.069981	-0.073726
O3	O	0.995830	-0.004232	-0.073697
O4	O	0.980682	0.136496	-0.073732
O5	O	0.995799	-0.004228	0.073868
O6	O	0.866286	0.069985	0.073839
O7	O	1.110162	0.062288	0.073862
Zn8	Zn	0.988219	0.066137	0.097280
Zn9	Zn	0.988261	0.066132	-0.097144
O10	O	0.980650	0.136501	0.073833
C11	C	0.835112	0.069666	0.000054
C12	C	0.742173	0.068714	0.000046
C13	C	0.572009	0.066985	0.000058
C14	C	0.549357	0.013415	0.000072
C15	C	0.452692	0.012407	0.000412
C16	C	0.404471	0.065283	0.000070
C17	C	0.433196	0.092222	0.084162
C18	C	0.529980	0.092857	0.084227
C19	C	0.529917	0.093637	-0.083588
C20	C	0.433448	0.091659	-0.084687
C21	C	0.309785	0.064324	0.000079
C22	C	0.666695	0.067946	0.000055
C23	C	0.995497	-0.022238	0.000088
C24	C	0.994539	-0.075897	0.000095
C25	C	1.065044	-0.414409	0.000056
C26	C	1.061491	-0.616084	0.000043
O27	O	1.125963	-0.647063	0.000011
N28	N	0.984696	-0.635538	0.000037
C29	C	0.908784	-0.604569	0.000028
O30	O	0.843383	-0.625743	0.000013
C31	C	0.912337	-0.402895	0.000035
C32	C	0.989137	-0.383445	0.000050
C33	C	1.141838	-0.394958	0.000070
C34	C	1.142726	-0.344542	0.000078
C35	C	1.066819	-0.313578	0.000072
C36	C	0.990025	-0.333029	0.000058
C37	C	0.836425	-0.371928	0.000019
C38	C	0.837321	-0.321507	0.000019
C39	C	0.914121	-0.302056	0.000034
C40	C	0.915005	-0.251649	0.000060
N41	N	0.991801	-0.232195	0.000066
C42	C	1.067707	-0.263160	0.000072
C43	C	0.906923	-0.710451	0.000027
C44	C	0.906035	-0.760870	0.000027
C45	C	1.058743	-0.772381	0.000040
C46	C	1.059631	-0.721962	0.000047
C47	C	0.983719	-0.690998	0.000033
C48	C	1.069565	-0.157282	0.000090
C49	C	1.070446	-0.106862	0.000101
C50	C	0.917738	-0.095355	0.000083
C51	C	0.916857	-0.145771	0.000076
C52	C	0.992777	-0.176734	0.000076
O53	O	0.850568	-0.220642	0.000082
O54	O	1.133099	-0.241976	0.000067
C55	C	1.064157	-0.464825	0.000048
C56	C	0.987363	-0.484276	0.000034
C57	C	0.911456	-0.453312	0.000028
C58	C	0.986474	-0.534695	0.000034
C59	C	1.062381	-0.565659	0.000040
C60	C	1.139176	-0.546205	0.000046
C61	C	1.140064	-0.495790	0.000054
C62	C	0.834661	-0.472765	0.000021
C63	C	0.833780	-0.523182	0.000014
C64	C	0.909686	-0.554146	0.000021
C65	C	1.141369	0.062603	0.000080
C66	C	1.234307	0.063555	0.000082
C67	C	0.980984	0.154507	0.000046
C68	C	0.981941	0.208166	0.000033
N69	N	0.988197	0.066140	0.229968
N70	N	0.988290	0.066124	-0.229833
C71	C	0.988260	0.066130	0.589170
C72	C	0.918731	0.105706	0.551548
C73	C	0.918887	0.105851	0.448722
C74	C	0.988228	0.066135	0.410966
C75	C	1.075450	0.077149	0.448262
C76	C	1.075060	0.077430	0.551120
C77	C	0.971346	0.015421	0.551281
C78	C	0.969337	0.015760	0.448417
C79	C	0.988215	0.066137	0.310253
C80	C	0.988278	0.066129	0.689883
H81	H	0.433958	-0.008680	-0.059856
C82	C	1.222674	-0.580271	0.000052
H83	H	1.268544	-0.561469	0.000064
H84	H	1.225505	-0.600174	-0.051409
H85	H	1.225486	-0.600182	0.051515
C86	C	1.227204	-0.323151	0.000090
H87	H	1.216873	-0.288688	0.000098
H88	H	1.258440	-0.333779	-0.051366
H89	H	1.258415	-0.333785	0.051559
C90	C	0.389492	0.144791	0.088065
H91	H	0.353249	0.150791	0.038327
H92	H	0.430795	0.166691	0.087142
H93	H	0.357453	0.149320	0.141132
C94	C	0.548159	0.146903	-0.084708
H95	H	0.522559	0.162819	-0.135397
H96	H	0.607274	0.147919	-0.086879
H97	H	0.525885	0.162835	-0.032534
H98	H	1.132988	-0.091028	0.000116
C99	C	0.933390	0.156684	0.415453
H100	H	0.939217	0.177325	0.464801
H101	H	0.886721	0.169817	0.380467
H102	H	0.983196	0.154270	0.380576
H103	H	0.578592	-0.007010	0.060295
C104	C	1.153075	-0.191335	0.000098
H105	H	1.198932	-0.172523	0.000115
H106	H	1.155926	-0.211240	-0.051362
H107	H	1.155893	-0.211244	0.051563
C108	C	0.406367	0.067258	0.169041
H109	H	0.377670	0.040423	0.153411
H110	H	0.370011	0.089782	0.202986
H111	H	0.454877	0.056158	0.203082
H112	H	0.577646	-0.007351	-0.060222
C113	C	0.566475	0.067949	0.169474
H114	H	0.522129	0.057536	0.203737
H115	H	0.594214	0.090275	0.203023
H116	H	0.605588	0.040659	0.154249
H117	H	0.773886	-0.387755	0.000002
C118	C	0.428127	-0.015936	0.082340
H119	H	0.477254	-0.026874	0.115549
H120	H	0.401642	-0.043091	0.063729
H121	H	0.390337	0.004679	0.118301
H122	H	1.202602	-0.479958	0.000066
C123	C	0.882668	0.004462	0.415490
H124	H	0.871602	-0.026055	0.438371
H125	H	0.882592	0.003377	0.352497
H126	H	0.840338	0.029093	0.435301
C127	C	1.033367	-0.025894	0.413707
H128	H	1.020429	-0.055868	0.437384
H129	H	1.088481	-0.020592	0.431536
H130	H	1.030683	-0.026924	0.350781
C131	C	0.568412	0.070801	-0.169723
H132	H	0.610519	0.044795	-0.155475
H133	H	0.592899	0.094672	-0.202781
H134	H	0.525566	0.058834	-0.204045
H135	H	0.771235	-0.539013	0.000010
C136	C	0.831271	0.096996	0.414654
H137	H	0.795260	0.093279	0.463677
H138	H	0.836236	0.068355	0.379523
H139	H	0.808255	0.123899	0.379756
C140	C	0.548986	0.145925	0.089060
H141	H	0.497577	0.167000	0.090983
H142	H	0.580265	0.153164	0.038201
H143	H	0.580829	0.150350	0.140998
H144	H	0.415158	0.072041	-0.146900
C145	C	1.225343	-0.429012	0.000084
H146	H	1.271199	-0.410199	0.000100
H147	H	1.228197	-0.448921	-0.051371
H148	H	1.228160	-0.448918	0.051554
C149	C	0.388280	0.143786	-0.091899
H150	H	0.350997	0.150175	-0.043093
H151	H	0.357203	0.147167	-0.145704
H152	H	0.428781	0.166178	-0.091328
C153	C	1.144110	-0.700570	0.000055
H154	H	1.189186	-0.726237	0.000054
H155	H	1.147625	-0.681143	0.051512
H156	H	1.147645	-0.681142	-0.051413
H157	H	0.855937	-0.070134	0.000081
C158	C	0.751158	-0.438711	0.000024
H159	H	0.705301	-0.457522	0.000026
H160	H	0.748329	-0.418796	-0.051429
H161	H	0.748321	-0.418811	0.051496
C162	C	0.830830	0.096995	0.585001
H163	H	0.835743	0.069146	0.622217
H164	H	0.795809	0.091944	0.535803
H165	H	0.806715	0.124521	0.617644
C166	C	1.142238	-0.806448	0.000033
H167	H	1.130703	-0.839260	0.000022
H168	H	1.173760	-0.800560	0.051488
H169	H	1.173755	-0.800548	-0.051437
H170	H	0.843496	-0.776702	0.000030
H171	H	0.929311	0.143124	0.577378
H172	H	0.775502	-0.296298	0.000006
H173	H	1.090829	0.113709	0.422485
C174	C	0.823414	-0.676397	0.000024
H175	H	0.777557	-0.695208	0.000030
H176	H	0.820585	-0.656484	-0.051433
H177	H	0.820576	-0.656494	0.051492
H178	H	1.022058	-0.014030	0.575611
H179	H	0.854320	-0.161608	0.000088
C180	C	1.095318	0.127389	0.583511
H181	H	1.103704	0.147323	0.533808
H182	H	1.144998	0.123315	0.618600
H183	H	1.049733	0.142356	0.618096
C184	C	1.146982	0.039249	0.415219
H185	H	1.124234	0.016318	0.378292
H186	H	1.174416	0.022976	0.464598
H187	H	1.186420	0.055074	0.382361
H188	H	1.128379	0.049741	0.576006
C189	C	0.887319	0.001123	0.586349
H190	H	0.861764	0.025949	0.624429
H191	H	0.897484	-0.028503	0.618391
H192	H	0.850860	-0.002884	0.537854
