data_functionalizedCrystal
_audit_creation_method	'MofGen! by Chris Wilmer'
_symmetry_space_group_name_H-M	'P1'
_symmetry_Int_Tables_number	1
_symmetry_cell_setting	triclinic
loop_
_symmetry_equiv_pos_as_xyz
  x,y,z
_cell_length_a	10.654550
_cell_length_b	15.995350
_cell_length_c	9.130313
_cell_angle_alpha	90.000982
_cell_angle_beta	89.996220
_cell_angle_gamma	83.988639
loop_
_atom_site_label
_atom_site_type_symbol
_atom_site_fract_x
_atom_site_fract_y
_atom_site_fract_z
O1	O	1.666298	0.117599	-0.121912
O2	O	1.300673	0.128803	-0.121888
O3	O	1.493480	0.001371	-0.121899
O4	O	1.473491	0.245030	-0.121900
O5	O	1.493478	0.001375	0.121700
O6	O	1.300671	0.128807	0.121711
O7	O	1.666295	0.117602	0.121687
Cu8	Cu	1.483483	0.123205	0.143942
Cu9	Cu	1.483486	0.123201	-0.144142
O10	O	1.473488	0.245034	0.121698
C11	C	1.253885	0.127982	-0.000085
C12	C	1.114473	0.125521	-0.000076
C13	C	1.034008	0.200551	-0.000098
C14	C	0.903017	0.198233	-0.000123
C15	C	0.932971	0.045849	-0.000111
C16	C	1.063959	0.048168	-0.000075
C17	C	1.084522	0.277904	-0.000099
C18	C	1.004055	0.352940	-0.000122
C19	C	0.873064	0.350622	-0.000147
C20	C	0.822541	0.273268	-0.000149
C21	C	1.492652	-0.029827	-0.000102
C22	C	1.490175	-0.122791	-0.000110
C23	C	1.481278	-0.460591	-0.000105
C24	C	1.343964	-0.413954	-0.000642
C25	C	1.346442	-0.317249	-0.000093
C26	C	1.485691	-0.293004	-0.000108
C27	C	1.553417	-0.333687	0.138991
C28	C	1.549968	-0.430342	0.139108
C29	C	1.552807	-0.430688	-0.137910
C30	C	1.552775	-0.333743	-0.139748
C31	C	1.488192	-0.198292	-0.000106
C32	C	1.478780	-0.555303	-0.000098
C33	C	1.713084	0.118423	-0.000119
C34	C	1.852495	0.120884	-0.000137
C35	C	1.474316	0.276232	-0.000101
C36	C	1.476793	0.369197	-0.000103
N37	N	1.483490	0.123207	0.346564
N38	N	1.483488	0.123192	-0.346765
C39	C	1.568887	0.066800	0.423211
C40	C	1.568883	0.066789	0.576548
C41	C	1.398083	0.179602	0.576578
C42	C	1.398081	0.179607	0.423244
C43	C	1.654296	0.010399	0.346532
C44	C	1.739700	-0.046012	0.423179
C45	C	1.739697	-0.046022	0.576516
C46	C	1.654289	0.010379	0.653206
H47	H	0.891824	-0.017129	-0.000137
Cl48	Cl	1.165123	-0.046157	-0.000045
Cl49	Cl	1.847053	-0.116920	0.326773
Cl50	Cl	1.259222	-0.443057	-0.154651
H51	H	0.807551	0.411720	-0.000152
H52	H	1.809228	-0.091960	0.638920
H53	H	1.328548	0.225522	0.639028
Cl54	Cl	1.290718	0.250519	0.326885
Cl55	Cl	1.259367	-0.445051	0.152066
Cl56	Cl	1.067568	0.450179	-0.000103
Cl57	Cl	1.249194	0.280823	-0.000075
Cl58	Cl	0.657865	0.270357	-0.000160
Cl59	Cl	1.654280	0.010356	0.845974
H60	H	1.293204	-0.289138	-0.099805
H61	H	1.292844	-0.289694	0.099796
H62	H	1.500580	-0.448929	0.243098
H63	H	1.654321	-0.317791	-0.148158
Cl64	Cl	1.705610	-0.479231	0.148857
H65	H	1.655720	-0.318967	0.144153
H66	H	1.506376	-0.305577	0.242515
H67	H	1.507914	-0.451490	-0.243339
Cl68	Cl	1.476952	-0.291626	-0.298648
H69	H	1.654048	-0.461861	-0.138855
Cl70	Cl	1.654309	0.010412	0.153766
