data_functionalizedCrystal
_audit_creation_method	'MofGen! by Chris Wilmer'
_symmetry_space_group_name_H-M	'P1'
_symmetry_Int_Tables_number	1
_symmetry_cell_setting	triclinic
loop_
_symmetry_equiv_pos_as_xyz
  x,y,z
_cell_length_a	23.532407
_cell_length_b	10.654550
_cell_length_c	22.010155
_cell_angle_alpha	90.011242
_cell_angle_beta	90.002880
_cell_angle_gamma	83.666804
loop_
_atom_site_label
_atom_site_type_symbol
_atom_site_fract_x
_atom_site_fract_y
_atom_site_fract_z
O1	O	0.079979	1.665327	0.050487
O2	O	0.087599	1.299607	0.050499
O3	O	0.000929	1.493495	0.050481
O4	O	0.166649	1.471439	0.050504
O5	O	0.000939	1.493439	-0.050569
O6	O	0.087609	1.299551	-0.050552
O7	O	0.079989	1.665271	-0.050564
Cu8	Cu	0.083800	1.482406	-0.059784
Cu9	Cu	0.083788	1.482472	0.059719
O10	O	0.166659	1.471382	-0.050546
C11	C	0.087044	1.252799	-0.000025
C12	C	0.085370	1.113408	-0.000021
C13	C	-0.020286	1.492905	-0.000046
C14	C	-0.083514	1.491217	-0.000050
C15	C	0.136400	1.032306	-0.000016
C16	C	0.134824	0.901335	-0.000027
C17	C	0.031183	0.932582	-0.000046
C18	C	0.032760	1.063550	-0.000039
C19	C	-0.481938	1.595364	-0.000020
C20	C	-0.541349	1.593795	-0.000016
O21	O	-0.577464	1.690341	0.000004
N22	N	-0.564726	1.478529	-0.000012
C23	C	-0.528689	1.364824	-0.000007
O24	O	-0.554029	1.266636	-0.000004
C25	C	-0.469280	1.366394	-0.000008
C26	C	-0.445906	1.481668	-0.000017
C27	C	-0.458564	1.710629	-0.000029
C28	C	-0.399158	1.712197	-0.000035
C29	C	-0.363126	1.598500	-0.000032
C30	C	-0.386500	1.483236	-0.000023
C31	C	-0.433244	1.252690	0.000001
C32	C	-0.373831	1.254270	0.000002
C33	C	-0.350458	1.369544	-0.000008
C34	C	-0.291061	1.371107	-0.000026
N35	N	-0.267684	1.486374	-0.000029
C36	C	-0.303716	1.600070	-0.000032
C37	C	-0.653453	1.361535	-0.000006
C38	C	-0.712861	1.359964	-0.000010
C39	C	-0.725517	1.588936	-0.000017
C40	C	-0.666107	1.590506	-0.000017
C41	C	-0.630076	1.476802	-0.000009
C42	C	-0.178958	1.603355	-0.000045
C43	C	-0.119546	1.604913	-0.000053
C44	C	-0.106896	1.375942	-0.000043
C45	C	-0.166303	1.374383	-0.000038
C46	C	-0.202333	1.488100	-0.000037
O47	O	-0.254911	1.274613	-0.000043
O48	O	-0.278369	1.698241	-0.000028
C49	C	0.187873	1.471972	-0.000018
C50	C	0.251101	1.473661	-0.000010
C51	C	0.080543	1.712079	-0.000038
C52	C	0.082217	1.851469	-0.000038
N53	N	0.083808	1.482368	-0.143837
C54	C	0.048923	1.406718	-0.436444
C55	C	0.048926	1.406707	-0.372837
O56	O	0.019267	1.342338	-0.339941
N57	N	0.083790	1.482418	-0.341021
C58	C	0.118650	1.558154	-0.372816
O59	O	0.148305	1.622552	-0.339914
C60	C	0.118644	1.558171	-0.436423
C61	C	0.083782	1.482446	-0.468235
C62	C	0.014063	1.330999	-0.468257
C63	C	0.014062	1.331009	-0.531860
C64	C	0.048920	1.406737	-0.563651
C65	C	0.083780	1.482455	-0.531838
C66	C	0.153501	1.633914	-0.468217
C67	C	0.153491	1.633925	-0.531828
C68	C	0.118629	1.558199	-0.563640
C69	C	0.118637	1.558193	-0.627232
N70	N	0.083773	1.482482	-0.659048
C71	C	0.048914	1.406754	-0.627257
C72	C	0.118659	1.558114	-0.239239
C73	C	0.118669	1.558092	-0.175633
C74	C	0.048943	1.406645	-0.175658
C75	C	0.048937	1.406662	-0.239264
C76	C	0.083795	1.482403	-0.271054
C77	C	0.048914	1.406779	-0.760828
C78	C	0.048917	1.406791	-0.824437
C79	C	0.118640	1.558242	-0.824407
C80	C	0.118639	1.558225	-0.760804
C81	C	0.083771	1.482490	-0.729016
O82	O	0.148279	1.622532	-0.660168
O83	O	0.019259	1.342379	-0.660167
N84	N	0.083775	1.482519	0.143772
H85	H	0.179239	1.072896	-0.000006
H86	H	-0.452264	1.158822	0.000013
C87	C	-0.025597	1.228987	0.051904
C88	C	-0.023336	1.152712	-0.000044
H89	H	-0.060225	1.284035	0.051896
H90	H	-0.024067	1.177255	0.087134
H91	H	0.005964	1.277415	0.051905
H92	H	-0.054894	1.104277	-0.000042
H93	H	-0.024871	1.204450	-0.035283
H94	H	-0.011650	0.891971	-0.000064
H95	H	-0.731886	1.266096	-0.000013
C96	C	0.237425	0.883613	0.000002
C97	C	0.190918	0.812187	-0.000016
H98	H	0.272056	0.828574	0.000012
H99	H	0.235891	0.935336	-0.035231
H100	H	0.235873	0.935356	0.035246
H101	H	0.192468	0.760450	-0.035263
H102	H	0.192453	0.760443	0.035221
C103	C	-0.253109	1.734415	-0.051990
C104	C	-0.218558	1.728351	-0.000047
H105	H	-0.277558	1.811579	-0.051991
H106	H	-0.229672	1.730241	-0.087223
H107	H	-0.275536	1.665546	-0.051977
H108	H	-0.196128	1.797216	-0.000062
H109	H	-0.241998	1.732538	0.035195
H110	H	-0.100519	1.698787	-0.000062
C111	C	-0.417653	1.938360	-0.000035
C112	C	-0.373471	1.838911	-0.000037
H113	H	-0.401796	2.016591	-0.000031
H114	H	-0.440560	1.932963	-0.035271
H115	H	-0.440560	1.932981	0.035206
H116	H	-0.350566	1.844284	-0.035281
H117	H	-0.350554	1.844311	0.035203
C118	C	0.141880	1.768315	-0.843969
C119	C	0.156953	1.641487	-0.859359
H120	H	0.165533	1.819709	-0.865546
H121	H	0.103016	1.792116	-0.854388
H122	H	0.146878	1.779134	-0.801534
H123	H	0.151951	1.630666	-0.901793
H124	H	0.195826	1.617677	-0.848944
H125	H	-0.014329	1.269350	-0.557756
C126	C	-0.532708	1.841768	0.051913
C127	C	-0.498163	1.835621	-0.000033
H128	H	-0.557149	1.918944	0.051908
H129	H	-0.555139	1.772919	0.051912
H130	H	-0.509263	1.837631	0.087148
H131	H	-0.521609	1.839749	-0.035268
H132	H	-0.475730	1.904489	-0.000037
H133	H	-0.647081	1.684372	-0.000024
H134	H	-0.754865	1.681514	-0.000017
C135	C	-0.646920	1.135046	-0.000009
C136	C	-0.613849	1.236539	-0.000009
H137	H	-0.622472	1.057882	-0.000014
H138	H	-0.670351	1.139217	0.035229
H139	H	-0.670360	1.139200	-0.035249
H140	H	-0.590413	1.232391	0.035234
H141	H	-0.590408	1.232365	-0.035250
H142	H	0.147035	1.619869	-0.734901
C143	C	-0.344754	1.059614	0.051959
C144	C	-0.334227	1.129278	0.000009
H145	H	-0.320306	0.982448	0.051960
H146	H	-0.337611	1.106932	0.087187
H147	H	-0.383484	1.042200	0.051957
H148	H	-0.295498	1.146700	0.000014
H149	H	-0.341366	1.081950	-0.035228
C150	C	0.044644	1.237907	-0.689333
C151	C	0.010592	1.323521	-0.725893
H152	H	0.020987	1.186509	-0.667763
H153	H	0.070632	1.186145	-0.714155
H154	H	0.065399	1.283011	-0.661279
H155	H	-0.010160	1.278417	-0.753950
H156	H	-0.015407	1.375289	-0.701069
H157	H	-0.014326	1.269332	-0.442379
H158	H	-0.185334	1.280517	-0.000047
C159	C	-0.077805	1.181308	0.051917
C160	C	-0.067282	1.250970	-0.000035
H161	H	-0.053350	1.104153	0.051923
H162	H	-0.070670	1.228638	0.087144
H163	H	-0.116532	1.163873	0.051912
H164	H	-0.028556	1.268413	-0.000028
H165	H	-0.074413	1.203630	-0.035271
C166	C	-0.020008	1.257093	-0.818066
C167	C	0.010591	1.323556	-0.859406
H168	H	-0.043671	1.205718	-0.839654
H169	H	0.005983	1.205306	-0.793265
H170	H	-0.043096	1.315188	-0.793249
H171	H	0.033683	1.265461	-0.884220
H172	H	-0.015404	1.375348	-0.884217
H173	H	0.020549	1.345000	-0.265162
H174	H	0.020560	1.344983	-0.149762
H175	H	0.147064	1.619740	-0.149737
H176	H	0.147050	1.619788	-0.265118
C177	C	0.222402	1.783642	-0.474609
C178	C	0.191818	1.717168	-0.433260
H179	H	0.246055	1.835051	-0.453027
H180	H	0.245494	1.725564	-0.499421
H181	H	0.196398	1.835410	-0.499414
H182	H	0.217822	1.665393	-0.408458
H183	H	0.168724	1.775253	-0.408437
H184	H	0.181876	1.695606	-0.557708
