data_functionalizedCrystal
_audit_creation_method	'MofGen! by Chris Wilmer'
_symmetry_space_group_name_H-M	'P1'
_symmetry_Int_Tables_number	1
_symmetry_cell_setting	triclinic
loop_
_symmetry_equiv_pos_as_xyz
  x,y,z
_cell_length_a	35.277628
_cell_length_b	35.288095
_cell_length_c	35.277682
_cell_angle_alpha	59.997929
_cell_angle_beta	89.998958
_cell_angle_gamma	60.000166
loop_
_atom_site_label
_atom_site_type_symbol
_atom_site_fract_x
_atom_site_fract_y
_atom_site_fract_z
O1	O	-0.323087	-0.271234	0.011271
O2	O	-0.267964	-0.193634	-0.011228
O3	O	-0.267962	-0.271233	0.066395
O4	O	-0.323089	-0.193635	-0.066351
O5	O	-0.204915	-0.334261	0.066394
O6	O	-0.204918	-0.256661	-0.011228
O7	O	-0.260040	-0.334261	0.011271
Cu8	Cu	-0.226722	-0.301216	0.000022
Cu9	Cu	-0.301282	-0.226679	0.000022
O10	O	-0.260043	-0.256662	-0.066351
C11	C	-0.163481	-0.071298	-0.023519
C12	C	-0.186872	-0.024531	-0.020298
C13	C	-0.117860	-0.093995	-0.023838
C14	C	-0.163483	-0.139918	-0.023524
C15	C	-0.186875	-0.166518	-0.020308
C16	C	-0.117862	-0.162510	-0.023843
C17	C	-0.094838	-0.139921	-0.023519
C18	C	-0.044836	-0.166525	-0.020298
C19	C	-0.186401	-0.093991	-0.023843
C20	C	-0.004439	-0.188019	-0.017694
C21	C	-0.205769	0.013252	-0.017695
C22	C	-0.205774	-0.188010	-0.017709
C23	C	0.046241	-0.214983	-0.014429
C24	C	-0.229477	0.060653	-0.014430
C25	C	-0.229483	-0.214971	-0.014450
C26	C	-0.500364	-0.466062	0.034181
C27	C	-0.477341	-0.511990	0.034503
C28	C	-0.431722	-0.466060	0.034178
C29	C	-0.408804	-0.511988	0.034500
C30	C	-0.431721	-0.534685	0.034181
C31	C	-0.477342	-0.443470	0.034500
C32	C	-0.665895	-0.342485	0.021756
C33	C	-0.712772	-0.317221	0.018243
C34	C	-0.736287	-0.338907	0.016481
C35	C	-0.787116	-0.311512	0.012664
C36	C	-0.712921	-0.385861	0.018236
C37	C	-0.666047	-0.411125	0.021755
C38	C	-0.642533	-0.389434	0.023515
C39	C	-0.389805	-0.687746	0.021758
C40	C	-0.368199	-0.731097	0.018245
C41	C	-0.322995	-0.752841	0.016478
C42	C	-0.299567	-0.799839	0.012662
C43	C	-0.299393	-0.731235	0.018230
C44	C	-0.320995	-0.687892	0.021751
C45	C	-0.366205	-0.666148	0.023512
C46	C	-0.389808	-0.342477	0.021744
C47	C	-0.368205	-0.317208	0.018222
C48	C	-0.322998	-0.338892	0.016457
C49	C	-0.299573	-0.311495	0.012637
C50	C	-0.299398	-0.385842	0.018210
C51	C	-0.321003	-0.411107	0.021730
C52	C	-0.366208	-0.389423	0.023501
C53	C	-0.591706	-0.416830	0.027326
C54	C	-0.551191	-0.438667	0.030366
C55	C	-0.408299	-0.438663	0.030360
C56	C	-0.389629	-0.416824	0.027317
C57	C	-0.408298	-0.581682	0.030365
C58	C	-0.389627	-0.619146	0.027325
C59	C	-0.432024	-0.061845	-0.438511
C60	C	-0.477645	-0.015917	-0.461431
C61	C	-0.432025	-0.061844	-0.369869
C62	C	-0.477645	-0.015916	-0.392892
C63	C	-0.500668	0.006779	-0.438513
C64	C	-0.409106	-0.084435	-0.392891
C65	C	-0.320834	-0.185425	-0.480424
C66	C	-0.299076	-0.210690	-0.502029
C67	C	-0.322531	-0.189005	-0.547237
C68	C	-0.298945	-0.216401	-0.570661
C69	C	-0.367745	-0.142051	-0.570839
C70	C	-0.389497	-0.116787	-0.549237
C71	C	-0.366040	-0.138476	-0.504027
C72	C	-0.666200	0.159838	-0.549704
C73	C	-0.713077	0.203188	-0.571462
C74	C	-0.736595	0.224934	-0.548009
C75	C	-0.787423	0.271931	-0.571594
C76	C	-0.713230	0.203329	-0.502796
C77	C	-0.666353	0.159987	-0.481041
C78	C	-0.642841	0.138241	-0.504500
C79	C	-0.320836	-0.185423	-0.204335
C80	C	-0.299080	-0.210691	-0.157455
C81	C	-0.322536	-0.189006	-0.133940
C82	C	-0.298950	-0.216402	-0.083110
C83	C	-0.367748	-0.142056	-0.157305
C84	C	-0.389502	-0.116792	-0.204182
C85	C	-0.366040	-0.138478	-0.227695
C86	C	-0.389632	-0.111079	-0.480604
C87	C	-0.408436	-0.089241	-0.461934
C88	C	-0.408437	-0.089240	-0.319041
C89	C	-0.389634	-0.111078	-0.278525
C90	C	-0.551496	0.053776	-0.462102
C91	C	-0.592011	0.091239	-0.480906
O92	O	0.196122	-0.334274	0.011291
O93	O	0.063378	-0.256674	-0.011208
O94	O	0.140994	-0.334276	0.066414
O95	O	0.118506	-0.256671	-0.066331
O96	O	0.140996	-0.271251	0.066419
O97	O	0.063380	-0.193649	-0.011203
O98	O	0.196124	-0.271249	0.011296
Cu99	Cu	0.129752	-0.226694	0.000047
Cu100	Cu	0.129750	-0.301228	0.000041
O101	O	0.118508	-0.193647	-0.066327
O102	O	-0.260036	0.184774	0.011294
O103	O	-0.204910	0.074561	-0.011204
O104	O	-0.204913	0.074554	0.066418
O105	O	-0.260033	0.184781	-0.066328
O106	O	-0.267961	0.074557	0.066413
O107	O	-0.267958	0.074564	-0.011209
O108	O	-0.323083	0.184777	0.011289
Cu109	Cu	-0.301278	0.129670	0.000040
Cu110	Cu	-0.226716	0.129668	0.000045
O111	O	-0.323081	0.184784	-0.066333
O112	O	-0.936929	0.397535	-0.602582
O113	O	-0.804185	0.287317	-0.547454
O114	O	-0.881802	0.287315	-0.547452
O115	O	-0.859312	0.397537	-0.602584
O116	O	-0.881801	0.287314	-0.610498
O117	O	-0.804183	0.287316	-0.610500
O118	O	-0.936927	0.397533	-0.665628
Cu119	Cu	-0.870555	0.342425	-0.643820
Cu120	Cu	-0.870557	0.342426	-0.569261
O121	O	-0.859310	0.397536	-0.665629
O122	O	-0.267961	-0.271234	-0.665316
O123	O	-0.323086	-0.193638	-0.610192
O124	O	-0.323085	-0.271236	-0.610189
O125	O	-0.267962	-0.193636	-0.665319
O126	O	-0.260038	-0.334264	-0.547142
O127	O	-0.260039	-0.256666	-0.547145
O128	O	-0.204914	-0.334262	-0.602269
Cu129	Cu	-0.226720	-0.301219	-0.568950
Cu130	Cu	-0.301280	-0.226681	-0.643511
O131	O	-0.204915	-0.256664	-0.602272
C132	C	-0.094840	-0.456607	0.293255
C133	C	-0.044837	-0.503376	0.316647
C134	C	-0.117862	-0.433912	0.316174
C135	C	-0.163483	-0.387984	0.224612
C136	C	-0.186875	-0.361381	0.174609
C137	C	-0.186401	-0.365393	0.247634
C138	C	-0.163483	-0.387984	0.293255
C139	C	-0.186874	-0.361382	0.316646
C140	C	-0.117862	-0.433912	0.247635
C141	C	-0.205772	-0.339889	0.335543
C142	C	-0.004440	-0.541160	0.335545
C143	C	-0.205773	-0.339888	0.134212
C144	C	-0.229480	-0.312925	0.359250
C145	C	0.046239	-0.588562	0.359254
C146	C	-0.229481	-0.312924	0.083532
C147	C	0.153295	-0.388013	0.293279
C148	C	0.150076	-0.361413	0.316673
C149	C	0.153614	-0.433940	0.316196
C150	C	0.153297	-0.388008	0.224634
C151	C	0.150079	-0.361403	0.174632
C152	C	0.153616	-0.433935	0.247655
C153	C	0.153293	-0.456633	0.293275
C154	C	0.150072	-0.503401	0.316665
C155	C	0.153617	-0.365420	0.247659
C156	C	0.147469	-0.541185	0.335561
C157	C	0.147474	-0.339922	0.335572
C158	C	0.147479	-0.339908	0.134234
C159	C	0.144204	-0.588587	0.359267
C160	C	0.144211	-0.312962	0.359282
C161	C	0.144218	-0.312942	0.083555
C162	C	-0.163482	-0.139963	0.293267
C163	C	-0.186875	-0.166567	0.316654
C164	C	-0.117861	-0.162559	0.316187
C165	C	-0.163482	-0.071333	0.224628
C166	C	-0.186873	-0.024557	0.174627
C167	C	-0.117860	-0.094033	0.247653
C168	C	-0.094838	-0.139967	0.293272
C169	C	-0.044835	-0.166574	0.316665
C170	C	-0.186401	-0.094030	0.247648
C171	C	-0.004438	-0.188070	0.335563
C172	C	-0.205773	-0.188061	0.335549
C173	C	-0.205771	0.013233	0.134231
C174	C	0.046242	-0.215038	0.359273
C175	C	-0.229482	-0.215026	0.359253
C176	C	-0.229479	0.060643	0.083553
C177	C	0.095627	0.006487	-0.438489
C178	C	0.095306	-0.016206	-0.461409
C179	C	0.095623	-0.062137	-0.369847
C180	C	0.095303	-0.084726	-0.392871
C181	C	0.095625	-0.062133	-0.438492
C182	C	0.095305	-0.016210	-0.392868
C183	C	0.108059	0.159543	-0.480399
C184	C	0.111575	0.202893	-0.502003
C185	C	0.113340	0.224640	-0.547210
C186	C	0.117161	0.271637	-0.570634
C187	C	0.111587	0.203038	-0.570814
C188	C	0.108065	0.159695	-0.549212
C189	C	0.106302	0.137948	-0.504002
C190	C	0.108054	-0.116452	-0.549685
C191	C	0.111568	-0.141562	-0.571444
C192	C	0.113332	-0.188519	-0.547992
C193	C	0.117148	-0.215753	-0.571578
C194	C	0.111577	-0.210363	-0.502779
C195	C	0.108055	-0.185249	-0.481023
C196	C	0.106297	-0.138292	-0.504481
C197	C	0.108046	-0.116473	-0.204312
C198	C	0.111564	-0.141591	-0.157432
C199	C	0.113326	-0.188548	-0.133918
C200	C	0.117142	-0.215786	-0.083088
C201	C	0.111574	-0.210388	-0.157283
C202	C	0.108058	-0.185270	-0.204161
C203	C	0.106290	-0.138308	-0.227673
C204	C	0.102487	0.090947	-0.480580
C205	C	0.099445	0.053484	-0.461911
C206	C	0.099438	-0.089371	-0.319019
C207	C	0.102477	-0.111078	-0.278503
C208	C	0.099442	-0.089362	-0.462081
C209	C	0.102482	-0.111066	-0.480886
O210	O	0.118477	-0.256700	0.452885
O211	O	0.140984	-0.334299	0.397762
O212	O	0.063360	-0.256699	0.397752
O213	O	0.196101	-0.334300	0.452895
O214	O	0.063367	-0.193672	0.334708
O215	O	0.140992	-0.271271	0.334718
O216	O	0.118484	-0.193673	0.389842
Cu217	Cu	0.129739	-0.226717	0.356523
Cu218	Cu	0.129730	-0.301254	0.431080
O219	O	0.196108	-0.271272	0.389852
C220	C	-0.500364	0.533998	-0.438484
C221	C	-0.477341	0.556591	-0.461399
C222	C	-0.431721	0.465364	-0.369840
C223	C	-0.408802	0.488061	-0.392859
C224	C	-0.431720	0.533995	-0.438478
C225	C	-0.477342	0.488064	-0.392865
C226	C	-0.665898	0.588334	-0.480407
C227	C	-0.712776	0.613450	-0.502014
C228	C	-0.736291	0.660414	-0.547220
C229	C	-0.787122	0.687654	-0.570647
C230	C	-0.712926	0.682257	-0.570819
C231	C	-0.666050	0.657138	-0.549214
C232	C	-0.642536	0.610174	-0.504006
C233	C	-0.389802	0.657585	-0.549654
C234	C	-0.368196	0.682850	-0.571408
C235	C	-0.322990	0.661164	-0.547952
C236	C	-0.299561	0.688558	-0.571532
C237	C	-0.299388	0.614205	-0.502740
C238	C	-0.320990	0.588935	-0.480990
C239	C	-0.366202	0.610633	-0.504452
C240	C	-0.389804	0.312282	-0.204314
C241	C	-0.368201	0.268929	-0.157436
C242	C	-0.322993	0.247179	-0.133918
C243	C	-0.299567	0.200174	-0.083089
C244	C	-0.299392	0.268786	-0.157278
C245	C	-0.320998	0.312139	-0.204154
C246	C	-0.366204	0.333881	-0.227670
C247	C	-0.591708	0.582942	-0.480581
C248	C	-0.551193	0.561234	-0.461909
C249	C	-0.408297	0.418359	-0.319013
C250	C	-0.389626	0.380890	-0.278499
C251	C	-0.408296	0.561393	-0.462062
C252	C	-0.389624	0.583232	-0.480862
H253	H	-0.371321	-0.530978	0.035012
H254	H	-0.223885	-0.074993	-0.024363
H255	H	0.154138	-0.452930	0.229170
O256	O	-0.433691	0.678565	-0.572420
C257	C	-0.483349	0.664666	-0.602406
C258	C	-0.433625	0.640839	-0.576612
H259	H	-0.483310	0.634179	-0.605812
H260	H	-0.507041	0.674903	-0.582090
H261	H	-0.496503	0.702577	-0.638443
H262	H	-0.420428	0.602913	-0.540574
H263	H	-0.409964	0.630640	-0.596963
H264	H	-0.099376	-0.075038	0.229168
H265	H	-0.099377	-0.452909	0.353658
O266	O	-0.499459	-0.534581	0.035114
C267	C	-0.569726	-0.530396	0.036083
C268	C	-0.544741	-0.504745	0.035371
H269	H	-0.606337	-0.506291	0.036301
H270	H	-0.571664	-0.530619	0.003944
H271	H	-0.549655	-0.573298	0.068568
H272	H	-0.564790	-0.461833	0.002907
H273	H	-0.542797	-0.504564	0.067532
H274	H	-0.496128	0.003076	-0.374407
H275	H	-0.099372	-0.452898	0.229148
O276	O	-0.391171	0.728519	-0.615289
C277	C	-0.458043	0.820137	-0.665951
C278	C	-0.432065	0.768452	-0.616235
H279	H	-0.491115	0.852432	-0.666735
H280	H	-0.434865	0.834511	-0.677476
H281	H	-0.467395	0.811714	-0.690457
H282	H	-0.422709	0.776832	-0.591694
H283	H	-0.455258	0.754092	-0.604749
O284	O	-0.499453	-0.399391	0.035130
C285	C	-0.569756	-0.334227	0.035991
C286	C	-0.544767	-0.384153	0.035293
H287	H	-0.606399	-0.321885	0.036114
H288	H	-0.549754	-0.343814	0.068483
H289	H	-0.571622	-0.299995	0.003857
H290	H	-0.542895	-0.418407	0.067405
H291	H	-0.564778	-0.374521	0.002780
O292	O	0.113330	0.224209	-0.614715
C293	C	0.118737	0.291064	-0.678499
C294	C	0.116775	0.267135	-0.628775
H295	H	0.121513	0.325781	-0.689886
H296	H	0.150289	0.258914	-0.679385
H297	H	0.085825	0.306234	-0.703051
H298	H	0.149665	0.251967	-0.604194
H299	H	0.085202	0.299302	-0.627927
H300	H	-0.223884	-0.075035	0.229163
O301	O	-0.095835	-0.206640	-0.024397
C302	C	-0.068501	-0.298934	0.014711
C303	C	-0.093465	-0.248995	0.015390
H304	H	-0.066568	-0.333195	0.046880
H305	H	-0.088537	-0.289366	-0.017751
H306	H	-0.031883	-0.311222	0.014514
H307	H	-0.130082	-0.236681	0.015603
H308	H	-0.073393	-0.258592	0.047848
O309	O	-0.095763	-0.071398	-0.024403
C310	C	-0.030802	-0.083103	0.014670
C311	C	-0.055758	-0.108780	0.015372
H312	H	0.001541	-0.113311	0.046830
H313	H	-0.020351	-0.070665	-0.017800
H314	H	-0.055144	-0.046304	0.014475
H315	H	-0.031441	-0.145596	0.015585
H316	H	-0.066216	-0.121179	0.047839
O317	O	-0.433711	-0.321495	0.023485
C318	C	-0.497498	-0.329984	0.028885
C319	C	-0.447772	-0.353808	0.026930
H320	H	-0.508885	-0.356092	0.031661
H321	H	-0.498389	-0.328486	0.060434
H322	H	-0.522046	-0.287706	-0.004031
H323	H	-0.423195	-0.396094	0.059823
H324	H	-0.446919	-0.355264	-0.004640
H325	H	0.154122	-0.452930	0.353678
O326	O	-0.391189	-0.271617	0.016543
C327	C	-0.461724	-0.206191	0.016901
C328	C	-0.435744	-0.257831	0.018816
H329	H	-0.497756	-0.195023	0.018727
H330	H	-0.441511	-0.213011	0.047491
H331	H	-0.465148	-0.172287	-0.016972
H332	H	-0.432314	-0.291760	0.052668
H333	H	-0.455969	-0.250966	-0.011798
O334	O	0.154252	-0.321343	0.225681
C335	C	0.155120	-0.256185	0.230805
C336	C	0.154415	-0.306108	0.255754
H337	H	0.155242	-0.243845	0.255104
H338	H	0.187614	-0.265776	0.220397
H339	H	0.122989	-0.221951	0.198428
H340	H	0.186523	-0.340364	0.288147
H341	H	0.121900	-0.296473	0.266127
H342	H	-0.262587	-0.403497	0.016771
H343	H	-0.646754	-0.324820	0.023190
O344	O	-0.735403	-0.271602	0.016518
C345	C	-0.730303	-0.206200	0.016914
C346	C	-0.704620	-0.257860	0.018863
H347	H	-0.705423	-0.195080	0.018819
H348	H	-0.760773	-0.172257	-0.016971
H349	H	-0.743723	-0.213039	0.047489
H350	H	-0.691170	-0.251073	-0.011688
H351	H	-0.674172	-0.291785	0.052767
O352	O	0.113262	-0.255987	-0.134382
C353	C	0.118691	-0.325179	-0.062099
C354	C	0.116777	-0.273539	-0.087978
H355	H	0.121543	-0.339392	-0.024575
H356	H	0.085763	-0.316830	-0.079794
H357	H	0.150219	-0.357569	-0.062766
H358	H	0.085270	-0.241126	-0.087320
H359	H	0.149727	-0.281932	-0.070276
H360	H	-0.301729	-0.203089	-0.443614
O361	O	-0.735837	-0.406842	0.016500
C362	C	-0.808111	-0.398361	0.011109
C363	C	-0.782219	-0.374533	0.013060
H364	H	-0.845613	-0.372256	0.008337
H365	H	-0.807506	-0.399857	-0.020441
H366	H	-0.790368	-0.440639	0.044025
H367	H	-0.799943	-0.332245	-0.019833
H368	H	-0.782821	-0.373078	0.044631
O369	O	-0.643426	-0.456715	0.023434
C370	C	-0.648513	-0.522146	0.023082
C371	C	-0.674188	-0.470507	0.021168
H372	H	-0.673370	-0.533319	0.021261
H373	H	-0.635125	-0.515323	-0.007512
H374	H	-0.618020	-0.556049	0.056952
H375	H	-0.704700	-0.436579	-0.012682
H376	H	-0.687542	-0.477374	0.051785
H377	H	-0.426615	-0.670047	0.023195
O378	O	-0.298101	-0.456757	0.023503
C379	C	-0.267873	-0.550350	0.067387
C380	C	-0.293825	-0.498686	0.065434
H381	H	-0.264399	-0.584265	0.101289
H382	H	-0.288113	-0.543554	0.036829
H383	H	-0.231863	-0.561485	0.065500
H384	H	-0.329836	-0.487522	0.067335
H385	H	-0.273550	-0.505510	0.095988
H386	H	-0.099381	-0.199518	0.353671
O387	O	-0.391198	-0.752003	0.016527
C388	C	-0.461714	-0.747311	0.016939
C389	C	-0.435725	-0.723575	0.018876
H390	H	-0.497715	-0.724345	0.018848
H391	H	-0.465199	-0.743900	-0.016944
H392	H	-0.441448	-0.791293	0.047516
H393	H	-0.455968	-0.679588	-0.011676
H394	H	-0.432235	-0.727029	0.052779
O395	O	-0.231137	-0.321343	0.225645
C396	C	-0.310049	-0.283359	0.225467
C397	C	-0.259407	-0.333280	0.250426
H398	H	-0.332921	-0.292995	0.245487
H399	H	-0.312204	-0.249096	0.223581
H400	H	-0.322517	-0.271036	0.188831
H401	H	-0.246906	-0.345651	0.287073
H402	H	-0.257281	-0.367511	0.252274
O403	O	-0.255490	-0.752406	0.016492
C404	C	-0.191702	-0.819266	0.011096
C405	C	-0.241427	-0.795335	0.013051
H406	H	-0.180313	-0.853985	0.008324
H407	H	-0.190812	-0.787117	-0.020456
H408	H	-0.167153	-0.834433	0.044010
H409	H	-0.266003	-0.780170	-0.019840
H410	H	-0.242278	-0.827501	0.044625
H411	H	0.094785	-0.121682	-0.374387
O412	O	-0.735770	0.224246	-0.615406
C413	C	-0.778067	0.302425	-0.694481
C414	C	-0.752371	0.278645	-0.644739
H415	H	-0.791505	0.346413	-0.718209
H416	H	-0.753221	0.279476	-0.707541
H417	H	-0.808530	0.298997	-0.694510
H418	H	-0.721910	0.282069	-0.644671
H419	H	-0.777248	0.301599	-0.631699
H420	H	0.106608	-0.078237	-0.223453
O421	O	-0.255505	0.593206	-0.479943
C422	C	-0.205837	0.607126	-0.450003
C423	C	-0.255557	0.630965	-0.475817
H424	H	-0.205861	0.637647	-0.446668
H425	H	-0.192666	0.569240	-0.413939
H426	H	-0.182166	0.596851	-0.470321
H427	H	-0.279263	0.641272	-0.455538
H428	H	-0.268689	0.668831	-0.511883
H429	H	-0.301770	0.550701	-0.444180
H430	H	-0.301775	-0.670305	0.023178
H431	H	-0.732378	0.221040	-0.483702
H432	H	0.094791	0.002793	-0.498893
O433	O	-0.297998	0.333046	-0.226782
C434	C	-0.227479	0.328348	-0.221674
C435	C	-0.253470	0.304612	-0.195996
H436	H	-0.191477	0.305376	-0.196792
H437	H	-0.223997	0.324943	-0.252148
H438	H	-0.247742	0.372327	-0.235087
H439	H	-0.233229	0.260626	-0.182552
H440	H	-0.256957	0.308058	-0.165544
O441	O	0.094664	0.006530	-0.370890
C442	C	0.093780	0.077687	-0.376014
C443	C	0.094498	0.051997	-0.400961
H444	H	0.093655	0.114445	-0.400312
H445	H	0.061283	0.090172	-0.365611
H446	H	0.125907	0.047434	-0.343633
H447	H	0.062393	0.082221	-0.433358
H448	H	0.127016	0.039500	-0.411329
H449	H	0.113001	-0.123813	-0.138408
H450	H	-0.262581	0.251075	-0.138127
H451	H	-0.371318	0.469063	-0.374372
H452	H	0.106623	0.141841	-0.443588
H453	H	0.113004	0.220477	-0.482781
O454	O	0.106292	-0.206477	-0.437129
C455	C	0.065309	-0.232336	-0.386454
C456	C	0.067254	-0.208297	-0.436184
H457	H	0.033745	-0.233805	-0.385676
H458	H	0.098211	-0.274634	-0.361940
H459	H	0.062516	-0.206328	-0.374936
H460	H	0.070032	-0.234263	-0.447745
H461	H	0.034352	-0.165992	-0.460667
H462	H	0.106637	0.142110	-0.568432
H463	H	0.106619	-0.078217	-0.568789
H464	H	0.112999	-0.123775	-0.608256
O465	O	-0.499471	0.600712	-0.506102
C466	C	-0.569766	0.665869	-0.572157
C467	C	-0.544760	0.615904	-0.521535
H468	H	-0.606383	0.678160	-0.584653
H469	H	-0.571690	0.700132	-0.574273
H470	H	-0.549719	0.656281	-0.595033
H471	H	-0.564786	0.625440	-0.498628
H472	H	-0.542831	0.581656	-0.519455
H473	H	-0.647028	0.674924	-0.568431
O474	O	-0.255163	-0.256301	-0.479032
C475	C	-0.189333	-0.321682	-0.408521
C476	C	-0.239070	-0.270036	-0.434506
H477	H	-0.176304	-0.332797	-0.372521
H478	H	-0.189251	-0.355635	-0.405032
H479	H	-0.165612	-0.314826	-0.428792
H480	H	-0.262820	-0.276840	-0.414257
H481	H	-0.239116	-0.236101	-0.438000
O482	O	-0.390516	-0.120916	-0.614781
C483	C	-0.427909	-0.044747	-0.694864
C484	C	-0.402113	-0.068623	-0.645122
H485	H	-0.437301	-0.002460	-0.719407
H486	H	-0.404604	-0.070831	-0.706286
H487	H	-0.460949	-0.043263	-0.695715
H488	H	-0.369073	-0.070109	-0.644232
H489	H	-0.425451	-0.042531	-0.633721
O490	O	-0.499624	0.006688	-0.506154
C491	C	-0.494451	0.002537	-0.572250
C492	C	-0.469517	-0.023141	-0.521593
H493	H	-0.470117	-0.021562	-0.584751
H494	H	-0.526821	0.002778	-0.574437
H495	H	-0.504865	0.045433	-0.595075
H496	H	-0.459072	-0.066047	-0.498737
H497	H	-0.437167	-0.023340	-0.519443
H498	H	0.113006	-0.248593	-0.483685
O499	O	-0.364382	-0.128510	-0.370912
C500	C	-0.298331	-0.193665	-0.376034
C501	C	-0.348974	-0.143747	-0.400983
H502	H	-0.285862	-0.206007	-0.400332
H503	H	-0.275435	-0.184068	-0.365628
H504	H	-0.296215	-0.227901	-0.343655
H505	H	-0.351134	-0.109489	-0.433378
H506	H	-0.371847	-0.153388	-0.411354
O507	O	-0.255154	-0.256280	-0.134835
C508	C	-0.189349	-0.321704	-0.139926
C509	C	-0.239091	-0.270067	-0.165600
H510	H	-0.176350	-0.332873	-0.164785
H511	H	-0.165582	-0.314880	-0.126537
H512	H	-0.189303	-0.355610	-0.109433
H513	H	-0.239181	-0.236136	-0.196111
H514	H	-0.262836	-0.276935	-0.178955
H515	H	0.106630	-0.203055	-0.223182
O516	O	-0.499453	0.465458	-0.370889
C517	C	-0.569756	0.469715	-0.376013
C518	C	-0.544768	0.495361	-0.400960
H519	H	-0.606401	0.493888	-0.400312
H520	H	-0.549756	0.426827	-0.365608
H521	H	-0.571620	0.469464	-0.343633
H522	H	-0.542898	0.495651	-0.433356
H523	H	-0.564778	0.538236	-0.411331
H524	H	-0.387422	0.251343	-0.138417
O525	O	-0.298040	-0.206412	-0.227221
C526	C	-0.268121	-0.192466	-0.290829
C527	C	-0.293927	-0.168642	-0.264943
H528	H	-0.264796	-0.161935	-0.321339
H529	H	-0.232054	-0.230349	-0.266112
H530	H	-0.288440	-0.202741	-0.304220
H531	H	-0.273647	-0.158333	-0.251550
H532	H	-0.329995	-0.130779	-0.289678
H533	H	-0.426614	0.329984	-0.223458
H534	H	-0.646757	0.550094	-0.443598
O535	O	-0.643732	0.139053	-0.437117
C536	C	-0.648818	0.143791	-0.371317
C537	C	-0.674494	0.167541	-0.421056
H538	H	-0.673675	0.166820	-0.358320
H539	H	-0.635426	0.099821	-0.347544
H540	H	-0.618327	0.147170	-0.371279
H541	H	-0.705003	0.164200	-0.421138
H542	H	-0.687852	0.211501	-0.444808
H543	H	-0.386847	-0.124399	-0.138156
H544	H	-0.732075	0.720493	-0.607626
O545	O	-0.643424	0.138799	-0.572566
C546	C	-0.648226	0.143215	-0.642960
C547	C	-0.674074	0.167104	-0.617130
H548	H	-0.672998	0.166082	-0.678991
H549	H	-0.617747	0.146620	-0.646372
H550	H	-0.634800	0.099227	-0.622621
H551	H	-0.687530	0.211098	-0.637446
H552	H	-0.704530	0.163657	-0.613713
H553	H	-0.426314	-0.078564	-0.223203
O554	O	-0.735408	0.592178	-0.479017
C555	C	-0.730307	0.521271	-0.408500
C556	C	-0.704624	0.545311	-0.434489
H557	H	-0.705427	0.483369	-0.372498
H558	H	-0.760775	0.551661	-0.405014
H559	H	-0.743730	0.510969	-0.428767
H560	H	-0.691171	0.555612	-0.414245
H561	H	-0.674178	0.514907	-0.437980
H562	H	-0.426308	-0.078556	-0.568458
