data_functionalizedCrystal
_audit_creation_method	'MofGen! by Chris Wilmer'
_symmetry_space_group_name_H-M	'P1'
_symmetry_Int_Tables_number	1
_symmetry_cell_setting	triclinic
loop_
_symmetry_equiv_pos_as_xyz
  x,y,z
_cell_length_a	19.377372
_cell_length_b	19.376995
_cell_length_c	12.970454
_cell_angle_alpha	48.617397
_cell_angle_beta	89.999811
_cell_angle_gamma	82.760355
loop_
_atom_site_label
_atom_site_type_symbol
_atom_site_fract_x
_atom_site_fract_y
_atom_site_fract_z
Zr1	Zr	0.743120	1.051906	-0.609923
O2	O	0.665489	1.172240	-0.785845
O3	O	0.750028	0.905718	-0.522625
O4	O	0.774385	1.063335	-0.785835
O5	O	0.641132	1.014622	-0.352967
O6	O	0.879498	1.101760	-0.823785
O7	O	0.641132	1.014623	-0.522635
O8	O	0.835927	0.819811	-0.352950
O9	O	0.684703	1.296571	-0.823802
O10	O	0.851825	1.004098	-0.554030
O11	O	0.773381	0.975422	-0.399087
O12	O	0.802058	1.160996	-0.708983
O13	O	0.723614	1.132320	-0.554041
Zr14	Zr	0.910764	1.113188	-0.399848
Zr15	Zr	0.910763	1.113188	-0.670448
Zr16	Zr	0.743121	1.051905	-0.339323
Zr17	Zr	0.773764	1.250199	-0.670460
Zr18	Zr	0.880120	0.914895	-0.339311
O19	O	0.903856	1.259375	-0.487146
O20	O	0.903856	1.259376	-0.871904
O21	O	0.665490	1.172239	-0.401087
O22	O	0.988395	0.992853	-0.223926
O23	O	0.988394	0.992854	-0.608684
O24	O	0.750029	0.905717	-0.137867
O25	O	1.012752	1.150471	-0.656804
O26	O	0.879499	1.101758	-0.223936
O27	O	0.774386	1.063334	-0.185986
O28	O	1.012752	1.150471	-0.487136
O29	O	0.817957	1.345282	-0.871912
O30	O	0.835928	0.819811	-0.137859
O31	O	0.969181	0.868523	-0.185969
O32	O	0.969181	0.868523	-0.401060
O33	O	0.684703	1.296570	-0.608711
O34	O	0.817957	1.345282	-0.656821
O35	O	0.851826	1.004098	-0.300788
O36	O	0.930270	1.032774	-0.455730
O37	O	0.880503	1.189671	-0.610684
O38	O	0.802059	1.160995	-0.455741
C39	C	0.788611	0.834512	-0.429162
C40	C	0.775602	0.750332	-0.403463
C41	C	0.716322	0.616715	-0.286369
C42	C	0.728551	0.695817	-0.310526
C43	C	0.810441	0.725763	-0.472284
C44	C	0.798216	0.646664	-0.448145
C45	C	0.751156	0.592145	-0.355185
C46	C	0.833051	0.622095	-0.516961
C47	C	0.820830	0.543001	-0.492818
C48	C	0.773774	0.488476	-0.399859
C49	C	0.738935	0.513051	-0.331042
C50	C	0.880114	0.676612	-0.609913
C51	C	0.914949	0.652042	-0.678729
C52	C	0.902724	0.572950	-0.654594
C53	C	0.855668	0.518425	-0.561635
C54	C	0.937563	0.548375	-0.723412
C55	C	0.925342	0.469281	-0.699269
C56	C	0.843447	0.439331	-0.537492
C57	C	0.617247	1.005891	-0.429177
C58	C	0.546078	0.979875	-0.403483
C59	C	0.182127	1.303796	-0.723396
C60	C	0.115261	1.279328	-0.699230
C61	C	0.167223	1.115539	-0.537470
C62	C	0.234095	1.139993	-0.561618
C63	C	0.241542	1.234123	-0.654584
C64	C	0.293509	1.070320	-0.492806
C65	C	0.360376	1.094773	-0.516957
C66	C	0.367829	1.188898	-0.609922
C67	C	0.308408	1.258575	-0.678736
C68	C	0.286062	0.976191	-0.399848
C69	C	0.345476	0.906518	-0.331035
C70	C	0.412344	0.930970	-0.355179
C71	C	0.419797	1.025095	-0.448143
C72	C	0.471765	0.861292	-0.286365
C73	C	0.538632	0.885745	-0.310517
C74	C	0.486664	1.049548	-0.472295
C75	C	1.036638	1.159202	-0.580593
C76	C	1.107806	1.185218	-0.606288
C77	C	0.826941	1.082548	-0.843365
C78	C	0.826941	1.082548	-0.958242
C79	C	0.865273	1.330581	-0.580609
C80	C	0.878282	1.414762	-0.606308
C81	C	0.826943	1.082546	-0.166406
C82	C	0.826943	1.082545	-0.051529
C83	C	0.998307	0.911168	-0.504870
C84	C	1.056467	0.853003	-0.504865
C85	C	0.788612	0.834511	-0.090683
C86	C	0.775603	0.750330	0.049894
C87	C	0.998308	0.911167	-0.166391
C88	C	1.056468	0.853002	-0.051509
C89	C	0.655577	1.253926	-0.843380
C90	C	0.597417	1.312091	-0.958262
C91	C	0.655577	1.253925	-0.504901
C92	C	0.597418	1.312090	-0.504906
C93	C	0.865272	1.330582	-0.919088
C94	C	0.878281	1.414763	-1.059664
C95	C	1.042832	0.810720	-0.556185
C96	C	1.097474	0.756077	-0.556207
C97	C	1.165750	0.743713	-0.504898
C98	C	1.179385	0.786003	-0.453578
C99	C	1.124744	0.840651	-0.453566
C100	C	0.810442	0.725767	0.167232
C101	C	0.798217	0.646680	0.299327
C102	C	0.751158	0.592154	0.314080
C103	C	0.716316	0.616724	0.196728
C104	C	0.728537	0.695813	0.064636
C105	C	1.124734	0.840659	-0.078440
C106	C	1.179390	0.786020	0.029488
C107	C	1.165776	0.743721	0.164347
C108	C	1.097503	0.756069	0.191276
C109	C	1.042850	0.810712	0.083348
C110	C	0.529152	1.324444	-0.931334
C111	C	0.474500	1.379107	-1.039269
C112	C	0.488114	1.421411	-1.174130
C113	C	0.556386	1.409058	-1.201057
C114	C	0.611037	1.354401	-1.093125
C115	C	0.611054	1.354381	-0.453599
C116	C	0.556415	1.409046	-0.453614
C117	C	0.488139	1.421413	-0.504927
C118	C	0.474504	1.379119	-0.556242
C119	C	0.529143	1.324461	-0.556235
C120	C	0.925344	1.469266	-1.074372
C121	C	0.937581	1.548358	-1.206450
C122	C	0.902750	1.572949	-1.323820
C123	C	0.855684	1.518437	-1.309107
C124	C	0.843452	1.439343	-1.177030
H125	H	0.677994	0.572328	-0.210684
H126	H	0.567530	1.443474	-0.411823
H127	H	1.210236	0.699213	-0.504915
N128	N	0.792685	0.380521	-0.437243
H129	H	0.744726	0.419923	-0.469656
H130	H	0.809147	0.355557	-0.342542
H131	H	0.805126	1.394972	-1.165073
H132	H	0.567463	1.443508	-1.310873
H133	H	0.418914	1.389153	-1.017317
N134	N	0.665566	0.557906	0.212645
H135	H	0.626489	0.556602	0.265164
H136	H	0.690920	0.492273	0.265134
N137	N	0.684660	1.341071	-1.122192
H138	H	0.701953	1.272483	-1.066806
H139	H	0.716322	1.365688	-1.095261
H140	H	0.666643	1.344317	-0.411805
N141	N	1.253027	0.772664	-0.398242
H142	H	1.285566	0.731625	-0.406038
H143	H	1.254163	0.742161	-0.298040
N144	N	0.969195	0.824044	-0.611524
H145	H	0.968001	0.854578	-0.711748
H146	H	0.936685	0.865052	-0.603638
H147	H	0.492726	1.126198	-0.547961
H148	H	0.443655	1.465922	-0.504925
H149	H	0.339403	0.829878	-0.255346
N150	N	0.690920	0.722341	-0.061919
H151	H	0.659244	0.675806	-0.032516
H152	H	0.726355	0.722338	-0.119018
H153	H	1.086359	0.721649	-0.597997
N154	N	0.400860	1.392444	-0.611554
H155	H	0.368320	1.433479	-0.603751
H156	H	0.385337	1.329767	-0.556145
N157	N	1.139454	0.886254	-0.398209
H158	H	1.159671	0.836699	-0.297990
H159	H	1.094458	0.922756	-0.406079
N160	N	0.760582	0.403190	-0.373879
H161	H	0.709377	0.410468	-0.399896
H162	H	0.773778	0.346095	-0.272742
N163	N	0.429165	1.480360	-1.290536
H164	H	0.383855	1.481759	-1.253000
H165	H	0.424934	1.452788	-1.334033
N166	N	0.690978	0.722316	-0.236295
H167	H	0.659314	0.675774	-0.173744
H168	H	0.662079	0.786666	-0.306355
H169	H	0.953709	0.449277	-0.755305
N170	N	0.514430	1.278848	-0.611575
H171	H	0.462886	1.294980	-0.644077
H172	H	0.528113	1.208937	-0.536018
N173	N	0.962915	1.442755	-0.947794
H174	H	0.994587	1.489290	-0.977173
H175	H	0.991808	1.378402	-0.890753
N176	N	1.139426	0.886267	-0.223885
H177	H	1.190969	0.870150	-0.224549
H178	H	1.125732	0.956177	-0.286424
N179	N	0.969219	0.824017	0.112406
H180	H	0.968895	0.788924	0.214218
H181	H	0.937565	0.799447	0.085381
N182	N	1.253021	0.772707	0.000427
H183	H	1.253345	0.807789	-0.101382
H184	H	1.270284	0.704102	0.055912
N185	N	0.988346	1.607137	-1.222286
H186	H	0.971929	1.632100	-1.176870
H187	H	0.990801	1.660928	-1.323783
N188	N	0.861193	0.784572	0.151347
H189	H	0.863655	0.838407	0.049867
H190	H	0.909122	0.745099	0.196855
H191	H	1.210285	0.699229	0.252217
H192	H	0.912717	1.637355	-1.431357
H193	H	0.890058	0.741020	-0.629577
N194	N	0.213941	0.949816	-0.373797
H195	H	0.187637	0.976077	-0.336160
H196	H	0.218298	0.879611	-0.304505
N197	N	0.737982	0.506846	0.456551
H198	H	0.718936	0.525860	0.508508
H199	H	0.783324	0.461531	0.508393
H200	H	0.700608	0.468664	-0.255357
N201	N	0.051175	1.354480	-0.773461
H202	H	0.066042	1.417819	-0.836019
H203	H	0.022297	1.347908	-0.703402
H204	H	0.848759	0.770159	-0.547969
N205	N	0.965697	0.710855	-0.779001
H206	H	0.985908	0.683288	-0.818936
H207	H	1.004739	0.712139	-0.728979
H208	H	0.975884	0.592769	-0.799090
H209	H	0.422278	1.208805	-0.629587
H210	H	0.314470	1.335226	-0.754401
H211	H	0.465691	0.784653	-0.210683
H212	H	0.188189	1.380446	-0.799062
H213	H	0.827328	1.538472	-1.404688
N214	N	1.082825	0.710442	0.336734
H215	H	1.127810	0.673952	0.401009
H216	H	1.048199	0.666866	0.367418
H217	H	0.161150	1.038899	-0.461781
N218	N	0.602719	0.810602	-0.236307
H219	H	0.587856	0.747262	-0.173747
H220	H	0.631595	0.817184	-0.179241
H221	H	0.518052	1.289999	-0.821530
H222	H	0.826595	0.626687	0.394864
