data_functionalizedCrystal
_audit_creation_method	'MofGen! by Chris Wilmer'
_symmetry_space_group_name_H-M	'P1'
_symmetry_Int_Tables_number	1
_symmetry_cell_setting	triclinic
loop_
_symmetry_equiv_pos_as_xyz
  x,y,z
_cell_length_a	12.827893
_cell_length_b	10.686285
_cell_length_c	10.686551
_cell_angle_alpha	80.915481
_cell_angle_beta	94.395101
_cell_angle_gamma	94.368299
loop_
_atom_site_label
_atom_site_type_symbol
_atom_site_fract_x
_atom_site_fract_y
_atom_site_fract_z
Zn1	Zn	1.669493	0.450170	0.678983
Zn2	Zn	2.169493	0.950170	1.178983
Zn3	Zn	1.669409	0.678749	0.450481
Zn4	Zn	2.169409	1.178749	0.950481
Zn5	Zn	1.482282	0.466523	0.466747
Zn6	Zn	1.982282	0.966523	0.966747
Zn7	Zn	1.507191	0.662366	0.662686
Zn8	Zn	2.007191	1.162366	1.162686
O9	O	1.582094	0.564452	0.564724
O10	O	2.082094	1.064452	1.064724
O11	O	1.815720	0.480504	0.648684
O12	O	2.315720	0.980504	1.148684
O13	O	1.634126	0.664297	0.275008
O14	O	2.134126	1.164297	0.775008
O15	O	1.496727	0.286731	0.508529
O16	O	1.996727	0.786731	1.008529
O17	O	1.815658	0.648440	0.480804
O18	O	2.315658	1.148440	0.980804
O19	O	1.634270	0.274716	0.664457
O20	O	2.134270	0.774716	1.164457
O21	O	1.496645	0.508375	0.286959
O22	O	1.996645	1.008375	0.786959
O23	O	1.339348	0.492489	0.492727
O24	O	1.839348	0.992489	0.992727
O25	O	1.539180	0.620517	0.842478
O26	O	2.039180	1.120517	1.342478
O27	O	1.357649	0.636374	0.636682
O28	O	1.857649	1.136374	1.136682
O29	O	1.658423	0.464618	0.854451
O30	O	2.158423	0.964618	1.354451
O31	O	1.658279	0.854199	0.465002
O32	O	2.158279	1.354199	0.965002
O33	O	1.539098	0.842162	0.620909
O34	O	2.039098	1.342162	1.120909
C35	C	1.310581	0.564429	0.564702
C36	C	1.810581	1.064429	1.064702
C37	C	1.194430	0.564448	0.564720
C38	C	1.694430	1.064448	1.064720
C39	C	1.601413	0.894234	0.539450
C40	C	2.101413	1.394234	1.039450
C41	C	1.609776	1.035313	0.528680
C42	C	2.109776	1.535313	1.028680
C43	C	1.601590	0.538916	0.895810
C44	C	2.101590	1.038916	1.395810
C45	C	1.609898	0.528034	1.036899
C46	C	2.109898	1.028034	1.536899
C47	C	1.151729	0.635777	0.635826
C48	C	1.651729	1.135777	1.135826
C49	C	1.031681	0.635797	0.635846
C50	C	1.531681	1.135797	1.135846
C51	C	1.854667	0.564476	0.564747
C52	C	2.354667	1.064476	1.064747
C53	C	1.970821	0.564486	0.564757
C54	C	2.470821	1.064486	1.064757
C55	C	1.562729	0.233380	0.590125
C56	C	2.062729	0.733380	1.090125
C57	C	1.554478	0.092297	0.600950
C58	C	2.054478	0.592297	1.100950
C59	C	1.562728	0.589797	0.234934
C60	C	2.062728	1.089797	0.734934
C61	C	1.554602	0.600321	0.093873
C62	C	2.054602	1.100321	0.593873
H63	H	1.204045	0.696823	0.696692
H64	H	1.704045	1.196823	1.196692
H65	H	1.500907	0.670539	1.034712
H66	H	2.000907	1.170539	1.534712
H67	H	1.500738	1.033155	0.671065
H68	H	2.000738	1.533155	1.171065
C69	C	1.020456	0.481978	0.482512
C70	C	1.520456	0.981978	0.982512
H71	H	0.966700	0.437247	0.437909
H72	H	1.466700	0.937247	0.937909
H73	H	1.062674	0.423036	0.535428
H74	H	1.562674	0.923036	1.035428
H75	H	1.062609	0.534762	0.423439
H76	H	1.562609	1.034762	0.923439
H77	H	1.663604	0.457821	1.096066
H78	H	2.163604	0.957821	1.596066
H79	H	1.663511	1.094463	0.458552
H80	H	2.163511	1.594463	0.958552
H81	H	0.994924	0.696868	0.696719
H82	H	1.494924	1.196868	1.196719
H83	H	1.142114	0.503391	0.503865
H84	H	1.642114	1.003391	1.003865
