data_functionalizedCrystal
_audit_creation_method	'MofGen! by Chris Wilmer'
_symmetry_space_group_name_H-M	'P1'
_symmetry_Int_Tables_number	1
_symmetry_cell_setting	triclinic
loop_
_symmetry_equiv_pos_as_xyz
  x,y,z
_cell_length_a	27.780882
_cell_length_b	27.780850
_cell_length_c	27.780917
_cell_angle_alpha	120.002218
_cell_angle_beta	89.997971
_cell_angle_gamma	119.999668
loop_
_atom_site_label
_atom_site_type_symbol
_atom_site_fract_x
_atom_site_fract_y
_atom_site_fract_z
O1	O	0.410272	-0.344534	-0.014321
O2	O	0.340273	-0.245964	0.014251
O3	O	0.340272	-0.344531	-0.084318
O4	O	0.410273	-0.245967	0.084248
O5	O	0.260213	-0.424591	-0.084318
O6	O	0.260214	-0.326023	0.014251
O7	O	0.330212	-0.424593	-0.014321
Zn8	Zn	0.282502	-0.388019	-0.000035
Zn9	Zn	0.387984	-0.282538	-0.000035
O10	O	0.330213	-0.326026	0.084248
C11	C	0.207596	-0.090568	0.029862
C12	C	0.237299	-0.031162	0.025772
C13	C	0.149664	-0.119397	0.030267
C14	C	0.207598	-0.177731	0.029867
C15	C	0.237303	-0.211520	0.025783
C16	C	0.149666	-0.206428	0.030273
C17	C	0.120430	-0.177734	0.029862
C18	C	0.056934	-0.211527	0.025772
C19	C	0.236700	-0.119394	0.030273
C20	C	0.005636	-0.238829	0.022466
C21	C	0.261295	0.016831	0.022467
C22	C	0.261301	-0.238819	0.022483
C23	C	-0.058719	-0.273080	0.018321
C24	C	0.291401	0.077041	0.018322
C25	C	0.291408	-0.273067	0.018343
O26	O	-0.249045	-0.424605	-0.014339
O27	O	-0.080481	-0.326036	0.014229
O28	O	-0.179040	-0.424607	-0.084338
O29	O	-0.150486	-0.326034	0.084228
O30	O	-0.179042	-0.344550	-0.084343
O31	O	-0.080483	-0.245980	0.014225
O32	O	-0.249047	-0.344549	-0.014344
Zn33	Zn	-0.164765	-0.282554	-0.000061
Zn34	Zn	-0.164763	-0.388031	-0.000054
O35	O	-0.150488	-0.245978	0.084223
C36	C	0.120439	-0.579992	-0.372395
C37	C	0.056945	-0.639399	-0.402099
C38	C	0.149675	-0.551164	-0.401497
C39	C	0.207604	-0.492828	-0.285229
C40	C	0.237307	-0.459037	-0.221734
C41	C	0.236708	-0.464131	-0.314463
C42	C	0.207606	-0.492826	-0.372394
C43	C	0.237310	-0.459034	-0.402097
C44	C	0.149674	-0.551165	-0.314464
C45	C	0.261308	-0.431732	-0.426093
C46	C	0.005647	-0.687393	-0.426096
C47	C	0.261303	-0.431737	-0.170436
C48	C	0.291414	-0.397482	-0.456198
C49	C	-0.058708	-0.747604	-0.456202
C50	C	0.291408	-0.397488	-0.106080
C51	C	0.550046	-0.492843	-0.029964
C52	C	0.613540	-0.459052	-0.025878
C53	C	0.520810	-0.551182	-0.030373
C54	C	0.462881	-0.492840	-0.029960
C55	C	0.433178	-0.459046	-0.025869
C56	C	0.433778	-0.551179	-0.030368
C57	C	0.462880	-0.580009	-0.029964
C58	C	0.433176	-0.639417	-0.025878
C59	C	0.520811	-0.464145	-0.030369
C60	C	0.409179	-0.687412	-0.022575
C61	C	0.664837	-0.431753	-0.022576
C62	C	0.409181	-0.431744	-0.022562
C63	C	0.379074	-0.747624	-0.018433
C64	C	0.729192	-0.397504	-0.018434
C65	C	0.379076	-0.397492	-0.018415
O66	O	0.410263	0.234713	0.084230
O67	O	0.340272	0.094704	-0.084337
O68	O	0.340266	0.094710	0.014231
O69	O	0.410269	0.234707	-0.014337
O70	O	0.260205	0.094709	0.014226
O71	O	0.260211	0.094702	-0.084342
O72	O	0.330203	0.234712	0.084225
Zn73	Zn	0.282496	0.164707	-0.000059
Zn74	Zn	0.387979	0.164709	-0.000053
O75	O	0.330209	0.234706	-0.014343
O76	O	0.330221	-0.424584	-0.575066
O77	O	0.260222	-0.326015	-0.505057
O78	O	0.260220	-0.424583	-0.505063
O79	O	0.330223	-0.326016	-0.575060
O80	O	0.340278	-0.344525	-0.425002
O81	O	0.340280	-0.245957	-0.424996
O82	O	0.410279	-0.344526	-0.495005
Zn83	Zn	0.387991	-0.282530	-0.447290
Zn84	Zn	0.282510	-0.388011	-0.552772
O85	O	0.410281	-0.245958	-0.494999
C86	C	0.550054	-0.090557	0.372323
C87	C	0.613549	-0.031151	0.402025
C88	C	0.520818	-0.119386	0.314392
C89	C	0.462890	-0.177722	0.372326
C90	C	0.433187	-0.211512	0.402031
C91	C	0.433786	-0.206418	0.314395
C92	C	0.462888	-0.177724	0.285158
C93	C	0.433183	-0.211516	0.221663
C94	C	0.520820	-0.119384	0.401427
C95	C	0.409185	-0.238818	0.170366
C96	C	0.664847	0.016843	0.426020
C97	C	0.409191	-0.238811	0.426029
C98	C	0.379078	-0.273069	0.106010
C99	C	0.729201	0.077054	0.456124
C100	C	0.379087	-0.273060	0.456136
C101	C	-0.194658	-0.492860	-0.285252
C102	C	-0.190574	-0.459065	-0.221757
C103	C	-0.195065	-0.464168	-0.314491
C104	C	-0.194651	-0.580029	-0.372415
C105	C	-0.190560	-0.639435	-0.402115
C106	C	-0.195058	-0.551205	-0.401522
C107	C	-0.194654	-0.492867	-0.372422
C108	C	-0.190566	-0.459080	-0.402129
C109	C	-0.195062	-0.551198	-0.314484
C110	C	-0.187262	-0.431782	-0.426129
C111	C	-0.187273	-0.431761	-0.170459
C112	C	-0.187254	-0.687429	-0.426110
C113	C	-0.183118	-0.397537	-0.456238
C114	C	-0.183133	-0.397508	-0.106103
C115	C	-0.183107	-0.747640	-0.456212
O116	O	-0.249033	-0.905273	-0.575064
O117	O	-0.080470	-0.765273	-0.505067
O118	O	-0.179032	-0.765270	-0.505061
O119	O	-0.150471	-0.905277	-0.575070
O120	O	-0.179032	-0.765269	-0.425001
O121	O	-0.080469	-0.765273	-0.425007
O122	O	-0.249033	-0.905272	-0.495004
Zn123	Zn	-0.164751	-0.835272	-0.447294
Zn124	Zn	-0.164752	-0.835273	-0.552777
O125	O	-0.150470	-0.905276	-0.495010
C126	C	-0.134876	-0.090564	0.372302
C127	C	-0.138967	-0.031157	0.402004
C128	C	-0.134470	-0.119390	0.401407
C129	C	-0.134870	-0.177731	0.285137
C130	C	-0.138954	-0.211524	0.221642
C131	C	-0.134464	-0.206425	0.314374
C132	C	-0.134874	-0.177728	0.372305
C133	C	-0.138963	-0.211517	0.402010
C134	C	-0.134466	-0.119393	0.314371
C135	C	-0.142267	-0.238816	0.426009
C136	C	-0.142273	0.016837	0.426000
C137	C	-0.142255	-0.238827	0.170344
C138	C	-0.146411	-0.273064	0.456116
C139	C	-0.146420	0.077047	0.456104
C140	C	-0.146395	-0.273078	0.105988
C141	C	0.207605	-0.177781	-0.372406
C142	C	0.237310	-0.211575	-0.402105
C143	C	0.149674	-0.206482	-0.401511
C144	C	0.207603	-0.090605	-0.285245
C145	C	0.237306	-0.031190	-0.221752
C146	C	0.149672	-0.119438	-0.314482
C147	C	0.120438	-0.177783	-0.372411
C148	C	0.056943	-0.211579	-0.402116
C149	C	0.236707	-0.119436	-0.314477
C150	C	0.005645	-0.238883	-0.426114
C151	C	0.261308	-0.238878	-0.426098
C152	C	0.261302	0.016811	-0.170455
C153	C	-0.058710	-0.273137	-0.456222
C154	C	0.291415	-0.273130	-0.456199
C155	C	0.291407	0.077031	-0.106101
O156	O	-0.150439	-0.326076	-0.575104
O157	O	-0.179021	-0.424641	-0.505102
O158	O	-0.080450	-0.326076	-0.505094
O159	O	-0.249010	-0.424640	-0.575112
O160	O	-0.080457	-0.246015	-0.425038
O161	O	-0.179028	-0.344580	-0.425046
O162	O	-0.150446	-0.246014	-0.495048
Zn163	Zn	-0.164738	-0.282585	-0.447336
Zn164	Zn	-0.164729	-0.388070	-0.552814
O165	O	-0.249017	-0.344579	-0.495056
C166	C	0.550036	0.507199	0.372299
C167	C	0.613531	0.540994	0.402005
C168	C	0.520800	0.535897	0.401399
C169	C	0.462871	0.420021	0.285133
C170	C	0.433169	0.360606	0.221640
C171	C	0.433768	0.448852	0.314365
C172	C	0.462870	0.507198	0.372294
C173	C	0.433165	0.540992	0.401993
C174	C	0.520802	0.448853	0.314370
C175	C	0.409167	0.568295	0.425986
C176	C	0.664829	0.568297	0.426003
C177	C	0.409172	0.312605	0.170343
C178	C	0.379061	0.602547	0.456087
C179	C	0.729184	0.602551	0.456110
C180	C	0.379067	0.252385	0.105989
H181	H	0.126195	-0.095266	0.030925
H182	H	0.284300	-0.095262	0.030932
H183	H	0.126193	-0.575283	-0.290989
H184	H	-0.195735	-0.417234	-0.291024
H185	H	0.544286	-0.417198	-0.031019
C186	C	0.514576	-0.124466	0.225578
C187	C	0.552498	-0.086820	0.282703
H188	H	0.534132	-0.104359	0.206017
H189	H	0.503545	-0.169866	0.204376
H190	H	0.480334	-0.124694	0.227602
H191	H	0.586738	-0.086595	0.280679
H192	H	0.563537	-0.041408	0.303910
C193	C	0.609634	-0.029420	0.485166
C194	C	0.552503	-0.086814	0.465683
H195	H	0.629190	-0.009313	0.524834
H196	H	0.630833	-0.042596	0.460968
H197	H	0.607624	0.002578	0.482917
H198	H	0.554514	-0.118814	0.467929
H199	H	0.531300	-0.073639	0.489888
C200	C	0.350047	-0.289006	0.320621
C201	C	0.369530	-0.269787	0.282710
H202	H	0.310378	-0.328123	0.301060
H203	H	0.374242	-0.299185	0.331641
H204	H	0.352299	-0.252747	0.354870
H205	H	0.367282	-0.306044	0.248462
H206	H	0.345328	-0.259611	0.271681
H207	H	-0.195707	-0.575335	-0.449119
C208	C	0.320431	-0.381510	-0.225634
C209	C	0.300953	-0.400740	-0.282770
H210	H	0.360090	-0.342373	-0.206068
H211	H	0.296216	-0.371361	-0.204447
H212	H	0.318207	-0.417753	-0.227638
H213	H	0.303174	-0.364499	-0.280765
H214	H	0.325175	-0.410886	-0.303961
H215	H	-0.195726	-0.575325	-0.291010
C216	C	0.568733	-0.603176	-0.081951
C217	C	0.552480	-0.583774	-0.031277
H218	H	0.588282	-0.623298	-0.082510
H219	H	0.534487	-0.635157	-0.115949
H220	H	0.594460	-0.564226	-0.081753
H221	H	0.526749	-0.622724	-0.031476
H222	H	0.586731	-0.551790	0.002730
C223	C	0.521228	0.349357	0.266443
C224	C	0.552487	0.416279	0.282688
H225	H	0.540787	0.329249	0.246882
H226	H	0.519229	0.349613	0.300694
H227	H	0.482469	0.323823	0.240728
H228	H	0.591245	0.441815	0.308407
H229	H	0.554493	0.416027	0.248432
H230	H	-0.133806	-0.253368	0.290901
C231	C	0.350032	-0.546116	-0.031534
C232	C	0.369518	-0.583761	-0.031267
H233	H	0.310360	-0.566237	-0.032097
H234	H	0.374220	-0.500722	0.002845
H235	H	0.352294	-0.545868	-0.065537
H236	H	0.367260	-0.584005	0.002738
H237	H	0.345324	-0.629167	-0.065649
H238	H	-0.133816	-0.095258	0.449006
H239	H	-0.133857	-0.095297	0.290885
H240	H	0.126207	-0.253426	-0.449110
C241	C	0.155896	-0.029459	-0.225677
C242	C	0.117986	-0.086862	-0.282806
H243	H	0.136335	-0.009347	-0.206127
H244	H	0.166916	-0.042626	-0.204470
H245	H	0.190144	0.002532	-0.227693
H246	H	0.083740	-0.118855	-0.280791
H247	H	0.106957	-0.073697	-0.304019
C248	C	0.320449	-0.124508	-0.320695
C249	C	0.300963	-0.086857	-0.282788
H250	H	0.360118	-0.104390	-0.301132
H251	H	0.296255	-0.169901	-0.331711
H252	H	0.318197	-0.124756	-0.354946
H253	H	0.303211	-0.086613	-0.248538
H254	H	0.325164	-0.041451	-0.271763
C255	C	0.350031	0.358883	0.225549
C256	C	0.369513	0.416282	0.282679
H257	H	0.310364	0.338777	0.205992
H258	H	0.374229	0.372052	0.204349
H259	H	0.352278	0.326887	0.227564
H260	H	0.367270	0.448281	0.280664
H261	H	0.345308	0.403115	0.303884
C262	C	0.602941	0.652718	0.468922
C263	C	0.552478	0.599292	0.465645
H264	H	0.622492	0.691858	0.508581
H265	H	0.628664	0.639686	0.455720
H266	H	0.591888	0.662849	0.444695
H267	H	0.563532	0.589158	0.489869
H268	H	0.526750	0.612326	0.478854
C269	C	0.155889	-0.289019	0.031421
C270	C	0.117978	-0.269799	0.031157
H271	H	0.136326	-0.328138	0.031970
H272	H	0.166915	-0.299194	-0.002950
H273	H	0.190134	-0.252761	0.065431
H274	H	0.083735	-0.306055	-0.002855
H275	H	0.106944	-0.259627	0.065533
C276	C	0.060861	-0.641122	-0.485236
C277	C	0.117993	-0.583729	-0.465752
H278	H	0.041303	-0.661221	-0.524901
H279	H	0.062867	-0.673121	-0.482994
H280	H	0.039663	-0.627943	-0.461031
H281	H	0.139192	-0.596909	-0.489955
H282	H	0.115989	-0.551724	-0.467999
