data_functionalizedCrystal
_audit_creation_method	'MofGen! by Chris Wilmer'
_symmetry_space_group_name_H-M	'P1'
_symmetry_Int_Tables_number	1
_symmetry_cell_setting	triclinic
loop_
_symmetry_equiv_pos_as_xyz
  x,y,z
_cell_length_a	10.540539
_cell_length_b	8.559649
_cell_length_c	7.681481
_cell_angle_alpha	85.086760
_cell_angle_beta	84.202085
_cell_angle_gamma	102.847922
loop_
_atom_site_label
_atom_site_type_symbol
_atom_site_fract_x
_atom_site_fract_y
_atom_site_fract_z
O1	O	-0.029542	-2.104686	-0.146402
O2	O	0.035941	-1.640228	-0.146408
O3	O	-0.182616	-1.883054	-0.146403
O4	O	0.189016	-1.861861	-0.146407
O5	O	-0.209571	-1.912941	0.146456
O6	O	0.008986	-1.670116	0.146450
O7	O	-0.056497	-2.134573	0.146457
Zn8	Zn	-0.028035	-1.907089	0.192951
Zn9	Zn	0.007479	-1.867712	-0.192902
O10	O	0.162061	-1.891748	0.146451
C11	C	-0.243230	-1.896408	0.000023
C12	C	-0.383679	-1.891652	0.000014
C13	C	0.027426	-1.595699	0.000020
C14	C	0.042198	-1.418487	0.000017
C15	C	-0.047981	-2.179102	0.000025
C16	C	-0.062752	-2.356313	0.000016
C17	C	-0.547970	-1.709382	-0.000646
C18	C	-0.401917	-1.714270	0.000013
C19	C	-0.469667	-1.994083	0.167252
C20	C	-0.615591	-1.988043	0.167393
C21	C	-0.585834	-1.957664	-0.165642
C22	C	-0.438819	-1.959072	-0.167853
C23	C	0.222675	-1.878393	0.000021
C24	C	0.363125	-1.883148	0.000019
N25	N	-0.052274	-1.933975	0.456286
N26	N	0.031708	-1.840839	-0.456237
H27	H	-0.341248	-1.634867	-0.119869
H28	H	0.117429	-1.745765	0.468564
C29	C	-0.199409	-1.467554	0.000026
N30	N	-0.302341	-1.551351	0.000037
C31	C	-0.168084	-2.062433	0.557884
N32	N	-0.255312	-2.159183	0.634410
H33	H	-0.461523	-2.124982	0.173472
C34	C	0.178861	-1.307239	0.000014
N35	N	0.281794	-1.223446	0.000015
H36	H	-0.558196	-1.627073	-0.120575
H37	H	-0.364132	-1.658885	0.120094
C38	C	-0.593702	-1.631568	0.160499
N39	N	-0.628139	-1.572971	0.281890
H40	H	-0.432314	-1.947485	0.291703
H41	H	-0.677614	-2.116388	0.174981
C42	C	-0.660307	-1.920030	0.336267
N43	N	-0.693979	-1.868795	0.463464
H44	H	-0.599710	-1.887318	-0.292398
H45	H	-0.427208	-2.087366	-0.177950
C46	C	-0.359339	-1.857715	-0.334998
N47	N	-0.299476	-1.781357	-0.460888
C48	C	-0.667622	-2.130591	-0.167168
N49	N	-0.729233	-2.260834	-0.168305
