data_functionalizedCrystal
_audit_creation_method	'MofGen! by Chris Wilmer'
_symmetry_space_group_name_H-M	'P1'
_symmetry_Int_Tables_number	1
_symmetry_cell_setting	triclinic
loop_
_symmetry_equiv_pos_as_xyz
  x,y,z
_cell_length_a	11.026660
_cell_length_b	19.288865
_cell_length_c	18.366186
_cell_angle_alpha	90.011479
_cell_angle_beta	89.991825
_cell_angle_gamma	84.139459
loop_
_atom_site_label
_atom_site_type_symbol
_atom_site_fract_x
_atom_site_fract_y
_atom_site_fract_z
O1	O	1.608573	-0.290652	-0.060586
O2	O	1.255450	-0.257557	-0.060582
O3	O	1.442215	-0.174268	-0.060569
O4	O	1.421808	-0.373941	-0.060598
O5	O	1.442183	-0.174259	0.060530
O6	O	1.255418	-0.257547	0.060517
O7	O	1.608541	-0.290643	0.060514
Zn8	Zn	1.431975	-0.274094	0.079743
Zn9	Zn	1.432016	-0.274106	-0.079811
O10	O	1.421776	-0.373931	0.060501
C11	C	1.441542	-0.148304	-0.000018
C12	C	1.439571	-0.070950	-0.000011
C13	C	1.210257	-0.251446	-0.000032
C14	C	1.075643	-0.233245	-0.000030
C15	C	1.653734	-0.296753	-0.000038
C16	C	1.788348	-0.314954	-0.000045
C17	C	2.001560	-0.283502	-0.000038
C18	C	1.862430	-0.264689	-0.000037
C19	C	1.422448	-0.399896	-0.000052
C20	C	1.424420	-0.477249	-0.000063
N21	N	1.431955	-0.274086	0.188634
C22	C	1.549156	-0.040152	-0.000009
C23	C	1.547305	0.032530	-0.000020
C24	C	1.435861	0.074411	-0.000020
C25	C	1.326262	0.043605	-0.000026
C26	C	1.328117	-0.029076	-0.000022
C27	C	1.348243	0.193813	0.042400
C28	C	1.346392	0.266492	0.042400
C29	C	1.430135	0.298583	-0.000036
C30	C	1.515750	0.257985	-0.042463
C31	C	1.517605	0.185305	-0.042458
C32	C	1.433838	0.153222	-0.000025
C33	C	1.537720	0.408191	-0.000047
C34	C	1.535864	0.480875	-0.000063
C35	C	1.314818	0.491948	-0.000061
C36	C	1.316677	0.419266	-0.000053
C37	C	1.428132	0.377392	-0.000042
N38	N	1.432045	-0.274109	-0.188702
C39	C	1.514681	-0.237232	0.226740
C40	C	1.514689	-0.237230	0.302968
C41	C	1.431982	-0.274095	0.341087
C42	C	1.349240	-0.310950	0.302971
C43	C	1.349226	-0.310946	0.226745
C44	C	1.415748	-0.335324	0.461838
C45	C	1.415770	-0.335331	0.538063
C46	C	1.432016	-0.274108	0.576194
C47	C	1.448266	-0.212880	0.538091
C48	C	1.448253	-0.212875	0.461865
C49	C	1.431987	-0.274104	0.423741
C50	C	1.514756	-0.237249	0.696955
C51	C	1.514755	-0.237245	0.773184
C52	C	1.349311	-0.310972	0.773187
C53	C	1.349306	-0.310969	0.696959
C54	C	1.432035	-0.274109	0.658848
H55	H	2.041136	-0.340457	-0.000041
Cl56	Cl	1.174716	0.544592	-0.000065
Cl57	Cl	1.801343	-0.176749	-0.000020
H58	H	1.402498	-0.385180	0.430798
H59	H	1.235524	0.077709	-0.000027
Cl60	Cl	1.395351	-0.412304	0.585956
H61	H	2.036066	-0.176291	-0.000041
H62	H	1.587312	0.152253	-0.077005
H63	H	1.639911	-0.074242	-0.000002
Cl64	Cl	1.242958	0.153477	0.095755
H65	H	1.827917	-0.371913	-0.000048
H66	H	1.281859	-0.340957	0.195719
Cl67	Cl	1.618750	-0.190907	0.649043
H68	H	1.583941	0.284112	-0.077018
H69	H	1.461481	-0.163020	0.430844
Cl70	Cl	1.685080	0.071257	-0.000018
Cl71	Cl	1.677832	0.355546	-0.000029
Cl72	Cl	1.245309	-0.357306	0.649050
Cl73	Cl	1.673642	0.519593	-0.000065
Cl74	Cl	1.245259	-0.357292	0.350891
H75	H	1.227441	0.394190	-0.000051
H76	H	1.461495	-0.163026	0.569136
H77	H	1.276675	0.299541	0.076942
H78	H	1.238876	-0.054151	-0.000024
Cl79	Cl	1.618674	-0.190891	0.178829
Cl80	Cl	1.618699	-0.190896	0.350880
H81	H	1.582117	-0.207230	0.804211
H82	H	1.281965	-0.340984	0.804222
