data_functionalizedCrystal
_audit_creation_method	'MofGen! by Chris Wilmer'
_symmetry_space_group_name_H-M	'P1'
_symmetry_Int_Tables_number	1
_symmetry_cell_setting	triclinic
loop_
_symmetry_equiv_pos_as_xyz
  x,y,z
_cell_length_a	6.817900
_cell_length_b	11.102288
_cell_length_c	12.908943
_cell_angle_alpha	94.412453
_cell_angle_beta	100.860631
_cell_angle_gamma	108.605689
loop_
_atom_site_label
_atom_site_type_symbol
_atom_site_fract_x
_atom_site_fract_y
_atom_site_fract_z
V1	V	-4.022089	-0.174253	-0.328682
O2	O	-3.982824	0.010006	-0.322425
O3	O	-3.999478	-0.347084	-0.326434
O4	O	-3.959861	-0.170856	-0.472032
O5	O	-4.022714	-0.167442	-0.175820
V6	V	-4.504167	-0.152298	-0.310398
O7	O	-4.286517	-0.222412	-0.368789
O8	O	-4.689936	-0.104138	-0.270292
O9	O	-4.303571	0.020533	-0.312646
O10	O	-4.660829	-0.336557	-0.316655
O11	O	-4.620938	-0.159109	-0.463261
O12	O	-4.343188	-0.155695	-0.167049
C13	C	-3.851199	-0.389239	-0.321249
C14	C	-3.913907	-0.530526	-0.320367
C15	C	-3.800664	-0.164441	-0.506972
C16	C	-3.831240	-0.162808	-0.624161
C17	C	-4.125943	-0.603351	-0.325212
C18	C	-4.184854	-0.736106	-0.324391
C19	C	-3.819670	-0.723199	-0.313876
C20	C	-3.760764	-0.590447	-0.314704
C21	C	-4.253829	-0.172350	-0.855107
C22	C	-4.282568	-0.170816	-0.965217
C23	C	-3.917455	-0.158196	-0.954491
C24	C	-3.888716	-0.159730	-0.844381
C25	C	-4.056912	-0.166809	-0.794694
C26	C	-4.028175	-0.168353	-0.684583
C27	C	-3.663060	-0.155723	-0.673858
C28	C	-3.691799	-0.154189	-0.783968
C29	C	-4.115193	0.062681	-0.317828
C30	C	-4.031723	0.203967	-0.318718
C31	C	-4.165728	-0.162114	-0.132103
C32	C	-4.114390	-0.163741	-0.014913
H33	H	-4.250645	-0.554567	-0.329821
H34	H	-4.357511	-0.795395	-0.328338
O35	O	-4.191594	-0.175453	-0.636294
C36	C	-4.424274	-0.295010	-0.532460
C37	C	-4.239220	-0.287147	-0.587117
H38	H	-4.462807	-0.385294	-0.492668
H39	H	-4.570058	-0.298788	-0.594524
H40	H	-4.376849	-0.206702	-0.469658
H41	H	-4.286442	-0.375433	-0.649913
H42	H	-4.093485	-0.283306	-0.524992
H43	H	-3.502715	-0.151217	-0.624658
H44	H	-3.554864	-0.148421	-0.824438
O45	O	-3.670928	-0.781433	-0.308178
C46	C	-3.493371	-0.907081	-0.209414
C47	C	-3.661851	-0.841167	-0.215728
H48	H	-3.486009	-0.955415	-0.134686
H49	H	-3.331621	-0.832268	-0.206024
H50	H	-3.537863	-0.982439	-0.282913
H51	H	-3.617559	-0.765817	-0.142247
H52	H	-3.823556	-0.916055	-0.219170
O53	O	-3.554869	-0.519673	-0.310183
C54	C	-3.308673	-0.379032	-0.396731
C55	C	-3.541910	-0.459155	-0.401995
H56	H	-3.298125	-0.330060	-0.470941
H57	H	-3.209246	-0.444608	-0.392598
H58	H	-3.245990	-0.303035	-0.322706
H59	H	-3.604785	-0.535159	-0.476014
H60	H	-3.641191	-0.393497	-0.406071
O61	O	-4.473838	-0.176370	-1.024041
C62	C	-4.771537	-0.292557	-1.168852
C63	C	-4.554917	-0.286407	-1.102334
H64	H	-4.837175	-0.381528	-1.232153
H65	H	-4.751141	-0.202917	-1.209194
H66	H	-4.886740	-0.297816	-1.114395
H67	H	-4.439602	-0.281190	-1.156718
H68	H	-4.575482	-0.376045	-1.061981
H69	H	-4.390788	-0.178128	-0.814653
H70	H	-3.780523	-0.152424	-0.994965
