data_functionalizedCrystal
_audit_creation_method	'MofGen! by Chris Wilmer'
_symmetry_space_group_name_H-M	'P1'
_symmetry_Int_Tables_number	1
_symmetry_cell_setting	triclinic
loop_
_symmetry_equiv_pos_as_xyz
  x,y,z
_cell_length_a	12.759401
_cell_length_b	17.640280
_cell_length_c	17.640968
_cell_angle_alpha	65.682561
_cell_angle_beta	78.777321
_cell_angle_gamma	78.802151
loop_
_atom_site_label
_atom_site_type_symbol
_atom_site_fract_x
_atom_site_fract_y
_atom_site_fract_z
Zn1	Zn	1.776495	-0.233819	-0.399695
Zn2	Zn	1.776409	-0.399488	-0.234056
Zn3	Zn	1.571268	-0.261710	-0.261897
Zn4	Zn	1.630328	-0.371588	-0.371836
O5	O	1.688625	-0.316651	-0.316871
O6	O	1.923508	-0.255800	-0.377731
O7	O	1.724444	-0.404560	-0.122419
O8	O	1.573810	-0.142693	-0.303486
O9	O	1.923445	-0.377516	-0.256037
O10	O	1.724590	-0.122202	-0.404726
O11	O	1.573727	-0.303336	-0.142873
O12	O	1.432078	-0.276282	-0.276472
O13	O	1.674471	-0.329964	-0.490862
O14	O	1.475469	-0.357008	-0.357244
O15	O	1.781859	-0.228746	-0.511330
O16	O	1.781712	-0.511104	-0.229023
O17	O	1.674387	-0.490606	-0.330249
C18	C	1.415652	-0.316645	-0.316857
C19	C	1.298881	-0.316658	-0.316866
C20	C	1.266640	-0.358789	-0.358825
C21	C	1.156921	-0.358789	-0.358841
C22	C	1.111690	-0.274525	-0.274932
C23	C	1.221409	-0.274521	-0.274922
C24	C	1.734482	-0.530752	-0.273610
C25	C	1.754201	-0.622339	-0.255130
C26	C	1.539312	-0.870396	-0.457560
C27	C	1.557838	-0.956462	-0.440169
C28	C	1.669703	-0.977720	-0.334869
C29	C	1.651190	-0.891654	-0.352254
C30	C	1.585993	-0.837998	-0.413600
C31	C	1.697871	-0.859256	-0.308294
C32	C	1.679355	-0.773198	-0.325674
C33	C	1.614159	-0.719538	-0.387015
C34	C	1.567477	-0.751940	-0.430980
C35	C	1.763061	-0.912913	-0.246944
C36	C	1.809742	-0.880515	-0.202984
C37	C	1.791233	-0.794455	-0.220368
C38	C	1.726036	-0.740795	-0.281709
C39	C	1.837914	-0.762052	-0.176403
C40	C	1.819398	-0.675994	-0.193784
C41	C	1.707521	-0.654737	-0.299090
C42	C	1.962664	-0.316659	-0.316886
C43	C	2.079443	-0.316662	-0.316892
C44	C	1.734762	-0.273131	-0.531836
C45	C	1.754423	-0.254586	-0.623441
C46	C	1.642622	-0.101711	-0.360319
C47	C	1.623018	-0.010117	-0.378834
C48	C	1.539570	-0.457092	-0.871435
C49	C	1.558064	-0.439655	-0.957514
C50	C	1.669879	-0.334266	-0.978815
C51	C	1.651389	-0.351691	-0.892736
C52	C	1.586235	-0.413106	-0.839053
C53	C	1.698054	-0.307705	-0.860354
C54	C	1.679571	-0.325132	-0.774283
C55	C	1.614422	-0.386546	-0.720593
C56	C	1.567752	-0.430533	-0.752981
C57	C	1.763215	-0.246295	-0.914039
C58	C	1.809880	-0.202309	-0.881657
C59	C	1.791390	-0.219731	-0.795584
C60	C	1.726242	-0.281145	-0.741895
C61	C	1.838061	-0.175744	-0.763197
C62	C	1.819578	-0.193171	-0.677125
C63	C	1.707758	-0.298572	-0.655823
C64	C	1.642715	-0.359943	-0.102754
C65	C	1.623208	-0.378256	-0.011196
H66	H	1.247657	-0.240207	-0.240755
H67	H	1.519835	-0.982833	-0.475982
H68	H	1.891118	-0.125746	-0.806917
F69	F	1.638141	-0.597626	-0.364389
H70	H	1.857575	-0.157352	-0.650760
F71	F	1.739089	-1.034831	-0.269584
F72	F	1.782800	-1.004500	-0.228470
H73	H	1.599379	-0.400737	-0.650508
H74	H	1.486231	-0.826706	-0.507520
H75	H	1.514396	-0.708250	-0.480941
H76	H	1.130677	-0.393095	-0.393009
F77	F	1.349090	-0.403632	-0.403468
H78	H	1.722930	-0.284265	-1.022535
F79	F	1.029231	-0.229684	-0.230293
F80	F	1.879129	-0.937627	-0.137698
H81	H	1.599076	-0.649465	-0.401160
F82	F	1.907291	-0.819167	-0.111112
F83	F	1.869072	-0.641513	-0.146990
F84	F	1.638404	-0.363930	-0.598685
F85	F	1.508389	-0.486475	-0.991973
F86	F	1.782889	-0.227751	-1.005644
F87	F	1.498397	-0.495891	-0.695843
H88	H	1.486485	-0.507082	-0.827726
H89	H	1.862932	-0.152307	-0.925377
