data_functionalizedCrystal
_audit_creation_method	'MofGen! by Chris Wilmer'
_symmetry_space_group_name_H-M	'P1'
_symmetry_Int_Tables_number	1
_symmetry_cell_setting	triclinic
loop_
_symmetry_equiv_pos_as_xyz
  x,y,z
_cell_length_a	12.837943
_cell_length_b	19.188930
_cell_length_c	11.295483
_cell_angle_alpha	94.076039
_cell_angle_beta	85.461227
_cell_angle_gamma	88.986861
loop_
_atom_site_label
_atom_site_type_symbol
_atom_site_fract_x
_atom_site_fract_y
_atom_site_fract_z
O1	O	1.381633	0.177215	-0.099031
O2	O	1.079869	0.168252	-0.099037
O3	O	1.239458	0.071676	-0.099010
O4	O	1.222044	0.273791	-0.099057
O5	O	1.225441	0.080144	0.099038
O6	O	1.065852	0.176720	0.099012
O7	O	1.367616	0.185683	0.099017
Cu8	Cu	1.215454	0.181975	0.117098
Cu9	Cu	1.232031	0.171960	-0.117117
O10	O	1.208027	0.282259	0.098991
C11	C	1.034253	0.169458	-0.000013
C12	C	0.919217	0.160427	-0.000014
C13	C	0.677767	0.268994	-0.000022
C14	C	0.569680	0.260512	-0.000022
C15	C	0.594953	0.134982	-0.000006
C16	C	0.703040	0.143464	-0.000006
C17	C	0.744443	0.210472	-0.000016
C18	C	0.852533	0.218953	-0.000024
C19	C	0.877803	0.093423	0.000001
C20	C	0.769716	0.084941	0.000001
C21	C	1.231885	0.049861	0.000017
C22	C	1.230191	-0.027760	0.000027
C23	C	1.323833	-0.066260	0.000035
C24	C	1.322244	-0.139194	0.000016
C25	C	1.227005	-0.173623	0.000013
C26	C	1.133352	-0.135114	-0.000001
C27	C	1.134944	-0.062182	0.000006
N28	N	1.149437	-0.283739	0.067411
N29	N	1.147930	-0.353022	0.067407
C30	C	1.222201	-0.393362	-0.000011
N31	N	1.298051	-0.361803	-0.067410
N32	N	1.299560	-0.292515	-0.067400
C33	C	1.225268	-0.252705	0.000005
C34	C	1.314126	-0.510946	-0.000026
C35	C	1.312534	-0.583882	-0.000052
C36	C	1.123638	-0.579799	-0.000057
C37	C	1.125234	-0.506866	-0.000043
C38	C	1.220481	-0.472444	-0.000021
C39	C	1.413232	0.184477	-0.000009
C40	C	1.528268	0.193508	-0.000016
C41	C	1.215600	0.304074	-0.000039
C42	C	1.217295	0.381694	-0.000057
N43	N	1.203803	0.189018	0.281832
N44	N	1.243691	0.164912	-0.281852
C45	C	1.327566	0.114169	0.531142
C46	C	1.318768	0.119497	0.655804
C47	C	1.177405	0.204999	0.655821
C48	C	1.186202	0.199671	0.531159
C49	C	1.261286	0.154255	0.468824
C50	C	1.270089	0.148931	0.344159
C51	C	1.128721	0.234429	0.344179
C52	C	1.119923	0.239757	0.468841
H53	H	0.711478	0.323555	-0.000032
C54	C	1.417644	-0.473700	-0.000088
C55	C	1.499319	-0.523034	-0.000134
C56	C	1.594695	-0.488752	-0.000212
H57	H	1.417461	-0.442390	0.068959
H58	H	1.427130	-0.448296	-0.069177
H59	H	1.489836	-0.548426	0.068948
H60	H	1.499536	-0.554346	-0.069176
H61	H	1.604181	-0.463348	-0.069302
H62	H	1.594501	-0.457443	0.068836
H63	H	1.650123	-0.522220	-0.000255
H64	H	1.388792	-0.615228	-0.000053
H65	H	1.046093	-0.607831	-0.000065
H66	H	0.886241	0.273515	-0.000030
H67	H	1.398501	-0.170548	0.000017
H68	H	1.401391	-0.038239	0.000048
H69	H	1.074755	0.267072	0.293425
C70	C	0.550138	0.062188	-0.000177
C71	C	0.591271	0.022022	-0.102049
C72	C	0.550021	-0.045042	-0.102240
H73	H	0.476225	0.065422	-0.000235
H74	H	0.568188	0.040700	0.068854
H75	H	0.573214	0.043504	-0.171062
H76	H	0.665181	0.018767	-0.102013
H77	H	0.568070	-0.066529	-0.033209
H78	H	0.476108	-0.041800	-0.102295
H79	H	0.577930	-0.072304	-0.171353
H80	H	1.048980	-0.475518	-0.000042
H81	H	0.735989	0.030385	0.000023
C82	C	0.950161	0.029842	-0.000236
C83	C	0.938715	-0.014429	-0.102138
C84	C	1.005363	-0.073001	-0.102411
H85	H	0.932821	0.005531	0.068750
H86	H	1.020486	0.044456	-0.000305
H87	H	0.868405	-0.029043	-0.102059
H88	H	0.956063	0.009861	-0.171141
H89	H	1.075688	-0.058387	-0.102480
H90	H	0.988017	-0.097306	-0.033421
H91	H	0.997612	-0.103043	-0.171555
C92	C	1.351634	0.099557	0.276693
C93	C	1.407774	0.065577	0.357958
C94	C	1.482892	0.020079	0.295855
H95	H	1.398193	0.125394	0.228042
H96	H	1.317942	0.065895	0.228103
H97	H	1.441465	0.099234	0.406527
H98	H	1.361244	0.039726	0.406611
H99	H	1.449199	-0.013583	0.247265
H100	H	1.529443	0.045921	0.247206
H101	H	1.520985	-0.002987	0.350984
H102	H	0.515395	0.308167	-0.000024
C103	C	1.030050	-0.172616	0.000058
C104	C	1.048694	-0.244726	0.000088
C105	C	0.953554	-0.279294	0.000152
H106	H	0.996314	-0.162854	-0.068989
H107	H	0.986604	-0.156917	0.069148
H108	H	1.092122	-0.260419	-0.068995
H109	H	1.082414	-0.254509	0.069129
H110	H	0.910108	-0.263595	0.069242
H111	H	0.919825	-0.269526	-0.068896
H112	H	0.966190	-0.328223	0.000183
H113	H	1.058687	-0.030834	0.000001
H114	H	1.388709	0.077195	0.480388
H115	H	1.372737	0.086854	0.706541
H116	H	1.116266	0.241971	0.706591
H117	H	1.058789	0.276732	0.519608
