data_functionalizedCrystal
_audit_creation_method	'MofGen! by Chris Wilmer'
_symmetry_space_group_name_H-M	'P1'
_symmetry_Int_Tables_number	1
_symmetry_cell_setting	triclinic
loop_
_symmetry_equiv_pos_as_xyz
  x,y,z
_cell_length_a	12.837932
_cell_length_b	12.837942
_cell_length_c	11.295501
_cell_angle_alpha	85.830212
_cell_angle_beta	94.165980
_cell_angle_gamma	85.170678
loop_
_atom_site_label
_atom_site_type_symbol
_atom_site_fract_x
_atom_site_fract_y
_atom_site_fract_z
O1	O	1.409241	-0.279052	0.098907
O2	O	1.106109	-0.265609	0.098934
O3	O	1.250953	-0.120763	0.098914
O4	O	1.264397	-0.423898	0.098927
O5	O	1.237116	-0.106935	-0.099136
O6	O	1.092272	-0.251781	-0.099116
O7	O	1.395404	-0.265224	-0.099143
Cu8	Cu	1.242574	-0.257240	-0.117213
Cu9	Cu	1.258938	-0.273593	0.117004
O10	O	1.250560	-0.410070	-0.099123
C11	C	1.060121	-0.254154	-0.000087
C12	C	0.943707	-0.240609	-0.000077
C13	C	1.239493	-0.074780	-0.000110
C14	C	1.225949	0.041635	-0.000107
C15	C	1.441391	-0.276680	-0.000119
C16	C	1.557806	-0.290225	-0.000122
N17	N	1.231072	-0.245738	-0.281949
C18	C	1.718834	-0.403439	-0.000100
C19	C	1.609450	-0.390718	-0.000112
C20	C	1.615554	-0.202446	-0.000123
C21	C	1.724937	-0.215167	-0.000110
C22	C	1.776574	-0.315667	-0.000097
C23	C	1.885960	-0.328388	-0.000076
C24	C	1.892060	-0.140116	-0.000095
C25	C	1.782677	-0.127395	-0.000107
C26	C	1.262020	-0.456053	-0.000096
C27	C	1.275565	-0.572469	-0.000092
C28	C	1.388779	0.266507	-0.000097
C29	C	1.376058	0.375889	-0.000094
C30	C	1.187787	0.369783	-0.000089
C31	C	1.200508	0.260401	-0.000092
C32	C	1.301007	0.208767	-0.000098
C33	C	1.313727	0.099383	-0.000110
C34	C	1.125457	0.093278	-0.000096
C35	C	1.112736	0.202660	-0.000093
C36	C	1.353241	-0.367935	-0.531245
C37	C	1.344556	-0.359235	-0.655908
C38	C	1.205023	-0.219634	-0.655941
C39	C	1.213708	-0.228334	-0.531277
C40	C	1.287818	-0.302488	-0.468934
C41	C	1.296497	-0.311192	-0.344268
C42	C	1.156970	-0.171587	-0.344303
C43	C	1.148285	-0.162887	-0.468966
N44	N	1.270448	-0.285088	0.281740
H45	H	1.760877	-0.485270	-0.000087
C46	C	1.491871	0.101541	-0.000121
C47	C	1.499242	0.209743	-0.000115
H48	H	1.560067	0.066501	-0.000140
H49	H	1.460113	0.077542	0.068945
H50	H	1.450446	0.087199	-0.069185
H51	H	1.540660	0.224085	0.068954
H52	H	1.531015	0.233750	-0.069187
H53	H	1.030912	0.244716	-0.000084
C54	C	1.921521	-0.499890	0.101740
C55	C	1.942718	-0.438856	-0.000064
H56	H	1.956554	-0.568091	0.101738
H57	H	1.945522	-0.468122	0.170793
H58	H	1.848109	-0.504861	0.101717
H59	H	2.016130	-0.433878	-0.000038
H60	H	1.918722	-0.470632	-0.069136
C61	C	1.061354	-0.077107	-0.000092
C62	C	1.028970	0.029806	-0.000088
H63	H	1.001787	-0.116290	-0.000082
H64	H	1.097284	-0.088946	-0.069155
H65	H	1.106941	-0.098595	0.068974
H66	H	0.983389	0.051297	-0.069159
H67	H	0.993023	0.041652	0.068982
H68	H	1.573485	-0.120617	-0.000232
C69	C	1.887102	0.047266	-0.000102
C70	C	1.955529	-0.043627	-0.000091
H71	H	1.926288	0.106830	-0.000088
H72	H	1.839503	0.053134	-0.069169
H73	H	1.849120	0.043482	0.068960
H74	H	1.993506	-0.039846	-0.069157
H75	H	2.003146	-0.049495	0.068984
C76	C	1.670305	-0.010978	0.101688
C77	C	1.725913	-0.016929	-0.000115
H78	H	1.635270	0.057222	0.101688
H79	H	1.620265	-0.061424	0.101671
H80	H	1.717675	-0.024681	0.170750
H81	H	1.678542	-0.003235	-0.069177
H82	H	1.775959	0.033532	-0.000109
C83	C	1.072945	-0.087623	-0.660079
C84	C	1.066820	-0.081383	-0.537497
H85	H	1.022644	-0.037310	-0.702381
H86	H	1.141212	-0.073887	-0.680545
H87	H	1.059115	-0.155902	-0.680445
H88	H	1.080658	-0.013106	-0.517130
H89	H	0.998537	-0.095111	-0.517023
H90	H	1.447531	0.422897	-0.000089
C91	C	1.433555	-0.448298	-0.356763
C92	C	1.377961	-0.392696	-0.275737
H93	H	1.483853	-0.498609	-0.314454
H94	H	1.386230	-0.483017	-0.405387
H95	H	1.468298	-0.400973	-0.405385
H96	H	1.343211	-0.440020	-0.227120
H97	H	1.425293	-0.357976	-0.227092
C98	C	1.483344	-0.498101	-0.643349
C99	C	1.416466	-0.431180	-0.724402
H100	H	1.527735	-0.542522	-0.685636
H101	H	1.524867	-0.457578	-0.594727
H102	H	1.442781	-0.539603	-0.594726
H103	H	1.457029	-0.389673	-0.773018
H104	H	1.374939	-0.471708	-0.773044
C105	C	1.071389	0.482148	0.101738
C106	C	1.077329	0.426559	-0.000077
H107	H	1.003199	0.517205	0.101740
H108	H	1.085076	0.434772	0.170784
H109	H	1.121857	0.532180	0.101728
H110	H	1.026866	0.376521	-0.000062
H111	H	1.063630	0.473939	-0.069141
C112	C	0.980206	-0.115753	-0.305986
C113	C	1.085039	-0.099642	-0.275820
H114	H	0.935797	-0.071344	-0.263704
H115	H	0.964448	-0.099960	-0.389146
H116	H	0.969273	-0.186878	-0.285547
H117	H	1.095973	-0.028517	-0.296268
H118	H	1.100802	-0.115427	-0.192642
C119	C	1.475807	-0.478533	-0.101928
C120	C	1.545983	-0.487201	-0.000111
H121	H	1.436631	-0.538105	-0.101928
H122	H	1.429401	-0.416872	-0.101927
H123	H	1.513802	-0.474763	-0.170980
H124	H	1.507987	-0.490963	0.068942
H125	H	1.592395	-0.548879	-0.000100
H126	H	1.413575	-0.428323	-0.480484
H127	H	1.395558	0.057345	-0.000119
H128	H	1.144696	-0.159251	-0.706722
