data_functionalizedCrystal
_audit_creation_method	'MofGen! by Chris Wilmer'
_symmetry_space_group_name_H-M	'P1'
_symmetry_Int_Tables_number	1
_symmetry_cell_setting	triclinic
loop_
_symmetry_equiv_pos_as_xyz
  x,y,z
_cell_length_a	17.699097
_cell_length_b	13.930277
_cell_length_c	17.699083
_cell_angle_alpha	89.996258
_cell_angle_beta	83.285722
_cell_angle_gamma	90.010173
loop_
_atom_site_label
_atom_site_type_symbol
_atom_site_fract_x
_atom_site_fract_y
_atom_site_fract_z
O1	O	1.004073	0.079912	0.095748
O2	O	1.504073	0.579912	0.595748
O3	O	0.783696	0.079897	0.108190
O4	O	1.283696	0.579897	0.608190
O5	O	0.900111	0.079897	-0.008220
O6	O	1.400111	0.579897	0.491780
O7	O	0.887658	0.079913	0.212158
O8	O	1.387658	0.579913	0.712158
O9	O	0.900094	-0.079765	-0.008202
O10	O	1.400094	0.420235	0.491798
O11	O	0.783679	-0.079765	0.108208
O12	O	1.283679	0.420235	0.608208
O13	O	1.004056	-0.079749	0.095766
O14	O	1.504056	0.420251	0.595766
Zn15	Zn	0.893865	-0.105107	0.101990
Zn16	Zn	1.393865	0.394893	0.601990
Zn17	Zn	0.893887	0.105255	0.101966
Zn18	Zn	1.393887	0.605255	0.601966
O19	O	0.887641	-0.079749	0.212176
O20	O	1.387641	0.420251	0.712176
C21	C	0.755491	0.000064	0.107752
C22	C	1.255491	0.500064	0.607752
C23	C	0.671473	0.000058	0.106409
C24	C	1.171473	0.500058	0.606409
C25	C	0.155764	0.087128	0.098170
C26	C	0.655764	0.587128	0.598170
C27	C	0.234708	0.087123	0.099426
C28	C	0.734708	0.587123	0.599426
C29	C	0.274165	0.000088	0.100065
C30	C	0.774165	0.500088	0.600065
C31	C	0.234674	-0.086949	0.099440
C32	C	0.734674	0.413051	0.599440
C33	C	0.155732	-0.086943	0.098179
C34	C	0.655732	0.413057	0.598179
C35	C	0.553038	-0.086974	0.104528
C36	C	1.053038	0.413026	0.604528
C37	C	0.631986	-0.086973	0.105792
C38	C	1.131986	0.413027	0.605792
C39	C	0.632014	0.087093	0.105775
C40	C	1.132014	0.587093	0.605775
C41	C	0.553072	0.087098	0.104514
C42	C	1.053072	0.587098	0.604514
C43	C	0.513589	0.000062	0.103885
C44	C	1.013589	0.500062	0.603885
C45	C	0.427989	0.000069	0.102521
C46	C	0.927989	0.500069	0.602521
C47	C	0.359763	0.000081	0.101434
C48	C	0.859763	0.500081	0.601434
N49	N	0.893855	-0.248673	0.102005
N50	N	1.393855	0.251327	0.602005
C51	C	0.939714	-0.700925	0.147801
C52	C	1.439714	-0.200925	0.647801
C53	C	0.848084	-0.700929	0.056100
C54	C	1.348084	-0.200929	0.556100
C55	C	0.848073	-0.600433	0.056113
C56	C	1.348073	-0.100433	0.556113
C57	C	0.893883	-0.550179	0.101969
C58	C	1.393883	-0.050179	0.601969
C59	C	0.939705	-0.600420	0.147814
C60	C	1.439705	-0.100420	0.647814
C61	C	0.802257	-0.550184	0.010263
C62	C	1.302257	-0.050184	0.510263
C63	C	0.802244	-0.449682	0.010273
C64	C	1.302244	0.050318	0.510273
C65	C	0.848051	-0.399426	0.056134
C66	C	1.348051	0.100574	0.556134
C67	C	0.893875	-0.449674	0.101981
C68	C	1.393875	0.050326	0.601981
C69	C	0.939685	-0.399419	0.147838
C70	C	1.439685	0.100581	0.647838
C71	C	0.985505	-0.449665	0.193689
C72	C	1.485505	0.050335	0.693689
C73	C	0.985513	-0.550164	0.193675
C74	C	1.485513	-0.050164	0.693675
C75	C	0.848044	-0.298927	0.056149
C76	C	1.348044	0.201073	0.556149
C77	C	0.939677	-0.298914	0.147850
C78	C	1.439677	0.201086	0.647850
C79	C	1.032261	0.000086	0.096205
C80	C	1.532261	0.500086	0.596205
C81	C	1.116279	0.000098	0.097547
C82	C	1.616279	0.500098	0.597547
C83	C	0.899656	0.000066	-0.036408
C84	C	1.399656	0.500066	0.463592
C85	C	0.898317	0.000065	-0.120426
C86	C	1.398317	0.500065	0.379574
N87	N	0.893903	0.248821	0.101945
N88	N	1.393903	0.748821	0.601945
C89	C	0.966650	0.000069	-0.169044
C90	C	1.466650	0.500069	0.330956
C91	C	0.965388	0.000077	-0.247987
C92	C	1.465388	0.500077	0.252013
C93	C	0.895792	0.000075	-0.278311
C94	C	1.395792	0.500075	0.221689
C95	C	0.827454	0.000075	-0.229687
C96	C	1.327454	0.500075	0.270313
C97	C	0.828717	0.000073	-0.150745
C98	C	1.328717	0.500073	0.349255
C99	C	0.822359	0.000082	-0.548050
C100	C	1.322359	0.500082	-0.048050
C101	C	0.821101	0.000081	-0.626998
C102	C	1.321101	0.500081	-0.126998
C103	C	0.959030	0.000086	-0.645292
C104	C	1.459030	0.500086	-0.145292
C105	C	0.960293	0.000084	-0.566350
C106	C	1.460293	0.500084	-0.066350
C107	C	0.891955	0.000089	-0.517733
C108	C	1.391955	0.500089	-0.017733
C109	C	0.893325	0.000082	-0.432134
C110	C	1.393325	0.500082	0.067866
C111	C	0.894422	0.000076	-0.363909
C112	C	1.394422	0.500076	0.136091
C113	C	0.888096	0.000084	0.240364
C114	C	1.388096	0.500084	0.740364
C115	C	0.889435	0.000091	0.324382
C116	C	1.389435	0.500091	0.824382
H117	H	0.266807	-0.157815	0.099956
H118	H	0.766807	0.342185	0.599956
H119	H	0.810741	-0.258021	0.018815
H120	H	1.310741	0.241979	0.518815
C121	C	0.990114	-0.756189	0.198232
C122	C	1.490114	-0.256189	0.698232
H123	H	0.983564	-0.823241	0.191657
H124	H	1.483564	-0.323241	0.691657
H125	H	0.975955	-0.739733	0.250036
H126	H	1.475955	-0.239733	0.750036
H127	H	1.041925	-0.739698	0.184101
H128	H	1.541925	-0.239698	0.684101
C129	C	0.751847	-0.605458	-0.040153
C130	C	1.251847	-0.105458	0.459847
H131	H	0.724557	-0.561142	-0.067456
H132	H	1.224557	-0.061142	0.432544
H133	H	0.716967	-0.644667	-0.009079
H134	H	1.216967	-0.144667	0.490921
H135	H	0.782916	-0.644659	-0.075035
H136	H	1.282916	-0.144659	0.424965
C137	C	0.278141	0.182853	0.100125
C138	C	0.778141	0.682853	0.600125
H139	H	0.330807	0.170388	0.100962
H140	H	0.830807	0.670388	0.600962
H141	H	0.259355	0.218607	0.144038
H142	H	0.759355	0.718607	0.644038
H143	H	0.271064	0.218622	0.055795
H144	H	0.771064	0.718622	0.555795
H145	H	1.021032	0.000078	-0.287569
H146	H	1.521032	0.500078	0.212431
H147	H	1.023323	0.000064	-0.144360
H148	H	1.523323	0.500064	0.355640
C149	C	0.112298	-0.182676	0.097498
C150	C	0.612298	0.317324	0.597498
H151	H	0.147101	-0.234512	0.098066
H152	H	0.647101	0.265488	0.598066
H153	H	0.087354	-0.186295	0.052887
H154	H	0.587354	0.313705	0.552887
H155	H	0.075650	-0.186288	0.141131
H156	H	0.575650	0.313712	0.641131
H157	H	1.014674	0.000087	-0.684886
H158	H	1.514674	0.500087	-0.184886
C159	C	0.112368	0.182869	0.097473
C160	C	0.612368	0.682869	0.597473
H161	H	0.147194	0.234699	0.098019
H162	H	0.647194	0.734699	0.598019
H163	H	0.075722	0.186490	0.141101
H164	H	0.575722	0.686490	0.641101
H165	H	0.087425	0.186490	0.052858
H166	H	0.587425	0.686490	0.552858
C167	C	0.753553	0.000070	-0.097263
C168	C	1.253553	0.500070	0.402737
H169	H	0.764272	0.000079	-0.045905
H170	H	1.264272	0.500079	0.454095
H171	H	0.724999	-0.055607	-0.106435
H172	H	1.224999	0.444393	0.393565
H173	H	0.725020	0.055755	-0.106446
H174	H	1.225020	0.555755	0.393554
H175	H	1.022818	-0.591083	0.231003
H176	H	1.522818	-0.091083	0.731003
H177	H	0.664171	0.157962	0.106284
H178	H	1.164171	0.657962	0.606284
H179	H	0.764424	0.000077	-0.651685
H180	H	1.264424	0.500077	-0.151685
C181	C	1.036848	0.000091	-0.532998
C182	C	1.536848	0.500091	-0.032998
H183	H	1.077365	0.000103	-0.573260
H184	H	1.577365	0.500103	-0.073260
H185	H	1.040204	-0.055585	-0.502578
H186	H	1.540204	0.444415	-0.002578
H187	H	1.040209	0.055777	-0.502588
H188	H	1.540209	0.555777	-0.002588
H189	H	0.766714	0.000085	-0.508475
H190	H	1.266714	0.500085	-0.008475
H191	H	0.520950	0.157972	0.103997
H192	H	1.020950	0.657972	0.603997
C193	C	0.750898	0.000080	-0.263038
C194	C	1.250898	0.500080	0.236962
H195	H	0.710382	0.000088	-0.222774
H196	H	1.210382	0.500088	0.277226
H197	H	0.747527	-0.055595	-0.293451
H198	H	1.247527	0.444405	0.206549
H199	H	0.747549	0.055767	-0.293454
H200	H	1.247549	0.555767	0.206546
C201	C	0.675391	-0.182714	0.106490
C202	C	1.175391	0.317286	0.606490
H203	H	0.728059	-0.170248	0.107340
H204	H	1.228059	0.329752	0.607340
H205	H	0.668304	-0.218474	0.062165
H206	H	1.168304	0.281526	0.562165
H207	H	0.656594	-0.218475	0.150409
H208	H	1.156594	0.281525	0.650409
C209	C	0.509615	-0.182709	0.103847
C210	C	1.009615	0.317291	0.603847
H211	H	0.544421	-0.234542	0.104418
H212	H	1.044421	0.265458	0.604418
H213	H	0.484671	-0.186336	0.059237
H214	H	0.984671	0.313664	0.559237
H215	H	0.472968	-0.186321	0.147480
H216	H	0.972968	0.313679	0.647480
C217	C	1.035894	-0.394379	0.244128
C218	C	1.535894	0.105621	0.744128
H219	H	1.029321	-0.327331	0.237567
H220	H	1.529321	0.172669	0.737567
H221	H	1.087705	-0.410828	0.230007
H222	H	1.587705	0.089172	0.730007
H223	H	1.021727	-0.410859	0.295935
H224	H	1.521727	0.089141	0.795935
H225	H	0.764934	-0.408780	-0.027061
H226	H	1.264934	0.091220	0.472939
H227	H	0.810792	-0.741852	0.018761
H228	H	1.310792	-0.241852	0.518761
C229	C	0.990068	-0.243638	0.198292
C230	C	1.490068	0.256362	0.698292
H231	H	0.983500	-0.176587	0.191737
H232	H	1.483500	0.323413	0.691737
H233	H	1.041878	-0.260090	0.184169
H234	H	1.541878	0.239910	0.684169
H235	H	0.975901	-0.260124	0.250097
H236	H	1.475901	0.239876	0.750097
