data_functionalizedCrystal
_audit_creation_method	'MofGen! by Chris Wilmer'
_symmetry_space_group_name_H-M	'P1'
_symmetry_Int_Tables_number	1
_symmetry_cell_setting	triclinic
loop_
_symmetry_equiv_pos_as_xyz
  x,y,z
_cell_length_a	16.109301
_cell_length_b	16.109301
_cell_length_c	14.586319
_cell_angle_alpha	90.004358
_cell_angle_beta	90.001418
_cell_angle_gamma	83.461532
loop_
_atom_site_label
_atom_site_type_symbol
_atom_site_fract_x
_atom_site_fract_y
_atom_site_fract_z
O1	O	1.103132	0.106867	0.076182
O2	O	0.861070	0.120166	0.076197
O3	O	0.988750	-0.007515	0.076183
O4	O	0.975451	0.234547	0.076196
O5	O	0.988740	-0.007518	-0.076298
O6	O	0.861059	0.120163	-0.076284
O7	O	1.103121	0.106864	-0.076298
Cu8	Cu	0.982089	0.113513	-0.090214
Cu9	Cu	0.982102	0.113517	0.090112
O10	O	0.975441	0.234544	-0.076285
C11	C	0.830090	0.119626	-0.000042
C12	C	0.737794	0.118011	-0.000036
C13	C	0.988206	-0.038491	-0.000057
C14	C	0.986591	-0.130786	-0.000055
C15	C	0.515522	0.190018	-0.000043
C16	C	0.428802	0.188494	-0.000049
C17	C	0.448676	0.037006	-0.000053
C18	C	0.535395	0.038530	-0.000054
C19	C	0.568815	0.115039	-0.000044
C20	C	0.395376	0.111990	-0.000049
C21	C	0.301350	0.110337	-0.000056
C22	C	0.662847	0.116693	-0.000039
C23	C	1.134101	0.107404	-0.000058
C24	C	1.226397	0.109019	-0.000057
C25	C	1.057074	-0.439785	-0.000044
C26	C	1.058600	-0.353064	-0.000049
C27	C	0.907111	-0.333191	-0.000052
C28	C	0.905586	-0.419910	-0.000053
C29	C	0.980571	-0.473205	-0.000045
C30	C	0.983620	-0.299766	-0.000049
C31	C	0.985274	-0.205740	-0.000055
C32	C	0.978917	-0.567237	-0.000041
C33	C	0.975985	0.265521	-0.000043
C34	C	0.977600	0.357816	-0.000038
N35	N	0.982087	0.113510	-0.217046
C36	C	1.038646	0.056991	-0.548045
C37	C	1.038644	0.056992	-0.452064
C38	C	0.925549	0.170038	-0.452063
C39	C	0.925556	0.170040	-0.548042
C40	C	0.982103	0.113513	-0.596031
C41	C	0.982094	0.113510	-0.404070
C42	C	0.982092	0.113511	-0.300003
C43	C	0.982107	0.113513	-0.700105
N44	N	0.982111	0.113513	0.216944
H45	H	0.542730	0.252317	-0.000042
H46	H	0.879511	0.216071	-0.587115
H47	H	0.385413	0.249550	-0.000050
H48	H	0.846062	-0.289788	-0.000057
Cl49	Cl	0.406655	-0.059172	-0.000059
Cl50	Cl	0.854461	0.241095	-0.391730
H51	H	1.118131	-0.483175	-0.000037
Cl52	Cl	0.602397	-0.055737	-0.000063
H53	H	1.120896	-0.325859	-0.000050
H54	H	1.084691	0.010964	-0.587116
H55	H	1.084687	0.010968	-0.412997
Cl56	Cl	0.809402	-0.461927	-0.000060
