data_functionalizedCrystal
_audit_creation_method	'MofGen! by Chris Wilmer'
_symmetry_space_group_name_H-M	'P1'
_symmetry_Int_Tables_number	1
_symmetry_cell_setting	triclinic
loop_
_symmetry_equiv_pos_as_xyz
  x,y,z
_cell_length_a	10.654550
_cell_length_b	15.995350
_cell_length_c	9.730223
_cell_angle_alpha	90.000899
_cell_angle_beta	89.996251
_cell_angle_gamma	83.988639
loop_
_atom_site_label
_atom_site_type_symbol
_atom_site_fract_x
_atom_site_fract_y
_atom_site_fract_z
O1	O	1.666298	0.117599	-0.114395
O2	O	1.300673	0.128803	-0.114373
O3	O	1.493480	0.001371	-0.114383
O4	O	1.473491	0.245031	-0.114385
O5	O	1.493478	0.001375	0.114197
O6	O	1.300671	0.128806	0.114207
O7	O	1.666295	0.117602	0.114185
Zn8	Zn	1.483483	0.123205	0.150488
Zn9	Zn	1.483486	0.123200	-0.150676
O10	O	1.473488	0.245034	0.114195
C11	C	1.253885	0.127982	-0.000080
C12	C	1.114473	0.125521	-0.000071
C13	C	1.034008	0.200551	-0.000092
C14	C	0.903017	0.198233	-0.000116
C15	C	0.932971	0.045849	-0.000104
C16	C	1.063959	0.048168	-0.000071
C17	C	1.016713	0.288528	-0.000104
C18	C	0.885722	0.286211	-0.000128
C19	C	1.492652	-0.029827	-0.000096
C20	C	1.490175	-0.122791	-0.000104
C21	C	1.481278	-0.460591	-0.000098
C22	C	1.343964	-0.413954	-0.000603
C23	C	1.346442	-0.317249	-0.000087
C24	C	1.485691	-0.293004	-0.000102
C25	C	1.553417	-0.333687	0.130422
C26	C	1.549968	-0.430342	0.130531
C27	C	1.552807	-0.430688	-0.129407
C28	C	1.552775	-0.333743	-0.131132
C29	C	1.488192	-0.198292	-0.000099
C30	C	1.478780	-0.555303	-0.000092
C31	C	1.713084	0.118423	-0.000111
C32	C	1.852495	0.120884	-0.000129
C33	C	1.474316	0.276232	-0.000095
C34	C	1.476793	0.369197	-0.000097
N35	N	1.483490	0.123207	0.356024
N36	N	1.483488	0.123191	-0.356212
C37	C	1.568886	0.066800	0.427946
C38	C	1.568883	0.066789	0.571829
C39	C	1.398083	0.179602	0.571856
C40	C	1.398081	0.179607	0.427976
C41	C	1.667501	0.001671	0.427931
C42	C	1.667497	0.001661	0.571814
H43	H	1.045593	0.322938	0.095561
H44	H	1.328534	0.225531	0.369419
H45	H	1.654321	-0.317791	-0.139024
H46	H	1.129471	-0.012929	-0.000034
N47	N	1.686912	-0.471974	-0.130593
H48	H	1.701318	-0.509867	-0.047822
H49	H	1.701912	-0.506332	-0.217245
N50	N	1.305964	0.240428	0.649461
H51	H	1.318918	0.231865	0.751523
H52	H	1.320459	0.299921	0.624324
H53	H	1.758418	0.022064	0.383299
H54	H	0.891826	-0.017130	-0.000125
H55	H	1.637779	-0.059156	0.616432
N56	N	1.640216	-0.083573	0.376184
H57	H	1.628032	-0.121616	0.456872
H58	H	1.560996	-0.077247	0.318487
N59	N	1.795081	0.020662	0.623550
H60	H	1.852016	0.029154	0.542858
H61	H	1.784839	0.073417	0.681264
N62	N	1.275467	-0.280745	0.124080
H63	H	1.276781	-0.217701	0.124930
H64	H	1.185254	-0.294681	0.120000
N65	N	1.688944	-0.314223	0.136824
H66	H	1.707785	-0.278756	0.054984
H67	H	1.702923	-0.282492	0.224294
N68	N	1.491095	-0.296453	0.259090
H69	H	1.457678	-0.342462	0.315086
H70	H	1.554890	-0.268697	0.315159
H71	H	1.052003	0.316540	-0.098792
H72	H	1.500580	-0.448929	0.228110
H73	H	1.650782	-0.462005	0.136444
H74	H	0.839703	0.312800	0.098556
N75	N	0.829855	0.330115	-0.126842
H76	H	0.899406	0.351374	-0.183376
H77	H	0.785176	0.289280	-0.183285
H78	H	1.289082	-0.432806	-0.094203
N79	N	1.275922	-0.280003	-0.124017
H80	H	1.242942	-0.326402	-0.179474
H81	H	1.202896	-0.239070	-0.092726
N82	N	1.271576	-0.440318	0.122697
H83	H	1.327343	-0.482341	0.178879
H84	H	1.244193	-0.389366	0.180881
H85	H	1.507914	-0.451490	-0.228337
N86	N	1.487269	-0.297977	-0.259045
H87	H	1.414444	-0.255560	-0.232244
H88	H	1.549099	-0.269620	-0.316977
