data_functionalizedCrystal
_audit_creation_method	'MofGen! by Chris Wilmer'
_symmetry_space_group_name_H-M	'P1'
_symmetry_Int_Tables_number	1
_symmetry_cell_setting	triclinic
loop_
_symmetry_equiv_pos_as_xyz
  x,y,z
_cell_length_a	19.188933
_cell_length_b	12.837942
_cell_length_c	11.892083
_cell_angle_alpha	94.299957
_cell_angle_beta	93.887914
_cell_angle_gamma	91.012745
loop_
_atom_site_label
_atom_site_type_symbol
_atom_site_fract_x
_atom_site_fract_y
_atom_site_fract_z
O1	O	0.939042	-0.122749	0.093965
O2	O	1.439042	0.377251	0.593965
O3	O	0.736926	-0.140163	0.093975
O4	O	1.236926	0.359837	0.593975
O5	O	0.833502	0.019426	0.093963
O6	O	1.333502	0.519426	0.593963
O7	O	0.842466	-0.282338	0.093977
O8	O	1.342466	0.217662	0.593977
O9	O	0.825442	0.006148	-0.094043
O10	O	1.325442	0.506148	0.405957
O11	O	0.728865	-0.153441	-0.094032
O12	O	1.228865	0.346559	0.405968
O13	O	0.930982	-0.136028	-0.094042
O14	O	1.430982	0.363972	0.405958
Zn15	Zn	0.828644	-0.146843	-0.123887
Zn16	Zn	1.328644	0.353157	0.376113
Zn17	Zn	0.839264	-0.129348	0.123820
Zn18	Zn	1.339264	0.370652	0.623820
O19	O	0.834406	-0.295616	-0.094030
O20	O	1.334406	0.204384	0.405970
C21	C	0.706846	-0.146238	-0.000027
C22	C	1.206846	0.353762	0.499973
C23	C	0.629226	-0.144544	-0.000023
C24	C	1.129226	0.355456	0.499977
C25	C	0.079534	-0.125217	0.102447
C26	C	0.579534	0.374783	0.602447
C27	C	0.152468	-0.126802	0.102451
C28	C	0.652468	0.373198	0.602451
C29	C	0.184545	-0.134838	-0.000031
C30	C	0.684545	0.365162	0.499969
C31	C	0.143684	-0.141262	-0.102525
C32	C	0.643684	0.358738	0.397475
C33	C	0.070753	-0.139666	-0.102527
C34	C	0.570753	0.360334	0.397473
N35	N	0.294512	-0.201700	-0.076310
N36	N	0.794512	0.298300	0.423690
N37	N	0.363794	-0.203218	-0.076302
N38	N	0.863794	0.296782	0.423698
C39	C	0.404284	-0.139644	-0.000033
C40	C	0.904284	0.360356	0.499967
N41	N	0.372875	-0.074506	0.076245
N42	N	0.872875	0.425494	0.576245
N43	N	0.303586	-0.072993	0.076240
N44	N	0.803586	0.427007	0.576240
C45	C	0.263627	-0.136568	-0.000041
C46	C	0.763627	0.363432	0.499959
C47	C	0.524218	-0.134931	0.102460
C48	C	1.024218	0.365069	0.602460
C49	C	0.597153	-0.136510	0.102460
C50	C	1.097153	0.363490	0.602460
C51	C	0.588368	-0.150980	-0.102519
C52	C	1.088368	0.349020	0.397481
C53	C	0.515435	-0.149391	-0.102516
C54	C	1.015435	0.350609	0.397484
C55	C	0.483365	-0.141371	-0.000024
C56	C	0.983365	0.358629	0.499976
C57	C	0.826444	0.051394	-0.000039
C58	C	1.326444	0.551394	0.499961
C59	C	0.817413	0.166430	-0.000037
C60	C	1.317413	0.666430	0.499963
C61	C	0.961062	-0.129953	-0.000037
C62	C	1.461062	0.370047	0.499963
C63	C	1.038683	-0.131646	-0.000034
C64	C	1.538683	0.368354	0.499966
C65	C	0.841464	-0.327584	-0.000025
C66	C	1.341464	0.172416	0.499975
C67	C	0.850495	-0.442620	-0.000020
C68	C	1.350495	0.057380	0.499980
N69	N	0.821401	-0.158781	-0.292940
N70	N	1.321401	0.341219	0.207060
C71	C	0.925982	0.407881	-0.000019
C72	C	1.425982	0.907881	0.499981
C73	C	0.917500	0.515968	-0.000017
C74	C	1.417500	1.015968	0.499983
C75	C	0.791968	0.490696	-0.000022
C76	C	1.291968	0.990696	0.499978
C77	C	0.800450	0.382608	-0.000024
C78	C	1.300450	0.882608	0.499976
C79	C	0.867459	0.341205	-0.000024
C80	C	1.367459	0.841205	0.499976
C81	C	0.875940	0.233114	-0.000035
C82	C	1.375940	0.733114	0.499965
C83	C	0.750409	0.207844	-0.000032
C84	C	1.250409	0.707844	0.499968
C85	C	0.741927	0.315932	-0.000030
C86	C	1.241927	0.815932	0.499970
C87	C	0.771050	-0.241965	-0.470472
C88	C	1.271050	0.258035	0.029528
C89	C	0.776099	-0.233604	-0.352131
C90	C	1.276099	0.266396	0.147869
C91	C	0.861655	-0.092313	-0.352100
C92	C	1.361655	0.407687	0.147900
C93	C	0.856606	-0.100674	-0.470441
C94	C	1.356606	0.399326	0.029559
C95	C	0.811303	-0.175504	-0.529623
C96	C	1.311303	0.324496	-0.029623
C97	C	0.806258	-0.183869	-0.647967
C98	C	1.306258	0.316131	-0.147967
C99	C	0.891810	-0.042574	-0.647934
C100	C	1.391810	0.457426	-0.147934
C101	C	0.896859	-0.034213	-0.529592
C102	C	1.396859	0.465787	-0.029592
N103	N	0.846512	-0.117401	0.292874
N104	N	1.346512	0.382599	0.792874
H105	H	0.482173	-0.154630	-0.185967
H106	H	0.982173	0.345370	0.314033
H107	H	0.737413	0.524426	-0.000010
H108	H	1.237413	1.024426	0.499990
H109	H	0.630414	-0.131267	0.185916
H110	H	1.130414	0.368733	0.685916
H111	H	0.933743	0.026714	-0.481393
H112	H	1.433743	0.526714	0.018607
H113	H	0.924589	0.011540	-0.696108
H114	H	1.424589	0.511540	-0.196108
C115	C	0.044261	-0.116369	0.215184
C116	C	0.544261	0.383631	0.715184
H117	H	0.079042	-0.112754	0.276219
H118	H	0.579042	0.387246	0.776219
H119	H	0.014682	-0.175856	0.219456
H120	H	0.514682	0.324144	0.719456
H121	H	0.017306	-0.055014	0.219434
H122	H	0.517306	0.444986	0.719434
C123	C	0.721201	-0.324246	-0.535576
C124	C	1.221201	0.175754	-0.035576
H125	H	0.697943	-0.362622	-0.483397
H126	H	1.197943	0.137378	0.016603
H127	H	0.747192	-0.370563	-0.581742
H128	H	1.247192	0.129437	-0.081742
H129	H	0.687699	-0.290301	-0.581740
H130	H	1.187699	0.209699	-0.081740
H131	H	0.169807	-0.147802	-0.185967
H132	H	0.669807	0.352198	0.314033
H133	H	0.185736	-0.121572	0.185906
H134	H	0.685736	0.378428	0.685906
H135	H	0.898535	-0.031382	-0.303898
H136	H	1.398535	0.468618	0.196102
C137	C	0.981872	0.589313	-0.000009
C138	C	1.481872	1.089313	0.499991
H139	H	0.967226	0.659618	0.000002
H140	H	1.467226	1.159618	0.500002
H141	H	1.006246	0.572167	-0.065567
H142	H	1.506246	1.072167	0.434433
H143	H	1.011856	0.581416	0.065565
H144	H	1.511856	1.081416	0.565565
C145	C	0.686032	0.134499	-0.000029
C146	C	1.186032	0.634499	0.499971
H147	H	0.700679	0.064195	-0.000022
H148	H	1.200679	0.564195	0.499978
H149	H	0.656041	0.142395	-0.065588
H150	H	1.156041	0.642395	0.434412
H151	H	0.661667	0.151649	0.065545
H152	H	1.161667	0.651649	0.565545
C153	C	0.756427	-0.266174	-0.713071
C154	C	1.256427	0.233826	-0.213071
H155	H	0.759188	-0.261644	-0.792024
H156	H	1.259188	0.238356	-0.292024
H157	H	0.709922	-0.253720	-0.693702
H158	H	1.209922	0.246280	-0.193702
H159	H	0.769438	-0.333943	-0.693663
H160	H	1.269438	0.166057	-0.193663
H161	H	0.687371	0.349658	-0.000025
H162	H	1.187371	0.849658	0.499975
C163	C	0.025814	-0.146749	-0.215260
C164	C	0.525814	0.353251	0.284740
H165	H	0.055361	-0.151767	-0.276297
H166	H	0.555361	0.348233	0.223703
H167	H	-0.001518	-0.086014	-0.219523
H168	H	0.498482	0.413986	0.280477
H169	H	-0.004121	-0.206857	-0.219517
H170	H	0.495879	0.293143	0.280483
H171	H	0.498106	-0.128398	0.185916
H172	H	0.998106	0.371602	0.685916
H173	H	0.930502	0.199406	-0.000039
H174	H	1.430502	0.699406	0.499961
C175	C	0.623645	-0.159818	-0.215248
C176	C	1.123645	0.340182	0.284752
H177	H	0.672931	-0.159853	-0.200571
H178	H	1.172931	0.340147	0.299429
H179	H	0.611192	-0.102113	-0.257360
H180	H	1.111192	0.397887	0.242640
H181	H	0.608583	-0.222956	-0.257354
H182	H	1.108583	0.277044	0.242646
C183	C	0.731824	-0.306716	-0.287068
C184	C	1.231824	0.193284	0.212932
H185	H	0.704126	-0.352481	-0.339268
H186	H	1.204126	0.147519	0.160732
H187	H	0.702259	-0.266286	-0.240919
H188	H	1.202259	0.233714	0.259081
H189	H	0.761778	-0.346505	-0.240890
H190	H	1.261778	0.153495	0.259110
H191	H	0.980542	0.374169	-0.000030
H192	H	1.480542	0.874169	0.499970
