data_functionalizedCrystal
_audit_creation_method	'MofGen! by Chris Wilmer'
_symmetry_space_group_name_H-M	'P1'
_symmetry_Int_Tables_number	1
_symmetry_cell_setting	triclinic
loop_
_symmetry_equiv_pos_as_xyz
  x,y,z
_cell_length_a	14.853569
_cell_length_b	14.853567
_cell_length_c	16.776229
_cell_angle_alpha	89.997147
_cell_angle_beta	89.994835
_cell_angle_gamma	83.635248
loop_
_atom_site_label
_atom_site_type_symbol
_atom_site_fract_x
_atom_site_fract_y
_atom_site_fract_z
O1	O	1.196367	0.117713	-0.066245
O2	O	0.933908	0.131733	-0.066254
O3	O	1.072148	-0.006507	-0.066251
O4	O	1.058127	0.255953	-0.066247
O5	O	1.072130	-0.006515	0.066325
O6	O	0.933889	0.131724	0.066323
O7	O	1.196349	0.117704	0.066332
Zn8	Zn	1.065116	0.124713	0.087377
Zn9	Zn	1.065140	0.124724	-0.087299
O10	O	1.058108	0.255944	0.066329
C11	C	0.900310	0.131093	0.000033
C12	C	0.800226	0.129189	0.000030
C13	C	0.763850	0.046178	0.000026
C14	C	0.742560	0.210410	0.000037
C15	C	0.648526	0.208624	0.000038
C16	C	0.612150	0.125613	0.000034
C17	C	0.669807	0.044389	0.000029
C18	C	0.590862	0.289847	0.000051
C19	C	0.496821	0.288064	0.000053
C20	C	0.460443	0.205052	0.000043
C21	C	0.518107	0.123824	0.000037
C22	C	0.481730	0.040813	0.000033
C23	C	0.539393	-0.040415	0.000021
C24	C	0.633429	-0.038623	0.000019
C25	C	0.366407	0.203259	0.000046
C26	C	0.387688	0.039024	0.000036
C27	C	1.071504	-0.040100	0.000035
C28	C	1.069600	-0.140183	0.000028
C29	C	0.979434	-0.552718	0.000040
C30	C	1.143667	-0.573998	0.000045
C31	C	1.145457	-0.479964	0.000040
C32	C	1.064234	-0.422303	0.000037
C33	C	0.981222	-0.458675	0.000037
C34	C	1.228468	-0.443585	0.000048
C35	C	1.230262	-0.349545	0.000044
C36	C	1.149038	-0.291882	0.000035
C37	C	1.066022	-0.328260	0.000034
C38	C	0.984800	-0.270599	0.000031
C39	C	0.901783	-0.306974	0.000025
C40	C	0.899998	-0.401012	0.000028
C41	C	1.150822	-0.197845	0.000031
C42	C	0.986587	-0.176556	0.000028
C43	C	1.229947	0.118344	0.000043
C44	C	1.330030	0.120249	0.000041
C45	C	1.058753	0.289537	0.000042
C46	C	1.060657	0.389621	0.000044
N47	N	1.065106	0.124705	0.206588
N48	N	1.065157	0.124725	-0.206510
C49	C	1.126338	0.063517	0.248306
C50	C	1.126343	0.063517	0.331758
C51	C	1.065120	0.124708	0.373491
C52	C	1.003882	0.185899	0.331767
C53	C	1.003873	0.185894	0.248316
C54	C	1.003914	0.185916	0.668314
C55	C	1.003930	0.185918	0.751771
C56	C	1.126384	0.063539	0.751756
C57	C	1.126375	0.063535	0.668305
C58	C	1.065135	0.124721	0.626589
C59	C	1.065129	0.124720	0.536100
C60	C	1.065129	0.124714	0.463978
H61	H	0.319463	0.269395	0.000062
O62	O	1.192438	-0.002465	0.796746
H63	H	1.154448	-0.046364	0.834770
H64	H	0.920445	-0.129613	0.000022
O65	O	0.937870	0.251918	0.623330
H66	H	0.948138	0.241635	0.558290
H67	H	0.680385	-0.104755	0.000011
O68	O	0.937832	0.251882	0.203306
H69	H	0.949402	0.322190	0.219301
O70	O	1.240354	-0.158614	0.000033
H71	H	1.245092	-0.116283	0.054070
H72	H	1.297859	-0.319937	0.000048
O73	O	0.814180	-0.244778	0.000030
H74	H	0.774460	-0.257716	-0.054004
H75	H	1.176232	0.013710	0.634329
H76	H	0.954071	0.235749	0.785748
H77	H	0.911844	-0.582339	0.000032
O78	O	0.937849	0.251905	0.376772
H79	H	0.948148	0.241638	0.441810
H80	H	0.772184	0.277994	0.000046
H81	H	0.832410	-0.430638	0.000024
H82	H	0.358078	-0.028574	0.000029
O83	O	1.231269	-0.636182	0.000057
H84	H	1.216080	-0.707684	0.000058
O85	O	0.630094	0.379376	0.000063
H86	H	0.672422	0.384132	-0.053979
H87	H	0.509763	-0.108003	0.000013
O88	O	0.434637	0.375672	0.000063
H89	H	0.363135	0.360486	0.000068
H90	H	0.810802	-0.019956	0.000013
O91	O	1.192368	-0.002486	0.203295
H92	H	1.234939	-0.045040	0.246328
H93	H	1.294595	-0.490539	0.000058
O94	O	1.192401	-0.002461	0.376757
H95	H	1.234984	-0.044999	0.333718
