data_functionalizedCrystal
_audit_creation_method	'MofGen! by Chris Wilmer'
_symmetry_space_group_name_H-M	'P1'
_symmetry_Int_Tables_number	1
_symmetry_cell_setting	triclinic
loop_
_symmetry_equiv_pos_as_xyz
  x,y,z
_cell_length_a	14.908571
_cell_length_b	18.101396
_cell_length_c	14.909227
_cell_angle_alpha	93.323665
_cell_angle_beta	83.209827
_cell_angle_gamma	93.266780
loop_
_atom_site_label
_atom_site_type_symbol
_atom_site_fract_x
_atom_site_fract_y
_atom_site_fract_z
Zn1	Zn	1.413254	0.333840	-0.591521
Zn2	Zn	1.404368	0.464442	-0.440150
Zn3	Zn	1.253148	0.333857	-0.431452
Zn4	Zn	1.261812	0.450875	-0.582753
O5	O	1.333145	0.395754	-0.511469
O6	O	1.538741	0.356836	-0.578751
O7	O	1.376963	0.452804	-0.312328
O8	O	1.274479	0.230225	-0.452714
O9	O	1.532212	0.452788	-0.467540
O10	O	1.392109	0.230213	-0.570316
O11	O	1.265862	0.356864	-0.305936
O12	O	1.127632	0.343709	-0.444212
O13	O	1.289246	0.429666	-0.710585
O14	O	1.133997	0.429682	-0.555372
O15	O	1.400510	0.343680	-0.717027
O16	O	1.385365	0.566272	-0.459038
O17	O	1.280629	0.556305	-0.563807
C18	C	1.097972	0.385226	-0.497897
C19	C	0.997364	0.380739	-0.492113
C20	C	0.814981	0.461984	-0.596839
C21	C	0.720452	0.457770	-0.591407
C22	C	0.713776	0.368094	-0.475823
C23	C	0.808305	0.372307	-0.481254
C24	C	0.858904	0.419255	-0.541764
C25	C	0.953435	0.423472	-0.547190
C26	C	0.946757	0.333792	-0.431611
C27	C	0.852228	0.329578	-0.426179
C28	C	1.332999	0.588159	-0.511436
C29	C	1.333020	0.670473	-0.511458
C30	C	1.333184	0.969569	-0.511520
C31	C	1.267464	0.932003	-0.577620
C32	C	1.267130	0.846380	-0.577381
C33	C	1.333103	0.821184	-0.511490
C34	C	1.301763	0.855441	-0.414605
C35	C	1.301327	0.941046	-0.414999
C36	C	1.430352	0.941102	-0.541473
C37	C	1.429921	0.855333	-0.543532
C38	C	1.333058	0.737323	-0.511467
C39	C	1.333226	1.053429	-0.511536
C40	C	1.569237	0.406323	-0.525094
C41	C	1.669846	0.410827	-0.530900
C42	C	1.346836	0.385158	-0.747568
C43	C	1.352670	0.380643	-0.848179
C44	C	1.333287	1.202596	-0.511524
C45	C	1.333267	1.120279	-0.511552
C46	C	1.418815	0.329516	-0.993341
C47	C	1.413338	0.333755	-0.898808
C48	C	1.297476	0.423295	-0.892090
C49	C	1.302953	0.419055	-0.986623
C50	C	1.363624	0.372163	-1.037245
C51	C	1.369095	0.367920	-1.131780
C52	C	1.253238	0.457462	-1.125060
C53	C	1.247762	0.461702	-1.030527
C54	C	1.319560	0.406257	-0.276291
C55	C	1.313902	0.410572	-0.175691
H56	H	0.811017	0.291353	-0.376917
C57	C	1.205151	0.965150	-0.381593
C58	C	1.188849	1.017214	-0.296499
C59	C	1.092670	1.041313	-0.263095
C60	C	1.012792	1.013346	-0.314785
C61	C	1.029092	0.961279	-0.399884
C62	C	1.125271	0.937181	-0.433288
H63	H	1.247981	1.037919	-0.258230
H64	H	1.080604	1.079857	-0.200098
H65	H	0.941595	1.031186	-0.290057
H66	H	0.969960	0.940574	-0.438153
H67	H	1.137337	0.898637	-0.496285
C68	C	1.496596	0.974682	-0.476531
C69	C	1.579660	1.023159	-0.512995
C70	C	1.645894	1.056743	-0.448051
C71	C	1.629063	1.041850	-0.346642
C72	C	1.545996	0.993371	-0.310173
C73	C	1.479762	0.959787	-0.375118
H74	H	1.592122	1.034186	-0.588069
H75	H	1.707386	1.092631	-0.475048
H76	H	1.678093	1.066711	-0.298567
H77	H	1.533533	0.982344	-0.235100
H78	H	1.418270	0.923899	-0.348120
H79	H	1.481924	0.838483	-0.499335
C80	C	1.192503	0.504369	-1.173344
C81	C	1.199033	0.589470	-1.160747
C82	C	1.138286	0.636368	-1.209026
C83	C	1.071009	0.598166	-1.269901
C84	C	1.064476	0.513061	-1.282501
C85	C	1.125223	0.466163	-1.234223
H86	H	1.248837	0.617754	-1.115681
H87	H	1.143122	0.699369	-1.199698
H88	H	1.026040	0.632883	-1.305640
H89	H	1.014672	0.484777	-1.327567
H90	H	1.120387	0.403162	-1.243550
C91	C	1.474047	0.286841	-0.850512
C92	C	1.467488	0.201741	-0.863110
C93	C	1.528200	0.154824	-0.814815
C94	C	1.595472	0.193008	-0.753921
C95	C	1.602034	0.278113	-0.741320
C96	C	1.541322	0.325029	-0.789615
H97	H	1.417686	0.173470	-0.908190
H98	H	1.523342	0.091824	-0.824143
H99	H	1.640415	0.158278	-0.718169
H100	H	1.651835	0.306383	-0.696240
H101	H	1.546180	0.388029	-0.780287
H102	H	1.418492	0.329734	-1.172995
C103	C	1.461726	0.824759	-0.639887
C104	C	1.400105	0.769046	-0.689271
C105	C	1.431909	0.738464	-0.785625
C106	C	1.525334	0.763596	-0.832595
C107	C	1.586960	0.819312	-0.783210
C108	C	1.555157	0.849893	-0.686856
H109	H	1.330942	0.750439	-0.654502
H110	H	1.386288	0.697220	-0.822183
H111	H	1.548877	0.740958	-0.903922
H112	H	1.656124	0.837919	-0.817980
H113	H	1.600778	0.891138	-0.650299
C114	C	1.362762	0.975242	-0.345783
C115	C	1.341771	0.958235	-0.245240
C116	C	1.403193	0.992428	-0.176017
C117	C	1.485607	1.043629	-0.207338
C118	C	1.506602	1.060639	-0.307887
C119	C	1.445179	1.026445	-0.377109
H120	H	1.280760	0.920331	-0.222049
H121	H	1.387651	0.979837	-0.101584
H122	H	1.531076	1.068941	-0.156096
H123	H	1.567613	1.098543	-0.331077
H124	H	1.460722	1.039037	-0.451542
C125	C	1.485546	0.277935	-1.049033
C126	C	1.587688	0.289162	-1.041982
C127	C	1.654420	0.237581	-1.097673
C128	C	1.619009	0.174774	-1.160416
C129	C	1.516861	0.163544	-1.167470
C130	C	1.450129	0.215125	-1.111778
H131	H	1.613907	0.335659	-0.995533
H132	H	1.730037	0.245895	-1.092451
H133	H	1.668407	0.136590	-1.201642
H134	H	1.490642	0.117048	-1.213918
H135	H	1.374512	0.206812	-1.117001
C136	C	1.364066	0.834132	-0.345924
C137	C	1.324725	0.790198	-0.263637
C138	C	1.387028	0.768887	-0.194957
C139	C	1.488672	0.791511	-0.208565
C140	C	1.528018	0.835447	-0.290855
C141	C	1.465714	0.856758	-0.359535
H142	H	1.249478	0.773448	-0.253560
H143	H	1.357902	0.736362	-0.134041
H144	H	1.534793	0.775735	-0.157724
H145	H	1.603265	0.852197	-0.300931
H146	H	1.494841	0.889283	-0.420451
C147	C	1.230783	0.474894	-0.836378
C148	C	1.155994	0.442570	-0.767259
C149	C	1.089317	0.494179	-0.711538
C150	C	1.097429	0.578113	-0.724937
C151	C	1.172221	0.610441	-0.794060
C152	C	1.238898	0.558832	-0.849780
H153	H	1.149986	0.380433	-0.757338
H154	H	1.033951	0.470247	-0.660369
H155	H	1.048071	0.616317	-0.683689
H156	H	1.178229	0.672578	-0.803981
H157	H	1.294263	0.582764	-0.900949
C158	C	1.181038	0.513286	-0.974832
C159	C	1.106241	0.480938	-0.905738
C160	C	1.039520	0.532524	-0.850042
C161	C	1.047594	0.616458	-0.863440
C162	C	1.122393	0.648810	-0.932537
C163	C	1.189115	0.597224	-0.988233
H164	H	1.100262	0.418801	-0.895818
H165	H	0.984148	0.508574	-0.798892
H166	H	0.998203	0.654645	-0.822210
H167	H	1.128373	0.710947	-0.942457
H168	H	1.244486	0.621174	-1.039383
H169	H	0.994632	0.461701	-0.596459
C170	C	0.995068	0.286786	-0.371018
C171	C	1.062381	0.229821	-0.414082
C172	C	1.110689	0.182820	-0.353485
C173	C	1.091683	0.192782	-0.249823
C174	C	1.024366	0.249749	-0.206753
C175	C	0.976059	0.296751	-0.267350
H176	H	1.076453	0.222444	-0.490824
H177	H	1.160521	0.140649	-0.385369
H178	H	1.127443	0.157989	-0.204966
H179	H	1.010294	0.257126	-0.130011
H180	H	0.926226	0.338922	-0.235466
H181	H	0.856180	0.500215	-0.646103
H182	H	0.684693	0.492563	-0.636257
C183	C	1.294610	0.956443	-0.674738
C184	C	1.296024	1.039002	-0.694926
C185	C	1.323176	1.063447	-0.792046
C186	C	1.348914	1.005334	-0.868978
C187	C	1.347500	0.922771	-0.848792
C188	C	1.320348	0.898325	-0.751672
H189	H	1.276971	1.082025	-0.637975
H190	H	1.324223	1.124566	-0.806989
H191	H	1.369014	1.023430	-0.940872
H192	H	1.366554	0.879748	-0.905743
H193	H	1.319302	0.837206	-0.736729
C194	C	1.170910	0.957858	-0.550540
C195	C	1.093719	0.928689	-0.605255
C196	C	0.997166	0.954544	-0.578171
C197	C	0.977803	1.009569	-0.496372
C198	C	1.054996	1.038741	-0.441652
C199	C	1.151549	1.012886	-0.468736
H200	H	1.108050	0.887953	-0.665812
H201	H	0.940022	0.932948	-0.618679
H202	H	0.906328	1.028709	-0.476323
H203	H	1.040664	1.079477	-0.381095
H204	H	1.208692	1.034482	-0.428228
C205	C	1.169994	0.815470	-0.549981
C206	C	1.122994	0.761390	-0.615337
C207	C	1.025854	0.730479	-0.587930
C208	C	0.975714	0.753647	-0.495168
C209	C	1.022714	0.807729	-0.429806
C210	C	1.119854	0.838641	-0.457213
H211	H	1.160111	0.744237	-0.684010
H212	H	0.991062	0.690444	-0.636316
H213	H	0.903806	0.730764	-0.474880
H214	H	0.985597	0.824882	-0.361133
H215	H	1.154646	0.878676	-0.408827
C216	C	1.206562	0.823651	-0.380746
C217	C	1.157169	0.766654	-0.440829
C218	C	1.061965	0.734866	-0.406976
C219	C	1.016154	0.760075	-0.313039
C220	C	1.065547	0.817075	-0.252950
C221	C	1.160750	0.848863	-0.286803
H222	H	1.191081	0.747990	-0.510372
H223	H	1.025402	0.692670	-0.451458
H224	H	0.945678	0.736543	-0.287978
H225	H	1.031634	0.835739	-0.183407
H226	H	1.197314	0.891059	-0.242320
H227	H	0.672562	0.329866	-0.426565
H228	H	1.457845	0.960649	-0.611207
H229	H	1.287376	0.822880	-0.649048
