data_functionalizedCrystal
_audit_creation_method	'MofGen! by Chris Wilmer'
_symmetry_space_group_name_H-M	'P1'
_symmetry_Int_Tables_number	1
_symmetry_cell_setting	triclinic
loop_
_symmetry_equiv_pos_as_xyz
  x,y,z
_cell_length_a	19.288864
_cell_length_b	9.130307
_cell_length_c	19.288865
_cell_angle_alpha	89.991489
_cell_angle_beta	96.863755
_cell_angle_gamma	90.015361
loop_
_atom_site_label
_atom_site_type_symbol
_atom_site_fract_x
_atom_site_fract_y
_atom_site_fract_z
O1	O	0.921345	0.122286	-0.086647
O2	O	0.719085	0.122188	-0.098335
O3	O	0.826059	0.122211	0.008639
O4	O	0.814371	0.122263	-0.193621
O5	O	0.826056	-0.121388	0.008640
O6	O	0.719081	-0.121411	-0.098334
O7	O	0.921342	-0.121313	-0.086646
Cu8	Cu	0.820211	-0.143605	-0.092490
Cu9	Cu	0.820215	0.144479	-0.092491
O10	O	0.814367	-0.121336	-0.193620
C11	C	0.693207	0.000375	-0.097959
C12	C	0.616103	0.000337	-0.096830
C13	C	0.571407	0.000376	-0.159598
C14	C	0.498960	0.000392	-0.158537
C15	C	0.471212	0.000398	-0.094705
C16	C	0.515918	0.000350	-0.031929
C17	C	0.588364	0.000320	-0.032991
C18	C	0.362951	0.085778	-0.044526
C19	C	0.290507	0.085817	-0.043466
C20	C	0.247767	0.000486	-0.091425
C21	C	0.277478	-0.084867	-0.140456
C22	C	0.349923	-0.084897	-0.141518
C23	C	0.392658	0.000430	-0.093546
C24	C	0.124514	0.000540	-0.153047
C25	C	0.052066	0.000547	-0.151984
C26	C	0.069026	0.000520	-0.025374
C27	C	0.141473	0.000499	-0.026439
C28	C	0.169212	0.000516	-0.090278
N29	N	0.820214	-0.346227	-0.092489
C30	C	0.914978	-0.346197	0.002211
C31	C	0.962365	-0.422849	0.049558
C32	C	0.962372	-0.576182	0.049559
C33	C	0.914985	-0.652868	0.002208
C34	C	0.867599	-0.576216	-0.045140
C35	C	0.867598	-0.422879	-0.045137
C36	C	0.772832	-0.576246	-0.139834
C37	C	0.772827	-0.422913	-0.139839
C38	C	0.725446	-0.652932	-0.187185
C39	C	0.678061	-0.576280	-0.234537
C40	C	0.678057	-0.422937	-0.234536
C41	C	0.725440	-0.346261	-0.187187
C42	C	0.947220	0.000502	-0.087022
C43	C	1.024324	0.000551	-0.088151
C44	C	0.825682	0.000407	0.034516
C45	C	0.824553	0.000393	0.111620
N46	N	0.820219	0.347102	-0.092487
C47	C	0.814745	0.000471	-0.219497
C48	C	0.815874	0.000494	-0.296601
C49	C	0.887321	0.000416	0.156316
C50	C	0.886260	0.000439	0.228763
C51	C	0.822428	0.000409	0.256511
C52	C	0.759652	0.000394	0.211805
C53	C	0.760714	0.000386	0.139359
C54	C	0.772247	-0.084943	0.364799
C55	C	0.771187	-0.084944	0.437243
C56	C	0.819148	0.000440	0.479956
C57	C	0.868181	0.085806	0.450218
C58	C	0.869243	0.085798	0.377773
C59	C	0.821269	0.000419	0.335065
C60	C	0.880770	0.000490	0.603209
C61	C	0.879707	0.000522	0.675657
C62	C	0.753097	0.000462	0.658697
C63	C	0.754162	0.000445	0.586250
C64	C	0.818000	0.000452	0.558511
H65	H	0.593987	0.000393	-0.211580
H66	H	0.733190	-0.154481	0.330026
Cl67	Cl	0.223755	-0.192148	-0.200752
Cl68	Cl	1.021941	-0.672547	0.109086
Cl69	Cl	0.442760	0.000438	-0.237451
Cl70	Cl	0.958623	0.000561	0.731848
Cl71	Cl	0.672850	0.000433	0.693572
Cl72	Cl	0.675249	0.000409	0.530057
H73	H	0.624756	0.000289	0.018124
Cl74	Cl	0.709550	-0.192265	0.474622
Cl75	Cl	0.679405	0.000368	0.246686
Cl76	Cl	0.681799	0.000356	0.083166
H77	H	0.374112	-0.154399	-0.181439
H78	H	0.639466	-0.360535	-0.273090
Cl79	Cl	0.914985	-0.845631	0.002218
Cl80	Cl	0.725442	-0.153498	-0.187184
Cl81	Cl	0.159390	0.000547	-0.233300
H82	H	0.015674	0.000571	-0.203099
Cl83	Cl	0.034151	0.000511	0.054873
H84	H	0.909166	0.155309	0.353562
H85	H	0.725450	-0.777784	-0.187180
Cl86	Cl	0.197666	0.000458	0.052474
H87	H	0.493322	0.000375	0.020044
H88	H	0.939303	0.000427	0.133736
H89	H	0.397745	0.155274	-0.005470
H90	H	0.266321	0.155322	-0.003545
Cl91	Cl	0.961023	0.000491	0.568333
H92	H	0.914983	-0.221345	0.002209
H93	H	1.000945	-0.360398	0.088112
Cl94	Cl	0.965174	0.000469	0.284963
Cl95	Cl	0.618492	-0.672688	-0.294053
H96	H	0.907235	0.155335	0.484994
