data_functionalizedCrystal
_audit_creation_method	'MofGen! by Chris Wilmer'
_symmetry_space_group_name_H-M	'P1'
_symmetry_Int_Tables_number	1
_symmetry_cell_setting	triclinic
loop_
_symmetry_equiv_pos_as_xyz
  x,y,z
_cell_length_a	14.044191
_cell_length_b	14.044220
_cell_length_c	9.130313
_cell_angle_alpha	90.000868
_cell_angle_beta	90.000955
_cell_angle_gamma	93.190327
loop_
_atom_site_label
_atom_site_type_symbol
_atom_site_fract_x
_atom_site_fract_y
_atom_site_fract_z
O1	O	1.277171	0.230193	0.121735
O2	O	1.610504	0.563526	0.455068
O3	O	1.943837	0.896860	0.788402
O4	O	1.000498	0.221880	0.121753
O5	O	1.333832	0.555214	0.455087
O6	O	1.667165	0.888547	0.788420
O7	O	1.134682	0.087701	0.121730
O8	O	1.468015	0.421034	0.455063
O9	O	1.801348	0.754368	0.788397
O10	O	1.142987	0.364373	0.121758
O11	O	1.476321	0.697706	0.455092
O12	O	1.809654	1.031039	0.788425
O13	O	1.134672	0.087709	-0.121869
O14	O	1.468006	0.421042	0.211464
O15	O	1.801339	0.754375	0.544798
O16	O	1.000489	0.221888	-0.121845
O17	O	1.333822	0.555222	0.211488
O18	O	1.667156	0.888555	0.544821
O19	O	1.277161	0.230201	-0.121864
O20	O	1.610495	0.563534	0.211470
O21	O	1.943828	0.896868	0.544803
Cu22	Cu	1.138824	0.226045	-0.144097
Cu23	Cu	1.472158	0.559379	0.189236
Cu24	Cu	1.805491	0.892712	0.522570
Cu25	Cu	1.138835	0.226036	0.143987
Cu26	Cu	1.472169	0.559369	0.477320
Cu27	Cu	1.805502	0.892703	0.810653
O28	O	1.142978	0.364381	-0.121840
O29	O	1.476311	0.697714	0.211493
O30	O	1.809645	1.031047	0.544826
C31	C	0.964872	0.218248	-0.000044
C32	C	1.298205	0.551581	0.333289
C33	C	1.631538	0.884914	0.666623
C34	C	0.858728	0.207401	-0.000037
C35	C	1.192062	0.540734	0.333296
C36	C	1.525395	0.874067	0.666629
C37	C	1.131041	0.052083	-0.000070
C38	C	1.464375	0.385416	0.333264
C39	C	1.797708	0.718750	0.666597
C40	C	1.120197	-0.054060	-0.000071
C41	C	1.453530	0.279273	0.333262
C42	C	1.786863	0.612607	0.666596
C43	C	0.613270	0.264501	-0.000046
C44	C	0.946603	0.597834	0.333287
C45	C	1.279937	0.931168	0.666621
C46	C	0.664395	0.187585	-0.000051
C47	C	0.997729	0.520918	0.333282
C48	C	1.331062	0.854251	0.666615
C49	C	0.772532	0.198613	-0.000044
C50	C	1.105866	0.531946	0.333290
C51	C	1.439199	0.865280	0.666623
C52	C	0.505123	0.253474	-0.000054
C53	C	0.838457	0.586808	0.333279
C54	C	1.171790	0.920141	0.666613
C55	C	1.100370	-0.248398	-0.000048
C56	C	1.433704	0.084935	0.333285
C57	C	1.767037	0.418268	0.666618
C58	C	1.177285	-0.299526	-0.000049
C59	C	1.510618	0.033807	0.333284
C60	C	1.843952	0.367140	0.666618
C61	C	1.166253	-0.407663	-0.000037
C62	C	1.499587	-0.074329	0.333297
C63	C	1.832920	0.259004	0.666630
C64	C	1.111400	-0.140252	-0.000061
C65	C	1.444734	0.193081	0.333272
C66	C	1.778067	0.526415	0.666606
C67	C	1.312788	0.233834	-0.000063
C68	C	1.646121	0.567167	0.333270
C69	C	1.979455	0.900500	0.666603
C70	C	1.418931	0.244681	-0.000060
C71	C	1.752264	0.578014	0.333273
C72	C	2.085598	0.911348	0.666606
C73	C	1.146618	0.399998	-0.000037
C74	C	1.479952	0.733332	0.333296
C75	C	1.813285	1.066665	0.666629
C76	C	1.157463	0.506142	-0.000027
C77	C	1.490796	0.839475	0.333307
C78	C	1.824130	1.172808	0.666640
N79	N	1.138823	0.226052	-0.346720
N80	N	1.472157	0.559385	-0.013386
N81	N	1.805490	0.892719	0.319947
C82	C	1.201620	0.288882	-0.423384
C83	C	1.534954	0.622216	-0.090050
C84	C	1.868287	0.955549	0.243283
C85	C	1.201633	0.288866	-0.576720
C86	C	1.534966	0.622199	-0.243387
C87	C	1.868300	0.955532	0.089946
C88	C	1.076043	0.163185	-0.576716
C89	C	1.409376	0.496519	-0.243383
C90	C	1.742710	0.829852	0.089951
C91	C	1.076036	0.163198	-0.423382
C92	C	1.409369	0.496531	-0.090049
C93	C	1.742703	0.829865	0.243285
C94	C	1.274126	0.361446	-0.423387
C95	C	1.607459	0.694779	-0.090054
C96	C	1.940793	1.028112	0.243279
C97	C	1.274139	0.361429	-0.576724
C98	C	1.607472	0.694762	-0.243391
C99	C	1.940805	1.028096	0.089943
N100	N	1.138843	0.226023	0.346609
N101	N	1.472176	0.559356	0.679943
N102	N	1.805510	0.892689	1.013276
H103	H	0.626952	0.113452	0.000044
H104	H	0.960285	0.446786	0.333377
H105	H	1.293619	0.780119	0.666711
H106	H	0.650711	0.338628	-0.000034
H107	H	0.984045	0.671961	0.333299
H108	H	1.317378	1.005294	0.666633
O109	O	1.275488	-0.249943	-0.000082
O110	O	1.608822	0.083390	0.333251
O111	O	1.942155	0.416723	0.666585
H112	H	1.268858	-0.171558	-0.000106
H113	H	1.602192	0.161775	0.333227
H114	H	1.935525	0.495109	0.666560
O115	O	1.002174	-0.297981	-0.000065
O116	O	1.335507	0.035352	0.333268
O117	O	1.668840	0.368686	0.666602
H118	H	1.008811	-0.376365	-0.000077
H119	H	1.342144	-0.043032	0.333256
H120	H	1.675478	0.290301	0.666590
H121	H	1.024910	0.112026	-0.360968
H122	H	1.358243	0.445360	-0.027635
H123	H	1.691577	0.778693	0.305698
H124	H	1.024924	0.112012	-0.639153
H125	H	1.358257	0.445345	-0.305820
H126	H	1.691590	0.778679	0.027513
O127	O	1.371431	0.337952	-0.368227
O128	O	1.704765	0.671285	-0.034894
O129	O	2.038098	1.004618	0.298439
H130	H	1.419074	0.326429	-0.462827
H131	H	1.752408	0.659763	-0.129494
H132	H	2.085741	0.993096	0.203839
H133	H	1.249549	0.431006	-0.375844
H134	H	1.582882	0.764340	-0.042510
H135	H	1.916216	1.097673	0.290823
H136	H	1.256350	0.434878	-0.618356
H137	H	1.589684	0.768211	-0.285023
H138	H	1.923017	1.101544	0.048311
H139	H	1.343720	0.336895	-0.624265
H140	H	1.677053	0.670229	-0.290931
H141	H	2.010387	1.003562	0.042402
