data_functionalizedCrystal
_audit_creation_method	'MofGen! by Chris Wilmer'
_symmetry_space_group_name_H-M	'P1'
_symmetry_Int_Tables_number	1
_symmetry_cell_setting	triclinic
loop_
_symmetry_equiv_pos_as_xyz
  x,y,z
_cell_length_a	17.699077
_cell_length_b	15.625429
_cell_length_c	14.750135
_cell_angle_alpha	94.858320
_cell_angle_beta	102.620612
_cell_angle_gamma	83.780415
loop_
_atom_site_label
_atom_site_type_symbol
_atom_site_fract_x
_atom_site_fract_y
_atom_site_fract_z
O1	O	1.026998	0.086940	0.110079
O2	O	0.807636	0.100609	0.114842
O3	O	0.914553	-0.027137	0.070370
O4	O	0.920081	0.214686	0.154551
O5	O	0.884312	0.008989	-0.076720
O6	O	0.777395	0.136734	-0.032248
O7	O	0.996757	0.123066	-0.037010
Zn8	Zn	0.882275	0.135636	-0.057983
Zn9	Zn	0.922118	0.088039	0.135814
O10	O	0.889840	0.250811	0.007462
C11	C	0.764282	0.118182	0.041127
C12	C	0.680155	0.116715	0.040618
C13	C	0.624152	0.135716	-0.039802
C14	C	0.545106	0.134325	-0.040287
C15	C	0.522064	0.113938	0.039650
C16	C	0.578074	0.094933	0.120076
C17	C	0.657119	0.096319	0.120558
C18	C	0.259296	0.089344	0.118132
C19	C	0.180244	0.087962	0.117644
C20	C	0.147282	0.127350	-0.042714
C21	C	0.226327	0.128735	-0.042231
C22	C	0.282330	0.109726	0.038192
C23	C	0.368041	0.111233	0.038717
C24	C	0.436355	0.112437	0.039129
C25	C	0.896686	-0.040015	-0.013944
C26	C	0.888494	-0.132210	-0.046032
C27	C	0.943942	-0.533881	0.249294
C28	C	0.936235	-0.620504	0.219115
C29	C	0.903269	-0.581109	0.058769
C30	C	0.910977	-0.494481	0.088934
C31	C	0.931313	-0.470874	0.184198
C32	C	0.898348	-0.431474	0.023837
C33	C	0.906052	-0.344853	0.054001
C34	C	0.926384	-0.321238	0.149261
C35	C	0.939017	-0.384253	0.214361
C36	C	0.878007	-0.455082	-0.071426
C37	C	0.865378	-0.392075	-0.136522
C38	C	0.873087	-0.305453	-0.106359
C39	C	0.893419	-0.281838	-0.011099
C40	C	0.860454	-0.242438	-0.171460
C41	C	0.868158	-0.155817	-0.141296
C42	C	0.901123	-0.195217	0.019064
C43	C	1.040111	0.105492	0.036706
C44	C	1.124239	0.106957	0.037221
C45	C	0.907707	0.263689	0.091778
C46	C	0.915901	0.355882	0.123871
N47	N	0.855088	0.168119	-0.190244
C48	C	1.025229	-0.035087	-0.612716
C49	C	1.006179	-0.012349	-0.705309
C50	C	0.911471	0.100739	-0.665952
C51	C	0.930515	0.078013	-0.573352
C52	C	0.987394	0.010099	-0.546743
C53	C	0.892681	0.123199	-0.507379
C54	C	0.911721	0.100472	-0.414789
C55	C	0.968596	0.032559	-0.388172
C56	C	1.006435	-0.012628	-0.454152
C57	C	0.835798	0.191109	-0.533992
C58	C	0.797963	0.236296	-0.468019
C59	C	0.817007	0.213573	-0.375425
C60	C	0.873883	0.145660	-0.348808
C61	C	0.779169	0.258760	-0.309444
C62	C	0.798209	0.236033	-0.216854
C63	C	0.892923	0.122933	-0.256218
N64	N	0.949310	0.055549	0.268073
H65	H	0.499510	0.149784	-0.105778
H66	H	1.052757	-0.067925	-0.432485
H67	H	0.939245	0.067636	-0.234550
H68	H	0.304885	0.073862	0.183617
H69	H	1.071551	-0.090384	-0.591049
H70	H	0.702717	0.080848	0.186045
H71	H	0.161488	0.071359	0.182743
H72	H	0.559308	0.078328	0.185161
H73	H	0.917689	-0.175997	0.096637
H74	H	0.871727	-0.525614	-0.095982
H75	H	0.848817	-0.411308	-0.214087
H76	H	0.843889	-0.261672	-0.249024
H77	H	0.886709	-0.600342	-0.018796
H78	H	0.932648	-0.250703	0.173819
H79	H	1.036993	-0.049152	-0.759024
H80	H	0.245082	0.145340	-0.107324
H81	H	0.865157	0.156034	-0.687629
H82	H	0.946514	-0.671804	0.272133
H83	H	0.642905	0.152324	-0.104894
H84	H	0.955583	-0.365033	0.291934
H85	H	0.101674	0.142824	-0.108200
H86	H	0.732852	0.314051	-0.331125
H87	H	0.960508	-0.514660	0.326867
H88	H	0.857858	-0.104512	-0.194304
H89	H	0.984096	0.014053	-0.312779
H90	H	0.820295	0.209608	-0.609387
H91	H	0.751650	0.291590	-0.489696
H92	H	0.767399	0.272828	-0.163137
