data_functionalizedCrystal
_audit_creation_method	'MofGen! by Chris Wilmer'
_symmetry_space_group_name_H-M	'P1'
_symmetry_Int_Tables_number	1
_symmetry_cell_setting	triclinic
loop_
_symmetry_equiv_pos_as_xyz
  x,y,z
_cell_length_a	14.044220
_cell_length_b	14.044190
_cell_length_c	13.101039
_cell_angle_alpha	86.336293
_cell_angle_beta	93.659868
_cell_angle_gamma	93.190328
loop_
_atom_site_label
_atom_site_type_symbol
_atom_site_fract_x
_atom_site_fract_y
_atom_site_fract_z
O1	O	1.281975	0.225348	0.085126
O2	O	1.531975	0.475348	0.335126
O3	O	1.781975	0.725348	0.585126
O4	O	2.031975	0.975348	0.835126
O5	O	1.005305	0.217041	0.085151
O6	O	1.255305	0.467041	0.335151
O7	O	1.505305	0.717041	0.585151
O8	O	1.755305	0.967041	0.835151
O9	O	1.139483	0.082859	0.085118
O10	O	1.389483	0.332859	0.335118
O11	O	1.639483	0.582859	0.585118
O12	O	1.889483	0.832859	0.835118
O13	O	1.147797	0.359530	0.085158
O14	O	1.397797	0.609530	0.335158
O15	O	1.647797	0.859530	0.585158
O16	O	1.897797	1.109530	0.835158
O17	O	1.129857	0.092504	-0.085309
O18	O	1.379857	0.342504	0.164691
O19	O	1.629857	0.592504	0.414691
O20	O	1.879857	0.842504	0.664691
O21	O	0.995679	0.226686	-0.085277
O22	O	1.245679	0.476686	0.164723
O23	O	1.495679	0.726686	0.414723
O24	O	1.745679	0.976686	0.664723
O25	O	1.272349	0.234993	-0.085302
O26	O	1.522349	0.484993	0.164698
O27	O	1.772349	0.734993	0.414698
O28	O	2.022349	0.984993	0.664698
Zn29	Zn	1.132486	0.232371	-0.112348
Zn30	Zn	1.382486	0.482371	0.137652
Zn31	Zn	1.632486	0.732371	0.387652
Zn32	Zn	1.882486	0.982371	0.637652
Zn33	Zn	1.145168	0.219663	0.112197
Zn34	Zn	1.395168	0.469663	0.362197
Zn35	Zn	1.645168	0.719663	0.612197
Zn36	Zn	1.895168	0.969663	0.862197
O37	O	1.138172	0.369174	-0.085270
O38	O	1.388172	0.619174	0.164730
O39	O	1.638172	0.869174	0.414730
O40	O	1.888172	1.119174	0.664730
C41	C	0.964870	0.218228	-0.000060
C42	C	1.214870	0.468228	0.249940
C43	C	1.464870	0.718228	0.499940
C44	C	1.714870	0.968228	0.749940
C45	C	0.858728	0.207382	-0.000051
C46	C	1.108728	0.457382	0.249949
C47	C	1.358728	0.707382	0.499949
C48	C	1.608728	0.957382	0.749949
C49	C	1.131033	0.052060	-0.000098
C50	C	1.381033	0.302060	0.249902
C51	C	1.631033	0.552060	0.499902
C52	C	1.881033	0.802060	0.749902
C53	C	1.120185	-0.054083	-0.000106
C54	C	1.370185	0.195917	0.249894
C55	C	1.620185	0.445917	0.499894
C56	C	1.870185	0.695917	0.749894
C57	C	1.177288	-0.299543	-0.000071
C58	C	1.427288	-0.049543	0.249929
C59	C	1.677288	0.200457	0.499929
C60	C	1.927288	0.450457	0.749929
C61	C	1.100371	-0.248418	-0.000071
C62	C	1.350371	0.001582	0.249929
C63	C	1.600371	0.251582	0.499929
C64	C	1.850371	0.501582	0.749929
C65	C	1.111398	-0.140280	-0.000091
C66	C	1.361398	0.109720	0.249909
C67	C	1.611398	0.359720	0.499909
C68	C	1.861398	0.609720	0.749909
C69	C	1.166262	-0.407691	-0.000052
C70	C	1.416262	-0.157691	0.249948
C71	C	1.666262	0.092309	0.499948
C72	C	1.916262	0.342309	0.749948
C73	C	0.664388	0.187557	-0.000075
C74	C	0.914388	0.437557	0.249925
C75	C	1.164388	0.687557	0.499925
C76	C	1.414388	0.937557	0.749925
C77	C	0.613261	0.264472	-0.000068
C78	C	0.863261	0.514472	0.249932
C79	C	1.113261	0.764472	0.499932
C80	C	1.363261	1.014472	0.749932
C81	C	0.505123	0.253441	-0.000081
C82	C	0.755123	0.503441	0.249919
C83	C	1.005123	0.753441	0.499919
C84	C	1.255123	1.003441	0.749919
C85	C	0.772535	0.198587	-0.000062
C86	C	1.022535	0.448587	0.249938
C87	C	1.272535	0.698587	0.499938
C88	C	1.522535	0.948587	0.749938
C89	C	1.312784	0.233806	-0.000089
C90	C	1.562784	0.483806	0.249911
C91	C	1.812784	0.733806	0.499911
C92	C	2.062784	0.983806	0.749911
C93	C	1.418927	0.244651	-0.000091
C94	C	1.668927	0.494651	0.249909
C95	C	1.918927	0.744651	0.499909
C96	C	2.168927	0.994651	0.749909
C97	C	1.146621	0.399974	-0.000051
C98	C	1.396621	0.649974	0.249949
C99	C	1.646621	0.899974	0.499949
C100	C	1.896621	1.149974	0.749949
C101	C	1.157470	0.506116	-0.000036
C102	C	1.407470	0.756116	0.249964
C103	C	1.657470	1.006116	0.499964
C104	C	1.907470	1.256116	0.749964
N105	N	1.123838	0.241043	-0.265595
N106	N	1.373838	0.491043	-0.015595
N107	N	1.623838	0.741043	0.234405
N108	N	1.873838	0.991043	0.484405
C109	C	1.112072	0.252851	-0.474635
C110	C	1.362072	0.502851	-0.224635
C111	C	1.612072	0.752851	0.025365
C112	C	1.862072	1.002851	0.275365
C113	C	1.165586	0.199179	-0.525523
C114	C	1.415586	0.449179	-0.275523
C115	C	1.665586	0.699179	-0.025523
C116	C	1.915586	0.949179	0.224477
C117	C	1.159040	0.205749	-0.641840
C118	C	1.409040	0.455749	-0.391840
C119	C	1.659040	0.705749	-0.141840
C120	C	1.909040	0.955749	0.108160
C121	C	1.118618	0.246282	-0.358307
C122	C	1.368618	0.496282	-0.108307
C123	C	1.618618	0.746282	0.141693
C124	C	1.868618	0.996282	0.391693
N125	N	1.153824	0.210984	0.265444
N126	N	1.403824	0.460984	0.515444
N127	N	1.653824	0.710984	0.765444
N128	N	1.903824	0.960984	1.015444
H129	H	1.026240	-0.285862	-0.000059
H130	H	1.276240	-0.035862	0.249941
H131	H	1.526240	0.214138	0.499941
H132	H	1.776240	0.464138	0.749941
H133	H	0.650703	0.338605	-0.000052
H134	H	0.900703	0.588605	0.249948
H135	H	1.150703	0.838605	0.499948
H136	H	1.400703	1.088605	0.749948
H137	H	1.061345	0.303733	-0.518419
H138	H	1.311345	0.553733	-0.268419
H139	H	1.561345	0.803733	-0.018419
H140	H	1.811345	1.053733	0.231581
Cl141	Cl	1.244308	0.121012	-0.457921
Cl142	Cl	1.494308	0.371012	-0.207921
Cl143	Cl	1.744308	0.621012	0.042079
Cl144	Cl	1.994308	0.871012	0.292079
Cl145	Cl	1.291735	-0.241735	-0.000098
Cl146	Cl	1.541735	0.008265	0.249902
Cl147	Cl	1.791735	0.258265	0.499902
Cl148	Cl	2.041735	0.508265	0.749902
H149	H	0.626948	0.113431	-0.000091
H150	H	0.876948	0.363431	0.249909
H151	H	1.126948	0.613431	0.499909
H152	H	1.376948	0.863431	0.749909
