data_functionalizedCrystal
_audit_creation_method	'MofGen! by Chris Wilmer'
_symmetry_space_group_name_H-M	'P1'
_symmetry_Int_Tables_number	1
_symmetry_cell_setting	triclinic
loop_
_symmetry_equiv_pos_as_xyz
  x,y,z
_cell_length_a	21.295417
_cell_length_b	18.101398
_cell_length_c	18.101389
_cell_angle_alpha	90.024327
_cell_angle_beta	89.977434
_cell_angle_gamma	89.974227
loop_
_atom_site_label
_atom_site_type_symbol
_atom_site_fract_x
_atom_site_fract_y
_atom_site_fract_z
Zn1	Zn	-0.250755	-1.132124	-0.418817
Zn2	Zn	-0.000755	-0.882124	-0.168817
Zn3	Zn	0.249245	-0.632124	0.081183
Zn4	Zn	0.499245	-0.382124	0.331183
Zn5	Zn	-0.356008	-1.132021	-0.294967
Zn6	Zn	-0.106008	-0.882021	-0.044967
Zn7	Zn	0.143992	-0.632021	0.205033
Zn8	Zn	0.393992	-0.382021	0.455033
Zn9	Zn	-0.250748	-1.008283	-0.294979
Zn10	Zn	-0.000748	-0.758283	-0.044979
Zn11	Zn	0.249252	-0.508283	0.205021
Zn12	Zn	0.499252	-0.258283	0.455021
Zn13	Zn	-0.355981	-1.008235	-0.418755
Zn14	Zn	-0.105981	-0.758235	-0.168755
Zn15	Zn	0.144019	-0.508235	0.081245
Zn16	Zn	0.394019	-0.258235	0.331245
O17	O	-0.303373	-1.070166	-0.356880
O18	O	-0.053373	-0.820166	-0.106880
O19	O	0.196627	-0.570166	0.143120
O20	O	0.446627	-0.320166	0.393120
O21	O	-0.264731	-1.235743	-0.402409
O22	O	-0.014731	-0.985743	-0.152409
O23	O	0.235269	-0.735743	0.097591
O24	O	0.485269	-0.485743	0.347591
O25	O	-0.342054	-1.115584	-0.191335
O26	O	-0.092054	-0.865584	0.058665
O27	O	0.157946	-0.615584	0.308665
O28	O	0.407946	-0.365584	0.558665
O29	O	-0.162660	-1.024774	-0.311437
O30	O	0.087340	-0.774774	-0.061437
O31	O	0.337340	-0.524774	0.188563
O32	O	0.587340	-0.274774	0.438563
O33	O	-0.342060	-1.235668	-0.311417
O34	O	-0.092060	-0.985668	-0.061417
O35	O	0.157940	-0.735668	0.188583
O36	O	0.407940	-0.485668	0.438583
O37	O	-0.162664	-1.115759	-0.402421
O38	O	0.087336	-0.865759	-0.152421
O39	O	0.337336	-0.615759	0.097579
O40	O	0.587336	-0.365759	0.347579
O41	O	-0.264720	-1.024674	-0.191344
O42	O	-0.014720	-0.774674	0.058656
O43	O	0.235280	-0.524674	0.308656
O44	O	0.485280	-0.274674	0.558656
O45	O	-0.264694	-0.904644	-0.311377
O46	O	-0.014694	-0.654644	-0.061377
O47	O	0.235306	-0.404644	0.188623
O48	O	0.485306	-0.154644	0.438623
O49	O	-0.342014	-1.024692	-0.522397
O50	O	-0.092014	-0.774692	-0.272397
O51	O	0.157986	-0.524692	-0.022397
O52	O	0.407986	-0.274692	0.227603
O53	O	-0.342008	-0.904609	-0.402315
O54	O	-0.092008	-0.654609	-0.152315
O55	O	0.157992	-0.404609	0.097685
O56	O	0.407992	-0.154609	0.347685
O57	O	-0.264705	-1.115713	-0.522442
O58	O	-0.014705	-0.865713	-0.272442
O59	O	0.235295	-0.615713	-0.022442
O60	O	0.485295	-0.365713	0.227558
O61	O	-0.444094	-1.115538	-0.311357
O62	O	-0.194094	-0.865538	-0.061357
O63	O	0.055906	-0.615538	0.188643
O64	O	0.305906	-0.365538	0.438643
O65	O	-0.444074	-1.024592	-0.402304
O66	O	-0.194074	-0.774592	-0.152304
O67	O	0.055926	-0.524592	0.097696
O68	O	0.305926	-0.274592	0.347696
C69	C	-0.466925	-1.070069	-0.356839
C70	C	-0.216925	-0.820069	-0.106839
C71	C	0.033075	-0.570069	0.143161
C72	C	0.283075	-0.320069	0.393161
C73	C	-0.536893	-1.070095	-0.356846
C74	C	-0.286893	-0.820095	-0.106846
C75	C	-0.036893	-0.570095	0.143154
C76	C	0.213107	-0.320095	0.393154
C77	C	-0.303348	-0.877755	-0.356841
C78	C	-0.053348	-0.627755	-0.106841
C79	C	0.196652	-0.377755	0.143159
C80	C	0.446652	-0.127755	0.393159
C81	C	-0.303352	-0.795441	-0.356842
C82	C	-0.053352	-0.545441	-0.106842
C83	C	0.196648	-0.295441	0.143158
C84	C	0.446648	-0.045441	0.393158
C85	C	-0.303357	-1.070209	-0.550042
C86	C	-0.053357	-0.820209	-0.300042
C87	C	0.196643	-0.570209	-0.050042
C88	C	0.446643	-0.320209	0.199958
C89	C	-0.303350	-1.070227	-0.632356
C90	C	-0.053350	-0.820227	-0.382356
C91	C	0.196650	-0.570227	-0.132356
C92	C	0.446650	-0.320227	0.117644
C93	C	-0.569749	-1.117492	-0.309538
C94	C	-0.319749	-0.867492	-0.059538
C95	C	-0.069749	-0.617492	0.190462
C96	C	0.180251	-0.367492	0.440462
C97	C	-0.635491	-1.117527	-0.309555
C98	C	-0.385491	-0.867527	-0.059555
C99	C	-0.135491	-0.617527	0.190445
C100	C	0.114509	-0.367527	0.440445
C101	C	-0.668375	-1.070151	-0.356871
C102	C	-0.418375	-0.820151	-0.106871
C103	C	-0.168375	-0.570151	0.143129
C104	C	0.081625	-0.320151	0.393129
C105	C	-0.635511	-1.022751	-0.404188
C106	C	-0.385511	-0.772751	-0.154188
C107	C	-0.135511	-0.522751	0.095812
C108	C	0.114489	-0.272751	0.345812
C109	C	-0.569770	-1.022722	-0.404175
C110	C	-0.319770	-0.772722	-0.154175
C111	C	-0.069770	-0.522722	0.095825
C112	C	0.180230	-0.272722	0.345825
N113	N	-0.771637	-1.005367	-0.362504
N114	N	-0.521637	-0.755367	-0.112504
N115	N	-0.271637	-0.505367	0.137496
N116	N	-0.021637	-0.255367	0.387496
N117	N	-0.834089	-1.005396	-0.362512
N118	N	-0.584089	-0.755396	-0.112512
N119	N	-0.334089	-0.505396	0.137488
N120	N	-0.084089	-0.255396	0.387488
C121	C	-0.866450	-1.070234	-0.356914
C122	C	-0.616450	-0.820234	-0.106914
C123	C	-0.366450	-0.570234	0.143086
C124	C	-0.116450	-0.320234	0.393086
N125	N	-0.834001	-1.135044	-0.351293
N126	N	-0.584001	-0.885044	-0.101293
N127	N	-0.334001	-0.635044	0.148707
N128	N	-0.084001	-0.385044	0.398707
N129	N	-0.771543	-1.135014	-0.351282
N130	N	-0.521543	-0.885014	-0.101282
N131	N	-0.271543	-0.635014	0.148718
N132	N	-0.021543	-0.385014	0.398718
C133	C	-0.739661	-1.070177	-0.356891
C134	C	-0.489661	-0.820177	-0.106891
C135	C	-0.239661	-0.570177	0.143109
C136	C	0.010339	-0.320177	0.393109
C137	C	-0.970592	-1.117673	-0.309622
C138	C	-0.720592	-0.867673	-0.059622
C139	C	-0.470592	-0.617673	0.190378
C140	C	-0.220592	-0.367673	0.440378
C141	C	-1.036335	-1.117709	-0.309644
C142	C	-0.786335	-0.867709	-0.059644
C143	C	-0.536335	-0.617709	0.190356
C144	C	-0.286335	-0.367709	0.440356
C145	C	-1.036354	-1.022926	-0.404273
C146	C	-0.786354	-0.772926	-0.154273
C147	C	-0.536354	-0.522926	0.095727
C148	C	-0.286354	-0.272926	0.345727
C149	C	-0.970612	-1.022897	-0.404255
C150	C	-0.720612	-0.772897	-0.154255
C151	C	-0.470612	-0.522897	0.095745
C152	C	-0.220612	-0.272897	0.345745
C153	C	-0.937734	-1.070269	-0.356925
C154	C	-0.687734	-0.820269	-0.106925
C155	C	-0.437734	-0.570269	0.143075
C156	C	-0.187734	-0.320269	0.393075
C157	C	-0.139183	-1.070283	-0.356937
C158	C	0.110817	-0.820283	-0.106937
C159	C	0.360817	-0.570283	0.143063
C160	C	0.610817	-0.320283	0.393063
C161	C	-0.069215	-1.070334	-0.356961
C162	C	0.180785	-0.820334	-0.106961
C163	C	0.430785	-0.570334	0.143039
C164	C	0.680785	-0.320334	0.393039
C165	C	-0.303399	-1.263328	-0.356919
C166	C	-0.053399	-1.013328	-0.106919
C167	C	0.196601	-0.763328	0.143081
C168	C	0.446601	-0.513328	0.393081
C169	C	-0.303410	-1.345642	-0.356935
C170	C	-0.053410	-1.095642	-0.106935
C171	C	0.196590	-0.845642	0.143065
C172	C	0.446590	-0.595642	0.393065
C173	C	-0.303391	-0.496350	-0.356904
C174	C	-0.053391	-0.246350	-0.106904
C175	C	0.196609	0.003650	0.143096
C176	C	0.446609	0.253650	0.393096
C177	C	-0.254504	-0.527673	-0.299967
C178	C	-0.004504	-0.277673	-0.049967
C179	C	0.245496	-0.027673	0.200033
C180	C	0.495496	0.222327	0.450033
C181	C	-0.254635	-0.613291	-0.299724
C182	C	-0.004635	-0.363291	-0.049724
C183	C	0.245365	-0.113291	0.200276
C184	C	0.495365	0.136709	0.450276
C185	C	-0.303371	-0.644733	-0.356873
C186	C	-0.053371	-0.394733	-0.106873
C187	C	0.196629	-0.144733	0.143127
C188	C	0.446629	0.105267	0.393127
C189	C	-0.369679	-0.613615	-0.335543
C190	C	-0.119679	-0.363615	-0.085543
C191	C	0.130321	-0.113615	0.164457
C192	C	0.380321	0.136385	0.414457
C193	C	-0.369407	-0.527970	-0.335147
C194	C	-0.119407	-0.277970	-0.085147
C195	C	0.130593	-0.027970	0.164853
C196	C	0.380593	0.222030	0.414853
C197	C	-0.286547	-0.527965	-0.435305
C198	C	-0.036547	-0.277965	-0.185305
C199	C	0.213453	-0.027965	0.064695
C200	C	0.463453	0.222035	0.314695
C201	C	-0.285070	-0.613615	-0.434877
C202	C	-0.035070	-0.363615	-0.184877
C203	C	0.214930	-0.113615	0.065123
C204	C	0.464930	0.136385	0.315123
C205	C	-0.303364	-0.728592	-0.356857
C206	C	-0.053364	-0.478592	-0.106857
C207	C	0.196636	-0.228592	0.143143
C208	C	0.446636	0.021408	0.393143
C209	C	-0.303403	-0.412491	-0.356919
C210	C	-0.053403	-0.162491	-0.106919
C211	C	0.196597	0.087509	0.143081
C212	C	0.446597	0.337509	0.393081
C213	C	-0.303232	-1.070270	-0.931447
C214	C	-0.053232	-0.820270	-0.681447
C215	C	0.196768	-0.570270	-0.431447
C216	C	0.446768	-0.320270	-0.181447
C217	C	-0.351719	-1.012805	-0.900093
C218	C	-0.101719	-0.762805	-0.650093
C219	C	0.148281	-0.512805	-0.400093
C220	C	0.398281	-0.262805	-0.150093
C221	C	-0.351944	-1.012960	-0.814475
C222	C	-0.101944	-0.762960	-0.564475
C223	C	0.148056	-0.512960	-0.314475
C224	C	0.398056	-0.262960	-0.064475
C225	C	-0.303291	-1.070248	-0.783064
C226	C	-0.053291	-0.820248	-0.533064
C227	C	0.196709	-0.570248	-0.283064
C228	C	0.446709	-0.320248	-0.033064
C229	C	-0.321303	-1.148274	-0.814168
C230	C	-0.071303	-0.898274	-0.564168
C231	C	0.178697	-0.648274	-0.314168
C232	C	0.428697	-0.398274	-0.064168
C233	C	-0.321621	-1.147953	-0.899813
C234	C	-0.071621	-0.897953	-0.649813
C235	C	0.178379	-0.647953	-0.399813
C236	C	0.428379	-0.397953	-0.149813
C237	C	-0.236626	-1.050388	-0.899877
C238	C	0.013374	-0.800388	-0.649877
C239	C	0.263374	-0.550388	-0.399877
C240	C	0.513374	-0.300388	-0.149877
C241	C	-0.237011	-1.048652	-0.814226
C242	C	0.012989	-0.798652	-0.564226
C243	C	0.262989	-0.548652	-0.314226
C244	C	0.512989	-0.298652	-0.064226
C245	C	-0.303323	-1.070240	-0.699205
C246	C	-0.053323	-0.820240	-0.449205
C247	C	0.196677	-0.570240	-0.199205
C248	C	0.446677	-0.320240	0.050795
C249	C	-0.303202	-1.070283	-1.015306
C250	C	-0.053202	-0.820283	-0.765306
C251	C	0.196798	-0.570283	-0.515306
C252	C	0.446798	-0.320283	-0.265306
C253	C	-0.303344	-1.070166	-0.164469
C254	C	-0.053344	-0.820166	0.085531
C255	C	0.196656	-0.570166	0.335531
C256	C	0.446656	-0.320166	0.585531
C257	C	-0.303173	-1.070291	-0.082155
C258	C	-0.053173	-0.820291	0.167845
C259	C	0.196827	-0.570291	0.417845
C260	C	0.446827	-0.320291	0.667845
H261	H	-0.542982	-1.156067	-0.271002
H262	H	-0.292982	-0.906067	-0.021002
H263	H	-0.042982	-0.656067	0.228998
H264	H	0.207018	-0.406067	0.478998
H265	H	-0.322155	-0.507709	-0.477728
H266	H	-0.072155	-0.257709	-0.227728
H267	H	0.177845	-0.007709	0.022272
H268	H	0.427845	0.242291	0.272272
H269	H	-0.265769	-0.633745	-0.241630
H270	H	-0.015769	-0.383745	0.008370
H271	H	0.234231	-0.133745	0.258370
H272	H	0.484231	0.116255	0.508370
H273	H	-0.943858	-0.984298	-0.442774
H274	H	-0.693858	-0.734298	-0.192774
H275	H	-0.443858	-0.484298	0.057226
H276	H	-0.193858	-0.234298	0.307226
H277	H	-0.370312	-1.164808	-0.919793
H278	H	-0.120312	-0.914808	-0.669793
H279	H	0.129688	-0.664808	-0.419793
H280	H	0.379688	-0.414808	-0.169793
F281	F	-0.189408	-1.105095	-0.926382
F282	F	0.060592	-0.855095	-0.676382
F283	F	0.310592	-0.605095	-0.426382
F284	F	0.560592	-0.355095	-0.176382
H285	H	-0.401314	-1.026087	-0.793988
H286	H	-0.151314	-0.776087	-0.543988
H287	H	0.098686	-0.526087	-0.293988
H288	H	0.348686	-0.276087	-0.043988
H289	H	-0.662248	-1.156126	-0.271032
H290	H	-0.412248	-0.906126	-0.021032
H291	H	-0.162248	-0.656126	0.228968
H292	H	0.087752	-0.406126	0.478968
H293	H	-0.369476	-1.165420	-0.792722
H294	H	-0.119476	-0.915420	-0.542722
H295	H	0.130524	-0.665420	-0.292722
H296	H	0.380524	-0.415420	-0.042722
H297	H	-0.198968	-1.087452	-0.792845
H298	H	0.051032	-0.837452	-0.542845
H299	H	0.301032	-0.587452	-0.292845
H300	H	0.551032	-0.337452	-0.042845
F301	F	-0.670509	-0.972333	-0.454548
F302	F	-0.420509	-0.722333	-0.204548
F303	F	-0.170509	-0.472333	0.045452
F304	F	0.079491	-0.222333	0.295452
H305	H	-0.265512	-0.506124	-0.242211
H306	H	-0.015512	-0.256124	0.007789
H307	H	0.234488	-0.006124	0.257789
H308	H	0.484488	0.243876	0.507789
F309	F	-0.277438	-1.205782	-0.926929
F310	F	-0.027438	-0.955782	-0.676929
F311	F	0.222562	-0.705782	-0.426929
F312	F	0.472562	-0.455782	-0.176929
H313	H	-0.205465	-0.634331	-0.313095
H314	H	0.044535	-0.384331	-0.063095
H315	H	0.294535	-0.134331	0.186905
H316	H	0.544535	0.115669	0.436905
F317	F	-0.418630	-0.500883	-0.386983
F318	F	-0.168630	-0.250883	-0.136983
F319	F	0.081370	-0.000883	0.113017
F320	F	0.331370	0.249117	0.363017
F321	F	-0.935599	-1.168090	-0.259250
F322	F	-0.685599	-0.918090	-0.009250
F323	F	-0.435599	-0.668090	0.240750
F324	F	-0.185599	-0.418090	0.490750
F325	F	-0.337134	-0.936948	-0.926994
F326	F	-0.087134	-0.686948	-0.676994
F327	F	0.162866	-0.436948	-0.426994
F328	F	0.412866	-0.186948	-0.176994
F329	F	-0.190036	-0.500786	-0.317250
F330	F	0.059964	-0.250786	-0.067250
F331	F	0.309964	-0.000786	0.182750
F332	F	0.559964	0.249214	0.432750
F333	F	-0.418564	-0.640225	-0.388054
F334	F	-0.168564	-0.390225	-0.138054
F335	F	0.081436	-0.140225	0.111946
F336	F	0.331436	0.109775	0.361946
F337	F	-0.388079	-0.501811	-0.260232
F338	F	-0.138079	-0.251811	-0.010232
F339	F	0.111921	-0.001811	0.239768
F340	F	0.361921	0.248189	0.489768
F341	F	-0.388677	-0.641603	-0.261437
F342	F	-0.138677	-0.391603	-0.011437
F343	F	0.111323	-0.141603	0.238563
F344	F	0.361323	0.108397	0.488563
H345	H	-1.063127	-0.984355	-0.442802
H346	H	-0.813127	-0.734355	-0.192802
H347	H	-0.563127	-0.484355	0.057198
H348	H	-0.313127	-0.234355	0.307198
F349	F	-0.276595	-1.205742	-0.787581
F350	F	-0.026595	-0.955742	-0.537581
F351	F	0.223405	-0.705742	-0.287581
F352	F	0.473405	-0.455742	-0.037581
H353	H	-0.239037	-0.506392	-0.454697
H354	H	0.010963	-0.256392	-0.204697
H355	H	0.260963	-0.006392	0.045303
H356	H	0.510963	0.243608	0.295303
F357	F	-0.215178	-0.977312	-0.928090
F358	F	0.034822	-0.727312	-0.678090
F359	F	0.284822	-0.477312	-0.428090
F360	F	0.534822	-0.227312	-0.178090
F361	F	-0.221296	-0.640215	-0.455907
F362	F	0.028704	-0.390215	-0.205907
F363	F	0.278704	-0.140215	0.044093
F364	F	0.528704	0.109785	0.294093
F365	F	-0.219258	-0.973596	-0.787661
F366	F	0.030742	-0.723596	-0.537661
F367	F	0.280742	-0.473596	-0.287661
F368	F	0.530742	-0.223596	-0.037661
F369	F	-0.328222	-0.641590	-0.493300
F370	F	-0.078222	-0.391590	-0.243300
F371	F	0.171778	-0.141590	0.006700
F372	F	0.421778	0.108410	0.256700
H373	H	-0.400788	-1.025801	-0.921614
H374	H	-0.150788	-0.775801	-0.671614
H375	H	0.099212	-0.525801	-0.421614
H376	H	0.349212	-0.275801	-0.171614
F377	F	-0.534801	-0.972274	-0.454529
F378	F	-0.284801	-0.722274	-0.204529
F379	F	-0.034801	-0.472274	0.045471
F380	F	0.215199	-0.222274	0.295471
F381	F	-0.337207	-0.937335	-0.786983
F382	F	-0.087207	-0.687335	-0.536983
F383	F	0.162793	-0.437335	-0.286983
F384	F	0.412793	-0.187335	-0.036983
F385	F	-1.071303	-1.168163	-0.259294
F386	F	-0.821303	-0.918163	-0.009294
F387	F	-0.571303	-0.668163	0.240706
F388	F	-0.321303	-0.418163	0.490706
