data_functionalizedCrystal
_audit_creation_method	'MofGen! by Chris Wilmer'
_symmetry_space_group_name_H-M	'P1'
_symmetry_Int_Tables_number	1
_symmetry_cell_setting	triclinic
loop_
_symmetry_equiv_pos_as_xyz
  x,y,z
_cell_length_a	23.532355
_cell_length_b	16.109301
_cell_length_c	14.586319
_cell_angle_alpha	89.998390
_cell_angle_beta	90.000005
_cell_angle_gamma	96.855510
loop_
_atom_site_label
_atom_site_type_symbol
_atom_site_fract_x
_atom_site_fract_y
_atom_site_fract_z
O1	O	0.755652	-0.100714	0.076119
O2	O	1.005652	0.149286	0.326119
O3	O	1.255652	0.399286	0.576119
O4	O	1.505652	0.649286	0.826119
O5	O	0.589838	-0.115362	0.076148
O6	O	0.839838	0.134638	0.326148
O7	O	1.089838	0.384638	0.576148
O8	O	1.339838	0.634638	0.826148
O9	O	0.677300	0.013030	0.076123
O10	O	0.927300	0.263030	0.326123
O11	O	1.177300	0.513030	0.576123
O12	O	1.427300	0.763030	0.826123
O13	O	0.668190	-0.229106	0.076144
O14	O	0.918190	0.020894	0.326144
O15	O	1.168190	0.270894	0.576144
O16	O	1.418190	0.520894	0.826144
O17	O	0.677289	0.013022	-0.076358
O18	O	0.927289	0.263022	0.173642
O19	O	1.177289	0.513022	0.423642
O20	O	1.427289	0.763022	0.673642
O21	O	0.589828	-0.115370	-0.076333
O22	O	0.839828	0.134630	0.173667
O23	O	1.089828	0.384630	0.423667
O24	O	1.339828	0.634630	0.673667
O25	O	0.755641	-0.100722	-0.076362
O26	O	1.005641	0.149278	0.173638
O27	O	1.255641	0.399278	0.423638
O28	O	1.505641	0.649278	0.673638
Cu29	Cu	0.672733	-0.108047	-0.090270
Cu30	Cu	0.922733	0.141953	0.159730
Cu31	Cu	1.172733	0.391953	0.409730
Cu32	Cu	1.422733	0.641953	0.659730
Cu33	Cu	0.672746	-0.108038	0.090056
Cu34	Cu	0.922746	0.141962	0.340056
Cu35	Cu	1.172746	0.391962	0.590056
Cu36	Cu	1.422746	0.641962	0.840056
O37	O	0.668179	-0.229114	-0.076337
O38	O	0.918179	0.020886	0.173663
O39	O	1.168179	0.270886	0.423663
O40	O	1.418179	0.520886	0.673663
C41	C	0.568615	-0.115000	-0.000089
C42	C	0.818615	0.135000	0.249911
C43	C	1.068615	0.385000	0.499911
C44	C	1.318615	0.635000	0.749911
C45	C	0.505392	-0.113899	-0.000078
C46	C	0.755392	0.136101	0.249922
C47	C	1.005392	0.386101	0.499922
C48	C	1.255392	0.636101	0.749922
C49	C	0.113347	-0.106987	-0.083234
C50	C	0.363347	0.143013	0.166766
C51	C	0.613347	0.393013	0.416766
C52	C	0.863347	0.643013	0.666766
C53	C	0.053944	-0.105939	-0.083237
C54	C	0.303944	0.144061	0.166763
C55	C	0.553944	0.394061	0.416763
C56	C	0.803944	0.644061	0.666763
O57	O	0.023218	-0.105373	-0.153925
O58	O	0.273218	0.144627	0.096075
O59	O	0.523218	0.394627	0.346075
O60	O	0.773218	0.644627	0.596075
N61	N	0.024239	-0.105416	-0.000121
N62	N	0.274239	0.144584	0.249879
N63	N	0.524239	0.394584	0.499879
N64	N	0.774239	0.644584	0.749879
C65	C	0.053942	-0.105931	0.083005
C66	C	0.303942	0.144069	0.333005
C67	C	0.553942	0.394069	0.583005
C68	C	0.803942	0.644069	0.833005
O69	O	0.023221	-0.105389	0.153703
O70	O	0.273221	0.144611	0.403703
O71	O	0.523221	0.394611	0.653703
O72	O	0.773221	0.644611	0.903703
C73	C	0.113345	-0.106973	0.083008
C74	C	0.363345	0.143027	0.333008
C75	C	0.613345	0.393027	0.583008
C76	C	0.863345	0.643027	0.833008
C77	C	0.143045	-0.107505	-0.000114
C78	C	0.393045	0.142495	0.249886
C79	C	0.643045	0.392495	0.499886
C80	C	0.893045	0.642495	0.749886
C81	C	0.143048	-0.107518	-0.166349
C82	C	0.393048	0.142482	0.083651
C83	C	0.643048	0.392482	0.333651
C84	C	0.893048	0.642482	0.583651
C85	C	0.202447	-0.108566	-0.166345
C86	C	0.452447	0.141434	0.083655
C87	C	0.702447	0.391434	0.333655
C88	C	0.952447	0.641434	0.583655
C89	C	0.232145	-0.109084	-0.083226
C90	C	0.482145	0.140916	0.166774
C91	C	0.732145	0.390916	0.416774
C92	C	0.982145	0.640916	0.666774
C93	C	0.202444	-0.108553	-0.000110
C94	C	0.452444	0.141447	0.249890
C95	C	0.702444	0.391447	0.499890
C96	C	0.952444	0.641447	0.749890
C97	C	0.143047	-0.107482	0.166133
C98	C	0.393047	0.142518	0.416133
C99	C	0.643047	0.392518	0.666133
C100	C	0.893047	0.642518	0.916133
C101	C	0.202453	-0.108523	0.166129
C102	C	0.452453	0.141477	0.416129
C103	C	0.702453	0.391477	0.666129
C104	C	0.952453	0.641477	0.916129
C105	C	0.232154	-0.109055	0.083006
C106	C	0.482154	0.140945	0.333006
C107	C	0.732154	0.390945	0.583006
C108	C	0.982154	0.640945	0.833006
C109	C	0.291542	-0.110120	0.083013
C110	C	0.541542	0.139880	0.333013
C111	C	0.791542	0.389880	0.583013
C112	C	1.041542	0.639880	0.833013
N113	N	0.321246	-0.110644	-0.000104
N114	N	0.571246	0.139356	0.249896
N115	N	0.821246	0.389356	0.499896
N116	N	1.071246	0.639356	0.749896
C117	C	0.291548	-0.110126	-0.083223
C118	C	0.541548	0.139874	0.166777
C119	C	0.791548	0.389874	0.416777
C120	C	1.041548	0.639874	0.666777
C121	C	-0.070808	-0.103743	0.082993
C122	C	0.179192	0.146257	0.332993
C123	C	0.429192	0.396257	0.582993
C124	C	0.679192	0.646257	0.832993
C125	C	-0.130210	-0.102707	0.082992
C126	C	0.119790	0.147293	0.332992
C127	C	0.369790	0.397293	0.582992
C128	C	0.619790	0.647293	0.832992
C129	C	-0.130204	-0.102714	-0.083251
C130	C	0.119796	0.147286	0.166749
C131	C	0.369796	0.397286	0.416749
C132	C	0.619796	0.647286	0.666749
C133	C	-0.070801	-0.103755	-0.083249
C134	C	0.179199	0.146245	0.166751
C135	C	0.429199	0.396245	0.416751
C136	C	0.679199	0.646245	0.666751
C137	C	-0.041103	-0.104266	-0.000123
C138	C	0.208897	0.145734	0.249877
C139	C	0.458897	0.395734	0.499877
C140	C	0.708897	0.645734	0.749877
C141	C	0.416290	-0.112329	-0.083209
C142	C	0.666290	0.137671	0.166791
C143	C	0.916290	0.387671	0.416791
C144	C	1.166290	0.637671	0.666791
C145	C	0.475694	-0.113382	-0.083197
C146	C	0.725694	0.136618	0.166803
C147	C	0.975694	0.386618	0.416803
C148	C	1.225694	0.636618	0.666803
C149	C	0.475683	-0.113370	0.083045
C150	C	0.725683	0.136630	0.333045
C151	C	0.975683	0.386630	0.583045
C152	C	1.225683	0.636630	0.833045
C153	C	0.416284	-0.112323	0.083035
C154	C	0.666284	0.137677	0.333035
C155	C	0.916284	0.387677	0.583035
C156	C	1.166284	0.637677	0.833035
C157	C	0.386589	-0.111799	-0.000100
C158	C	0.636589	0.138201	0.249900
C159	C	0.886589	0.388201	0.499900
C160	C	1.136589	0.638201	0.749900
O161	O	0.322305	-0.110684	0.153664
O162	O	0.572305	0.139316	0.403664
O163	O	0.822305	0.389316	0.653664
O164	O	1.072305	0.639316	0.903664
O165	O	0.322277	-0.110657	-0.153908
O166	O	0.572277	0.139343	0.096092
O167	O	0.822277	0.389343	0.346092
O168	O	1.072277	0.639343	0.596092
C169	C	0.676926	0.043998	-0.000118
C170	C	0.926926	0.293998	0.249882
C171	C	1.176926	0.543998	0.499882
C172	C	1.426926	0.793998	0.749882
C173	C	0.675819	0.136284	-0.000119
C174	C	0.925819	0.386284	0.249881
C175	C	1.175819	0.636284	0.499881
C176	C	1.425819	0.886284	0.749881
C177	C	0.776864	-0.101084	-0.000123
C178	C	1.026864	0.148916	0.249877
C179	C	1.276864	0.398916	0.499877
C180	C	1.526864	0.648916	0.749877
C181	C	0.840087	-0.102185	-0.000128
C182	C	1.090087	0.147815	0.249872
C183	C	1.340087	0.397815	0.499872
C184	C	1.590087	0.647815	0.749872
N185	N	0.672729	-0.108053	-0.217102
N186	N	0.922729	0.141947	0.032898
N187	N	1.172729	0.391947	0.282898
N188	N	1.422729	0.641947	0.532898
C189	C	0.668554	-0.260082	-0.000094
C190	C	0.918554	-0.010082	0.249906
C191	C	1.168554	0.239918	0.499906
C192	C	1.418554	0.489918	0.749906
C193	C	0.669660	-0.352368	-0.000087
C194	C	0.919660	-0.102368	0.249913
C195	C	1.169660	0.147632	0.499913
C196	C	1.419660	0.397632	0.749913
C197	C	0.725145	0.358958	-0.000113
C198	C	0.975145	0.608958	0.249887
C199	C	1.225145	0.858958	0.499887
C200	C	1.475145	1.108958	0.749887
C201	C	0.724101	0.445670	-0.000105
C202	C	0.974101	0.695670	0.249895
C203	C	1.224101	0.945670	0.499895
C204	C	1.474101	1.195670	0.749895
C205	C	0.620331	0.424951	-0.000090
C206	C	0.870331	0.674951	0.249910
C207	C	1.120331	0.924951	0.499910
C208	C	1.370331	1.174951	0.749910
C209	C	0.621375	0.338241	-0.000091
C210	C	0.871375	0.588241	0.249909
C211	C	1.121375	0.838241	0.499909
C212	C	1.371375	1.088241	0.749909
C213	C	0.673784	0.305247	-0.000107
C214	C	0.923784	0.555247	0.249893
C215	C	1.173784	0.805247	0.499893
C216	C	1.423784	1.055247	0.749893
C217	C	0.671695	0.478669	-0.000099
C218	C	0.921695	0.728669	0.249901
C219	C	1.171695	0.978669	0.499901
C220	C	1.421695	1.228669	0.749901
C221	C	0.670563	0.572686	-0.000090
C222	C	0.920563	0.822686	0.249910
C223	C	1.170563	1.072686	0.499910
C224	C	1.420563	1.322686	0.749910
C225	C	0.674917	0.211224	-0.000114
C226	C	0.924917	0.461224	0.249886
C227	C	1.174917	0.711224	0.499886
C228	C	1.424917	0.961224	0.749886
C229	C	0.707269	-0.158200	-0.452110
C230	C	0.957269	0.091800	-0.202110
C231	C	1.207269	0.341800	0.047890
C232	C	1.457269	0.591800	0.297890
C233	C	0.707275	-0.158194	-0.548092
C234	C	0.957275	0.091806	-0.298092
C235	C	1.207275	0.341806	-0.048092
C236	C	1.457275	0.591806	0.201908
C237	C	0.638214	-0.057872	-0.548097
C238	C	0.888214	0.192128	-0.298097
C239	C	1.138214	0.442128	-0.048097
C240	C	1.388214	0.692128	0.201903
C241	C	0.638212	-0.057874	-0.452118
C242	C	0.888212	0.192126	-0.202118
C243	C	1.138212	0.442126	0.047882
C244	C	1.388212	0.692126	0.297882
C245	C	0.672738	-0.108043	-0.404127
C246	C	0.922738	0.141957	-0.154127
C247	C	1.172738	0.391957	0.095873
C248	C	1.422738	0.641957	0.345873
C249	C	0.672746	-0.108035	-0.596087
C250	C	0.922746	0.141965	-0.346087
C251	C	1.172746	0.391965	-0.096087
C252	C	1.422746	0.641965	0.153913
C253	C	0.672752	-0.108028	-0.700155
C254	C	0.922752	0.141972	-0.450155
C255	C	1.172752	0.391972	-0.200155
C256	C	1.422752	0.641972	0.049845
C257	C	0.672733	-0.108048	-0.300053
C258	C	0.922733	0.141952	-0.050053
C259	C	1.172733	0.391952	0.199947
C260	C	1.422733	0.641952	0.449947
N261	N	0.672755	-0.108025	0.216888
N262	N	0.922755	0.141975	0.466888
N263	N	1.172755	0.391975	0.716888
N264	N	1.422755	0.641975	0.966888
H265	H	0.226625	-0.108995	-0.234032
H266	H	0.476625	0.141005	0.015968
H267	H	0.726625	0.391005	0.265968
H268	H	0.976625	0.641005	0.515968
Cl269	Cl	0.513028	-0.114053	-0.187702
Cl270	Cl	0.763028	0.135947	0.062298
Cl271	Cl	1.013028	0.385947	0.312298
Cl272	Cl	1.263028	0.635947	0.562298
Cl273	Cl	0.239784	-0.109163	0.270636
Cl274	Cl	0.489784	0.140837	0.520636
Cl275	Cl	0.739784	0.390837	0.770636
Cl276	Cl	0.989784	0.640837	1.020636
H277	H	0.610092	-0.017025	-0.413048
H278	H	0.860092	0.232975	-0.163048
H279	H	1.110092	0.482975	0.086952
H280	H	1.360092	0.732975	0.336952
Cl281	Cl	0.105724	-0.106872	-0.270857
Cl282	Cl	0.355724	0.143128	-0.020857
Cl283	Cl	0.605724	0.393128	0.229143
Cl284	Cl	0.855724	0.643128	0.479143
H285	H	0.735394	-0.199037	-0.587156
H286	H	0.985394	0.050963	-0.337156
H287	H	1.235394	0.300963	-0.087156
H288	H	1.485394	0.550963	0.162844
Cl289	Cl	0.594808	0.005187	-0.608435
Cl290	Cl	0.844808	0.255187	-0.358435
Cl291	Cl	1.094808	0.505187	-0.108435
Cl292	Cl	1.344808	0.755187	0.141565
Cl293	Cl	0.378969	-0.111671	-0.187722
Cl294	Cl	0.628969	0.138329	0.062278
Cl295	Cl	0.878969	0.388329	0.312278
Cl296	Cl	1.128969	0.638329	0.562278
H297	H	0.577661	0.451826	-0.000079
H298	H	0.827661	0.701826	0.249921
H299	H	1.077661	0.951826	0.499921
H300	H	1.327661	1.201826	0.749921
Cl301	Cl	-0.167549	-0.102059	-0.187746
Cl302	Cl	0.082451	0.147941	0.062254
Cl303	Cl	0.332451	0.397941	0.312254
Cl304	Cl	0.582451	0.647941	0.562254
Cl305	Cl	-0.033469	-0.104421	-0.187749
Cl306	Cl	0.216531	0.145579	0.062251
Cl307	Cl	0.466531	0.395579	0.312251
Cl308	Cl	0.716531	0.645579	0.562251
Cl309	Cl	-0.033480	-0.104395	0.187505
Cl310	Cl	0.216520	0.145605	0.437505
Cl311	Cl	0.466520	0.395605	0.687505
Cl312	Cl	0.716520	0.645605	0.937505
Cl313	Cl	-0.167542	-0.102055	0.187493
Cl314	Cl	0.082458	0.147945	0.437493
Cl315	Cl	0.332458	0.397945	0.687493
Cl316	Cl	0.582458	0.647945	0.937493
H317	H	0.579548	0.294507	-0.000084
H318	H	0.829548	0.544507	0.249916
H319	H	1.079548	0.794507	0.499916
H320	H	1.329548	1.044507	0.749916
Cl321	Cl	0.105723	-0.106810	0.270637
Cl322	Cl	0.355723	0.143190	0.520637
Cl323	Cl	0.605723	0.393190	0.770637
Cl324	Cl	0.855723	0.643190	1.020637
H325	H	0.392099	-0.111903	0.150720
H326	H	0.642099	0.138097	0.400720
H327	H	0.892099	0.388097	0.650720
H328	H	1.142099	0.638097	0.900720
H329	H	0.767820	0.332097	-0.000124
H330	H	1.017820	0.582097	0.249876
H331	H	1.267820	0.832097	0.499876
H332	H	1.517820	1.082097	0.749876
Cl333	Cl	0.513030	-0.114016	0.187533
Cl334	Cl	0.763030	0.135984	0.437533
Cl335	Cl	1.013030	0.385984	0.687533
Cl336	Cl	1.263030	0.635984	0.937533
Cl337	Cl	0.750678	-0.221263	-0.391782
Cl338	Cl	1.000678	0.028737	-0.141782
Cl339	Cl	1.250678	0.278737	0.108218
Cl340	Cl	1.500678	0.528737	0.358218
H341	H	0.765924	0.489398	-0.000108
H342	H	1.015924	0.739398	0.249892
H343	H	1.265924	0.989398	0.499892
H344	H	1.515924	1.239398	0.749892
