data_functionalizedCrystal
_audit_creation_method	'MofGen! by Chris Wilmer'
_symmetry_space_group_name_H-M	'P1'
_symmetry_Int_Tables_number	1
_symmetry_cell_setting	triclinic
loop_
_symmetry_equiv_pos_as_xyz
  x,y,z
_cell_length_a	11.026607
_cell_length_b	11.026607
_cell_length_c	15.186229
_cell_angle_alpha	89.998222
_cell_angle_beta	89.997170
_cell_angle_gamma	108.586017
loop_
_atom_site_label
_atom_site_type_symbol
_atom_site_fract_x
_atom_site_fract_y
_atom_site_fract_z
O1	O	1.726731	0.533622	-0.073226
O2	O	1.360151	0.472858	-0.073228
O3	O	1.513059	0.319950	-0.073224
O4	O	1.573823	0.686530	-0.073230
O5	O	1.513046	0.319944	0.073233
O6	O	1.360137	0.472852	0.073229
O7	O	1.726717	0.533616	0.073231
Zn8	Zn	1.543425	0.503233	0.096483
Zn9	Zn	1.543443	0.503241	-0.096480
O10	O	1.573809	0.686524	0.073227
C11	C	1.312485	0.461645	0.000001
C12	C	1.170471	0.428228	0.000000
C13	C	1.116821	0.520498	-0.000002
C14	C	0.970043	0.485962	-0.000003
C15	C	1.501843	0.272287	0.000003
C16	C	1.468426	0.130273	0.000000
C17	C	1.560695	0.076624	-0.000001
C18	C	1.526160	-0.070155	-0.000004
C19	C	1.774384	0.544828	0.000000
C20	C	1.916398	0.578245	-0.000005
C21	C	1.585026	0.734187	-0.000002
C22	C	1.618443	0.876200	-0.000005
N23	N	1.543422	0.503229	0.228176
N24	N	1.543454	0.503237	-0.228173
C25	C	1.611166	0.435557	0.453901
C26	C	1.611169	0.435555	0.546090
C27	C	1.475702	0.570911	0.546096
C28	C	1.475692	0.570905	0.453908
C29	C	1.543432	0.503231	0.407813
C30	C	1.543445	0.503235	0.592190
C31	C	1.543448	0.503233	0.692146
C32	C	1.543427	0.503231	0.307850
H33	H	1.665258	0.139357	0.000005
H34	H	1.420553	0.626011	0.583636
H35	H	1.666322	0.380447	0.583613
H36	H	1.107738	0.323666	-0.000021
H37	H	1.179555	0.625061	0.000001
H38	H	1.421590	-0.132884	-0.000010
O39	O	1.743151	-0.048846	-0.000121
C40	C	1.767986	0.028930	-0.075983
H41	H	1.674726	0.039965	-0.101272
H42	H	1.811621	-0.017395	-0.129097
C43	C	1.976691	0.148008	-0.021881
C44	C	1.862149	0.161570	-0.052937
H45	H	2.034780	0.229825	-0.007667
H46	H	1.959962	0.095606	0.029227
H47	H	2.013037	0.109400	-0.066148
H48	H	1.825797	0.200163	-0.008666
H49	H	1.878874	0.213982	-0.104038
H50	H	1.363863	0.067540	-0.000006
H51	H	1.666321	0.380451	0.416372
H52	H	1.420529	0.626012	0.416381
H53	H	0.907314	0.381393	-0.000023
H54	H	0.979125	0.682816	-0.000001
