data_functionalizedCrystal
_audit_creation_method	'MofGen! by Chris Wilmer'
_symmetry_space_group_name_H-M	'P1'
_symmetry_Int_Tables_number	1
_symmetry_cell_setting	triclinic
loop_
_symmetry_equiv_pos_as_xyz
  x,y,z
_cell_length_a	27.440280
_cell_length_b	27.440280
_cell_length_c	27.440280
_cell_angle_alpha	59.997919
_cell_angle_beta	90.008670
_cell_angle_gamma	60.004534
loop_
_atom_site_label
_atom_site_type_symbol
_atom_site_fract_x
_atom_site_fract_y
_atom_site_fract_z
Zr1	Zr	0.469562	0.533341	-0.063891
O2	O	0.391745	0.635020	-0.141718
O3	O	0.493407	0.431674	-0.040034
O4	O	0.493407	0.533346	-0.141707
O5	O	0.391757	0.533340	0.040156
O6	O	0.573610	0.533337	-0.141697
O7	O	0.391746	0.533348	-0.040046
O8	O	0.573611	0.351464	0.040177
O9	O	0.391756	0.715212	-0.141717
O10	O	0.563443	0.473480	-0.029851
O11	O	0.503596	0.473481	0.029996
O12	O	0.503596	0.593186	-0.089711
O13	O	0.443749	0.593187	-0.029864
Zr14	Zr	0.597493	0.533313	0.064038
Zr15	Zr	0.597476	0.533326	-0.063875
Zr16	Zr	0.469579	0.533328	0.064022
Zr17	Zr	0.469578	0.661239	-0.063890
Zr18	Zr	0.597477	0.405416	0.064036
O19	O	0.573647	0.634980	0.040180
O20	O	0.573623	0.634998	-0.141696
O21	O	0.391770	0.635001	0.040158
O22	O	0.675309	0.431635	0.141865
O23	O	0.675285	0.431653	-0.040011
O24	O	0.493432	0.431656	0.141842
O25	O	0.675298	0.533315	-0.040010
O26	O	0.573648	0.533308	0.141853
O27	O	0.493445	0.533318	0.141843
O28	O	0.675309	0.533307	0.040192
O29	O	0.493430	0.715200	-0.141705
O30	O	0.573624	0.351454	0.141851
O31	O	0.675299	0.351442	0.141864
O32	O	0.675285	0.351453	0.040190
O33	O	0.391769	0.715202	-0.040044
O34	O	0.493444	0.715190	-0.040031
O35	O	0.563459	0.473468	0.089857
O36	O	0.623305	0.473467	0.030011
O37	O	0.563458	0.593173	-0.029849
O38	O	0.503612	0.593174	0.029997
C39	C	0.533507	0.373347	0.000071
C40	C	0.533500	0.319051	0.000071
C41	C	0.564783	-0.017692	-0.031161
C42	C	0.564788	-0.068716	-0.031159
O43	O	0.591374	-0.095122	-0.057709
N44	N	0.533549	-0.094231	0.000079
C45	C	0.502307	-0.068725	0.031322
O46	O	0.475736	-0.095114	0.057893
C47	C	0.502305	-0.017706	0.031324
C48	C	0.533542	0.007812	0.000079
C49	C	0.596018	0.007826	-0.062403
C50	C	0.596011	0.058847	-0.062405
C51	C	0.564770	0.084351	-0.031166
C52	C	0.533535	0.058833	0.000076
C53	C	0.471067	0.007796	0.062570
C54	C	0.471068	0.058818	0.062569
C55	C	0.502305	0.084336	0.031324
C56	C	0.502288	0.135359	0.031313
N57	N	0.533527	0.160874	0.000075
C58	C	0.564769	0.135370	-0.031164
C59	C	0.502313	-0.175870	0.031317
C60	C	0.502311	-0.226886	0.031313
C61	C	0.564794	-0.226873	-0.031168
C62	C	0.564792	-0.175854	-0.031166
C63	C	0.533553	-0.150355	0.000079
C64	C	0.564752	0.242519	-0.031167
C65	C	0.564741	0.293547	-0.031169
C66	C	0.502261	0.293528	0.031314
C67	C	0.502269	0.242507	0.031313
C68	C	0.533519	0.217002	0.000072
O69	O	0.475717	0.161796	0.057851
O70	O	0.591341	0.161759	-0.057724
C71	C	0.373526	0.533346	0.000053
C72	C	0.319223	0.533352	0.000046
C73	C	0.013765	0.470830	0.031336
C74	C	-0.037253	0.470826	0.031341
O75	O	-0.037073	0.417685	0.057933
N76	N	-0.094010	0.533311	0.000094
C77	C	-0.099747	0.595804	-0.031155
O78	O	-0.152707	0.648952	-0.057732
C79	C	-0.048729	0.595807	-0.031156
C80	C	0.008027	0.533318	0.000088
C81	C	0.070518	0.408346	0.062578
C82	C	0.121533	0.408351	0.062572
C83	C	0.115795	0.470838	0.031323
C84	C	0.059042	0.533322	0.000081
C85	C	-0.054467	0.658299	-0.062402
C86	C	-0.003443	0.658297	-0.062400
C87	C	0.053313	0.595808	-0.031156
C88	C	0.104318	0.595814	-0.031173
N89	N	0.161074	0.533329	0.000073
C90	C	0.166813	0.470841	0.031322
C91	C	-0.206885	0.595793	-0.031149
C92	C	-0.257903	0.595790	-0.031151
C93	C	-0.195406	0.470813	0.031346
C94	C	-0.144388	0.470816	0.031345
C95	C	-0.150129	0.533308	0.000098
C96	C	0.273945	0.470855	0.031306
C97	C	0.324962	0.470864	0.031295
C98	C	0.262460	0.595842	-0.031200
C99	C	0.211448	0.595833	-0.031192
C100	C	0.217194	0.533334	0.000066
O101	O	0.104184	0.648929	-0.057750
O102	O	0.219775	0.417703	0.057901
C103	C	0.693528	0.533308	0.000093
C104	C	0.747831	0.533302	0.000100
C105	C	0.533506	0.533343	-0.159927
C106	C	0.533498	0.533349	-0.214229
C107	C	0.533548	0.693308	0.000075
C108	C	0.533555	0.747604	0.000076
C109	C	0.577728	0.533307	-0.550921
C110	C	0.577733	0.533302	-0.601939
O111	O	0.615324	0.533271	-0.628309
N112	N	0.533548	0.533308	-0.627462
C113	C	0.489359	0.533312	-0.601961
O114	O	0.451777	0.533317	-0.628355
C115	C	0.489356	0.533312	-0.550942
C116	C	0.533541	0.533313	-0.525425
C117	C	0.621909	0.533306	-0.525403
C118	C	0.621903	0.533313	-0.474390
C119	C	0.577716	0.533319	-0.448894
C120	C	0.533535	0.533319	-0.474411
C121	C	0.445170	0.533312	-0.525440
C122	C	0.445172	0.533311	-0.474417
C123	C	0.489356	0.533312	-0.448899
C124	C	0.489341	0.533332	-0.397901
N125	N	0.533526	0.533326	-0.372378
C126	C	0.577713	0.533319	-0.397874
C127	C	0.489368	0.533311	-0.709105
C128	C	0.489367	0.533316	-0.760126
C129	C	0.577742	0.533304	-0.760099
C130	C	0.577740	0.533304	-0.709080
C131	C	0.533552	0.533305	-0.683582
C132	C	0.577697	0.533333	-0.290742
C133	C	0.577686	0.533342	-0.239725
C134	C	0.489312	0.533351	-0.239755
C135	C	0.489322	0.533345	-0.290769
C136	C	0.533519	0.533334	-0.316260
O137	O	0.451772	0.533360	-0.371497
O138	O	0.615294	0.533306	-0.371470
C139	C	0.533549	0.533311	0.160073
C140	C	0.533556	0.533306	0.214375
C141	C	0.693508	0.373328	0.000091
C142	C	0.747804	0.319026	0.000097
C143	C	0.533528	0.373331	0.160071
C144	C	0.533529	0.319029	0.214373
C145	C	0.693529	0.373312	0.160091
C146	C	0.747833	0.319004	0.214400
C147	C	0.373525	0.693343	-0.159945
C148	C	0.319222	0.747650	-0.214253
C149	C	0.373547	0.693326	0.000055
C150	C	0.319251	0.747629	0.000049
C151	C	0.533526	0.693324	-0.159925
C152	C	0.533526	0.747625	-0.214227
C153	C	0.742054	0.293532	-0.031152
C154	C	0.793066	0.242516	-0.031158
C155	C	0.849827	0.216992	0.000089
C156	C	0.855575	0.242491	0.031339
C157	C	0.804564	0.293509	0.031342
C158	C	0.564776	0.293522	0.271126
C159	C	0.564774	0.242507	0.322153
C160	C	0.533528	0.216997	0.316426
C161	C	0.502276	0.242509	0.259667
C162	C	0.502275	0.293527	0.208641
C163	C	0.804579	0.293500	0.208664
C164	C	0.855607	0.242479	0.259688
C165	C	0.849888	0.216960	0.316447
C166	C	0.793137	0.242469	0.322181
C167	C	0.742109	0.293492	0.271158
C168	C	0.262476	0.773161	-0.208518
C169	C	0.211447	0.824197	-0.259542
C170	C	0.217166	0.849719	-0.316301
C171	C	0.273918	0.824207	-0.322035
C172	C	0.324945	0.773175	-0.271011
C173	C	0.325001	0.773128	0.031293
C174	C	0.273989	0.824158	0.031285
C175	C	0.217228	0.849684	0.000036
C176	C	0.211479	0.824182	-0.031212
C177	C	0.262490	0.773157	-0.031207
C178	C	0.564779	0.773119	-0.208480
C179	C	0.564790	0.824134	-0.259498
C180	C	0.533545	0.849658	-0.316261
C181	C	0.502291	0.824159	-0.322006
C182	C	0.502284	0.773141	-0.270989
H183	H	0.590228	-0.155080	-0.056608
H184	H	0.533556	0.891200	-0.357797
N185	N	0.470381	0.850241	-0.379995
N186	N	0.470395	0.895794	-0.425535
H187	H	0.447857	0.914219	-0.466492
N188	N	0.256616	0.659663	-0.063118
N189	N	0.302175	0.659649	-0.063113
H190	H	0.298050	0.704723	-0.085652
H191	H	0.257808	0.752383	-0.162307
H192	H	0.901797	0.221702	0.056780
N193	N	-0.112438	0.722125	-0.094308
N194	N	-0.157992	0.722128	-0.094306
H195	H	-0.198936	0.767209	-0.116841
N196	N	0.470355	0.216453	0.253823
N197	N	0.429223	0.222149	0.275322
H198	H	0.406681	0.203742	0.271197
N199	N	0.627928	-0.018229	-0.094313
N200	N	0.669070	-0.080864	-0.067124
H201	H	0.691604	-0.099260	-0.089666
N202	N	0.810419	0.319577	0.150687
N203	N	0.764861	0.365137	0.105129
H204	H	0.768989	0.383555	0.064182
N205	N	0.470382	-0.149822	0.063226
N206	N	0.415297	-0.121362	0.049965
H207	H	0.392744	-0.102969	0.072501
N208	N	0.627928	0.084896	-0.094320
N209	N	0.655821	0.062107	-0.122203
H210	H	0.678366	0.080498	-0.144742
H211	H	0.175612	0.891273	-0.357842
N212	N	0.622830	0.533333	-0.213663
N213	N	0.662284	0.533316	-0.236432
H214	H	0.694171	0.533303	-0.218025
N215	N	0.470346	0.747111	-0.276853
N216	N	0.470331	0.701566	-0.231304
H217	H	0.447772	0.683185	-0.235449
N218	N	0.596698	-0.252932	-0.063082
N219	N	0.596690	-0.298483	-0.063077
H220	H	0.619218	-0.316886	-0.085617
H221	H	0.891359	0.175449	0.000083
N222	N	0.470352	0.319570	0.150675
N223	N	0.442459	0.296782	0.145576
H224	H	0.419911	0.315173	0.104638
N225	N	0.439151	0.084880	0.094476
N226	N	0.439145	0.130438	0.094470
H227	H	0.416602	0.148847	0.117001
N228	N	0.622849	0.533318	-0.316766
N229	N	0.662290	0.533318	-0.293968
H230	H	0.694177	0.533310	-0.312349
N231	N	0.153492	0.850260	-0.063117
N232	N	0.118062	0.844565	-0.035909
H233	H	0.077105	0.862982	-0.058438
N234	N	0.439165	-0.018261	0.094504
N235	N	0.452430	-0.046724	0.149593
H236	H	0.429899	-0.065126	0.172152
N237	N	0.596649	0.319609	-0.063094
N238	N	0.624539	0.296828	-0.090984
H239	H	0.647074	0.315233	-0.113531
H240	H	0.590221	0.314287	0.275801
N241	N	0.667004	0.533387	-0.448373
N242	N	0.706426	0.533430	-0.471176
H243	H	0.738268	0.533510	-0.452819
H244	H	0.590200	0.221758	-0.056606
N245	N	0.596696	0.216445	0.380131
N246	N	0.569512	0.222146	0.415573
H247	H	0.592057	0.203740	0.456519
H248	H	0.891443	0.175413	0.357988
H249	H	0.278567	0.844994	-0.368254
H250	H	0.809254	0.314260	0.056792
N251	N	0.470350	0.216455	0.063222
N252	N	0.442455	0.239238	0.091108
H253	H	0.419914	0.220839	0.113649
H254	H	-0.008124	0.709187	-0.087838
N255	N	0.165118	0.901797	0.000036
N256	N	0.114439	0.924584	-0.027862
H257	H	0.077637	0.961388	-0.027860
N258	N	0.596720	0.850166	-0.253610
N259	N	0.624608	0.827373	-0.202923
H260	H	0.647159	0.845755	-0.198763
H261	H	0.476867	-0.247650	0.056748
H262	H	0.371149	0.752405	-0.275688
N263	N	0.382972	0.747066	0.063221
N264	N	0.388086	0.769851	0.091110
H265	H	0.429027	0.751450	0.113659
H266	H	0.257801	0.752397	-0.056648
H267	H	0.901812	0.221715	0.255009
H268	H	0.278681	0.844913	0.056733
H269	H	0.657894	0.533299	-0.546157
H270	H	0.165234	0.646716	-0.056641
N271	N	0.596700	0.747061	-0.150507
N272	N	0.624604	0.769834	-0.145395
H273	H	0.647153	0.751431	-0.104453
H274	H	0.371175	0.419976	0.056739
N275	N	0.470353	0.319592	0.063220
N276	N	0.470361	0.365144	0.063214
H277	H	0.447830	0.383549	0.085753
N278	N	0.279830	0.407009	0.063239
N279	N	0.330512	0.351229	0.091129
H280	H	0.334669	0.306137	0.113679
N281	N	0.444187	0.533355	-0.316847
N282	N	0.410173	0.581668	-0.369486
H283	H	0.378298	0.581670	-0.387899
H284	H	0.167742	0.357466	0.088011
H285	H	0.075201	0.357458	0.088027
H286	H	-0.098178	0.419932	0.056792
N287	N	0.444231	0.533329	-0.786203
N288	N	0.410216	0.581647	-0.838840
H289	H	0.378339	0.581653	-0.857255
H290	H	-0.190741	0.419931	0.056788
N291	N	0.787311	0.216388	0.380165
N292	N	0.832880	0.170826	0.425711
H293	H	0.828768	0.152400	0.466664
H294	H	0.695906	0.314251	0.275836
N295	N	-0.212765	0.659638	-0.063074
N296	N	-0.263446	0.715419	-0.090969
H297	H	-0.267602	0.760510	-0.113516
N298	N	0.622903	0.533251	-0.682998
N299	N	0.662367	0.533213	-0.705758
H300	H	0.694277	0.533155	-0.687330
H301	H	-0.304112	0.646675	-0.056601
N302	N	0.153487	0.850243	-0.253666
N303	N	0.148395	0.827441	-0.202983
H304	H	0.107461	0.845834	-0.198831
H305	H	0.453380	0.533317	-0.688350
N306	N	0.622886	0.533276	-0.786145
N307	N	0.622886	0.533258	-0.831689
H308	H	0.654770	0.533231	-0.850082
H309	H	0.409191	0.533311	-0.546208
N310	N	0.400031	0.533308	-0.448378
N311	N	0.360589	0.533307	-0.471171
H312	H	0.328707	0.533306	-0.452782
N313	N	0.533537	0.164886	0.368557
N314	N	0.561442	0.142120	0.419225
H315	H	0.561452	0.105315	0.456045
N316	N	0.444173	0.533369	-0.213711
N317	N	0.410155	0.581692	-0.209411
H318	H	0.378276	0.581702	-0.191014
N319	N	0.684074	0.319613	-0.063078
N320	N	0.638527	0.365168	-0.063082
H321	H	0.597579	0.383590	-0.085634
H322	H	0.788374	0.221761	-0.056606
