data_functionalizedCrystal
_audit_creation_method	'MofGen! by Chris Wilmer'
_symmetry_space_group_name_H-M	'P1'
_symmetry_Int_Tables_number	1
_symmetry_cell_setting	triclinic
loop_
_symmetry_equiv_pos_as_xyz
  x,y,z
_cell_length_a	12.645331
_cell_length_b	12.594516
_cell_length_c	12.645323
_cell_angle_alpha	90.024815
_cell_angle_beta	90.022676
_cell_angle_gamma	90.017151
loop_
_atom_site_label
_atom_site_type_symbol
_atom_site_fract_x
_atom_site_fract_y
_atom_site_fract_z
Zn1	Zn	1.620728	-0.423763	0.599447
Zn2	Zn	1.620608	-0.601766	0.422187
Zn3	Zn	1.443442	-0.423799	0.422191
Zn4	Zn	1.443423	-0.601696	0.599402
O5	O	1.532050	-0.512756	0.510807
O6	O	1.769059	-0.447389	0.575950
O7	O	1.597065	-0.578202	0.273840
O8	O	1.467018	-0.274848	0.445725
O9	O	1.768971	-0.578167	0.445718
O10	O	1.597269	-0.274822	0.575954
O11	O	1.466902	-0.447451	0.273843
O12	O	1.295092	-0.447383	0.445682
O13	O	1.466984	-0.578049	0.747756
O14	O	1.295078	-0.578084	0.575878
O15	O	1.597250	-0.447322	0.747788
O16	O	1.597045	-0.750703	0.445675
O17	O	1.466868	-0.750651	0.575874
C18	C	1.256620	-0.512731	0.510776
C19	C	1.138790	-0.512745	0.510788
C20	C	0.971200	-0.430143	0.429333
C21	C	1.093760	-0.430357	0.428975
C22	C	1.094269	-0.624870	0.480273
C23	C	0.971671	-0.624419	0.479718
C24	C	0.971641	-0.484290	0.623072
C25	C	1.094247	-0.481785	0.622448
C26	C	1.531970	-0.789297	0.510792
C27	C	1.532033	-0.907602	0.510821
C28	C	1.461288	-1.047630	0.581601
C29	C	1.557933	-0.976721	0.607610
C30	C	1.435397	-0.976939	0.484859
C31	C	1.628903	-1.047479	0.536920
C32	C	1.506302	-1.047703	0.414124
C33	C	1.603015	-0.976827	0.440097
C34	C	1.808555	-0.512782	0.510838
C35	C	1.926385	-0.512793	0.510851
C36	C	1.532128	-0.512674	0.787312
C37	C	1.532161	-0.512639	0.905142
C38	C	1.532159	-0.235135	0.510845
C39	C	1.532205	-0.116830	0.510861
C40	C	1.532033	-0.512761	0.235377
C41	C	1.532205	-0.512496	0.117547
C42	C	1.449959	-0.594491	1.072686
C43	C	1.450174	-0.594897	0.950126
C44	C	1.643861	-0.543081	0.949662
C45	C	1.643410	-0.543595	1.072260
C46	C	1.503721	-0.399885	1.072340
C47	C	1.501229	-0.400561	0.949734
H48	H	0.942026	-0.688084	0.536503
N49	N	1.731557	-1.086161	0.564606
N50	N	1.809793	-1.062716	0.508916
H51	H	1.882292	-1.090035	0.528471
N52	N	1.478860	-1.086871	0.311559
N53	N	1.475321	-1.184660	0.294999
H54	H	1.455929	-1.212327	0.222562
N55	N	1.130739	-0.378267	0.651306
N56	N	1.108359	-0.300026	0.594793
H57	H	1.134136	-0.226913	0.615168
H58	H	1.124924	-0.649457	0.399115
H59	H	1.556757	-0.336240	0.919112
N60	N	1.132637	-0.551857	0.702697
N61	N	1.193723	-0.626086	0.678793
H62	H	1.220807	-0.675606	0.735461
N63	N	1.473309	-0.698580	1.111314
N64	N	1.416765	-0.775488	1.084632
H65	H	1.433260	-0.849003	1.111909
H66	H	1.353600	-0.945948	0.462885
H67	H	1.667554	-0.625916	1.100871
H68	H	0.940352	-0.448774	0.346663
N69	N	1.346264	-0.570993	0.912372
N70	N	1.273077	-0.553896	0.976569
H71	H	1.199684	-0.537018	0.949911
H72	H	1.706784	-0.485249	0.920527
H73	H	1.668419	-0.624540	0.918974
N74	N	1.398134	-0.371710	0.913197
N75	N	1.358618	-0.284787	0.939911
H76	H	1.285813	-0.264404	0.914089
H77	H	1.123861	-0.347212	0.448101
H78	H	1.123038	-0.449196	0.345814
N79	N	1.345743	-0.570809	1.109656
N80	N	1.330866	-0.493228	1.169504
H81	H	1.257262	-0.476501	1.195624
H82	H	0.943025	-0.648590	0.397679
N83	N	1.473800	-0.699621	0.913359
N84	N	1.490190	-0.772636	0.978244
H85	H	1.506878	-0.846603	0.952280
H86	H	1.563626	-0.338796	1.101354
N87	N	1.722891	-0.471925	1.109483
N88	N	1.778523	-0.421693	1.044913
H89	H	1.834658	-0.371078	1.071197
H90	H	1.423688	-0.372136	1.103244
H91	H	0.942662	-0.544489	0.683810
N92	N	1.386247	-1.086654	0.656720
N93	N	1.373748	-1.184422	0.668239
H94	H	1.320754	-1.211985	0.721293
H95	H	1.662983	-0.945936	0.380257
H96	H	0.941737	-0.346749	0.448254
N97	N	1.585305	-0.937602	0.710220
N98	N	1.522129	-0.879594	0.759613
H99	H	1.541448	-0.851969	0.832085
N100	N	1.130882	-0.704181	0.552414
N101	N	1.227805	-0.720761	0.562614
H102	H	1.253668	-0.776772	0.613566
N103	N	0.932869	-0.383516	0.657881
N104	N	0.871403	-0.331475	0.600394
H105	H	0.844017	-0.260300	0.624967
