data_functionalizedCrystal
_audit_creation_method	'MofGen! by Chris Wilmer'
_symmetry_space_group_name_H-M	'P1'
_symmetry_Int_Tables_number	1
_symmetry_cell_setting	triclinic
loop_
_symmetry_equiv_pos_as_xyz
  x,y,z
_cell_length_a	14.446369
_cell_length_b	14.446369
_cell_length_c	14.560438
_cell_angle_alpha	90.001510
_cell_angle_beta	59.997580
_cell_angle_gamma	59.999699
loop_
_atom_site_label
_atom_site_type_symbol
_atom_site_fract_x
_atom_site_fract_y
_atom_site_fract_z
Zr1	Zr	1.013195	0.891777	-0.120540
O2	O	1.206325	0.743965	-0.267202
O3	O	0.820072	0.937088	-0.075574
O4	O	1.013195	0.937084	-0.267187
O5	O	1.013200	0.743972	0.075551
O6	O	1.013186	1.089422	-0.267181
O7	O	1.013202	0.743969	-0.075589
O8	O	0.667726	1.089427	0.075580
O9	O	1.358660	0.743967	-0.267209
O10	O	0.899498	1.070101	-0.056399
O11	O	0.899502	0.956417	0.056391
O12	O	1.126879	0.956413	-0.169208
O13	O	1.126883	0.842728	-0.056418
Zr14	Zr	1.013177	1.134743	0.120521
Zr15	Zr	1.013182	1.134737	-0.120531
Zr16	Zr	1.013191	0.891783	0.120512
Zr17	Zr	1.256153	0.891779	-0.120551
Zr18	Zr	0.770219	1.134741	0.120532
O19	O	1.206300	1.089432	0.075555
O20	O	1.206306	1.089423	-0.267190
O21	O	1.206319	0.743974	0.075543
O22	O	0.820048	1.282554	0.267184
O23	O	0.820053	1.282546	-0.075561
O24	O	0.820067	0.937096	0.267172
O25	O	1.013173	1.282547	-0.075570
O26	O	1.013177	1.089435	0.267168
O27	O	1.013186	0.937098	0.267163
O28	O	1.013170	1.282551	0.075571
O29	O	1.358650	0.937088	-0.267202
O30	O	0.667723	1.089432	0.267184
O31	O	0.667712	1.282553	0.267191
O32	O	0.667715	1.282548	0.075587
O33	O	1.358657	0.743972	-0.075605
O34	O	1.358646	0.937092	-0.075598
O35	O	0.899494	1.070107	0.169190
O36	O	0.899489	1.183792	0.056400
O37	O	1.126870	1.070103	-0.056410
O38	O	1.126875	0.956419	0.056381
C39	C	0.709283	1.013257	0.000005
C40	C	0.606141	1.013256	0.000009
C41	C	0.459134	0.941899	0.071472
C42	C	0.566754	0.941511	0.071183
C43	C	0.655142	0.960947	-0.122564
C44	C	0.547909	0.960410	-0.122193
C45	C	0.372675	1.136974	0.050065
C46	C	0.478826	1.136792	0.052566
C47	C	1.013203	0.709354	-0.000020
C48	C	1.013208	0.606211	-0.000024
C49	C	1.156603	0.387841	-0.070814
C50	C	1.156699	0.495073	-0.071212
C51	C	0.941978	0.602885	-0.051911
C52	C	0.942888	0.495116	-0.052430
C53	C	0.939932	0.496485	0.122744
C54	C	0.942634	0.602454	0.122550
C55	C	1.317089	1.013263	-0.000023
C56	C	1.420231	1.013264	-0.000028
C57	C	1.013191	1.013252	-0.301529
C58	C	1.013193	1.013250	-0.403862
C59	C	1.013169	1.317166	0.000002
C60	C	1.013164	1.420309	0.000006
C61	C	1.131881	0.953907	-0.510823
C62	C	1.131875	0.953920	-0.606972
C63	C	0.894482	1.072621	-0.489184
C64	C	0.894489	1.072613	-0.393038
C65	C	1.013181	1.013268	0.301510
C66	C	1.013179	1.013270	0.403843
C67	C	0.709266	1.317163	0.000016
C68	C	0.606118	1.420305	0.000024
C69	C	0.709278	1.013265	0.301524
C70	C	0.606134	1.013267	0.403862
C71	C	0.709261	1.317171	0.301535
C72	C	0.606112	1.420316	0.403877
C73	C	1.317111	0.709349	-0.301554
C74	C	1.420261	0.606204	-0.403895
C75	C	1.317106	0.709357	-0.000034
C76	C	1.420254	0.606215	-0.000043
C77	C	1.317095	1.013255	-0.301542
C78	C	1.420238	1.013253	-0.403880
C79	C	0.557661	1.409419	-0.058849
C80	C	0.460751	1.506336	-0.058845
C81	C	0.460760	1.625021	0.058915
C82	C	0.557675	1.528106	0.058903
C83	C	0.557671	1.072612	0.510820
C84	C	0.460765	1.072600	0.606973
C85	C	0.460791	0.953897	0.489196
C86	C	0.557701	0.953903	0.393045
C87	C	0.557647	1.528115	0.393084
C88	C	0.460736	1.625027	0.489249
C89	C	0.460758	1.506325	0.606995
C90	C	0.557674	1.409416	0.510831
H91	H	0.530040	0.976599	0.161442
Br92	Br	1.016408	0.413107	0.194999
H93	H	0.597085	1.536996	0.306001
H94	H	0.421281	1.712800	0.480454
Br95	Br	1.292960	0.873385	-0.752134
H96	H	0.597106	1.120945	0.519633
H97	H	0.597164	0.905571	0.305949
Br98	Br	0.733392	1.153174	-0.474504
H99	H	0.421344	0.905567	0.480403
H100	H	0.421307	1.497464	0.694087
H101	H	0.597138	1.321634	0.519627
Br102	Br	0.329385	1.226013	-0.036322
H103	H	0.597133	1.536978	0.106845
Br104	Br	0.733400	1.153157	-0.247863
Br105	Br	0.623408	1.263122	-0.138761
H106	H	0.439221	1.175871	0.142867
H107	H	0.370262	0.976802	0.161955
H108	H	0.421312	1.120923	0.694060
Br109	Br	0.216465	1.209793	0.198215
Br110	Br	0.518646	0.790726	0.014139
H111	H	0.421304	1.712802	0.106854
Br112	Br	0.714784	0.789419	0.013290
H113	H	1.212931	0.492625	-0.161752
H114	H	0.588613	0.869377	-0.162294
H115	H	1.212871	0.493315	-0.036679
Br116	Br	0.511268	1.041464	-0.215790
Br117	Br	0.394996	1.491556	-0.138754
Br118	Br	0.809003	0.810668	-0.189865
Br119	Br	0.703196	1.043372	-0.215221
Br120	Br	1.292978	0.873351	-0.525515
H121	H	0.993511	0.444770	-0.142749
H122	H	1.212896	0.333887	-0.036186
Br123	Br	0.514653	1.232889	-0.025202
H124	H	1.212625	0.332855	-0.160808
H125	H	0.836473	0.681154	-0.002812
Br126	Br	0.767490	0.539532	0.027967
H127	H	0.994571	0.601937	0.161313
Br128	Br	0.768129	0.734370	0.217892
Br129	Br	1.024437	0.606440	-0.201020
H130	H	0.834268	0.523924	0.175760
