data_functionalizedCrystal
_audit_creation_method	'MofGen! by Chris Wilmer'
_symmetry_space_group_name_H-M	'P1'
_symmetry_Int_Tables_number	1
_symmetry_cell_setting	triclinic
loop_
_symmetry_equiv_pos_as_xyz
  x,y,z
_cell_length_a	10.654550
_cell_length_b	15.944551
_cell_length_c	9.730223
_cell_angle_alpha	89.994648
_cell_angle_beta	89.999957
_cell_angle_gamma	83.991834
loop_
_atom_site_label
_atom_site_type_symbol
_atom_site_fract_x
_atom_site_fract_y
_atom_site_fract_z
O1	O	1.666313	0.117976	-0.114191
O2	O	1.300689	0.129216	-0.114216
O3	O	1.493485	0.001379	-0.114190
O4	O	1.473516	0.245813	-0.114216
O5	O	1.493473	0.001376	0.114390
O6	O	1.300676	0.129213	0.114364
O7	O	1.666300	0.117973	0.114389
Zn8	Zn	1.483486	0.123592	0.150669
Zn9	Zn	1.483503	0.123597	-0.150495
O10	O	1.473504	0.245810	0.114363
C11	C	1.253895	0.128389	0.000071
C12	C	1.114484	0.125920	0.000061
C13	C	1.492650	-0.029921	0.000100
C14	C	1.490165	-0.123182	0.000100
C15	C	1.034024	0.201189	0.000057
C16	C	0.903034	0.198863	0.000081
C17	C	0.932975	0.045995	0.000108
C18	C	1.063963	0.048321	0.000094
C19	C	1.364720	-0.338764	0.000073
C20	C	1.422966	-0.399446	0.112781
C21	C	1.485668	-0.293933	0.000090
C22	C	1.423007	-0.399426	-0.112581
C23	C	1.481317	-0.458871	0.000073
C24	C	1.543948	-0.353387	0.112890
C25	C	1.543972	-0.353360	-0.112573
C26	C	1.602306	-0.414024	0.000163
C27	C	1.488172	-0.198917	0.000100
C28	C	1.478822	-0.553887	0.000072
C29	C	1.713094	0.118800	0.000099
C30	C	1.852505	0.121269	0.000100
C31	C	1.474339	0.277110	0.000070
C32	C	1.476824	0.370371	0.000061
N33	N	1.483484	0.123589	0.356205
N34	N	1.483514	0.123594	-0.356032
C35	C	1.568883	0.067007	0.428142
C36	C	1.568896	0.067007	0.572025
C37	C	1.398106	0.180179	0.572021
C38	C	1.398089	0.180174	0.428140
H39	H	1.075154	0.264375	0.000041
H40	H	1.328581	0.226250	0.630605
O41	O	1.244896	-0.299816	0.000009
C42	C	1.180700	-0.324271	-0.117715
H43	H	1.227576	-0.387369	-0.156587
H44	H	1.078096	-0.330721	-0.090442
H45	H	1.184514	-0.274498	-0.201310
O46	O	1.362140	-0.423856	-0.226297
C47	C	1.445366	-0.479249	-0.304928
H48	H	1.523821	-0.509766	-0.236042
H49	H	1.391375	-0.530273	-0.351888
H50	H	1.488198	-0.442502	-0.390437
H51	H	0.891824	-0.017184	0.000143
O52	O	1.651727	0.012083	0.358050
C53	C	1.633356	0.024177	0.215630
H54	H	1.586493	0.090682	0.195945
H55	H	1.728430	0.015357	0.160907
H56	H	1.570291	-0.023730	0.174874
H57	H	1.638434	0.020932	0.630593
H58	H	1.129477	-0.012976	0.000101
O59	O	1.315252	0.235260	0.358315
C60	C	1.335645	0.318540	0.393470
H61	H	1.436188	0.319580	0.433008
H62	H	1.321188	0.360601	0.298837
H63	H	1.266050	0.342782	0.476988
O64	O	0.825055	0.272058	0.000012
C65	C	0.897741	0.341043	0.000017
H66	H	0.995497	0.320291	-0.043268
H67	H	0.849418	0.393827	-0.066351
H68	H	0.907083	0.364794	0.109671
O69	O	1.361735	-0.423741	0.226345
C70	C	1.236531	-0.385045	0.225957
H71	H	1.207391	-0.366966	0.116281
H72	H	1.171009	-0.430875	0.268526
H73	H	1.229948	-0.326008	0.292750
H74	H	1.595056	-0.333102	0.208281
H75	H	1.702787	-0.446601	0.000233
H76	H	1.595089	-0.332933	-0.207856
