data_functionalizedCrystal
_audit_creation_method	'MofGen! by Chris Wilmer'
_symmetry_space_group_name_H-M	'P1'
_symmetry_Int_Tables_number	1
_symmetry_cell_setting	triclinic
loop_
_symmetry_equiv_pos_as_xyz
  x,y,z
_cell_length_a	18.050591
_cell_length_b	13.032868
_cell_length_c	13.032268
_cell_angle_alpha	103.285901
_cell_angle_beta	82.843153
_cell_angle_gamma	82.790955
loop_
_atom_site_label
_atom_site_type_symbol
_atom_site_fract_x
_atom_site_fract_y
_atom_site_fract_z
Zn1	Zn	1.031174	0.499205	0.654364
Zn2	Zn	1.031078	0.654288	0.499305
Zn3	Zn	0.925053	0.476687	0.476766
Zn4	Zn	0.888887	0.676744	0.676820
O5	O	0.969048	0.576731	0.576814
O6	O	1.135080	0.519802	0.633830
O7	O	1.032109	0.611907	0.347699
O8	O	0.954306	0.331046	0.481494
O9	O	1.135010	0.633742	0.519908
O10	O	1.032272	0.347590	0.611975
O11	O	0.954213	0.481424	0.331139
O12	O	0.816337	0.503199	0.503269
O13	O	0.892666	0.672015	0.822458
O14	O	0.789766	0.650180	0.650248
O15	O	0.997203	0.541577	0.805959
O16	O	0.997041	0.805895	0.541683
O17	O	0.892574	0.822393	0.672103
C18	C	0.940890	0.852684	0.611799
C19	C	0.928908	0.970743	0.626801
C20	C	0.776106	0.576684	0.576750
C21	C	0.693559	0.576693	0.576751
C22	C	0.940911	0.611813	0.853820
C23	C	0.928921	0.626763	0.971864
C24	C	0.508528	0.496702	0.496977
C25	C	0.451912	0.590263	0.483136
C26	C	0.542421	0.576731	0.576803
C27	C	0.451953	0.483203	0.590646
C28	C	0.396429	0.576759	0.576850
C29	C	0.486891	0.670336	0.562918
C30	C	0.486939	0.563217	0.670465
C31	C	0.430334	0.656849	0.656669
C32	C	0.626523	0.576713	0.576773
C33	C	0.312327	0.576788	0.576882
C34	C	1.162744	0.576779	0.576878
C35	C	1.245285	0.576799	0.576906
C36	C	0.975290	1.015186	0.569009
C37	C	0.962907	1.137205	0.584513
C38	C	0.997311	1.299701	0.541704
C39	C	1.009295	1.181644	0.526712
C40	C	0.997126	0.541708	0.300875
C41	C	1.009291	0.526459	0.182794
C42	C	0.975298	0.568890	1.016329
C43	C	0.962907	0.584340	1.138333
H44	H	0.436286	0.601715	0.403949
N45	N	0.898158	1.206440	0.665266
H46	H	0.918673	1.258650	0.720328
H47	H	0.863536	1.246976	0.627788
H48	H	1.058177	1.129363	0.465755
N49	N	1.040057	0.488129	0.947117
H50	H	1.019557	0.433112	0.894839
H51	H	1.074667	0.525627	0.906665
H52	H	0.880035	1.023029	0.687761
N53	N	0.898151	0.665115	1.207545
H54	H	0.918660	0.720128	1.259814
H55	H	0.868922	0.701536	1.161041
N56	N	1.074039	0.445662	1.113593
H57	H	1.073714	0.446073	1.036246
H58	H	1.123439	0.464636	1.135035
H59	H	0.880038	0.687741	1.024119
H60	H	0.502390	0.749455	0.551141
H61	H	0.436334	0.404103	0.602300
H62	H	0.396601	0.724608	0.724204
H63	H	0.542388	0.429081	0.429413
H64	H	0.502587	0.551733	0.749623
H65	H	1.024169	0.962903	0.508056
