data_functionalizedCrystal
_audit_creation_method	'MofGen! by Chris Wilmer'
_symmetry_space_group_name_H-M	'P1'
_symmetry_Int_Tables_number	1
_symmetry_cell_setting	triclinic
loop_
_symmetry_equiv_pos_as_xyz
  x,y,z
_cell_length_a	15.995292
_cell_length_b	15.995350
_cell_length_c	15.186229
_cell_angle_alpha	89.998487
_cell_angle_beta	89.995469
_cell_angle_gamma	83.480495
loop_
_atom_site_label
_atom_site_type_symbol
_atom_site_fract_x
_atom_site_fract_y
_atom_site_fract_z
O1	O	1.111015	0.107694	-0.073248
O2	O	1.611015	0.607694	0.426752
O3	O	0.867233	0.121072	-0.073244
O4	O	1.367233	0.621072	0.426756
O5	O	0.995788	-0.007506	-0.073245
O6	O	1.495788	0.492494	0.426755
O7	O	0.982460	0.236272	-0.073247
O8	O	1.482460	0.736272	0.426753
O9	O	0.995779	-0.007508	0.073212
O10	O	1.495779	0.492492	0.573212
O11	O	0.867224	0.121070	0.073213
O12	O	1.367224	0.621070	0.573213
O13	O	1.111006	0.107692	0.073209
O14	O	1.611006	0.607692	0.573209
Zn15	Zn	0.989114	0.114381	0.096465
Zn16	Zn	1.489114	0.614381	0.596465
Zn17	Zn	0.989125	0.114383	-0.096499
Zn18	Zn	1.489125	0.614383	0.403501
O19	O	0.982451	0.236270	0.073211
O20	O	1.482451	0.736270	0.573211
C21	C	0.836033	0.120527	-0.000015
C22	C	1.336033	0.620527	0.499985
C23	C	0.743080	0.118894	-0.000014
C24	C	1.243080	0.618894	0.499986
C25	C	0.405341	0.112893	-0.000023
C26	C	0.905341	0.612893	0.499977
C27	C	0.428654	0.205697	-0.000351
C28	C	0.928654	0.705697	0.499649
C29	C	0.525329	0.207461	-0.000017
C30	C	1.025329	0.707461	0.499983
C31	C	0.572897	0.115871	-0.000019
C32	C	1.072897	0.615871	0.499981
C33	C	0.543791	0.069472	0.083613
C34	C	1.043791	0.569472	0.583613
C35	C	0.447000	0.068355	0.083679
C36	C	0.947000	0.568355	0.583679
C37	C	0.447154	0.066462	-0.082870
C38	C	0.947154	0.566462	0.417130
C39	C	0.543647	0.069901	-0.083972
C40	C	1.043647	0.569901	0.416028
C41	C	0.667593	0.117549	-0.000014
C42	C	1.167593	0.617549	0.499986
C43	C	0.310646	0.111212	-0.000023
C44	C	0.810646	0.611212	0.499977
C45	C	0.995232	-0.038702	-0.000018
C46	C	1.495232	0.461298	0.499982
C47	C	0.993580	-0.131652	-0.000023
C48	C	1.493580	0.368348	0.499977
C49	C	0.987648	-0.469398	-0.000020
C50	C	1.487648	0.030602	0.499980
C51	C	0.896094	-0.421945	-0.000347
C52	C	1.396094	0.078055	0.499653
C53	C	0.897746	-0.325255	-0.000017
C54	C	1.397746	0.174745	0.499983
C55	C	0.990591	-0.301838	-0.000022
C56	C	1.490591	0.198162	0.499978
C57	C	1.035744	-0.342926	0.083610
C58	C	1.535744	0.157074	0.583610
C59	C	1.033444	-0.439561	0.083680
C60	C	1.533444	0.060439	0.583680
C61	C	1.035345	-0.439918	-0.082870
C62	C	1.535345	0.060082	0.417130
C63	C	1.035323	-0.342972	-0.083975
C64	C	1.535323	0.157028	0.416025
C65	C	0.992259	-0.207141	-0.000020
C66	C	1.492259	0.292859	0.499980
C67	C	0.985983	-0.564095	-0.000016
C68	C	1.485983	-0.064095	0.499984
C69	C	1.142206	0.108237	-0.000022
C70	C	1.642206	0.608237	0.499978
C71	C	1.235159	0.109870	-0.000029
C72	C	1.735159	0.609870	0.499971
C73	C	0.983006	0.267466	-0.000018
C74	C	1.483006	0.767466	0.499982
C75	C	0.984658	0.360416	-0.000019
C76	C	1.484658	0.860416	0.499981
N77	N	0.989112	0.114379	0.228157
N78	N	1.489112	0.614379	0.728157
N79	N	0.989133	0.114379	-0.228192
N80	N	1.489133	0.614379	0.271808
C81	C	1.046056	0.057463	0.453879
C82	C	1.546056	0.557463	0.953879
C83	C	1.046058	0.057461	0.546069
C84	C	1.546058	0.557461	1.046069
C85	C	0.932184	0.171297	0.546079
C86	C	1.432184	0.671297	1.046079
C87	C	0.932178	0.171294	0.453891
C88	C	1.432178	0.671294	0.953891
C89	C	0.989118	0.114378	0.407794
C90	C	1.489118	0.614378	0.907794
C91	C	0.989127	0.114379	0.592171
C92	C	1.489127	0.614379	1.092171
C93	C	0.989129	0.114377	0.692128
C94	C	1.489129	0.614377	1.192128
C95	C	0.989115	0.114379	0.307831
C96	C	1.489115	0.614379	0.807831
H97	H	0.543729	0.244017	0.060035
H98	H	1.043729	0.744017	0.560035
H99	H	1.092419	0.011118	0.416349
H100	H	1.592419	0.511118	0.916349
F101	F	0.851029	-0.288821	0.078476
F102	F	1.351029	0.211179	0.578476
H103	H	1.102847	-0.471693	-0.083435
H104	H	1.602847	0.028307	0.416565
F105	F	1.106657	-0.003117	0.595114
F106	F	1.606657	0.496883	1.095114
F107	F	0.871588	0.231870	0.595146
F108	F	1.371588	0.731870	1.095146
H109	H	0.433161	-0.001848	-0.083437
H110	H	0.933161	0.498152	0.416563
F111	F	0.848265	-0.446154	-0.078738
F112	F	1.348265	0.053846	0.421262
H113	H	0.418831	0.095470	-0.146258
H114	H	0.918831	0.595470	0.353742
H115	H	0.859659	-0.441532	0.059294
H116	H	1.359659	0.058468	0.559294
H117	H	1.100661	-0.471823	0.087471
H118	H	1.600661	0.028177	0.587471
F119	F	0.871571	0.231870	0.404840
F120	F	1.371571	0.731870	0.904840
F121	F	1.124900	-0.324483	0.087673
F122	F	1.624900	0.175517	0.587673
F123	F	0.990395	-0.463477	0.165395
F124	F	1.490395	0.036523	0.665395
F125	F	0.411941	0.110357	0.165392
F126	F	0.911941	0.610357	0.665392
F127	F	0.994744	-0.305825	0.164963
F128	F	1.494744	0.194175	0.664963
F129	F	0.992505	-0.306958	-0.164854
F130	F	1.492505	0.193042	0.335146
F131	F	0.427978	-0.020580	0.088682
F132	F	0.927978	0.479420	0.588682
F133	F	0.585436	-0.018626	0.087674
F134	F	1.085436	0.481374	0.587674
F135	F	0.550205	0.254955	-0.078377
F136	F	1.050205	0.754955	0.421623
F137	F	0.392066	0.252457	-0.078745
F138	F	0.892066	0.752457	0.421255
F139	F	1.123820	-0.322908	-0.090586
F140	F	1.623820	0.177092	0.409414
F141	F	0.390719	0.252196	0.077599
F142	F	0.890719	0.752196	0.577599
H143	H	0.563846	0.101692	0.145852
H144	H	1.063846	0.601692	0.645852
H145	H	0.862252	-0.296825	-0.059968
H146	H	1.362252	0.203175	0.440032
H147	H	1.005415	-0.460450	-0.146258
H148	H	1.505415	0.039550	0.353742
H149	H	0.576617	0.003049	-0.089025
H150	H	1.076617	0.503049	0.410975
F151	F	0.567953	0.114036	-0.164844
F152	F	1.067953	0.614036	0.335156
