data_functionalizedCrystal
_audit_creation_method	'MofGen! by Chris Wilmer'
_symmetry_space_group_name_H-M	'P1'
_symmetry_Int_Tables_number	1
_symmetry_cell_setting	triclinic
loop_
_symmetry_equiv_pos_as_xyz
  x,y,z
_cell_length_a	16.625547
_cell_length_b	16.625539
_cell_length_c	10.686285
_cell_angle_alpha	85.609990
_cell_angle_beta	85.631193
_cell_angle_gamma	89.978691
loop_
_atom_site_label
_atom_site_type_symbol
_atom_site_fract_x
_atom_site_fract_y
_atom_site_fract_z
Zn1	Zn	1.257367	-0.431441	-0.502369
Zn2	Zn	1.590700	-0.098108	-0.169035
Zn3	Zn	1.924033	0.235225	0.164298
Zn4	Zn	1.267659	-0.286293	-0.713382
Zn5	Zn	1.600992	0.047041	-0.380049
Zn6	Zn	1.934325	0.380374	-0.046715
Zn7	Zn	1.122538	-0.296610	-0.502406
Zn8	Zn	1.455872	0.036723	-0.169072
Zn9	Zn	1.789205	0.370057	0.164261
Zn10	Zn	1.132876	-0.421076	-0.713312
Zn11	Zn	1.466209	-0.087743	-0.379979
Zn12	Zn	1.799543	0.245591	-0.046646
O13	O	1.195110	-0.358855	-0.607867
O14	O	1.528443	-0.025522	-0.274534
O15	O	1.861777	0.307812	0.058800
O16	O	1.371565	-0.412207	-0.530374
O17	O	1.704898	-0.078874	-0.197040
O18	O	2.038232	0.254459	0.136293
O19	O	1.248389	-0.174827	-0.685440
O20	O	1.581723	0.158507	-0.352107
O21	O	1.915056	0.491840	-0.018774
O22	O	1.131790	-0.323152	-0.325826
O23	O	1.465123	0.010182	0.007508
O24	O	1.798457	0.343515	0.340841
O25	O	1.379127	-0.305567	-0.685404
O26	O	1.712460	0.027766	-0.352071
O27	O	2.045793	0.361100	-0.018738
O28	O	1.230848	-0.422212	-0.325799
O29	O	1.564181	-0.088878	0.007535
O30	O	1.897514	0.244455	0.340868
O31	O	1.141770	-0.182407	-0.530437
O32	O	1.475103	0.150926	-0.197103
O33	O	1.808437	0.484260	0.136230
O34	O	1.011077	-0.313101	-0.530369
O35	O	1.344410	0.020233	-0.197036
O36	O	1.677743	0.353566	0.136298
O37	O	1.149409	-0.535286	-0.685285
O38	O	1.482742	-0.201952	-0.351952
O39	O	1.816076	0.131381	-0.018619
O40	O	1.018672	-0.404545	-0.685321
O41	O	1.352005	-0.071212	-0.351988
O42	O	1.685338	0.262121	-0.018655
O43	O	1.240872	-0.542901	-0.530306
O44	O	1.574205	-0.209568	-0.196973
O45	O	1.907538	0.123766	0.136361
O46	O	1.258413	-0.295516	-0.889948
O47	O	1.591747	0.037817	-0.556614
O48	O	1.925080	0.371150	-0.223281
O49	O	1.159389	-0.394541	-0.889896
O50	O	1.492722	-0.061208	-0.556563
O51	O	1.826056	0.272126	-0.223230
C52	C	0.985618	-0.358818	-0.607843
C53	C	1.318951	-0.025485	-0.274509
C54	C	1.652285	0.307848	0.058824
C55	C	0.895998	-0.358820	-0.607863
C56	C	1.229331	-0.025487	-0.274529
C57	C	1.562664	0.307847	0.058804
C58	C	0.823215	-0.358830	-0.607865
C59	C	1.156549	-0.025497	-0.274532
C60	C	1.489882	0.307837	0.058802
C61	C	0.731907	-0.358850	-0.607872
C62	C	1.065241	-0.025516	-0.274538
C63	C	1.398574	0.307817	0.058795
C64	C	0.659131	-0.358870	-0.607883
C65	C	0.992465	-0.025536	-0.274550
C66	C	1.325798	0.307797	0.058783
C67	C	0.567818	-0.358889	-0.607892
C68	C	0.901151	-0.025555	-0.274559
C69	C	1.234484	0.307778	0.058775
C70	C	1.195145	-0.569168	-0.607784
C71	C	1.528479	-0.235835	-0.274450
C72	C	1.861812	0.097498	0.058883
C73	C	1.195160	-0.658791	-0.607748
C74	C	1.528494	-0.325458	-0.274415
C75	C	1.861827	0.007876	0.058918
C76	C	1.195172	-0.731575	-0.607720
C77	C	1.528506	-0.398242	-0.274387
C78	C	1.861839	-0.064908	0.058946
C79	C	1.195189	-0.822886	-0.607673
C80	C	1.528522	-0.489552	-0.274340
C81	C	1.861855	-0.156219	0.058993
C82	C	1.195206	-0.895664	-0.607629
C83	C	1.528539	-0.562331	-0.274296
C84	C	1.861872	-0.228998	0.059038
C85	C	1.195223	-0.986981	-0.607583
C86	C	1.528557	-0.653648	-0.274250
C87	C	1.861890	-0.320314	0.059083
C88	C	1.405420	-0.358893	-0.607893
C89	C	1.738753	-0.025559	-0.274559
C90	C	2.072087	0.307774	0.058774
C91	C	1.495042	-0.358909	-0.607903
C92	C	1.828375	-0.025575	-0.274570
C93	C	2.161708	0.307758	0.058763
C94	C	1.211162	-0.342802	-0.935706
C95	C	1.544495	-0.009469	-0.602373
C96	C	1.877828	0.323865	-0.269039
C97	C	1.218102	-0.335961	-1.075957
C98	C	1.551436	-0.002628	-0.742624
C99	C	1.884769	0.330706	-0.409290
C100	C	1.195117	-0.149365	-0.607859
C101	C	1.528450	0.183969	-0.274526
C102	C	1.861783	0.517302	0.058808
C103	C	1.195240	-0.059760	-0.607539
C104	C	1.528574	0.273574	-0.274206
C105	C	1.861907	0.606907	0.059128
C106	C	1.179018	-0.374989	-0.278748
C107	C	1.512351	-0.041655	0.054585
C108	C	1.845684	0.291678	0.387919
C109	C	1.172160	-0.381864	-0.138497
C110	C	1.505493	-0.048531	0.194836
C111	C	1.838827	0.284803	0.528170
H112	H	1.127517	-0.426398	-1.084746
H113	H	1.460851	-0.093064	-0.751412
H114	H	1.794184	0.240269	-0.418079
H115	H	1.262742	-0.291419	-1.129716
H116	H	1.596076	0.041914	-0.796383
H117	H	1.929409	0.375247	-0.463049
