data_functionalizedCrystal
_audit_creation_method	'MofGen! by Chris Wilmer'
_symmetry_space_group_name_H-M	'P1'
_symmetry_Int_Tables_number	1
_symmetry_cell_setting	triclinic
loop_
_symmetry_equiv_pos_as_xyz
  x,y,z
_cell_length_a	8.559649
_cell_length_b	15.944493
_cell_length_c	7.088929
_cell_angle_alpha	83.783099
_cell_angle_beta	95.324505
_cell_angle_gamma	76.626854
loop_
_atom_site_label
_atom_site_type_symbol
_atom_site_fract_x
_atom_site_fract_y
_atom_site_fract_z
O1	O	2.103731	-0.018804	-0.158984
O2	O	1.638515	0.024577	-0.158980
O3	O	1.883874	-0.120213	-0.158998
O4	O	1.858372	0.125987	-0.158966
O5	O	1.916663	-0.139602	0.158975
O6	O	1.671305	0.005188	0.158993
O7	O	2.136521	-0.038193	0.158989
Cu8	Cu	1.906907	-0.018272	0.188024
Cu9	Cu	1.868129	0.004657	-0.188015
O10	O	1.891162	0.106598	0.159007
C11	C	1.595379	0.018170	0.000007
C12	C	1.417996	0.027956	0.000007
C13	C	1.899225	-0.161135	-0.000020
C14	C	1.896098	-0.254180	-0.000044
C15	C	2.040526	-0.499263	-0.000009
C16	C	1.946476	-0.535245	-0.156784
C17	C	1.890309	-0.424529	-0.000020
C18	C	1.978769	-0.554335	0.156712
C19	C	1.884730	-0.589080	0.000011
C20	C	1.796287	-0.459277	-0.156925
C21	C	1.828616	-0.478374	0.156712
C22	C	1.734452	-0.514313	-0.000102
C23	C	1.893527	-0.329736	-0.000040
C24	C	1.881499	-0.683869	0.000017
C25	C	2.179656	-0.031785	-0.000002
C26	C	2.357038	-0.041570	-0.000015
C27	C	1.875810	0.147520	0.000025
C28	C	1.878937	0.240566	0.000036
N29	N	1.934192	-0.034401	0.452510
N30	N	1.840856	0.020778	-0.452501
H31	H	2.169901	-0.491976	-0.000168
H32	H	2.030943	-0.091582	0.534159
O33	O	1.769078	-0.448648	0.314784
C34	C	1.608759	-0.457020	0.316123
H35	H	1.588931	-0.509423	0.225666
H36	H	1.586575	-0.476036	0.469230
H37	H	1.521135	-0.392372	0.254560
H38	H	1.744124	0.077960	0.465860
H39	H	1.334479	0.094969	-0.000003
O40	O	1.704096	-0.410383	-0.315091
C41	C	1.543247	-0.418060	-0.315486
H42	H	1.520536	-0.438245	-0.163192
H43	H	1.456614	-0.352808	-0.374795
H44	H	1.522525	-0.469332	-0.408791
O45	O	1.456905	-0.121466	0.000070
C46	C	1.617723	-0.113783	0.000044
H47	H	1.630146	-0.051865	0.060255
H48	H	1.702859	-0.172527	0.092360
H49	H	1.650207	-0.110745	-0.152499
O50	O	1.580068	-0.522956	-0.000109
C51	C	1.578914	-0.611308	0.001411
H52	H	1.703435	-0.653817	0.062500
H53	H	1.484664	-0.627162	0.093738
H54	H	1.547708	-0.624390	-0.150770
O55	O	2.006118	-0.565031	-0.314765
C56	C	2.167399	-0.558086	-0.314241
H57	H	2.221271	-0.556772	-0.161678
H58	H	2.241217	-0.616311	-0.373459
H59	H	2.170126	-0.495561	-0.407163
O60	O	2.070997	-0.603300	0.314778
C61	C	2.232175	-0.596314	0.314143
H62	H	2.234330	-0.533393	0.222363
H63	H	2.287218	-0.595778	0.466611
H64	H	2.305308	-0.654121	0.252947
