data_functionalizedCrystal
_audit_creation_method	'MofGen! by Chris Wilmer'
_symmetry_space_group_name_H-M	'P1'
_symmetry_Int_Tables_number	1
_symmetry_cell_setting	triclinic
loop_
_symmetry_equiv_pos_as_xyz
  x,y,z
_cell_length_a	9.065218
_cell_length_b	14.044220
_cell_length_c	7.540329
_cell_angle_alpha	89.995368
_cell_angle_beta	89.996962
_cell_angle_gamma	89.102381
loop_
_atom_site_label
_atom_site_type_symbol
_atom_site_fract_x
_atom_site_fract_y
_atom_site_fract_z
O1	O	1.975818	0.139141	-0.147493
O2	O	2.475818	0.639141	0.352507
O3	O	1.547798	0.150554	-0.147496
O4	O	2.047798	0.650554	0.352504
O5	O	1.755384	0.006808	-0.147477
O6	O	2.255384	0.506808	0.352523
O7	O	1.768233	0.282887	-0.147512
O8	O	2.268233	0.782887	0.352488
O9	O	1.755370	0.006806	0.147488
O10	O	2.255370	0.506806	0.647488
O11	O	1.547785	0.150552	0.147469
O12	O	2.047785	0.650552	0.647469
O13	O	1.975805	0.139139	0.147472
O14	O	2.475805	0.639139	0.647472
Cu15	Cu	1.761793	0.144845	0.174403
Cu16	Cu	2.261793	0.644845	0.674403
Cu17	Cu	1.761810	0.144848	-0.174427
Cu18	Cu	2.261810	0.644848	0.325573
O19	O	1.768219	0.282885	0.147453
O20	O	2.268219	0.782885	0.647453
C21	C	1.492683	0.149456	-0.000014
C22	C	1.992683	0.649456	0.499986
C23	C	1.328477	0.146176	-0.000014
C24	C	1.828477	0.646176	0.499986
C25	C	1.749752	-0.028556	0.000006
C26	C	2.249752	0.471444	0.500006
C27	C	1.732975	-0.133926	0.000008
C28	C	2.232975	0.366074	0.500008
C29	C	1.702304	-0.326850	-0.000017
C30	C	2.202304	0.173150	0.499983
C31	C	1.821293	-0.383462	-0.000022
C32	C	2.321293	0.116538	0.499978
C33	C	1.804226	-0.490812	-0.000036
C34	C	2.304226	0.009188	0.499964
C35	C	1.719368	-0.219491	-0.000003
C36	C	2.219368	0.280509	0.499997
C37	C	2.030920	0.140237	-0.000014
C38	C	2.530920	0.640237	0.499986
C39	C	2.195126	0.143517	-0.000025
C40	C	2.695126	0.643517	0.499975
C41	C	1.773850	0.318249	-0.000034
C42	C	2.273850	0.818249	0.499966
C43	C	1.790627	0.423619	-0.000048
C44	C	2.290627	0.923619	0.499952
N45	N	1.761793	0.144843	0.419752
N46	N	2.261793	0.644843	0.919752
N47	N	1.761821	0.144842	-0.419776
N48	N	2.261821	0.644842	0.080224
H49	H	1.935980	-0.351306	-0.000140
H50	H	2.435980	0.148694	0.499860
Br51	Br	1.511161	-0.380442	-0.000034
Br52	Br	2.011161	0.119558	0.499966
