data_functionalizedCrystal
_audit_creation_method	'MofGen! by Chris Wilmer'
_symmetry_space_group_name_H-M	'P1'
_symmetry_Int_Tables_number	1
_symmetry_cell_setting	triclinic
loop_
_symmetry_equiv_pos_as_xyz
  x,y,z
_cell_length_a	14.560438
_cell_length_b	14.560438
_cell_length_c	23.196401
_cell_angle_alpha	60.013760
_cell_angle_beta	90.014674
_cell_angle_gamma	60.000939
loop_
_atom_site_label
_atom_site_type_symbol
_atom_site_fract_x
_atom_site_fract_y
_atom_site_fract_z
Zr1	Zr	0.884764	1.005208	-0.075553
O2	O	0.738090	1.196793	-0.167589
O3	O	0.929722	0.813624	-0.047351
O4	O	0.929684	1.005211	-0.167604
O5	O	0.738165	1.005203	0.047536
O6	O	1.080822	1.005214	-0.167603
O7	O	0.738129	1.005205	-0.047336
O8	O	1.080890	0.662498	0.047508
O9	O	0.738096	1.347918	-0.167575
O10	O	1.061695	0.892427	-0.035308
O11	O	0.948929	0.892424	0.035492
O12	O	0.948885	1.117993	-0.106090
O13	O	0.836119	1.117990	-0.035289
Zr14	Zr	1.125870	1.005209	0.075758
Zr15	Zr	1.125812	1.005213	-0.075551
Zr16	Zr	0.884822	1.005205	0.075756
Zr17	Zr	0.884774	1.246236	-0.075531
Zr18	Zr	1.125860	0.764181	0.075736
O19	O	1.080912	1.196794	0.047557
O20	O	1.080830	1.196799	-0.167585
O21	O	0.738172	1.196788	0.047553
O22	O	1.272543	0.813624	0.167794
O23	O	1.272461	0.813630	-0.047348
O24	O	0.929804	0.813618	0.167790
O25	O	1.272469	1.005214	-0.047330
O26	O	1.080950	1.005206	0.167810
O27	O	0.929812	1.005203	0.167808
O28	O	1.272505	1.005212	0.047541
O29	O	0.929698	1.347922	-0.167573
O30	O	1.080936	0.662496	0.167778
O31	O	1.272537	0.662499	0.167780
O32	O	1.272491	0.662502	0.047510
O33	O	0.738142	1.347915	-0.047304
O34	O	0.929743	1.347919	-0.047302
O35	O	1.061749	0.892424	0.106295
O36	O	1.174515	0.892427	0.035495
O37	O	1.061704	1.117994	-0.035287
O38	O	0.948938	1.117990	0.035513
C39	C	1.005305	0.703720	0.000075
C40	C	1.005301	0.601397	0.000066
C41	C	0.922024	0.636524	-0.052174
C42	C	0.922042	0.540335	-0.052138
C43	C	1.088618	0.373894	0.052382
C44	C	1.088604	0.470082	0.052343
C45	C	0.825850	0.732616	-0.112516
C46	C	0.825868	0.636427	-0.112481
C47	C	0.703802	1.005203	0.000100
C48	C	0.601471	1.005202	0.000099
C49	C	0.612279	0.887461	0.037046
C50	C	0.516124	0.887467	0.037052
C51	C	0.398357	1.122966	-0.036842
C52	C	0.494511	1.122958	-0.036843
C53	C	0.680270	0.751497	0.079705
C54	C	0.584115	0.751503	0.079712
C55	C	1.306831	1.005214	0.000106
C56	C	1.409162	1.005216	0.000107
C57	C	1.005245	1.005213	-0.189162
C58	C	1.005220	1.005215	-0.253396
C59	C	1.005329	1.306697	0.000130
C60	C	1.005333	1.409020	0.000140
C61	C	0.946340	1.122955	-0.320517
C62	C	0.946368	1.122956	-0.380872
C63	C	1.005262	1.005212	-0.374103
C64	C	1.064156	0.887456	-0.306970
C65	C	1.064135	0.887458	-0.246617
C66	C	0.996895	0.915002	-0.441428
C67	C	0.996908	0.915005	-0.501782
C68	C	1.005333	1.005202	-0.560250
C69	C	1.013723	1.095417	-0.558365
C70	C	1.013702	1.095418	-0.498012
C71	C	1.005292	1.005197	-0.439541
C72	C	0.946481	1.122951	-0.692817
C73	C	0.946517	1.122948	-0.753172
C74	C	1.064297	0.887445	-0.679268
C75	C	1.064268	0.887451	-0.618915
C76	C	1.005354	1.005208	-0.625695
C77	C	1.005389	1.005204	0.189367
C78	C	1.005413	1.005202	0.253602
C79	C	1.306819	0.703725	0.000078
C80	C	1.409146	0.601404	0.000070
C81	C	1.005377	0.703715	0.189339
C82	C	1.005397	0.601391	0.253564
C83	C	1.306891	0.703720	0.189342
C84	C	1.409243	0.601398	0.253569
C85	C	0.703742	1.306697	-0.189137
C86	C	0.601391	1.409019	-0.253363
C87	C	0.703815	1.306692	0.000127
C88	C	0.601487	1.409013	0.000136
C89	C	1.005257	1.306702	-0.189134
C90	C	1.005236	1.409026	-0.253359
C91	C	1.064298	0.553339	0.320690
C92	C	1.064312	0.457208	0.381042
C93	C	1.005433	0.409124	0.374267
C94	C	0.946525	0.457186	0.307135
C95	C	0.946505	0.553322	0.246784
C96	C	1.516181	0.553348	0.246773
C97	C	1.612360	0.457219	0.307114
C98	C	1.601599	0.409134	0.374251
C99	C	1.494650	0.457194	0.381045
C100	C	1.398473	0.553328	0.320704
C101	C	0.494453	1.457081	-0.246568
C102	C	0.398273	1.553240	-0.306909
C103	C	0.409034	1.601329	-0.374046
C104	C	0.515984	1.553264	-0.380840
C105	C	0.612161	1.457113	-0.320499
C106	C	1.064127	1.457079	-0.246562
C107	C	1.064130	1.553211	-0.306902
C108	C	1.005235	1.601294	-0.374040
C109	C	0.946342	1.553232	-0.380836
C110	C	0.946346	1.457095	-0.320496
C111	C	1.398332	0.553330	-0.036890
C112	C	1.494483	0.457196	-0.036900
C113	C	1.612259	0.457216	0.037015
C114	C	1.516109	0.553354	0.037020
C115	C	1.330336	0.553314	-0.079562
C116	C	1.426487	0.457180	-0.079573
H117	H	0.842648	0.636395	-0.160473
Cl118	Cl	1.481141	0.396729	0.465451
Cl119	Cl	1.746797	0.396816	0.298557
H120	H	0.898574	1.218830	-0.807826
Cl121	Cl	0.872458	0.613711	0.162400
Cl122	Cl	0.570675	0.686363	0.164072
Cl123	Cl	1.249712	0.692278	-0.166798
H124	H	1.020578	1.168867	-0.605973
Cl125	Cl	1.193308	0.425916	0.118012
H126	H	0.834107	0.795593	-0.164070
Cl127	Cl	0.584067	0.670953	0.043032
H128	H	0.743759	0.647240	-0.107266
Cl129	Cl	0.480895	1.396645	-0.162174
Cl130	Cl	1.193335	0.208811	0.118099
Cl131	Cl	1.529739	0.613786	0.162380
H132	H	0.311260	1.218839	-0.066919
Cl133	Cl	1.426502	0.318197	-0.042929
Cl134	Cl	0.872447	1.270985	-0.701336
H135	H	0.749385	0.792288	-0.101974
H136	H	1.112251	0.791575	-0.673755
Cl137	Cl	0.480919	1.270981	-0.083281
Cl138	Cl	0.288114	1.722204	-0.449897
H139	H	1.112286	0.418087	0.435698
H140	H	0.311200	1.592359	-0.301363
H141	H	1.112245	0.592477	0.326220
Cl142	Cl	1.005236	1.722158	-0.449890
H143	H	1.679922	0.330856	0.423379
Cl144	Cl	1.005473	0.288264	0.450145
Cl145	Cl	0.872253	1.270992	-0.329042
Cl146	Cl	0.529493	1.613728	-0.465246
Cl147	Cl	0.746594	1.396695	-0.329055
H148	H	1.112087	1.417944	-0.191901
H149	H	1.311403	0.592437	0.326248
Cl150	Cl	0.986349	0.801603	-0.504149
H151	H	0.898418	1.218837	-0.435532
Cl152	Cl	0.872513	0.396722	0.298630
H153	H	0.990026	0.841554	-0.393825
H154	H	0.732447	0.699378	0.136206
Cl155	Cl	0.758857	0.686370	0.036222
Cl156	Cl	1.138165	1.613620	-0.298343
H157	H	0.898391	1.592396	-0.435507
H158	H	0.898385	1.417981	-0.326040
H159	H	1.279431	0.517180	-0.051406
Cl160	Cl	1.529710	0.613804	0.083476
H161	H	1.435193	0.493315	-0.134213
Cl162	Cl	1.024251	1.208823	-0.495641
Cl163	Cl	1.138269	0.739427	-0.534531
H164	H	1.112109	0.791588	-0.301462
H165	H	1.699358	0.418082	0.067099
Cl166	Cl	1.138154	0.739430	-0.162231
