data_functionalizedCrystal
_audit_creation_method	'MofGen! by Chris Wilmer'
_symmetry_space_group_name_H-M	'P1'
_symmetry_Int_Tables_number	1
_symmetry_cell_setting	triclinic
loop_
_symmetry_equiv_pos_as_xyz
  x,y,z
_cell_length_a	6.394989
_cell_length_b	10.654550
_cell_length_c	9.730223
_cell_angle_alpha	89.996251
_cell_angle_beta	89.998443
_cell_angle_gamma	94.508693
loop_
_atom_site_label
_atom_site_type_symbol
_atom_site_fract_x
_atom_site_fract_y
_atom_site_fract_z
O1	O	-0.293432	1.670942	-0.114394
O2	O	-0.321390	1.305759	-0.114371
O3	O	-0.003422	1.493534	-0.114383
O4	O	-0.611400	1.483167	-0.114381
O5	O	-0.003430	1.493532	0.114197
O6	O	-0.321398	1.305757	0.114209
O7	O	-0.293440	1.670940	0.114186
Zn8	Zn	-0.307420	1.488348	0.150490
Zn9	Zn	-0.307410	1.488351	-0.150674
O10	O	-0.611408	1.483165	0.114199
C11	C	-0.319341	1.258939	-0.000078
C12	C	-0.313199	1.119430	-0.000069
N13	N	-0.307426	1.488355	0.356026
C14	C	-0.500414	1.041927	-0.000089
C15	C	-0.494630	0.910845	-0.000112
C16	C	-0.114402	0.934782	-0.000103
C17	C	-0.120188	1.065861	-0.000070
C18	C	-0.719936	1.028107	-0.000100
C19	C	-0.714152	0.897025	-0.000124
C20	C	0.074425	1.491483	-0.000098
C21	C	0.310751	1.485219	-0.000099
C22	C	-0.295489	1.717760	-0.000109
C23	C	-0.301631	1.857269	-0.000127
N24	N	-0.307387	1.488353	-0.356210
C25	C	-0.166678	1.571524	0.427947
C26	C	-0.166653	1.571521	0.571830
C27	C	-0.448142	1.405175	0.571859
C28	C	-0.448156	1.405174	0.427979
C29	C	-0.004169	1.667567	0.427931
C30	C	-0.004143	1.667563	0.571814
H31	H	0.032261	1.128960	-0.000034
H32	H	-0.796862	0.856169	-0.095791
C33	C	-0.726375	1.240742	0.442466
C34	C	-0.602857	1.313744	0.348923
H35	H	-0.821891	1.184300	0.393657
H36	H	-0.638692	1.194198	0.498580
H37	H	-0.802339	1.294221	0.498587
H38	H	-0.526881	1.260265	0.292808
H39	H	-0.690552	1.360291	0.292785
H40	H	-0.039939	1.764454	0.610859
C41	C	-0.900319	0.962604	0.207346
C42	C	-0.835825	1.068943	0.129045
H43	H	-0.971848	0.987819	0.287076
H44	H	-0.991744	0.907325	0.154189
H45	H	-0.781093	0.920562	0.233894
H46	H	-0.955053	1.110980	0.102487
H47	H	-0.744396	1.124243	0.182211
C48	C	-0.870381	0.975836	-0.220837
C49	C	-0.814306	1.077253	-0.133314
H50	H	-0.928647	1.006181	-0.303075
H51	H	-0.749471	0.933267	-0.242254
H52	H	-0.971086	0.919292	-0.176544
H53	H	-0.713588	1.133794	-0.177604
H54	H	-0.935232	1.119843	-0.111899
H55	H	-0.055053	1.759289	0.383299
C56	C	0.344083	1.617350	0.487123
C57	C	0.212597	1.636313	0.375196
H58	H	0.477894	1.598048	0.454564
H59	H	0.358838	1.691647	0.541342
H60	H	0.284699	1.549480	0.541359
H61	H	0.271974	1.704190	0.320965
H62	H	0.197848	1.562008	0.320955
H63	H	0.042742	0.891149	-0.000125
H64	H	-0.562719	1.337450	0.630458
H65	H	-0.780498	0.852055	0.098561
H66	H	0.147607	1.635443	0.616431
