data_functionalizedCrystal
_audit_creation_method	'MofGen! by Chris Wilmer'
_symmetry_space_group_name_H-M	'P1'
_symmetry_Int_Tables_number	1
_symmetry_cell_setting	triclinic
loop_
_symmetry_equiv_pos_as_xyz
  x,y,z
_cell_length_a	16.992694
_cell_length_b	14.586319
_cell_length_c	16.109304
_cell_angle_alpha	90.001538
_cell_angle_beta	87.065430
_cell_angle_gamma	89.998473
loop_
_atom_site_label
_atom_site_type_symbol
_atom_site_fract_x
_atom_site_fract_y
_atom_site_fract_z
O1	O	1.040348	0.076116	0.176289
O2	O	1.373681	0.409450	0.509622
O3	O	1.707014	0.742783	0.842955
O4	O	0.812063	0.076143	0.174355
O5	O	1.145396	0.409477	0.507688
O6	O	1.478729	0.742810	0.841021
O7	O	0.932475	0.076129	0.054709
O8	O	1.265809	0.409463	0.388042
O9	O	1.599142	0.742796	0.721376
O10	O	0.919935	0.076130	0.295934
O11	O	1.253268	0.409463	0.629267
O12	O	1.586602	0.742797	0.962601
O13	O	0.932466	-0.076351	0.054705
O14	O	1.265799	0.256982	0.388039
O15	O	1.599132	0.590315	0.721372
O16	O	0.812053	-0.076338	0.174351
O17	O	1.145386	0.256996	0.507684
O18	O	1.478720	0.590329	0.841017
O19	O	1.040338	-0.076365	0.176285
O20	O	1.373671	0.256969	0.509618
O21	O	1.707005	0.590302	0.842952
Cu22	Cu	0.926195	-0.090274	0.175318
Cu23	Cu	1.259528	0.243060	0.508651
Cu24	Cu	1.592861	0.576393	0.841984
Cu25	Cu	0.926206	0.090052	0.175322
Cu26	Cu	1.259539	0.423386	0.508655
Cu27	Cu	1.592873	0.756719	0.841989
O28	O	0.919925	-0.076351	0.295930
O29	O	1.253259	0.256983	0.629264
O30	O	1.586592	0.590316	0.962597
C31	C	0.782846	-0.000094	0.171865
C32	C	1.116179	0.333240	0.505198
C33	C	1.449513	0.666573	0.838531
C34	C	0.695804	-0.000083	0.164441
C35	C	1.029137	0.333250	0.497775
C36	C	1.362470	0.666584	0.831108
N37	N	0.926192	-0.217106	0.175314
N38	N	1.259526	0.116228	0.508648
N39	N	1.592859	0.449561	0.841981
C40	C	0.931962	-0.000109	0.023699
C41	C	1.265295	0.333225	0.357032
C42	C	1.598629	0.666558	0.690365
C43	C	0.930438	-0.000102	-0.068698
C44	C	1.263771	0.333231	0.264635
C45	C	1.597105	0.666564	0.597968
C46	C	0.645546	-0.000084	0.236067
C47	C	0.978879	0.333250	0.569401
C48	C	1.312212	0.666583	0.902734
C49	C	0.563761	-0.000096	0.229087
C50	C	0.897094	0.333237	0.562421
C51	C	1.230427	0.666570	0.895754
C52	C	0.532235	-0.000102	0.150480
C53	C	0.865569	0.333232	0.483814
C54	C	1.198902	0.666565	0.817147
C55	C	0.582500	-0.000104	0.078849
C56	C	0.915833	0.333229	0.412182
C57	C	1.249167	0.666563	0.745516
C58	C	0.664283	-0.000098	0.085830
C59	C	0.997617	0.333235	0.419163
C60	C	1.330950	0.666569	0.752497
C61	C	0.288645	-0.000126	0.121548
C62	C	0.621978	0.333207	0.454881
C63	C	0.955311	0.666540	0.788214
C64	C	0.206855	-0.000130	0.114572
C65	C	0.540188	0.333204	0.447906
C66	C	0.873522	0.666537	0.781239
C67	C	0.188121	-0.000124	0.264811
C68	C	0.521455	0.333210	0.598144
C69	C	0.854788	0.666543	0.931478
C70	C	0.269907	-0.000112	0.271785
C71	C	0.603240	0.333221	0.605118
C72	C	0.936574	0.666555	0.938452
C73	C	0.320164	-0.000119	0.200154
C74	C	0.653498	0.333214	0.533487
C75	C	0.986831	0.666548	0.866820
N76	N	0.448638	-0.000112	0.143344
N77	N	0.781972	0.333221	0.476677
N78	N	1.115305	0.666555	0.810010
N79	N	0.403760	-0.000116	0.207291
N80	N	0.737093	0.333218	0.540624
N81	N	1.070427	0.666551	0.873958
C82	C	1.069555	-0.000126	0.178775
C83	C	1.402888	0.333208	0.512108
C84	C	1.736221	0.666541	0.845441
C85	C	1.156597	-0.000130	0.186198
C86	C	1.489930	0.333203	0.519532
C87	C	1.823264	0.666536	0.852865
C88	C	0.979532	-0.548105	0.122355
C89	C	1.312865	-0.214772	0.455689
C90	C	1.646198	0.118561	0.789022
C91	C	0.979530	-0.452124	0.122356
C92	C	1.312863	-0.118791	0.455689
C93	C	1.646196	0.214542	0.789022
C94	C	0.872873	-0.452123	0.228284
C95	C	1.206206	-0.118789	0.561617
C96	C	1.539539	0.214544	0.894951
C97	C	0.872879	-0.548102	0.228287
C98	C	1.206212	-0.214769	0.561621
C99	C	1.539546	0.118565	0.894954
C100	C	0.926208	-0.596091	0.175318
C101	C	1.259541	-0.262758	0.508651
C102	C	1.592874	0.070576	0.841985
C103	C	0.926199	-0.404130	0.175315
C104	C	1.259533	-0.070797	0.508648
C105	C	1.592866	0.262536	0.841982
C106	C	0.926197	-0.300063	0.175316
C107	C	1.259530	0.033270	0.508649
C108	C	1.592864	0.366604	0.841982
C109	C	0.926211	-0.700165	0.175318
C110	C	1.259545	-0.366831	0.508652
C111	C	1.592878	-0.033498	0.841985
N112	N	0.926215	0.216884	0.175319
N113	N	1.259548	0.550218	0.508652
N114	N	1.592881	0.883551	0.841986
C115	C	0.926922	0.083012	-0.281269
C116	C	1.260255	0.416345	0.052065
C117	C	1.593589	0.749679	0.385398
C118	C	0.925483	0.083011	-0.368085
C119	C	1.258816	0.416345	-0.034752
C120	C	1.592150	0.749678	0.298582
C121	C	0.925476	-0.083232	-0.368086
C122	C	1.258810	0.250102	-0.034752
C123	C	1.592143	0.583435	0.298581
C124	C	0.926910	-0.083230	-0.281271
C125	C	1.260243	0.250103	0.052063
C126	C	1.593577	0.583437	0.385396
C127	C	0.927637	-0.000105	-0.237865
C128	C	1.260970	0.333228	0.095469
C129	C	1.594303	0.666561	0.428802
C130	C	0.924764	-0.000108	-0.411496
C131	C	1.258097	0.333226	-0.078163
C132	C	1.591431	0.666559	0.255171
C133	C	0.923203	-0.000109	-0.505626
C134	C	1.256537	0.333224	-0.172292
C135	C	1.589870	0.666557	0.161041
C136	C	0.929196	-0.000104	-0.143729
C137	C	1.262529	0.333230	0.189605
C138	C	1.595863	0.666563	0.522938
C139	C	0.920439	-0.000111	0.326941
C140	C	1.253772	0.333223	0.660274
C141	C	1.587105	0.666556	0.993608
C142	C	0.921963	-0.000111	0.419338
C143	C	1.255296	0.333222	0.752671
C144	C	1.588629	0.666556	1.086004
H145	H	0.671206	-0.000078	0.300077
H146	H	1.004540	0.333255	0.633411
H147	H	1.337873	0.666588	0.966744
H148	H	0.829453	-0.413040	0.271409
H149	H	1.162786	-0.079707	0.604742
H150	H	1.496119	0.253626	0.938076
H151	H	0.522843	-0.000096	0.287413
H152	H	0.856177	0.333238	0.620746
H153	H	1.189510	0.666571	0.954080
H154	H	0.829456	-0.587175	0.271420
H155	H	1.162789	-0.253841	0.604753
H156	H	1.496122	0.079492	0.938087
Cl157	Cl	0.309532	-0.000099	0.370609
Cl158	Cl	0.642866	0.333234	0.703942
Cl159	Cl	0.976199	0.666568	1.037276
H160	H	0.556826	-0.000122	0.014846
H161	H	0.890159	0.333212	0.348179
H162	H	1.223492	0.666545	0.681512
H163	H	1.022952	-0.413057	0.079229
H164	H	1.356285	-0.079724	0.412563
H165	H	1.689619	0.253610	0.745896
H166	H	0.927512	0.150697	-0.245930
H167	H	1.260845	0.484031	0.087403
H168	H	1.594178	0.817364	0.420737
Cl169	Cl	0.924583	0.187507	-0.422646
Cl170	Cl	1.257916	0.520840	-0.089313
Cl171	Cl	1.591249	0.854173	0.244021
H172	H	0.924886	-0.150909	-0.403437
H173	H	1.258219	0.182425	-0.070104
H174	H	1.591553	0.515758	0.263229
Cl175	Cl	0.167225	-0.000157	0.015745
Cl176	Cl	0.500559	0.333176	0.349078
Cl177	Cl	0.833892	0.666509	0.682411
Cl178	Cl	0.124937	-0.000119	0.354856
Cl179	Cl	0.458270	0.333215	0.688189
Cl180	Cl	0.791604	0.666548	1.021522
Cl181	Cl	0.927799	-0.187729	-0.226701
Cl182	Cl	1.261133	0.145604	0.106633
Cl183	Cl	1.594466	0.478937	0.439966
H184	H	0.329555	-0.000133	0.063220
H185	H	0.662888	0.333201	0.396553
H186	H	0.996222	0.666534	0.729887
Cl187	Cl	0.727466	-0.000101	-0.004218
Cl188	Cl	1.060799	0.333232	0.329115
Cl189	Cl	1.394132	0.666565	0.662448
Cl190	Cl	1.046576	-0.608430	0.055769
Cl191	Cl	1.379910	-0.275097	0.389102
Cl192	Cl	1.713243	0.058236	0.722436
