data_functionalizedCrystal
_audit_creation_method	'MofGen! by Chris Wilmer'
_symmetry_space_group_name_H-M	'P1'
_symmetry_Int_Tables_number	1
_symmetry_cell_setting	triclinic
loop_
_symmetry_equiv_pos_as_xyz
  x,y,z
_cell_length_a	23.532361
_cell_length_b	11.792241
_cell_length_c	10.868271
_cell_angle_alpha	90.005281
_cell_angle_beta	89.999961
_cell_angle_gamma	96.488458
loop_
_atom_site_label
_atom_site_type_symbol
_atom_site_fract_x
_atom_site_fract_y
_atom_site_fract_z
O1	O	0.756092	-0.137520	-0.102200
O2	O	1.256092	0.362480	0.397800
O3	O	0.590343	-0.157509	-0.102229
O4	O	1.090343	0.342491	0.397771
O5	O	0.677239	0.017752	-0.102205
O6	O	1.177239	0.517752	0.397795
O7	O	0.669195	-0.312781	-0.102224
O8	O	1.169195	0.187219	0.397776
O9	O	0.677232	0.017759	0.102440
O10	O	1.177232	0.517759	0.602440
O11	O	0.590336	-0.157503	0.102416
O12	O	1.090336	0.342497	0.602416
O13	O	0.756084	-0.137513	0.102445
O14	O	1.256084	0.362487	0.602445
Zn15	Zn	0.673209	-0.147507	0.134922
Zn16	Zn	1.173209	0.352493	0.634922
Zn17	Zn	0.673218	-0.147515	-0.134706
Zn18	Zn	1.173218	0.352485	0.365294
O19	O	0.669188	-0.312774	0.102421
O20	O	1.169188	0.187226	0.602421
C21	C	0.569120	-0.157005	0.000090
C22	C	1.069120	0.342995	0.500090
C23	C	0.505892	-0.155500	0.000078
C24	C	1.005892	0.344500	0.500078
C25	C	0.232614	-0.148921	-0.111466
C26	C	0.732614	0.351079	0.388534
C27	C	0.292022	-0.150346	-0.111469
C28	C	0.792022	0.349654	0.388531
O29	O	0.322755	-0.151046	-0.206337
O30	O	0.822755	0.348954	0.293663
N31	N	0.321728	-0.151062	0.000084
N32	N	0.821728	0.348938	0.500084
C33	C	0.292023	-0.150341	0.111646
C34	C	0.792023	0.349659	0.611646
O35	O	0.322746	-0.151080	0.206530
O36	O	0.822746	0.348920	0.706530
C37	C	0.232617	-0.148908	0.111648
C38	C	0.732617	0.351092	0.611648
C39	C	0.202913	-0.148204	0.000088
C40	C	0.702913	0.351796	0.500088
C41	C	0.202910	-0.148215	-0.223016
C42	C	0.702910	0.351785	0.276984
C43	C	0.143506	-0.146793	-0.223012
C44	C	0.643506	0.353207	0.276988
C45	C	0.113805	-0.146076	-0.111458
C46	C	0.613805	0.353924	0.388542
C47	C	0.143509	-0.146782	0.000092
C48	C	0.643509	0.353218	0.500092
C49	C	0.202914	-0.148180	0.223209
C50	C	0.702914	0.351820	0.723209
C51	C	0.143503	-0.146746	0.223202
C52	C	0.643503	0.353254	0.723202
C53	C	0.113799	-0.146042	0.111642
C54	C	0.613799	0.353958	0.611642
C55	C	0.054404	-0.144642	0.111650
C56	C	0.554404	0.355358	0.611650
N57	N	0.024698	-0.143926	0.000097
N58	N	0.524698	0.356074	0.500097
C59	C	0.054398	-0.144643	-0.111457
C60	C	0.554398	0.355357	0.388543
C61	C	0.416781	-0.153348	0.111634
C62	C	0.916781	0.346652	0.611634
C63	C	0.476186	-0.154789	0.111633
C64	C	0.976186	0.345211	0.611633
C65	C	0.476181	-0.154791	-0.111482
C66	C	0.976181	0.345209	0.388518
C67	C	0.416774	-0.153358	-0.111480
C68	C	0.916774	0.346642	0.388520
C69	C	0.387075	-0.152632	0.000082
C70	C	0.887075	0.347368	0.500082
C71	C	-0.070355	-0.141657	-0.111441
C72	C	0.429645	0.358343	0.388559
C73	C	-0.129765	-0.140239	-0.111427
C74	C	0.370235	0.359761	0.388573
C75	C	-0.129754	-0.140231	0.111687
C76	C	0.370246	0.359769	0.611687
C77	C	-0.070349	-0.141655	0.111675
C78	C	0.429651	0.358345	0.611675
C79	C	-0.040651	-0.142364	0.000101
C80	C	0.459349	0.357636	0.500101
O81	O	0.023633	-0.143936	0.206470
O82	O	0.523633	0.356064	0.706470
O83	O	0.023670	-0.143889	-0.206324
O84	O	0.523670	0.356111	0.293676
C85	C	0.676731	0.060034	0.000117
C86	C	1.176731	0.560034	0.500117
C87	C	0.675218	0.186012	0.000115
C88	C	1.175218	0.686012	0.500115
C89	C	0.777307	-0.138017	0.000124
C90	C	1.277307	0.361983	0.500124
C91	C	0.840535	-0.139522	0.000127
C92	C	1.340535	0.360478	0.500127
C93	C	0.669697	-0.355057	0.000096
C94	C	1.169697	0.144943	0.500096
C95	C	0.671209	-0.481034	0.000090
C96	C	1.171209	0.018966	0.500090
N97	N	0.673207	-0.147500	0.318936
N98	N	1.173207	0.352500	0.818936
C99	C	0.672437	0.416658	0.000094
C100	C	1.172437	0.916658	0.500094
C101	C	0.673982	0.288309	0.000106
C102	C	1.173982	0.788309	0.500106
N103	N	0.673225	-0.147513	-0.318720
N104	N	1.173225	0.352487	0.181280
C105	C	0.673215	-0.147513	0.569942
C106	C	1.173215	0.352487	1.069942
C107	C	0.673209	-0.147509	0.430265
C108	C	1.173209	0.352491	0.930265
H109	H	0.119327	-0.146214	-0.313856
H110	H	0.619327	0.353786	0.186144
N111	N	0.506525	-0.155484	-0.225440
N112	N	1.006525	0.344516	0.274560
N113	N	0.504896	-0.075304	-0.300113
N114	N	1.004896	0.424696	0.199887
H115	H	0.526327	-0.075789	-0.380593
H116	H	1.026327	0.424211	0.119407
H117	H	0.227086	-0.148795	-0.313862
H118	H	0.727086	0.351205	0.186138
N119	N	0.386444	-0.152640	-0.225445
N120	N	0.886444	0.347360	0.274555
N121	N	0.412976	-0.153286	-0.325033
N122	N	0.912976	0.346714	0.174967
H123	H	0.391559	-0.152777	-0.405527
H124	H	0.891559	0.347223	0.094473
H125	H	-0.046182	-0.142236	-0.202295
H126	H	0.453818	0.357764	0.297705
H127	H	0.227088	-0.148750	0.314053
H128	H	0.727088	0.351250	0.814053
H129	H	0.119325	-0.146165	0.314051
H130	H	0.619325	0.353835	0.814051
H131	H	0.500365	-0.155381	0.202476
H132	H	1.000365	0.344619	0.702476
N133	N	0.386455	-0.152613	0.225611
N134	N	0.886455	0.347387	0.725611
N135	N	0.412991	-0.153252	0.325195
N136	N	0.912991	0.346748	0.825195
H137	H	0.391577	-0.152730	0.405692
H138	H	0.891577	0.347270	0.905692
N139	N	-0.040017	-0.142433	0.225638
N140	N	0.459983	0.357567	0.725638
N141	N	-0.066547	-0.141827	0.325231
N142	N	0.433453	0.358173	0.825231
H143	H	-0.045130	-0.142383	0.405721
H144	H	0.454870	0.357617	0.905721
N145	N	-0.160095	-0.139503	-0.225400
N146	N	0.339905	0.360497	0.274600
N147	N	-0.148450	-0.059650	-0.300084
N148	N	0.351550	0.440350	0.199916
H149	H	-0.169868	-0.059127	-0.380577
H150	H	0.330132	0.440873	0.119423
N151	N	-0.160107	-0.139504	0.225621
N152	N	0.339893	0.360496	0.725621
N153	N	-0.213149	-0.138227	0.225594
N154	N	0.286851	0.361773	0.725594
H155	H	-0.234588	-0.137706	0.306060
H156	H	0.265412	0.362294	0.806060
