data_functionalizedCrystal
_audit_creation_method	'MofGen! by Chris Wilmer'
_symmetry_space_group_name_H-M	'P1'
_symmetry_Int_Tables_number	1
_symmetry_cell_setting	triclinic
loop_
_symmetry_equiv_pos_as_xyz
  x,y,z
_cell_length_a	16.992701
_cell_length_b	16.992695
_cell_length_c	8.140239
_cell_angle_alpha	90.003573
_cell_angle_beta	90.001604
_cell_angle_gamma	90.667696
loop_
_atom_site_label
_atom_site_type_symbol
_atom_site_fract_x
_atom_site_fract_y
_atom_site_fract_z
O1	O	1.050847	0.166905	0.136629
O2	O	0.822447	0.165076	0.136629
O3	O	0.935731	0.051791	0.136616
O4	O	0.937562	0.280191	0.136642
O5	O	0.935727	0.051790	-0.136611
O6	O	0.822443	0.165075	-0.136598
O7	O	1.050843	0.166904	-0.136598
Zn8	Zn	0.936642	0.165989	-0.179979
Zn9	Zn	0.936647	0.165991	0.180010
O10	O	0.937558	0.280190	-0.136585
C11	C	0.793085	0.162720	0.000016
C12	C	0.705600	0.155692	0.000016
C13	C	0.933373	0.022430	0.000003
C14	C	0.926345	-0.065055	0.000003
C15	C	0.213682	0.108471	0.000016
C16	C	0.295882	0.115080	0.000007
C17	C	0.332089	0.189508	0.000023
C18	C	0.286091	0.257331	0.000032
C19	C	0.203892	0.250720	0.000029
C20	C	0.577403	0.216905	0.000022
C21	C	0.659608	0.223510	0.000029
C22	C	0.669394	0.081258	0.000002
C23	C	0.587192	0.074655	0.000009
C24	C	0.541202	0.142477	0.000009
N25	N	0.416111	0.196266	0.000019
N26	N	0.457181	0.135719	0.000001
C27	C	0.994163	-0.111046	0.000001
C28	C	0.987554	-0.193247	0.000017
C29	C	0.913126	-0.229454	0.000023
C30	C	0.845303	-0.183457	0.000029
C31	C	0.851913	-0.101258	0.000026
C32	C	0.885732	-0.474768	0.000045
C33	C	0.879127	-0.556974	0.000044
C34	C	1.021378	-0.566758	0.000035
C35	C	1.027981	-0.484557	0.000021
C36	C	0.960158	-0.438566	0.000036
N37	N	0.906369	-0.313476	0.000033
N38	N	0.966916	-0.354546	0.000037
C39	C	1.080205	0.169260	0.000019
C40	C	1.167689	0.176288	0.000030
C41	C	0.939916	0.309550	0.000032
C42	C	0.946945	0.397035	0.000042
N43	N	0.936644	0.165988	-0.425661
N44	N	0.936651	0.165986	0.425692
H45	H	0.184208	0.047863	0.000014
F46	F	0.813547	-0.425832	0.000066
F47	F	0.799907	-0.595506	0.000042
H48	H	0.706848	0.026041	-0.000000
F49	F	0.548665	-0.004562	0.000039
F50	F	0.698140	0.302730	0.000045
H51	H	0.539967	0.272131	0.000030
H52	H	0.315577	0.317932	0.000034
H53	H	0.784702	-0.212943	0.000044
F54	F	0.154944	0.322901	0.000034
H55	H	1.054770	-0.081572	-0.000013
F56	F	0.779731	-0.052310	0.000033
F57	F	0.344827	0.042899	-0.000016
F58	F	1.059735	-0.242191	0.000012
F59	F	1.107197	-0.446028	0.000057
H60	H	1.076596	-0.604212	0.000025
