data_functionalizedCrystal
_audit_creation_method	'MofGen! by Chris Wilmer'
_symmetry_space_group_name_H-M	'P1'
_symmetry_Int_Tables_number	1
_symmetry_cell_setting	triclinic
loop_
_symmetry_equiv_pos_as_xyz
  x,y,z
_cell_length_a	18.215407
_cell_length_b	18.215405
_cell_length_c	18.215399
_cell_angle_alpha	89.972459
_cell_angle_beta	89.982187
_cell_angle_gamma	90.017245
loop_
_atom_site_label
_atom_site_type_symbol
_atom_site_fract_x
_atom_site_fract_y
_atom_site_fract_z
Zn1	Zn	1.125083	-0.293100	-0.416078
Zn2	Zn	1.625083	0.206900	0.083922
Zn3	Zn	1.124996	-0.416171	-0.293013
Zn4	Zn	1.624996	0.083829	0.206987
Zn5	Zn	1.002015	-0.293111	-0.293030
Zn6	Zn	1.502015	0.206889	0.206970
Zn7	Zn	1.001986	-0.416117	-0.416042
Zn8	Zn	1.501986	0.083883	0.083958
O9	O	1.063520	-0.354625	-0.354541
O10	O	1.563520	0.145375	0.145459
O11	O	1.228056	-0.309443	-0.399761
O12	O	1.728056	0.190557	0.100239
O13	O	1.108658	-0.399874	-0.190031
O14	O	1.608658	0.100126	0.309969
O15	O	1.018389	-0.190125	-0.309375
O16	O	1.518389	0.309875	0.190625
O17	O	1.227992	-0.399863	-0.309346
O18	O	1.727992	0.100137	0.190654
O19	O	1.108807	-0.190117	-0.399778
O20	O	1.608807	0.309883	0.100222
O21	O	1.018305	-0.309462	-0.190043
O22	O	1.518305	0.190538	0.309957
O23	O	0.899027	-0.309410	-0.309340
O24	O	1.399027	0.190590	0.190660
O25	O	1.018339	-0.399771	-0.519031
O26	O	1.518339	0.100229	-0.019031
O27	O	0.899006	-0.399782	-0.399716
O28	O	1.399006	0.100218	0.100284
O29	O	1.108778	-0.309391	-0.519058
O30	O	1.608778	0.190609	-0.019058
O31	O	1.108630	-0.519148	-0.309311
O32	O	1.608630	-0.019148	0.190689
O33	O	1.018255	-0.519109	-0.399700
O34	O	1.518255	-0.019109	0.100300
C35	C	0.872314	-0.354592	-0.354526
C36	C	1.372314	0.145408	0.145474
C37	C	0.790515	-0.354596	-0.354538
C38	C	1.290515	0.145404	0.145462
C39	C	0.525485	-0.307634	-0.401695
C40	C	1.025485	0.192366	0.098305
C41	C	0.602344	-0.307622	-0.401693
C42	C	1.102344	0.192378	0.098307
C43	C	0.602296	-0.401639	-0.307402
C44	C	1.102296	0.098361	0.192598
C45	C	0.525439	-0.401654	-0.307409
C46	C	1.025439	0.098346	0.192591
C47	C	0.487035	-0.354647	-0.354554
C48	C	0.987035	0.145353	0.145446
C49	C	0.640751	-0.354620	-0.354545
C50	C	1.140751	0.145380	0.145455
C51	C	0.724085	-0.354608	-0.354543
C52	C	1.224085	0.145392	0.145457
C53	C	0.403696	-0.354661	-0.354558
C54	C	0.903696	0.145339	0.145442
C55	C	1.063450	-0.545831	-0.354515
C56	C	1.563450	-0.045831	0.145485
C57	C	1.063487	-0.627630	-0.354529
C58	C	1.563487	-0.127630	0.145471
C59	C	1.110589	-0.815758	-0.401666
C60	C	1.610589	-0.315758	0.098334
C61	C	1.110616	-0.892617	-0.401680
C62	C	1.610616	-0.392617	0.098320
C63	C	1.016542	-0.892739	-0.307461
C64	C	1.516542	-0.392739	0.192539
C65	C	1.016512	-0.815882	-0.307452
C66	C	1.516512	-0.315882	0.192548
C67	C	1.063540	-0.777393	-0.354553
C68	C	1.563540	-0.277393	0.145447
C69	C	1.063596	-0.931109	-0.354576
C70	C	1.563596	-0.431109	0.145424
C71	C	1.063625	-1.014443	-0.354591
C72	C	1.563625	-0.514443	0.145409
C73	C	1.063511	-0.694054	-0.354540
C74	C	1.563511	-0.194054	0.145460
C75	C	1.255473	-0.354658	-0.354556
C76	C	1.755473	0.145342	0.145444
C77	C	1.337272	-0.354672	-0.354562
C78	C	1.837272	0.145328	0.145438
C79	C	1.063565	-0.354574	-0.546494
C80	C	1.563565	0.145426	-0.046494
C81	C	1.063584	-0.354552	-0.628293
C82	C	1.563584	0.145448	-0.128293
C83	C	1.063611	-0.162672	-0.354582
C84	C	1.563611	0.337328	0.145418
C85	C	1.063650	-0.080873	-0.354600
C86	C	1.563650	0.419127	0.145400
C87	C	1.110692	-0.307447	-0.816502
C88	C	1.610692	0.192553	-0.316502
C89	C	1.110701	-0.307426	-0.893361
C90	C	1.610701	0.192574	-0.393361
C91	C	1.016528	-0.401544	-0.893322
C92	C	1.516528	0.098456	-0.393322
C93	C	1.016516	-0.401561	-0.816464
C94	C	1.516516	0.098439	-0.316464
C95	C	1.063602	-0.354514	-0.778056
C96	C	1.563602	0.145486	-0.278056
C97	C	1.063623	-0.354475	-0.931772
C98	C	1.563623	0.145525	-0.431772
C99	C	1.063632	-0.354452	-1.015106
C100	C	1.563632	0.145548	-0.515106
C101	C	1.063592	-0.354535	-0.694717
C102	C	1.563592	0.145465	-0.194717
C103	C	1.063518	-0.354622	-0.163335
C104	C	1.563518	0.145378	0.336665
C105	C	1.063641	-0.354436	-0.081536
C106	C	1.563641	0.145564	0.418464
H107	H	0.633646	-0.269339	-0.440080
H108	H	1.133646	0.230661	0.059920
H109	H	1.148881	-0.784423	-0.440019
H110	H	1.648881	-0.284423	0.059981
C111	C	1.161706	-0.256231	-0.935138
C112	C	1.661706	0.243769	-0.435138
C113	C	1.120061	-0.209029	-0.979247
C114	C	1.620061	0.290971	-0.479247
C115	C	1.167021	-0.161847	-1.017733
C116	C	1.667021	0.338153	-0.517733
H117	H	1.193779	-0.284290	-0.965181
H118	H	1.693779	0.215710	-0.465181
H119	H	1.189730	-0.228173	-0.901275
H120	H	1.689730	0.271827	-0.401275
H121	H	1.092050	-0.237084	-1.013106
H122	H	1.592050	0.262916	-0.513106
H123	H	1.087990	-0.180954	-0.949222
H124	H	1.587990	0.319046	-0.449222
H125	H	1.195045	-0.133789	-0.983870
H126	H	1.695045	0.366211	-0.483870
H127	H	1.199092	-0.189912	-1.047773
H128	H	1.699092	0.310088	-0.547773
H129	H	1.138772	-0.129811	-1.047661
H130	H	1.638772	0.370189	-0.547661
C131	C	0.965572	-0.934661	-0.256347
C132	C	1.465572	-0.434661	0.243653
C133	C	0.975683	-1.010181	-0.266421
C134	C	1.475683	-0.510181	0.233579
C135	C	0.928751	-1.048820	-0.219337
C136	C	1.428751	-0.548820	0.280663
H137	H	0.916083	-0.922183	-0.267020
H138	H	1.416083	-0.422183	0.232980
H139	H	0.976378	-0.922127	-0.206893
H140	H	1.476378	-0.422127	0.293107
H141	H	0.964872	-1.022709	-0.315864
H142	H	1.464872	-0.522709	0.184136
H143	H	1.025162	-1.022680	-0.255742
H144	H	1.525162	-0.522680	0.244258
H145	H	0.939557	-1.036287	-0.169884
H146	H	1.439557	-0.536287	0.330116
H147	H	0.879264	-1.036337	-0.230015
H148	H	1.379264	-0.536337	0.269985
H149	H	0.935609	-1.100064	-0.226162
H150	H	1.435609	-0.600064	0.273838
C151	C	1.161658	-0.934177	-0.452949
C152	C	1.661658	-0.434177	0.047051
C153	C	1.145597	-0.915430	-0.525744
C154	C	1.645597	-0.415430	-0.025744
C155	C	1.192609	-0.953692	-0.572996
C156	C	1.692609	-0.453692	-0.072996
H157	H	1.154988	-0.985474	-0.446313
H158	H	1.654988	-0.485474	0.053687
H159	H	1.211119	-0.921539	-0.442264
H160	H	1.711119	-0.421539	0.057736
H161	H	1.096148	-0.928073	-0.536425
H162	H	1.596148	-0.428073	-0.036425
H163	H	1.152271	-0.864139	-0.532404
H164	H	1.652271	-0.364139	-0.032404
H165	H	1.242070	-0.941054	-0.562311
H166	H	1.742070	-0.441054	-0.062311
H167	H	1.185935	-1.004987	-0.566354
H168	H	1.685935	-0.504987	-0.066354
H169	H	1.181723	-0.940973	-0.622393
H170	H	1.681723	-0.440973	-0.122393
H171	H	0.494219	-0.269357	-0.440084
H172	H	0.994219	0.230643	0.059916
H173	H	0.978195	-0.784643	-0.269087
H174	H	1.478195	-0.284643	0.230913
C175	C	0.965492	-0.452597	-0.935156
C176	C	1.465492	0.047403	-0.435156
C177	C	0.975594	-0.442525	-1.010694
C178	C	1.475594	0.057475	-0.510694
C179	C	0.928600	-0.489552	-1.049253
C180	C	1.428600	0.010448	-0.549253
H181	H	0.916018	-0.441870	-0.922645
H182	H	1.416018	0.058130	-0.422645
H183	H	0.976246	-0.502064	-0.922591
H184	H	1.476246	-0.002064	-0.422591
H185	H	0.964835	-0.393069	-1.023254
H186	H	1.464835	0.106931	-0.523254
H187	H	1.025059	-0.453258	-1.023227
H188	H	1.525059	0.046742	-0.523227
H189	H	0.939354	-0.539019	-1.036687
H190	H	1.439354	-0.039019	-0.536687
H191	H	0.879129	-0.478820	-1.036736
H192	H	1.379129	0.021180	-0.536736
H193	H	0.935453	-0.482729	-1.100509
H194	H	1.435453	0.017271	-0.600509
H195	H	0.978164	-0.439887	-0.785161
H196	H	1.478164	0.060113	-0.285161
C197	C	0.644126	-0.452587	-0.256240
C198	C	1.144126	0.047413	0.243760
C199	C	0.719665	-0.442497	-0.266307
C200	C	1.219665	0.057503	0.233693
C201	C	0.758220	-0.489410	-0.219180
C202	C	1.258220	0.010590	0.280820
H203	H	0.631620	-0.502080	-0.266879
H204	H	1.131620	-0.002080	0.233121
H205	H	0.631553	-0.441750	-0.206798
H206	H	1.131553	0.058250	0.293202
H207	H	0.732234	-0.453340	-0.315739
H208	H	1.232234	0.046660	0.184261
H209	H	0.732193	-0.393014	-0.255663
H210	H	1.232193	0.106986	0.244337
H211	H	0.745646	-0.478573	-0.169737
H212	H	1.245646	0.021427	0.330263
H213	H	0.745707	-0.538900	-0.229823
H214	H	1.245707	-0.038900	0.270177
H215	H	0.809476	-0.482566	-0.225999
H216	H	1.309476	0.017434	0.274001
C217	C	0.483821	-0.452729	-0.256143
C218	C	0.983821	0.047271	0.243857
C219	C	0.533901	-0.493874	-0.214836
C220	C	1.033901	0.006126	0.285164
C221	C	0.495589	-0.540924	-0.167600
C222	C	0.995589	-0.040924	0.332400
H223	H	0.453844	-0.484898	-0.284163
H224	H	0.953844	0.015102	0.215837
H225	H	0.453844	-0.424560	-0.224090
H226	H	0.953844	0.075440	0.275910
H227	H	0.563865	-0.522042	-0.246885
H228	H	1.063865	-0.022042	0.253115
H229	H	0.563879	-0.461725	-0.186801
H230	H	1.063879	0.038275	0.313199
H231	H	0.465612	-0.512755	-0.135547
H232	H	0.965612	-0.012755	0.364453
H233	H	0.465614	-0.573088	-0.195626
H234	H	0.965614	-0.073088	0.304374
H235	H	0.529562	-0.568842	-0.139563
H236	H	1.029562	-0.068842	0.360437
C237	C	1.161835	-0.256283	-0.774934
C238	C	1.661835	0.243717	-0.274934
C239	C	1.203062	-0.215045	-0.825057
C240	C	1.703062	0.284955	-0.325057
C241	C	1.250174	-0.167895	-0.786794
C242	C	1.750174	0.332105	-0.286794
H243	H	1.193951	-0.284361	-0.744946
H244	H	1.693951	0.215639	-0.244946
H245	H	1.133708	-0.224181	-0.744972
H246	H	1.633708	0.275819	-0.244972
H247	H	1.231187	-0.247143	-0.855007
H248	H	1.731187	0.252857	-0.355007
H249	H	1.170965	-0.186952	-0.855046
H250	H	1.670965	0.313048	-0.355046
H251	H	1.222047	-0.135794	-0.756832
H252	H	1.722047	0.364206	-0.256832
H253	H	1.282285	-0.195979	-0.756808
H254	H	1.782285	0.304021	-0.256808
H255	H	1.278147	-0.139905	-0.820797
H256	H	1.778147	0.360095	-0.320797
