data_functionalizedCrystal
_audit_creation_method	'MofGen! by Chris Wilmer'
_symmetry_space_group_name_H-M	'P1'
_symmetry_Int_Tables_number	1
_symmetry_cell_setting	triclinic
loop_
_symmetry_equiv_pos_as_xyz
  x,y,z
_cell_length_a	15.944545
_cell_length_b	15.944551
_cell_length_c	9.730223
_cell_angle_alpha	89.994648
_cell_angle_beta	89.999494
_cell_angle_gamma	83.497455
loop_
_atom_site_label
_atom_site_type_symbol
_atom_site_fract_x
_atom_site_fract_y
_atom_site_fract_z
O1	O	1.114526	0.108307	-0.114204
O2	O	1.614526	0.608307	0.385796
O3	O	0.869976	0.121668	-0.114227
O4	O	1.369976	0.621668	0.385773
O5	O	0.998929	-0.007287	-0.114202
O6	O	1.498929	0.492713	0.385798
O7	O	0.985573	0.237263	-0.114228
O8	O	1.485573	0.737263	0.385772
O9	O	0.998921	-0.007291	0.114378
O10	O	1.498921	0.492709	0.614378
O11	O	0.869967	0.121665	0.114353
O12	O	1.369967	0.621665	0.614353
O13	O	1.114518	0.108303	0.114376
O14	O	1.614518	0.608303	0.614376
Zn15	Zn	0.992241	0.114984	0.150657
Zn16	Zn	1.492241	0.614984	0.650657
Zn17	Zn	0.992252	0.114988	-0.150507
Zn18	Zn	1.492252	0.614988	0.349493
O19	O	0.985564	0.237259	0.114352
O20	O	1.485564	0.737259	0.614352
C21	C	0.838677	0.121113	0.000061
C22	C	1.338677	0.621113	0.500061
C23	C	0.745431	0.119453	0.000052
C24	C	1.245431	0.619453	0.500052
C25	C	0.474798	0.034559	0.000076
C26	C	0.974798	0.534559	0.500076
C27	C	0.525376	0.075486	0.112777
C28	C	1.025376	0.575486	0.612777
C29	C	0.409787	0.113532	0.000077
C30	C	0.909787	0.613532	0.500077
C31	C	0.525365	0.075511	-0.112585
C32	C	1.025365	0.575511	0.387415
C33	C	0.574701	0.116437	0.000062
C34	C	1.074701	0.616437	0.500062
C35	C	0.459137	0.154438	0.112870
C36	C	0.959137	0.654438	0.612870
C37	C	0.459122	0.154451	-0.112593
C38	C	0.959122	0.654451	0.387407
C39	C	0.509667	0.195436	0.000136
C40	C	1.009667	0.695436	0.500136
C41	C	0.314785	0.111856	0.000086
C42	C	0.814785	0.611856	0.500086
C43	C	0.669700	0.118119	0.000063
C44	C	1.169700	0.618119	0.500063
C45	C	0.998370	-0.038583	0.000088
C46	C	1.498370	0.461417	0.500088
C47	C	0.996708	-0.131829	0.000089
C48	C	1.496708	0.368171	0.500089
C49	C	0.912803	-0.346684	0.000062
C50	C	1.412803	0.153316	0.500062
C51	C	0.951762	-0.407704	0.112769
C52	C	1.451762	0.092296	0.612769
C53	C	0.993701	-0.302555	0.000078
C54	C	1.493701	0.197445	0.500078
C55	C	0.951789	-0.407684	-0.112593
C56	C	1.451789	0.092316	0.387407
C57	C	0.990790	-0.467468	0.000061
C58	C	1.490790	0.032532	0.500061
C59	C	1.032681	-0.362347	0.112878
C60	C	1.532681	0.137653	0.612878
C61	C	1.032697	-0.362320	-0.112585
C62	C	1.532697	0.137680	0.387415
C63	C	1.071715	-0.423322	0.000150
C64	C	1.571715	0.076678	0.500150
C65	C	0.995375	-0.207553	0.000088
C66	C	1.495375	0.292447	0.500088
C67	C	0.989122	-0.562469	0.000060
C68	C	1.489122	-0.062469	0.500060
C69	C	1.145816	0.108859	0.000086
C70	C	1.645816	0.608859	0.500086
C71	C	1.239062	0.110519	0.000085
C72	C	1.739062	0.610519	0.500085
C73	C	0.986123	0.268555	0.000059
C74	C	1.486123	0.768555	0.500059
C75	C	0.987785	0.361801	0.000049
C76	C	1.487785	0.861801	0.500049
N77	N	0.992240	0.114980	0.356193
N78	N	1.492240	0.614980	0.856193
N79	N	0.992260	0.114985	-0.356044
N80	N	1.492260	0.614985	0.143956
C81	C	1.049360	0.057902	0.428130
C82	C	1.549360	0.557902	0.928130
C83	C	1.049368	0.057902	0.572013
C84	C	1.549368	0.557902	1.072013
C85	C	0.935134	0.172066	0.572010
C86	C	1.435134	0.672066	1.072010
C87	C	0.935122	0.172061	0.428129
C88	C	1.435122	0.672061	0.928129
H89	H	0.554286	0.042146	-0.207859
H90	H	1.054286	0.542146	0.292141
C91	C	0.905551	-0.434816	-0.241316
C92	C	1.405551	0.065184	0.258684
N93	N	0.870720	-0.455247	-0.338265
N94	N	1.370720	0.044753	0.161735
H95	H	0.554303	0.042132	0.208064
H96	H	1.054303	0.542132	0.708064
C97	C	0.822092	-0.301678	0.000207
C98	C	1.322092	0.198322	0.500207
N99	N	0.753771	-0.267776	0.000326
N100	N	1.253771	0.232224	0.500326
H101	H	0.917542	-0.427813	0.208048
H102	H	1.417542	0.072187	0.708048
C103	C	1.162505	-0.468129	0.000247
C104	C	1.662505	0.031871	0.500247
N105	N	1.230887	-0.501880	0.000329
N106	N	1.730887	-0.001880	0.500329
C107	C	1.112184	-0.004895	0.349005
C108	C	1.612184	0.495105	0.849005
N109	N	1.159502	-0.052198	0.289412
N110	N	1.659502	0.447802	0.789412
H111	H	1.066865	-0.342358	0.208268
H112	H	1.566865	0.157642	0.708268
H113	H	1.066888	-0.342189	-0.207869
H114	H	1.566888	0.157811	0.292131
C115	C	0.453643	-0.057319	0.000236
C116	C	0.953643	0.442681	0.500236
N117	N	0.437706	-0.126520	0.000365
N118	N	0.937706	0.373480	0.500365
H119	H	1.095879	0.011424	0.630580
H120	H	1.595879	0.511424	1.130580
H121	H	0.888631	0.218541	0.630594
H122	H	1.388631	0.718541	1.130594
C123	C	0.872321	0.234892	0.348994
C124	C	1.372321	0.734892	0.848994
N125	N	0.825034	0.282227	0.289390
N126	N	1.325034	0.782227	0.789390
H127	H	0.525159	0.263501	0.000194
H128	H	1.025159	0.763501	0.500194
C129	C	0.420014	0.199467	-0.241327
C130	C	0.920014	0.699467	0.258673
N131	N	0.390556	0.233367	-0.338301
N132	N	0.890556	0.733367	0.161699
C133	C	0.420215	0.199455	0.241734
C134	C	0.920215	0.699455	0.741734
N135	N	0.390898	0.233358	0.338795
N136	N	0.890898	0.733358	0.838795
