data_functionalizedCrystal
_audit_creation_method	'MofGen! by Chris Wilmer'
_symmetry_space_group_name_H-M	'P1'
_symmetry_Int_Tables_number	1
_symmetry_cell_setting	triclinic
loop_
_symmetry_equiv_pos_as_xyz
  x,y,z
_cell_length_a	11.792241
_cell_length_b	16.109301
_cell_length_c	15.186229
_cell_angle_alpha	90.005167
_cell_angle_beta	89.997510
_cell_angle_gamma	96.172552
loop_
_atom_site_label
_atom_site_type_symbol
_atom_site_fract_x
_atom_site_fract_y
_atom_site_fract_z
O1	O	1.505908	-0.113953	-0.073214
O2	O	1.175464	-0.125697	-0.073220
O3	O	1.349763	0.001163	-0.073208
O4	O	1.331608	-0.240814	-0.073226
O5	O	1.349752	0.001165	0.073249
O6	O	1.175452	-0.125695	0.073237
O7	O	1.505896	-0.113951	0.073243
Zn8	Zn	1.340672	-0.119823	0.096493
Zn9	Zn	1.340687	-0.119826	-0.096470
O10	O	1.331596	-0.240812	0.073231
C11	C	1.133173	-0.124959	0.000008
C12	C	1.007179	-0.122751	0.000006
C13	C	1.548186	-0.114690	0.000013
C14	C	1.674181	-0.116898	0.000009
C15	C	1.349022	0.032142	0.000021
C16	C	1.346817	0.124448	0.000022
C17	C	1.904857	-0.120958	0.000009
C18	C	1.776492	-0.118702	0.000010
C19	C	1.332338	-0.271791	0.000000
C20	C	1.334542	-0.364097	-0.000007
N21	N	1.340670	-0.119821	0.228186
C22	C	1.445116	0.346258	0.000010
C23	C	1.443036	0.432988	0.000003
C24	C	1.236235	0.414087	0.000003
C25	C	1.238317	0.327358	0.000004
C26	C	1.342761	0.293446	0.000012
C27	C	1.338599	0.466905	0.000004
C28	C	1.336342	0.560942	-0.000004
C29	C	1.345018	0.199404	0.000018
N30	N	1.340699	-0.119821	-0.228163
C31	C	1.417876	-0.063666	0.453914
C32	C	1.417880	-0.063664	0.546104
C33	C	1.263484	-0.175978	0.546102
C34	C	1.263476	-0.175976	0.453914
C35	C	1.340678	-0.119821	0.407823
C36	C	1.340690	-0.119821	0.592200
C37	C	1.340693	-0.119820	0.692156
C38	C	1.340674	-0.119821	0.307860
H39	H	1.526384	0.475984	-0.000000
H40	H	1.154962	0.284357	0.000002
C41	C	1.502801	-0.001896	0.596806
C42	C	1.587727	0.059863	0.546105
C43	C	1.672651	0.121634	0.596807
C44	C	1.672650	0.121647	0.698210
C45	C	1.587721	0.059886	0.748917
C46	C	1.502796	-0.001886	0.698215
H47	H	1.587731	0.059855	0.471035
H48	H	1.735521	0.167354	0.559270
H49	H	1.735515	0.167374	0.735743
H50	H	1.587716	0.059893	0.823986
H51	H	1.439926	-0.047605	0.735752
C52	C	1.178554	-0.237750	0.403205
C53	C	1.093676	-0.299550	0.453899
C54	C	1.008756	-0.361318	0.403189
C55	C	1.008714	-0.361286	0.301786
C56	C	1.093595	-0.299483	0.251087
C57	C	1.178516	-0.237715	0.301796
H58	H	1.093704	-0.299576	0.528968
H59	H	0.945921	-0.407069	0.440720
H60	H	0.945851	-0.407010	0.264247
H61	H	1.093567	-0.299457	0.176017
H62	H	1.241350	-0.191965	0.264265
C63	C	1.560001	0.308953	0.000010
C64	C	1.672590	0.367049	0.000004
C65	C	1.787478	0.329748	0.000001
C66	C	1.789777	0.234351	0.000005
C67	C	1.677185	0.176249	0.000012
C68	C	1.562296	0.213550	0.000014
H69	H	1.670892	0.437673	0.000000
H70	H	1.870827	0.372759	-0.000004
H71	H	1.874825	0.206738	0.000003
H72	H	1.678883	0.105625	0.000015
H73	H	1.478948	0.170539	0.000019
C74	C	1.502788	-0.001891	0.403213
C75	C	1.589571	-0.034797	0.339826
C76	C	1.674483	0.026982	0.289128
C77	C	1.672610	0.121668	0.301817
C78	C	1.585823	0.154578	0.365207
C79	C	1.500912	0.092799	0.415905
H80	H	1.590960	-0.104893	0.330431
H81	H	1.738728	0.002619	0.242203
H82	H	1.735467	0.167400	0.264287
H83	H	1.584434	0.224674	0.374602
H84	H	1.436666	0.117162	0.462830
H85	H	1.151201	0.441709	-0.000002
H86	H	1.200629	-0.221700	0.583639
