data_functionalizedCrystal
_audit_creation_method	'MofGen! by Chris Wilmer'
_symmetry_space_group_name_H-M	'P1'
_symmetry_Int_Tables_number	1
_symmetry_cell_setting	triclinic
loop_
_symmetry_equiv_pos_as_xyz
  x,y,z
_cell_length_a	10.489711
_cell_length_b	10.489711
_cell_length_c	15.455313
_cell_angle_alpha	87.304211
_cell_angle_beta	87.290240
_cell_angle_gamma	95.472991
loop_
_atom_site_label
_atom_site_type_symbol
_atom_site_fract_x
_atom_site_fract_y
_atom_site_fract_z
O1	O	1.699599	-0.174259	-0.072155
O2	O	1.328396	-0.191192	-0.072149
O3	O	1.522464	0.002876	-0.072154
O4	O	1.505531	-0.368327	-0.072149
O5	O	1.511366	-0.008176	0.072108
O6	O	1.317298	-0.202244	0.072114
O7	O	1.688501	-0.185310	0.072108
Cu8	Cu	1.501886	-0.194786	0.085283
Cu9	Cu	1.515011	-0.181716	-0.085324
O10	O	1.494433	-0.379378	0.072113
C11	C	1.275315	-0.195447	-0.000017
C12	C	1.133684	-0.191645	-0.000015
C13	C	0.951286	-0.308351	-0.000023
C14	C	1.048909	-0.244605	-0.071152
C15	C	1.037940	-0.255470	0.071080
C16	C	0.978977	-0.121056	-0.071221
C17	C	0.967993	-0.131942	0.071074
C18	C	1.065591	-0.068106	-0.000071
C19	C	1.515644	0.044882	-0.000026
C20	C	1.511843	0.186514	-0.000033
C21	C	1.741582	-0.181055	-0.000026
C22	C	1.883214	-0.184857	-0.000034
C23	C	1.501253	-0.421385	-0.000018
C24	C	1.505055	-0.563016	-0.000016
C25	C	1.628549	0.368912	-0.000026
C26	C	1.564780	0.271313	0.071103
C27	C	1.575691	0.282233	-0.071128
C28	C	1.441231	0.341246	0.071172
C29	C	1.452163	0.352180	-0.071123
C30	C	1.388304	0.254607	0.000023
N31	N	1.492664	-0.203978	0.205279
N32	N	1.524243	-0.172515	-0.205320
C33	C	1.575140	-0.121562	0.250671
C34	C	1.568178	-0.128525	0.341479
C35	C	1.478745	-0.217912	0.386893
C36	C	1.396260	-0.300331	0.341495
C37	C	1.403217	-0.293361	0.250689
C38	C	1.448715	-0.247964	0.658475
C39	C	1.441767	-0.254931	0.749288
C40	C	1.613684	-0.083122	0.749266
C41	C	1.620638	-0.076165	0.658457
C42	C	1.538149	-0.158580	0.613067
N43	N	1.471629	-0.225034	0.479714
N44	N	1.545260	-0.151450	0.520248
H45	H	1.115062	0.033493	-0.000108
Cl46	Cl	1.733071	0.036206	0.601365
H47	H	1.084524	-0.292255	-0.131282
Cl48	Cl	1.663539	0.241551	-0.163968
H49	H	1.612408	0.235725	0.131236
H50	H	1.680842	-0.016022	0.786231
H51	H	1.381551	-0.315072	0.621526
Cl52	Cl	1.353477	0.381676	0.164122
H53	H	1.635335	-0.061415	0.378436
Cl54	Cl	1.283822	-0.412699	0.398586
Cl55	Cl	1.687583	-0.009190	0.193587
H56	H	0.952805	-0.064240	-0.131425
Cl57	Cl	0.912955	-0.058447	0.163920
H58	H	1.064265	-0.312351	0.131214
Cl59	Cl	1.785248	0.445646	0.000077
H60	H	1.286708	0.205128	0.000064
H61	H	1.404579	0.387801	-0.131259
H62	H	1.336055	-0.360471	0.213731
Cl63	Cl	0.874552	-0.465050	-0.000127
Cl64	Cl	1.329327	-0.367315	0.806375
