data_functionalizedCrystal
_audit_creation_method	'MofGen! by Chris Wilmer'
_symmetry_space_group_name_H-M	'P1'
_symmetry_Int_Tables_number	1
_symmetry_cell_setting	triclinic
loop_
_symmetry_equiv_pos_as_xyz
  x,y,z
_cell_length_a	17.640280
_cell_length_b	21.395364
_cell_length_c	21.395355
_cell_angle_alpha	90.025600
_cell_angle_beta	78.784922
_cell_angle_gamma	101.202359
loop_
_atom_site_label
_atom_site_type_symbol
_atom_site_fract_x
_atom_site_fract_y
_atom_site_fract_z
Zn1	Zn	-0.314798	-1.008383	-0.303902
Zn2	Zn	-0.446947	-1.029495	-0.177977
Zn3	Zn	-0.314792	-0.903597	-0.199138
Zn4	Zn	-0.446921	-0.924772	-0.282719
O5	O	-0.380864	-0.966562	-0.240934
O6	O	-0.332341	-1.098864	-0.287207
O7	O	-0.429425	-1.012768	-0.093105
O8	O	-0.204192	-0.899800	-0.230756
O9	O	-0.429430	-1.114374	-0.194690
O10	O	-0.204196	-0.976786	-0.307726
O11	O	-0.332331	-0.920271	-0.108651
O12	O	-0.332306	-0.818726	-0.210216
O13	O	-0.429386	-0.935890	-0.373208
O14	O	-0.429380	-0.834283	-0.271623
O15	O	-0.332316	-0.997318	-0.388771
O16	O	-0.557544	-1.033301	-0.174150
O17	O	-0.557525	-0.956361	-0.251104
C18	C	-0.380840	-0.803770	-0.240917
C19	C	-0.380849	-0.734131	-0.240922
C20	C	-0.431490	-0.240467	-0.272846
C21	C	-0.431491	-0.305902	-0.272840
C22	C	-0.380870	-0.330496	-0.240943
C23	C	-0.330258	-0.289650	-0.209036
C24	C	-0.330263	-0.224216	-0.209037
C25	C	-0.309644	-0.422753	-0.247492
C26	C	-0.309637	-0.488185	-0.247495
C27	C	-0.380853	-0.532314	-0.240935
C28	C	-0.452078	-0.511003	-0.234385
C29	C	-0.452084	-0.445570	-0.234386
C30	C	-0.380859	-0.401446	-0.240938
C31	C	-0.431467	-0.644105	-0.272830
C32	C	-0.431470	-0.709542	-0.272820
C33	C	-0.330229	-0.693287	-0.209020
C34	C	-0.330234	-0.627852	-0.209026
C35	C	-0.380852	-0.603265	-0.240935
C36	C	-0.586212	-0.999437	-0.208046
C37	C	-0.674061	-1.013558	-0.193997
C38	C	-0.963072	-0.859540	-0.347888
C39	C	-1.045619	-0.872811	-0.334667
C40	C	-1.045574	-0.952977	-0.254616
C41	C	-0.963025	-0.939716	-0.267833
C42	C	-0.921781	-0.892996	-0.314469
C43	C	-0.921734	-0.973172	-0.234413
C44	C	-0.839192	-0.959909	-0.247626
C45	C	-0.797942	-0.913190	-0.294259
C46	C	-0.839239	-0.879733	-0.327682
C47	C	-0.962980	-1.019888	-0.187774
C48	C	-0.921688	-1.053344	-0.154355
C49	C	-0.839145	-1.040084	-0.167571
C50	C	-0.797894	-0.993365	-0.214203
C51	C	-0.797847	-1.073541	-0.134148
C52	C	-0.715306	-1.060278	-0.147361
C53	C	-0.715353	-0.980102	-0.227417
C54	C	-0.174714	-0.933576	-0.273964
C55	C	-0.086866	-0.919519	-0.288040
C56	C	-0.380848	-0.966611	-0.404360
C57	C	-0.380842	-0.966632	-0.474002
C58	C	-0.380885	-0.129988	-0.240948
C59	C	-0.380881	-0.199629	-0.240946
C60	C	-0.330295	-0.998616	-0.514820
C61	C	-0.330261	-0.998610	-0.580261
C62	C	-0.380788	-0.966629	-0.604879
C63	C	-0.431338	-0.934638	-0.564053
C64	C	-0.431365	-0.934640	-0.498614
C65	C	-0.451952	-0.973074	-0.697156
C66	C	-0.451927	-0.973077	-0.762593
C67	C	-0.380704	-0.966619	-0.806713
C68	C	-0.309505	-0.960171	-0.785389
C69	C	-0.309532	-0.960173	-0.719950
C70	C	-0.380764	-0.966623	-0.675835
C71	C	-0.330117	-0.998597	-0.918491
C72	C	-0.330081	-0.998586	-0.983933
C73	C	-0.431165	-0.934619	-0.967722
C74	C	-0.431193	-0.934625	-0.902282
C75	C	-0.380670	-0.966618	-0.877670
C76	C	-0.380823	-0.966539	-0.078153
C77	C	-0.380607	-0.966604	-0.008547
H78	H	-0.289050	-0.190965	-0.183061
Br79	Br	-0.659262	-1.105674	-0.101998
H80	H	-0.831441	-1.111575	-0.096173
Br81	Br	-0.261562	-0.323025	-0.165742
H82	H	-0.289015	-0.713310	-0.183047
Br83	Br	-0.499798	-0.891218	-0.846882
H84	H	-0.289154	-1.024666	-0.494786
Br85	Br	-0.659370	-0.916704	-0.290717
H86	H	-0.289096	-1.024653	-0.613502
H87	H	-0.288973	-1.024644	-0.898451
H88	H	-0.509902	-0.978331	-0.779950
H89	H	-0.288916	-1.024630	-1.017168
H90	H	-0.472710	-0.220453	-0.298826
H91	H	-1.079167	-0.991015	-0.216644
H92	H	-0.289020	-0.594600	-0.183052
Br93	Br	-0.500167	-0.764968	-0.316110
H94	H	-0.509936	-0.978163	-0.661240
H95	H	-0.730731	-0.902388	-0.305012
Br96	Br	-0.212975	-0.517100	-0.256397
Br97	Br	-0.548736	-0.570884	-0.225482
H98	H	-0.805656	-0.841694	-0.365662
H99	H	-1.030190	-1.030687	-0.177019
H100	H	-0.251648	-0.386827	-0.252823
H101	H	-0.929489	-0.821501	-0.385869
H102	H	-0.472474	-0.908596	-0.584101
H103	H	-1.079236	-0.845571	-0.361893
H104	H	-0.955280	-1.091381	-0.116382
H105	H	-0.251559	-0.954921	-0.702591
H106	H	-0.251509	-0.954913	-0.821311
H107	H	-0.472297	-0.908572	-0.987767
Br108	Br	-0.499968	-0.891229	-0.443214
H109	H	-0.472703	-0.339158	-0.298819
H110	H	-0.510078	-0.428222	-0.229052
H111	H	-0.472684	-0.624085	-0.298811
