data_functionalizedCrystal
_audit_creation_method	'MofGen! by Chris Wilmer'
_symmetry_space_group_name_H-M	'P1'
_symmetry_Int_Tables_number	1
_symmetry_cell_setting	triclinic
loop_
_symmetry_equiv_pos_as_xyz
  x,y,z
_cell_length_a	18.101395
_cell_length_b	12.645331
_cell_length_c	12.645323
_cell_angle_alpha	90.026382
_cell_angle_beta	89.971733
_cell_angle_gamma	89.974642
loop_
_atom_site_label
_atom_site_type_symbol
_atom_site_fract_x
_atom_site_fract_y
_atom_site_fract_z
Zn1	Zn	-0.294937	-1.620632	-0.599526
Zn2	Zn	0.205063	-1.120632	-0.099526
Zn3	Zn	-0.418788	-1.620473	-0.422256
Zn4	Zn	0.081212	-1.120473	0.077744
Zn5	Zn	-0.294952	-1.443347	-0.422259
Zn6	Zn	0.205048	-0.943347	0.077741
Zn7	Zn	-0.418729	-1.443287	-0.599459
Zn8	Zn	0.081271	-0.943287	-0.099459
O9	O	-0.356852	-1.531935	-0.510875
O10	O	0.143148	-1.031935	-0.010875
O11	O	-0.311385	-1.768958	-0.576037
O12	O	0.188615	-1.268958	-0.076037
O13	O	-0.402391	-1.596935	-0.273909
O14	O	0.097609	-1.096935	0.226091
O15	O	-0.191317	-1.466956	-0.445803
O16	O	0.308683	-0.966956	0.054197
O17	O	-0.402377	-1.768841	-0.445797
O18	O	0.097623	-1.268841	0.054203
O19	O	-0.191306	-1.597207	-0.576040
O20	O	0.308694	-1.097207	-0.076040
O21	O	-0.311410	-1.466801	-0.273911
O22	O	0.188590	-0.966801	0.226089
O23	O	-0.311353	-1.294992	-0.445739
O24	O	0.188647	-0.794992	0.054261
O25	O	-0.402277	-1.466854	-0.747816
O26	O	0.097723	-0.966854	-0.247816
O27	O	-0.402291	-1.294948	-0.575927
O28	O	0.097709	-0.794948	-0.075927
O29	O	-0.311328	-1.597149	-0.747865
O30	O	0.188672	-1.097149	-0.247865
O31	O	-0.522413	-1.596877	-0.445733
O32	O	-0.022413	-1.096877	0.054267
O33	O	-0.522370	-1.466699	-0.575924
O34	O	-0.022370	-0.966699	-0.075924
C35	C	-0.356818	-1.256505	-0.510827
C36	C	0.143182	-0.756505	-0.010827
C37	C	-0.356822	-1.138675	-0.510831
C38	C	0.143178	-0.638675	-0.010831
C39	C	-0.299339	-0.971103	-0.429370
C40	C	0.200661	-0.471103	0.070630
C41	C	-0.299495	-1.093663	-0.429019
C42	C	0.200505	-0.593663	0.070981
C43	C	-0.434833	-1.094129	-0.480307
C44	C	0.065167	-0.594129	0.019693
C45	C	-0.434512	-0.971530	-0.479743
C46	C	0.065488	-0.471530	0.020257
C47	C	-0.337013	-0.971532	-0.623106
C48	C	0.162987	-0.471532	-0.123106
C49	C	-0.335278	-1.094139	-0.622490
C50	C	0.164722	-0.594139	-0.122490
C51	C	-0.549262	-1.531793	-0.510844
C52	C	-0.049262	-1.031793	-0.010844
C53	C	-0.631576	-1.531829	-0.510866
C54	C	-0.131576	-1.031829	-0.010866
C55	C	-0.930667	-1.532062	-0.510923
C56	C	-0.430667	-1.032062	-0.010923
C57	C	-0.899346	-1.450348	-0.593039
C58	C	-0.399346	-0.950348	-0.093039
C59	C	-0.813728	-1.449960	-0.592782
C60	C	-0.313728	-0.949960	-0.092782
C61	C	-0.782285	-1.531946	-0.510896
C62	C	-0.282285	-1.031946	-0.010896
C63	C	-0.813435	-1.501694	-0.399168
C64	C	-0.313435	-1.001694	0.100832
C65	C	-0.899080	-1.501167	-0.399659
C66	C	-0.399080	-1.001167	0.100341
C67	C	-0.899018	-1.644207	-0.539551
C68	C	-0.399018	-1.144207	-0.039551
C69	C	-0.813367	-1.643548	-0.542001
C70	C	-0.313367	-1.143548	-0.042001
C71	C	-0.698425	-1.531883	-0.510873
C72	C	-0.198425	-1.031883	-0.010873
C73	C	-1.014527	-1.532123	-0.510938
C74	C	-0.514527	-1.032123	-0.010938
C75	C	-0.163690	-1.532106	-0.510929
C76	C	0.336310	-1.032106	-0.010929
C77	C	-0.081375	-1.532179	-0.510953
C78	C	0.418625	-1.032179	-0.010953
C79	C	-0.356794	-1.532013	-0.787380
C80	C	0.143206	-1.032013	-0.287380
C81	C	-0.356770	-1.532046	-0.905211
C82	C	0.143230	-1.032046	-0.405211
C83	C	-0.356871	-0.808440	-0.510908
C84	C	0.143129	-0.308440	-0.010908
C85	C	-0.356843	-0.926270	-0.510881
C86	C	0.143157	-0.426270	-0.010881
C87	C	-0.413716	-1.449825	-1.072744
C88	C	0.086284	-0.949825	-0.572744
C89	C	-0.413998	-1.450040	-0.950184
C90	C	0.086002	-0.950040	-0.450184
C91	C	-0.377958	-1.643739	-0.949736
C92	C	0.122042	-1.143739	-0.449736
C93	C	-0.378315	-1.643288	-1.072334
C94	C	0.121685	-1.143288	-0.572334
C95	C	-0.278317	-1.503631	-1.072413
C96	C	0.221683	-1.003631	-0.572413
C97	C	-0.278787	-1.501139	-0.949807
C98	C	0.221213	-1.001139	-0.449807
C99	C	-0.356855	-1.531918	-0.235445
C100	C	0.143145	-1.031918	0.264555
C101	C	-0.356671	-1.532090	-0.117616
C102	C	0.143329	-1.032090	0.382384
H103	H	-0.312605	-1.122937	-0.345860
H104	H	0.187395	-0.622937	0.154140
H105	H	-0.793299	-1.366835	-0.573818
H106	H	-0.293299	-0.866835	-0.073818
H107	H	-0.259005	-1.423605	-1.103314
H108	H	0.240995	-0.923605	-0.603314
Cl109	Cl	-0.246652	-1.139121	-0.658042
Cl110	Cl	0.253348	-0.639121	-0.158042
H111	H	-0.792664	-1.468888	-0.675627
H112	H	-0.292664	-0.968888	-0.175627
Cl113	Cl	-0.932680	-1.322792	-0.564153
Cl114	Cl	-0.432680	-0.822792	-0.064153
H115	H	-0.919802	-1.558102	-0.336390
H116	H	-0.419802	-1.058102	0.163610
H117	H	-0.478807	-0.941871	-0.536522
H118	H	0.021193	-0.441871	-0.036522
H119	H	-0.241647	-1.123783	-0.448153
H120	H	0.258353	-0.623783	0.051847
H121	H	-0.374109	-1.124783	-0.686474
H122	H	0.125891	-0.624783	-0.186474
Cl123	Cl	-0.401675	-0.926769	-0.716873
Cl124	Cl	0.098325	-0.426769	-0.216873
Cl125	Cl	-0.393524	-1.322166	-0.903697
Cl126	Cl	0.106476	-0.822166	-0.403697
H127	H	-0.434636	-1.668278	-0.919044
H128	H	0.065364	-1.168278	-0.419044
H129	H	-0.281117	-0.940654	-0.650860
H130	H	0.218883	-0.440654	-0.150860
H131	H	-0.262808	-1.418943	-0.920703
H132	H	0.237192	-0.918943	-0.420703
Cl133	Cl	-0.931073	-1.479273	-0.721363
Cl134	Cl	-0.431073	-0.979273	-0.221363
H135	H	-0.919118	-1.419189	-0.375410
H136	H	-0.419118	-0.919189	0.124590
Cl137	Cl	-0.460472	-0.927290	-0.353076
Cl138	Cl	0.039528	-0.427290	0.146924
Cl139	Cl	-0.781995	-1.590688	-0.302125
Cl140	Cl	-0.281995	-1.090688	0.197875
H141	H	-0.400584	-1.366755	-1.102213
H142	H	0.099416	-0.866755	-0.602213
H143	H	-0.792045	-1.420584	-0.374484
H144	H	-0.292045	-0.920584	0.125516
H145	H	-0.478825	-1.123283	-0.537815
H146	H	0.021175	-0.623283	-0.037815
H147	H	-0.920567	-1.671788	-0.619635
H148	H	-0.420567	-1.171788	-0.119635
Cl149	Cl	-0.781930	-1.678776	-0.668951
Cl150	Cl	-0.281930	-1.178776	-0.168951
Cl151	Cl	-0.780312	-1.742524	-0.456399
Cl152	Cl	-0.280312	-1.242524	0.043601
H153	H	-0.451941	-1.124778	-0.399149
H154	H	0.048059	-0.624778	0.100851
H155	H	-0.919273	-1.705087	-0.479743
H156	H	-0.419273	-1.205087	0.020257
Cl157	Cl	-0.502828	-1.478481	-1.120396
Cl158	Cl	-0.002828	-0.978481	-0.620396
Cl159	Cl	-0.503671	-1.479104	-0.904912
Cl160	Cl	-0.003671	-0.979104	-0.404912
H161	H	-0.435593	-1.667414	-1.100941
H162	H	0.064407	-1.167414	-0.600941
H163	H	-0.338570	-1.706659	-1.102020
H164	H	0.161430	-1.206659	-0.602020
H165	H	-0.337723	-1.706675	-0.920608
H166	H	0.162277	-1.206675	-0.420608
Cl167	Cl	-0.209695	-1.586904	-0.902559
Cl168	Cl	0.290305	-1.086904	-0.402559
H169	H	-0.235816	-1.563549	-1.101434
H170	H	0.264184	-1.063549	-0.601434
H171	H	-0.241314	-0.941659	-0.448294
H172	H	0.258686	-0.441659	0.051706
H173	H	-0.312300	-0.940251	-0.346696
H174	H	0.187700	-0.440251	0.153304
