data_functionalizedCrystal
_audit_creation_method	'MofGen! by Chris Wilmer'
_symmetry_space_group_name_H-M	'P1'
_symmetry_Int_Tables_number	1
_symmetry_cell_setting	triclinic
loop_
_symmetry_equiv_pos_as_xyz
  x,y,z
_cell_length_a	16.625546
_cell_length_b	12.827893
_cell_length_c	12.827885
_cell_angle_alpha	89.980728
_cell_angle_beta	90.035124
_cell_angle_gamma	89.977561
loop_
_atom_site_label
_atom_site_type_symbol
_atom_site_fract_x
_atom_site_fract_y
_atom_site_fract_z
Zn1	Zn	-0.320963	-1.597618	0.590810
Zn2	Zn	0.012370	-1.264285	0.924143
Zn3	Zn	0.345703	-0.930952	1.257477
Zn4	Zn	-0.455817	-1.597491	0.416054
Zn5	Zn	-0.122484	-1.264157	0.749387
Zn6	Zn	0.210849	-0.930824	1.082721
Zn7	Zn	-0.321002	-1.422860	0.416084
Zn8	Zn	0.012331	-1.089526	0.749417
Zn9	Zn	0.345664	-0.756193	1.082750
Zn10	Zn	-0.455757	-1.422823	0.590754
Zn11	Zn	-0.122424	-1.089490	0.924087
Zn12	Zn	0.210909	-0.756157	1.257421
O13	O	-0.388385	-1.510198	0.503425
O14	O	-0.055052	-1.176865	0.836759
O15	O	0.278282	-0.843531	1.170092
O16	O	-0.338861	-1.743837	0.567639
O17	O	-0.005527	-1.410504	0.900973
O18	O	0.327806	-1.077171	1.234306
O19	O	-0.437976	-1.574287	0.269822
O20	O	-0.104642	-1.240954	0.603155
O21	O	0.228691	-0.907621	0.936488
O22	O	-0.208165	-1.446110	0.439297
O23	O	0.125168	-1.112777	0.772631
O24	O	0.458502	-0.779444	1.105964
O25	O	-0.437937	-1.743744	0.439247
O26	O	-0.104604	-1.410410	0.772580
O27	O	0.228729	-1.077077	1.105913
O28	O	-0.208136	-1.574505	0.567668
O29	O	0.125197	-1.241171	0.901001
O30	O	0.458531	-0.907838	1.234335
O31	O	-0.338928	-1.445987	0.269843
O32	O	-0.005594	-1.112653	0.603177
O33	O	0.327739	-0.779320	0.936510
O34	O	-0.338869	-1.276619	0.439243
O35	O	-0.005536	-0.943285	0.772576
O36	O	0.327797	-0.609952	1.105910
O37	O	-0.437835	-1.446048	0.736997
O38	O	-0.104502	-1.112715	1.070331
O39	O	0.228831	-0.779382	1.403664
O40	O	-0.437873	-1.276592	0.567572
O41	O	-0.104540	-0.943259	0.900906
O42	O	0.228793	-0.609925	1.234239
O43	O	-0.338802	-1.574469	0.737039
O44	O	-0.005469	-1.241136	1.070372
O45	O	0.327864	-0.907803	1.403705
O46	O	-0.568642	-1.574252	0.439192
O47	O	-0.235309	-1.240919	0.772526
O48	O	0.098025	-0.907586	1.105859
O49	O	-0.568598	-1.445925	0.567544
O50	O	-0.235265	-1.112591	0.900877
O51	O	0.098069	-0.779258	1.234210
C52	C	-0.597876	-1.510099	0.503382
C53	C	-0.264543	-1.176766	0.836715
C54	C	0.068791	-0.843432	1.170048
C55	C	-0.687497	-1.510152	0.503398
C56	C	-0.354164	-1.176819	0.836731
C57	C	-0.020830	-0.843486	1.170064
C58	C	-0.388370	-1.238688	0.503405
C59	C	-0.055036	-0.905355	0.836739
C60	C	0.278297	-0.572021	1.170072
C61	C	-0.388382	-1.122535	0.503422
C62	C	-0.055049	-0.789202	0.836755
C63	C	0.278284	-0.455868	1.170088
C64	C	-0.388308	-1.510269	0.775996
C65	C	-0.054974	-1.176936	1.109329
C66	C	0.278359	-0.843602	1.442662
C67	C	-0.388275	-1.510299	0.892149
C68	C	-0.054941	-1.176966	1.225482
C69	C	0.278392	-0.843633	1.558816
C70	C	-1.015673	-1.510335	0.503507
C71	C	-0.682339	-1.177001	0.836840
C72	C	-0.349006	-0.843668	1.170173
C73	C	-0.924364	-1.510281	0.503479
C74	C	-0.591031	-1.176947	0.836813
C75	C	-0.257698	-0.843614	1.170146
C76	C	-0.851588	-1.510243	0.503452
C77	C	-0.518254	-1.176909	0.836785
C78	C	-0.184921	-0.843576	1.170118
C79	C	-0.760274	-1.510190	0.503425
C80	C	-0.426940	-1.176857	0.836759
C81	C	-0.093607	-0.843524	1.170092
C82	C	-0.178076	-1.510326	0.503492
C83	C	0.155257	-1.176992	0.836825
C84	C	0.488590	-0.843659	1.170159
C85	C	-0.088455	-1.510380	0.503521
C86	C	0.244878	-1.177047	0.836854
C87	C	0.578212	-0.843713	1.170187
C88	C	-0.388401	-1.782768	0.503446
C89	C	-0.055068	-1.449435	0.836779
C90	C	0.278265	-1.116101	1.170113
C91	C	-0.388408	-1.898921	0.503455
C92	C	-0.055075	-1.565588	0.836788
C93	C	0.278258	-1.232255	1.170121
C94	C	-0.437449	-1.070765	0.566825
C95	C	-0.104116	-0.737431	0.900159
C96	C	0.229217	-0.404098	1.233492
C97	C	-0.437464	-0.950714	0.566844
C98	C	-0.104130	-0.617381	0.900177
C99	C	0.229203	-0.284048	1.233510
C100	C	-0.388404	-1.510187	0.231915
C101	C	-0.055071	-1.176854	0.565249
C102	C	0.278263	-0.843521	0.898582
C103	C	-0.388210	-1.510359	0.115763
C104	C	-0.054877	-1.177026	0.449096
C105	C	0.278457	-0.843693	0.782429
C106	C	-0.339261	-1.573853	0.943954
C107	C	-0.005927	-1.240520	1.277287
C108	C	0.327406	-0.907186	1.610621
C109	C	-0.339225	-1.573886	1.064004
C110	C	-0.005892	-1.240553	1.397338
C111	C	0.327441	-0.907219	1.730671
H112	H	-0.479444	-1.115319	0.621098
H113	H	-0.146110	-0.781986	0.954431
H114	H	0.187223	-0.448652	1.287764
H115	H	-0.430206	-1.455906	0.936673
H116	H	-0.096873	-1.122573	1.270007
H117	H	0.236461	-0.789240	1.603340
H118	H	-0.430178	-1.455950	1.071218
H119	H	-0.096845	-1.122616	1.404552
H120	H	0.236489	-0.789283	1.737885
Br121	Br	-0.507491	-0.876517	0.657315
Br122	Br	-0.174158	-0.543183	0.990648
Br123	Br	0.159176	-0.209850	1.323981
Br124	Br	-0.269287	-1.664589	1.138252
Br125	Br	0.064047	-1.331255	1.471585
Br126	Br	0.397380	-0.997922	1.804918
Br127	Br	-0.318373	-1.048286	0.412973
Br128	Br	0.014960	-0.714953	0.746307
Br129	Br	0.348294	-0.381619	1.079640
H130	H	-0.346401	-0.943436	0.449166
H131	H	-0.013068	-0.610102	0.782499
H132	H	0.320266	-0.276769	1.115833
H133	H	-0.297321	-1.628236	0.899429
H134	H	0.036012	-1.294902	1.232763
H135	H	0.369346	-0.961569	1.566096
