data_functionalizedCrystal
_audit_creation_method	'MofGen! by Chris Wilmer'
_symmetry_space_group_name_H-M	'P1'
_symmetry_Int_Tables_number	1
_symmetry_cell_setting	triclinic
loop_
_symmetry_equiv_pos_as_xyz
  x,y,z
_cell_length_a	6.817900
_cell_length_b	19.551823
_cell_length_c	9.582880
_cell_angle_alpha	93.823963
_cell_angle_beta	111.207034
_cell_angle_gamma	101.663376
loop_
_atom_site_label
_atom_site_type_symbol
_atom_site_fract_x
_atom_site_fract_y
_atom_site_fract_z
V1	V	-4.107767	-0.096380	-0.467299
O2	O	-4.102840	0.004935	-0.457683
O3	O	-4.049976	-0.191396	-0.464795
O4	O	-4.098689	-0.094764	-0.670788
O5	O	-4.053790	-0.092367	-0.250265
V6	V	-4.587517	-0.084277	-0.441256
O7	O	-4.377303	-0.122928	-0.524427
O8	O	-4.768178	-0.057729	-0.384128
O9	O	-4.422101	0.010740	-0.443759
O10	O	-4.709840	-0.185591	-0.450871
O11	O	-4.758891	-0.088290	-0.658290
O12	O	-4.373388	-0.085893	-0.237766
C13	C	-3.891420	-0.214564	-0.457602
C14	C	-3.925718	-0.292240	-0.456912
C15	C	-4.125043	-0.332281	-0.464071
C16	C	-4.157277	-0.405268	-0.463437
C17	C	-3.990160	-0.438208	-0.455614
C18	C	-3.790812	-0.398158	-0.448462
C19	C	-3.758590	-0.325174	-0.449111
C20	C	-3.858594	-0.544756	-0.360718
C21	C	-3.890818	-0.617738	-0.360060
C22	C	-4.089537	-0.663315	-0.453619
C23	C	-4.256053	-0.635901	-0.547818
C24	C	-4.223832	-0.562917	-0.548467
C25	C	-4.025079	-0.517347	-0.454910
C26	C	-4.323828	-0.782497	-0.460094
C27	C	-4.356060	-0.855486	-0.459469
C28	C	-3.989581	-0.848373	-0.444479
C29	C	-3.957362	-0.775387	-0.445119
C30	C	-4.124490	-0.742453	-0.452919
C31	C	-3.953557	-0.091298	-0.720365
C32	C	-4.027357	-0.090606	-0.886723
C33	C	-4.243998	0.033903	-0.450948
C34	C	-4.188940	0.111579	-0.451649
C35	C	-4.181860	-0.089360	-0.188182
C36	C	-4.087299	-0.090049	-0.021823
H37	H	-4.359415	-0.540599	-0.625169
H38	H	-4.417728	-0.673020	-0.624209
H39	H	-3.853515	-0.875193	-0.438119
O40	O	-3.763560	-0.736586	-0.438071
C41	C	-3.622982	-0.781310	-0.431069
H42	H	-3.676840	-0.830943	-0.385182
H43	H	-3.450517	-0.752468	-0.352983
H44	H	-3.627911	-0.796683	-0.549376
O45	O	-4.549501	-0.894439	-0.466201
C46	C	-4.516632	-0.927453	-0.335971
H47	H	-4.341557	-0.932174	-0.285962
H48	H	-4.630900	-0.982390	-0.367969
H49	H	-4.550859	-0.894492	-0.248675
H50	H	-3.596274	-0.292573	-0.443283
O51	O	-3.728812	-0.644251	-0.268518
C52	C	-3.546515	-0.588375	-0.186069
H53	H	-3.553674	-0.540851	-0.248866
H54	H	-3.392203	-0.605932	-0.173617
H55	H	-3.546257	-0.573161	-0.069058
O56	O	-3.628211	-0.430059	-0.440650
C57	C	-3.446440	-0.400674	-0.305955
H58	H	-3.454327	-0.345560	-0.265129
H59	H	-3.291758	-0.397040	-0.328422
H60	H	-3.446248	-0.435660	-0.215398
O61	O	-4.287204	-0.300242	-0.471396
C62	C	-4.217081	-0.248826	-0.341964
H63	H	-4.079159	-0.262229	-0.246455
H64	H	-4.357817	-0.247992	-0.304872
H65	H	-4.157568	-0.194682	-0.369903
O66	O	-4.485970	-0.750446	-0.467416
C67	C	-4.415826	-0.699035	-0.337973
H68	H	-4.277922	-0.712450	-0.242469
H69	H	-4.556559	-0.698194	-0.300881
H70	H	-4.356280	-0.644891	-0.365896
O71	O	-3.665743	-0.500405	-0.269746
C72	C	-3.700248	-0.452628	-0.169261
H73	H	-3.875333	-0.447907	-0.219127
H74	H	-3.585903	-0.398592	-0.151402
H75	H	-3.667407	-0.472752	-0.056001
H76	H	-4.319596	-0.437876	-0.469267
