data_functionalizedCrystal
_audit_creation_method	'MofGen! by Chris Wilmer'
_symmetry_space_group_name_H-M	'P1'
_symmetry_Int_Tables_number	1
_symmetry_cell_setting	triclinic
loop_
_symmetry_equiv_pos_as_xyz
  x,y,z
_cell_length_a	12.759401
_cell_length_b	12.645330
_cell_length_c	12.645331
_cell_angle_alpha	90.001899
_cell_angle_beta	90.000296
_cell_angle_gamma	90.017853
loop_
_atom_site_label
_atom_site_type_symbol
_atom_site_fract_x
_atom_site_fract_y
_atom_site_fract_z
Zn1	Zn	1.606045	-0.422267	0.599350
Zn2	Zn	1.605986	-0.599484	0.422090
Zn3	Zn	1.430403	-0.422235	0.422105
Zn4	Zn	1.430326	-0.599489	0.599316
O5	O	1.518190	-0.510869	0.510715
O6	O	1.753058	-0.445786	0.575844
O7	O	1.582702	-0.575956	0.273745
O8	O	1.453759	-0.273892	0.445637
O9	O	1.753015	-0.575986	0.445612
O10	O	1.582802	-0.273915	0.575859
O11	O	1.453701	-0.445732	0.273756
O12	O	1.283371	-0.445737	0.445604
O13	O	1.453628	-0.575996	0.747668
O14	O	1.283315	-0.575965	0.575801
O15	O	1.582728	-0.445791	0.747693
O16	O	1.582628	-0.747832	0.445579
O17	O	1.453571	-0.747836	0.575786
C18	C	1.245222	-0.510849	0.510701
C19	C	1.128446	-0.510866	0.510720
C20	C	1.073582	-0.578784	0.578401
C21	C	0.963858	-0.578798	0.578413
C22	C	0.963871	-0.442972	0.443053
C23	C	1.073593	-0.442954	0.443048
C24	C	1.128435	-0.646697	0.646073
C25	C	1.073571	-0.714621	0.713759
C26	C	0.963847	-0.714634	0.713771
C27	C	0.908987	-0.646723	0.646096
C28	C	1.518113	-0.786298	0.510701
C29	C	1.518176	-0.904128	0.510730
C30	C	1.437322	-1.071739	0.592895
C31	C	1.436908	-0.949180	0.592631
C32	C	1.488238	-0.948678	0.399010
C33	C	1.487745	-1.071276	0.399508
C34	C	1.629464	-1.071229	0.539378
C35	C	1.628781	-0.948623	0.541821
C36	C	1.792223	-0.510889	0.510730
C37	C	1.909000	-0.510898	0.510737
C38	C	1.518176	-0.510898	0.787221
C39	C	1.518171	-0.510910	0.905051
C40	C	1.518295	-0.234363	0.510754
C41	C	1.518340	-0.116533	0.510770
C42	C	1.436945	-0.592824	0.949917
C43	C	1.436620	-0.592570	1.072477
C44	C	1.488516	-0.399085	1.072954
C45	C	1.487932	-0.399572	0.950356
C46	C	1.629243	-0.539817	0.950235
C47	C	1.628641	-0.542269	1.072841
C48	C	1.518185	-0.510873	1.235286
C49	C	1.518160	-0.510888	1.117456
H50	H	1.217778	-0.646695	0.646070
H51	H	1.692365	-0.486985	1.103463
F52	F	1.131986	-0.370668	0.371014
F53	F	1.383168	-0.908660	0.366758
H54	H	1.354526	-0.919938	0.573679
H55	H	1.118245	-0.769905	0.768863
F56	F	0.905460	-0.786916	0.785814
F57	F	1.461383	-0.909806	0.700909
F58	F	1.665170	-1.111585	0.644050
F59	F	0.792207	-0.646733	0.646120
H60	H	1.455877	-1.101184	0.676007
F61	F	1.708340	-0.461843	0.912305
F62	F	1.561521	-1.110011	0.316796
H63	H	1.651359	-0.919505	0.624041
H64	H	0.919195	-0.387683	0.387955
H65	H	1.355110	-0.573896	0.919109
F66	F	1.381570	-1.108769	0.367831
F67	F	1.330317	-1.112137	0.568458
F68	F	1.562924	-0.910535	0.316841
F69	F	1.711836	-0.908525	0.469337
F70	F	1.329033	-0.567547	1.110819
H71	H	1.689824	-1.100193	0.479562
F72	F	1.460804	-0.700917	1.111808
H73	H	1.455235	-0.675982	0.920440
H74	H	1.406752	-0.375116	0.921763
H75	H	1.544541	-0.336437	0.920675
F76	F	1.563468	-0.317118	1.111032
F77	F	1.383569	-0.366558	1.113086
H78	H	1.656304	-0.619967	0.919318
H79	H	1.651000	-0.624551	1.101924
