data_functionalizedCrystal
_audit_creation_method	'MofGen! by Chris Wilmer'
_symmetry_space_group_name_H-M	'P1'
_symmetry_Int_Tables_number	1
_symmetry_cell_setting	triclinic
loop_
_symmetry_equiv_pos_as_xyz
  x,y,z
_cell_length_a	10.685980
_cell_length_b	10.686285
_cell_length_c	10.686551
_cell_angle_alpha	80.915481
_cell_angle_beta	81.591741
_cell_angle_gamma	89.665709
loop_
_atom_site_label
_atom_site_type_symbol
_atom_site_fract_x
_atom_site_fract_y
_atom_site_fract_z
Zn1	Zn	2.015981	-0.282820	-0.846602
Zn2	Zn	2.015879	-0.511409	-0.618091
Zn3	Zn	1.789915	-0.317939	-0.615570
Zn4	Zn	1.819994	-0.511286	-0.814010
O5	O	1.910442	-0.405864	-0.723568
O6	O	2.192555	-0.298497	-0.830984
O7	O	1.973273	-0.500493	-0.439076
O8	O	1.807358	-0.136699	-0.658802
O9	O	2.192480	-0.466440	-0.663098
O10	O	1.973447	-0.110898	-0.828540
O11	O	1.807259	-0.358352	-0.437224
O12	O	1.617317	-0.358233	-0.627199
O13	O	1.858622	-0.466231	-0.997014
O14	O	1.639416	-0.500284	-0.772992
O15	O	2.002613	-0.298378	-1.020959
O16	O	2.002439	-0.687974	-0.631495
O17	O	1.858523	-0.687884	-0.775436
C18	C	1.582579	-0.433057	-0.696286
C19	C	1.442323	-0.444719	-0.684642
C20	C	1.933770	-0.733709	-0.700233
C21	C	1.943869	-0.873950	-0.690303
C22	C	2.239585	-0.378565	-0.750958
C23	C	2.379846	-0.366931	-0.762630
C24	C	1.933984	-0.378373	-1.056611
C25	C	1.944017	-0.366658	-1.198535
C26	C	1.887059	-0.076733	-0.747025
C27	C	1.877094	0.063523	-0.757021
C28	C	1.887057	-0.433150	-0.391833
C29	C	1.877244	-0.444489	-0.249956
H30	H	1.388504	-0.520242	-0.608955
O31	O	1.799868	-0.872271	-0.834396
C32	C	1.872050	-0.783163	-0.928221
H33	H	1.974818	-0.813966	-0.941678
H34	H	1.866540	-0.686242	-0.896098
C35	C	1.693299	-0.737310	-1.039395
C36	C	1.819518	-0.775149	-1.055932
H37	H	1.660893	-0.732360	-1.118173
H38	H	1.644666	-0.797339	-0.976182
H39	H	1.688723	-0.656545	-1.012623
H40	H	1.824090	-0.855918	-1.082688
H41	H	1.868151	-0.715132	-1.119153
O42	O	2.021276	-0.276496	-1.275726
C43	C	2.014451	-0.284486	-1.405000
H44	H	1.921269	-0.332420	-1.412038
H45	H	2.096724	-0.342382	-1.444283
C46	C	2.136177	-0.091382	-1.474993
C47	C	2.021725	-0.150245	-1.483639
H48	H	2.140670	-0.008577	-1.523504
H49	H	2.140781	-0.086000	-1.387899
H50	H	2.204726	-0.139642	-1.507727
H51	H	1.953179	-0.101994	-1.450891
H52	H	2.017110	-0.155615	-1.570730
H53	H	1.433657	-0.291405	-0.838304
H54	H	2.008757	-0.927713	-0.625570
H55	H	1.812406	-0.520088	-1.185405
