data_functionalizedCrystal
_audit_creation_method	'MofGen! by Chris Wilmer'
_symmetry_space_group_name_H-M	'P1'
_symmetry_Int_Tables_number	1
_symmetry_cell_setting	triclinic
loop_
_symmetry_equiv_pos_as_xyz
  x,y,z
_cell_length_a	23.096457
_cell_length_b	12.970454
_cell_length_c	12.970454
_cell_angle_alpha	60.000396
_cell_angle_beta	89.997856
_cell_angle_gamma	59.998155
loop_
_atom_site_label
_atom_site_type_symbol
_atom_site_fract_x
_atom_site_fract_y
_atom_site_fract_z
Zr1	Zr	0.557779	1.128487	-0.135311
O2	O	0.465329	1.343579	-0.299929
O3	O	0.586119	0.913397	-0.084848
O4	O	0.586120	1.128485	-0.299936
O5	O	0.465328	1.128492	0.084825
O6	O	0.681403	1.128481	-0.299939
O7	O	0.465328	1.128491	-0.084841
O8	O	0.681400	0.743728	0.084814
O9	O	0.465330	1.513245	-0.299928
O10	O	0.669314	1.001863	-0.063327
O11	O	0.598206	1.001867	0.063296
O12	O	0.598207	1.255105	-0.189942
O13	O	0.527099	1.255108	-0.063319
Zr14	Zr	0.709742	1.128482	0.135282
Zr15	Zr	0.709743	1.128481	-0.135316
Zr16	Zr	0.557778	1.128488	0.135288
Zr17	Zr	0.557779	1.399085	-0.135308
Zr18	Zr	0.709741	0.857884	0.135280
O19	O	0.681402	1.343572	0.084819
O20	O	0.681403	1.343570	-0.299937
O21	O	0.465328	1.343581	0.084827
O22	O	0.802191	0.913390	0.299900
O23	O	0.802193	0.913388	-0.084856
O24	O	0.586118	0.913399	0.299909
O25	O	0.802193	1.128477	-0.084854
O26	O	0.681400	1.128484	0.299907
O27	O	0.586118	1.128488	0.299910
O28	O	0.802193	1.128478	0.084813
O29	O	0.586121	1.513240	-0.299932
O30	O	0.681400	0.743729	0.299904
O31	O	0.802191	0.743724	0.299899
O32	O	0.802192	0.743723	0.084809
O33	O	0.465329	1.513246	-0.084838
O34	O	0.586120	1.513241	-0.084843
O35	O	0.669313	1.001864	0.189914
O36	O	0.740422	1.001861	0.063291
O37	O	0.669315	1.255102	-0.063325
O38	O	0.598206	1.255106	0.063298
C39	C	0.633760	0.790008	-0.000017
C40	C	0.633759	0.675132	-0.000018
C41	C	0.443676	1.128493	-0.000007
C42	C	0.379163	1.128495	-0.000005
C43	C	0.348861	1.128505	-0.093481
C44	C	0.288249	1.128492	-0.093481
C45	C	0.257933	1.128498	-0.000014
C46	C	0.288245	1.128480	0.093479
C47	C	0.348860	1.128478	0.093484
N48	N	0.139581	1.211045	0.028284
N49	N	0.081998	1.211049	0.028272
C50	C	0.075304	1.128499	-0.000020
N51	N	0.128362	1.045963	-0.028324
N52	N	0.185948	1.045965	-0.028318
C53	C	0.192206	1.128499	-0.000008
C54	C	-0.020721	1.128493	-0.093502
C55	C	-0.081332	1.128470	-0.093494
C56	C	-0.081338	1.128472	0.093462
C57	C	-0.020725	1.128480	0.093459
C58	C	0.009579	1.128497	-0.000030
C59	C	0.823845	1.128476	-0.000021
C60	C	0.888357	1.128474	-0.000024
C61	C	0.633762	1.128483	-0.338492
C62	C	0.633762	1.128482	-0.453368
C63	C	0.633761	1.466961	-0.000011
C64	C	0.633761	1.581837	-0.000010
C65	C	0.633759	1.128486	0.338463
C66	C	0.633759	1.128487	0.453339
C67	C	0.823844	0.790000	-0.000024
C68	C	0.888356	0.675122	-0.000028
C69	C	0.633758	0.790010	0.338460
C70	C	0.633758	0.675135	0.453335
C71	C	0.823843	0.790002	0.338453
C72	C	0.888355	0.675124	0.453326
C73	C	0.443678	1.466967	-0.338482
C74	C	0.379166	1.581845	-0.453355
C75	C	0.443677	1.466969	-0.000004
C76	C	0.379164	1.581847	-0.000001
C77	C	0.633762	1.466959	-0.338489
C78	C	0.633763	1.581834	-0.453364
C79	C	0.881535	0.621175	-0.066134
C80	C	0.942145	0.513249	-0.066162
C81	C	1.009577	0.459265	-0.000077
C82	C	1.016397	0.513223	0.066031
C83	C	0.955787	0.621154	0.066052
C84	C	0.955775	0.621174	0.441175
C85	C	1.016396	0.513249	0.549100
C86	C	1.009597	0.459269	0.669174
C87	C	0.942170	0.513229	0.681322
C88	C	0.881549	0.621159	0.573399
C89	C	0.311746	1.635808	-0.441204
C90	C	0.251124	1.743766	-0.549129
C91	C	0.257924	1.797753	-0.669203
C92	C	0.325351	1.743785	-0.681351
C93	C	0.385971	1.635836	-0.573427
C94	C	0.385986	1.635806	0.066094
C95	C	0.325375	1.743761	0.066093
C96	C	0.257944	1.797749	0.000003
C97	C	0.251123	1.743786	-0.066100
C98	C	0.311733	1.635840	-0.066105
H99	H	0.373533	1.128514	-0.169603
H100	H	0.196228	1.787688	-0.539213
H101	H	0.208597	1.885646	0.000018
C102	C	0.460156	1.576438	0.138796
C103	C	0.526835	1.457701	0.138809
C104	C	0.601003	1.398346	0.211510
C105	C	0.608491	1.457729	0.284197
C106	C	0.541810	1.576473	0.284186
C107	C	0.467642	1.635827	0.211486
H108	H	0.521293	1.413736	0.084999
H109	H	0.650364	1.310444	0.211517
H110	H	0.663394	1.413792	0.338014
H111	H	0.547352	1.620438	0.337996
H112	H	0.418281	1.723730	0.211478
C113	C	0.012608	1.128490	0.196275
C114	C	-0.020732	1.128494	0.299093
C115	C	0.012602	1.128498	0.401916
C116	C	0.079276	1.128499	0.401921
C117	C	0.112619	1.128495	0.299098
C118	C	0.079285	1.128490	0.196275
H119	H	-0.070091	1.128493	0.299093
H120	H	-0.012081	1.128501	0.478032
H121	H	0.103952	1.128502	0.478036
H122	H	0.161979	1.128495	0.299098
H123	H	0.103969	1.128487	0.120159
H124	H	0.196213	1.787760	-0.119908
H125	H	0.936644	0.469262	0.779101
C126	C	0.807365	0.680545	-0.138838
C127	C	0.740686	0.799264	-0.138834
C128	C	0.666518	0.858632	-0.211547
C129	C	0.659030	0.799280	-0.284266
C130	C	0.725711	0.680554	-0.284273
C131	C	0.799878	0.621187	-0.211559
H132	H	0.746227	0.843206	-0.085001
H133	H	0.617156	0.946521	-0.211542
H134	H	0.604126	0.843228	-0.338093
H135	H	0.720169	0.636613	-0.338106
H136	H	0.849240	0.533298	-0.211565
C137	C	0.304223	1.576474	-0.138796
C138	C	0.230046	1.635858	-0.211476
C139	C	0.222529	1.576497	-0.284170
C140	C	0.289188	1.457752	-0.284184
C141	C	0.363370	1.398361	-0.211501
C142	C	0.370887	1.457722	-0.138808
H143	H	0.180697	1.723767	-0.211468
H144	H	0.167615	1.620463	-0.337974
H145	H	0.283624	1.413809	-0.337996
H146	H	0.412720	1.310453	-0.211509
H147	H	0.425801	1.413757	-0.085003
H148	H	0.263572	1.128500	-0.169604
H149	H	0.826655	0.665071	0.583309
H150	H	0.263560	1.128481	0.169584
C151	C	1.090574	0.453823	0.138735
C152	C	1.112868	0.379593	0.282310
C153	C	1.187046	0.320183	0.355022
C154	C	1.238931	0.335002	0.284159
C155	C	1.216638	0.409235	0.140576
C156	C	1.142460	0.468646	0.067864
H157	H	1.074459	0.368620	0.334774
H158	H	1.203548	0.265230	0.461312
H159	H	1.293842	0.291023	0.337986
H160	H	1.255048	0.420208	0.088112
H161	H	1.125958	0.523598	-0.038426
H162	H	0.373533	1.128470	0.169606
C163	C	0.963298	0.680470	0.138793
C164	C	1.037474	0.621066	0.211492
C165	C	1.044991	0.680374	0.284239
C166	C	0.978332	0.799085	0.284287
C167	C	0.904151	0.858495	0.211585
C168	C	0.896634	0.799188	0.138838
H169	H	1.086824	0.533183	0.211459
H170	H	1.099906	0.636394	0.338058
H171	H	0.983897	0.842988	0.338139
H172	H	0.854801	0.946378	0.211619
H173	H	0.841720	0.843168	0.085019
H174	H	0.306196	1.591858	-0.343444
C175	C	1.090559	0.453899	0.535716
C176	C	1.142444	0.290652	0.591735
C177	C	1.216604	0.231305	0.578346
C178	C	1.238880	0.335204	0.508938
C179	C	1.186994	0.498461	0.452914
C180	C	1.112834	0.557808	0.466303
H181	H	1.125955	0.213731	0.643119
H182	H	1.255013	0.110451	0.619819
H183	H	1.293777	0.291272	0.499027
H184	H	1.203483	0.575382	0.401530
H185	H	1.074425	0.678662	0.424830
H186	H	0.003955	1.128500	-0.169623
H187	H	-0.106002	1.128469	-0.169611
H188	H	-0.106019	1.128469	0.169570
H189	H	0.208557	1.885651	-0.757071
H190	H	0.936578	0.469330	-0.119995
H191	H	0.961325	0.665109	0.343415
H192	H	1.058964	0.371385	0.757042
H193	H	0.330879	1.787755	-0.779128
H194	H	0.440866	1.591900	-0.583335
H195	H	1.058924	0.371379	-0.000102
H196	H	0.330942	1.787679	0.119926
