data_functionalizedCrystal
_audit_creation_method	'MofGen! by Chris Wilmer'
_symmetry_space_group_name_H-M	'P1'
_symmetry_Int_Tables_number	1
_symmetry_cell_setting	triclinic
loop_
_symmetry_equiv_pos_as_xyz
  x,y,z
_cell_length_a	19.188925
_cell_length_b	19.188930
_cell_length_c	9.730223
_cell_angle_alpha	89.990488
_cell_angle_beta	89.995762
_cell_angle_gamma	83.143665
loop_
_atom_site_label
_atom_site_type_symbol
_atom_site_fract_x
_atom_site_fract_y
_atom_site_fract_z
O1	O	0.926146	0.087149	-0.114335
O2	O	1.426146	0.587149	0.385665
O3	O	0.722834	0.098887	-0.114333
O4	O	1.222834	0.598887	0.385667
O5	O	0.830357	-0.008637	-0.114307
O6	O	1.330357	0.491363	0.385693
O7	O	0.818623	0.194674	-0.114361
O8	O	1.318623	0.694674	0.385639
O9	O	0.830350	-0.008640	0.114273
O10	O	1.330350	0.491360	0.614273
O11	O	0.722827	0.098885	0.114247
O12	O	1.222827	0.598885	0.614247
O13	O	0.926139	0.087146	0.114245
O14	O	1.426139	0.587146	0.614245
Zn15	Zn	0.824482	0.093015	0.150538
Zn16	Zn	1.324482	0.593015	0.650538
Zn17	Zn	0.824491	0.093019	-0.150626
Zn18	Zn	1.324491	0.593019	0.349374
O19	O	0.818616	0.194671	0.114219
O20	O	1.318616	0.694671	0.614219
C21	C	0.696820	0.098507	-0.000043
C22	C	1.196820	0.598507	0.499957
C23	C	0.619315	0.097367	-0.000041
C24	C	1.119315	0.597367	0.499959
C25	C	0.057545	0.152831	-0.000059
C26	C	0.557545	0.652831	0.499941
C27	C	0.130368	0.153908	-0.000066
C28	C	0.630368	0.653908	0.499934
C29	C	0.175302	0.090816	-0.000047
C30	C	0.675302	0.590816	0.499953
C31	C	0.147408	0.026642	-0.000056
C32	C	0.647408	0.526642	0.499944
C33	C	0.074586	0.025568	-0.000062
C34	C	0.574586	0.525568	0.499938
N35	N	0.295977	0.045139	0.077775
N36	N	0.795977	0.545139	0.577775
N37	N	0.365155	0.046164	0.077784
N38	N	0.865155	0.546164	0.577784
C39	C	0.394712	0.094050	-0.000032
C40	C	0.894712	0.594050	0.499968
N41	N	0.352477	0.140883	-0.077839
N42	N	0.852477	0.640883	0.422161
N43	N	0.283293	0.139859	-0.077842
N44	N	0.783293	0.639859	0.422158
C45	C	0.254267	0.091974	-0.000041
C46	C	0.754267	0.591974	0.499959
C47	C	0.501561	0.159386	-0.000041
C48	C	1.001561	0.659386	0.499959
C49	C	0.574385	0.160460	-0.000058
C50	C	1.074385	0.660460	0.499942
C51	C	0.591425	0.033193	-0.000033
C52	C	1.091425	0.533193	0.499967
C53	C	0.518601	0.032121	-0.000031
C54	C	1.018601	0.532121	0.499969
C55	C	0.473673	0.095220	-0.000028
C56	C	0.973673	0.595220	0.499972
C57	C	0.829974	-0.034650	-0.000013
C58	C	1.329974	0.465350	0.499987
C59	C	0.828833	-0.112154	-0.000001
C60	C	1.328833	0.387846	0.499999
C61	C	0.891924	-0.157079	0.000005
C62	C	1.391924	0.342921	0.500005
C63	C	0.890852	-0.229903	-0.000017
C64	C	1.390852	0.270097	0.499983
C65	C	0.826686	-0.257799	-0.000018
C66	C	1.326686	0.242201	0.499982
C67	C	0.763587	-0.212864	-0.000032
C68	C	1.263587	0.287136	0.499968
C69	C	0.764660	-0.140041	-0.000023
C70	C	1.264660	0.359959	0.499977
N71	N	0.777636	-0.365804	0.077773
N72	N	1.277636	0.134196	0.577773
N73	N	0.776621	-0.434982	0.077768
N74	N	1.276621	0.065018	0.577768
C75	C	0.823448	-0.477207	-0.000046
C76	C	1.323448	0.022793	0.499954
N77	N	0.871340	-0.447642	-0.077837
N78	N	1.371340	0.052358	0.422163
N79	N	0.872357	-0.378457	-0.077826
N80	N	1.372357	0.121543	0.422174
C81	C	0.825515	-0.336761	-0.000028
C82	C	1.325515	0.163239	0.499972
C83	C	0.885381	-0.601097	-0.000065
C84	C	1.385381	-0.101097	0.499935
C85	C	0.884307	-0.673922	-0.000096
C86	C	1.384307	-0.173922	0.499904
C87	C	0.757040	-0.656880	-0.000096
C88	C	1.257040	-0.156880	0.499904
C89	C	0.758116	-0.584057	-0.000080
C90	C	1.258116	-0.084057	0.499920
C91	C	0.822289	-0.556170	-0.000058
C92	C	1.322289	-0.056170	0.499942
C93	C	0.952154	0.087527	-0.000049
C94	C	1.452154	0.587527	0.499951
C95	C	1.029658	0.088666	-0.000059
C96	C	1.529658	0.588666	0.499941
C97	C	0.819000	0.220684	-0.000078
C98	C	1.319000	0.720684	0.499922
C99	C	0.820140	0.298188	-0.000099
C100	C	1.320140	0.798188	0.499901
N101	N	0.824481	0.093012	0.356074
N102	N	1.324481	0.593012	0.856074
N103	N	0.824498	0.093016	-0.356162
N104	N	1.324498	0.593016	0.143838
C105	C	0.872108	0.045420	0.428012
C106	C	1.372108	0.545420	0.928012
C107	C	0.872115	0.045420	0.571895
C108	C	1.372115	0.545420	1.071895
C109	C	0.776866	0.140611	0.571890
C110	C	1.276866	0.640611	1.071890
C111	C	0.776856	0.140607	0.428010
C112	C	1.276856	0.640607	0.928010
H113	H	0.464978	0.210765	-0.000042
H114	H	0.964978	0.710765	0.499958
O115	O	0.952187	-0.273484	-0.000188
O116	O	1.452187	0.226516	0.499812
C117	C	0.991165	-0.260879	-0.118578
C118	C	1.491165	0.239121	0.381422
H119	H	0.973860	-0.205579	-0.158049
H120	H	1.473860	0.294421	0.341951
H121	H	1.049411	-0.266189	-0.091937
H122	H	1.549411	0.233811	0.408063
H123	H	0.981744	-0.300675	-0.201478
H124	H	1.481744	0.199325	0.298522
H125	H	0.711342	-0.235581	-0.000035
H126	H	1.211342	0.264419	0.499965
H127	H	0.713282	-0.103462	-0.000028
H128	H	1.213282	0.396538	0.499972
O129	O	0.945662	-0.717465	-0.000030
O130	O	1.445662	-0.217465	0.499970
C131	C	1.002528	-0.677231	-0.000041
C132	C	1.502528	-0.177231	0.499959
H133	H	0.984635	-0.622829	0.043241
H134	H	1.484635	-0.122829	0.543241
H135	H	1.046715	-0.704239	0.066326
H136	H	1.546715	-0.204239	0.566326
H137	H	1.022217	-0.672092	-0.109697
H138	H	1.522217	-0.172092	0.390303
H139	H	0.937635	-0.578390	-0.000054
H140	H	1.437635	-0.078390	0.499946
O141	O	0.601360	0.222855	0.000002
O142	O	1.101360	0.722855	0.500002
C143	C	0.546086	0.278312	-0.000030
C144	C	1.046086	0.778312	0.499970
H145	H	0.496673	0.258888	0.043247
H146	H	0.996673	0.758888	0.543247
H147	H	0.561167	0.323121	0.066333
H148	H	1.061167	0.823121	0.566333
H149	H	0.535724	0.297772	-0.109691
H150	H	1.035724	0.797772	0.390309
H151	H	0.153078	0.206160	-0.000053
H152	H	0.653078	0.706160	0.499947
H153	H	0.704794	-0.679592	-0.000104
H154	H	1.204794	-0.179592	0.499896
H155	H	0.628010	-0.018178	-0.000028
H156	H	1.128010	0.481822	0.499972
O157	O	0.191125	-0.034599	-0.000218
O158	O	0.691125	0.465401	0.499782
C159	C	0.233755	-0.037787	-0.118612
C160	C	0.733755	0.462213	0.381388
H161	H	0.237268	0.017623	-0.158085
H162	H	0.737268	0.517623	0.341915
H163	H	0.288568	-0.063963	-0.091976
H164	H	0.788568	0.436037	0.408024
H165	H	0.209901	-0.069599	-0.201509
H166	H	0.709901	0.430401	0.298491
H167	H	0.738069	0.179362	0.369434
H168	H	1.238069	0.679362	0.869434
O169	O	0.696764	-0.540512	-0.000007
O170	O	1.196764	-0.040512	0.499993
C171	C	0.639898	-0.580746	-0.000046
C172	C	1.139898	-0.080746	0.499954
H173	H	0.657785	-0.635159	0.043220
H174	H	1.157785	-0.135159	0.543220
H175	H	0.595703	-0.553754	0.066321
H176	H	1.095703	-0.053754	0.566321
H177	H	0.620220	-0.585857	-0.109708
H178	H	1.120220	-0.085857	0.390292
O179	O	0.730635	0.186940	0.641616
O180	O	1.230635	0.686940	1.141616
C181	C	0.741774	0.256029	0.606443
C182	C	1.241774	0.756029	1.106443
H183	H	0.768681	0.255873	0.501967
H184	H	1.268681	0.755873	1.001967
H185	H	0.689186	0.290541	0.601521
H186	H	1.189186	0.790541	1.101521
H187	H	0.776462	0.277541	0.687398
H188	H	1.276462	0.777541	1.187398
O189	O	0.047611	-0.036826	0.000006
O190	O	0.547611	0.463174	0.500006
C191	C	0.102883	-0.092285	-0.000022
C192	C	0.602883	0.407715	0.499978
H193	H	0.152295	-0.072868	0.043249
H194	H	0.652295	0.427132	0.543249
H195	H	0.087798	-0.137101	0.066348
H196	H	0.587798	0.362899	0.566348
H197	H	0.113249	-0.111732	-0.109680
H198	H	0.613249	0.388268	0.390320
H199	H	0.910897	0.006665	0.630462
H200	H	1.410897	0.506665	1.130462
O201	O	0.491624	-0.030271	0.000047
O202	O	0.991624	0.469729	0.500047
C203	C	0.546898	-0.085729	0.000028
C204	C	1.046898	0.414271	0.500028
H205	H	0.596308	-0.066310	0.043301
H206	H	1.096308	0.433690	0.543301
H207	H	0.531812	-0.130544	0.066400
H208	H	1.031812	0.369456	0.566400
H209	H	0.557267	-0.105178	-0.109629
H210	H	1.057267	0.394822	0.390371
O211	O	0.954217	-0.129910	-0.000174
O212	O	1.454217	0.370090	0.499826
C213	C	0.958660	-0.088302	-0.118574
C214	C	1.458660	0.411698	0.381426
H215	H	0.903576	-0.069988	-0.158042
H216	H	1.403576	0.430012	0.341958
H217	H	0.986349	-0.040704	-0.091948
H218	H	1.486349	0.459296	0.408052
H219	H	0.989647	-0.120566	-0.201472
H220	H	1.489647	0.379434	0.298528
H221	H	0.910887	0.006664	0.369445
H222	H	1.410887	0.506664	0.869445
H223	H	0.020968	0.204211	-0.000063
H224	H	0.520968	0.704211	0.499937
