data_functionalizedCrystal
_audit_creation_method	'MofGen! by Chris Wilmer'
_symmetry_space_group_name_H-M	'P1'
_symmetry_Int_Tables_number	1
_symmetry_cell_setting	triclinic
loop_
_symmetry_equiv_pos_as_xyz
  x,y,z
_cell_length_a	18.215407
_cell_length_b	29.839131
_cell_length_c	18.215399
_cell_angle_alpha	89.961473
_cell_angle_beta	89.983101
_cell_angle_gamma	90.032688
loop_
_atom_site_label
_atom_site_type_symbol
_atom_site_fract_x
_atom_site_fract_y
_atom_site_fract_z
Zn1	Zn	1.125019	-0.178888	-0.416004
Zn2	Zn	1.124905	-0.254018	-0.292915
Zn3	Zn	1.001952	-0.178899	-0.292958
Zn4	Zn	1.001895	-0.253989	-0.415946
O5	O	1.063443	-0.216449	-0.354456
O6	O	1.227988	-0.188862	-0.399682
O7	O	1.108571	-0.244070	-0.189936
O8	O	1.018348	-0.116031	-0.309322
O9	O	1.227905	-0.244059	-0.309249
O10	O	1.108765	-0.116023	-0.399724
O11	O	1.018238	-0.188880	-0.189968
O12	O	0.898960	-0.188852	-0.309266
O13	O	1.018252	-0.244010	-0.518938
O14	O	0.898918	-0.244020	-0.399625
O15	O	1.108710	-0.188834	-0.518981
O16	O	1.108516	-0.316881	-0.309193
O17	O	1.018142	-0.316860	-0.399584
C18	C	0.872236	-0.216435	-0.354445
C19	C	0.790438	-0.216440	-0.354457
C20	C	0.525378	-0.245222	-0.401441
C21	C	0.602236	-0.245218	-0.401438
C22	C	0.602249	-0.187685	-0.307483
C23	C	0.525392	-0.187692	-0.307484
C24	C	0.486958	-0.216459	-0.354467
C25	C	0.640674	-0.216449	-0.354463
C26	C	0.724008	-0.216445	-0.354459
C27	C	0.403619	-0.216464	-0.354470
C28	C	1.063330	-0.333171	-0.354394
C29	C	1.063350	-0.383106	-0.354392
C30	C	1.110513	-0.692710	-0.401595
C31	C	1.110593	-0.880383	-0.401639
O32	O	1.150582	-0.904615	-0.441727
N33	N	1.063568	-0.903891	-0.354537
C34	C	1.016516	-0.880477	-0.307425
O35	O	0.976515	-0.904778	-0.267368
C36	C	1.016433	-0.692805	-0.307385
C37	C	1.063466	-0.669300	-0.354484
C38	C	1.157541	-0.669205	-0.448691
C39	C	1.157524	-0.622289	-0.448677
C40	C	1.110477	-0.598879	-0.401566
C41	C	1.063449	-0.622384	-0.354470
C42	C	0.969378	-0.669392	-0.260276
C43	C	0.969360	-0.622471	-0.260272
C44	C	1.016394	-0.598966	-0.307371
C45	C	1.016385	-0.552059	-0.307345
N46	N	1.063410	-0.528551	-0.354447
C47	C	1.110456	-0.551961	-0.401557
C48	C	1.016564	-0.979008	-0.307448
C49	C	1.016586	-1.025926	-0.307457
C50	C	1.110661	-1.025828	-0.401673
C51	C	1.110643	-0.978909	-0.401659
C52	C	1.063589	-0.955500	-0.354550
C53	C	1.110416	-0.453435	-0.401523
C54	C	1.110396	-0.406516	-0.401503
C55	C	1.016318	-0.406617	-0.307290
C56	C	1.016340	-0.453533	-0.307308
C57	C	1.063391	-0.476941	-0.354430
O58	O	0.976410	-0.527798	-0.267284
O59	O	1.150439	-0.527652	-0.441619
C60	C	1.110530	-0.739625	-0.401609
C61	C	1.063502	-0.763131	-0.354513
C62	C	1.016455	-0.739720	-0.307402
C63	C	1.063523	-0.810048	-0.354522
C64	C	1.110569	-0.833459	-0.401633
C65	C	1.157594	-0.809951	-0.448734
C66	C	1.157577	-0.763036	-0.448720
C67	C	0.969430	-0.763228	-0.260301
C68	C	0.969452	-0.810144	-0.260318
C69	C	1.016499	-0.833554	-0.307429
C70	C	1.255396	-0.216463	-0.354468
C71	C	1.337194	-0.216469	-0.354473
C72	C	1.063488	-0.216418	-0.546409
C73	C	1.063507	-0.216404	-0.628208
C74	C	1.063575	-0.099270	-0.354534
C75	C	1.063632	-0.049336	-0.354568
C76	C	1.110625	-0.187647	-0.816425
C77	C	1.110634	-0.187634	-0.893284
C78	C	1.016440	-0.245092	-0.893228
C79	C	1.016428	-0.245102	-0.816371
C80	C	1.063525	-0.216381	-0.777971
C81	C	1.063546	-0.216357	-0.931688
C82	C	1.063555	-0.216343	-1.015021
C83	C	1.063515	-0.216394	-0.694632
C84	C	1.063440	-0.216447	-0.163250
C85	C	1.063564	-0.216334	-0.081451
H86	H	0.633551	-0.164263	-0.269232
Br87	Br	1.174564	-0.148640	-0.945469
H88	H	0.978016	-0.387549	-0.268931
H89	H	1.148973	-0.164259	-0.785162
H90	H	0.978097	-0.268477	-0.924503
Br91	Br	0.952495	-0.284097	-0.764179
Br92	Br	1.221411	-0.731143	-0.512644
Br93	Br	0.473220	-0.284264	-0.465202
H94	H	0.494110	-0.164269	-0.269228
Br95	Br	0.654375	-0.284257	-0.465188
H96	H	1.148699	-0.387379	-0.439857
H97	H	0.931118	-0.744171	-0.221938
Br98	Br	1.174273	-0.485196	-0.465475
Br99	Br	1.221446	-0.841731	-0.512666
H100	H	1.195820	-0.603154	-0.487032
Br101	Br	1.174476	-0.947014	-0.465582
Br102	Br	1.174510	-1.057608	-0.465608
Br103	Br	0.952765	-1.057820	-0.243521
H104	H	0.931153	-0.829277	-0.221957
Br105	Br	0.952695	-0.947245	-0.243511
Br106	Br	0.905542	-0.701280	-0.196353
H107	H	1.195852	-0.688260	-0.487059
H108	H	0.931041	-0.603414	-0.221910
H109	H	0.978048	-0.472672	-0.268949
