data_functionalizedCrystal
_audit_creation_method	'MofGen! by Chris Wilmer'
_symmetry_space_group_name_H-M	'P1'
_symmetry_Int_Tables_number	1
_symmetry_cell_setting	triclinic
loop_
_symmetry_equiv_pos_as_xyz
  x,y,z
_cell_length_a	10.654550
_cell_length_b	9.130313
_cell_length_c	10.654551
_cell_angle_alpha	89.998448
_cell_angle_beta	84.485132
_cell_angle_gamma	90.003780
loop_
_atom_site_label
_atom_site_type_symbol
_atom_site_fract_x
_atom_site_fract_y
_atom_site_fract_z
O1	O	1.667835	0.121910	0.176393
O2	O	1.302356	0.121885	0.193199
O3	O	1.493498	0.121899	0.002057
O4	O	1.476693	0.121896	0.367535
O5	O	1.493496	-0.121700	0.002062
O6	O	1.302354	-0.121713	0.193204
O7	O	1.667832	-0.121689	0.176398
Cu8	Cu	1.485093	-0.143944	0.184802
Cu9	Cu	1.485096	0.144140	0.184796
O10	O	1.476691	-0.121703	0.367540
C11	C	1.255557	0.000083	0.191968
C12	C	1.116114	0.000074	0.188276
C13	C	1.036629	0.000095	0.300817
C14	C	0.905608	0.000120	0.297341
C15	C	0.933570	0.000110	0.068771
C16	C	1.064589	0.000074	0.072249
C17	C	1.020484	0.000106	0.432780
C18	C	0.889463	0.000132	0.429304
N19	N	1.485100	-0.346566	0.184805
C20	C	1.569760	-0.423212	0.100196
C21	C	1.569756	-0.576549	0.100181
C22	C	1.400430	-0.576581	0.269395
C23	C	1.400428	-0.423246	0.269403
C24	C	1.654431	-0.346532	0.015599
C25	C	1.739099	-0.423178	-0.069016
C26	C	1.739095	-0.576515	-0.069031
C27	C	1.654425	-0.653206	0.015569
C28	C	1.714632	0.000117	0.177629
C29	C	1.854075	0.000135	0.181321
C30	C	1.492263	0.000103	-0.044739
C31	C	1.488570	0.000112	-0.184182
N32	N	1.485098	0.346763	0.184782
C33	C	1.486839	0.132895	-0.249696
C34	C	1.483359	0.132888	-0.380717
C35	C	1.483346	-0.132696	-0.380697
C36	C	1.486817	-0.132688	-0.249678
C37	C	1.486852	0.286229	-0.249710
C38	C	1.483372	0.286222	-0.380730
C39	C	1.477926	0.000097	0.414336
C40	C	1.481619	0.000097	0.553779
H41	H	1.129302	0.000037	-0.019393
H42	H	0.847731	0.102085	0.479023
Cl43	Cl	1.352862	0.377122	-0.178248
H44	H	1.570163	0.345101	-0.427023
H45	H	0.843791	-0.105037	0.469187
H46	H	1.488220	-0.240813	-0.196340
Cl47	Cl	1.293999	-0.672991	0.375745
Cl48	Cl	1.293992	-0.326889	0.375768
Cl49	Cl	1.845521	-0.672869	-0.175410
H50	H	0.891602	0.000133	-0.025694
H51	H	1.481917	-0.240818	-0.434039
H52	H	1.056140	0.105278	0.474797
H53	H	1.578452	0.333810	-0.220145
H54	H	1.808028	-0.360729	-0.137901
Cl55	Cl	1.065777	-0.157290	0.512469
Cl56	Cl	1.654445	-0.153767	0.015618
Cl57	Cl	1.654416	-0.845974	0.015533
H58	H	1.391776	0.333807	-0.410299
