data_functionalizedCrystal
_audit_creation_method	'MofGen! by Chris Wilmer'
_symmetry_space_group_name_H-M	'P1'
_symmetry_Int_Tables_number	1
_symmetry_cell_setting	triclinic
loop_
_symmetry_equiv_pos_as_xyz
  x,y,z
_cell_length_a	23.096457
_cell_length_b	17.917559
_cell_length_c	23.096457
_cell_angle_alpha	57.021707
_cell_angle_beta	90.011236
_cell_angle_gamma	63.038025
loop_
_atom_site_label
_atom_site_type_symbol
_atom_site_fract_x
_atom_site_fract_y
_atom_site_fract_z
Zr1	Zr	0.586746	0.818498	-0.104812
O2	O	0.499799	0.974508	-0.202753
O3	O	0.609569	0.662492	-0.070979
O4	O	0.615065	0.818499	-0.197263
O5	O	0.494325	0.818498	0.018813
O6	O	0.710347	0.818497	-0.197265
O7	O	0.494303	0.818501	-0.076469
O8	O	0.700515	0.539427	0.028634
O9	O	0.504157	1.097567	-0.207086
O10	O	0.695039	0.726656	-0.061153
O11	O	0.623948	0.726657	0.009956
O12	O	0.630419	0.910336	-0.138726
O13	O	0.559328	0.910336	-0.067617
Zr14	Zr	0.738746	0.818490	0.047149
Zr15	Zr	0.738710	0.818494	-0.104815
Zr16	Zr	0.586782	0.818495	0.047152
Zr17	Zr	0.593697	1.014764	-0.111722
Zr18	Zr	0.731795	0.622225	0.054059
O19	O	0.715924	0.974497	0.013316
O20	O	0.715872	0.974501	-0.202758
O21	O	0.499850	0.974503	0.013320
O22	O	0.825693	0.662481	0.145090
O23	O	0.825642	0.662485	-0.070983
O24	O	0.609620	0.662487	0.145094
O25	O	0.831167	0.818490	-0.076476
O26	O	0.710427	0.818489	0.139599
O27	O	0.615145	0.818492	0.139601
O28	O	0.831190	0.818488	0.018806
O29	O	0.624949	1.097564	-0.207088
O30	O	0.700544	0.539425	0.149425
O31	O	0.821335	0.539421	0.149422
O32	O	0.821306	0.539424	0.028631
O33	O	0.504186	1.097565	-0.086295
O34	O	0.624977	1.097561	-0.086297
O35	O	0.695073	0.726653	0.081063
O36	O	0.766164	0.726652	0.009954
O37	O	0.701544	0.910332	-0.067620
O38	O	0.630453	0.910332	0.003489
C39	C	0.654051	0.572996	-0.020188
C40	C	0.651101	0.489676	-0.017254
C41	C	0.679731	0.299925	-0.045813
C42	C	0.645763	0.337069	-0.011852
C43	C	0.648734	0.421987	-0.014859
C44	C	0.676761	0.214998	-0.042807
C45	C	0.472662	0.818500	-0.028828
C46	C	0.408149	0.818502	-0.028827
C47	C	0.377834	0.818511	-0.081322
C48	C	0.317222	0.818501	-0.081322
C49	C	0.286919	0.818504	-0.028832
C50	C	0.317243	0.818489	0.023673
C51	C	0.377859	0.818488	0.023676
N52	N	0.170691	0.878375	-0.015049
N53	N	0.113108	0.878378	-0.015056
C54	C	0.104290	0.818505	-0.028835
N55	N	0.155224	0.758641	-0.042622
N56	N	0.212811	0.758643	-0.042619
C57	C	0.221192	0.818504	-0.028828
C58	C	0.008252	0.818502	-0.081333
C59	C	-0.052359	0.818486	-0.081328
C60	C	-0.052340	0.818484	0.023664
C61	C	0.008274	0.818490	0.023661
C62	C	0.038565	0.818503	-0.028841
C63	C	0.852830	0.818488	-0.028836
C64	C	0.917343	0.818486	-0.028837
C65	C	0.662701	0.818498	-0.218915
C66	C	0.662686	0.818500	-0.283428
C67	C	0.671441	1.063993	-0.037475
C68	C	0.674392	1.147312	-0.040409
C69	C	0.628958	0.914376	-0.354224
C70	C	0.628977	0.914377	-0.414841
C71	C	0.662712	0.818497	-0.404657
C72	C	0.696447	0.722609	-0.333848
C73	C	0.696434	0.722610	-0.273234
N74	N	0.655062	0.747130	-0.469699
N75	N	0.655071	0.747135	-0.527283
C76	C	0.662756	0.818488	-0.587282
N77	N	0.670417	0.889851	-0.587528
N78	N	0.670405	0.889849	-0.529940
C79	C	0.662731	0.818485	-0.470378
C80	C	0.629046	0.914372	-0.723808
C81	C	0.629069	0.914370	-0.784424
C82	C	0.696535	0.722598	-0.703429
C83	C	0.696517	0.722604	-0.642815
C84	C	0.662769	0.818493	-0.653010
C85	C	0.662791	0.818490	0.161252
C86	C	0.662806	0.818489	0.225765
C87	C	0.844135	0.572990	-0.020192
C88	C	0.905697	0.489668	-0.017260
C89	C	0.654097	0.572992	0.169896
C90	C	0.651161	0.489671	0.237342
C91	C	0.844180	0.572986	0.169892
C92	C	0.905758	0.489663	0.237337
C93	C	0.481312	1.064003	-0.227555
C94	C	0.419735	1.147326	-0.295000
C95	C	0.481357	1.063998	-0.037472
C96	C	0.419795	1.147320	-0.040404
C97	C	0.671396	1.063997	-0.227559
C98	C	0.674331	1.147318	-0.295005
C99	C	0.897481	0.450541	-0.053006
C100	C	0.955319	0.372263	-0.050265
C101	C	1.021374	0.333107	-0.011774
C102	C	1.029589	0.372241	0.023973
C103	C	0.971751	0.450524	0.021228
C104	C	0.686909	0.450540	0.306139
C105	C	0.684148	0.372262	0.369517
C106	C	0.645643	0.333110	0.364097
C107	C	0.609891	0.372248	0.295293
C108	C	0.612648	0.450531	0.231916
C109	C	0.971790	0.450533	0.231891
C110	C	1.029655	0.372253	0.295257
C111	C	1.021485	0.333099	0.364067
C112	C	0.955446	0.372236	0.369511
C113	C	0.897583	0.450520	0.306146
C114	C	0.353702	1.186465	-0.289555
C115	C	0.295839	1.264770	-0.352921
C116	C	0.304009	1.303928	-0.421732
C117	C	0.370048	1.264785	-0.427176
C118	C	0.427910	1.186488	-0.363810
C119	C	0.428012	1.186455	-0.004664
C120	C	0.370174	1.264756	-0.007423
C121	C	0.304120	1.303914	-0.045916
C122	C	0.295905	1.264776	-0.081660
C123	C	0.353742	1.186482	-0.078906
C124	C	0.712843	1.186445	-0.289562
C125	C	0.715614	1.264724	-0.352929
C126	C	0.679870	1.303879	-0.421738
C127	C	0.641358	1.264745	-0.427180
C128	C	0.638590	1.186462	-0.363814
H129	H	0.614447	0.305098	0.019477
H130	H	0.718264	0.482409	0.310565
H131	H	0.292569	0.818489	0.066412
H132	H	-0.077010	0.818480	0.066404
H133	H	0.578541	0.340360	0.290891
Br134	Br	1.119239	0.319087	0.076212
Br135	Br	0.731914	0.353222	-0.098039
H136	H	0.713265	0.340405	0.425534
Br137	Br	0.982897	0.503659	0.138514
Br138	Br	0.761359	1.133323	-0.196186
H139	H	0.376692	1.296678	-0.483209
H140	H	0.402497	0.818519	-0.124071
Br141	Br	0.276073	0.818511	-0.152570
Br142	Br	0.419005	0.818475	0.094925
Br143	Br	0.517649	1.133332	0.047580
Br144	Br	0.586314	1.133379	-0.371215
Br145	Br	0.641909	0.226869	0.450117
Br146	Br	0.742207	0.592482	-0.177146
H147	H	0.843702	0.482421	-0.084359
H148	H	0.032918	0.818508	-0.124082
H149	H	0.682129	1.367623	-0.473329
H150	H	1.068606	0.269355	0.415657
H151	H	0.612257	1.296638	-0.483213
Br152	Br	0.944154	0.319166	-0.098781
H153	H	-0.077040	0.818486	-0.124074
H154	H	0.481675	1.154621	-0.368252
Br155	Br	0.742237	0.592485	-0.320024
H156	H	0.583540	0.482380	0.175901
Br157	Br	0.381339	1.317853	0.041093
Br158	Br	0.049419	0.818483	0.094906
Br159	Br	0.944370	0.319087	0.462903
H160	H	0.978451	0.482371	0.050342
Br161	Br	0.742278	0.592479	-0.546729
Br162	Br	0.807969	0.503611	0.313550
H163	H	0.257031	1.367666	-0.048153
H164	H	0.242116	1.296671	-0.113001
H165	H	0.347042	1.154621	-0.108008
H166	H	0.601481	0.992457	-0.362531
H167	H	1.083422	0.340395	0.290811
Br168	Br	0.583203	1.044504	-0.510934
Br169	Br	0.767881	1.317822	-0.345526
H170	H	0.347037	1.154587	-0.233532
Br171	Br	0.583264	1.044504	-0.737638
Br172	Br	0.206223	1.317873	-0.345516
Br173	Br	0.225473	1.410191	-0.507722
H174	H	0.601607	0.992446	-0.842071
H175	H	0.724005	0.644531	-0.695136
Br176	Br	1.099861	0.226864	-0.008055
