data_functionalizedCrystal
_audit_creation_method	'MofGen! by Chris Wilmer'
_symmetry_space_group_name_H-M	'P1'
_symmetry_Int_Tables_number	1
_symmetry_cell_setting	triclinic
loop_
_symmetry_equiv_pos_as_xyz
  x,y,z
_cell_length_a	18.215407
_cell_length_b	18.101395
_cell_length_c	18.215399
_cell_angle_alpha	89.973154
_cell_angle_beta	89.980650
_cell_angle_gamma	90.031552
loop_
_atom_site_label
_atom_site_type_symbol
_atom_site_fract_x
_atom_site_fract_y
_atom_site_fract_z
Zn1	Zn	1.125037	-0.294825	-0.416124
Zn2	Zn	1.625037	0.205175	0.083876
Zn3	Zn	1.124933	-0.418673	-0.293061
Zn4	Zn	1.624933	0.081327	0.206939
Zn5	Zn	1.001970	-0.294850	-0.293071
Zn6	Zn	1.501970	0.205150	0.206929
Zn7	Zn	1.001922	-0.418630	-0.416086
Zn8	Zn	1.501922	0.081370	0.083914
O9	O	1.063465	-0.356745	-0.354585
O10	O	1.563465	0.143255	0.145415
O11	O	1.228007	-0.311261	-0.399811
O12	O	1.728007	0.188739	0.100189
O13	O	1.108598	-0.402275	-0.190078
O14	O	1.608598	0.097725	0.309922
O15	O	1.018359	-0.191214	-0.309415
O16	O	1.518359	0.308786	0.190585
O17	O	1.227931	-0.402251	-0.309397
O18	O	1.727931	0.097749	0.190603
O19	O	1.108775	-0.191196	-0.399821
O20	O	1.608775	0.308804	0.100179
O21	O	1.018258	-0.311304	-0.190085
O22	O	1.518258	0.188696	0.309915
O23	O	0.898980	-0.311263	-0.309378
O24	O	1.398980	0.188737	0.190622
O25	O	1.018276	-0.402179	-0.519075
O26	O	1.518276	0.097821	-0.019075
O27	O	0.898944	-0.402204	-0.399756
O28	O	1.398944	0.097796	0.100244
O29	O	1.108728	-0.311220	-0.519103
O30	O	1.608728	0.188780	-0.019103
O31	O	1.108551	-0.522300	-0.309360
O32	O	1.608551	-0.022300	0.190640
O33	O	1.018176	-0.522269	-0.399746
O34	O	1.518176	-0.022269	0.100254
C35	C	0.872259	-0.356732	-0.354564
C36	C	1.372259	0.143268	0.145436
C37	C	0.790460	-0.356744	-0.354572
C38	C	1.290460	0.143256	0.145428
C39	C	0.602267	-0.404172	-0.401573
C40	C	1.102267	0.095828	0.098427
C41	C	0.525408	-0.404174	-0.401583
C42	C	1.025408	0.095826	0.098417
C43	C	0.525416	-0.309331	-0.307613
C44	C	1.025416	0.190669	0.192387
C45	C	0.602273	-0.309326	-0.307608
C46	C	1.102273	0.190674	0.192392
C47	C	0.640697	-0.356750	-0.354587
C48	C	1.140697	0.143250	0.145413
C49	C	0.486981	-0.356758	-0.354601
C50	C	0.986981	0.143242	0.145399
C51	C	0.403647	-0.356760	-0.354611
C52	C	0.903647	0.143240	0.145389
C53	C	0.724036	-0.356747	-0.354579
C54	C	1.224036	0.143253	0.145421
C55	C	1.063367	-0.549155	-0.354564
C56	C	1.563367	-0.049155	0.145436
C57	C	1.063392	-0.631469	-0.354579
C58	C	1.563392	-0.131469	0.145421
C59	C	1.063554	-0.930560	-0.354619
C60	C	1.563554	-0.430560	0.145381
C61	C	1.006824	-0.899246	-0.411628
C62	C	1.506824	-0.399246	0.088372
C63	C	1.006554	-0.813629	-0.411450
C64	C	1.506554	-0.313629	0.088550
C65	C	1.063473	-0.782178	-0.354600
C66	C	1.563473	-0.282178	0.145400
C67	C	1.042476	-0.813329	-0.277038
C68	C	1.542476	-0.313329	0.222962
C69	C	1.042111	-0.898974	-0.277380
C70	C	1.542111	-0.398974	0.222620
C71	C	1.141405	-0.898904	-0.374487
C72	C	1.641405	-0.398904	0.125513
C73	C	1.140947	-0.813252	-0.376188
C74	C	1.640947	-0.313252	0.123812
C75	C	1.063429	-0.698318	-0.354584
C76	C	1.563429	-0.198318	0.145416
C77	C	1.063596	-1.014420	-0.354629
C78	C	1.563596	-0.514420	0.145371
C79	C	1.255418	-0.356758	-0.354607
C80	C	1.755418	0.143242	0.145393
C81	C	1.337217	-0.356764	-0.354616
C82	C	1.837217	0.143236	0.145384
C83	C	1.063509	-0.356692	-0.546538
C84	C	1.563509	0.143308	-0.046538
C85	C	1.063527	-0.356670	-0.628337
C86	C	1.563527	0.143330	-0.128337
C87	C	1.063584	-0.163583	-0.354623
C88	C	1.563584	0.336417	0.145377
C89	C	1.063635	-0.081269	-0.354639
C90	C	1.563635	0.418731	0.145361
C91	C	1.110653	-0.309244	-0.893411
C92	C	1.610653	0.190756	-0.393411
C93	C	1.110644	-0.309264	-0.816552
C94	C	1.610644	0.190736	-0.316552
C95	C	1.016461	-0.403989	-0.816512
C96	C	1.516461	0.096011	-0.316512
C97	C	1.016474	-0.403972	-0.893370
C98	C	1.516474	0.096028	-0.393370
C99	C	1.063569	-0.356595	-0.931817
C100	C	1.563569	0.143405	-0.431817
C101	C	1.063547	-0.356632	-0.778101
C102	C	1.563547	0.143368	-0.278101
C103	C	1.063537	-0.356654	-0.694767
C104	C	1.563537	0.143346	-0.194767
C105	C	1.063580	-0.356574	-1.015156
C106	C	1.563580	0.143426	-0.515156
C107	C	1.063465	-0.356744	-0.163379
C108	C	1.563465	0.143256	0.336621
C109	C	1.063589	-0.356557	-0.081580
C110	C	1.563589	0.143443	0.418420
H111	H	1.019691	-0.792565	-0.468960
H112	H	1.519691	-0.292565	0.031040
H113	H	1.148985	-0.270706	-0.785285
H114	H	1.648985	0.229294	-0.285285
H115	H	0.494122	-0.442788	-0.439845
H116	H	0.994122	0.057212	0.060155
C117	C	1.095501	-0.926963	-0.218033
C118	C	1.595501	-0.426963	0.281967
N119	N	1.135710	-0.948042	-0.173329
N120	N	1.635710	-0.448042	0.326671
C121	C	0.483143	-0.257171	-0.255935
C122	C	0.983143	0.242829	0.244065
N123	N	0.451303	-0.217884	-0.217008
N124	N	0.951303	0.282116	0.282992
H125	H	0.633563	-0.270705	-0.269346
H126	H	1.133563	0.229295	0.230654
H127	H	1.183671	-0.919153	-0.332965
H128	H	1.683671	-0.419153	0.167035
C129	C	1.162357	-0.785712	-0.453286
C130	C	1.662357	-0.285712	0.046714
N131	N	1.178487	-0.764955	-0.511352
N132	N	1.678487	-0.264955	-0.011352
H133	H	0.986170	-0.791944	-0.259906
H134	H	1.486170	-0.291944	0.240094
C135	C	1.024389	-0.927012	-0.489575
C136	C	1.524389	-0.427012	0.010425
N137	N	1.037619	-0.947931	-0.548287
N138	N	1.537619	-0.447931	-0.048287
H139	H	0.949469	-0.920833	-0.398633
H140	H	1.449469	-0.420833	0.101367
H141	H	1.149000	-0.270666	-0.924712
H142	H	1.649000	0.229334	-0.424712
H143	H	0.948849	-0.793206	-0.398289
H144	H	1.448849	-0.293206	0.101711
C145	C	0.965228	-0.926053	-0.254647
C146	C	1.465228	-0.426053	0.245353
N147	N	0.907316	-0.946446	-0.237527
N148	N	1.407316	-0.446446	0.262473
C149	C	0.964674	-0.456064	-0.935619
C150	C	1.464674	0.043936	-0.435619
N151	N	0.925661	-0.495299	-0.967441
N152	N	1.425661	0.004701	-0.467441
C153	C	0.964653	-0.456093	-0.774213
C154	C	1.464653	0.043907	-0.274213
N155	N	0.925627	-0.495337	-0.742354
N156	N	1.425627	0.004663	-0.242354
H157	H	0.633549	-0.442786	-0.439829
H158	H	1.133549	0.057214	0.060171
H159	H	1.082496	-0.792958	-0.233404
H160	H	1.582496	-0.292958	0.266596
H161	H	1.160548	-0.920452	-0.430081
H162	H	1.660548	-0.420452	0.069919
C163	C	1.201070	-0.784327	-0.324180
C164	C	1.701070	-0.284327	0.175820
N165	N	1.246353	-0.762543	-0.285000
N166	N	1.746353	-0.262543	0.215000
