data_functionalizedCrystal
_audit_creation_method	'MofGen! by Chris Wilmer'
_symmetry_space_group_name_H-M	'P1'
_symmetry_Int_Tables_number	1
_symmetry_cell_setting	triclinic
loop_
_symmetry_equiv_pos_as_xyz
  x,y,z
_cell_length_a	14.044191
_cell_length_b	14.044190
_cell_length_c	9.730223
_cell_angle_alpha	90.009282
_cell_angle_beta	90.000838
_cell_angle_gamma	93.191777
loop_
_atom_site_label
_atom_site_type_symbol
_atom_site_fract_x
_atom_site_fract_y
_atom_site_fract_z
O1	O	1.277177	0.230200	0.114252
O2	O	1.777177	0.730200	0.614252
O3	O	1.000504	0.221888	0.114268
O4	O	1.500504	0.721888	0.614268
O5	O	1.134684	0.087708	0.114233
O6	O	1.634684	0.587708	0.614233
O7	O	1.142997	0.364380	0.114287
O8	O	1.642997	0.864380	0.614287
O9	O	1.134674	0.087703	-0.114347
O10	O	1.634674	0.587703	0.385653
O11	O	1.000494	0.221883	-0.114312
O12	O	1.500494	0.721883	0.385688
O13	O	1.277167	0.230196	-0.114328
O14	O	1.777167	0.730196	0.385672
Zn15	Zn	1.138829	0.226038	-0.150612
Zn16	Zn	1.638829	0.726038	0.349388
Zn17	Zn	1.138842	0.226045	0.150552
Zn18	Zn	1.638842	0.726045	0.650552
O19	O	1.142987	0.364376	-0.114293
O20	O	1.642987	0.864376	0.385707
C21	C	0.964877	0.218249	-0.000020
C22	C	1.464877	0.718249	0.499980
C23	C	0.858734	0.207401	-0.000015
C24	C	1.358734	0.707401	0.499985
C25	C	0.613277	0.264502	-0.000018
C26	C	1.113277	0.764502	0.499982
C27	C	0.664400	0.187585	-0.000030
C28	C	1.164400	0.687585	0.499970
C29	C	0.772537	0.198614	-0.000022
C30	C	1.272537	0.698614	0.499978
C31	C	0.505130	0.253475	-0.000026
C32	C	1.005130	0.753475	0.499974
C33	C	1.131043	0.052083	-0.000060
C34	C	1.631043	0.552083	0.499940
C35	C	1.120195	-0.054060	-0.000072
C36	C	1.620195	0.445940	0.499928
C37	C	1.177296	-0.299517	-0.000021
C38	C	1.677296	0.200483	0.499979
C39	C	1.100379	-0.248394	-0.000026
C40	C	1.600379	0.251606	0.499974
C41	C	1.111408	-0.140257	-0.000052
C42	C	1.611408	0.359743	0.499948
C43	C	1.166269	-0.407664	0.000004
C44	C	1.666269	0.092336	0.500004
C45	C	1.312794	0.233834	-0.000037
C46	C	1.812794	0.733834	0.499963
C47	C	1.418937	0.244682	-0.000033
C48	C	1.918937	0.744682	0.499967
C49	C	1.146628	0.400000	0.000004
C50	C	1.646628	0.900000	0.500004
C51	C	1.157476	0.506143	0.000024
C52	C	1.657476	1.006143	0.500024
N53	N	1.138827	0.226034	-0.356148
N54	N	1.638827	0.726034	0.143852
C55	C	1.198266	0.166648	-0.428090
C56	C	1.698266	0.666648	0.071910
C57	C	1.198276	0.166649	-0.571973
C58	C	1.698276	0.666649	-0.071973
C59	C	1.079405	0.285430	-0.571960
C60	C	1.579405	0.785430	-0.071960
C61	C	1.079391	0.285424	-0.428080
C62	C	1.579391	0.785424	0.071920
N63	N	1.138851	0.226042	0.356089
N64	N	1.638851	0.726042	0.856089
H65	H	0.650720	0.338629	0.000001
H66	H	1.150720	0.838629	0.500001
H67	H	1.030984	0.333783	-0.369501
H68	H	1.530984	0.833783	0.130499
H69	H	1.026247	-0.285839	-0.000014
H70	H	1.526247	0.214161	0.499986
O71	O	1.265662	-0.254703	-0.000111
O72	O	1.765662	0.245297	0.499889
C73	C	1.257137	-0.155146	-0.000101
C74	C	1.757137	0.344854	0.499899
H75	H	1.184567	-0.138204	-0.043362
H76	H	1.684567	0.361796	0.456638
H77	H	1.315877	-0.119732	-0.066489
H78	H	1.815877	0.380268	0.433511
H79	H	1.264076	-0.126998	0.109551
H80	H	1.764076	0.373002	0.609551
O81	O	1.256022	0.108865	-0.358427
O82	O	1.756022	0.608865	0.141573
C83	C	1.308502	0.056466	-0.452786
C84	C	1.808502	0.556466	0.047214
H85	H	1.269277	0.052061	-0.555358
H86	H	1.769277	0.552061	-0.055358
H87	H	1.316618	-0.018541	-0.411238
H88	H	1.816618	0.481459	0.088762
H89	H	1.382045	0.093506	-0.468061
H90	H	1.882045	0.593506	0.031939
O91	O	1.255878	0.108859	-0.641917
O92	O	1.755878	0.608859	-0.141917
C93	C	1.199784	0.045617	-0.725196
C94	C	1.699784	0.545617	-0.225196
H95	H	1.124353	0.037588	-0.681854
H96	H	1.624353	0.537588	-0.181854
H97	H	1.232327	-0.026948	-0.726840
H98	H	1.732327	0.473052	-0.226840
H99	H	1.197314	0.075072	-0.834234
H100	H	1.697314	0.575072	-0.334234
O101	O	1.021767	0.343097	-0.642050
O102	O	1.521767	0.843097	-0.142050
C103	C	1.034509	0.330355	-0.784470
C104	C	1.534509	0.830355	-0.284470
H105	H	1.107398	0.301138	-0.804114
H106	H	1.607398	0.801138	-0.304114
H107	H	1.030004	0.401755	-0.839128
H108	H	1.530004	0.901755	-0.339128
H109	H	0.976428	0.277871	-0.825334
H110	H	1.476428	0.777871	-0.325334
H111	H	0.626955	0.113453	0.000052
H112	H	1.126955	0.613453	0.500052
