data_functionalizedCrystal
_audit_creation_method	'MofGen! by Chris Wilmer'
_symmetry_space_group_name_H-M	'P1'
_symmetry_Int_Tables_number	1
_symmetry_cell_setting	triclinic
loop_
_symmetry_equiv_pos_as_xyz
  x,y,z
_cell_length_a	14.519731
_cell_length_b	14.519709
_cell_length_c	9.482900
_cell_angle_alpha	99.350820
_cell_angle_beta	80.692239
_cell_angle_gamma	83.684499
loop_
_atom_site_label
_atom_site_type_symbol
_atom_site_fract_x
_atom_site_fract_y
_atom_site_fract_z
O1	O	1.238206	0.106569	-0.120901
O2	O	1.571539	0.439902	0.212432
O3	O	1.904873	0.773236	0.545766
O4	O	0.969732	0.120785	-0.120904
O5	O	1.303065	0.454118	0.212430
O6	O	1.636399	0.787451	0.545763
O7	O	1.111086	-0.020559	-0.120889
O8	O	1.444419	0.312774	0.212444
O9	O	1.777752	0.646107	0.545778
O10	O	1.096852	0.247913	-0.120915
O11	O	1.430186	0.581247	0.212418
O12	O	1.763519	0.914580	0.545751
O13	O	1.082374	0.008266	0.120900
O14	O	1.415707	0.341599	0.454234
O15	O	1.749040	0.674933	0.787567
O16	O	0.941020	0.149610	0.120886
O17	O	1.274353	0.482944	0.454219
O18	O	1.607687	0.816277	0.787553
O19	O	1.209494	0.135395	0.120889
O20	O	1.542827	0.468728	0.454222
O21	O	1.876161	0.802061	0.787555
Cu22	Cu	1.072635	0.145135	0.142965
Cu23	Cu	1.405969	0.478468	0.476298
Cu24	Cu	1.739302	0.811801	0.809631
Cu25	Cu	1.106591	0.111045	-0.142980
Cu26	Cu	1.439924	0.444378	0.190354
Cu27	Cu	1.773257	0.777712	0.523687
O28	O	1.068140	0.276739	0.120874
O29	O	1.401474	0.610072	0.454207
O30	O	1.734807	0.943406	0.787541
C31	C	0.921017	0.134531	-0.000009
C32	C	1.254350	0.467865	0.333324
C33	C	1.587683	0.801198	0.666658
C34	C	0.818637	0.132535	-0.000010
C35	C	1.151970	0.465869	0.333324
C36	C	1.485303	0.799202	0.666657
C37	C	0.735493	0.130913	-0.000015
C38	C	1.068826	0.464246	0.333318
C39	C	1.402160	0.797579	0.666651
C40	C	0.631184	0.128886	-0.000016
C41	C	0.964518	0.462219	0.333318
C42	C	1.297851	0.795553	0.666651
C43	C	0.548045	0.127278	-0.000015
C44	C	0.881379	0.460611	0.333318
C45	C	1.214712	0.793944	0.666651
C46	C	0.443730	0.125251	-0.000018
C47	C	0.777064	0.458584	0.333315
C48	C	1.110397	0.791918	0.666648
C49	C	1.096066	-0.040506	0.000006
C50	C	1.429399	0.292827	0.333339
C51	C	1.762733	0.626160	0.666673
C52	C	1.094078	-0.142888	0.000007
C53	C	1.427411	0.190446	0.333340
C54	C	1.760745	0.523779	0.666673
C55	C	1.086763	-0.517789	-0.000031
C56	C	1.420096	-0.184455	0.333302
C57	C	1.753430	0.148878	0.666635
C58	C	1.088794	-0.413479	-0.000020
C59	C	1.422128	-0.080146	0.333313
C60	C	1.755461	0.253187	0.666646
C61	C	1.090420	-0.330341	-0.000011
C62	C	1.423753	0.002992	0.333322
C63	C	1.757087	0.336325	0.666656
C64	C	1.092452	-0.226026	-0.000003
C65	C	1.425785	0.107308	0.333331
C66	C	1.759119	0.440641	0.666664
C67	C	1.258210	0.121648	-0.000009
C68	C	1.591543	0.454981	0.333324
C69	C	1.924876	0.788314	0.666657
C70	C	1.360591	0.123643	-0.000018
C71	C	1.693924	0.456976	0.333315
C72	C	2.027258	0.790309	0.666648
C73	C	1.083160	0.296685	-0.000024
C74	C	1.416494	0.630019	0.333309
C75	C	1.749827	0.963352	0.666643
C76	C	1.085150	0.399066	-0.000034
C77	C	1.418483	0.732399	0.333299
C78	C	1.751816	1.065732	0.666632
N79	N	1.048760	0.169111	0.344082
N80	N	1.382093	0.502444	0.677416
N81	N	1.715427	0.835777	1.010749
N82	N	1.130473	0.087061	-0.344097
N83	N	1.463807	0.420395	-0.010764
N84	N	1.797140	0.753728	0.322569
C85	C	1.099542	0.118112	0.416287
C86	C	1.432875	0.451445	0.749620
C87	C	1.766209	0.784779	1.082953
C88	C	1.079684	0.138068	0.583702
C89	C	1.413017	0.471401	0.917035
C90	C	1.746351	0.804734	1.250369
H91	H	1.021499	0.196504	0.645821
H92	H	1.354832	0.529837	0.979154
H93	H	1.688165	0.863171	1.312487
C94	C	1.158605	-0.047113	0.369045
C95	C	1.491938	0.286220	0.702378
C96	C	1.825271	0.619553	1.035712
C97	C	1.178086	0.039239	0.332395
C98	C	1.511419	0.372572	0.665728
C99	C	1.844753	0.705905	0.999062
H100	H	1.207095	-0.095802	0.317237
H101	H	1.540429	0.237531	0.650570
H102	H	1.873762	0.570865	0.983903
H103	H	1.155587	-0.044070	0.470531
H104	H	1.488920	0.289263	0.803864
H105	H	1.822253	0.622596	1.137197
H106	H	1.099925	-0.060037	0.344199
H107	H	1.433258	0.273296	0.677532
H108	H	1.766592	0.606630	1.010865
H109	H	1.236763	0.052166	0.357251
H110	H	1.570096	0.385499	0.690585
H111	H	1.903430	0.718832	1.023918
H112	H	1.181114	0.036197	0.230887
H113	H	1.514448	0.369530	0.564220
H114	H	1.847781	0.702863	0.897553
H115	H	1.188652	0.028618	0.593784
H116	H	1.521985	0.361952	0.927118
H117	H	1.855319	0.695285	1.260451
C118	C	0.965752	0.252501	0.577552
C119	C	1.299085	0.585834	0.910885
C120	C	1.632418	0.919167	1.244219
C121	C	0.970220	0.248001	0.427934
C122	C	1.303554	0.581334	0.761268
C123	C	1.636887	0.914668	1.094601
H124	H	0.917267	0.301210	0.629313
H125	H	1.250600	0.634543	0.962646
H126	H	1.583933	0.967876	1.295980
H127	H	0.952524	0.193932	0.602424
H128	H	1.285857	0.527265	0.935757
H129	H	1.619190	0.860599	1.269090
H130	H	1.024432	0.265429	0.602390
H131	H	1.357766	0.598762	0.935724
H132	H	1.691099	0.932095	1.269057
H133	H	0.911542	0.235066	0.403094
H134	H	1.244875	0.568399	0.736428
H135	H	1.578208	0.901733	1.069761
H136	H	0.983442	0.306583	0.403053
H137	H	1.316776	0.639916	0.736386
H138	H	1.650109	0.973250	1.069720
