data_functionalizedCrystal
_audit_creation_method	'MofGen! by Chris Wilmer'
_symmetry_space_group_name_H-M	'P1'
_symmetry_Int_Tables_number	1
_symmetry_cell_setting	triclinic
loop_
_symmetry_equiv_pos_as_xyz
  x,y,z
_cell_length_a	21.295418
_cell_length_b	21.295417
_cell_length_c	16.625539
_cell_angle_alpha	89.968491
_cell_angle_beta	89.963731
_cell_angle_gamma	90.046319
loop_
_atom_site_label
_atom_site_type_symbol
_atom_site_fract_x
_atom_site_fract_y
_atom_site_fract_z
Zn1	Zn	0.962309	-0.250354	-0.456294
Zn2	Zn	0.962226	-0.355624	-0.321450
Zn3	Zn	0.857046	-0.250402	-0.321430
Zn4	Zn	0.857002	-0.355618	-0.456194
O5	O	0.909646	-0.302999	-0.388842
O6	O	1.050388	-0.264301	-0.438457
O7	O	0.948257	-0.341688	-0.208615
O8	O	0.871063	-0.162306	-0.339353
O9	O	1.050326	-0.341642	-0.339387
O10	O	0.948400	-0.162271	-0.438438
O11	O	0.870982	-0.264382	-0.208600
O12	O	0.768951	-0.264376	-0.339256
O13	O	0.870988	-0.341632	-0.569040
O14	O	0.768918	-0.341679	-0.438267
O15	O	0.948357	-0.264295	-0.569114
O16	O	0.948214	-0.443713	-0.339290
O17	O	0.870906	-0.443708	-0.438287
C18	C	0.746094	-0.303033	-0.388749
C19	C	0.676126	-0.303062	-0.388729
C20	C	0.643259	-0.343366	-0.440207
C21	C	0.577516	-0.343351	-0.440243
C22	C	0.544644	-0.303037	-0.388787
C23	C	0.577519	-0.262725	-0.337305
C24	C	0.643260	-0.262737	-0.337276
N25	N	0.441375	-0.298120	-0.318264
N26	N	0.378923	-0.298112	-0.318294
C27	C	0.346569	-0.302997	-0.388872
N28	N	0.379025	-0.307903	-0.459421
N29	N	0.441482	-0.307914	-0.459390
C30	C	0.473358	-0.303019	-0.388813
C31	C	0.242416	-0.343287	-0.440394
C32	C	0.176673	-0.343267	-0.440431
C33	C	0.176676	-0.262645	-0.337486
C34	C	0.242418	-0.262661	-0.337456
C35	C	0.275285	-0.302986	-0.388909
C36	C	0.909563	-0.466551	-0.388797
C37	C	0.909586	-0.536519	-0.388805
C38	C	0.949875	-0.569367	-0.337311
C39	C	0.949905	-0.635110	-0.337329
C40	C	0.909633	-0.668002	-0.388833
C41	C	0.869341	-0.635146	-0.440338
C42	C	0.869317	-0.569405	-0.440324
N43	N	0.854566	-0.771283	-0.394949
N44	N	0.854590	-0.833734	-0.394957
C45	C	0.909704	-0.866076	-0.388879
N46	N	0.964793	-0.833608	-0.382777
N47	N	0.964768	-0.771151	-0.382764
C48	C	0.909655	-0.739287	-0.388854
C49	C	0.950029	-0.970210	-0.337402
C50	C	0.950059	-1.035953	-0.337426
C51	C	0.869490	-1.035988	-0.440430
C52	C	0.869465	-0.970246	-0.440410
C53	C	0.909734	-0.937361	-0.388892
C54	C	1.073836	-0.302967	-0.388936
C55	C	1.143804	-0.302953	-0.388976
C56	C	0.909677	-0.302958	-0.599151
C57	C	0.909690	-0.302940	-0.688772
C58	C	0.909746	-0.138809	-0.388905
C59	C	0.909788	-0.068841	-0.388931
C60	C	0.909700	-0.302926	-0.761555
C61	C	0.909715	-0.302903	-0.852863
C62	C	0.909730	-0.302881	-0.925640
C63	C	0.909745	-0.302858	-1.016954
C64	C	0.909651	-0.302995	-0.179351
C65	C	0.909760	-0.302836	-0.089731
H66	H	0.149913	-0.376087	-0.482356
Cl67	Cl	0.283739	-0.211991	-0.272735
H68	H	0.836703	-1.062769	-0.482369
Cl69	Cl	1.000651	-0.928865	-0.272637
Cl70	Cl	0.536194	-0.212042	-0.272621
Cl71	Cl	0.684581	-0.212064	-0.272555
Cl72	Cl	0.283737	-0.393976	-0.505080
H73	H	0.836508	-0.542659	-0.482258
Cl74	Cl	1.000719	-1.077249	-0.272689
Cl75	Cl	0.818809	-0.928949	-0.505147
H76	H	0.149912	-0.229818	-0.295594
Cl77	Cl	1.000508	-0.528029	-0.272557
H78	H	0.982716	-0.661860	-0.295396
H79	H	0.670014	-0.376201	-0.482104
Cl80	Cl	0.818717	-0.676495	-0.505090
H81	H	0.550751	-0.376172	-0.482165
