data_functionalizedCrystal
_audit_creation_method	'MofGen! by Chris Wilmer'
_symmetry_space_group_name_H-M	'P1'
_symmetry_Int_Tables_number	1
_symmetry_cell_setting	triclinic
loop_
_symmetry_equiv_pos_as_xyz
  x,y,z
_cell_length_a	15.995350
_cell_length_b	15.072220
_cell_length_c	15.995350
_cell_angle_alpha	90.007147
_cell_angle_beta	83.492375
_cell_angle_gamma	90.000308
loop_
_atom_site_label
_atom_site_type_symbol
_atom_site_fract_x
_atom_site_fract_y
_atom_site_fract_z
O1	O	1.110984	0.073703	0.107932
O2	O	0.867209	0.073721	0.121260
O3	O	0.995760	0.073710	-0.007292
O4	O	0.982433	0.073713	0.236484
O5	O	0.995752	-0.073855	-0.007307
O6	O	0.867200	-0.073844	0.121244
O7	O	1.110976	-0.073862	0.107917
Zn8	Zn	0.989087	-0.097283	0.114578
Zn9	Zn	0.989098	0.097141	0.114599
O10	O	0.982424	-0.073852	0.236468
C11	C	0.836010	-0.000060	0.120701
C12	C	0.743060	-0.000053	0.119049
N13	N	0.989085	-0.229971	0.114564
C14	C	0.405312	-0.000071	0.113117
C15	C	0.452746	-0.000401	0.021565
C16	C	0.549436	-0.000063	0.023217
C17	C	0.572873	-0.000063	0.116060
C18	C	0.531790	0.084201	0.161225
C19	C	0.435155	0.084266	0.158925
C20	C	0.434806	-0.083543	0.160799
C21	C	0.531751	-0.084651	0.160777
C22	C	0.667570	-0.000055	0.117727
C23	C	0.310614	-0.000073	0.111452
C24	C	0.989099	-0.589173	0.114592
C25	C	1.058107	-0.551544	0.046036
C26	C	1.057927	-0.448718	0.045783
C27	C	0.989093	-0.410969	0.114578
C28	C	0.901736	-0.448305	0.095497
C29	C	0.902144	-0.551163	0.095013
C30	C	1.006660	-0.551250	0.202431
C31	C	1.008643	-0.448386	0.201842
C32	C	0.989084	-0.310255	0.114572
C33	C	0.989102	-0.689886	0.114597
C34	C	1.142175	-0.000080	0.108476
C35	C	1.235125	-0.000081	0.110127
C36	C	0.995205	-0.000070	-0.038494
C37	C	0.993553	-0.000065	-0.131444
N38	N	0.989106	0.229830	0.114606
C39	C	0.987621	-0.000068	-0.469192
C40	C	0.896069	0.000270	-0.421758
C41	C	0.897721	-0.000063	-0.325068
C42	C	0.990564	-0.000066	-0.301631
C43	C	1.035715	-0.084335	-0.342718
C44	C	1.033416	-0.084405	-0.439353
C45	C	1.035316	0.083404	-0.439694
C46	C	1.035295	0.084518	-0.342748
C47	C	0.992231	-0.000068	-0.206934
C48	C	0.985956	-0.000072	-0.563890
C49	C	0.982980	-0.000069	0.267671
C50	C	0.984631	-0.000069	0.360621
H51	H	0.577862	-0.060467	-0.012284
H52	H	1.123261	-0.576278	0.057215
O53	O	0.994174	-0.167403	-0.305134
H54	H	0.927088	-0.168234	-0.316815
H55	H	1.046706	-0.424120	-0.019403
H56	H	0.434221	-0.060830	-0.015037
H57	H	1.102817	0.083968	-0.471455
O58	O	0.880729	-0.414201	0.011607
H59	H	0.818825	-0.441055	-0.001180
O60	O	0.426795	0.079190	-0.026692
H61	H	0.380262	0.118985	0.014246
O62	O	0.407609	-0.168153	0.121147
H63	H	0.463958	-0.208303	0.098960
O64	O	0.991632	0.167102	-0.306583
H65	H	0.994295	0.168867	-0.237563
O66	O	0.586353	0.080090	-0.024100
H67	H	0.535133	0.118766	-0.048246
O68	O	0.995674	0.168013	-0.466880
H69	H	0.941528	0.151511	-0.501725
H70	H	0.859636	-0.059819	-0.441358
H71	H	0.416850	0.147255	0.126002
H72	H	0.402906	0.088090	0.226141
H73	H	0.403045	-0.084113	0.228300
O74	O	0.550502	0.088369	0.251575
H75	H	0.589377	0.030288	0.265277
H76	H	0.560168	0.146912	0.129868
H77	H	0.559064	-0.146989	0.127807
H78	H	1.103000	0.089603	-0.327386
O79	O	0.552107	-0.091401	0.250457
H80	H	0.527765	-0.031844	0.286098
O81	O	0.940011	-0.583489	0.270017
H82	H	0.894592	-0.626314	0.241242
O83	O	1.122446	-0.089504	-0.482073
H84	H	1.121472	-0.089594	-0.551348
H85	H	1.047051	-0.577402	-0.018780
H86	H	1.122863	-0.423474	0.057145
H87	H	0.886666	-0.575163	0.030953
O88	O	0.989794	-0.167839	-0.463614
H89	H	0.933305	-0.149793	-0.494304
O90	O	0.832063	-0.584149	0.158611
H91	H	0.798028	-0.526631	0.189573
H92	H	1.068999	-0.577189	0.220770
H93	H	1.103924	-0.087471	-0.328592
H94	H	0.859480	0.060701	-0.440283
O95	O	0.832067	-0.415927	0.159874
H96	H	0.859030	-0.372773	0.206259
O97	O	0.946365	-0.414365	0.272582
H98	H	0.949520	-0.340842	0.274616
H99	H	1.072906	-0.423984	0.216320
O100	O	0.850692	0.079939	-0.287398
H101	H	0.826559	0.119214	-0.338237
O102	O	0.850402	-0.080218	-0.288156
H103	H	0.826254	-0.118898	-0.339378
