data_functionalizedCrystal
_audit_creation_method	'MofGen! by Chris Wilmer'
_symmetry_space_group_name_H-M	'P1'
_symmetry_Int_Tables_number	1
_symmetry_cell_setting	triclinic
loop_
_symmetry_equiv_pos_as_xyz
  x,y,z
_cell_length_a	11.169417
_cell_length_b	11.169409
_cell_length_c	11.169416
_cell_angle_alpha	89.969126
_cell_angle_beta	89.991438
_cell_angle_gamma	90.021649
loop_
_atom_site_label
_atom_site_type_symbol
_atom_site_fract_x
_atom_site_fract_y
_atom_site_fract_z
Zn1	Zn	-1.834962	-0.678613	-0.477767
Zn2	Zn	-1.834852	-0.477935	-0.678507
Zn3	Zn	-1.634248	-0.477941	-0.477831
Zn4	Zn	-1.634256	-0.678574	-0.678400
O5	O	-1.734579	-0.578266	-0.578126
O6	O	-2.002897	-0.652007	-0.504414
O7	O	-1.808192	-0.309986	-0.651959
O8	O	-1.660917	-0.504580	-0.309873
O9	O	-2.002816	-0.504570	-0.651897
O10	O	-1.808380	-0.652013	-0.309826
O11	O	-1.660809	-0.309991	-0.504522
O12	O	-1.466300	-0.504542	-0.504419
O13	O	-1.660929	-0.846529	-0.651714
O14	O	-1.466305	-0.651945	-0.651776
O15	O	-1.808388	-0.846558	-0.504310
O16	O	-1.808199	-0.504531	-0.846443
O17	O	-1.660822	-0.651940	-0.846364
C18	C	-1.422755	-0.578241	-0.578094
C19	C	-1.289355	-0.578258	-0.578109
C20	C	-1.734532	-0.578257	-0.889951
C21	C	-1.734621	-0.578293	-1.023351
C22	C	-1.734672	-0.891309	-0.577993
C23	C	-1.734711	-1.024709	-0.577936
C24	C	-1.047622	-0.578284	-0.578148
C25	C	-1.181022	-0.578271	-0.578128
C26	C	-1.734557	-0.266441	-0.578172
C27	C	-1.734750	-0.133042	-0.577891
C28	C	-1.734660	-0.578301	-0.265084
C29	C	-1.734694	-0.578316	-0.131684
