data_functionalizedCrystal
_audit_creation_method	'MofGen! by Chris Wilmer'
_symmetry_space_group_name_H-M	'P1'
_symmetry_Int_Tables_number	1
_symmetry_cell_setting	triclinic
loop_
_symmetry_equiv_pos_as_xyz
  x,y,z
_cell_length_a	14.519709
_cell_length_b	11.026607
_cell_length_c	10.065875
_cell_angle_alpha	79.268236
_cell_angle_beta	98.757930
_cell_angle_gamma	96.133081
loop_
_atom_site_label
_atom_site_type_symbol
_atom_site_fract_x
_atom_site_fract_y
_atom_site_fract_z
O1	O	-1.260605	-0.141346	-0.113307
O2	O	-1.010605	0.108654	0.136693
O3	O	-0.760605	0.358654	0.386693
O4	O	-0.510605	0.608654	0.636693
O5	O	-0.995219	-0.160080	-0.113348
O6	O	-0.745219	0.089920	0.136652
O7	O	-0.495219	0.339920	0.386652
O8	O	-0.245219	0.589920	0.636652
O9	O	-1.105917	0.025988	-0.113326
O10	O	-0.855917	0.275988	0.136674
O11	O	-0.605917	0.525988	0.386674
O12	O	-0.355917	0.775988	0.636674
O13	O	-1.149907	-0.327413	-0.113329
O14	O	-0.899907	-0.077413	0.136671
O15	O	-0.649907	0.172587	0.386671
O16	O	-0.399907	0.422587	0.636671
O17	O	-1.084832	-0.009635	0.113659
O18	O	-0.834832	0.240365	0.363659
O19	O	-0.584832	0.490365	0.613659
O20	O	-0.334832	0.740365	0.863659
O21	O	-0.974135	-0.195703	0.113637
O22	O	-0.724135	0.054297	0.363637
O23	O	-0.474135	0.304297	0.613637
O24	O	-0.224135	0.554297	0.863637
O25	O	-1.239520	-0.176969	0.113678
O26	O	-0.989520	0.073031	0.363678
O27	O	-0.739520	0.323031	0.613678
O28	O	-0.489520	0.573031	0.863678
Zn29	Zn	-1.103480	-0.191992	0.149696
Zn30	Zn	-0.853480	0.058008	0.399696
Zn31	Zn	-0.603480	0.308008	0.649696
Zn32	Zn	-0.353480	0.558008	0.899696
Zn33	Zn	-1.131260	-0.145057	-0.149366
Zn34	Zn	-0.881260	0.104943	0.100634
Zn35	Zn	-0.631260	0.354943	0.350634
Zn36	Zn	-0.381260	0.604943	0.600634
O37	O	-1.128823	-0.363037	0.113656
O38	O	-0.878823	-0.113037	0.363656
O39	O	-0.628823	0.136963	0.613656
O40	O	-0.378823	0.386963	0.863656
C41	C	-0.950174	-0.177017	0.000139
C42	C	-0.700174	0.072983	0.250139
C43	C	-0.450174	0.322983	0.500139
C44	C	-0.200174	0.572983	0.750139
C45	C	-0.847363	-0.174397	0.000123
C46	C	-0.597363	0.075603	0.250123
C47	C	-0.347363	0.325603	0.500123
C48	C	-0.097363	0.575603	0.750123
C49	C	-1.087259	0.053405	0.000164
C50	C	-0.837259	0.303405	0.250164
C51	C	-0.587259	0.553405	0.500164
C52	C	-0.337259	0.803405	0.750164
C53	C	-1.063067	0.188173	0.000155
C54	C	-0.813067	0.438173	0.250155
C55	C	-0.563067	0.688173	0.500155
C56	C	-0.313067	0.938173	0.750155
C57	C	-1.284566	-0.160032	0.000188
C58	C	-1.034566	0.089968	0.250188
C59	C	-0.784566	0.339968	0.500188
C60	C	-0.534566	0.589968	0.750188
C61	C	-1.387378	-0.162650	0.000195
C62	C	-1.137378	0.087350	0.250195
C63	C	-0.887378	0.337350	0.500195
C64	C	-0.637378	0.587350	0.750195
C65	C	-0.470874	-0.164772	0.000186
C66	C	-0.220874	0.085228	0.250186
C67	C	0.029126	0.335228	0.500186
C68	C	0.279126	0.585228	0.750186
C69	C	-0.575624	-0.167445	0.000168
C70	C	-0.325624	0.082555	0.250168
C71	C	-0.075624	0.332555	0.500168
C72	C	0.174376	0.582555	0.750168
C73	C	-0.659115	-0.169584	0.000153
C74	C	-0.409115	0.080416	0.250153
C75	C	-0.159115	0.330416	0.500153
C76	C	0.090885	0.580416	0.750153
C77	C	-0.763872	-0.172258	0.000138
C78	C	-0.513872	0.077742	0.250138
C79	C	-0.263872	0.327742	0.500138
C80	C	-0.013872	0.577742	0.750138
C81	C	-1.147480	-0.390453	0.000163
C82	C	-0.897480	-0.140453	0.250163
C83	C	-0.647480	0.109547	0.500163
C84	C	-0.397480	0.359547	0.750163
C85	C	-1.171673	-0.525220	0.000163
C86	C	-0.921673	-0.275220	0.250163
C87	C	-0.671673	-0.025220	0.500163
C88	C	-0.421673	0.224780	0.750163
N89	N	-1.084527	-0.224023	0.353798
N90	N	-0.834527	0.025977	0.603798
N91	N	-0.584527	0.275977	0.853798
N92	N	-0.334527	0.525977	1.103798
C93	C	-1.129866	0.261832	0.000163
C94	C	-0.879866	0.511832	0.250163
C95	C	-0.629866	0.761832	0.500163
C96	C	-0.379866	1.011832	0.750163
C97	C	-1.104865	0.401122	0.000155
C98	C	-0.854865	0.651122	0.250155
C99	C	-0.604865	0.901122	0.500155
C100	C	-0.354865	1.151122	0.750155
N101	N	-1.150218	-0.113016	-0.353468
N102	N	-0.900218	0.136984	-0.103468
N103	N	-0.650218	0.386984	0.146532
N104	N	-0.400218	0.636984	0.396532
C105	C	-1.124658	-0.156194	0.421585
C106	C	-0.874658	0.093806	0.671585
C107	C	-0.624658	0.343806	0.921585
C108	C	-0.374658	0.593806	1.171585
C109	C	-1.110081	-0.180855	0.578749
C110	C	-0.860081	0.069145	0.828749
C111	C	-0.610081	0.319145	1.078749
C112	C	-0.360081	0.569145	1.328749
H113	H	-1.205564	0.221773	0.000184
H114	H	-0.955564	0.471773	0.250184
H115	H	-0.705564	0.721773	0.500184
H116	H	-0.455564	0.971773	0.750184
H117	H	-1.169805	-0.079860	0.363269
H118	H	-0.919805	0.170140	0.613269
H119	H	-0.669805	0.420140	0.863269
H120	H	-0.419805	0.670140	1.113269
H121	H	-1.029162	0.441175	0.000134
H122	H	-0.779162	0.691175	0.250134
H123	H	-0.529162	0.941175	0.500134
H124	H	-0.279162	1.191175	0.750134
H125	H	-0.987370	0.228232	0.000135
H126	H	-0.737370	0.478232	0.250135
H127	H	-0.487370	0.728232	0.500135
H128	H	-0.237370	0.978232	0.750135
H129	H	-1.247386	0.434746	0.000072
H130	H	-0.997386	0.684746	0.250072
H131	H	-0.747386	0.934746	0.500072
H132	H	-0.497386	1.184746	0.750072
H133	H	-1.064923	-0.257185	0.637061
H134	H	-0.814923	-0.007185	0.887061
H135	H	-0.564923	0.242815	1.137061
H136	H	-0.314923	0.492815	1.387061
H137	H	-1.195367	-0.036678	0.588220
H138	H	-0.945367	0.213322	0.838220
H139	H	-0.695367	0.463322	1.088220
H140	H	-0.445367	0.713322	1.338220
H141	H	-1.039372	-0.300348	0.412115
H142	H	-0.789372	-0.050348	0.662115
H143	H	-0.539372	0.199652	0.912115
H144	H	-0.289372	0.449652	1.162115
