data_functionalizedCrystal
_audit_creation_method	'MofGen! by Chris Wilmer'
_symmetry_space_group_name_H-M	'P1'
_symmetry_Int_Tables_number	1
_symmetry_cell_setting	triclinic
loop_
_symmetry_equiv_pos_as_xyz
  x,y,z
_cell_length_a	25.639239
_cell_length_b	12.759401
_cell_length_c	12.759393
_cell_angle_alpha	89.981433
_cell_angle_beta	89.962948
_cell_angle_gamma	90.037730
loop_
_atom_site_label
_atom_site_type_symbol
_atom_site_fract_x
_atom_site_fract_y
_atom_site_fract_z
Zn1	Zn	-0.208133	1.606080	-0.593943
Zn2	Zn	0.291867	2.106080	-0.093943
Zn3	Zn	-0.295580	1.605901	-0.418246
Zn4	Zn	0.204420	2.105901	0.081754
Zn5	Zn	-0.208159	1.430382	-0.418282
Zn6	Zn	0.291841	1.930382	0.081718
Zn7	Zn	-0.295538	1.430297	-0.593888
Zn8	Zn	0.204462	1.930297	-0.093888
O9	O	-0.251853	1.518165	-0.506090
O10	O	0.248147	2.018165	-0.006090
O11	O	-0.219740	1.753078	-0.570645
O12	O	0.280260	2.253078	-0.070645
O13	O	-0.284012	1.582579	-0.271230
O14	O	0.215988	2.082579	0.228770
O15	O	-0.134990	1.453799	-0.441622
O16	O	0.365010	1.953799	0.058378
O17	O	-0.283987	1.752946	-0.441561
O18	O	0.216013	2.252946	0.058439
O19	O	-0.134971	1.582884	-0.570680
O20	O	0.365029	2.082884	-0.070680
O21	O	-0.219784	1.453626	-0.271256
O22	O	0.280216	1.953626	0.228744
O23	O	-0.219743	1.283350	-0.441569
O24	O	0.280257	1.783350	0.058431
O25	O	-0.283915	1.453655	-0.740916
O26	O	0.216085	1.953655	-0.240916
O27	O	-0.283940	1.283288	-0.570585
O28	O	0.216060	1.783288	-0.070585
O29	O	-0.219699	1.582802	-0.740957
O30	O	0.280301	2.082802	-0.240957
O31	O	-0.368740	1.582496	-0.441507
O32	O	0.131260	2.082496	0.058493
O33	O	-0.368709	1.453481	-0.570550
O34	O	0.131291	1.953481	-0.070550
C35	C	-0.251840	1.245198	-0.506075
C36	C	0.248160	1.745198	-0.006075
C37	C	-0.251848	1.128421	-0.506094
C38	C	0.248152	1.628421	-0.006094
C39	C	-0.218458	1.073621	-0.573412
C40	C	0.281542	1.573621	-0.073412
C41	C	-0.218468	0.963897	-0.573419
C42	C	0.281532	1.463897	-0.073419
C43	C	-0.285262	0.963783	-0.438786
C44	C	0.214738	1.463783	0.061214
C45	C	-0.285249	1.073505	-0.438775
C46	C	0.214751	1.573505	0.061225
C47	C	-0.179896	1.073685	-0.651144
C48	C	0.320104	1.573685	-0.151144
C49	C	-0.179906	0.963961	-0.651151
C50	C	0.320094	1.463961	-0.151151
C51	C	-0.387695	1.517989	-0.506042
C52	C	0.112305	2.017989	-0.006042
C53	C	-0.445809	1.518009	-0.506056
C54	C	0.054191	2.018009	-0.006056
C55	C	-0.806176	1.585519	-0.439012
C56	C	-0.306176	2.085519	0.060988
C57	C	-0.860780	1.585559	-0.439026
C58	C	-0.360780	2.085559	0.060974
O59	O	-0.889020	1.642775	-0.381969
O60	O	-0.389020	2.142775	0.118031
N61	N	-0.888092	1.518350	-0.506160
N62	N	-0.388092	2.018350	-0.006160
C63	C	-0.860796	1.451103	-0.573291
C64	C	-0.360796	1.951103	-0.073291
O65	O	-0.889041	1.393940	-0.630396
O66	O	-0.389041	1.893940	-0.130396
C67	C	-0.806193	1.451068	-0.573282
C68	C	-0.306193	1.951068	-0.073282
C69	C	-0.778884	1.518275	-0.506136
C70	C	-0.278884	2.018275	-0.006136
C71	C	-0.778867	1.652721	-0.371873
C72	C	-0.278867	2.152721	0.128127
C73	C	-0.724266	1.652678	-0.371857
C74	C	-0.224266	2.152678	0.128143
C75	C	-0.696975	1.585434	-0.438981
C76	C	-0.196975	2.085434	0.061019
C77	C	-0.724283	1.518232	-0.506121
C78	C	-0.224283	2.018232	-0.006121
C79	C	-0.778898	1.383827	-0.640418
C80	C	-0.278898	1.883827	-0.140418
C81	C	-0.724291	1.383799	-0.640403
C82	C	-0.224291	1.883799	-0.140403
C83	C	-0.696982	1.451005	-0.573257
C84	C	-0.196982	1.951005	-0.073257
C85	C	-0.642391	1.450946	-0.573230
C86	C	-0.142391	1.950946	-0.073230
N87	N	-0.615080	1.518155	-0.506096
N88	N	-0.115080	2.018155	-0.006096
C89	C	-0.642371	1.585399	-0.438972
C90	C	-0.142371	2.085399	0.061028
C91	C	-0.975467	1.451182	-0.573307
C92	C	-0.475467	1.951182	-0.073307
C93	C	-1.030069	1.451210	-0.573312
C94	C	-0.530069	1.951210	-0.073312
C95	C	-1.030049	1.585669	-0.439048
C96	C	-0.530049	2.085669	0.060952
C97	C	-0.975446	1.585634	-0.439039
C98	C	-0.475446	2.085634	0.060961
C99	C	-0.948155	1.518391	-0.506174
C100	C	-0.448155	2.018391	-0.006174
C101	C	-0.527706	1.585305	-0.438945
C102	C	-0.027706	2.085305	0.061055
C103	C	-0.473101	1.585253	-0.438932
C104	C	0.026899	2.085253	0.061068
C105	C	-0.473126	1.450799	-0.573200
C106	C	0.026874	1.950799	-0.073200
C107	C	-0.527726	1.450846	-0.573209
C108	C	-0.027726	1.950846	-0.073209
C109	C	-0.555015	1.518108	-0.506078
C110	C	-0.055015	2.018108	-0.006078
O111	O	-0.614117	1.393762	-0.630260
O112	O	-0.114117	1.893762	-0.130260
O113	O	-0.614120	1.642562	-0.381887
O114	O	-0.114120	2.142562	0.118113
C115	C	-0.115480	1.518371	-0.506161
C116	C	0.384520	2.018371	-0.006161
C117	C	-0.057365	1.518459	-0.506192
C118	C	0.442635	2.018459	-0.006192
C119	C	-0.251800	1.518239	-0.780123
C120	C	0.248200	2.018239	-0.280123
C121	C	-0.251777	1.518270	-0.896900
C122	C	0.248223	2.018270	-0.396900
C123	C	-0.251865	1.792198	-0.506105
C124	C	0.248135	2.292198	-0.006105
C125	C	-0.251871	1.908975	-0.506112
C126	C	0.248129	2.408975	-0.006112
C127	C	-0.218337	1.585526	-0.951785
C128	C	0.281663	2.085526	-0.451785
C129	C	-0.218318	1.585551	-1.061509
C130	C	0.281682	2.085551	-0.561509
C131	C	-0.285185	1.451061	-1.061454
C132	C	0.214815	1.951061	-0.561454
C133	C	-0.285200	1.451032	-0.951732
C134	C	0.214800	1.951032	-0.451732
C135	C	-0.179734	1.663176	-0.951818
C136	C	0.320266	2.163176	-0.451818
C137	C	-0.179715	1.663201	-1.061542
C138	C	0.320285	2.163201	-0.561542
C139	C	-0.251867	1.518152	-0.233123
C140	C	0.248133	2.018152	0.266877
C141	C	-0.251743	1.518325	-0.116346
C142	C	0.248257	2.018325	0.383654
H143	H	-0.312457	0.919057	-0.383978
H144	H	0.187543	1.419057	0.116022
H145	H	-0.190561	1.744563	-1.091319
H146	H	0.309439	2.244563	-0.591319
H147	H	-0.141423	0.929952	-0.622159
H148	H	0.358577	1.429952	-0.122159
N149	N	-0.129083	1.111098	-0.623977
N150	N	0.370917	1.611098	-0.123977
N151	N	-0.120473	1.207423	-0.619371
N152	N	0.379527	1.707423	-0.119371
H153	H	-0.084588	1.233848	-0.600183
H154	H	0.415412	1.733848	-0.100183
H155	H	-0.953214	1.640360	-0.384364
H156	H	-0.453214	2.140360	0.115636
N157	N	-0.947591	1.382466	-0.641864
N158	N	-0.447591	1.882466	-0.141864
N159	N	-0.917171	1.315512	-0.604837
N160	N	-0.417171	1.815512	-0.104837
H161	H	-0.897486	1.266982	-0.653255
H162	H	-0.397486	1.766982	-0.153255
H163	H	-0.312429	1.396262	-0.907048
H164	H	0.187571	1.896262	-0.407048
H165	H	-0.549962	1.396125	-0.627887
H166	H	-0.049962	1.896125	-0.127887
N167	N	-0.131481	1.626648	-1.104341
N168	N	0.368519	2.126648	-0.604341
N169	N	-0.105007	1.685091	-1.162321
N170	N	0.394993	2.185091	-0.662321
H171	H	-0.070956	1.659235	-1.192575
H172	H	0.429044	2.159235	-0.692575
H173	H	-0.549919	1.640078	-0.384282
H174	H	-0.049919	2.140078	0.115718
H175	H	-0.190802	0.934207	-0.732485
H176	H	0.309198	1.434207	-0.232485
N177	N	-0.319353	1.129467	-0.369991
N178	N	0.180647	1.629467	0.130009
N179	N	-0.349171	1.080419	-0.309893
N180	N	0.150829	1.580419	0.190107
H181	H	-0.373258	1.119941	-0.261309
H182	H	0.126742	1.619941	0.238691
N183	N	-1.057934	1.654382	-0.370504
N184	N	-0.557934	2.154382	0.129496
N185	N	-1.051788	1.751320	-0.377567
N186	N	-0.551788	2.251320	0.122433
H187	H	-1.071483	1.799847	-0.329162
H188	H	-0.571483	2.299847	0.170838
N189	N	-0.197935	1.760110	-0.909129
N190	N	0.302065	2.260110	-0.409129
N191	N	-0.174509	1.843565	-0.929723
N192	N	0.325491	2.343565	-0.429723
H193	H	-0.187364	1.912027	-0.899577
H194	H	0.312636	2.412027	-0.399577
H195	H	-0.194443	1.107738	-0.728379
H196	H	0.305557	1.607738	-0.228379
H197	H	-0.450868	1.639981	-0.384251
H198	H	0.049132	2.139981	0.115749
N199	N	-1.057969	1.382565	-0.641891
N200	N	-0.557969	1.882565	-0.141891
N201	N	-1.106721	1.382602	-0.641906
N202	N	-0.606721	1.882602	-0.141906
H203	H	-1.126425	1.334123	-0.690346
H204	H	-0.626425	1.834123	-0.190346
H205	H	-0.702035	1.707407	-0.317185
H206	H	-0.202035	2.207407	0.182815
N207	N	-0.806776	1.315168	-0.709013
N208	N	-0.306776	1.815168	-0.209013
N209	N	-0.782392	1.255147	-0.768940
N210	N	-0.282392	1.755147	-0.268940
H211	H	-0.802079	1.206653	-0.817391
H212	H	-0.302079	1.706653	-0.317391
H213	H	-0.702074	1.329043	-0.695076
H214	H	-0.202074	1.829043	-0.195076
N215	N	-0.806731	1.721427	-0.303299
N216	N	-0.306731	2.221427	0.196701
N217	N	-0.782331	1.781420	-0.243368
N218	N	-0.282331	2.281420	0.256632
H219	H	-0.802006	1.829945	-0.194928
H220	H	-0.302006	2.329945	0.305072
H221	H	-0.450896	1.396046	-0.627849
H222	H	0.049104	1.896046	-0.127849
N223	N	-0.319318	1.382385	-1.117481
N224	N	0.180682	1.882385	-0.617481
N225	N	-0.319297	1.382413	-1.215446
N226	N	0.180703	1.882413	-0.715446
H227	H	-0.343405	1.333909	-1.255016
H228	H	0.156595	1.833909	-0.755016
H229	H	-0.139242	1.641442	-0.922070
H230	H	0.360758	2.141442	-0.422070
