data_functionalizedCrystal
_audit_creation_method	'MofGen! by Chris Wilmer'
_symmetry_space_group_name_H-M	'P1'
_symmetry_Int_Tables_number	1
_symmetry_cell_setting	triclinic
loop_
_symmetry_equiv_pos_as_xyz
  x,y,z
_cell_length_a	10.540539
_cell_length_b	15.995350
_cell_length_c	9.616153
_cell_angle_alpha	89.999971
_cell_angle_beta	89.995174
_cell_angle_gamma	84.008933
loop_
_atom_site_label
_atom_site_type_symbol
_atom_site_fract_x
_atom_site_fract_y
_atom_site_fract_z
O1	O	1.684270	0.117994	-0.115573
O2	O	1.314705	0.129112	-0.115589
O3	O	1.509590	0.001726	-0.115579
O4	O	1.489385	0.245380	-0.115583
O5	O	1.509563	0.001729	0.115712
O6	O	1.314678	0.129115	0.115702
O7	O	1.684244	0.117997	0.115719
Zn8	Zn	1.499457	0.123556	0.152433
Zn9	Zn	1.499492	0.123553	-0.152303
O10	O	1.489359	0.245383	0.115709
C11	C	1.267400	0.128280	0.000055
C12	C	1.126486	0.125785	0.000048
C13	C	0.944373	0.030202	0.000589
C14	C	1.090956	0.032730	0.000054
C15	C	1.064213	0.170565	-0.132026
C16	C	0.917712	0.167390	-0.132122
C17	C	0.917167	0.169286	0.130899
C18	C	1.064138	0.170143	0.132630
C19	C	1.508741	-0.029472	0.000064
C20	C	1.506237	-0.122438	0.000056
C21	C	1.497244	-0.460239	0.000060
C22	C	1.358450	-0.413635	-0.000465
C23	C	1.360955	-0.316930	0.000057
C24	C	1.501705	-0.292652	0.000057
C25	C	1.570147	-0.333318	0.132137
C26	C	1.566661	-0.429975	0.132247
C27	C	1.569558	-0.430319	-0.130774
C28	C	1.569525	-0.333374	-0.132520
C29	C	1.504233	-0.197939	0.000060
C30	C	1.494719	-0.554952	0.000067
C31	C	1.731549	0.118829	0.000072
C32	C	1.872462	0.121324	0.000070
C33	C	1.490207	0.276581	0.000063
C34	C	1.492711	0.369547	0.000062
N35	N	1.499442	0.123558	0.360408
N36	N	1.499517	0.123544	-0.360278
C37	C	1.394879	0.191473	0.580772
C38	C	1.395104	0.191727	0.419605
C39	C	1.631892	0.143433	0.418863
C40	C	1.631321	0.143914	0.580081
C41	C	1.472879	0.035546	0.580319
C42	C	1.469825	0.036116	0.419092
H43	H	0.869017	0.236498	0.131791
H44	H	1.134043	-0.002504	0.094731
H45	H	0.916282	-0.006559	0.095307
C46	C	1.122323	0.128538	-0.264813
H47	H	1.184517	0.083708	-0.240047
H48	H	1.161343	0.168760	-0.318255
H49	H	1.056950	0.107199	-0.318047
C50	C	0.875099	0.128608	0.266142
H51	H	0.829875	0.081987	0.244078
H52	H	0.821318	0.168691	0.317707
H53	H	0.948159	0.110031	0.320063
H54	H	0.914680	-0.006405	-0.093600
C55	C	1.148032	-0.015197	-0.128073
H56	H	1.081617	-0.036283	-0.180006
H57	H	1.207111	-0.060664	-0.098628
H58	H	1.190562	0.021799	-0.184652
H59	H	1.085627	0.238902	-0.136941
C60	C	1.566075	-0.035458	0.364669
H61	H	1.545879	-0.087502	0.401769
H62	H	1.649734	-0.025771	0.392612
H63	H	1.561978	-0.037265	0.266039
H64	H	1.549186	-0.015013	0.618439
H65	H	1.303211	-0.433558	0.093720
H66	H	1.296651	0.179768	0.380086
H67	H	0.868824	0.234313	-0.138118
H68	H	1.711608	0.095309	0.380514
C69	C	0.880226	0.122670	-0.265482
H70	H	0.954500	0.106608	-0.319086
H71	H	0.822663	0.159732	-0.318286
H72	H	0.840411	0.074067	-0.241342
H73	H	1.711616	0.096432	0.619073
C74	C	1.120053	0.125950	0.264629
H75	H	1.181147	0.080657	0.239063
H76	H	1.053504	0.104987	0.316504
H77	H	1.160039	0.164945	0.319746
C78	C	1.261450	0.175569	0.633177
H79	H	1.199670	0.217232	0.596415
H80	H	1.259741	0.178094	0.731863
H81	H	1.242611	0.121567	0.603556
C82	C	1.663013	0.230645	0.630867
H83	H	1.676109	0.265255	0.552970
H84	H	1.738254	0.224040	0.685860
H85	H	1.594204	0.256157	0.685083
H86	H	1.671890	-0.461468	-0.131661
H87	H	1.306770	-0.289388	0.094893
H88	H	1.087430	0.237986	0.140604
H89	H	1.411654	0.256390	0.621271
C90	C	1.288257	-0.278964	-0.127831
H91	H	1.256920	-0.322640	-0.180570
H92	H	1.344194	-0.250339	-0.183716
H93	H	1.218779	-0.240501	-0.098097
C94	C	1.499194	-0.455104	0.265609
H95	H	1.474165	-0.406260	0.319206
H96	H	1.555896	-0.492735	0.318420
H97	H	1.425873	-0.481805	0.241471
H98	H	1.372394	0.021051	0.380888
C99	C	1.664351	0.229184	0.364315
H100	H	1.597365	0.252984	0.305934
H101	H	1.741601	0.221758	0.312789
H102	H	1.674082	0.265723	0.440582
C103	C	1.418078	0.279921	0.367476
H104	H	1.427322	0.315731	0.444831
H105	H	1.347579	0.302248	0.312649
H106	H	1.493531	0.276195	0.312806
H107	H	1.378403	0.016630	0.621052
H108	H	1.668560	-0.461614	0.138240
C109	C	1.283509	-0.439126	-0.128403
H110	H	1.336187	-0.478424	-0.182645
H111	H	1.257988	-0.390704	-0.182796
H112	H	1.210121	-0.464000	-0.098693
C113	C	1.505905	-0.295372	0.264923
H114	H	1.548006	-0.320382	0.344298
H115	H	1.418854	-0.305863	0.266108
H116	H	1.511241	-0.236455	0.266291
C117	C	1.709834	-0.313398	0.138789
H118	H	1.727694	-0.280019	0.060891
H119	H	1.764874	-0.364356	0.137567
H120	H	1.723102	-0.283511	0.222010
C121	C	1.508270	-0.458426	-0.266013
H122	H	1.437997	-0.488674	-0.243944
H123	H	1.569519	-0.493535	-0.317585
H124	H	1.479450	-0.410401	-0.319929
C125	C	1.502026	-0.296899	-0.264523
H126	H	1.432805	-0.257015	-0.238961
H127	H	1.470853	-0.340986	-0.316385
H128	H	1.560780	-0.270172	-0.319649
H129	H	1.672167	-0.317398	-0.140494
