data_functionalizedCrystal
_audit_creation_method	'MofGen! by Chris Wilmer'
_symmetry_space_group_name_H-M	'P1'
_symmetry_Int_Tables_number	1
_symmetry_cell_setting	triclinic
loop_
_symmetry_equiv_pos_as_xyz
  x,y,z
_cell_length_a	17.699083
_cell_length_b	9.016244
_cell_length_c	10.540535
_cell_angle_alpha	90.008135
_cell_angle_beta	83.903329
_cell_angle_gamma	89.996359
loop_
_atom_site_label
_atom_site_type_symbol
_atom_site_fract_x
_atom_site_fract_y
_atom_site_fract_z
O1	O	1.005115	0.123137	0.160522
O2	O	0.784873	0.123186	0.181406
O3	O	0.900020	0.123145	-0.013835
O4	O	0.889967	0.123177	0.355763
O5	O	0.900016	-0.123536	-0.013849
O6	O	0.784868	-0.123495	0.181392
O7	O	1.005110	-0.123544	0.160507
Cu8	Cu	0.894989	-0.146043	0.170948
Cu9	Cu	0.894994	0.145685	0.170965
O10	O	0.889963	-0.123503	0.355748
C11	C	0.756668	-0.000148	0.180650
C12	C	0.672636	-0.000130	0.178406
C13	C	0.624759	-0.000121	0.293008
C14	C	0.545802	-0.000140	0.290891
C15	C	0.514723	-0.000158	0.174170
C16	C	0.562606	-0.000172	0.059559
C17	C	0.641562	-0.000163	0.061677
C18	C	0.244188	-0.000210	0.051014
C19	C	0.165226	-0.000214	0.048904
C20	C	0.148427	-0.000186	0.280227
C21	C	0.227383	-0.000177	0.282346
C22	C	0.275259	-0.000199	0.167735
C23	C	0.360873	-0.000181	0.170032
C24	C	0.429110	-0.000166	0.171872
N25	N	0.894990	-0.351230	0.170935
C26	C	0.956817	-0.586238	0.066846
C27	C	0.956650	-0.414347	0.066457
C28	C	0.815872	-0.413640	0.142251
C29	C	0.816240	-0.585585	0.141522
C30	C	0.911588	-0.585726	0.304080
C31	C	0.913374	-0.413771	0.303176
C32	C	1.033315	-0.000207	0.161263
C33	C	1.117347	-0.000215	0.163508
C34	C	0.899265	-0.000196	-0.061131
C35	C	0.897011	-0.000197	-0.202038
N36	N	0.894999	0.350871	0.170968
C37	C	0.812939	-0.000168	-0.237171
C38	C	0.810568	0.000419	-0.383728
C39	C	0.935392	0.140421	-0.412057
C40	C	0.937181	0.140512	-0.265324
C41	C	0.938398	-0.140020	-0.265501
C42	C	0.934510	-0.141841	-0.411777
C43	C	0.890718	-0.000159	0.403045
C44	C	0.892972	-0.000148	0.543952
H45	H	0.506823	-0.000130	0.384212
C46	C	0.987920	-0.644295	0.341404
N47	N	1.045417	-0.688408	0.369502
C48	C	0.898479	0.283025	-0.210323
N49	N	0.869325	0.390366	-0.168902
H50	H	0.768732	-0.372756	0.216076
H51	H	0.998813	0.146485	-0.243420
C52	C	1.017356	0.146944	-0.477537
N53	N	1.079092	0.151855	-0.526861
C54	C	0.796635	-0.639796	0.010384
N55	N	0.781870	-0.680620	-0.088394
H56	H	0.994654	-0.150766	-0.461913
C57	C	1.036073	-0.357338	0.089472
N58	N	1.095900	-0.314406	0.106798
C59	C	0.856562	-0.355721	0.412728
N60	N	0.813766	-0.311995	0.495240
H61	H	0.537296	-0.000208	-0.035477
C62	C	0.296841	-0.000224	-0.075061
N63	N	0.336503	-0.000233	-0.170028
C64	C	0.896077	0.282320	-0.453054
N65	N	0.866460	0.389196	-0.483928
H66	H	0.801021	-0.370596	0.046285
H67	H	1.015802	-0.627589	0.083616
H68	H	0.252682	-0.000156	0.377391
H69	H	0.680543	-0.000170	-0.031644
C70	C	0.902949	-0.284021	-0.207522
N71	N	0.876240	-0.392475	-0.163850
C72	C	0.992007	-0.358665	0.332593
N73	N	1.051234	-0.317151	0.354746
C74	C	0.850702	-0.640681	0.408755
N75	N	0.804841	-0.682084	0.487587
C76	C	0.752175	-0.641793	0.240085
N77	N	0.703918	-0.684122	0.314315
C78	C	0.765742	-0.135674	-0.422563
N79	N	0.731973	-0.238178	-0.451805
C80	C	0.131042	-0.000252	-0.079503
N81	N	0.105295	-0.000284	-0.176215
C82	C	0.769314	-0.136323	-0.179672
N83	N	0.736453	-0.238873	-0.136345
H84	H	0.946295	-0.629470	-0.031382
C85	C	0.770058	0.135843	-0.177674
N86	N	0.737763	0.238292	-0.132864
C87	C	0.892808	-0.282338	-0.449679
N88	N	0.861397	-0.388157	-0.478235
H89	H	1.000252	-0.141405	-0.244437
H90	H	0.777563	0.101804	-0.411564
C91	C	0.658937	-0.000103	0.421412
N92	N	0.684678	-0.000097	0.518129
H93	H	0.109437	-0.000176	0.373548
H94	H	0.945975	-0.373234	-0.032335
