data_functionalizedCrystal
_audit_creation_method	'MofGen! by Chris Wilmer'
_symmetry_space_group_name_H-M	'P1'
_symmetry_Int_Tables_number	1
_symmetry_cell_setting	triclinic
loop_
_symmetry_equiv_pos_as_xyz
  x,y,z
_cell_length_a	19.121241
_cell_length_b	19.120786
_cell_length_c	12.759393
_cell_angle_alpha	92.476000
_cell_angle_beta	92.466075
_cell_angle_gamma	94.790376
loop_
_atom_site_label
_atom_site_type_symbol
_atom_site_fract_x
_atom_site_fract_y
_atom_site_fract_z
Zn1	Zn	1.063782	-0.234303	0.647081
Zn2	Zn	1.058666	-0.351995	0.463546
Zn3	Zn	0.946106	-0.239347	0.463566
Zn4	Zn	0.941061	-0.356950	0.631343
O5	O	1.002404	-0.295649	0.551384
O6	O	1.161569	-0.245730	0.629313
O7	O	1.043705	-0.337090	0.316523
O8	O	0.965968	-0.140206	0.494505
O9	O	1.157810	-0.332198	0.494470
O10	O	1.052424	-0.136500	0.629333
O11	O	0.961007	-0.254328	0.316538
O12	O	0.846971	-0.259133	0.479244
O13	O	0.957370	-0.340643	0.780456
O14	O	0.843264	-0.345535	0.602509
O15	O	1.047532	-0.250535	0.792019
O16	O	1.038813	-0.451124	0.479209
O17	O	0.952409	-0.454765	0.602489
C18	C	0.819586	-0.303420	0.539172
C19	C	0.741376	-0.306761	0.533971
C20	C	0.706587	-0.263383	0.601831
C21	C	0.633100	-0.266519	0.596935
C22	C	0.594403	-0.313037	0.524184
C23	C	0.629197	-0.356417	0.456317
C24	C	0.702683	-0.353277	0.461208
C25	C	0.372425	-0.324764	0.505894
C26	C	0.298934	-0.327902	0.501010
C27	C	0.302842	-0.238003	0.641627
C28	C	0.376329	-0.234870	0.646516
C29	C	0.411117	-0.278247	0.578646
C30	C	0.519287	-0.316245	0.519181
C31	C	0.486231	-0.275035	0.583645
C32	C	0.994528	-0.478476	0.539164
C33	C	0.991223	-0.556688	0.533975
C34	C	1.034650	-0.591443	0.601787
C35	C	1.031541	-0.664931	0.596914
C36	C	0.985010	-0.703663	0.524222
C37	C	0.941578	-0.668903	0.456407
C38	C	0.944683	-0.595416	0.461286
C39	C	0.973381	-0.925645	0.505979
C40	C	0.970280	-0.999137	0.501103
C41	C	1.060243	-0.995160	0.641612
C42	C	1.063347	-0.921672	0.646481
C43	C	1.019913	-0.886919	0.578669
C44	C	0.981833	-0.778780	0.519236
C45	C	1.023087	-0.811803	0.583660
C46	C	1.185935	-0.287848	0.563645
C47	C	1.264145	-0.284524	0.568870
C48	C	1.002459	-0.295579	0.825426
C49	C	1.002483	-0.295549	0.942206
C50	C	1.010329	-0.112107	0.563677
C51	C	1.013707	-0.033892	0.568915
C52	C	1.002391	-0.295666	0.278415
C53	C	1.002512	-0.295492	0.161658
C54	C	1.049434	-0.248622	1.003091
C55	C	1.049447	-0.248592	1.112818
C56	C	0.955556	-0.342421	1.100764
C57	C	0.955540	-0.342448	0.991039
C58	C	1.078195	-0.164497	1.270014
C59	C	1.125157	-0.117576	1.330903
C60	C	1.194277	-0.103864	1.300611
C61	C	1.216448	-0.137083	1.209431
C62	C	1.169489	-0.184009	1.148547
C63	C	1.100361	-0.197708	1.178838
C64	C	0.926799	-0.426543	0.833842
C65	C	0.879844	-0.473473	0.772956
C66	C	0.810723	-0.487192	0.803246
C67	C	0.788554	-0.453985	0.894429
C68	C	0.835509	-0.407055	0.955315
C69	C	0.904629	-0.393335	0.925017
H70	H	1.072544	-0.559912	0.660976
Br71	Br	1.199571	-0.229093	1.024812
Br72	Br	0.984382	-0.183092	1.311121
Br73	Br	0.907130	-1.051701	0.402436
Br74	Br	0.878417	-0.721466	0.357765
Br75	Br	1.310263	-0.118484	1.168336
H76	H	0.732271	-0.465159	0.919094
H77	H	0.274510	-0.202687	0.696883
Br78	Br	0.914425	-0.878489	0.413961
H79	H	1.066910	-0.693225	0.652126
H80	H	0.487772	-0.354121	0.459946
H81	H	1.095604	-1.023465	0.696821
H82	H	0.817453	-0.380017	1.029561
Br83	Br	0.419628	-0.383615	0.413757
H84	H	0.909319	-0.567119	0.406067
H85	H	1.232513	-0.065659	1.350194
Br86	Br	0.576680	-0.419544	0.357574
H87	H	0.267428	-0.365786	0.441766
H88	H	1.107099	-0.090529	1.405142
Br89	Br	0.749897	-0.412148	0.369107
H90	H	1.060970	-0.780266	0.642850
Br91	Br	0.538749	-0.211901	0.682370
H92	H	1.101237	-0.890138	0.705672
Br93	Br	0.891853	-0.406068	1.167045
Br94	Br	1.113141	-0.184974	0.936820
Br95	Br	0.747003	-0.550901	0.720631
Br96	Br	0.909934	-0.518549	0.649215
H97	H	0.983082	-0.415371	0.809165
Br98	Br	0.759097	-0.200253	0.700577
H99	H	0.604778	-0.231197	0.652196
H100	H	0.407831	-0.196992	0.705762
H101	H	0.943948	-0.810323	0.460048
