data_functionalizedCrystal
_audit_creation_method	'MofGen! by Chris Wilmer'
_symmetry_space_group_name_H-M	'P1'
_symmetry_Int_Tables_number	1
_symmetry_cell_setting	triclinic
loop_
_symmetry_equiv_pos_as_xyz
  x,y,z
_cell_length_a	10.723024
_cell_length_b	12.837942
_cell_length_c	9.798715
_cell_angle_alpha	89.997407
_cell_angle_beta	89.996609
_cell_angle_gamma	89.648405
loop_
_atom_site_label
_atom_site_type_symbol
_atom_site_fract_x
_atom_site_fract_y
_atom_site_fract_z
O1	O	1.672991	0.145513	-0.113481
O2	O	1.311352	0.159441	-0.113486
O3	O	1.484153	0.001517	-0.113475
O4	O	1.500190	0.303437	-0.113492
O5	O	1.484138	0.001517	0.113507
O6	O	1.311337	0.159441	0.113496
O7	O	1.672977	0.145512	0.113501
Zn8	Zn	1.492155	0.152477	0.149537
Zn9	Zn	1.492174	0.152477	-0.149522
O10	O	1.500176	0.303436	0.113490
C11	C	1.264735	0.158427	0.000004
C12	C	1.125851	0.155395	0.000003
C13	C	1.060466	0.243761	-0.000003
C14	C	0.916922	0.240629	-0.000004
C15	C	1.478728	-0.037142	0.000015
C16	C	1.462569	-0.152334	0.000012
C17	C	1.656825	-0.391911	-0.000014
C18	C	1.641648	-0.500145	-0.000016
C19	C	1.417040	-0.477037	-0.000005
C20	C	1.432217	-0.368804	-0.000002
C21	C	1.552113	-0.326245	-0.000005
C22	C	1.567289	-0.218009	0.000008
C23	C	1.342681	-0.194904	0.000009
C24	C	1.327505	-0.303137	0.000007
C25	C	1.719594	0.146526	0.000007
C26	C	1.858478	0.149559	-0.000000
C27	C	1.505601	0.342096	-0.000003
C28	C	1.521760	0.457288	-0.000010
N29	N	1.492151	0.152476	0.353636
N30	N	1.492187	0.152470	-0.353622
C31	C	1.564674	0.085875	0.421418
C32	C	1.564693	0.085872	0.578581
H33	H	1.075561	0.077423	-0.000028
H34	H	1.229888	-0.337804	0.000003
H35	H	1.626745	0.028855	0.363099
O36	O	1.417932	0.220457	0.577008
C37	C	1.292211	0.202952	0.611821
H38	H	1.287407	0.163044	0.715604
H39	H	1.240230	0.280596	0.616573
H40	H	1.247335	0.151064	0.531440
O41	O	1.120647	0.336697	-0.000062
C42	C	1.250570	0.319135	-0.000019
H43	H	1.271408	0.238366	-0.042990
H44	H	1.297939	0.380463	-0.065914
H45	H	1.287425	0.324374	0.108879
O46	O	1.683775	-0.176712	-0.000243
C47	C	1.748389	-0.210204	-0.117792
H48	H	1.678502	-0.233193	-0.199948
H49	H	1.809308	-0.144264	-0.157258
H50	H	1.809604	-0.280235	-0.091225
O51	O	1.241089	-0.130965	-0.000048
C52	C	1.280188	-0.026307	-0.000007
H53	H	1.378776	-0.021450	-0.042982
H54	H	1.214235	0.022210	-0.065900
H55	H	1.279168	0.004946	0.108890
H56	H	1.626788	0.028856	0.636869
O57	O	1.417974	0.220536	0.422990
C58	C	1.350563	0.282480	0.329452
H59	H	1.343865	0.240027	0.227560
H60	H	1.252793	0.297745	0.370863
H61	H	1.400517	0.359757	0.314298
H62	H	1.754449	-0.357259	-0.000002
H63	H	1.726916	-0.553607	-0.000028
H64	H	0.914686	0.073907	-0.000004
O65	O	1.300559	-0.518345	-0.000258
C66	C	1.235945	-0.484840	-0.117796
H67	H	1.305831	-0.461826	-0.199952
H68	H	1.175041	-0.550781	-0.157271
H69	H	1.174714	-0.414823	-0.091210
H70	H	0.860706	0.316277	-0.000015
