data_functionalizedCrystal
_audit_creation_method	'MofGen! by Chris Wilmer'
_symmetry_space_group_name_H-M	'P1'
_symmetry_Int_Tables_number	1
_symmetry_cell_setting	triclinic
loop_
_symmetry_equiv_pos_as_xyz
  x,y,z
_cell_length_a	13.897449
_cell_length_b	12.827892
_cell_length_c	12.827885
_cell_angle_alpha	89.970024
_cell_angle_beta	89.977049
_cell_angle_gamma	90.016218
loop_
_atom_site_label
_atom_site_type_symbol
_atom_site_fract_x
_atom_site_fract_y
_atom_site_fract_z
Zn1	Zn	1.474714	-0.415959	-0.590945
Zn2	Zn	1.808047	-0.082626	-0.257611
Zn3	Zn	2.141381	0.250707	0.075722
Zn4	Zn	1.474616	-0.590737	-0.416204
Zn5	Zn	1.807949	-0.257403	-0.082871
Zn6	Zn	2.141282	0.075930	0.250462
Zn7	Zn	1.313404	-0.416013	-0.416208
Zn8	Zn	1.646738	-0.082679	-0.082874
Zn9	Zn	1.980071	0.250654	0.250459
Zn10	Zn	1.313391	-0.590662	-0.590894
Zn11	Zn	1.646725	-0.257328	-0.257560
Zn12	Zn	1.980058	0.076005	0.075773
O13	O	1.394031	-0.503343	-0.503563
O14	O	1.727365	-0.170009	-0.170229
O15	O	2.060698	0.163324	0.163104
O16	O	1.609682	-0.439153	-0.567785
O17	O	1.943016	-0.105820	-0.234452
O18	O	2.276349	0.227514	0.098882
O19	O	1.453195	-0.567613	-0.269969
O20	O	1.786528	-0.234280	0.063365
O21	O	2.119862	0.099054	0.396698
O22	O	1.334849	-0.269770	-0.439410
O23	O	1.668182	0.063564	-0.106076
O24	O	2.001516	0.396897	0.227257
O25	O	1.609610	-0.567561	-0.439404
O26	O	1.942944	-0.234228	-0.106071
O27	O	2.276277	0.099105	0.227263
O28	O	1.453362	-0.269730	-0.567788
O29	O	1.786696	0.063603	-0.234455
O30	O	2.120029	0.396936	0.098879
O31	O	1.334754	-0.439244	-0.269971
O32	O	1.668087	-0.105911	0.063362
O33	O	2.001420	0.227423	0.396696
O34	O	1.178421	-0.439171	-0.439360
O35	O	1.511754	-0.105838	-0.106027
O36	O	1.845088	0.227495	0.227307
O37	O	1.334827	-0.567433	-0.737137
O38	O	1.668160	-0.234100	-0.403803
O39	O	2.001493	0.099234	-0.070470
O40	O	1.178411	-0.567485	-0.567701
O41	O	1.511745	-0.234152	-0.234368
O42	O	1.845078	0.099182	0.098965
O43	O	1.453350	-0.439080	-0.737174
O44	O	1.786683	-0.105747	-0.403841
O45	O	2.120016	0.227587	-0.070507
O46	O	1.453182	-0.736963	-0.439355
O47	O	1.786516	-0.403629	-0.106021
O48	O	2.119849	-0.070296	0.227312
O49	O	1.334731	-0.736908	-0.567698
O50	O	1.668065	-0.403574	-0.234365
O51	O	2.001398	-0.070241	0.098969
C52	C	1.143417	-0.503327	-0.503526
C53	C	1.476750	-0.169993	-0.170193
C54	C	1.810084	0.163340	0.163141
C55	C	1.036203	-0.503345	-0.503535
C56	C	1.369536	-0.170011	-0.170202
C57	C	1.702870	0.163322	0.163131
C58	C	1.393971	-0.774853	-0.503543
C59	C	1.727304	-0.441519	-0.170210
C60	C	2.060638	-0.108186	0.163123
C61	C	1.394033	-0.891006	-0.503570
C62	C	1.727367	-0.557672	-0.170237
C63	C	2.060700	-0.224339	0.163097
C64	C	1.452651	-0.942688	-0.567153
C65	C	1.785985	-0.609354	-0.233819
C66	C	2.119318	-0.276021	0.099514
C67	C	1.452717	-1.062738	-0.567182
C68	C	1.786051	-0.729404	-0.233848
C69	C	2.119384	-0.396071	0.099485
C70	C	0.949133	-0.503348	-0.503553
C71	C	1.282467	-0.170015	-0.170219
C72	C	1.615800	0.163318	0.163114
C73	C	0.839901	-0.503356	-0.503584
C74	C	1.173234	-0.170022	-0.170251
C75	C	1.506567	0.163311	0.163082
C76	C	1.645624	-0.503359	-0.503600
C77	C	1.978957	-0.170026	-0.170266
C78	C	2.312291	0.163307	0.163067
C79	C	1.752838	-0.503367	-0.503616
C80	C	2.086171	-0.170033	-0.170282
C81	C	2.419505	0.163300	0.163051
C82	C	1.394098	-0.503242	-0.776133
C83	C	1.727431	-0.169909	-0.442799
C84	C	2.060764	0.163424	-0.109466
C85	C	1.394126	-0.503200	-0.892286
C86	C	1.727459	-0.169866	-0.558953
C87	C	2.060793	0.163467	-0.225619
C88	C	1.394118	-0.230772	-0.503605
C89	C	1.727451	0.102561	-0.170271
C90	C	2.060785	0.435894	0.163062
C91	C	1.394155	-0.114619	-0.503623
C92	C	1.727488	0.218714	-0.170290
C93	C	2.060822	0.552047	0.163044
C94	C	1.335536	-0.439666	-0.944072
C95	C	1.668870	-0.106333	-0.610739
C96	C	2.002203	0.227001	-0.277405
C97	C	1.335564	-0.439620	-1.064122
C98	C	1.668898	-0.106287	-0.730789
C99	C	2.002231	0.227046	-0.397456
C100	C	1.394020	-0.503367	-0.232053
C101	C	1.727354	-0.170034	0.101281
C102	C	2.060687	0.163300	0.434614
C103	C	1.394179	-0.503116	-0.115900
C104	C	1.727512	-0.169782	0.217433
C105	C	2.060846	0.163551	0.550767
H106	H	1.502906	-1.107183	-0.621614
H107	H	1.836239	-0.773850	-0.288280
H108	H	2.169573	-0.440517	0.045053
H109	H	1.444346	-0.557508	-1.071372
H110	H	1.777680	-0.224174	-0.738039
H111	H	2.111013	0.109159	-0.404705
O112	O	1.327676	-1.055756	-0.431509
O113	O	1.661010	-0.722422	-0.098176
O114	O	1.994343	-0.389089	0.235157
H115	H	1.344264	-1.076686	-0.349496
H116	H	1.677597	-0.743353	-0.016163
H117	H	2.010931	-0.410019	0.317170
O118	O	1.460601	-0.575218	-0.951265
O119	O	1.793935	-0.241885	-0.617931
O120	O	2.127268	0.091449	-0.284598
H121	H	1.509670	-0.528390	-1.001003
H122	H	1.843004	-0.195057	-0.667669
H123	H	2.176337	0.138276	-0.334336
H124	H	1.343892	-0.935636	-0.449161
H125	H	1.677226	-0.602302	-0.115827
H126	H	2.010559	-0.268969	0.217506
O127	O	1.519073	-0.883586	-0.639232
O128	O	1.852407	-0.550253	-0.305899
O129	O	2.185740	-0.216919	0.027434
H130	H	1.508605	-0.798568	-0.627891
H131	H	1.841938	-0.465235	-0.294558
H132	H	2.175271	-0.131901	0.038776
H133	H	1.285351	-0.385311	-0.899531
H134	H	1.618684	-0.051978	-0.566198
H135	H	1.952018	0.281356	-0.232864
O136	O	1.269127	-0.367550	-1.123100
O137	O	1.602460	-0.034216	-0.789766
O138	O	1.935793	0.299117	-0.456433
H139	H	1.279577	-0.378821	-1.208136
H140	H	1.612910	-0.045488	-0.874803
H141	H	1.946243	0.287846	-0.541470
