data_functionalizedCrystal
_audit_creation_method	'MofGen! by Chris Wilmer'
_symmetry_space_group_name_H-M	'P1'
_symmetry_Int_Tables_number	1
_symmetry_cell_setting	triclinic
loop_
_symmetry_equiv_pos_as_xyz
  x,y,z
_cell_length_a	16.992694
_cell_length_b	10.723024
_cell_length_c	15.455313
_cell_angle_alpha	92.691723
_cell_angle_beta	87.142206
_cell_angle_gamma	87.568046
loop_
_atom_site_label
_atom_site_type_symbol
_atom_site_fract_x
_atom_site_fract_y
_atom_site_fract_z
O1	O	1.045219	0.259622	-0.072018
O2	O	0.816920	0.256716	-0.072044
O3	O	0.936335	0.077046	-0.072027
O4	O	0.925803	0.439291	-0.072035
O5	O	0.929506	0.087275	0.072234
O6	O	0.810091	0.266945	0.072217
O7	O	1.038390	0.269851	0.072243
Cu8	Cu	0.923617	0.269332	0.085402
Cu9	Cu	0.931693	0.257235	-0.085203
O10	O	0.918974	0.449520	0.072226
C11	C	0.784273	0.258094	0.000083
C12	C	0.697169	0.246945	0.000074
C13	C	0.647507	0.354505	0.000072
C14	C	0.565663	0.344024	0.000084
C15	C	0.533484	0.225982	0.000092
C16	C	0.583152	0.118414	0.000096
C17	C	0.664993	0.128896	0.000090
C18	C	0.289651	0.182535	0.000116
C19	C	0.207803	0.172061	0.000119
C20	C	0.190320	0.397673	0.000109
C21	C	0.272165	0.408144	0.000098
C22	C	0.321825	0.300577	0.000107
N23	N	0.449827	0.215266	0.000102
N24	N	0.405480	0.311295	0.000103
C25	C	0.932154	0.035595	0.000102
C26	C	0.929861	-0.103157	0.000099
C27	C	0.996680	-0.172386	0.000105
C28	C	0.994312	-0.315793	0.000102
C29	C	1.071037	0.268473	0.000114
C30	C	1.158141	0.279621	0.000118
C31	C	0.923155	0.490971	0.000095
C32	C	0.925449	0.629723	0.000093
N33	N	0.917942	0.277840	0.205397
N34	N	0.937374	0.248717	-0.205198
C35	C	0.968692	0.201542	0.250798
C36	C	0.964408	0.207989	0.341605
C37	C	0.909377	0.290741	0.387010
C38	C	0.858622	0.367042	0.341602
C39	C	0.862903	0.360588	0.250797
C40	C	0.890899	0.318564	0.658589
C41	C	0.886624	0.325015	0.749401
C42	C	0.992409	0.165960	0.749398
C43	C	0.996689	0.159518	0.658590
C44	C	0.945931	0.235815	0.613191
N45	N	0.904999	0.297335	0.479830
N46	N	0.950306	0.229213	0.520373
H47	H	0.149878	0.485248	0.000104
H48	H	1.041499	0.092135	0.621624
H49	H	1.055640	-0.125486	0.000117
O50	O	0.849668	-0.291473	0.000095
H51	H	0.817781	-0.316874	-0.058703
O52	O	1.070090	-0.394601	0.000111
H53	H	1.056339	-0.494871	0.000102
O54	O	0.851758	-0.165267	0.000098
H55	H	0.850192	-0.228478	-0.058698
O56	O	0.808158	0.442859	0.201817
H57	H	0.843447	0.503915	0.160420
H58	H	1.013507	0.134162	0.213836
O59	O	1.019159	0.125721	0.390577
H60	H	1.058156	0.067114	0.343749
H61	H	1.033733	0.103841	0.786370
O62	O	0.827257	0.414257	0.798379
H63	H	0.792673	0.466216	0.751555
H64	H	0.849571	0.380691	0.621632
O65	O	0.343203	0.066515	0.000124
H66	H	0.383691	0.061718	-0.058671
O67	O	0.799271	0.456309	0.390568
H68	H	0.758913	0.402868	0.431960
O69	O	0.682214	0.481824	0.000072
H70	H	0.633928	0.554856	0.000085
O71	O	0.512097	0.460034	0.000083
H72	H	0.548223	0.543876	0.000066
O73	O	0.548443	-0.008903	0.000110
H74	H	0.596727	-0.081935	0.000120
O75	O	0.306863	0.535470	0.000110
H76	H	0.289731	0.583394	-0.058681
O77	O	0.173090	0.044739	0.000136
H78	H	0.221370	-0.028300	0.000150
O79	O	0.718564	0.012887	0.000089
H80	H	0.682440	-0.070958	0.000087
