data_functionalizedCrystal
_audit_creation_method	'MofGen! by Chris Wilmer'
_symmetry_space_group_name_H-M	'P1'
_symmetry_Int_Tables_number	1
_symmetry_cell_setting	triclinic
loop_
_symmetry_equiv_pos_as_xyz
  x,y,z
_cell_length_a	18.050591
_cell_length_b	21.295417
_cell_length_c	18.050582
_cell_angle_alpha	90.025708
_cell_angle_beta	90.020922
_cell_angle_gamma	90.025707
loop_
_atom_site_label
_atom_site_type_symbol
_atom_site_fract_x
_atom_site_fract_y
_atom_site_fract_z
Zn1	Zn	1.135285	-0.250716	0.420015
Zn2	Zn	1.135192	-0.355977	0.295818
Zn3	Zn	1.011104	-0.250719	0.295826
Zn4	Zn	1.011049	-0.355944	0.419954
O5	O	1.073158	-0.303339	0.357903
O6	O	1.239197	-0.264692	0.403563
O7	O	1.118716	-0.342030	0.191895
O8	O	1.027639	-0.162629	0.312329
O9	O	1.239129	-0.342027	0.312316
O10	O	1.118874	-0.162627	0.403570
O11	O	1.027549	-0.264697	0.191901
O12	O	0.907172	-0.264664	0.312270
O13	O	1.027545	-0.341970	0.523887
O14	O	0.907132	-0.341973	0.403466
O15	O	1.118820	-0.264660	0.523932
O16	O	1.118663	-0.444062	0.312256
O17	O	1.027455	-0.444038	0.403458
C18	C	0.880205	-0.303316	0.357862
C19	C	0.797660	-0.303321	0.357862
C20	C	0.598210	-0.261232	0.308384
C21	C	0.548788	-0.318646	0.290105
C22	C	0.646529	-0.303340	0.357896
C23	C	0.548869	-0.245945	0.376174
C24	C	0.500544	-0.303353	0.357927
C25	C	0.598195	-0.360785	0.339581
C26	C	0.598280	-0.288045	0.425682
C27	C	0.548881	-0.345499	0.407428
C28	C	0.730628	-0.303331	0.357876
C29	C	0.416448	-0.303368	0.357947
C30	C	1.073063	-0.466891	0.357866
C31	C	1.073090	-0.536859	0.357875
C32	C	1.120569	-0.569667	0.405418
C33	C	1.120595	-0.635410	0.405436
C34	C	1.073151	-0.668341	0.357898
C35	C	1.025662	-0.635525	0.310352
C36	C	1.025632	-0.569784	0.310340
N37	N	1.067546	-0.771598	0.292903
N38	N	1.067579	-0.834050	0.292916
C39	C	1.073237	-0.866416	0.357932
N40	N	1.078876	-0.833972	0.422935
N41	N	1.078846	-0.771515	0.422920
C42	C	1.073178	-0.739627	0.357906
C43	C	1.120747	-0.970510	0.405499
C44	C	1.120768	-1.036254	0.405518
C45	C	1.025839	-1.036368	0.310427
C46	C	1.025814	-0.970625	0.310414
C47	C	1.073272	-0.937700	0.357949
C48	C	1.266863	-0.303363	0.357945
C49	C	1.349409	-0.303373	0.357963
C50	C	1.073187	-0.303311	0.551609
C51	C	1.073199	-0.303299	0.634155
C52	C	1.073273	-0.139149	0.357957
C53	C	1.073322	-0.069181	0.357980
C54	C	1.073171	-0.303322	0.164951
C55	C	1.073303	-0.303156	0.082406
C56	C	1.023601	-0.345283	0.833581
C57	C	1.091356	-0.360675	0.882979
C58	C	1.073236	-0.303251	0.785285
C59	C	1.005518	-0.287842	0.882970
C60	C	1.073265	-0.303206	0.931271
C61	C	1.141026	-0.318673	0.833596
C62	C	1.055142	-0.245814	0.833582
C63	C	1.122944	-0.261183	0.882958
C64	C	1.073218	-0.303279	0.701187
C65	C	1.073291	-0.303178	1.015367
H66	H	0.619772	-0.409343	0.324071
H67	H	0.527359	-0.381156	0.449311
H68	H	0.527163	-0.197408	0.391595
N69	N	0.977327	-0.937104	0.261842
N70	N	1.003466	-0.900421	0.214539
H71	H	0.969217	-0.876744	0.180237
H72	H	0.620036	-0.275080	0.482976
N73	N	1.035893	-0.184927	0.806323
N74	N	1.033345	-0.175105	0.738102
H75	H	1.019742	-0.132104	0.718847
N76	N	1.169111	-0.668923	0.453997
N77	N	1.237637	-0.661533	0.449129
H78	H	1.271903	-0.685200	0.483424
N79	N	1.169199	-0.936879	0.454079
N80	N	1.143011	-0.900194	0.501370
H81	H	1.177228	-0.876445	0.535685
H82	H	1.159210	-0.542862	0.444125
H83	H	0.987031	-0.662342	0.271647
H84	H	0.948238	-0.274828	0.904659
N85	N	0.625376	-0.216601	0.255809
N86	N	0.580918	-0.185088	0.217926
H87	H	0.600103	-0.153569	0.180794
N88	N	0.977124	-0.536277	0.261771
N89	N	0.934760	-0.565684	0.219333
H90	H	0.900500	-0.542019	0.185030
N91	N	1.169267	-1.069759	0.454097
N92	N	1.211631	-1.040351	0.496534
H93	H	1.245884	-1.064015	0.530845
N94	N	0.977372	-1.070008	0.261878
N95	N	0.977401	-1.128705	0.261898
H96	H	0.943168	-1.152467	0.227611
N97	N	0.521526	-0.334886	0.218204
N98	N	0.537325	-0.301426	0.163565
H99	H	0.518076	-0.312893	0.112783
H100	H	0.981667	-0.380875	0.811902
N101	N	1.110572	-0.421588	0.910193
N102	N	1.071137	-0.467960	0.894367
H103	H	1.084703	-0.510981	0.913585
H104	H	1.198323	-0.331742	0.811998
N105	N	1.175680	-0.216570	0.909978
N106	N	1.242707	-0.222346	0.894004
H107	H	1.279955	-0.190840	0.913087
