data_functionalizedCrystal
_audit_creation_method	'MofGen! by Chris Wilmer'
_symmetry_space_group_name_H-M	'P1'
_symmetry_Int_Tables_number	1
_symmetry_cell_setting	triclinic
loop_
_symmetry_equiv_pos_as_xyz
  x,y,z
_cell_length_a	17.019386
_cell_length_b	16.992695
_cell_length_c	16.053770
_cell_angle_alpha	87.264060
_cell_angle_beta	96.751283
_cell_angle_gamma	92.973293
loop_
_atom_site_label
_atom_site_type_symbol
_atom_site_fract_x
_atom_site_fract_y
_atom_site_fract_z
O1	O	-1.059543	0.106173	-0.145533
O2	O	-0.829938	0.118190	-0.129044
O3	O	-0.943820	-0.001963	-0.137216
O4	O	-0.945662	0.226326	-0.137361
O5	O	-0.937513	-0.007911	0.002097
O6	O	-0.823631	0.112243	0.010269
O7	O	-1.053236	0.100225	-0.006220
Zn8	Zn	-0.937432	0.105290	0.024143
Zn9	Zn	-0.945742	0.113126	-0.159408
O10	O	-0.939354	0.220379	0.001952
C11	C	-0.797270	0.114641	-0.057267
C12	C	-0.709323	0.112917	-0.050951
C13	C	-0.671437	0.115350	-0.123917
C14	C	-0.588801	0.113742	-0.117970
C15	C	-0.544053	0.109695	-0.039056
C16	C	-0.581945	0.107263	0.033915
C17	C	-0.664579	0.108877	0.027967
C18	C	-0.294379	0.104665	-0.017298
C19	C	-0.211739	0.103049	-0.011355
C20	C	-0.218600	0.109529	-0.163241
C21	C	-0.301236	0.111138	-0.169182
C22	C	-0.339121	0.108711	-0.096211
C23	C	-0.459586	0.108048	-0.032975
C24	C	-0.423586	0.110363	-0.102293
C25	C	-0.938298	-0.034154	-0.067389
C26	C	-0.931232	-0.121213	-0.066882
C27	C	-0.999408	-0.171316	-0.071777
C28	C	-0.992765	-0.253115	-0.071308
C29	C	-0.917945	-0.284811	-0.065938
C30	C	-0.849764	-0.234701	-0.061044
C31	C	-0.856408	-0.152903	-0.061520
C32	C	-0.890406	-0.528464	-0.063971
C33	C	-0.883767	-0.610268	-0.063494
C34	C	-1.026768	-0.628677	-0.073759
C35	C	-1.033406	-0.546876	-0.074229
C36	C	-0.965225	-0.496774	-0.069340
N37	N	-0.911152	-0.368423	-0.065455
N38	N	-0.972019	-0.413163	-0.069829
C39	C	-0.085905	0.103771	-0.077999
C40	C	-0.173852	0.105482	-0.084321
C41	C	-0.944876	0.252570	-0.067877
C42	C	-0.951942	0.339629	-0.068389
N43	N	-0.951414	0.118468	-0.284676
C44	C	-0.902495	0.072541	-0.324848
C45	C	-0.906473	0.076257	-0.412541
C46	C	-0.959366	0.125904	-0.460061
C47	C	-1.008290	0.171832	-0.419884
C48	C	-1.004316	0.168112	-0.332192
C49	C	-0.976716	0.142150	-0.722720
C50	C	-0.980685	0.145868	-0.810417
C51	C	-0.878869	0.050291	-0.803068
C52	C	-0.874895	0.046579	-0.715375
C53	C	-0.923822	0.092504	-0.675206
N54	N	-0.963432	0.129704	-0.549697
N55	N	-0.919760	0.088699	-0.585571
N56	N	-0.931766	0.099941	0.149412
H57	H	-0.325215	0.102683	0.042121
H58	H	-0.831825	0.006150	-0.676690
H59	H	-0.822835	-0.636072	-0.059107
Cl60	Cl	-1.078476	-0.316099	-0.077460
Cl61	Cl	-0.727683	0.120433	-0.223128
Cl62	Cl	-0.541175	0.116802	-0.209703
H63	H	-0.337665	0.114428	-0.233442
Cl64	Cl	-1.093472	-0.131479	-0.078521
H65	H	-1.016555	0.179546	-0.690025
Cl66	Cl	-0.479841	0.115453	-0.201495
Cl67	Cl	-0.835994	0.010128	-0.265116
Cl68	Cl	-0.170970	0.112572	-0.254971
H69	H	-0.423143	0.104750	0.031277
H70	H	-0.175306	0.099775	0.052909
Cl71	Cl	-1.127471	-0.507036	-0.081008
H72	H	-1.051360	0.212252	-0.458582
Cl73	Cl	-0.525690	0.102181	0.133122
Cl74	Cl	-0.770698	-0.089916	-0.055368
H75	H	-0.695425	0.106899	0.087384
Cl76	Cl	-1.112475	-0.691666	-0.079907
Cl77	Cl	-0.804692	-0.465488	-0.057827
Cl78	Cl	-1.065819	0.225848	-0.281691
Cl79	Cl	-0.755704	-0.274547	-0.054303
Cl80	Cl	-0.844949	0.018542	-0.463037
H81	H	-1.023755	0.186302	-0.849106
Cl82	Cl	-0.817368	-0.007443	-0.853572
