data_functionalizedCrystal
_audit_creation_method	'MofGen! by Chris Wilmer'
_symmetry_space_group_name_H-M	'P1'
_symmetry_Int_Tables_number	1
_symmetry_cell_setting	triclinic
loop_
_symmetry_equiv_pos_as_xyz
  x,y,z
_cell_length_a	27.731993
_cell_length_b	17.038272
_cell_length_c	16.098538
_cell_angle_alpha	87.079695
_cell_angle_beta	87.296179
_cell_angle_gamma	93.134026
loop_
_atom_site_label
_atom_site_type_symbol
_atom_site_fract_x
_atom_site_fract_y
_atom_site_fract_z
O1	O	0.647202	-0.089272	-0.069031
O2	O	0.507055	-0.103452	-0.069082
O3	O	0.576295	0.017443	-0.069050
O4	O	0.577961	-0.210167	-0.069063
O5	O	0.572249	0.010409	0.069461
O6	O	0.503009	-0.110486	0.069429
O7	O	0.643156	-0.096306	0.069480
Zn8	Zn	0.572440	-0.104513	0.091446
Zn9	Zn	0.577770	-0.095245	-0.091048
O10	O	0.573915	-0.217201	0.069448
C11	C	0.487011	-0.106678	0.000167
C12	C	0.433315	-0.105800	0.000148
C13	C	0.052069	-0.095613	-0.075314
C14	C	0.253880	-0.098954	-0.075336
O15	O	0.281847	-0.096093	-0.139550
N16	N	0.276914	-0.103206	0.000164
C17	C	0.249492	-0.106619	0.075676
O18	O	0.273715	-0.110304	0.139893
C19	C	0.047682	-0.103273	0.075698
C20	C	0.024651	-0.099028	0.000192
C21	C	0.029037	-0.091368	-0.150813
C22	C	-0.021413	-0.090537	-0.150807
C23	C	-0.048831	-0.093952	-0.075301
C24	C	-0.025799	-0.098197	0.000199
C25	C	0.020262	-0.106680	0.151209
C26	C	-0.030194	-0.105841	0.151207
C27	C	-0.053225	-0.101596	0.075702
C28	C	-0.103667	-0.100781	0.075711
N29	N	-0.126701	-0.096529	0.000210
C30	C	-0.099283	-0.093114	-0.075296
C31	C	0.355445	-0.108377	0.075659
C32	C	0.405897	-0.109215	0.075654
C33	C	0.410281	-0.101548	-0.075359
C34	C	0.359828	-0.100716	-0.075353
C35	C	0.332411	-0.104124	0.000158
C36	C	-0.205232	-0.091370	-0.075276
C37	C	-0.255687	-0.090543	-0.075263
C38	C	-0.260066	-0.098206	0.075749
C39	C	-0.209616	-0.099037	0.075736
C40	C	-0.182200	-0.095616	0.000217
O41	O	-0.131664	-0.103631	0.139891
O42	O	-0.123514	-0.089411	-0.139503
C43	C	0.102519	-0.096444	-0.075320
C44	C	0.125550	-0.100689	0.000179
C45	C	0.098132	-0.104104	0.075685
C46	C	0.176002	-0.101527	0.000174
C47	C	0.203421	-0.098113	-0.075332
C48	C	0.180387	-0.093860	-0.150833
C49	C	0.129937	-0.093029	-0.150826
C50	C	0.121166	-0.108357	0.151186
C51	C	0.171616	-0.109188	0.151173
C52	C	0.199034	-0.105773	0.075667
C53	C	0.572757	0.043036	0.000205
C54	C	0.568236	0.129775	0.000203
C55	C	0.663199	-0.093080	0.000229
C56	C	0.716895	-0.093958	0.000243
C57	C	0.577453	-0.242794	0.000192
C58	C	0.581974	-0.329533	0.000188
N59	N	0.568805	-0.110838	0.215994
C60	C	0.609739	0.180385	0.000219
C61	C	0.605489	0.261885	0.000209
C62	C	0.559736	0.292773	0.000190
C63	C	0.518230	0.242157	0.000171
C64	C	0.522481	0.160658	0.000175
C65	C	0.544719	0.538352	0.000173
C66	C	0.540471	0.619857	0.000172
C67	C	0.627731	0.639580	0.000208
C68	C	0.631978	0.558079	0.000217
C69	C	0.590472	0.507470	0.000194
C70	C	0.555390	0.376079	0.000183
C71	C	0.594818	0.424166	0.000195
N72	N	0.581408	-0.088914	-0.215596
C73	C	0.598206	-0.059543	0.259592
C74	C	0.595668	-0.063975	0.346780
C75	C	0.563732	-0.119706	0.390368
C76	C	0.534328	-0.171003	0.346763
C77	C	0.536864	-0.166567	0.259577
C78	C	0.554540	-0.135775	0.653614
C79	C	0.552008	-0.140209	0.740806
C80	C	0.613348	-0.033179	0.740817
C81	C	0.615882	-0.028751	0.653629
C82	C	0.586477	-0.080045	0.610032
C83	C	0.561139	-0.124239	0.479488
C84	C	0.589068	-0.075508	0.520913
H85	H	0.341079	-0.097259	-0.136836
F86	F	0.527151	-0.183553	0.525882
H87	H	0.641887	0.016630	0.618141
H88	H	0.646997	0.155243	0.000240
H89	H	-0.282399	-0.100989	0.137224
F90	F	0.105431	-0.088511	-0.231190
F91	F	0.044763	-0.111198	0.231574
H92	H	-0.274436	-0.087089	-0.136752
H93	H	-0.190864	-0.102509	0.137219
F94	F	0.644640	0.021410	0.787221
H95	H	0.661523	0.680795	0.000225
H96	H	0.619608	-0.022207	0.382277
H97	H	0.510922	0.497155	0.000155
H98	H	0.202719	-0.091084	-0.212312
H99	H	0.526000	-0.185595	0.776291
H100	H	0.624214	-0.014165	0.224109
H101	H	0.530598	-0.177542	0.618124
H102	H	0.508323	-0.216378	0.382257
F103	F	0.058210	-0.087731	-0.231184
H104	H	0.432614	-0.098770	-0.136839
H105	H	-0.182915	-0.088586	-0.136771
H106	H	-0.040161	-0.087077	-0.212291
H107	H	0.480976	0.267312	0.000150
F108	F	0.430403	-0.113748	0.156017
F109	F	0.505570	-0.221161	0.213177
F110	F	0.506697	0.408960	0.000159
F111	F	0.623054	-0.016194	0.474523
F112	F	0.478307	0.106795	0.000156
H113	H	-0.052515	-0.108623	0.212699
F114	F	0.326271	-0.112013	0.156034
H115	H	0.190364	-0.112651	0.212664
F116	F	0.649663	0.315746	0.000228
F117	F	0.091992	-0.111997	0.231554
F118	F	0.680675	0.525214	0.000216
H119	H	0.632071	0.399014	0.000192
H120	H	0.503211	0.645001	0.000170
