data_functionalizedCrystal
_audit_creation_method	'MofGen! by Chris Wilmer'
_symmetry_space_group_name_H-M	'P1'
_symmetry_Int_Tables_number	1
_symmetry_cell_setting	triclinic
loop_
_symmetry_equiv_pos_as_xyz
  x,y,z
_cell_length_a	15.995288
_cell_length_b	9.130313
_cell_length_c	10.654551
_cell_angle_alpha	90.001232
_cell_angle_beta	96.023895
_cell_angle_gamma	89.994019
loop_
_atom_site_label
_atom_site_type_symbol
_atom_site_fract_x
_atom_site_fract_y
_atom_site_fract_z
O1	O	-1.111956	0.121870	0.161495
O2	O	-0.868290	0.121856	0.181566
O3	O	-0.995725	0.121860	-0.011284
O4	O	-0.984521	0.121866	0.354345
O5	O	-0.995715	-0.121739	-0.011283
O6	O	-0.868280	-0.121743	0.181566
O7	O	-1.111946	-0.121729	0.161495
Cu8	Cu	-0.990112	-0.143978	0.171531
Cu9	Cu	-0.990124	0.144105	0.171531
O10	O	-0.984511	-0.121733	0.354345
C11	C	-0.837085	0.000054	0.180751
C12	C	-0.744117	0.000049	0.178304
N13	N	-0.990110	-0.346601	0.171530
C14	C	-0.573907	0.000057	0.173787
C15	C	-0.527239	0.000055	0.311097
C16	C	-0.430536	0.000609	0.308599
C17	C	-0.406324	0.000063	0.169341
C18	C	-0.447066	0.138895	0.101215
C19	C	-0.543720	0.139010	0.104683
C20	C	-0.543977	-0.138017	0.102650
C21	C	-0.447032	-0.139840	0.102669
C22	C	-0.311613	0.000071	0.166821
C23	C	-0.668618	0.000058	0.176303
C24	C	-1.041334	-0.423243	0.247726
C25	C	-1.041348	-0.576580	0.247718
C26	C	-0.938906	-0.576619	0.095317
C27	C	-0.938898	-0.423285	0.095319
C28	C	-0.143150	0.000071	0.162328
C29	C	-0.236113	0.000070	0.164823
C30	C	-0.994897	0.000063	-0.058070
C31	C	-0.992435	0.000070	-0.197481
N32	N	-0.990132	0.346728	0.171521
C33	C	-0.991285	0.132857	-0.262969
C34	C	-0.988965	0.132858	-0.393958
C35	C	-0.988949	-0.132727	-0.393960
C36	C	-0.991263	-0.132727	-0.262972
C37	C	-0.985339	0.000067	0.401132
C38	C	-0.987801	0.000070	0.540542
H39	H	-0.402379	-0.098889	0.362129
C40	C	-1.065706	-0.286800	-0.129792
C41	C	-0.992527	-0.278696	-0.190973
H42	H	-1.066479	-0.376907	-0.085337
H43	H	-1.113537	-0.281293	-0.190482
H44	H	-1.066721	-0.207704	-0.072047
H45	H	-0.991515	-0.357786	-0.248726
H46	H	-0.944683	-0.284217	-0.130276
C47	C	-1.065727	0.286952	-0.129780
C48	C	-0.992550	0.278816	-0.190964
H49	H	-1.066502	0.377067	-0.085332
H50	H	-1.066743	0.207872	-0.072041
H51	H	-1.113565	0.281459	-0.190479
H52	H	-0.944712	0.284299	-0.130264
H53	H	-0.991526	0.357918	-0.248709
H54	H	-0.546047	-0.099486	0.366276
H55	H	-0.547167	0.099464	0.365454
C56	C	-1.060076	-0.359097	-0.448418
C57	C	-0.987670	-0.278696	-0.465948
H58	H	-1.059284	-0.449218	-0.492852
H59	H	-1.108432	-0.304536	-0.479482
H60	H	-1.061607	-0.378084	-0.361028
H61	H	-0.986142	-0.259700	-0.553337
H62	H	-0.939301	-0.333269	-0.434889
H63	H	-0.562329	0.243183	0.153778
C64	C	-0.458211	0.216540	0.426043
C65	C	-0.393359	0.135754	0.380531
H66	H	-0.435259	0.299984	0.470441
H67	H	-0.486546	0.157182	0.481325
H68	H	-0.496805	0.247264	0.357222
H69	H	-0.354769	0.105022	0.449353
H70	H	-0.365011	0.195124	0.325245
C71	C	-0.473014	0.361724	0.210363
C72	C	-0.409163	0.278908	0.164304
H73	H	-0.449614	0.448163	0.249309
H74	H	-0.499059	0.305681	0.270510
H75	H	-0.513666	0.387513	0.142496
H76	H	-0.368514	0.253109	0.232173
H77	H	-0.383105	0.334962	0.104152
C78	C	-0.501153	-0.363638	0.205918
C79	C	-0.571990	-0.280122	0.163673
H80	H	-0.518450	-0.451364	0.243594
H81	H	-0.466043	-0.309082	0.266344
H82	H	-0.470934	-0.387128	0.136458
H83	H	-0.602207	-0.256622	0.233136
H84	H	-0.607114	-0.334689	0.103243
H85	H	-1.083035	-0.360811	0.309782
C86	C	-0.375043	-0.033003	-0.061613
C87	C	-0.425518	-0.151741	-0.034386
H88	H	-0.361763	-0.040345	-0.146230
H89	H	-0.324657	-0.033950	-0.005844
H90	H	-0.404484	0.055814	-0.051251
H91	H	-0.396074	-0.240558	-0.044740
H92	H	-0.475912	-0.150808	-0.090172
H93	H	-0.432372	0.143666	-0.001109
C94	C	-0.525037	0.151719	-0.115729
C95	C	-0.586504	0.147034	-0.031424
H96	H	-0.551449	0.156694	-0.199752
H97	H	-0.491340	0.065987	-0.105986
H98	H	-0.490643	0.235670	-0.098633
H99	H	-0.620894	0.063076	-0.048514
H100	H	-0.620215	0.232774	-0.041173
C101	C	-0.559067	-0.263173	-0.096651
C102	C	-0.586090	-0.139841	-0.034012
H103	H	-0.585066	-0.264282	-0.181018
H104	H	-0.574059	-0.349286	-0.054289
H105	H	-0.499749	-0.259577	-0.097143
H106	H	-0.645407	-0.143442	-0.033511
H107	H	-0.571103	-0.053706	-0.076385
H108	H	-1.083060	-0.638975	0.309763
H109	H	-0.897185	-0.360881	0.033264
C110	C	-0.916420	0.359232	-0.420129
C111	C	-0.987703	0.278823	-0.465942
H112	H	-0.915644	0.449352	-0.464565
H113	H	-0.867303	0.304676	-0.432010
H114	H	-0.917977	0.378222	-0.332744
H115	H	-0.986143	0.259823	-0.553326
H116	H	-1.036833	0.333391	-0.454073
H117	H	-0.419977	-0.242550	0.152419
H118	H	-0.897210	-0.639074	0.033270
