data_functionalizedCrystal
_audit_creation_method	'MofGen! by Chris Wilmer'
_symmetry_space_group_name_H-M	'P1'
_symmetry_Int_Tables_number	1
_symmetry_cell_setting	triclinic
loop_
_symmetry_equiv_pos_as_xyz
  x,y,z
_cell_length_a	26.374263
_cell_length_b	26.373608
_cell_length_c	26.370205
_cell_angle_alpha	60.005297
_cell_angle_beta	60.010839
_cell_angle_gamma	59.993700
loop_
_atom_site_label
_atom_site_type_symbol
_atom_site_fract_x
_atom_site_fract_y
_atom_site_fract_z
O1	O	0.070152	-0.740800	0.619517
O2	O	0.026377	-0.576764	0.499159
O3	O	0.130245	-0.680560	0.499088
O4	O	-0.033715	-0.637003	0.619589
O5	O	0.164701	-0.646107	0.533470
O6	O	0.060833	-0.542310	0.533541
O7	O	0.104608	-0.706346	0.653899
Cu8	Cu	0.085867	-0.621182	0.596859
Cu9	Cu	0.045119	-0.661927	0.556199
O10	O	0.000741	-0.602549	0.653971
N11	N	0.114528	-0.592529	0.625461
N12	N	0.016463	-0.690587	0.527598
C13	C	0.181428	-0.355400	0.692330
C14	C	0.181530	-0.525690	0.862573
C15	C	0.181440	-0.525667	0.692313
C16	C	0.351736	-0.525673	0.692271
C17	C	0.200174	-0.411588	0.711047
C18	C	0.200232	-0.506954	0.806384
C19	C	0.295546	-0.506943	0.711016
C20	C	0.200182	-0.506940	0.711037
C21	C	0.157567	-0.283881	0.668507
C22	C	0.157587	-0.549500	0.668479
C23	C	0.224035	-0.483107	0.734871
C24	C	0.455739	-0.507754	0.637520
C25	C	0.520749	-0.529425	0.615835
C26	C	0.520768	-0.634611	0.655947
C27	C	0.455759	-0.612939	0.677633
C28	C	0.173240	-0.251367	0.604595
C29	C	0.151546	-0.186351	0.582941
C30	C	0.098512	-0.186369	0.689113
C31	C	0.120206	-0.251385	0.710768
C32	C	0.093669	-0.533798	0.684205
C33	C	0.071992	-0.555464	0.662532
C34	C	0.178144	-0.608536	0.609422
C35	C	0.199825	-0.586869	0.631088
C36	C	0.093821	-0.533842	0.966616
C37	C	0.072187	-0.555526	1.031630
C38	C	0.178370	-0.608608	1.031591
C39	C	0.200004	-0.586926	0.966576
C40	C	0.157728	-0.549541	0.934090
C41	C	0.423247	-0.549509	0.668416
C42	C	-0.097522	-0.709158	0.508557
C43	C	-0.002050	-0.709295	0.413344
C44	C	-0.002241	-0.804604	0.508735
C45	C	-0.002225	-0.709288	0.508793
C46	C	-0.026009	-0.733087	0.484858
N47	N	0.552340	-0.592538	0.625346
O48	O	0.750867	-0.598274	0.477076
O49	O	0.751048	-0.718989	0.640960
O50	O	0.750981	-0.718715	0.537020
O51	O	0.750934	-0.598547	0.581017
O52	O	0.647701	-0.684348	0.571512
O53	O	0.647768	-0.684622	0.675452
O54	O	0.647587	-0.563907	0.511569
Cu55	Cu	0.638247	-0.621127	0.596660
Cu56	Cu	0.760388	-0.661769	0.555869
O57	O	0.647654	-0.564181	0.615509
N58	N	0.846295	-0.690358	0.527176
N59	N	0.114503	-0.154778	0.625499
O60	O	-0.033701	0.043855	0.619632
O61	O	0.130190	0.043858	0.498933
O62	O	0.026233	0.043841	0.499224
O63	O	0.070257	0.043872	0.619341
O64	O	0.060690	-0.059448	0.533654
O65	O	0.164647	-0.059431	0.533363
O66	O	0.000756	-0.059434	0.654062
Cu67	Cu	0.085848	-0.068863	0.596857
Cu68	Cu	0.045099	0.053287	0.556138
O69	O	0.104714	-0.059417	0.653771
N70	N	0.016435	0.139202	0.527497
N71	N	0.114760	-0.592585	1.063190
O72	O	0.108896	-0.740779	1.261808
O73	O	-0.011787	-0.576838	1.261822
O74	O	-0.011509	-0.680779	1.261780
O75	O	0.108618	-0.636838	1.261850
O76	O	0.022916	-0.646341	1.158496
O77	O	0.022638	-0.542399	1.158538
O78	O	0.143321	-0.706341	1.158524
Cu79	Cu	0.086123	-0.621225	1.149100
Cu80	Cu	0.045411	-0.661953	1.271246
O81	O	0.143044	-0.602399	1.158566
N82	N	0.016774	-0.690600	1.357156
C83	C	0.039504	-0.538867	0.499769
C84	C	0.168130	-0.667407	0.499680
C85	C	0.091482	-0.744243	0.653289
C86	C	-0.037145	-0.615703	0.653378
C87	C	0.699429	-0.718429	0.678853
C88	C	0.699348	-0.718091	0.550135
C89	C	0.699202	-0.564465	0.473677
C90	C	0.699287	-0.564805	0.602393
C91	C	0.168023	-0.007659	0.499484
C92	C	0.039327	-0.007807	0.499887
C93	C	-0.037119	-0.007789	0.653468
C94	C	0.091620	-0.007770	0.653109
C95	C	-0.011194	-0.538964	1.210181
C96	C	-0.010843	-0.667676	1.210109
C97	C	0.142729	-0.744214	1.210165
C98	C	0.142386	-0.615494	1.210214
H99	H	0.020147	-0.542732	1.058106
O100	O	0.552448	-0.696202	0.664820
C101	C	0.616795	-0.706377	0.639068
H102	H	0.625654	-0.661634	0.601804
H103	H	0.635266	-0.721362	0.677115
C104	C	0.639284	-0.812644	0.655649
C105	C	0.650165	-0.757691	0.609876
H106	H	0.659869	-0.844298	0.637644
H107	H	0.595932	-0.805790	0.673000
H108	H	0.654676	-0.825123	0.687351
H109	H	0.634766	-0.745208	0.578180
H110	H	0.693515	-0.764544	0.592519
O111	O	0.102811	-0.007848	0.698209
C112	C	0.095946	-0.061350	0.750570
H113	H	0.064797	-0.079189	0.750083
H114	H	0.143441	-0.098806	0.749320
C115	C	0.104623	-0.023189	0.810707
C116	C	0.066361	-0.045096	0.810113
H117	H	0.086376	-0.013164	0.847437
H118	H	0.109251	0.012855	0.775431
H119	H	0.144200	-0.054406	0.809663
H120	H	0.026788	-0.013876	0.811149
H121	H	0.061726	-0.081135	0.845391
H122	H	0.180620	-0.791296	1.210154
H123	H	0.214995	-0.007372	0.461496
H124	H	0.029900	-0.007810	0.462151
H125	H	0.699142	-0.526565	0.426612
O126	O	-0.093317	-0.007750	0.698596
C127	C	-0.131973	-0.007772	0.676254
H128	H	-0.115164	0.011766	0.623355
H129	H	-0.130297	-0.057325	0.692056
C130	C	-0.219811	0.008751	0.766934
C131	C	-0.199170	0.032754	0.701962
H132	H	-0.261262	0.033747	0.782793
H133	H	-0.193768	0.008764	0.781988
H134	H	-0.218410	-0.032542	0.780093
H135	H	-0.200564	0.074043	0.688803
H136	H	-0.225215	0.032749	0.686906
O137	O	-0.056339	-0.482769	1.210211
C138	C	-0.033981	-0.444125	1.210219
H139	H	0.005881	-0.473994	1.229783
H140	H	-0.016738	-0.412763	1.160674
C141	C	-0.135660	-0.367242	1.226699
C142	C	-0.086703	-0.403928	1.250732
H143	H	-0.168181	-0.342444	1.251686
H144	H	-0.150722	-0.393276	1.226691
H145	H	-0.121282	-0.341112	1.185412
H146	H	-0.101079	-0.430061	1.292015
H147	H	-0.071644	-0.377897	1.250748
H148	H	0.100832	-0.791364	0.691090
O149	O	-0.055771	-0.678959	1.210004
C150	C	-0.033153	-0.740007	1.209987
H151	H	0.019744	-0.756369	1.190477
H152	H	-0.048886	-0.772139	1.259523
C153	C	-0.123615	-0.721091	1.193374
C154	C	-0.058647	-0.741185	1.169406
H155	H	-0.139343	-0.721818	1.168343
H156	H	-0.138856	-0.679962	1.193387
H157	H	-0.136718	-0.747870	1.234653
H158	H	-0.045545	-0.714401	1.128131
H159	H	-0.043405	-0.782309	1.169385
H160	H	0.180125	-0.606093	1.210228
H161	H	0.059391	-0.503396	0.940172
H162	H	0.252044	-0.599714	0.940097
O163	O	0.219459	-0.645007	1.063123
C164	C	0.257056	-0.699522	1.047206
H165	H	0.231944	-0.708554	1.029336
H166	H	0.302720	-0.693613	1.009463
C167	C	0.301208	-0.743759	1.126895
C168	C	0.270362	-0.754856	1.104950
H169	H	0.309419	-0.777892	1.162513
H170	H	0.275880	-0.707031	1.137617
H171	H	0.339258	-0.738834	1.095436
H172	H	0.232311	-0.759773	1.136406
H173	H	0.295685	-0.791586	1.094235
O174	O	0.052556	-0.497478	0.720493
C175	C	-0.008508	-0.488274	0.729730
H176	H	-0.008410	-0.495532	0.690535
H177	H	-0.027113	-0.522881	0.776042
C178	C	-0.050329	-0.412755	0.778345
C179	C	-0.050210	-0.421664	0.730203
H180	H	-0.076054	-0.371668	0.778640
H181	H	-0.009190	-0.418957	0.772124
H182	H	-0.065832	-0.441598	0.816934
H183	H	-0.034700	-0.392826	0.691615
H184	H	-0.091348	-0.415455	0.736417
O185	O	0.009907	-0.540141	0.677700
C186	C	-0.005838	-0.507411	0.623088
H187	H	0.030795	-0.485404	0.584027
H188	H	-0.008003	-0.540834	0.609399
C189	C	-0.114589	-0.483266	0.682662
C190	C	-0.069599	-0.456232	0.634689
H191	H	-0.153920	-0.451699	0.689818
H192	H	-0.103981	-0.505319	0.719456
H193	H	-0.116385	-0.511118	0.671249
H194	H	-0.067797	-0.428387	0.646106
H195	H	-0.080207	-0.434174	0.597898
O196	O	0.699243	-0.519827	0.613733
C197	C	0.699314	-0.542457	0.674764
H198	H	0.679803	-0.582342	0.704146
H199	H	0.748875	-0.559755	0.673820
C200	C	0.682764	-0.440943	0.666926
C201	C	0.658796	-0.489927	0.703016
H202	H	0.657773	-0.408540	0.684354
H203	H	0.682718	-0.425697	0.625808
H204	H	0.724064	-0.455367	0.666143
H205	H	0.617500	-0.475505	0.703793
H206	H	0.658834	-0.505169	0.744136
H207	H	0.215222	-0.676694	0.461838
O208	O	0.552221	-0.488776	0.585807
C209	C	0.509585	-0.428145	0.582335
H210	H	0.463236	-0.425609	0.586609
H211	H	0.502694	-0.416008	0.621721
C212	C	0.591860	-0.384850	0.514317
C213	C	0.534934	-0.381734	0.519561
H214	H	0.607496	-0.356221	0.475597
H215	H	0.620584	-0.425698	0.516658
H216	H	0.586109	-0.374737	0.547142
H217	H	0.540686	-0.391854	0.486741
H218	H	0.506210	-0.340886	0.517213
H219	H	0.212545	-0.638970	0.578981
O220	O	0.699339	-0.763051	0.538814
C221	C	0.699302	-0.740433	0.477771
H222	H	0.679707	-0.687534	0.461449
H223	H	0.748840	-0.756114	0.445618
C224	C	0.682878	-0.830973	0.496621
C225	C	0.658807	-0.766002	0.476576
H226	H	0.657901	-0.846747	0.495882
H227	H	0.682905	-0.846213	0.537746
H228	H	0.724159	-0.844032	0.469824
H229	H	0.617529	-0.752944	0.503377
H230	H	0.658771	-0.750761	0.435455
H231	H	0.251872	-0.599651	0.618278
O232	O	0.062208	-0.154895	0.730248
C233	C	0.053049	-0.197538	0.791304
H234	H	0.060317	-0.243882	0.791185
H235	H	0.087670	-0.204451	0.809912
C236	C	-0.022467	-0.115255	0.833168
C237	C	-0.013545	-0.172174	0.833023
H238	H	-0.063544	-0.099609	0.858904
H239	H	-0.016295	-0.086525	0.792034
H240	H	0.006388	-0.121024	0.848674
H241	H	-0.042394	-0.166403	0.817511
H242	H	-0.019724	-0.200902	0.874156
O243	O	0.424295	-0.653583	0.707610
C244	C	0.466938	-0.714214	0.711102
H245	H	0.513267	-0.711739	0.672696
H246	H	0.473878	-0.739033	0.758211
C247	C	0.384660	-0.753304	0.750328
C248	C	0.441560	-0.750263	0.703155
H249	H	0.369005	-0.775542	0.745429
H250	H	0.355929	-0.712456	0.747978
H251	H	0.390451	-0.773984	0.789582
H252	H	0.435767	-0.729576	0.663903
H253	H	0.470289	-0.791108	0.705498
O254	O	-0.093352	-0.604696	0.698507
C255	C	-0.120882	-0.647350	0.715233
H256	H	-0.100337	-0.665472	0.675395
H257	H	-0.111443	-0.687825	0.758396
C258	C	-0.216693	-0.592529	0.777938
C259	C	-0.191462	-0.614783	0.729007
H260	H	-0.260230	-0.572442	0.786437
H261	H	-0.198145	-0.563794	0.766672
H262	H	-0.208821	-0.626263	0.813902
H263	H	-0.199327	-0.581049	0.693042
H264	H	-0.210013	-0.643512	0.740267
H265	H	0.203661	-0.277820	0.570179
O266	O	0.424058	-0.446153	0.628599
C267	C	0.359710	-0.435976	0.654374
H268	H	0.350829	-0.475711	0.657503
H269	H	0.341281	-0.433675	0.702827
C270	C	0.337217	-0.325489	0.609006
C271	C	0.326310	-0.374290	0.612845
H272	H	0.316613	-0.287437	0.583391
H273	H	0.380570	-0.332345	0.591643
H274	H	0.321859	-0.323580	0.649387
H275	H	0.341674	-0.376203	0.572466
H276	H	0.282959	-0.367432	0.630200
O277	O	0.166846	-0.154857	0.520834
C278	C	0.204461	-0.197482	0.488178
H279	H	0.228122	-0.243829	0.519171
H280	H	0.174459	-0.204399	0.474173
C281	C	0.225056	-0.115171	0.391493
C282	C	0.254121	-0.172093	0.429557
H283	H	0.255687	-0.099509	0.355331
H284	H	0.199712	-0.086453	0.413493
H285	H	0.200055	-0.120942	0.379829
H286	H	0.279116	-0.166319	0.441227
H287	H	0.279471	-0.200809	0.407558
H288	H	0.107441	-0.277854	0.762810
H289	H	0.699474	-0.756325	0.725922
O290	O	0.028242	-0.482630	0.454728
C291	C	-0.032782	-0.444099	0.477257
H292	H	-0.062214	-0.474063	0.517137
H293	H	-0.031847	-0.412752	0.494530
C294	C	-0.024798	-0.367077	0.375682
C295	C	-0.060949	-0.403879	0.424660
H296	H	-0.042173	-0.342265	0.343237
H297	H	0.016316	-0.393035	0.360503
H298	H	-0.024022	-0.340960	0.390084
H299	H	-0.061718	-0.430001	0.410259
H300	H	-0.102064	-0.377925	0.439835
