data_functionalizedCrystal
_audit_creation_method	'MofGen! by Chris Wilmer'
_symmetry_space_group_name_H-M	'P1'
_symmetry_Int_Tables_number	1
_symmetry_cell_setting	triclinic
loop_
_symmetry_equiv_pos_as_xyz
  x,y,z
_cell_length_a	14.519709
_cell_length_b	11.792241
_cell_length_c	10.868271
_cell_angle_alpha	89.996558
_cell_angle_beta	89.993918
_cell_angle_gamma	83.936780
loop_
_atom_site_label
_atom_site_type_symbol
_atom_site_fract_x
_atom_site_fract_y
_atom_site_fract_z
O1	O	0.126404	1.506208	-0.102301
O2	O	0.376404	1.756208	0.147699
O3	O	0.626404	2.006208	0.397699
O4	O	0.876404	2.256208	0.647699
O5	O	0.139432	1.175794	-0.102309
O6	O	0.389432	1.425794	0.147691
O7	O	0.639432	1.675794	0.397691
O8	O	0.889432	1.925794	0.647691
O9	O	-0.001288	1.349761	-0.102294
O10	O	0.248712	1.599761	0.147706
O11	O	0.498712	1.849761	0.397706
O12	O	0.748712	2.099761	0.647706
O13	O	0.267124	1.332241	-0.102316
O14	O	0.517124	1.582241	0.147684
O15	O	0.767124	1.832241	0.397684
O16	O	1.017124	2.082241	0.647684
O17	O	-0.001294	1.349747	0.102351
O18	O	0.248706	1.599747	0.352351
O19	O	0.498706	1.849747	0.602351
O20	O	0.748706	2.099747	0.852351
O21	O	0.139426	1.175780	0.102336
O22	O	0.389426	1.425780	0.352336
O23	O	0.639426	1.675780	0.602336
O24	O	0.889426	1.925780	0.852336
O25	O	0.126399	1.506193	0.102344
O26	O	0.376399	1.756193	0.352344
O27	O	0.626399	2.006193	0.602344
O28	O	0.876399	2.256193	0.852344
Zn29	Zn	0.132912	1.340984	0.134832
Zn30	Zn	0.382912	1.590984	0.384832
Zn31	Zn	0.632912	1.840984	0.634832
Zn32	Zn	0.882912	2.090984	0.884832
Zn33	Zn	0.132919	1.341003	-0.134797
Zn34	Zn	0.382919	1.591003	0.115203
Zn35	Zn	0.632919	1.841003	0.365203
Zn36	Zn	0.882919	2.091003	0.615203
O37	O	0.267119	1.332226	0.102329
O38	O	0.517119	1.582226	0.352329
O39	O	0.767119	1.832226	0.602329
O40	O	1.017119	2.082226	0.852329
C41	C	-0.035654	1.348938	0.000029
C42	C	0.214346	1.598938	0.250029
C43	C	0.464346	1.848938	0.500029
C44	C	0.714346	2.098938	0.750029
C45	C	-0.138044	1.346491	0.000030
C46	C	0.111956	1.596491	0.250030
C47	C	0.361956	1.846491	0.500030
C48	C	0.611956	2.096491	0.750030
C49	C	0.127220	1.548487	0.000020
C50	C	0.377220	1.798487	0.250020
C51	C	0.627220	2.048487	0.500020
C52	C	0.877220	2.298487	0.750020
C53	C	0.129669	1.674487	0.000014
C54	C	0.379669	1.924487	0.250014
C55	C	0.629669	2.174487	0.500014
C56	C	0.879669	2.424487	0.750014
C57	C	0.138611	1.133501	0.000013
C58	C	0.388611	1.383501	0.250013
C59	C	0.638611	1.633501	0.500013
C60	C	0.888611	1.883501	0.750013
C61	C	0.136161	1.007501	0.000010
C62	C	0.386161	1.257501	0.250010
C63	C	0.636161	1.507501	0.500010
C64	C	0.886161	1.757501	0.750010
C65	C	-0.512973	1.337483	-0.000003
C66	C	-0.262973	1.587483	0.249997
C67	C	-0.012973	1.837483	0.499997
C68	C	0.237027	2.087483	0.749997
C69	C	-0.408656	1.339984	0.000007
C70	C	-0.158656	1.589984	0.250007
C71	C	0.091344	1.839984	0.500007
C72	C	0.341344	2.089984	0.750007
C73	C	-0.325512	1.341987	0.000015
C74	C	-0.075512	1.591987	0.250015
C75	C	0.174488	1.841987	0.500015
C76	C	0.424488	2.091987	0.750015
C77	C	-0.221188	1.344489	0.000022
C78	C	0.028812	1.594489	0.250022
C79	C	0.278812	1.844489	0.500022
C80	C	0.528812	2.094489	0.750022
C81	C	0.301484	1.333050	0.000003
C82	C	0.551484	1.583050	0.250003
C83	C	0.801484	1.833050	0.500003
C84	C	1.051484	2.083050	0.750003
C85	C	0.403875	1.335497	-0.000005
C86	C	0.653875	1.585497	0.249995
C87	C	0.903875	1.835497	0.499995
C88	C	1.153875	2.085497	0.749995
N89	N	0.132906	1.340980	0.318846
N90	N	0.382906	1.590980	0.568846
N91	N	0.632906	1.840980	0.818846
N92	N	0.882906	2.090980	1.068846
C93	C	0.134173	1.905174	0.000015
C94	C	0.384173	2.155174	0.250015
C95	C	0.634173	2.405174	0.500015
C96	C	0.884173	2.655174	0.750015
C97	C	0.131671	1.776803	0.000015
C98	C	0.381671	2.026803	0.250015
C99	C	0.631671	2.276803	0.500015
C100	C	0.881671	2.526803	0.750015
N101	N	0.132917	1.341017	-0.318811
N102	N	0.382917	1.591017	-0.068811
N103	N	0.632917	1.841017	0.181189
N104	N	0.882917	2.091017	0.431189
C105	C	0.132917	1.340997	0.569852
C106	C	0.382917	1.590997	0.819852
C107	C	0.632917	1.840997	1.069852
C108	C	0.882917	2.090997	1.319852
C109	C	0.132914	1.340984	0.430174
C110	C	0.382914	1.590984	0.680174
C111	C	0.632914	1.840984	0.930174
C112	C	0.882914	2.090984	1.180174
