data_functionalizedCrystal
_audit_creation_method	'MofGen! by Chris Wilmer'
_symmetry_space_group_name_H-M	'P1'
_symmetry_Int_Tables_number	1
_symmetry_cell_setting	triclinic
loop_
_symmetry_equiv_pos_as_xyz
  x,y,z
_cell_length_a	19.288859
_cell_length_b	14.971486
_cell_length_c	13.448316
_cell_angle_alpha	90.006811
_cell_angle_beta	89.992367
_cell_angle_gamma	96.626073
loop_
_atom_site_label
_atom_site_type_symbol
_atom_site_fract_x
_atom_site_fract_y
_atom_site_fract_z
O1	O	0.921717	-0.111555	-0.082712
O2	O	1.255050	0.221778	0.250621
O3	O	1.588383	0.555111	0.583955
O4	O	0.719505	-0.126613	-0.082710
O5	O	1.052838	0.206720	0.250624
O6	O	1.386171	0.540054	0.583957
O7	O	0.826030	0.011145	-0.082704
O8	O	1.159364	0.344479	0.250630
O9	O	1.492697	0.677812	0.583963
O10	O	0.815191	-0.249314	-0.082718
O11	O	1.148524	0.084020	0.250616
O12	O	1.481858	0.417353	0.583949
O13	O	0.826017	0.011154	0.082680
O14	O	1.159350	0.344487	0.416013
O15	O	1.492684	0.677820	0.749347
O16	O	0.719491	-0.126605	0.082674
O17	O	1.052825	0.206729	0.416007
O18	O	1.386158	0.540062	0.749341
O19	O	0.921703	-0.111547	0.082672
O20	O	1.255037	0.221786	0.416005
O21	O	1.588370	0.555120	0.749339
Cu22	Cu	0.820596	-0.119075	0.097774
Cu23	Cu	1.153929	0.214258	0.431107
Cu24	Cu	1.487263	0.547592	0.764441
Cu25	Cu	0.820612	-0.119085	-0.097812
Cu26	Cu	1.153945	0.214248	0.235522
Cu27	Cu	1.487279	0.547582	0.568855
O28	O	0.815177	-0.249305	0.082666
O29	O	1.148511	0.084028	0.415999
O30	O	1.481844	0.417361	0.749333
C31	C	0.693620	-0.126125	-0.000017
C32	C	1.026953	0.207208	0.333316
C33	C	1.360286	0.540541	0.666649
C34	C	0.616511	-0.124674	-0.000016
C35	C	0.949845	0.208660	0.333317
C36	C	1.283178	0.541993	0.666650
C37	C	0.052702	-0.195684	-0.000022
C38	C	0.386035	0.137650	0.333312
C39	C	0.719369	0.470983	0.666645
C40	C	0.125153	-0.197056	-0.000027
C41	C	0.458486	0.136278	0.333306
C42	C	0.791820	0.469611	0.666640
C43	C	0.169596	-0.116225	-0.000021
C44	C	0.502930	0.217108	0.333313
C45	C	0.836263	0.550441	0.666646
C46	C	0.141583	-0.034017	-0.000035
C47	C	0.474917	0.299316	0.333299
C48	C	0.808250	0.632650	0.666632
C49	C	0.069133	-0.032647	-0.000039
C50	C	0.402467	0.300686	0.333294
C51	C	0.735800	0.634019	0.666627
C52	C	0.290665	-0.055939	0.057927
C53	C	0.623999	0.277394	0.391261
C54	C	0.957332	0.610727	0.724594
C55	C	0.363113	-0.057312	0.057938
C56	C	0.696447	0.276021	0.391272
C57	C	1.029780	0.609354	0.724605
C58	C	0.393056	-0.120446	-0.000011
C59	C	0.726389	0.212887	0.333323
C60	C	1.059723	0.546221	0.666656
C61	C	0.350540	-0.182222	-0.057958
C62	C	0.683873	0.151112	0.275376
C63	C	1.017206	0.484445	0.608709
C64	C	0.278090	-0.180852	-0.057963
C65	C	0.611423	0.152481	0.275371
C66	C	0.944757	0.485815	0.608704
C67	C	0.248157	-0.117701	-0.000016
C68	C	0.581490	0.215632	0.333317
C69	C	0.914823	0.548965	0.666650
C70	C	0.499620	-0.204136	-0.000010
C71	C	0.832954	0.129197	0.333324
C72	C	1.166287	0.462530	0.666657
C73	C	0.572073	-0.205505	-0.000021
C74	C	0.905406	0.127828	0.333312
C75	C	1.238740	0.461162	0.666646
C76	C	0.588502	-0.042464	-0.000019
C77	C	0.921835	0.290870	0.333315
C78	C	1.255169	0.624203	0.666648
C79	C	0.516051	-0.041098	-0.000017
C80	C	0.849384	0.292236	0.333316
C81	C	1.182717	0.625569	0.666649
C82	C	0.471614	-0.121937	-0.000008
C83	C	0.804947	0.211397	0.333325
C84	C	1.138280	0.544730	0.666659
C85	C	0.825539	0.044472	-0.000012
C86	C	1.158872	0.377805	0.333321
C87	C	1.492206	0.711138	0.666655
C88	C	0.824086	0.143761	-0.000013
C89	C	1.157420	0.477094	0.333320
C90	C	1.490753	0.810427	0.666654
C91	C	0.947588	-0.112035	-0.000023
C92	C	1.280921	0.221299	0.333311
C93	C	1.614255	0.554632	0.666644
C94	C	1.024697	-0.113486	-0.000030
C95	C	1.358030	0.219847	0.333303
C96	C	1.691363	0.553180	0.666637
C97	C	0.815669	-0.282632	-0.000028
C98	C	1.149002	0.050702	0.333306
C99	C	1.482336	0.384035	0.666639
C100	C	0.817122	-0.381921	-0.000033
C101	C	1.150455	-0.048587	0.333300
C102	C	1.483788	0.284746	0.666633
N103	N	0.820590	-0.119067	0.235338
N104	N	1.153923	0.214266	0.568672
N105	N	1.487257	0.547599	0.902005
C106	C	0.886667	0.201326	-0.000013
C107	C	1.220001	0.534660	0.333320
C108	C	1.553334	0.867993	0.666654
C109	C	0.885298	0.294618	-0.000023
C110	C	1.218632	0.627952	0.333310
C111	C	1.551965	0.961285	0.666644
C112	C	0.821347	0.330343	-0.000026
C113	C	1.154681	0.663676	0.333307
C114	C	1.488014	0.997010	0.666641
C115	C	0.758761	0.272770	-0.000029
C116	C	1.092095	0.606104	0.333304
C117	C	1.425428	0.939437	0.666638
C118	C	0.760131	0.179480	-0.000026
C119	C	1.093465	0.512813	0.333307
C120	C	1.426798	0.846147	0.666641
C121	C	0.755911	0.467217	-0.000032
C122	C	1.089244	0.800551	0.333301
C123	C	1.422577	1.133884	0.666634
C124	C	0.754541	0.560514	-0.000033
C125	C	1.087874	0.893847	0.333300
C126	C	1.421207	1.227180	0.666633
C127	C	0.881078	0.582355	-0.000029
C128	C	1.214411	0.915689	0.333304
C129	C	1.547744	1.249022	0.666637
C130	C	0.882448	0.489065	-0.000027
C131	C	1.215781	0.822399	0.333307
C132	C	1.549114	1.155732	0.666640
C133	C	0.819861	0.431499	-0.000028
C134	C	1.153195	0.764832	0.333306
C135	C	1.486528	1.098165	0.666639
N136	N	0.820623	-0.119085	-0.235376
N137	N	1.153957	0.214248	0.097957
N138	N	1.487290	0.547581	0.431291
C139	C	0.867774	-0.058093	0.287381
C140	C	1.201108	0.275240	0.620714
C141	C	1.534441	0.608574	0.954048
C142	C	0.867779	-0.058092	0.391484
C143	C	1.201112	0.275241	0.724818
C144	C	1.534445	0.608574	1.058151
C145	C	0.820601	-0.119071	0.443543
C146	C	1.153935	0.214262	0.776876
C147	C	1.487268	0.547596	1.110209
C148	C	0.773412	-0.180048	0.391492
C149	C	1.106745	0.153285	0.724826
C150	C	1.440079	0.486618	1.058159
C151	C	0.773405	-0.180044	0.287391
C152	C	1.106738	0.153289	0.620724
C153	C	1.440072	0.486623	0.954058
C154	C	0.773431	-0.180054	0.608473
C155	C	1.106765	0.153279	0.941806
C156	C	1.440098	0.486612	1.275139
C157	C	0.773439	-0.180060	0.712581
C158	C	1.106772	0.153273	1.045914
C159	C	1.440106	0.486607	1.379248
C160	C	0.867805	-0.058102	0.712566
C161	C	1.201138	0.275231	1.045899
C162	C	1.534472	0.608564	1.379232
C163	C	0.867798	-0.058098	0.608464
C164	C	1.201131	0.275235	0.941798
C165	C	1.534465	0.608569	1.275131
C166	C	0.820609	-0.119077	0.556421
C167	C	1.153943	0.214256	0.889755
C168	C	1.487276	0.547590	1.223088
H169	H	0.016526	-0.261509	-0.000019
H170	H	0.349859	0.071824	0.333314
H171	H	0.683192	0.405157	0.666648
H172	H	0.735022	-0.229714	0.754962
H173	H	1.068355	0.103619	1.088295
H174	H	1.401689	0.436952	1.421628
Br175	Br	0.931830	0.024650	0.537810
Br176	Br	1.265163	0.357984	0.871144
Br177	Br	1.598496	0.691317	1.204477
Br178	Br	0.973463	0.152852	0.000005
Br179	Br	1.306796	0.486186	0.333339
Br180	Br	1.640129	0.819519	0.666672
Br181	Br	0.931849	0.024649	0.783198
Br182	Br	1.265182	0.357983	1.116532
Br183	Br	1.598515	0.691316	1.449865
Br184	Br	0.610081	-0.317069	-0.000025
Br185	Br	0.943414	0.016264	0.333309
Br186	Br	1.276748	0.349598	0.666642
Br187	Br	0.931809	0.024663	0.216741
Br188	Br	1.265143	0.357996	0.550075
Br189	Br	1.598476	0.691329	0.883408
H190	H	0.936258	0.341485	-0.000021
H191	H	1.269592	0.674818	0.333313
H192	H	1.602925	1.008152	0.666646
Br193	Br	0.670972	0.389092	-0.000038
Br194	Br	1.004305	0.722425	0.333296
Br195	Br	1.337638	1.055758	0.666629
H196	H	0.706691	0.301865	-0.000038
H197	H	1.040025	0.635198	0.333296
H198	H	1.373358	0.968531	0.666629
Br199	Br	0.709362	-0.262793	0.216761
Br200	Br	1.042695	0.070540	0.550095
Br201	Br	1.376028	0.403873	0.883428
Br202	Br	0.931813	0.024663	0.462118
Br203	Br	1.265146	0.357996	0.795451
Br204	Br	1.598480	0.691330	1.128784
Br205	Br	0.201897	0.075683	-0.000035
Br206	Br	0.535230	0.409016	0.333298
Br207	Br	0.868564	0.742349	0.666632
H208	H	0.493249	0.025836	-0.000018
H209	H	0.826582	0.359170	0.333315
H210	H	1.159916	0.692503	0.666648
H211	H	0.463438	-0.269960	-0.000004
H212	H	0.796771	0.063373	0.333330
H213	H	1.130105	0.396706	0.666663
H214	H	0.709171	0.132610	-0.000026
H215	H	1.042505	0.465944	0.333307
H216	H	1.375838	0.799277	0.666640
H217	H	0.932038	0.629231	-0.000032
H218	H	1.265371	0.962564	0.333302
H219	H	1.598704	1.295898	0.666635
H220	H	0.735003	-0.229707	0.566103
H221	H	1.068336	0.103626	0.899436
H222	H	1.401670	0.436960	1.232769
Br223	Br	0.709379	-0.262801	0.462139
Br224	Br	1.042712	0.070532	0.795472
Br225	Br	1.376046	0.403865	1.128806
H226	H	0.147960	-0.263993	-0.000011
H227	H	0.481293	0.069341	0.333323
H228	H	0.814626	0.402674	0.666656
Br229	Br	0.220392	-0.264682	-0.136605
Br230	Br	0.553725	0.068651	0.196728
Br231	Br	0.887059	0.401985	0.530062
H232	H	0.934522	0.459982	-0.000017
H233	H	1.267855	0.793315	0.333316
H234	H	1.601189	1.126648	0.666650
H235	H	0.702466	0.589597	-0.000020
H236	H	1.035800	0.922931	0.333313
H237	H	1.369133	1.256264	0.666647
H238	H	0.624687	0.023350	-0.000021
H239	H	0.958020	0.356683	0.333312
H240	H	1.291354	0.690017	0.666645
Br241	Br	0.391164	-0.267921	-0.136593
Br242	Br	0.724498	0.065412	0.196740
Br243	Br	1.057831	0.398746	0.530073
H244	H	0.397724	-0.007015	0.105128
H245	H	0.731058	0.326318	0.438461
H246	H	1.064391	0.659652	0.771794
H247	H	0.046333	0.034290	-0.000046
H248	H	0.379666	0.367623	0.333287
H249	H	0.713000	0.700956	0.666620
H250	H	0.266293	-0.004524	0.105118
H251	H	0.599627	0.328809	0.438452
H252	H	0.932960	0.662143	0.771785
