data_functionalizedCrystal
_audit_creation_method	'MofGen! by Chris Wilmer'
_symmetry_space_group_name_H-M	'P1'
_symmetry_Int_Tables_number	1
_symmetry_cell_setting	triclinic
loop_
_symmetry_equiv_pos_as_xyz
  x,y,z
_cell_length_a	11.792241
_cell_length_b	13.262415
_cell_length_c	12.376457
_cell_angle_alpha	85.805102
_cell_angle_beta	78.632725
_cell_angle_gamma	84.320670
loop_
_atom_site_label
_atom_site_type_symbol
_atom_site_fract_x
_atom_site_fract_y
_atom_site_fract_z
O1	O	1.536523	0.116290	-0.129644
O2	O	2.036523	0.616290	0.370356
O3	O	1.207146	0.130202	-0.133947
O4	O	1.707146	0.630202	0.366053
O5	O	1.369978	-0.020123	-0.087712
O6	O	1.869978	0.479877	0.412288
O7	O	1.373690	0.266616	-0.175880
O8	O	1.873690	0.766616	0.324120
O9	O	1.329281	0.017407	0.088757
O10	O	1.829281	0.517407	0.588757
O11	O	1.166449	0.167732	0.042522
O12	O	1.666449	0.667732	0.542522
O13	O	1.495826	0.153820	0.046825
O14	O	1.995826	0.653820	0.546825
Zn15	Zn	1.324676	0.166735	0.072692
Zn16	Zn	1.824676	0.666735	0.572692
Zn17	Zn	1.378296	0.117288	-0.159814
Zn18	Zn	1.878296	0.617288	0.340186
O19	O	1.332994	0.304146	0.000590
O20	O	1.832994	0.804146	0.500590
C21	C	1.346095	-0.038068	0.011807
C22	C	1.846095	0.461932	0.511807
C23	C	1.335550	-0.147450	0.045433
C24	C	1.835550	0.352550	0.545433
C25	C	1.144447	0.148092	-0.045447
C26	C	1.644447	0.648092	0.454553
C27	C	1.018255	0.145474	-0.044652
C28	C	1.518255	0.645474	0.455348
C29	C	1.394567	-0.537600	-0.244562
C30	C	1.894567	-0.037600	0.255438
C31	C	1.404485	-0.434832	-0.276160
C32	C	1.904485	0.065168	0.223840
C33	C	1.387251	-0.362982	-0.195764
C34	C	1.887251	0.137018	0.304236
C35	C	1.360100	-0.393909	-0.083765
C36	C	1.860100	0.106091	0.416235
C37	C	1.350190	-0.496689	-0.052164
C38	C	1.850190	0.003311	0.447836
C39	C	1.342874	-0.322070	-0.003367
C40	C	1.842874	0.177930	0.496633
C41	C	1.315722	-0.352998	0.108633
C42	C	1.815722	0.147002	0.608633
C43	C	1.305813	-0.455767	0.140229
C44	C	1.805813	0.044233	0.640229
C45	C	1.323047	-0.527618	0.059833
C46	C	1.823047	-0.027618	0.559833
C47	C	1.352784	-0.219291	-0.034968
C48	C	1.852784	0.280709	0.465032
C49	C	1.308407	-0.178379	0.157430
C50	C	1.808407	0.321621	0.657430
C51	C	1.298489	-0.281148	0.189028
C52	C	1.798489	0.218852	0.689028
C53	C	0.787205	0.140669	-0.043142
C54	C	1.287205	0.640669	0.456858
C55	C	0.915778	0.143338	-0.043981
C56	C	1.415778	0.643338	0.456019
C57	C	1.558525	0.135930	-0.041678
C58	C	2.058525	0.635930	0.458322
C59	C	1.684719	0.138547	-0.042480
C60	C	2.184719	0.638547	0.457520
C61	C	1.356877	0.322090	-0.098932
C62	C	1.856877	0.822090	0.401068
C63	C	1.367424	0.431471	-0.132565
C64	C	1.867424	0.931471	0.367435
N65	N	1.288091	0.200481	0.231371
N66	N	1.788091	0.700481	0.731371
N67	N	1.414890	0.083534	-0.318491
N68	N	1.914890	0.583534	0.181509
C69	C	1.499815	0.005179	0.646424
C70	C	1.999815	0.505179	1.146424
C71	C	1.525415	-0.018439	0.535349
C72	C	2.025415	0.481561	1.035349
C73	C	1.466085	0.036288	0.459349
C74	C	1.966085	0.536288	0.959349
C75	C	1.381153	0.114640	0.494435
C76	C	1.881153	0.614640	0.994435
C77	C	1.355557	0.138266	0.605520
C78	C	1.855557	0.638266	1.105520
C79	C	1.321827	0.169375	0.418445
C80	C	1.821827	0.669375	0.918445
C81	C	1.236895	0.247726	0.453531
C82	C	1.736895	0.747726	0.953531
C83	C	1.211302	0.271348	0.564605
C84	C	1.711302	0.771348	1.064605
C85	C	1.270631	0.216621	0.640605
C86	C	1.770631	0.716621	1.140605
C87	C	1.347424	0.145748	0.307360
C88	C	1.847424	0.645748	0.807360
C89	C	1.203165	0.278835	0.266456
C90	C	1.703165	0.778835	0.766456
C91	C	1.177566	0.302454	0.377531
C92	C	1.677566	0.802454	0.877531
H93	H	1.374891	-0.194121	-0.126159
H94	H	1.874891	0.305879	0.373841
O95	O	1.269232	-0.314521	0.309823
O96	O	1.769232	0.185479	0.809823
H97	H	1.186992	-0.352012	0.326242
H98	H	1.686992	0.147988	0.826242
H99	H	1.395328	-0.279304	-0.221499
H100	H	1.895328	0.220696	0.278501
O101	O	1.433746	-0.401469	-0.396949
O102	O	1.933746	0.098531	0.103051
H103	H	1.444049	-0.468692	-0.447546
H104	H	1.944049	0.031308	0.052454
H105	H	1.294377	-0.119878	0.222895
H106	H	1.794377	0.380122	0.722895
O107	O	1.243030	0.242092	0.760413
O108	O	1.743030	0.742092	1.260413
H109	H	1.150267	0.232059	0.794712
H110	H	1.650267	0.732059	1.294712
O111	O	1.617016	-0.102938	0.497503
O112	O	2.117016	0.397062	0.997503
H113	H	1.577253	-0.161860	0.461699
H114	H	2.077253	0.338140	0.961699
H115	H	1.486933	0.017054	0.368907
H116	H	1.986933	0.517054	0.868907
O117	O	1.563803	-0.053842	0.728387
O118	O	2.063803	0.446158	1.228387
H119	H	1.531731	-0.024251	0.811520
H120	H	2.031731	0.475749	1.311520
H121	H	1.416576	0.081955	0.278803
H122	H	1.916576	0.581955	0.778803
H123	H	1.142154	0.335154	0.593169
H124	H	1.642154	0.835154	1.093169
O125	O	1.413150	-0.615089	-0.331267
O126	O	1.913150	-0.115089	0.168733
H127	H	1.401690	-0.691747	-0.290475
H128	H	1.901690	-0.191747	0.209525
H129	H	1.314971	-0.611302	0.085555
H130	H	1.814971	-0.111302	0.585555
H131	H	1.154856	0.323401	0.204575
H132	H	1.654856	0.823401	0.704575
O133	O	1.276536	-0.489133	0.261025
O134	O	1.776536	0.010867	0.761025
H135	H	1.266207	-0.421908	0.311622
H136	H	1.766207	0.078092	0.811622
O137	O	1.085972	0.386969	0.415373
O138	O	1.585972	0.886969	0.915373
H139	H	1.078153	0.394205	0.505378
H140	H	1.578153	0.894205	1.005378
