data_functionalizedCrystal
_audit_creation_method	'MofGen! by Chris Wilmer'
_symmetry_space_group_name_H-M	'P1'
_symmetry_Int_Tables_number	1
_symmetry_cell_setting	triclinic
loop_
_symmetry_equiv_pos_as_xyz
  x,y,z
_cell_length_a	13.262390
_cell_length_b	10.540510
_cell_length_c	11.804365
_cell_angle_alpha	101.952739
_cell_angle_beta	62.657606
_cell_angle_gamma	84.472352
loop_
_atom_site_label
_atom_site_type_symbol
_atom_site_fract_x
_atom_site_fract_y
_atom_site_fract_z
O1	O	1.519423	0.018651	-0.591143
O2	O	1.191426	0.064618	-0.484910
O3	O	1.362925	-0.143740	-0.540455
O4	O	1.347924	0.227009	-0.535598
O5	O	1.317775	-0.088939	-0.327776
O6	O	1.146276	0.119419	-0.272231
O7	O	1.474274	0.073452	-0.378464
Cu8	Cu	1.306152	0.101439	-0.305928
Cu9	Cu	1.359547	0.036631	-0.557446
O10	O	1.302774	0.281810	-0.322919
C11	C	1.126851	0.094482	-0.364968
C12	C	1.001706	0.101806	-0.324436
C13	C	0.747400	0.002943	-0.673928
C14	C	0.864981	-0.003945	-0.712012
C15	C	0.899168	0.022492	-0.615121
C16	C	0.815762	0.055819	-0.480140
C17	C	0.698171	0.062699	-0.442052
C18	C	0.849939	0.082248	-0.383246
C19	C	0.766533	0.115575	-0.248264
C20	C	0.648954	0.122453	-0.210183
C21	C	0.614766	0.096016	-0.307074
C22	C	0.967531	0.075368	-0.421333
C23	C	0.918302	0.135123	-0.189458
C24	C	0.800721	0.142012	-0.151374
C25	C	1.339233	-0.163545	-0.433756
C26	C	1.335890	-0.304200	-0.432681
C27	C	1.454926	-0.532104	-0.470781
C28	C	1.458597	-0.385950	-0.472423
C29	C	1.298858	-0.374677	-0.533784
C30	C	1.296179	-0.521223	-0.533005
C31	C	1.242280	-0.458486	-0.290322
C32	C	1.247761	-0.312249	-0.290608
C33	C	1.538848	0.043588	-0.498409
C34	C	1.663995	0.036261	-0.538950
C35	C	1.326467	0.301614	-0.429621
C36	C	1.329812	0.442267	-0.430704
N37	N	1.268606	0.147020	-0.129027
N38	N	1.397102	-0.008961	-0.734350
C39	C	1.487266	-0.118443	0.174102
C40	C	1.515668	-0.152931	0.040241
C41	C	1.453905	-0.077946	-0.002083
C42	C	1.363734	0.031532	0.089468
C43	C	1.335335	0.066030	0.223340
C44	C	1.301974	0.106527	0.047155
C45	C	1.211803	0.216005	0.138706
C46	C	1.183408	0.250496	0.272564
C47	C	1.245172	0.175512	0.314888
C48	C	1.330373	0.072029	-0.086717
C49	C	1.178442	0.256502	-0.037479
C50	C	1.150040	0.290990	0.096382
H51	H	1.035429	0.048236	-0.531236
N52	N	0.494651	0.103077	-0.268152
N53	N	0.421510	0.209675	-0.196262
H54	H	0.336677	0.214666	-0.168775
N55	N	1.537609	-0.619970	-0.598736
N56	N	1.504790	-0.701385	-0.660540
H57	H	1.563182	-0.763444	-0.750910
H58	H	1.109995	0.339649	0.347103
H59	H	1.128151	0.317564	-0.071937
H60	H	0.932883	-0.031087	-0.821914
H61	H	0.732796	0.169147	-0.041470
N62	N	1.133405	-0.238350	-0.244933
N63	N	1.084854	-0.144067	-0.140477
H64	H	1.004083	-0.091875	-0.108207
N65	N	1.216129	0.210720	0.451637
N66	N	1.116204	0.211890	0.539636
H67	H	1.095689	0.236742	0.636218
H68	H	1.526544	-0.384403	-0.575642
H69	H	1.274394	-0.264543	-0.215566
N70	N	1.057924	0.402804	0.189909
N71	N	0.971801	0.387237	0.287380
H72	H	0.906742	0.466203	0.353436
H73	H	1.484242	-0.555859	-0.399168
N74	N	0.563774	0.156472	-0.072301
N75	N	0.594307	0.180070	0.014197
H76	H	0.534151	0.204094	0.111579
N77	N	1.019278	0.015447	-0.654042
N78	N	1.093734	-0.014309	-0.774561
H79	H	1.178568	-0.019282	-0.802056
N80	N	1.550334	-0.195002	0.217367
N81	N	1.498110	-0.251699	0.303875
H82	H	1.542659	-0.305767	0.334435
H83	H	1.477034	-0.106031	-0.111079
N84	N	0.712459	-0.024072	-0.772870
N85	N	0.607469	-0.017933	-0.738842
H86	H	0.582791	-0.037018	-0.808726
H87	H	0.946135	0.156649	-0.110561
H88	H	1.261732	-0.480408	-0.210894
N89	N	1.374209	-0.605788	-0.664338
N90	N	1.430262	-0.556374	-0.755932
H91	H	1.485374	-0.616092	-0.848690
H92	H	1.489264	-0.338536	-0.401284
N93	N	1.182515	-0.541650	-0.502611
N94	N	1.095900	-0.475211	-0.394807
H95	H	1.015627	-0.489637	-0.373342
N96	N	1.186734	-0.306626	-0.502735
N97	N	1.132741	-0.205182	-0.405516
H98	H	1.053552	-0.157117	-0.383583
N99	N	1.377670	-0.370060	-0.664890
N100	N	1.483350	-0.422511	-0.718205
H101	H	1.539019	-0.419254	-0.810799
N102	N	1.126491	-0.475756	-0.251877
N103	N	1.108361	-0.560731	-0.327397
H104	H	1.026591	-0.572938	-0.300257
H105	H	1.403790	-0.017108	-0.161246
N106	N	1.607886	-0.264636	-0.053288
N107	N	1.663098	-0.331498	-0.015512
H108	H	1.728274	-0.410353	-0.081583
