data_functionalizedCrystal
_audit_creation_method	'MofGen! by Chris Wilmer'
_symmetry_space_group_name_H-M	'P1'
_symmetry_Int_Tables_number	1
_symmetry_cell_setting	triclinic
loop_
_symmetry_equiv_pos_as_xyz
  x,y,z
_cell_length_a	16.793024
_cell_length_b	16.793047
_cell_length_c	33.586455
_cell_angle_alpha	113.253857
_cell_angle_beta	66.219990
_cell_angle_gamma	112.758327
loop_
_atom_site_label
_atom_site_type_symbol
_atom_site_fract_x
_atom_site_fract_y
_atom_site_fract_z
O1	O	0.005016	-0.570216	-0.583573
O2	O	-0.034529	-0.474528	-0.453458
O3	O	0.114723	-0.474535	-0.528082
O4	O	-0.144235	-0.570209	-0.508949
O5	O	0.108729	-0.346329	-0.530229
O6	O	-0.040523	-0.346322	-0.455605
O7	O	-0.000977	-0.442010	-0.585721
Zn8	Zn	-0.021701	-0.373810	-0.521004
Zn9	Zn	-0.013805	-0.542728	-0.518175
O10	O	-0.150229	-0.442003	-0.511097
C11	C	0.005100	-0.790970	-0.238461
C12	C	0.009223	-0.693065	-0.217557
C13	C	0.003804	-0.645758	-0.241627
C14	C	-0.075059	-0.538459	-0.266316
C15	C	0.049838	-0.422849	-0.250165
C16	C	-0.040584	-0.395375	-0.435637
C17	C	-0.044693	-0.353446	-0.386631
C18	C	-0.039275	-0.401741	-0.363054
C19	C	-0.040566	-0.125547	-0.300731
C20	C	-0.044689	-0.223451	-0.321635
C21	C	-0.039266	-0.270752	-0.297563
C22	C	0.039597	-0.378051	-0.272874
C23	C	-0.085304	-0.493667	-0.289026
C24	C	0.005118	-0.521142	-0.103554
C25	C	0.009231	-0.563064	-0.152559
C26	C	0.003809	-0.514775	-0.176138
C27	C	0.010758	-0.652581	-0.172822
C28	C	0.001010	-0.556371	-0.220792
C29	C	-0.008251	-0.506059	-0.245823
C30	C	-0.046224	-0.263935	-0.366370
C31	C	-0.036476	-0.360146	-0.318399
C32	C	-0.027211	-0.410451	-0.293367
C33	C	0.815184	-0.521162	-0.508596
C34	C	0.717729	-0.563083	-0.506815
C35	C	0.669923	-0.514793	-0.509201
C36	C	0.564072	-0.463272	-0.548285
C37	C	0.445555	-0.498966	-0.486078
C38	C	0.415541	-0.125553	-0.528781
C39	C	0.375032	-0.223457	-0.531493
C40	C	0.423813	-0.270761	-0.529101
C41	C	0.149318	-0.395376	-0.530584
C42	C	0.246774	-0.353455	-0.532364
C43	C	0.294574	-0.401748	-0.529976
C44	C	0.400424	-0.453269	-0.490892
C45	C	0.518948	-0.417572	-0.553101
C46	C	0.548961	-0.790984	-0.510398
C47	C	0.589464	-0.693083	-0.507684
C48	C	0.540690	-0.645776	-0.510078
C49	C	0.678399	-0.652598	-0.506649
C50	C	0.581167	-0.556389	-0.510877
C51	C	0.530434	-0.506073	-0.515170
C52	C	0.286104	-0.263940	-0.532530
C53	C	0.383336	-0.360149	-0.528302
C54	C	0.434062	-0.410467	-0.524008
C55	C	-0.040530	-0.395407	-0.935652
C56	C	-0.044651	-0.353482	-0.886645
C57	C	-0.039242	-0.401770	-0.863061
C58	C	0.039602	-0.453292	-0.810474
C59	C	-0.085288	-0.417587	-0.750981
C60	C	0.005063	-0.791004	-0.738448
C61	C	0.009186	-0.693099	-0.717543
C62	C	0.003779	-0.645796	-0.741620
C63	C	0.005077	-0.521171	-0.603544
C64	C	0.009198	-0.563096	-0.652550
C65	C	0.003786	-0.514804	-0.676131
C66	C	-0.075058	-0.463283	-0.728717
C67	C	0.049835	-0.498991	-0.788214
C68	C	-0.040516	-0.125574	-0.800747
C69	C	-0.044642	-0.223476	-0.821649
C70	C	-0.039232	-0.270782	-0.797575
C71	C	-0.046172	-0.263965	-0.866386
C72	C	-0.036447	-0.360171	-0.818406
C73	C	-0.027197	-0.410486	-0.793373
C74	C	0.010719	-0.652613	-0.672809
C75	C	0.000994	-0.556406	-0.720789
C76	C	-0.008259	-0.506089	-0.745819
O77	O	-0.000965	0.173549	-0.277957
O78	O	-0.040516	-0.085616	-0.325254
O79	O	0.108737	0.059592	-0.327284
O80	O	-0.150219	0.028341	-0.275927
O81	O	0.114753	0.055151	-0.263265
O82	O	-0.034500	-0.090057	-0.261234
O83	O	0.005051	0.169108	-0.213937
Zn84	Zn	-0.013769	0.038820	-0.227421
Zn85	Zn	-0.021696	0.044672	-0.311770
O86	O	-0.144202	0.023900	-0.211907
O87	O	-0.034458	-0.474571	0.046517
O88	O	0.005076	-0.570190	-0.083599
O89	O	-0.144170	-0.570237	-0.008972
O90	O	0.114787	-0.474523	-0.028110
O91	O	-0.150200	-0.442024	-0.011093
O92	O	-0.000954	-0.441976	-0.085720
O93	O	-0.040488	-0.346357	0.044396
Zn94	Zn	-0.021679	-0.373810	-0.020999
Zn95	Zn	-0.013734	-0.542737	-0.018204
O96	O	0.108757	-0.346309	-0.030231
C97	C	-0.850734	0.086244	-0.289716
C98	C	-0.753280	0.087165	-0.312001
C99	C	-0.705462	0.081107	-0.288506
C100	C	-0.599592	0.000085	-0.264184
C101	C	-0.481080	0.121287	-0.283645
C102	C	-0.450996	0.035117	-0.097351
C103	C	-0.410501	0.028587	-0.146852
C104	C	-0.459292	0.034683	-0.169840
C105	C	-0.184802	0.024283	-0.235878
C106	C	-0.282257	0.023363	-0.213592
C107	C	-0.330068	0.029423	-0.237088
C108	C	-0.435938	0.110445	-0.261411
C109	C	-0.554456	-0.010759	-0.241948
C110	C	-0.584541	0.075410	-0.428242
C111	C	-0.625029	0.081943	-0.378743
C112	C	-0.576244	0.075844	-0.355753
C113	C	-0.713963	0.086424	-0.357292
C114	C	-0.616708	0.075351	-0.310510
C115	C	-0.565963	0.065400	-0.286043
C116	C	-0.321573	0.024104	-0.168302
C117	C	-0.418828	0.035176	-0.215083
C118	C	-0.469568	0.045131	-0.239552
O119	O	0.585213	0.169090	-0.504004
O120	O	0.494056	-0.090076	-0.525516
O121	O	0.488081	0.055124	-0.449918
O122	O	0.591189	0.023889	-0.579602
O123	O	0.359978	0.059584	-0.452885
O124	O	0.365953	-0.085616	-0.528483
O125	O	0.457110	0.173550	-0.506971
Zn126	Zn	0.391193	0.044675	-0.518198
Zn127	Zn	0.559974	0.038798	-0.514289
O128	O	0.463086	0.028349	-0.582569
C129	C	0.815354	-0.521094	-0.008709
C130	C	0.717898	-0.563028	-0.006927
C131	C	0.670072	-0.514739	-0.009298
C132	C	0.564182	-0.463204	-0.048354
C133	C	0.445681	-0.498945	0.013847
C134	C	0.415547	-0.125494	-0.028771
C135	C	0.375059	-0.223405	-0.031498
C136	C	0.423859	-0.270708	-0.029121
C137	C	0.149365	-0.395355	-0.030599
C138	C	0.246820	-0.353421	-0.032381
C139	C	0.294640	-0.401713	-0.030008
C140	C	0.400530	-0.453248	0.009048
C141	C	0.519038	-0.417504	-0.053155
C142	C	0.549171	-0.790955	-0.010537
C143	C	0.589653	-0.693047	-0.007809
C144	C	0.540859	-0.645741	-0.010187
C145	C	0.678588	-0.652551	-0.006775
C146	C	0.581317	-0.556344	-0.010973
C147	C	0.530562	-0.506029	-0.015250
C148	C	0.286131	-0.263897	-0.032533
C149	C	0.383402	-0.360104	-0.028335
C150	C	0.434150	-0.410423	-0.024057
O151	O	-0.620614	0.089309	0.052274
O152	O	-0.529507	0.043784	-0.078544
O153	O	-0.523494	0.194833	-0.006033
O154	O	-0.626628	-0.061740	-0.020236
O155	O	-0.395386	0.185419	-0.005549
O156	O	-0.401400	0.034370	-0.078059
O157	O	-0.492507	0.079895	0.052758
Zn158	Zn	-0.426614	0.055638	-0.012574
Zn159	Zn	-0.595401	0.068041	-0.013212
O160	O	-0.498521	-0.071154	-0.019752
C161	C	-0.437537	0.048335	0.402491
C162	C	-0.397043	0.041789	0.352989
C163	C	-0.445822	0.047883	0.329994
C164	C	-0.496646	0.126653	0.277022
C165	C	-0.465894	-0.000633	0.218811
C166	C	-0.837226	0.099430	0.210091
C167	C	-0.739773	0.100339	0.187806
C168	C	-0.691967	0.094287	0.211308
C169	C	-0.571027	0.088563	0.071568
C170	C	-0.611521	0.095108	0.121070
C171	C	-0.562739	0.089011	0.144061
C172	C	-0.511915	0.010241	0.197033
C173	C	-0.542670	0.137531	0.255247
C174	C	-0.171338	0.037467	0.263967
C175	C	-0.268788	0.036555	0.286249
C176	C	-0.316597	0.042611	0.262750
C177	C	-0.308112	0.037305	0.331542
C178	C	-0.405351	0.048369	0.284750
C179	C	-0.456092	0.058317	0.260279
C180	C	-0.700452	0.099593	0.142516
C181	C	-0.603213	0.088528	0.189308
C182	C	-0.552469	0.078578	0.213776
O183	O	-0.040608	-1.085661	-0.825229
O184	O	-0.001018	-0.826491	-0.777938
O185	O	-0.150287	-0.971682	-0.775894
O186	O	0.108661	-0.940470	-0.827272
O187	O	-0.144253	-0.976123	-0.711878
O188	O	0.005016	-0.830932	-0.713922
O189	O	-0.034575	-1.090102	-0.761213
Zn190	Zn	-0.013821	-0.961222	-0.727403
Zn191	Zn	-0.021771	-0.955371	-0.811747
O192	O	0.114695	-0.944911	-0.763256
O193	O	-0.036816	-0.230509	-0.253950
C194	C	-0.111405	-0.277868	-0.225319
H195	H	-0.136412	-0.349914	-0.245937
H196	H	-0.167999	-0.243272	-0.209571
C197	C	-0.051938	-0.190524	-0.162142
C198	C	-0.082647	-0.279015	-0.187465
H199	H	-0.034201	-0.191229	-0.138790
H200	H	-0.001688	-0.158614	-0.181430
H201	H	-0.099105	-0.161704	-0.149023
H202	H	-0.035477	-0.307830	-0.200588
H203	H	-0.132889	-0.310930	-0.168178
H204	H	0.001660	-0.441639	-0.159184
O205	O	-0.290784	0.029906	-0.281225
C206	C	-0.289282	0.110627	-0.285608
H207	H	-0.293308	0.164398	-0.251513
H208	H	-0.349455	0.098525	-0.296987
C209	C	-0.195972	0.076473	-0.362957
C210	C	-0.200909	0.142517	-0.321082
H211	H	-0.141462	0.096143	-0.384840
H212	H	-0.196986	0.022088	-0.360005
H213	H	-0.246121	0.066394	-0.372433
H214	H	-0.150767	0.152587	-0.311603
H215	H	-0.199884	0.196905	-0.324033
H216	H	-0.724884	0.094041	0.248327
O217	O	-0.519748	-0.048385	0.156161
C218	C	-0.480667	-0.001266	0.123180
H219	H	-0.429285	0.064006	0.134762
H220	H	-0.535743	0.014928	0.118499
C221	C	-0.496096	-0.140010	0.063606
C222	C	-0.432982	-0.059845	0.077829
H223	H	-0.466685	-0.176145	0.035631
H224	H	-0.522429	-0.171756	0.085826
H225	H	-0.541988	-0.126503	0.059709
H226	H	-0.387098	-0.073352	0.081732
H227	H	-0.406640	-0.028102	0.055609
O228	O	0.097382	-0.448175	-0.852238
C229	C	0.092610	-0.535638	-0.882350
H230	H	0.024851	-0.583318	-0.869221
H231	H	0.149764	-0.559711	-0.884863
C232	C	0.184941	-0.475689	-0.945710
C233	C	0.101716	-0.534250	-0.929586
H234	H	0.190563	-0.474834	-0.974849
H235	H	0.188160	-0.416764	-0.925423
H236	H	0.232561	-0.495757	-0.947800
H237	H	0.054099	-0.514175	-0.927491
H238	H	0.098490	-0.593173	-0.949874
O239	O	0.013741	-0.700201	-0.149016
C240	C	-0.062937	-0.702866	-0.110564
H241	H	-0.119195	-0.691379	-0.116654
H242	H	-0.044687	-0.647943	-0.079738
C243	C	-0.026260	-0.809598	-0.094495
C244	C	-0.095359	-0.795496	-0.101976
H245	H	-0.046258	-0.866734	-0.089195
H246	H	0.025402	-0.807800	-0.120399
H247	H	-0.011058	-0.763822	-0.068807
H248	H	-0.110552	-0.841264	-0.127666
H249	H	-0.147024	-0.797304	-0.076075
H250	H	0.088092	-0.309407	-0.275738
O251	O	-0.277352	0.042750	0.218566
C252	C	-0.251860	-0.037766	0.192576
H253	H	-0.294428	-0.091897	0.210885
H254	H	-0.177340	-0.025560	0.187816
C255	C	-0.214895	-0.002599	0.123398
C256	C	-0.267183	-0.069086	0.145883
H257	H	-0.224342	-0.021918	0.094595
H258	H	-0.232066	0.051647	0.140907
H259	H	-0.152799	0.007566	0.119436
H260	H	-0.329277	-0.079242	0.149850
H261	H	-0.250023	-0.123335	0.128373
H262	H	0.013347	-0.692513	-0.652885
O263	O	-0.683063	-0.055652	-0.265766
C264	C	-0.681477	-0.101483	-0.311330
H265	H	-0.609264	-0.103111	-0.333024
H266	H	-0.707291	-0.065111	-0.323978
C267	C	-0.831112	-0.196480	-0.288065
C268	C	-0.742420	-0.198486	-0.314710
H269	H	-0.868708	-0.256315	-0.290150
H270	H	-0.832183	-0.165601	-0.257368
H271	H	-0.852612	-0.166166	-0.298608
H272	H	-0.720918	-0.228789	-0.304163
H273	H	-0.741347	-0.229372	-0.345405
H274	H	0.330510	-0.448858	0.033327
O275	O	-0.748488	0.103507	0.119332
C276	C	-0.704803	0.180874	0.103790
H277	H	-0.630161	0.202952	0.101490
H278	H	-0.737224	0.237417	0.128472
C279	C	-0.805792	0.132067	0.059402
C280	C	-0.714114	0.159178	0.056574
H281	H	-0.811538	0.118687	0.030278
H282	H	-0.835226	0.079945	0.069874
H283	H	-0.832799	0.179191	0.079972
H284	H	-0.687111	0.112051	0.036008
H285	H	-0.684675	0.211292	0.046097
H286	H	-0.365918	0.157102	-0.260160
H287	H	0.107243	-0.392097	-0.234140
O288	O	0.407550	-0.539055	0.047818
C289	C	0.321877	-0.523702	0.073241
H290	H	0.294950	-0.508609	0.051551
H291	H	0.328066	-0.463930	0.104584
C292	C	0.289378	-0.626600	0.114612
C293	C	0.256302	-0.608070	0.087970
H294	H	0.248928	-0.678640	0.123700
H295	H	0.347099	-0.636942	0.097486
H296	H	0.294534	-0.576784	0.140728
H297	H	0.251157	-0.657881	0.061852
H298	H	0.198578	-0.597739	0.105093
H299	H	0.245727	-0.224039	-0.533582
H300	H	-0.037104	-0.474911	-0.880014
O301	O	0.454090	-0.686276	-0.511684
C302	C	0.452376	-0.761411	-0.550357
H303	H	0.514897	-0.785562	-0.561503
H304	H	0.451766	-0.741563	-0.578990
C305	C	0.290081	-0.808008	-0.525177
C306	C	0.366867	-0.837676	-0.538864
H307	H	0.237334	-0.855051	-0.518089
H308	H	0.291235	-0.757386	-0.499123
H309	H	0.289586	-0.791468	-0.549040
H310	H	0.367368	-0.854204	-0.514999
H311	H	0.365711	-0.888302	-0.564914
O312	O	0.557149	-0.377437	-0.087142
C313	C	0.642848	-0.392740	-0.112544
H314	H	0.645819	-0.455358	-0.108138
H315	H	0.697333	-0.332131	-0.100104
C316	C	0.655197	-0.329837	-0.168463
C317	C	0.658844	-0.406749	-0.163054
H318	H	0.665067	-0.338474	-0.199620
H319	H	0.597461	-0.319523	-0.151349
H320	H	0.700602	-0.279336	-0.158093
H321	H	0.613433	-0.457245	-0.173419
H322	H	0.716573	-0.417071	-0.180172
O323	O	0.001361	-0.686217	-0.785232
C324	C	0.080516	-0.714507	-0.811956
H325	H	0.110362	-0.723052	-0.789310
H326	H	0.131861	-0.661859	-0.829887
C327	C	0.020646	-0.794492	-0.875331
C328	C	0.057300	-0.804995	-0.847517
H329	H	0.006328	-0.850307	-0.897268
H330	H	-0.032680	-0.775430	-0.857327
H331	H	0.063440	-0.750615	-0.890269
H332	H	0.014502	-0.848863	-0.832576
H333	H	0.110619	-0.824067	-0.865519
H334	H	0.107227	-0.532615	-0.804368
H335	H	-0.586315	-0.066836	-0.224702
H336	H	-0.123560	-0.607102	-0.263443
O337	O	-0.545867	0.040332	-0.148438
C338	C	-0.547526	0.117730	-0.110850
H339	H	-0.478221	0.168579	-0.116200
H340	H	-0.565275	0.098262	-0.078779
C341	C	-0.704101	0.097431	-0.099314
C342	C	-0.618982	0.159887	-0.105887
H343	H	-0.748181	0.123434	-0.096250
H344	H	-0.702985	0.045284	-0.124637
H345	H	-0.718879	0.081212	-0.072589
H346	H	-0.604200	0.176096	-0.132614
H347	H	-0.620097	0.212038	-0.080568
H348	H	-0.037089	-0.236932	-0.761035
O349	O	0.709247	-0.427503	-0.509827
C350	C	0.734704	-0.376202	-0.469906
H351	H	0.743054	-0.422306	-0.455292
H352	H	0.680203	-0.341733	-0.444004
C353	C	0.814600	-0.247823	-0.498979
C354	C	0.824863	-0.304447	-0.481031
H355	H	0.870212	-0.203558	-0.505840
H356	H	0.797447	-0.282384	-0.525873
H357	H	0.769179	-0.219107	-0.477391
H358	H	0.870274	-0.333170	-0.502621
H359	H	0.842026	-0.269890	-0.454140
O360	O	0.001369	-0.686192	-0.285236
C361	C	0.080518	-0.714488	-0.311964
H362	H	0.110377	-0.723022	-0.289320
H363	H	0.131857	-0.661849	-0.329902
C364	C	0.020619	-0.794497	-0.375328
C365	C	0.057288	-0.804986	-0.347517
H366	H	0.006291	-0.850318	-0.397261
H367	H	-0.032705	-0.775431	-0.357322
H368	H	0.063407	-0.750628	-0.390273
H369	H	0.014496	-0.848846	-0.332569
H370	H	0.110604	-0.824062	-0.365522
O371	O	-0.153818	-0.530207	-0.308117
C372	C	-0.210224	-0.472209	-0.289035
H373	H	-0.170661	-0.400768	-0.274600
H374	H	-0.270791	-0.495672	-0.260725
C375	C	-0.292057	-0.561410	-0.343662
C376	C	-0.243463	-0.473664	-0.325936
H377	H	-0.312565	-0.562310	-0.366423
H378	H	-0.254058	-0.600487	-0.356517
H379	H	-0.342524	-0.580953	-0.320066
H380	H	-0.192992	-0.454127	-0.349531
H381	H	-0.281455	-0.434584	-0.313086
O382	O	-0.442983	0.188101	-0.304278
C383	C	-0.360844	0.175736	-0.337489
H384	H	-0.361654	0.101997	-0.348524
H385	H	-0.302252	0.219570	-0.322751
C386	C	-0.348175	0.293192	-0.365218
C387	C	-0.349174	0.202623	-0.378774
H388	H	-0.340974	0.309781	-0.390684
H389	H	-0.403513	0.301525	-0.342842
H390	H	-0.299349	0.329709	-0.352936
H391	H	-0.398007	0.166107	-0.391050
H392	H	-0.293845	0.194284	-0.401153
H393	H	-0.037138	-0.474881	-0.380005
H394	H	-0.503619	0.071273	-0.373665
O395	O	-0.049204	-0.216238	-0.390138
C396	C	0.027481	-0.141415	-0.392510
H397	H	0.083735	-0.155127	-0.387530
H398	H	0.009238	-0.079266	-0.364801
C399	C	-0.009195	-0.108271	-0.445375
C400	C	0.059901	-0.125116	-0.439263
H401	H	0.010802	-0.098213	-0.474214
H402	H	-0.060861	-0.158679	-0.443776
H403	H	-0.024390	-0.056483	-0.422281
H404	H	0.075087	-0.176910	-0.462353
H405	H	0.111570	-0.074716	-0.440867
O406	O	-0.762008	0.090359	-0.380466
C407	C	-0.718322	0.167741	-0.395996
H408	H	-0.643678	0.189804	-0.398303
H409	H	-0.750734	0.224284	-0.371302
C410	C	-0.819330	0.118986	-0.440367
C411	C	-0.727649	0.146080	-0.443205
H412	H	-0.825086	0.105626	-0.469487
H413	H	-0.848765	0.066854	-0.429903
H414	H	-0.846330	0.166109	-0.419787
H415	H	-0.700654	0.098953	-0.463780
H416	H	-0.698210	0.198204	-0.453673
H417	H	0.550810	-0.383955	-0.581575
O418	O	0.726764	-0.700062	-0.005452
C419	C	0.754148	-0.657983	0.034250
H420	H	0.707127	-0.615226	0.060806
H421	H	0.826318	-0.613201	0.026003
C422	C	0.807839	-0.782782	0.020269
C423	C	0.750083	-0.730274	0.052887
H424	H	0.805336	-0.827374	0.031765
H425	H	0.789393	-0.811131	-0.006479
H426	H	0.867975	-0.745454	0.013400
H427	H	0.689947	-0.767600	0.059752
H428	H	0.768518	-0.701933	0.079637
H429	H	-0.489994	0.175891	0.311254
H430	H	0.634089	-0.467700	-0.572564
H431	H	-0.434254	-0.059305	0.203012
O432	O	0.510564	-0.230411	-0.027660
C433	C	0.568449	-0.277781	-0.065270
H434	H	0.534901	-0.316880	-0.093485
H435	H	0.582417	-0.326672	-0.054733
C436	C	0.699334	-0.162641	-0.047817
C437	C	0.658133	-0.210658	-0.082473
H438	H	0.754657	-0.121238	-0.058428
H439	H	0.660336	-0.130728	-0.022478
H440	H	0.710965	-0.203393	-0.039040
H441	H	0.646492	-0.169908	-0.091246
H442	H	0.697131	-0.242563	-0.107814
O443	O	-0.744826	0.080623	-0.244372
C444	C	-0.821987	0.006453	-0.240933
H445	H	-0.815525	-0.047521	-0.275000
H446	H	-0.884827	0.029211	-0.231080
C447	C	-0.838053	0.033894	-0.162627
C448	C	-0.830112	-0.032401	-0.204468
H449	H	-0.843068	0.009929	-0.140132
H450	H	-0.786070	0.083866	-0.164943
H451	H	-0.890419	0.052853	-0.154422
H452	H	-0.777741	-0.051350	-0.212675
H453	H	-0.882086	-0.082377	-0.202153
O454	O	0.510404	-0.230313	-0.527475
C455	C	0.512131	-0.155151	-0.488814
H456	H	0.442856	-0.163942	-0.462427
H457	H	0.529864	-0.091508	-0.498800
C458	C	0.668728	-0.136350	-0.501148
C459	C	0.583645	-0.147150	-0.468737
H460	H	0.712843	-0.131411	-0.488764
H461	H	0.667566	-0.186985	-0.527195
H462	H	0.683493	-0.083314	-0.509467
H463	H	0.568877	-0.200191	-0.460423
H464	H	0.584806	-0.096523	-0.442688
H465	H	0.718758	-0.692512	-0.505593
O466	O	0.709377	-0.427441	-0.009911
C467	C	0.734837	-0.376156	0.030011
H468	H	0.743205	-0.422269	0.044612
H469	H	0.680328	-0.341704	0.055921
C470	C	0.814698	-0.247747	0.000960
C471	C	0.824983	-0.304383	0.018892
H472	H	0.870302	-0.203471	-0.005897
H473	H	0.797543	-0.282296	-0.025935
H474	H	0.769271	-0.219046	0.022555
H475	H	0.870401	-0.333091	-0.002704
H476	H	0.842148	-0.269836	0.045784
O477	O	0.647654	-0.468619	-0.077355
C478	C	0.646072	-0.559701	-0.100258
H479	H	0.573860	-0.601137	-0.100095
H480	H	0.671890	-0.585706	-0.082427
C481	C	0.795705	-0.517201	-0.149778
C482	C	0.707014	-0.568092	-0.149583
H483	H	0.833300	-0.522378	-0.180204
H484	H	0.796773	-0.455838	-0.134348
H485	H	0.817208	-0.538878	-0.134918
H486	H	0.685509	-0.546408	-0.164438
H487	H	0.705944	-0.629453	-0.165017
H488	H	-0.048809	-0.224052	-0.886301
H489	H	0.261638	-0.474883	-0.529387
O490	O	0.316911	-0.448068	-0.461886
C491	C	0.292156	-0.495100	-0.430128
H492	H	0.355586	-0.499701	-0.427330
H493	H	0.247913	-0.565803	-0.441763
C494	C	0.161288	-0.439103	-0.386937
C495	C	0.239195	-0.444747	-0.383498
H496	H	0.128616	-0.408046	-0.358174
H497	H	0.177964	-0.407419	-0.408334
H498	H	0.124430	-0.498026	-0.396635
H499	H	0.276057	-0.385826	-0.373806
H500	H	0.222524	-0.476420	-0.362098
H501	H	0.001639	-0.441666	-0.659178
O502	O	0.407701	-0.539092	-0.452124
C503	C	0.467231	-0.582056	-0.454174
H504	H	0.539227	-0.549551	-0.472775
H505	H	0.447156	-0.656492	-0.473104
C506	C	0.373691	-0.612266	-0.382870
C507	C	0.462120	-0.572338	-0.405713
H508	H	0.370536	-0.606276	-0.352977
H509	H	0.333583	-0.583324	-0.381489
H510	H	0.356972	-0.674293	-0.398650
H511	H	0.478833	-0.510310	-0.389936
H512	H	0.502231	-0.601270	-0.407090
H513	H	-0.281187	0.020914	-0.148901
H514	H	-0.574318	0.196197	0.271049
O515	O	0.237853	-0.216284	-0.033688
C516	C	0.160920	-0.213656	0.004674
H517	H	0.173282	-0.225156	0.032713
H518	H	0.100006	-0.268589	-0.004818
C519	C	0.127287	-0.106922	-0.012916
C520	C	0.142473	-0.121038	0.021524
H521	H	0.115905	-0.049793	-0.002523
H522	H	0.179117	-0.108695	-0.038763
H523	H	0.076527	-0.152706	-0.020823
H524	H	0.193239	-0.075262	0.029426
H525	H	0.090652	-0.119256	0.047372
O526	O	-0.259894	0.033383	0.354633
C527	C	-0.232717	-0.046877	0.333300
H528	H	-0.231794	-0.072039	0.296278
H529	H	-0.282241	-0.100074	0.351260
C530	C	-0.138511	0.002209	0.381218
C531	C	-0.137370	-0.028692	0.335746
H532	H	-0.079699	0.013423	0.382728
H533	H	-0.156823	0.056280	0.395592
H534	H	-0.179786	-0.042128	0.396179
H535	H	-0.096105	0.015648	0.320787
H536	H	-0.119048	-0.082756	0.321370
O537	O	-0.153837	-0.377594	-0.731769
C538	C	-0.210212	-0.414196	-0.760018
H539	H	-0.202445	-0.483884	-0.782617
H540	H	-0.190218	-0.368472	-0.782066
C541	C	-0.318835	-0.336213	-0.702806
C542	C	-0.309301	-0.421809	-0.730560
H543	H	-0.379957	-0.340906	-0.684636
H544	H	-0.280853	-0.311550	-0.683775
H545	H	-0.302168	-0.298119	-0.721185
H546	H	-0.325957	-0.459898	-0.712182
H547	H	-0.347288	-0.446478	-0.749588
H548	H	0.261721	-0.474856	-0.029430
O549	O	-0.532484	0.053308	0.351284
C550	C	-0.567103	0.058871	0.320853
H551	H	-0.527588	0.029250	0.284528
H552	H	-0.560272	0.132390	0.326312
C553	C	-0.716057	0.042028	0.373925
C554	C	-0.667529	0.005640	0.329309
H555	H	-0.778005	0.009197	0.379141
H556	H	-0.692733	0.038284	0.394428
H557	H	-0.710355	0.103293	0.378468
H558	H	-0.673222	-0.055619	0.324768
H559	H	-0.690856	0.009373	0.308805
H560	H	-0.123559	-0.467696	-0.693740
H561	H	0.468233	-0.679598	-0.011487
O562	O	-0.476052	0.083671	0.122766
C563	C	-0.418150	0.157331	0.145654
H564	H	-0.458419	0.184405	0.182221
H565	H	-0.387114	0.212612	0.127928
C566	C	-0.292968	0.093295	0.100292
C567	C	-0.342426	0.126543	0.145206
H568	H	-0.246256	0.074306	0.100015
H569	H	-0.331977	0.043671	0.084871
H570	H	-0.267114	0.139368	0.085526
H571	H	-0.368289	0.080467	0.159970
H572	H	-0.303420	0.176159	0.160630
