data_functionalizedCrystal
_audit_creation_method	'MofGen! by Chris Wilmer'
_symmetry_space_group_name_H-M	'P1'
_symmetry_Int_Tables_number	1
_symmetry_cell_setting	triclinic
loop_
_symmetry_equiv_pos_as_xyz
  x,y,z
_cell_length_a	33.428889
_cell_length_b	33.428139
_cell_length_c	33.424847
_cell_angle_alpha	60.004234
_cell_angle_beta	60.008465
_cell_angle_gamma	59.994972
loop_
_atom_site_label
_atom_site_type_symbol
_atom_site_fract_x
_atom_site_fract_y
_atom_site_fract_z
O1	O	0.055565	-0.584504	0.488714
O2	O	0.020982	-0.455083	0.393778
O3	O	0.102943	-0.536959	0.393689
O4	O	-0.026396	-0.502628	0.488803
O5	O	0.130140	-0.509767	0.420792
O6	O	0.048179	-0.427891	0.420881
O7	O	0.082762	-0.557312	0.515817
Cu8	Cu	0.067954	-0.490119	0.470823
Cu9	Cu	0.035790	-0.522276	0.438771
O10	O	0.000801	-0.475436	0.515906
N11	N	0.090577	-0.467504	0.493370
N12	N	0.013171	-0.544895	0.416225
C13	C	0.143377	-0.280390	0.546067
C14	C	0.143515	-0.414755	0.680369
C15	C	0.143392	-0.414735	0.546069
C16	C	0.277766	-0.414702	0.545966
C17	C	0.158177	-0.324719	0.560828
C18	C	0.158255	-0.399967	0.636038
C19	C	0.233434	-0.399936	0.560773
C20	C	0.158186	-0.399955	0.560829
C21	C	0.124540	-0.223964	0.527278
C22	C	0.124565	-0.433545	0.527281
C23	C	0.177014	-0.381145	0.579617
C24	C	0.359814	-0.400540	0.502735
C25	C	0.411105	-0.417624	0.485606
C26	C	0.411136	-0.500620	0.517255
C27	C	0.359845	-0.483534	0.534385
C28	C	0.136887	-0.198305	0.476855
C29	C	0.119761	-0.147011	0.459777
C30	C	0.077945	-0.147038	0.543547
C31	C	0.095072	-0.198332	0.560625
C32	C	0.074134	-0.421169	0.539710
C33	C	0.057023	-0.438269	0.522625
C34	C	0.140770	-0.480120	0.480694
C35	C	0.157883	-0.463020	0.497773
C36	C	0.074339	-0.421208	0.762475
C37	C	0.057288	-0.438323	0.813768
C38	C	0.141075	-0.480183	0.813699
C39	C	0.158125	-0.463069	0.762404
C40	C	0.124756	-0.433580	0.736794
C41	C	0.334186	-0.433494	0.527123
C42	C	-0.173769	-0.597444	0.363037
C43	C	-0.039302	-0.597595	0.228856
C44	C	-0.039496	-0.597587	0.363300
C45	C	-0.039512	-0.731889	0.363237
C46	C	-0.129442	-0.612265	0.348329
C47	C	-0.054138	-0.612351	0.273187
C48	C	-0.054257	-0.687554	0.348440
C49	C	-0.054247	-0.612346	0.348477
C50	C	-0.230191	-0.578579	0.381758
C51	C	-0.020722	-0.578803	0.382168
C52	C	-0.073020	-0.631130	0.329609
C53	C	-0.053713	-0.813916	0.406386
C54	C	-0.036654	-0.865210	0.423504
C55	C	0.046338	-0.865293	0.391984
C56	C	0.029278	-0.813999	0.374865
C57	C	-0.255900	-0.590938	0.432169
C58	C	-0.307191	-0.573786	0.449185
C59	C	-0.307060	-0.531922	0.365377
C60	C	-0.255769	-0.549074	0.348360
C61	C	-0.033081	-0.528377	0.369764
C62	C	-0.016014	-0.511306	0.386922
C63	C	0.025770	-0.595083	0.428877
C64	C	0.008703	-0.612156	0.411725
C65	C	-0.032755	-0.528393	0.146761
C66	C	-0.015585	-0.511324	0.095468
C67	C	0.026262	-0.595106	0.095516
C68	C	0.009094	-0.612174	0.146811
C69	C	-0.020417	-0.578816	0.172432
C70	C	-0.020748	-0.788312	0.382068
N71	N	0.436037	-0.467415	0.493101
O72	O	0.592642	-0.471896	0.376066
O73	O	0.592838	-0.567146	0.505347
O74	O	0.592754	-0.566928	0.423360
O75	O	0.592727	-0.472113	0.458053
O76	O	0.511269	-0.539835	0.450606
O77	O	0.511353	-0.540052	0.532594
O78	O	0.511157	-0.444802	0.403312
Cu79	Cu	0.503815	-0.489954	0.470441
Cu80	Cu	0.600180	-0.521995	0.438219
O81	O	0.511242	-0.445020	0.485300
N82	N	0.667959	-0.544533	0.415554
N83	N	0.090544	-0.122107	0.493359
O84	O	-0.026406	0.034587	0.488773
O85	O	0.102877	0.034627	0.393499
O86	O	0.020848	0.034591	0.393771
O87	O	0.055623	0.034623	0.488500
O88	O	0.048051	-0.046899	0.420925
O89	O	0.130080	-0.046864	0.420653
O90	O	0.000796	-0.046903	0.515927
Cu91	Cu	0.067922	-0.054324	0.470769
Cu92	Cu	0.035752	0.042048	0.438656
O93	O	0.082825	-0.046867	0.515655
N94	N	0.013123	0.109830	0.416068
N95	N	0.090892	-0.467554	0.838649
O96	O	0.086330	-0.584488	0.995334
O97	O	-0.008902	-0.455160	0.995379
O98	O	-0.008679	-0.537172	0.995355
O99	O	0.086107	-0.502475	0.995358
O100	O	0.018452	-0.509990	0.913868
O101	O	0.018230	-0.427978	0.913891
O102	O	0.113461	-0.557306	0.913847
Cu103	Cu	0.068323	-0.490160	0.906429
Cu104	Cu	0.036237	-0.522306	1.002797
O105	O	0.113239	-0.475293	0.913870
N106	N	0.013667	-0.544916	1.070577
C107	C	0.031339	-0.425179	0.394250
C108	C	0.132837	-0.526572	0.394139
C109	C	0.072405	-0.587216	0.515344
C110	C	-0.029093	-0.485823	0.515455
C111	C	0.552119	-0.566716	0.535258
C112	C	0.552016	-0.566447	0.433726
C113	C	0.551873	-0.445232	0.373402
C114	C	0.551980	-0.445502	0.474933
C115	C	0.132731	-0.006013	0.393923
C116	C	0.031182	-0.006158	0.394293
C117	C	-0.029092	-0.006163	0.515469
C118	C	0.072491	-0.006119	0.515133
C119	C	-0.008451	-0.425276	0.954641
C120	C	-0.008170	-0.526833	0.954596
C121	C	0.113010	-0.587190	0.954585
C122	C	0.112735	-0.485627	0.954611
H123	H	0.016234	-0.428240	0.834672
H124	H	0.552029	-0.596233	0.426301
H125	H	0.551974	-0.415718	0.482355
C126	C	-0.335479	-0.587374	0.504639
C127	C	-0.370750	-0.546797	0.527872
C128	C	-0.399038	-0.560383	0.583326
C129	C	-0.392055	-0.614545	0.615546
C130	C	-0.356783	-0.655125	0.592313
C131	C	-0.328495	-0.641540	0.536859
H132	H	-0.375920	-0.506700	0.504020
H133	H	-0.425149	-0.530342	0.600524
H134	H	-0.412996	-0.624601	0.656596
H135	H	-0.351613	-0.695222	0.616165
H136	H	-0.302384	-0.671581	0.519661
H137	H	0.169984	-0.533889	0.364272
C138	C	0.552192	-0.607115	0.585418
C139	C	0.594544	-0.656383	0.588708
C140	C	0.594617	-0.696782	0.638867
C141	C	0.552338	-0.687914	0.685737
C142	C	0.509983	-0.638644	0.682448
C143	C	0.509911	-0.598245	0.632289
H144	H	0.625844	-0.662950	0.554010
H145	H	0.625971	-0.733255	0.641301
H146	H	0.552392	-0.717820	0.722868
H147	H	0.478683	-0.632078	0.717146
H148	H	0.478557	-0.561772	0.629855
H149	H	0.169783	-0.005775	0.363939
H150	H	-0.066242	-0.478508	0.545321
C151	C	0.021125	-0.006168	0.354084
C152	C	-0.029128	-0.006188	0.364143
C153	C	-0.039185	-0.006199	0.323935
C154	C	0.001011	-0.006190	0.273667
C155	C	0.051268	-0.006170	0.263606
C156	C	0.061325	-0.006159	0.303815
H157	H	-0.058887	-0.006195	0.401356
H158	H	-0.076389	-0.006214	0.331383
H159	H	-0.006433	-0.006198	0.243902
H160	H	0.081027	-0.006163	0.226393
H161	H	0.098529	-0.006145	0.296367
C162	C	0.037631	-0.388770	0.734304
C163	C	0.037827	-0.336697	0.699051
C164	C	0.001120	-0.304262	0.670879
C165	C	-0.035781	-0.323901	0.677961
C166	C	-0.035978	-0.375976	0.713216
C167	C	0.000728	-0.408411	0.741388
H168	H	0.065145	-0.322156	0.693807
H169	H	0.001266	-0.265712	0.644781
H170	H	-0.062954	-0.299891	0.657107
H171	H	-0.063296	-0.390517	0.718460
H172	H	0.000582	-0.446961	0.767486
C173	C	0.551793	-0.404830	0.323245
C174	C	0.551757	-0.414621	0.282877
C175	C	0.551676	-0.374219	0.232720
C176	C	0.551631	-0.324026	0.222932
C177	C	0.551667	-0.314232	0.263301
C178	C	0.551748	-0.354634	0.313458
H179	H	0.551790	-0.451779	0.290121
H180	H	0.551649	-0.381469	0.202835
H181	H	0.551571	-0.294118	0.185802
H182	H	0.551634	-0.277074	0.256057
H183	H	0.551775	-0.347384	0.343343
H184	H	-0.066220	-0.006175	0.545378
H185	H	0.079939	-0.006110	0.544893
H186	H	-0.038348	-0.388133	0.954654
H187	H	-0.037935	-0.534246	0.954563
C188	C	0.153403	-0.637365	0.954567
C189	C	0.144520	-0.684215	0.996871
C190	C	0.184913	-0.734390	0.996854
C191	C	0.234190	-0.737717	0.954532
C192	C	0.243075	-0.690866	0.912224
C193	C	0.202682	-0.640690	0.912242
H194	H	0.108041	-0.681754	1.028204
H195	H	0.178335	-0.769072	1.028173
H196	H	0.264091	-0.774860	0.954519
H197	H	0.279554	-0.693327	0.880892
H198	H	0.209260	-0.606008	0.880923
C199	C	0.177782	-0.512611	0.841871
C200	C	0.233240	-0.526217	0.813624
C201	C	0.269946	-0.558648	0.841796
C202	C	0.251194	-0.577472	0.898216
C203	C	0.195732	-0.563866	0.926466
C204	C	0.159027	-0.531436	0.898294
H205	H	0.247124	-0.512282	0.771856
H206	H	0.311002	-0.568719	0.820883
H207	H	0.278365	-0.601479	0.919071
H208	H	0.181848	-0.577801	0.968234
H209	H	0.117971	-0.521364	0.919207
C210	C	0.213587	-0.476679	0.734157
C211	C	0.236825	-0.436116	0.698885
C212	C	0.292286	-0.449725	0.670639
C213	C	0.324510	-0.503895	0.677664
C214	C	0.301273	-0.544461	0.712937
C215	C	0.245811	-0.530853	0.741183
H216	H	0.212971	-0.396013	0.693683
H217	H	0.309488	-0.419695	0.644527
H218	H	0.365566	-0.513969	0.656754
H219	H	0.325127	-0.584565	0.718139
H220	H	0.228610	-0.560883	0.767295
C221	C	0.001550	-0.424662	0.536292
C222	C	-0.030609	-0.439614	0.590476
C223	C	-0.086081	-0.426007	0.604141
C224	C	-0.109395	-0.397448	0.563622
C225	C	-0.077237	-0.382494	0.509434
C226	C	-0.021764	-0.396101	0.495769
H227	H	-0.013351	-0.460756	0.620474
H228	H	-0.109887	-0.437076	0.644255
H229	H	-0.150459	-0.387375	0.573737
H230	H	-0.094495	-0.361352	0.479436
H231	H	0.002042	-0.385032	0.455655
C232	C	0.177423	-0.512547	0.448238
C233	C	0.214355	-0.562018	0.467831
C234	C	0.251006	-0.594443	0.435375
C235	C	0.250724	-0.577398	0.383325
C236	C	0.213790	-0.527925	0.363728
C237	C	0.177140	-0.495499	0.396185
H238	H	0.214565	-0.574638	0.506365
H239	H	0.278347	-0.631066	0.449882
H240	H	0.277855	-0.601401	0.359298
H241	H	0.213580	-0.515305	0.325195
H242	H	0.149799	-0.458876	0.381678
C243	C	0.152967	-0.475599	0.954604
C244	C	0.143925	-0.462080	0.996922
C245	C	0.184157	-0.452053	0.996915
C246	C	0.233432	-0.455545	0.954589
C247	C	0.242476	-0.469064	0.912268
C248	C	0.202244	-0.479092	0.912275
H249	H	0.107447	-0.459495	1.028257
H250	H	0.177462	-0.442045	1.028244
H251	H	0.263214	-0.448122	0.954584
H252	H	0.278954	-0.471650	0.880933
H253	H	0.208940	-0.489100	0.880946
C254	C	0.213355	-0.476620	0.484105
C255	C	0.245597	-0.530787	0.498997
C256	C	0.301068	-0.544383	0.485330
C257	C	0.324297	-0.503811	0.456772
C258	C	0.292055	-0.449640	0.441878
C259	C	0.236584	-0.436044	0.455545
H260	H	0.228402	-0.560825	0.520139
H261	H	0.324935	-0.584484	0.496356
H262	H	0.365359	-0.513875	0.446655
H263	H	0.309250	-0.419603	0.420736
H264	H	0.212716	-0.395943	0.444520
C265	C	0.331657	-0.519785	0.561205
C266	C	0.359886	-0.574826	0.569182
C267	C	0.331698	-0.611079	0.595998
C268	C	0.275280	-0.592291	0.614838
C269	C	0.247047	-0.537247	0.606862
C270	C	0.275235	-0.500995	0.580046
H271	H	0.401653	-0.588737	0.555235
H272	H	0.352598	-0.651826	0.601903
H273	H	0.254413	-0.619127	0.634689
H274	H	0.205280	-0.523337	0.620809
H275	H	0.254335	-0.460248	0.574141
C276	C	0.439362	-0.555664	0.525241
C277	C	0.432358	-0.592968	0.577577
C278	C	0.460586	-0.648013	0.585562
C279	C	0.495819	-0.665754	0.541211
C280	C	0.502825	-0.628449	0.488871
C281	C	0.474596	-0.573404	0.480886
H282	H	0.406275	-0.579836	0.610412
H283	H	0.455400	-0.675628	0.624308
H284	H	0.516715	-0.706501	0.547122
H285	H	0.528907	-0.641581	0.456037
H286	H	0.479782	-0.545789	0.442140
H287	H	0.431972	-0.390789	0.465748
C288	C	0.331587	-0.345494	0.494748
C289	C	0.359781	-0.309247	0.467923
C290	C	0.331556	-0.254201	0.459934
C291	C	0.275138	-0.235402	0.478770
C292	C	0.246941	-0.271650	0.505598
C293	C	0.275166	-0.326695	0.513586
H294	H	0.401548	-0.323162	0.453977
H295	H	0.352430	-0.227368	0.440074
H296	H	0.254245	-0.194654	0.472857
H297	H	0.205175	-0.257734	0.519543
H298	H	0.254292	-0.353528	0.533446
H299	H	0.160882	-0.219171	0.449698
C300	C	0.133342	-0.118781	0.404309
C301	C	0.165761	-0.146975	0.367628
C302	C	0.179343	-0.118748	0.312160
C303	C	0.160506	-0.062326	0.293372
C304	C	0.128086	-0.034129	0.330053
C305	C	0.114504	-0.062356	0.385522
H306	H	0.179707	-0.188745	0.381535
H307	H	0.203343	-0.139622	0.285006
H308	H	0.170560	-0.041430	0.252311
H309	H	0.114140	0.007641	0.316146
H310	H	0.090503	-0.041482	0.412675
H311	H	0.053957	-0.126168	0.570702
C312	C	0.081491	-0.226555	0.616092
C313	C	0.122068	-0.261812	0.639330
C314	C	0.108486	-0.290036	0.694799
C315	C	0.054325	-0.283003	0.727030
C316	C	0.013744	-0.247745	0.703793
C317	C	0.027327	-0.219521	0.648324
H318	H	0.162164	-0.267020	0.615470
H319	H	0.138527	-0.316136	0.712001
H320	H	0.044271	-0.303896	0.768092
H321	H	-0.026351	-0.242537	0.727653
H322	H	-0.002714	-0.193421	0.631122
C323	C	-0.029169	-0.455856	0.067235
C324	C	-0.014266	-0.423675	0.074339
C325	C	-0.027848	-0.368206	0.046106
C326	C	-0.056331	-0.344918	0.010769
C327	C	-0.071235	-0.377098	0.003663
C328	C	-0.057654	-0.432567	0.031896
H329	H	0.006820	-0.440915	0.100499
H330	H	-0.016815	-0.344384	0.051366
H331	H	-0.066385	-0.303856	-0.010131
H332	H	-0.092322	-0.359859	-0.022497
H333	H	-0.068687	-0.456389	0.026635
H334	H	0.047002	-0.397168	0.563734
H335	H	-0.056788	-0.501226	0.167618
H336	H	0.019144	-0.653235	0.167709
C337	C	-0.065454	-0.491689	0.337259
C338	C	-0.079055	-0.436222	0.323624
C339	C	-0.111429	-0.399533	0.291118
C340	C	-0.130204	-0.418310	0.272247
C341	C	-0.116604	-0.473779	0.285882
C342	C	-0.084229	-0.510468	0.318387
H343	H	-0.065156	-0.422320	0.337594
H344	H	-0.121497	-0.358471	0.281025
H345	H	-0.154169	-0.391150	0.248184
H346	H	-0.130502	-0.487682	0.271912
H347	H	-0.074161	-0.551531	0.328480
H348	H	0.050281	-0.622271	0.074658
H349	H	0.049734	-0.622248	0.452940
C350	C	-0.029603	-0.455838	0.373281
C351	C	-0.014593	-0.423666	0.319108
C352	C	-0.028181	-0.368199	0.305468
C353	C	-0.056779	-0.344903	0.346001
C354	C	-0.071791	-0.377074	0.400179
C355	C	-0.058203	-0.432542	0.413818
H356	H	0.006579	-0.440911	0.289099
H357	H	-0.017067	-0.344383	0.265362
H358	H	-0.066838	-0.303842	0.335904
H359	H	-0.092963	-0.359829	0.430187
H360	H	-0.069317	-0.456357	0.453924
H361	H	0.018765	-0.653217	0.421828
H362	H	0.087072	-0.886205	0.386121
C363	C	0.065542	-0.785837	0.348114
C364	C	0.120568	-0.814097	0.340196
C365	C	0.156835	-0.785936	0.313443
C366	C	0.138075	-0.729514	0.294609
C367	C	0.083046	-0.701251	0.302527
C368	C	0.046780	-0.729412	0.329279
H369	H	0.134457	-0.855867	0.354138
H370	H	0.197571	-0.806858	0.307582
H371	H	0.164922	-0.708667	0.274806
H372	H	0.069157	-0.659481	0.288584
H373	H	0.006044	-0.708490	0.335140
H374	H	-0.063498	-0.886058	0.443304
C375	C	0.082383	-0.637441	0.555629
C376	C	0.050630	-0.669086	0.576747
C377	C	0.060608	-0.719310	0.617031
C378	C	0.102340	-0.737889	0.636197
C379	C	0.134096	-0.706243	0.615079
C380	C	0.124118	-0.656019	0.574795
H381	H	0.019735	-0.655333	0.562559
H382	H	0.037100	-0.742736	0.632664
H383	H	0.109726	-0.775068	0.666018
H384	H	0.164991	-0.719996	0.629267
H385	H	0.147626	-0.632593	0.559162
H386	H	-0.094449	-0.793002	0.412253
H387	H	-0.327887	-0.507903	0.338181
C388	C	-0.227765	-0.623392	0.468907
C389	C	-0.234862	-0.603760	0.505829
C390	C	-0.206725	-0.636215	0.542566
C391	C	-0.171491	-0.688302	0.542381
C392	C	-0.164392	-0.707937	0.505457
C393	C	-0.192529	-0.675482	0.468720
H394	H	-0.260946	-0.565199	0.505967
H395	H	-0.211981	-0.621679	0.569899
H396	H	-0.150662	-0.712327	0.569576
H397	H	-0.138308	-0.746497	0.505319
H398	H	-0.187274	-0.690017	0.441387
C399	C	-0.227490	-0.535480	0.292907
C400	C	-0.255628	-0.503024	0.256174
C401	C	-0.227348	-0.489428	0.200718
C402	C	-0.170930	-0.508290	0.181996
C403	C	-0.142789	-0.540748	0.218730
C404	C	-0.171069	-0.554344	0.274186
H405	H	-0.297395	-0.489059	0.270032
H406	H	-0.248180	-0.465400	0.173525
H407	H	-0.149996	-0.498226	0.140945
H408	H	-0.101022	-0.554713	0.204872
H409	H	-0.150237	-0.578372	0.301379
H410	H	0.023949	-0.388000	0.364433
