data_functionalizedCrystal
_audit_creation_method	'MofGen! by Chris Wilmer'
_symmetry_space_group_name_H-M	'P1'
_symmetry_Int_Tables_number	1
_symmetry_cell_setting	triclinic
loop_
_symmetry_equiv_pos_as_xyz
  x,y,z
_cell_length_a	11.792241
_cell_length_b	9.565339
_cell_length_c	11.792254
_cell_angle_alpha	89.999943
_cell_angle_beta	84.196007
_cell_angle_gamma	89.999376
loop_
_atom_site_label
_atom_site_type_symbol
_atom_site_fract_x
_atom_site_fract_y
_atom_site_fract_z
O1	O	1.506915	0.116125	0.155559
O2	O	1.176575	0.116158	0.171592
O3	O	1.349754	0.116130	-0.001594
O4	O	1.333736	0.116152	0.328745
O5	O	1.349740	-0.116390	-0.001584
O6	O	1.176561	-0.116363	0.171602
O7	O	1.506901	-0.116395	0.155570
Zn8	Zn	1.341729	-0.153296	0.163588
Zn9	Zn	1.341747	0.153059	0.163574
O10	O	1.333722	-0.116368	0.328756
C11	C	1.134277	-0.000098	0.170590
C12	C	1.008263	-0.000086	0.167576
N13	N	1.341725	-0.362376	0.163597
C14	C	0.777551	-0.000127	0.162033
C15	C	0.905936	-0.000104	0.165112
C16	C	1.261611	-0.453566	0.243663
C17	C	1.364313	-0.546754	0.266317
C18	C	1.239067	-0.546744	0.140951
C19	C	1.444479	-0.453512	0.186303
C20	C	1.319165	-0.453493	0.060891
C21	C	1.421942	-0.546639	0.083503
C22	C	1.549199	-0.000136	0.156571
C23	C	1.675213	-0.000139	0.159586
C24	C	1.348738	-0.000129	-0.043880
C25	C	1.345718	-0.000127	-0.169893
N26	N	1.341760	0.362138	0.163556
C27	C	1.343264	-0.000122	-0.272229
C28	C	1.340196	-0.000109	-0.400616
C29	C	1.334738	-0.000106	0.371041
C30	C	1.337758	-0.000098	0.497054
H31	H	1.383418	-0.587718	0.353155
N32	N	1.559523	-0.399499	0.211785
H33	H	1.550333	-0.340727	0.283279
H34	H	1.611584	-0.481031	0.223220
N35	N	1.171941	-0.399438	0.333422
H36	H	1.189148	-0.433370	0.410961
H37	H	1.172103	-0.293863	0.332224
N38	N	1.511792	-0.600444	-0.006215
H39	H	1.589273	-0.566346	0.011025
H40	H	1.510770	-0.706022	-0.006145
H41	H	1.300028	-0.412497	-0.025919
N42	N	1.124058	-0.601006	0.115597
H43	H	1.063594	-0.567152	0.176147
H44	H	1.106480	-0.565618	0.038600
