data_functionalizedCrystal
_audit_creation_method	'MofGen! by Chris Wilmer'
_symmetry_space_group_name_H-M	'P1'
_symmetry_Int_Tables_number	1
_symmetry_cell_setting	triclinic
loop_
_symmetry_equiv_pos_as_xyz
  x,y,z
_cell_length_a	26.374263
_cell_length_b	26.373608
_cell_length_c	26.370205
_cell_angle_alpha	60.005297
_cell_angle_beta	60.010839
_cell_angle_gamma	59.993700
loop_
_atom_site_label
_atom_site_type_symbol
_atom_site_fract_x
_atom_site_fract_y
_atom_site_fract_z
O1	O	0.070152	-0.740800	0.619517
O2	O	0.570152	-0.240800	1.119517
O3	O	0.026377	-0.576764	0.499159
O4	O	0.526377	-0.076764	0.999159
O5	O	0.130245	-0.680560	0.499088
O6	O	0.630245	-0.180560	0.999088
O7	O	-0.033715	-0.637003	0.619589
O8	O	0.466285	-0.137003	1.119589
O9	O	0.164701	-0.646107	0.533470
O10	O	0.664701	-0.146107	1.033470
O11	O	0.060833	-0.542310	0.533541
O12	O	0.560833	-0.042310	1.033541
O13	O	0.104608	-0.706346	0.653899
O14	O	0.604608	-0.206346	1.153899
Cu15	Cu	0.085867	-0.621182	0.596859
Cu16	Cu	0.585867	-0.121182	1.096859
Cu17	Cu	0.045119	-0.661927	0.556199
Cu18	Cu	0.545119	-0.161927	1.056199
O19	O	0.000741	-0.602549	0.653971
O20	O	0.500741	-0.102549	1.153971
N21	N	0.114528	-0.592529	0.625461
N22	N	0.614528	-0.092529	1.125461
N23	N	0.016463	-0.690587	0.527598
N24	N	0.516463	-0.190587	1.027598
C25	C	0.181428	-0.355400	0.692330
C26	C	0.681428	0.144600	1.192330
C27	C	0.181530	-0.525690	0.862573
C28	C	0.681530	-0.025690	1.362573
C29	C	0.181440	-0.525667	0.692313
C30	C	0.681440	-0.025667	1.192313
C31	C	0.351736	-0.525673	0.692271
C32	C	0.851736	-0.025673	1.192271
C33	C	0.200174	-0.411588	0.711047
C34	C	0.700174	0.088412	1.211047
C35	C	0.200232	-0.506954	0.806384
C36	C	0.700232	-0.006954	1.306384
C37	C	0.295546	-0.506943	0.711016
C38	C	0.795546	-0.006943	1.211016
C39	C	0.200182	-0.506940	0.711037
C40	C	0.700182	-0.006940	1.211037
C41	C	0.157567	-0.283881	0.668507
C42	C	0.657567	0.216119	1.168507
C43	C	0.157587	-0.549500	0.668479
C44	C	0.657587	-0.049500	1.168479
C45	C	0.224035	-0.483107	0.734871
C46	C	0.724035	0.016893	1.234871
C47	C	0.455739	-0.507754	0.637520
C48	C	0.955739	-0.007754	1.137520
C49	C	0.520749	-0.529425	0.615835
C50	C	1.020749	-0.029425	1.115835
C51	C	0.520768	-0.634611	0.655947
C52	C	1.020768	-0.134611	1.155947
C53	C	0.455759	-0.612939	0.677633
C54	C	0.955759	-0.112939	1.177633
C55	C	0.173240	-0.251367	0.604595
C56	C	0.673240	0.248633	1.104595
C57	C	0.151546	-0.186351	0.582941
C58	C	0.651546	0.313649	1.082941
C59	C	0.098512	-0.186369	0.689113
C60	C	0.598512	0.313631	1.189113
C61	C	0.120206	-0.251385	0.710768
C62	C	0.620206	0.248615	1.210768
C63	C	0.093669	-0.533798	0.684205
C64	C	0.593669	-0.033798	1.184205
C65	C	0.071992	-0.555464	0.662532
C66	C	0.571992	-0.055464	1.162532
C67	C	0.178144	-0.608536	0.609422
C68	C	0.678144	-0.108536	1.109422
C69	C	0.199825	-0.586869	0.631088
C70	C	0.699825	-0.086869	1.131088
C71	C	0.093821	-0.533842	0.966616
C72	C	0.593821	-0.033842	1.466616
C73	C	0.072187	-0.555526	1.031630
C74	C	0.572187	-0.055526	1.531630
C75	C	0.178370	-0.608608	1.031591
C76	C	0.678370	-0.108608	1.531591
C77	C	0.200004	-0.586926	0.966576
C78	C	0.700004	-0.086926	1.466576
C79	C	0.157728	-0.549541	0.934090
C80	C	0.657728	-0.049541	1.434090
C81	C	0.423247	-0.549509	0.668416
C82	C	0.923247	-0.049509	1.168416
C83	C	-0.097522	-0.709158	0.508557
C84	C	0.402478	-0.209158	1.008557
C85	C	-0.002050	-0.709295	0.413344
C86	C	0.497950	-0.209295	0.913344
C87	C	-0.002241	-0.804604	0.508735
C88	C	0.497759	-0.304604	1.008735
C89	C	-0.002225	-0.709288	0.508793
C90	C	0.497775	-0.209288	1.008793
C91	C	-0.026009	-0.733087	0.484858
C92	C	0.473991	-0.233087	0.984858
N93	N	0.552340	-0.592538	0.625346
N94	N	1.052340	-0.092538	1.125346
O95	O	0.750867	-0.598274	0.477076
O96	O	1.250867	-0.098274	0.977076
O97	O	0.751048	-0.718989	0.640960
O98	O	1.251048	-0.218989	1.140960
O99	O	0.750981	-0.718715	0.537020
O100	O	1.250981	-0.218715	1.037020
O101	O	0.750934	-0.598547	0.581017
O102	O	1.250934	-0.098547	1.081017
O103	O	0.647701	-0.684348	0.571512
O104	O	1.147701	-0.184348	1.071512
O105	O	0.647768	-0.684622	0.675452
O106	O	1.147768	-0.184622	1.175452
O107	O	0.647587	-0.563907	0.511569
O108	O	1.147587	-0.063907	1.011569
Cu109	Cu	0.638247	-0.621127	0.596660
Cu110	Cu	1.138247	-0.121127	1.096660
Cu111	Cu	0.760388	-0.661769	0.555869
Cu112	Cu	1.260388	-0.161769	1.055869
O113	O	0.647654	-0.564181	0.615509
O114	O	1.147654	-0.064181	1.115509
N115	N	0.846295	-0.690358	0.527176
N116	N	1.346295	-0.190358	1.027176
N117	N	0.114503	-0.154778	0.625499
N118	N	0.614503	0.345222	1.125499
O119	O	-0.033701	0.043855	0.619632
O120	O	0.466299	0.543855	1.119632
O121	O	0.130190	0.043858	0.498933
O122	O	0.630190	0.543858	0.998933
O123	O	0.026233	0.043841	0.499224
O124	O	0.526233	0.543841	0.999224
O125	O	0.070257	0.043872	0.619341
O126	O	0.570257	0.543872	1.119341
O127	O	0.060690	-0.059448	0.533654
O128	O	0.560690	0.440552	1.033654
O129	O	0.164647	-0.059431	0.533363
O130	O	0.664647	0.440569	1.033363
O131	O	0.000756	-0.059434	0.654062
O132	O	0.500756	0.440566	1.154062
Cu133	Cu	0.085848	-0.068863	0.596857
Cu134	Cu	0.585848	0.431137	1.096857
Cu135	Cu	0.045099	0.053287	0.556138
Cu136	Cu	0.545099	0.553287	1.056138
O137	O	0.104714	-0.059417	0.653771
O138	O	0.604714	0.440583	1.153771
N139	N	0.016435	0.139202	0.527497
N140	N	0.516435	0.639202	1.027497
N141	N	0.114760	-0.592585	1.063190
N142	N	0.614760	-0.092585	1.563190
O143	O	0.108896	-0.740779	1.261808
O144	O	0.608896	-0.240779	1.761808
O145	O	-0.011787	-0.576838	1.261822
O146	O	0.488213	-0.076838	1.761822
O147	O	-0.011509	-0.680779	1.261780
O148	O	0.488491	-0.180779	1.761780
O149	O	0.108618	-0.636838	1.261850
O150	O	0.608618	-0.136838	1.761850
O151	O	0.022916	-0.646341	1.158496
O152	O	0.522916	-0.146341	1.658496
O153	O	0.022638	-0.542399	1.158538
O154	O	0.522638	-0.042399	1.658538
O155	O	0.143321	-0.706341	1.158524
O156	O	0.643321	-0.206341	1.658524
Cu157	Cu	0.086123	-0.621225	1.149100
Cu158	Cu	0.586123	-0.121225	1.649100
Cu159	Cu	0.045411	-0.661953	1.271246
Cu160	Cu	0.545411	-0.161953	1.771246
O161	O	0.143044	-0.602399	1.158566
O162	O	0.643044	-0.102399	1.658566
N163	N	0.016774	-0.690600	1.357156
N164	N	0.516774	-0.190600	1.857156
C165	C	0.039504	-0.538867	0.499769
C166	C	0.539504	-0.038867	0.999769
C167	C	0.168130	-0.667407	0.499680
C168	C	0.668130	-0.167407	0.999680
C169	C	0.091482	-0.744243	0.653289
C170	C	0.591482	-0.244243	1.153289
C171	C	-0.037145	-0.615703	0.653378
C172	C	0.462855	-0.115703	1.153378
C173	C	0.699429	-0.718429	0.678853
C174	C	1.199429	-0.218429	1.178853
C175	C	0.699348	-0.718091	0.550135
C176	C	1.199348	-0.218091	1.050135
C177	C	0.699202	-0.564465	0.473677
C178	C	1.199202	-0.064465	0.973677
C179	C	0.699287	-0.564805	0.602393
C180	C	1.199287	-0.064805	1.102393
C181	C	0.168023	-0.007659	0.499484
C182	C	0.668023	0.492341	0.999484
C183	C	0.039327	-0.007807	0.499887
C184	C	0.539327	0.492193	0.999887
C185	C	-0.037119	-0.007789	0.653468
C186	C	0.462881	0.492211	1.153468
C187	C	0.091620	-0.007770	0.653109
C188	C	0.591620	0.492230	1.153109
C189	C	-0.011194	-0.538964	1.210181
C190	C	0.488806	-0.038964	1.710181
C191	C	-0.010843	-0.667676	1.210109
C192	C	0.489157	-0.167676	1.710109
C193	C	0.142729	-0.744214	1.210165
C194	C	0.642729	-0.244214	1.710165
C195	C	0.142386	-0.615494	1.210214
C196	C	0.642386	-0.115494	1.710214
H197	H	0.020147	-0.542732	1.058106
H198	H	0.520147	-0.042732	1.558106
H199	H	0.699278	-0.527058	0.611808
H200	H	1.199278	-0.027058	1.111808
C201	C	0.699496	-0.769628	0.742439
C202	C	1.199496	-0.269628	1.242439
N203	N	0.699547	-0.808192	0.790332
N204	N	1.199547	-0.308192	1.290332
C205	C	0.104351	-0.007762	0.704089
C206	C	0.604351	0.492238	1.204089
N207	N	0.113941	-0.007756	0.742488
N208	N	0.613941	0.492244	1.242488
C209	C	-0.062381	-0.475355	1.210182
C210	C	0.437619	0.024645	1.710182
N211	N	-0.100935	-0.427444	1.210184
N212	N	0.399065	0.072556	1.710184
H213	H	0.699366	-0.755841	0.540718
H214	H	1.199366	-0.255841	1.040718
C215	C	0.420023	-0.658878	0.711620
C216	C	0.920023	-0.158878	1.211620
N217	N	0.393107	-0.693482	0.737219
N218	N	0.893107	-0.193482	1.237219
C219	C	0.699035	-0.513233	0.410124
C220	C	1.199035	-0.013233	0.910124
N221	N	0.698878	-0.474634	0.362266
N222	N	1.198878	0.025366	0.862266
C223	C	0.231478	-0.007266	0.448161
C224	C	0.731478	0.492734	0.948161
N225	N	0.279272	-0.006968	0.409503
N226	N	0.779272	0.493032	0.909503
H227	H	0.029900	-0.007810	0.462151
H228	H	0.529900	0.492190	0.962151
C229	C	0.231750	-0.679949	0.448557
C230	C	0.731750	-0.179949	0.948557
N231	N	0.279670	-0.689396	0.410052
N232	N	0.779670	-0.189396	0.910052
H233	H	-0.048566	-0.677061	1.210046
H234	H	0.451434	-0.177061	1.710046
H235	H	0.180620	-0.791296	1.210154
H236	H	0.680620	-0.291296	1.710154
C237	C	-0.100718	-0.007753	0.704650
C238	C	0.399282	0.492247	1.204650
N239	N	-0.148625	-0.007713	0.743195
N240	N	0.351375	0.492287	1.243195
C241	C	0.214336	-0.287108	0.558103
C242	C	0.714336	0.212892	1.058103
N243	N	0.245290	-0.314031	0.523086
N244	N	0.745290	0.185969	1.023086
H245	H	0.180125	-0.606093	1.210228
H246	H	0.680125	-0.106093	1.710228
C247	C	0.104110	-0.807901	0.704357
C248	C	0.604110	-0.307901	1.204357
N249	N	0.113621	-0.855850	0.742822
N250	N	0.613621	-0.355850	1.242822
H251	H	0.059391	-0.503396	0.940172
H252	H	0.559391	-0.003396	1.440172
H253	H	0.212798	-0.639038	1.058038
H254	H	0.712798	-0.139038	1.558038
C255	C	0.270308	-0.604196	0.930801
C256	C	0.770308	-0.104196	1.430801
N257	N	0.323260	-0.617201	0.903858
N258	N	0.823260	-0.117201	1.403858
C259	C	-0.100765	-0.603162	0.704500
C260	C	0.399235	-0.103162	1.204500
N261	N	-0.148684	-0.593714	0.743006
N262	N	0.351316	-0.093714	1.243006
C263	C	0.026874	-0.475210	0.448699
C264	C	0.526874	0.024790	0.948699
N265	N	0.017361	-0.427263	0.410234
N266	N	0.517361	0.072737	0.910234
C267	C	0.224614	-0.649647	0.568294
C268	C	0.724614	-0.149647	1.068294
N269	N	0.259614	-0.680610	0.537314
N270	N	0.759614	-0.180610	1.037314
C271	C	0.047204	-0.492682	0.725325
C272	C	0.547204	0.007318	1.225325
N273	N	0.012204	-0.461710	0.756295
N274	N	0.512204	0.038290	1.256295
H275	H	0.547206	-0.495421	0.590679
H276	H	1.047206	0.004579	1.090679
C277	C	0.001679	-0.538192	0.679827
C278	C	0.501679	-0.038192	1.179827
N279	N	-0.051280	-0.525182	0.692855
N280	N	0.448720	-0.025182	1.192855
H281	H	0.547237	-0.686258	0.663446
H282	H	1.047237	-0.186258	1.163446
C283	C	0.270138	-0.604146	0.613794
C284	C	0.770138	-0.104146	1.113794
N285	N	0.323097	-0.617162	0.600769
N286	N	0.823097	-0.117162	1.100769
H287	H	0.164306	-0.159876	0.530897
H288	H	0.664306	0.340124	1.030897
C289	C	0.419976	-0.437977	0.627383
C290	C	0.919976	0.062023	1.127383
N291	N	0.393042	-0.385421	0.619746
N292	N	0.893042	0.114579	1.119746
C293	C	0.102965	-0.287147	0.781075
C294	C	0.602965	0.212853	1.281075
N295	N	0.089978	-0.314083	0.834033
N296	N	0.589978	0.185917	1.334033
C297	C	0.057436	-0.150623	0.735603
C298	C	0.557436	0.349377	1.235603
N299	N	0.026502	-0.123700	0.770621
N300	N	0.526502	0.376300	1.270621
