data_functionalizedCrystal
_audit_creation_method	'MofGen! by Chris Wilmer'
_symmetry_space_group_name_H-M	'P1'
_symmetry_Int_Tables_number	1
_symmetry_cell_setting	triclinic
loop_
_symmetry_equiv_pos_as_xyz
  x,y,z
_cell_length_a	15.944551
_cell_length_b	14.044220
_cell_length_c	14.421503
_cell_angle_alpha	89.996554
_cell_angle_beta	89.996660
_cell_angle_gamma	91.656192
loop_
_atom_site_label
_atom_site_type_symbol
_atom_site_fract_x
_atom_site_fract_y
_atom_site_fract_z
O1	O	0.202495	-1.257725	0.077017
O2	O	0.195187	-0.981756	0.077040
O3	O	0.077131	-1.127277	0.077020
O4	O	0.320552	-1.112204	0.077038
O5	O	0.077148	-1.127252	-0.077204
O6	O	0.195205	-0.981731	-0.077183
O7	O	0.202512	-1.257701	-0.077206
Cu8	Cu	0.198860	-1.119714	-0.091277
Cu9	Cu	0.198839	-1.119743	0.091110
O10	O	0.320569	-1.112180	-0.077186
C11	C	0.045798	-1.126639	-0.000092
C12	C	-0.047588	-1.124763	-0.000092
C13	C	0.191997	-0.946429	-0.000068
C14	C	0.182456	-0.841203	-0.000060
N15	N	0.198874	-1.119701	-0.219558
C16	C	-0.269534	-1.030078	-0.000072
C17	C	-0.327251	-1.074035	-0.076117
C18	C	-0.218568	-1.121369	-0.000085
C19	C	-0.327250	-1.074080	0.075935
C20	C	-0.383727	-1.118085	-0.000074
C21	C	-0.275054	-1.165351	-0.076193
C22	C	-0.275048	-1.165383	0.075927
C23	C	-0.332742	-1.209406	-0.000136
C24	C	-0.123424	-1.123259	-0.000092
C25	C	-0.478869	-1.116202	-0.000073
C26	C	0.351901	-1.112818	-0.000072
C27	C	0.445288	-1.114694	-0.000065
C28	C	0.205702	-1.293028	-0.000096
C29	C	0.215244	-1.398254	-0.000098
C30	C	0.165013	-0.648540	-0.000080
C31	C	0.232683	-0.590911	-0.000078
C32	C	0.222977	-0.483707	-0.000089
C33	C	0.174717	-0.755754	-0.000069
C34	C	0.253436	-1.052400	-0.469202
C35	C	0.276157	-1.138052	-0.531011
C36	C	0.198856	-1.119724	-0.408719
C37	C	0.176157	-1.034094	-0.531005
C38	C	0.198840	-1.119739	-0.591441
C39	C	0.221618	-1.205419	-0.469167
C40	C	0.121581	-1.101405	-0.469156
C41	C	0.144274	-1.187119	-0.530936
C42	C	0.198868	-1.119714	-0.303458
C43	C	0.198828	-1.119758	-0.696700
N44	N	0.198819	-1.119763	0.219392
H45	H	-0.350243	-1.035412	-0.140401
H46	H	-0.360222	-1.285248	-0.000186
O47	O	-0.247446	-1.211431	0.152547
C48	C	-0.159091	-1.213278	0.151022
H49	H	-0.135948	-1.204785	0.076604
H50	H	-0.132088	-1.152438	0.195173
C51	C	-0.158740	-1.319383	0.281641
C52	C	-0.130316	-1.308960	0.190239
H53	H	-0.140989	-1.378401	0.305835
H54	H	-0.218266	-1.318136	0.282671
H55	H	-0.136235	-1.268677	0.318422
H56	H	-0.152829	-1.359658	0.153457
H57	H	-0.070793	-1.310217	0.189203
O58	O	0.087161	-0.611468	0.000043
C59	C	0.043279	-0.642397	0.079933
H60	H	0.071203	-0.711029	0.106564
H61	H	0.048808	-0.585195	0.135860
C62	C	-0.084142	-0.576451	0.022969
C63	C	-0.049850	-0.660750	0.055673
H64	H	-0.141588	-0.587768	0.008007
H65	H	-0.054578	-0.555610	-0.030853
H66	H	-0.079526	-0.528790	0.069581
H67	H	-0.054456	-0.708405	0.009058
H68	H	-0.079417	-0.681600	0.109487
O69	O	0.310436	-0.628252	-0.000003
C70	C	0.302947	-0.728530	-0.000007
H71	H	0.239093	-0.751622	0.029164
H72	H	0.309074	-0.756076	-0.073986
C73	C	0.451171	-0.741302	0.024692
C74	C	0.372748	-0.769664	0.060527
H75	H	0.494229	-0.766676	0.062028
H76	H	0.456218	-0.673742	0.024691
H77	H	0.456266	-0.764259	-0.036957
H78	H	0.367650	-0.746697	0.122170
H79	H	0.367702	-0.837221	0.060540
H80	H	-0.241901	-0.954303	-0.000141
O81	O	0.308486	-0.984565	-0.436697
C82	C	0.307225	-0.984925	-0.338941
H83	H	0.244960	-1.017338	-0.313662
H84	H	0.360960	-1.028969	-0.311876
C85	C	0.393844	-0.842226	-0.333916
C86	C	0.317367	-0.882029	-0.302868
H87	H	0.400104	-0.778756	-0.311663
H88	H	0.394697	-0.841984	-0.399776
H89	H	0.438615	-0.878939	-0.311359
H90	H	0.272598	-0.845323	-0.325435
H91	H	0.316507	-0.882261	-0.237010
H92	H	0.341501	-1.153560	-0.558180
H93	H	0.240887	-1.277856	-0.442119
O94	O	-0.354568	-1.027888	0.152606
C95	C	-0.322250	-0.933374	0.152310
H96	H	-0.263186	-0.928824	0.107793
H97	H	-0.371179	-0.884208	0.122637
C98	C	-0.373179	-0.908283	0.306882
C99	C	-0.300632	-0.902696	0.252212
H100	H	-0.359848	-0.889357	0.368506
H101	H	-0.394955	-0.971958	0.307081
H102	H	-0.413946	-0.867312	0.282143
H103	H	-0.259871	-0.943676	0.276944
H104	H	-0.278849	-0.839028	0.252019
O105	O	0.089301	-1.255240	-0.563036
C106	C	0.113521	-1.345351	-0.531337
H107	H	0.183322	-1.342644	-0.514090
H108	H	0.076067	-1.365508	-0.466556
C109	C	0.010550	-1.423538	-0.628701
C110	C	0.096283	-1.420215	-0.607525
H111	H	-0.000087	-1.469719	-0.675694
H112	H	-0.005770	-1.362828	-0.650055
H113	H	-0.020652	-1.440331	-0.574710
H114	H	0.127482	-1.403410	-0.661512
H115	H	0.112608	-1.480924	-0.586181
H116	H	0.056255	-1.085870	-0.441965
H117	H	0.156966	-0.961673	-0.558170
H118	H	-0.252168	-1.203921	-0.140554
