data_functionalizedCrystal
_audit_creation_method	'MofGen! by Chris Wilmer'
_symmetry_space_group_name_H-M	'P1'
_symmetry_Int_Tables_number	1
_symmetry_cell_setting	triclinic
loop_
_symmetry_equiv_pos_as_xyz
  x,y,z
_cell_length_a	19.288864
_cell_length_b	15.538191
_cell_length_c	17.766277
_cell_angle_alpha	89.995273
_cell_angle_beta	89.976791
_cell_angle_gamma	65.204172
loop_
_atom_site_label
_atom_site_type_symbol
_atom_site_fract_x
_atom_site_fract_y
_atom_site_fract_z
O1	O	0.891966	0.117639	-0.062821
O2	O	0.685741	0.133508	-0.062767
O3	O	0.828996	-0.011726	-0.062808
O4	O	0.748710	0.262873	-0.062780
O5	O	0.828980	-0.011734	0.062381
O6	O	0.685724	0.133501	0.062421
O7	O	0.891949	0.117631	0.062368
Cu8	Cu	0.788835	0.125565	0.073825
Cu9	Cu	0.788855	0.125574	-0.074225
O10	O	0.748693	0.262866	0.062409
C11	C	0.659983	0.132994	-0.000166
C12	C	0.583263	0.131461	-0.000147
C13	C	0.517278	0.216678	-0.000150
C14	C	0.445191	0.215238	-0.000158
C15	C	0.439092	0.128576	-0.000179
C16	C	0.505089	0.043348	-0.000171
C17	C	0.577175	0.044790	-0.000155
C18	C	0.347855	0.060453	-0.044070
C19	C	0.275770	0.059014	-0.044091
C20	C	0.216759	0.124123	-0.000225
C21	C	0.229837	0.190688	0.043652
C22	C	0.301922	0.192130	0.043668
C23	C	0.360931	0.127002	-0.000196
C24	C	0.072607	0.207785	-0.000236
C25	C	0.000520	0.206341	-0.000240
C26	C	0.060421	0.034449	-0.000261
C27	C	0.132506	0.035895	-0.000249
C28	C	0.138594	0.122565	-0.000241
C29	C	0.837388	-0.046861	-0.000218
C30	C	0.862409	-0.151541	-0.000232
C31	C	0.613831	-0.438277	-0.000152
C32	C	0.637359	-0.536642	-0.000156
C33	C	0.769703	-0.559647	-0.000191
C34	C	0.746185	-0.461281	-0.000190
C35	C	0.668248	-0.400603	-0.000170
C36	C	0.800603	-0.423608	-0.000208
C37	C	0.777087	-0.325251	-0.000203
C38	C	0.699153	-0.264567	-0.000181
C39	C	0.644732	-0.302246	-0.000165
C40	C	0.878540	-0.484287	-0.000223
C41	C	0.932957	-0.446614	-0.000241
C42	C	0.909441	-0.348255	-0.000242
C43	C	0.831508	-0.287571	-0.000219
C44	C	0.963863	-0.310576	-0.000257
C45	C	0.940346	-0.212219	-0.000253
C46	C	0.807992	-0.189214	-0.000214
C47	C	0.917706	0.118146	-0.000235
C48	C	0.994427	0.119679	-0.000259
C49	C	0.740301	0.298001	-0.000183
C50	C	0.715280	0.402681	-0.000174
N51	N	0.788826	0.125559	0.177956
N52	N	0.788871	0.125573	-0.178355
C53	C	0.852267	0.061280	0.217325
C54	C	0.852272	0.061276	0.296126
C55	C	0.788839	0.125566	0.335556
C56	C	0.725387	0.189850	0.296178
C57	C	0.725381	0.189846	0.217378
C58	C	0.758075	0.211489	0.460404
C59	C	0.758086	0.211494	0.539203
C60	C	0.788854	0.125578	0.578603
C61	C	0.819627	0.039653	0.539193
C62	C	0.819621	0.039649	0.460393
C63	C	0.788838	0.125577	0.421002
C64	C	0.852305	0.061289	0.703417
C65	C	0.852305	0.061283	0.782221
C66	C	0.725422	0.189865	0.782271
C67	C	0.725420	0.189863	0.703469
C68	C	0.788865	0.125576	0.664047
H69	H	0.265128	0.004817	-0.079821
H70	H	0.680008	-0.184479	-0.000173
H71	H	0.903926	0.008932	0.185230
H72	H	0.673738	0.242194	0.328286
H73	H	0.522228	0.287252	-0.000144
H74	H	0.391456	0.284634	-0.000159
H75	H	0.903935	0.008931	0.328186
H76	H	0.844681	-0.030309	0.571271
H77	H	0.744528	-0.139806	-0.000203
H78	H	0.550366	-0.388869	-0.000141
H79	H	0.181790	0.243706	0.079373
H80	H	0.903964	0.008940	0.671319
H81	H	0.630903	-0.024606	-0.000153
H82	H	0.844675	-0.030314	0.428309
H83	H	0.733034	0.281459	0.571284
H84	H	-0.053208	0.275738	-0.000238
H85	H	0.903966	0.008935	0.814275
H86	H	0.673719	0.242190	0.185323
H87	H	0.897684	-0.564375	-0.000234
H88	H	0.673772	0.242208	0.814374
H89	H	0.984659	-0.181545	-0.000266
H90	H	0.077564	0.278357	-0.000218
H91	H	0.673762	0.242208	0.671413
H92	H	0.055457	-0.036113	-0.000324
H93	H	0.186234	-0.033498	-0.000251
H94	H	0.733007	0.281457	0.428332
H95	H	0.581268	-0.252838	-0.000154
H96	H	0.833159	-0.609064	-0.000204
H97	H	0.312567	0.246327	0.079397
H98	H	0.395899	0.007431	-0.079796
H99	H	0.593040	-0.567310	-0.000131
H100	H	0.500120	-0.027213	-0.000198
H101	H	0.996414	-0.496031	-0.000255
H102	H	1.027319	-0.359994	-0.000266
