data_functionalizedCrystal
_audit_creation_method	'MofGen! by Chris Wilmer'
_symmetry_space_group_name_H-M	'P1'
_symmetry_Int_Tables_number	1
_symmetry_cell_setting	triclinic
loop_
_symmetry_equiv_pos_as_xyz
  x,y,z
_cell_length_a	13.339070
_cell_length_b	13.339070
_cell_length_c	11.804499
_cell_angle_alpha	99.452071
_cell_angle_beta	99.445137
_cell_angle_gamma	115.629294
loop_
_atom_site_label
_atom_site_type_symbol
_atom_site_fract_x
_atom_site_fract_y
_atom_site_fract_z
O1	O	1.522154	0.575883	0.099058
O2	O	1.207343	0.503622	0.099053
O3	O	1.328618	0.382347	0.099052
O4	O	1.400880	0.697159	0.099060
O5	O	1.277924	0.331640	-0.099003
O6	O	1.156649	0.452915	-0.099002
O7	O	1.471460	0.525176	-0.098996
Cu8	Cu	1.309426	0.484415	-0.117083
Cu9	Cu	1.369377	0.544383	0.117140
O10	O	1.350186	0.646451	-0.098995
C11	C	1.140881	0.466062	0.000025
C12	C	1.018366	0.429678	0.000023
C13	C	0.732985	0.712584	0.000049
C14	C	0.848096	0.746773	0.000055
C15	C	0.890669	0.667502	0.000046
C16	C	0.818121	0.554036	0.000033
C17	C	0.703002	0.519846	0.000037
C18	C	0.860685	0.474764	0.000034
C19	C	0.788137	0.361299	0.000021
C20	C	0.673029	0.327115	0.000023
C21	C	0.630456	0.406385	0.000032
C22	C	0.975804	0.508955	0.000030
C23	C	0.945821	0.316217	0.000018
C24	C	0.830710	0.282028	0.000012
C25	C	1.291065	0.315878	0.000026
C26	C	1.254682	0.193365	0.000030
C27	C	1.537582	-0.092021	0.000034
C28	C	1.571767	0.023085	0.000023
C29	C	1.492499	0.065661	0.000025
C30	C	1.379040	-0.006881	0.000037
C31	C	1.344849	-0.122000	0.000039
C32	C	1.299766	0.035682	0.000030
C33	C	1.186307	-0.036860	0.000042
C34	C	1.152122	-0.151968	0.000044
C35	C	1.231390	-0.194544	0.000042
C36	C	1.333957	0.150801	0.000029
C37	C	1.141224	0.120822	0.000033
C38	C	1.107039	0.005716	0.000044
C39	C	1.537923	0.562737	0.000034
C40	C	1.660440	0.599123	0.000044
C41	C	1.387739	0.712920	0.000034
C42	C	1.424124	0.835435	0.000037
N43	N	1.267267	0.442239	-0.281823
C44	C	1.512794	0.687853	-0.655777
C45	C	1.544686	0.719773	-0.531116
C46	C	1.475334	0.650392	-0.468787
C47	C	1.374085	0.549086	-0.531130
C48	C	1.342185	0.517167	-0.655803
C49	C	1.304725	0.479706	-0.468813
C50	C	1.203475	0.378400	-0.531157
C51	C	1.171581	0.346486	-0.655817
C52	C	1.240933	0.415867	-0.718147
C53	C	1.336625	0.511625	-0.344140
C54	C	1.166015	0.340939	-0.344166
C55	C	1.134123	0.309019	-0.468827
N56	N	1.411542	0.586553	0.281879
H57	H	0.613966	0.234727	0.000026
H58	H	1.076675	0.155484	0.000029
H59	H	1.034861	0.601337	0.000036
H60	H	1.419061	0.594110	-0.293392
H61	H	1.089131	0.264002	-0.706574
H62	H	0.771628	0.189645	0.000011
H63	H	0.984398	0.695346	0.000054
Cl64	Cl	1.515432	0.690520	-0.312068
H65	H	1.214973	0.389881	-0.819656
H66	H	1.051683	0.226534	-0.519605
Cl67	Cl	1.188455	-0.339218	0.000197
Cl68	Cl	1.078821	0.253714	-0.265818
Cl69	Cl	0.485740	0.363408	0.000022
H70	H	0.907159	0.839158	0.000075
H71	H	1.664145	0.082140	0.000012
Cl72	Cl	0.999335	0.216558	0.000017
Cl73	Cl	0.679463	0.812229	0.000079
H74	H	1.426335	0.209854	0.000019
Cl75	Cl	1.671943	0.847145	-0.452751
Cl76	Cl	1.599955	0.775073	-0.734139
H77	H	1.520339	0.159386	0.000017
H78	H	1.602107	-0.126701	0.000023
H79	H	1.059734	-0.211032	0.000044
H80	H	1.014658	-0.053364	0.000053
