data_functionalizedCrystal
_audit_creation_method	'MofGen! by Chris Wilmer'
_symmetry_space_group_name_H-M	'P1'
_symmetry_Int_Tables_number	1
_symmetry_cell_setting	triclinic
loop_
_symmetry_equiv_pos_as_xyz
  x,y,z
_cell_length_a	13.032831
_cell_length_b	21.295417
_cell_length_c	13.033454
_cell_angle_alpha	82.775433
_cell_angle_beta	89.091650
_cell_angle_gamma	82.834379
loop_
_atom_site_label
_atom_site_type_symbol
_atom_site_fract_x
_atom_site_fract_y
_atom_site_fract_z
Zn1	Zn	1.498448	-0.305622	-0.780801
Zn2	Zn	1.520134	-0.425730	-0.608781
Zn3	Zn	1.348287	-0.308978	-0.587031
Zn4	Zn	1.326405	-0.399352	-0.758922
O5	O	1.423319	-0.359920	-0.683884
O6	O	1.645244	-0.331190	-0.776242
O7	O	1.515572	-0.422686	-0.461968
O8	O	1.368289	-0.220445	-0.612788
O9	O	1.661176	-0.419432	-0.649860
O10	O	1.478611	-0.217980	-0.755151
O11	O	1.389317	-0.336909	-0.445988
O12	O	1.201466	-0.311331	-0.591573
O13	O	1.330993	-0.374475	-0.905752
O14	O	1.185389	-0.377728	-0.717860
O15	O	1.457392	-0.305612	-0.921827
O16	O	1.494353	-0.510318	-0.628644
O17	O	1.352021	-0.490938	-0.738951
C18	C	1.156110	-0.342032	-0.649983
C19	C	1.041794	-0.334392	-0.635504
C20	C	0.982914	-0.363908	-0.691440
C21	C	0.864762	-0.356012	-0.676477
C22	C	1.423191	-0.523468	-0.683810
C23	C	1.423226	-0.593438	-0.683824
C24	C	1.497388	-0.636372	-0.626462
C25	C	1.497434	-0.702116	-0.626491
C26	C	1.423300	-0.724922	-0.683870
C27	C	1.349131	-0.681978	-0.741244
C28	C	1.349094	-0.616236	-0.741221
N29	N	1.332336	-0.821492	-0.680296
N30	N	1.332375	-0.883945	-0.680312
C31	C	1.423407	-0.922999	-0.683943
N32	N	1.514404	-0.897243	-0.687538
N33	N	1.514365	-0.834784	-0.687517
C34	C	1.423332	-0.796208	-0.683901
C35	C	1.497625	-1.037222	-0.626610
C36	C	1.497671	-1.102966	-0.626647
C37	C	1.349360	-1.082827	-0.741393
C38	C	1.349322	-1.017084	-0.741363
C39	C	1.423454	-0.994286	-0.683965
C40	C	1.691570	-0.377879	-0.717918
C41	C	1.805883	-0.385532	-0.732421
C42	C	1.389333	-0.336727	-0.952151
C43	C	1.374850	-0.326843	-1.066471
C44	C	1.423472	-0.195734	-0.683984
C45	C	1.423537	-0.125768	-0.684027
C46	C	1.430861	-0.364877	-1.125345
C47	C	1.415894	-0.354663	-1.243501
C48	C	1.457231	-0.382982	-0.416667
C49	C	1.471913	-0.392702	-0.302373
H50	H	0.827705	-0.324893	-0.617511
N51	N	0.852374	-0.424565	-0.806398
N52	N	0.948287	-0.430925	-0.818450
H53	H	0.981124	-0.458493	-0.870694
N54	N	1.545995	-0.443042	-1.255912
N55	N	1.639396	-0.444194	-1.279886
H56	H	1.691718	-0.479746	-1.247077
H57	H	1.019974	-0.395020	-0.750410
H58	H	1.315820	-0.286716	-1.103542
N59	N	1.504935	-0.415207	-1.078854
N60	N	1.578036	-0.402593	-1.027214
H61	H	1.630353	-0.438140	-0.994380
N62	N	1.573337	-1.013926	-0.567980
N63	N	1.578625	-1.029052	-0.472216
H64	H	1.632096	-1.012599	-0.430808
N65	N	0.995295	-0.295354	-0.561542
N66	N	0.899382	-0.288993	-0.549496
H67	H	0.866542	-0.261420	-0.497260
H68	H	1.557753	-0.617813	-0.579729
H69	H	1.288929	-0.982123	-0.788067
N70	N	1.341844	-0.304319	-1.290007
N71	N	1.329795	-0.296091	-1.385923
H72	H	1.277500	-0.260536	-1.418771
N73	N	1.573193	-0.745974	-0.567881
N74	N	1.639371	-0.725610	-0.516637
H75	H	1.692873	-0.756583	-0.475238
H76	H	1.288702	-0.581276	-0.787934
N77	N	1.573448	-1.146817	-0.568057
N78	N	1.639630	-1.126449	-0.516824
H79	H	1.693152	-1.157419	-0.475445
H80	H	1.288772	-0.700551	-0.787964
N81	N	1.273645	-1.106124	-0.800006
N82	N	1.273689	-1.164823	-0.800023
H83	H	1.220215	-1.181281	-0.841422
