data_functionalizedCrystal
_audit_creation_method	'MofGen! by Chris Wilmer'
_symmetry_space_group_name_H-M	'P1'
_symmetry_Int_Tables_number	1
_symmetry_cell_setting	triclinic
loop_
_symmetry_equiv_pos_as_xyz
  x,y,z
_cell_length_a	9.730223
_cell_length_b	10.654550
_cell_length_c	10.654551
_cell_angle_alpha	95.514868
_cell_angle_beta	89.998531
_cell_angle_gamma	89.996251
loop_
_atom_site_label
_atom_site_type_symbol
_atom_site_fract_x
_atom_site_fract_y
_atom_site_fract_z
O1	O	0.114394	-1.667835	0.176393
O2	O	0.114371	-1.302356	0.193199
O3	O	0.114383	-1.493498	0.002057
O4	O	0.114381	-1.476693	0.367535
O5	O	-0.114197	-1.493496	0.002062
O6	O	-0.114209	-1.302354	0.193204
O7	O	-0.114186	-1.667832	0.176398
Zn8	Zn	-0.150490	-1.485093	0.184802
Zn9	Zn	0.150674	-1.485096	0.184795
O10	O	-0.114199	-1.476691	0.367540
C11	C	0.000078	-1.255557	0.191968
C12	C	0.000069	-1.116114	0.188276
N13	N	-0.356026	-1.485100	0.184805
C14	C	0.000096	-1.492263	-0.044739
C15	C	0.000105	-1.488570	-0.184182
C16	C	-0.427947	-1.569760	0.100197
C17	C	-0.571830	-1.569756	0.100181
C18	C	-0.571859	-1.400430	0.269395
C19	C	-0.427979	-1.400428	0.269403
C20	C	-0.355994	-1.654431	0.015599
C21	C	-0.427915	-1.739099	-0.069016
C22	C	-0.571798	-1.739095	-0.069031
C23	C	-0.643760	-1.654425	0.015568
N24	N	0.356211	-1.485099	0.184782
C25	C	0.000109	-1.714632	0.177629
C26	C	0.000127	-1.854075	0.181321
C27	C	0.000089	-1.036629	0.300817
C28	C	0.000113	-0.905608	0.297341
C29	C	0.000104	-0.933570	0.068771
C30	C	0.000070	-1.064589	0.072249
C31	C	0.000088	-1.088154	0.416844
C32	C	0.000109	-1.008667	0.529395
C33	C	0.000133	-0.877647	0.525918
C34	C	0.000136	-0.826112	0.409891
C35	C	0.124702	-1.486839	-0.249696
C36	C	0.124695	-1.483359	-0.380717
C37	C	-0.124515	-1.483346	-0.380697
C38	C	-0.124507	-1.486817	-0.249678
C39	C	0.249314	-1.488592	-0.184200
C40	C	0.373921	-1.486862	-0.249715
C41	C	0.373914	-1.483382	-0.380735
C42	C	0.249301	-1.481631	-0.446241
C43	C	0.000091	-1.477926	0.414336
C44	C	0.000091	-1.481619	0.553779
H45	H	-0.238837	-1.654444	0.015606
C46	C	-0.651014	-1.307313	0.362455
H47	H	-0.747005	-1.319448	0.350341
H48	H	-0.627445	-1.223377	0.348043
H49	H	-0.627439	-1.321688	0.446408
C50	C	0.000056	-1.232271	0.420673
H51	H	0.000048	-1.251576	0.505889
H52	H	0.079755	-1.267095	0.379242
H53	H	-0.079677	-1.267050	0.379263
C54	C	-0.261579	-1.481429	-0.452745
H55	H	-0.335786	-1.482947	-0.394959
H56	H	-0.266760	-1.553183	-0.512797
H57	H	-0.266761	-1.406956	-0.494912
C58	C	-0.348861	-1.307311	0.362477
H59	H	-0.412318	-1.256897	0.412872
H60	H	-0.292730	-1.254645	0.316814
H61	H	-0.292738	-1.352951	0.415184
H62	H	0.475376	-1.488276	-0.196370
C63	C	0.000104	-1.065350	0.657013
H64	H	0.000100	-1.154764	0.642968
H65	H	-0.079599	-1.038117	0.703408
H66	H	0.079833	-1.038150	0.703391
C67	C	0.000154	-0.790215	0.649715
H68	H	0.000160	-0.839671	0.719309
H69	H	-0.079543	-0.738501	0.653121
H70	H	0.079889	-0.738548	0.653100
C71	C	-0.802028	-1.654412	0.015550
H72	H	-0.834581	-1.591860	0.078048
H73	H	-0.834581	-1.734825	0.033480
H74	H	-0.834561	-1.636520	-0.064890
C75	C	-0.650913	-1.832213	-0.162106
H76	H	-0.746909	-1.820081	-0.150008
H77	H	-0.627333	-1.916146	-0.147683
H78	H	-0.627320	-1.817843	-0.246056
C79	C	0.000126	-0.876884	-0.058846
H80	H	0.000164	-0.787470	-0.044798
H81	H	-0.079587	-0.904074	-0.105238
H82	H	0.079845	-0.904124	-0.105227
C83	C	0.510968	-1.481472	-0.452804
H84	H	0.493122	-1.479140	-0.540214
H85	H	0.562168	-1.555153	-0.440279
H86	H	0.562163	-1.408926	-0.422389
C87	C	0.000166	-0.681992	0.406068
H88	H	0.000185	-0.642031	0.489712
H89	H	-0.079534	-0.657490	0.363074
H90	H	0.079898	-0.657543	0.363075
H91	H	0.000058	-1.129308	-0.019392
H92	H	0.249334	-1.491429	-0.077517
C93	C	-0.261556	-1.488725	-0.177601
H94	H	-0.243701	-1.491030	-0.090190
H95	H	-0.312757	-1.561262	-0.208005
H96	H	-0.312753	-1.415035	-0.190127
H97	H	0.249306	-1.478779	-0.552924
H98	H	-0.369316	-1.808028	-0.137901
