data_functionalizedCrystal
_audit_creation_method	'MofGen! by Chris Wilmer'
_symmetry_space_group_name_H-M	'P1'
_symmetry_Int_Tables_number	1
_symmetry_cell_setting	triclinic
loop_
_symmetry_equiv_pos_as_xyz
  x,y,z
_cell_length_a	6.817900
_cell_length_b	19.453103
_cell_length_c	19.453114
_cell_angle_alpha	96.316406
_cell_angle_beta	101.709288
_cell_angle_gamma	101.709178
loop_
_atom_site_label
_atom_site_type_symbol
_atom_site_fract_x
_atom_site_fract_y
_atom_site_fract_z
V1	V	-3.997997	-0.097914	-0.219328
V2	V	-3.497997	0.402086	0.280672
O3	O	-3.995098	0.003953	-0.214817
O4	O	-3.495098	0.503953	0.285183
O5	O	-3.941017	-0.193423	-0.218151
O6	O	-3.441017	0.306577	0.281849
O7	O	-3.941018	-0.096738	-0.314837
O8	O	-3.441018	0.403262	0.185163
O9	O	-3.995097	-0.093402	-0.117462
O10	O	-3.495097	0.406598	0.382538
V11	V	-4.483849	-0.085690	-0.207105
V12	V	-3.983849	0.414310	0.292895
O13	O	-4.254148	-0.124727	-0.246141
O14	O	-3.754148	0.375273	0.253859
O15	O	-4.677895	-0.058877	-0.180292
O16	O	-4.177895	0.441123	0.319708
O17	O	-4.317623	0.009819	-0.208282
O18	O	-3.817623	0.509819	0.291718
O19	O	-4.604145	-0.187557	-0.211616
O20	O	-4.104145	0.312443	0.288384
O21	O	-4.604146	-0.090202	-0.308971
O22	O	-4.104146	0.409798	0.191029
O23	O	-4.317621	-0.086866	-0.111596
O24	O	-3.817621	0.413134	0.388404
C25	C	-3.784208	-0.216695	-0.214774
C26	C	-3.284208	0.283305	0.285226
C27	C	-3.818849	-0.294777	-0.214449
C28	C	-3.318849	0.205223	0.285551
C29	C	-3.784208	-0.093363	-0.338106
C30	C	-3.284208	0.406637	0.161894
C31	C	-3.818848	-0.093034	-0.416187
C32	C	-3.318848	0.406966	0.083813
C33	C	-4.016582	-0.335044	-0.217808
C34	C	-3.516582	0.164956	0.282192
C35	C	-4.049135	-0.408411	-0.217509
C36	C	-3.549135	0.091589	0.282491
C37	C	-3.883937	-0.441507	-0.213837
C38	C	-3.383937	0.058493	0.286163
C39	C	-3.686178	-0.401231	-0.210481
C40	C	-3.186178	0.098769	0.289519
C41	C	-3.653634	-0.327867	-0.210787
C42	C	-3.153634	0.172133	0.289213
N43	N	-3.779057	-0.547627	-0.170551
N44	N	-3.279057	-0.047627	0.329449
N45	N	-3.809984	-0.617320	-0.170259
N46	N	-3.309984	-0.117320	0.329741
C47	C	-3.981979	-0.662551	-0.212916
C48	C	-3.481979	-0.162551	0.287084
N49	N	-4.121905	-0.635454	-0.255867
N50	N	-3.621905	-0.135454	0.244133
N51	N	-4.090980	-0.565754	-0.256156
N52	N	-3.590980	-0.065754	0.243844
C53	C	-3.919205	-0.521058	-0.213505
C54	C	-3.419205	-0.021058	0.286495
C55	C	-4.215023	-0.782371	-0.215953
C56	C	-3.715023	-0.282371	0.284047
C57	C	-4.247572	-0.855741	-0.215658
C58	C	-3.747572	-0.355741	0.284342
C59	C	-3.884605	-0.848558	-0.208622
C60	C	-3.384605	-0.348558	0.291378
C61	C	-3.852066	-0.775191	-0.208924
C62	C	-3.352066	-0.275191	0.291076
C63	C	-4.017281	-0.742102	-0.212586
C64	C	-3.517281	-0.242102	0.287414
C65	C	-4.016587	-0.096405	-0.456456
C66	C	-3.516587	0.403595	0.043544
C67	C	-4.049136	-0.096095	-0.529822
C68	C	-3.549136	0.403905	-0.029822
C69	C	-3.883941	-0.092429	-0.562918
C70	C	-3.383941	0.407571	-0.062918
C71	C	-3.686172	-0.089054	-0.522640
C72	C	-3.186172	0.410946	-0.022640
C73	C	-3.653625	-0.089356	-0.449274
C74	C	-3.153625	0.410644	0.050726
N75	N	-3.820865	-0.129523	-0.681832
N76	N	-3.320865	0.370477	-0.181832
N77	N	-3.851796	-0.129237	-0.751526
N78	N	-3.351796	0.370763	-0.251526
C79	C	-3.981989	-0.091516	-0.783963
C80	C	-3.481989	0.408484	-0.283963
N81	N	-4.080118	-0.054100	-0.744075
N82	N	-3.580118	0.445900	-0.244075
N83	N	-4.049192	-0.054389	-0.674375
N84	N	-3.549192	0.445611	-0.174375
C85	C	-3.919211	-0.092100	-0.642470
C86	C	-3.419211	0.407900	-0.142470
C87	C	-4.215033	-0.094550	-0.903783
C88	C	-3.715033	0.405450	-0.403783
C89	C	-4.247572	-0.094236	-0.977150
C90	C	-3.747572	0.405764	-0.477150
C91	C	-3.884605	-0.087202	-0.969967
C92	C	-3.384605	0.412798	-0.469967
C93	C	-3.852068	-0.087509	-0.896601
C94	C	-3.352068	0.412491	-0.396601
C95	C	-4.017291	-0.091187	-0.863515
C96	C	-3.517291	0.408813	-0.363515
C97	C	-4.137773	0.033088	-0.211656
C98	C	-3.637773	0.533088	0.288344
C99	C	-4.082370	0.111169	-0.211986
C100	C	-3.582370	0.611169	0.288014
C101	C	-4.137773	-0.090243	-0.088323
C102	C	-3.637773	0.409757	0.411677
C103	C	-4.082372	-0.090569	-0.010241
C104	C	-3.582372	0.409431	0.489759
H105	H	-4.151119	-0.308108	-0.220795
H106	H	-3.651119	0.191892	0.279205
F107	F	-3.443171	-0.285010	-0.207211
F108	F	-2.943171	0.214990	0.292789
H109	H	-4.408596	-0.888526	-0.218398
H110	H	-3.908596	-0.388526	0.281602
F111	F	-4.259600	-0.451275	-0.221086
F112	F	-3.759600	0.048725	0.278914
H113	H	-4.349566	-0.097542	-0.876842
H114	H	-3.849566	0.402458	-0.376842
F115	F	-3.708788	-0.883777	-0.204721
F116	F	-3.208788	-0.383777	0.295279
F117	F	-4.192434	-0.100316	-0.421246
F118	F	-3.692434	0.399684	0.078754
F119	F	-3.510364	-0.436455	-0.206575
F120	F	-3.010364	0.063545	0.293425
H121	H	-3.750096	-0.084210	-0.996913
H122	H	-3.250096	0.415790	-0.496913
H123	H	-3.551669	-0.086066	-0.549591
H124	H	-3.051669	0.413934	-0.049591
H125	H	-4.349551	-0.755428	-0.218933
H126	H	-3.849551	-0.255428	0.281067
H127	H	-3.691049	-0.742405	-0.206184
H128	H	-3.191049	-0.242405	0.293816
H129	H	-4.210166	-0.098844	-0.562615
H130	H	-3.710166	0.401156	-0.062615
F131	F	-4.458042	-0.097823	-1.020006
F132	F	-3.958042	0.402177	-0.520006
H133	H	-3.492597	-0.086606	-0.416487
H134	H	-2.992597	0.413394	0.083513
F135	F	-3.641610	-0.083930	-0.853744
F136	F	-3.141610	0.416070	-0.353744
