data_functionalizedCrystal
_audit_creation_method	'MofGen! by Chris Wilmer'
_symmetry_space_group_name_H-M	'P1'
_symmetry_Int_Tables_number	1
_symmetry_cell_setting	triclinic
loop_
_symmetry_equiv_pos_as_xyz
  x,y,z
_cell_length_a	15.625110
_cell_length_b	14.044190
_cell_length_c	14.750779
_cell_angle_alpha	76.178157
_cell_angle_beta	120.099500
_cell_angle_gamma	88.495382
loop_
_atom_site_label
_atom_site_type_symbol
_atom_site_fract_x
_atom_site_fract_y
_atom_site_fract_z
O1	O	1.288971	0.028850	0.368925
O2	O	1.005532	0.068984	0.270241
O3	O	1.142998	-0.088697	0.318121
O4	O	1.151505	0.186531	0.321045
O5	O	1.181859	-0.133267	0.491306
O6	O	1.044393	0.024414	0.443426
O7	O	1.327832	-0.015721	0.542111
Zn8	Zn	1.192282	-0.002730	0.520265
Zn9	Zn	1.141082	0.055993	0.292086
O10	O	1.190366	0.141960	0.494230
C11	C	0.988469	0.049300	0.344128
C12	C	0.879730	0.057039	0.306269
C13	C	0.705284	0.092241	0.158512
C14	C	0.807464	0.084966	0.194097
C15	C	0.849837	0.036381	0.382900
C16	C	0.747659	0.043656	0.347331
C17	C	0.675390	0.071586	0.235136
C18	C	0.717765	0.023001	0.423955
C19	C	0.615595	0.030271	0.388388
C20	C	0.543321	0.058196	0.276197
C21	C	0.573221	0.078856	0.199569
C22	C	0.790036	-0.004935	0.536150
C23	C	0.760141	-0.025590	0.612773
C24	C	0.657970	-0.018313	0.577207
C25	C	0.585696	0.009612	0.465016
C26	C	0.628070	-0.038973	0.653835
C27	C	0.525901	-0.031702	0.618268
C28	C	0.483526	0.016882	0.429449
C29	C	1.158704	-0.145968	0.403420
C30	C	1.147593	-0.250214	0.399560
C31	C	1.206081	-0.505660	0.419886
C32	C	1.127285	-0.441069	0.392458
C33	C	1.138587	-0.334868	0.396410
C34	C	1.194781	-0.611871	0.415934
C35	C	1.344894	0.003964	0.468221
C36	C	1.453632	-0.003773	0.506073
C37	C	1.174660	0.199232	0.408929
C38	C	1.185769	0.303480	0.412783
N39	N	1.227232	-0.042808	0.675994
N40	N	1.106139	0.096063	0.136359
C41	C	1.008525	0.207954	0.951636
C42	C	1.033023	0.179875	1.060668
C43	C	1.154781	0.040293	1.103039
C44	C	1.130290	0.068358	0.994008
C45	C	1.057162	0.152189	0.918314
C46	C	1.178926	0.012593	0.960686
C47	C	1.154440	0.040658	0.851665
C48	C	1.081317	0.124488	0.775965
C49	C	1.032675	0.180254	0.809293
C50	C	1.252059	-0.071234	1.036383
C51	C	1.300696	-0.126999	1.003061
C52	C	1.276205	-0.098938	0.894037
C53	C	1.203082	-0.015108	0.818337
C54	C	1.324846	-0.154705	0.860709
C55	C	1.300360	-0.126640	0.751688
C56	C	1.178595	0.012957	0.709316
H57	H	0.424679	0.039637	0.338089
O58	O	1.347666	-0.180944	0.719483
C59	C	1.417476	-0.260940	0.809674
H60	H	1.394743	-0.278494	0.873408
H61	H	1.418716	-0.329255	0.781068
H62	H	1.495417	-0.239760	0.847477
O63	O	0.919942	0.009369	0.491909
C64	C	0.903961	0.078776	0.539263
H65	H	0.822449	0.118434	0.486133
H66	H	0.920726	0.038275	0.624723
H67	H	0.955784	0.135743	0.545228
H68	H	1.051338	-0.465532	0.366010
H69	H	1.282023	-0.481199	0.446336
O70	O	0.698149	-0.066165	0.762858
C71	C	0.649852	-0.082812	0.822863
H72	H	0.572240	-0.100616	0.770336
H73	H	0.696384	-0.148095	0.899936
H74	H	0.641881	-0.013190	0.846840
H75	H	0.501561	-0.048504	0.680663
O76	O	0.985636	0.234128	1.092839
C77	C	0.915860	0.314148	1.002654
H78	H	0.893919	0.295689	0.923379
H79	H	0.846088	0.327235	1.007412
H80	H	0.951147	0.384224	1.004243
H81	H	0.948969	0.276212	0.889999
O82	O	1.057707	0.151733	0.670123
C83	C	1.144032	0.172109	0.666575
H84	H	1.214072	0.131601	0.748857
H85	H	1.143830	0.145498	0.599267
H86	H	1.143999	0.255700	0.648730
H87	H	0.973120	0.248512	0.747656
H88	H	0.873227	-0.010852	0.565105
H89	H	1.271996	-0.094079	1.125155
O90	O	0.836449	0.105221	0.119617
C91	C	0.794653	0.204160	0.052099
H92	H	0.776218	0.249527	0.096597
H93	H	0.850919	0.238059	0.032209
H94	H	0.723027	0.204901	-0.027104
O95	O	0.444036	0.065422	0.241507
C96	C	0.394368	0.163575	0.176482
H97	H	0.439572	0.201038	0.141398
H98	H	0.316483	0.161853	0.106581
H99	H	0.386885	0.207202	0.228882
O100	O	0.635025	0.119544	0.049534
C101	C	0.570725	0.207576	0.021953
H102	H	0.610806	0.249182	0.085284
H103	H	0.549500	0.256807	-0.062413
H104	H	0.499878	0.187926	0.020685
O105	O	1.107544	0.094334	0.635625
C106	C	1.096384	0.107157	0.532264
H107	H	1.123032	0.033000	0.527820
H108	H	1.013934	0.134777	0.465377
H109	H	1.143161	0.164063	0.520013
H110	H	1.214326	-0.027961	1.164682
O111	O	1.371673	-0.208429	1.076722
C112	C	1.382878	-0.221228	1.180101
H113	H	1.311560	-0.183078	1.169013
H114	H	1.396800	-0.304081	1.223146
H115	H	1.449332	-0.186877	1.231737
H116	H	1.384395	-0.222956	0.922355
O117	O	0.502926	0.105857	0.090611
C118	C	0.446494	0.029117	0.065755
H119	H	0.450892	-0.018361	0.142853
H120	H	0.364800	0.063044	0.000481
H121	H	0.478156	-0.019384	0.033831
O122	O	0.830446	-0.052835	0.721728
C123	C	0.894717	-0.140901	0.749341
H124	H	0.892933	-0.148374	0.673162
H125	H	0.974648	-0.137763	0.813995
H126	H	0.868543	-0.207778	0.783194
