data_functionalizedCrystal
_audit_creation_method	'MofGen! by Chris Wilmer'
_symmetry_space_group_name_H-M	'P1'
_symmetry_Int_Tables_number	1
_symmetry_cell_setting	triclinic
loop_
_symmetry_equiv_pos_as_xyz
  x,y,z
_cell_length_a	11.026607
_cell_length_b	11.792241
_cell_length_c	9.482944
_cell_angle_alpha	100.368392
_cell_angle_beta	98.185432
_cell_angle_gamma	96.389716
loop_
_atom_site_label
_atom_site_type_symbol
_atom_site_fract_x
_atom_site_fract_y
_atom_site_fract_z
O1	O	1.630386	0.495180	0.120908
O2	O	2.130386	0.995180	0.620908
O3	O	1.276723	0.440988	0.120909
O4	O	1.776723	0.940988	0.620909
O5	O	1.462136	0.304616	0.120898
O6	O	1.962136	0.804616	0.620898
O7	O	1.444974	0.631552	0.120919
O8	O	1.944974	1.131552	0.620919
O9	O	1.427940	0.266071	-0.120896
O10	O	1.927940	0.766071	0.379104
O11	O	1.242527	0.402443	-0.120885
O12	O	1.742527	0.902443	0.379115
O13	O	1.596190	0.456635	-0.120886
O14	O	2.096190	0.956635	0.379114
Cu15	Cu	1.416236	0.426020	-0.142963
Cu16	Cu	1.916236	0.926020	0.357037
Cu17	Cu	1.456677	0.471603	0.142986
Cu18	Cu	1.956677	0.971603	0.642986
O19	O	1.410778	0.593007	-0.120875
O20	O	1.910778	1.093007	0.379125
C21	C	1.214349	0.411718	0.000012
C22	C	1.714349	0.911718	0.500012
C23	C	1.079439	0.381916	0.000012
C24	C	1.579439	0.881916	0.500012
C25	C	1.443960	0.242839	0.000002
C26	C	1.943960	0.742839	0.500002
C27	C	1.440732	0.116184	0.000003
C28	C	1.940732	0.616184	0.500003
C29	C	1.006175	0.464207	0.000018
C30	C	1.506175	0.964207	0.500018
C31	C	0.866738	0.433406	0.000018
C32	C	1.366738	0.933406	0.500018
C33	C	1.434802	-0.115702	0.000028
C34	C	1.934802	0.384298	0.500028
C35	C	1.438097	0.013335	0.000014
C36	C	1.938097	0.513335	0.500014
C37	C	1.658565	0.485905	0.000014
C38	C	2.158565	0.985905	0.500014
C39	C	1.793477	0.515709	0.000024
C40	C	2.293477	1.015709	0.500024
C41	C	1.428954	0.654785	0.000025
C42	C	1.928954	1.154785	0.500025
C43	C	1.432183	0.781441	0.000033
C44	C	1.932183	1.281441	0.500033
N45	N	1.387801	0.393960	-0.344085
N46	N	1.887801	0.893960	0.155915
C47	C	1.448281	0.462145	-0.416281
C48	C	1.948281	0.962145	0.083719
C49	C	1.424633	0.435461	-0.583700
C50	C	1.924633	0.935461	-0.083700
N51	N	1.485121	0.503656	0.344108
N52	N	1.985121	1.003656	0.844108
H53	H	1.046680	0.557460	0.000015
H54	H	1.546680	1.057460	0.500015
H55	H	1.355345	0.357324	-0.645829
H56	H	1.855345	0.857324	-0.145829
H57	H	1.554415	0.581789	-0.593765
H58	H	2.054415	1.081789	-0.093765
O59	O	1.296015	0.290466	-0.426367
O60	O	1.796015	0.790466	0.073633
H61	H	1.291837	0.285755	-0.544952
H62	H	1.791837	0.785755	-0.044952
H63	H	0.833974	0.608969	0.000020
H64	H	1.333974	1.108969	0.500020
H65	H	1.038938	0.288667	0.000043
H66	H	1.538938	0.788667	0.500043
H67	H	0.826243	0.340151	0.000049
H68	H	1.326243	0.840151	0.500049
O69	O	1.540055	0.565647	-0.333999
O70	O	2.040055	1.065647	0.166001
H71	H	1.544218	0.570370	-0.215413
H72	H	2.044218	1.070370	0.284587
