data_functionalizedCrystal
_audit_creation_method	'MofGen! by Chris Wilmer'
_symmetry_space_group_name_H-M	'P1'
_symmetry_Int_Tables_number	1
_symmetry_cell_setting	triclinic
loop_
_symmetry_equiv_pos_as_xyz
  x,y,z
_cell_length_a	10.489741
_cell_length_b	13.596369
_cell_length_c	14.519709
_cell_angle_alpha	89.993066
_cell_angle_beta	84.109659
_cell_angle_gamma	89.997383
loop_
_atom_site_label
_atom_site_type_symbol
_atom_site_fract_x
_atom_site_fract_y
_atom_site_fract_z
O1	O	1.692699	-0.081733	0.130116
O2	O	1.321376	-0.081748	0.142329
O3	O	1.516882	-0.081731	0.002038
O4	O	1.497192	-0.081750	0.270407
O5	O	1.516863	0.081851	0.002030
O6	O	1.321356	0.081834	0.142322
O7	O	1.692679	0.081850	0.130108
Zn8	Zn	1.507015	0.107814	0.136214
Zn9	Zn	1.507040	-0.107713	0.136224
O10	O	1.497173	0.081833	0.270400
C11	C	1.273844	0.000041	0.141403
C12	C	1.132243	0.000035	0.138643
C13	C	1.515955	0.000060	-0.032331
C14	C	1.513205	0.000061	-0.134727
N15	N	1.507006	0.254906	0.136206
C16	C	1.065034	0.000051	0.049380
C17	C	0.972477	-0.080605	0.091551
C18	C	0.972491	0.080675	0.091565
C19	C	1.041551	-0.080687	0.180851
C20	C	1.041576	0.080665	0.180852
C21	C	0.949046	-0.000010	0.223088
C22	C	1.740211	0.000058	0.131035
C23	C	1.881812	0.000057	0.133794
N24	N	1.507059	-0.254805	0.136224
C25	C	1.507039	0.656197	0.136225
C26	C	1.507026	0.544546	0.136223
C27	C	1.507023	0.455555	0.136216
C28	C	1.507009	0.343897	0.136213
C29	C	1.503082	0.000035	-0.509678
C30	C	1.505893	0.000042	-0.405355
C31	C	1.508143	0.000048	-0.322206
C32	C	1.510955	0.000054	-0.217876
C33	C	1.498100	0.000039	0.304768
C34	C	1.500850	0.000032	0.407165
H35	H	1.115488	-0.000045	-0.024000
C36	C	0.931746	-0.171435	0.041025
C37	C	0.990995	-0.171050	-0.049887
C38	C	0.953498	-0.254696	-0.096467
H39	H	0.956534	-0.228786	0.072035
H40	H	0.841322	-0.171076	0.040072
H41	H	1.081400	-0.171419	-0.048930
H42	H	0.966215	-0.113719	-0.080922
H43	H	0.863073	-0.254337	-0.097420
H44	H	0.978287	-0.312040	-0.065450
H45	H	0.993683	-0.254441	-0.158158
C46	C	1.082394	-0.171681	0.231103
C47	C	1.215559	-0.170664	0.233050
C48	C	1.253234	-0.254477	0.279320
H49	H	1.041765	-0.172004	0.292659
H50	H	1.058264	-0.228910	0.199599
H51	H	1.239676	-0.113451	0.264556
H52	H	1.256220	-0.170356	0.171508
H53	H	1.229104	-0.311706	0.247816
H54	H	1.212596	-0.254792	0.340873
H55	H	1.343590	-0.253803	0.280640
H56	H	0.898856	-0.000059	0.296546
H57	H	1.072220	0.148853	0.218587
C58	C	0.931897	0.171565	0.041039
C59	C	0.991208	0.171187	-0.049856
C60	C	0.953860	0.254899	-0.096430
H61	H	0.841497	0.171312	0.040036
H62	H	0.956756	0.228865	0.072101
H63	H	0.966342	0.113902	-0.080910
H64	H	1.081607	0.171455	-0.048880
H65	H	0.978718	0.312199	-0.065368
H66	H	0.863459	0.254638	-0.097426
H67	H	0.994105	0.254658	-0.158104
