data_functionalizedCrystal
_audit_creation_method	'MofGen! by Chris Wilmer'
_symmetry_space_group_name_H-M	'P1'
_symmetry_Int_Tables_number	1
_symmetry_cell_setting	triclinic
loop_
_symmetry_equiv_pos_as_xyz
  x,y,z
_cell_length_a	12.784890
_cell_length_b	19.288864
_cell_length_c	17.766277
_cell_angle_alpha	90.023209
_cell_angle_beta	89.993425
_cell_angle_gamma	101.878598
loop_
_atom_site_label
_atom_site_type_symbol
_atom_site_fract_x
_atom_site_fract_y
_atom_site_fract_z
O1	O	0.132632	-0.913613	-0.062833
O2	O	0.150524	-0.710308	-0.062781
O3	O	-0.013221	-0.826839	-0.062807
O4	O	0.296377	-0.797083	-0.062807
O5	O	-0.013229	-0.826820	0.062382
O6	O	0.150516	-0.710290	0.062408
O7	O	0.132624	-0.913595	0.062356
Cu8	Cu	0.141569	-0.811941	0.073813
Cu9	Cu	0.141579	-0.811962	-0.074237
O10	O	0.296369	-0.797064	0.062382
C11	C	0.149944	-0.684456	-0.000180
C12	C	0.148216	-0.607454	-0.000160
C13	C	-0.052834	-0.828765	-0.000214
C14	C	-0.170855	-0.834523	-0.000217
N15	N	0.141562	-0.811931	0.177943
C16	C	-0.350177	-0.906691	-0.000236
C17	C	-0.239286	-0.901285	-0.000234
C18	C	-0.213322	-0.773163	-0.000201
C19	C	-0.324213	-0.778569	-0.000204
C20	C	-0.392637	-0.845335	-0.000223
C21	C	-0.503530	-0.850741	-0.000231
C22	C	-0.477564	-0.722618	-0.000193
C23	C	-0.366673	-0.717212	-0.000190
C24	C	0.335982	-0.795138	-0.000213
C25	C	0.454004	-0.789380	-0.000215
C26	C	0.133204	-0.939447	-0.000247
C27	C	0.134932	-1.016450	-0.000271
C28	C	0.244294	-0.557150	-0.000172
C29	C	0.242671	-0.484798	-0.000180
C30	C	0.144963	-0.462752	-0.000192
C31	C	0.048873	-0.513066	-0.000176
C32	C	0.050499	-0.585417	-0.000160
C33	C	0.068158	-0.358979	-0.044076
C34	C	0.066535	-0.286629	-0.044097
C35	C	0.139943	-0.239600	-0.000238
C36	C	0.214992	-0.264926	0.043633
C37	C	0.216618	-0.337277	0.043648
C38	C	0.143189	-0.384302	-0.000209
C39	C	0.234268	-0.110843	-0.000257
C40	C	0.232640	-0.038490	-0.000261
C41	C	0.038839	-0.066760	-0.000264
C42	C	0.040470	-0.139111	-0.000253
C43	C	0.138187	-0.161148	-0.000253
N44	N	0.141578	-0.811978	-0.178368
C45	C	0.069091	-0.863543	0.217318
C46	C	0.069086	-0.863548	0.296120
C47	C	0.141570	-0.811945	0.335543
C48	C	0.214046	-0.760323	0.296158
C49	C	0.214042	-0.760316	0.217358
C50	C	0.238444	-0.796993	0.460383
C51	C	0.238449	-0.797005	0.539182
C52	C	0.141583	-0.811963	0.578590
C53	C	0.044706	-0.826924	0.539189
C54	C	0.044702	-0.826917	0.460389
C55	C	0.141582	-0.811946	0.420989
C56	C	0.069101	-0.863583	0.703411
C57	C	0.069094	-0.863583	0.782214
C58	C	0.214064	-0.760360	0.782251
C59	C	0.214061	-0.760358	0.703449
C60	C	0.141581	-0.811973	0.664034
H61	H	-0.559240	-0.905105	-0.000251
H62	H	-0.037768	-0.180070	-0.000247
H63	H	-0.204721	-0.951248	-0.000243
Br64	Br	0.312402	-0.690264	0.163915
H65	H	-0.512145	-0.672657	-0.000184
H66	H	0.317332	-0.784827	0.571255
H67	H	-0.040716	-0.048811	-0.000320
Br68	Br	-0.120444	-0.682558	-0.000166
H69	H	0.010074	-0.905610	0.814274
H70	H	0.310882	0.002468	-0.000266
H71	H	-0.310947	-0.662853	-0.000172
H72	H	0.273078	-0.718342	0.814349
H73	H	0.323863	-0.575087	-0.000174
H74	H	-0.034178	-0.839097	0.428312
H75	H	0.320911	-0.443833	-0.000188
H76	H	0.277722	-0.357895	0.079371
H77	H	0.274767	-0.226636	0.079348
H78	H	-0.034172	-0.839104	0.571274
H79	H	0.010079	-0.905609	0.671318
Br80	Br	0.366880	-0.140755	-0.000252
Br81	Br	-0.035301	-0.252263	-0.103644
H82	H	0.317329	-0.784800	0.428303
H83	H	0.008378	-0.397266	-0.079796
H84	H	-0.030681	-0.495112	-0.000196
Br85	Br	0.312412	-0.690285	0.349658
H86	H	-0.027742	-0.626375	-0.000151
Br87	Br	-0.443043	-0.997300	-0.000279
Br88	Br	-0.029277	-0.933599	0.349568
Br89	Br	-0.029276	-0.933588	0.163825
Br90	Br	0.312422	-0.690311	0.650005
