data_functionalizedCrystal
_audit_creation_method	'MofGen! by Chris Wilmer'
_symmetry_space_group_name_H-M	'P1'
_symmetry_Int_Tables_number	1
_symmetry_cell_setting	triclinic
loop_
_symmetry_equiv_pos_as_xyz
  x,y,z
_cell_length_a	25.639243
_cell_length_b	25.639239
_cell_length_c	25.639233
_cell_angle_alpha	90.019301
_cell_angle_beta	90.015962
_cell_angle_gamma	90.042008
loop_
_atom_site_label
_atom_site_type_symbol
_atom_site_fract_x
_atom_site_fract_y
_atom_site_fract_z
Zn1	Zn	0.799223	-0.208176	0.295654
Zn2	Zn	0.799145	-0.295595	0.208217
Zn3	Zn	0.711799	-0.208180	0.208227
Zn4	Zn	0.711743	-0.295587	0.295617
O5	O	0.755478	-0.251885	0.251929
O6	O	0.872378	-0.219775	0.284066
O7	O	0.787550	-0.284004	0.135053
O8	O	0.723452	-0.135014	0.219844
O9	O	0.872321	-0.284001	0.219827
O10	O	0.787682	-0.135012	0.284076
O11	O	0.723377	-0.219781	0.135061
O12	O	0.638627	-0.219772	0.219808
O13	O	0.723357	-0.283987	0.368787
O14	O	0.638586	-0.283990	0.284013
O15	O	0.787628	-0.219767	0.368814
O16	O	0.787496	-0.368759	0.219791
O17	O	0.723282	-0.368753	0.284003
C18	C	0.619635	-0.251881	0.251908
C19	C	0.561521	-0.251892	0.251911
C20	C	0.201182	-0.218495	0.285434
C21	C	0.146578	-0.218494	0.285437
O22	O	0.118361	-0.190088	0.313913
N23	N	0.119239	-0.251883	0.251943
C24	C	0.146507	-0.285271	0.218440
O25	O	0.118239	-0.313670	0.189951
C26	C	0.201110	-0.285268	0.218434
C27	C	0.228446	-0.251881	0.251934
C28	C	0.228518	-0.185109	0.318931
C29	C	0.283119	-0.185111	0.318928
C30	C	0.310383	-0.218497	0.285428
C31	C	0.283047	-0.251882	0.251932
C32	C	0.228377	-0.318653	0.184929
C33	C	0.282984	-0.318647	0.184926
C34	C	0.310320	-0.285260	0.218426
C35	C	0.364912	-0.285270	0.218429
N36	N	0.392251	-0.251881	0.251923
C37	C	0.364987	-0.218494	0.285423
C38	C	0.031836	-0.285273	0.218453
C39	C	-0.022766	-0.285279	0.218461
C40	C	-0.022691	-0.218501	0.285458
C41	C	0.031912	-0.218499	0.285452
C42	C	0.059175	-0.251884	0.251947
C43	C	0.479652	-0.218500	0.285415
C44	C	0.534257	-0.218506	0.285411
C45	C	0.534177	-0.285281	0.218413
C46	C	0.479577	-0.285278	0.218418
C47	C	0.452315	-0.251883	0.251921
O48	O	0.393163	-0.313659	0.189966
O49	O	0.393261	-0.190095	0.313903
C50	C	0.755388	-0.387727	0.251903
C51	C	0.755398	-0.445841	0.251910
C52	C	0.722035	-0.697044	0.285353
C53	C	0.722016	-0.642440	0.285347
O54	O	0.693564	-0.614211	0.313764
N55	N	0.755464	-0.615115	0.251937
C56	C	0.788937	-0.642398	0.218535
O57	O	0.817386	-0.614142	0.190118
C58	C	0.788959	-0.697001	0.218545
C59	C	0.755505	-0.724323	0.251953
C60	C	0.688584	-0.724366	0.318759
C61	C	0.688603	-0.778966	0.318764
C62	C	0.722073	-0.806245	0.285364
C63	C	0.755524	-0.778923	0.251958
C64	C	0.822434	-0.724283	0.185145
C65	C	0.822453	-0.778890	0.185158
C66	C	0.788999	-0.806211	0.218566
C67	C	0.789012	-0.860803	0.218563
N68	N	0.755564	-0.888127	0.251972
C69	C	0.722094	-0.860848	0.285373
C70	C	0.788890	-0.527727	0.218519
C71	C	0.788866	-0.473125	0.218507
C72	C	0.721945	-0.473170	0.285320
C73	C	0.721967	-0.527774	0.285329
C74	C	0.755442	-0.555052	0.251929
C75	C	0.722136	-0.975513	0.285381
C76	C	0.722156	-1.030119	0.285382
C77	C	0.789079	-1.030068	0.218571
C78	C	0.789057	-0.975468	0.218568
C79	C	0.755584	-0.948191	0.251977
O80	O	0.817451	-0.889066	0.190162
O81	O	0.693655	-0.889110	0.313791
C82	C	0.891851	-0.251888	0.251950
C83	C	0.949965	-0.251890	0.251959
C84	C	0.755495	-0.251875	0.388302
C85	C	0.755502	-0.251871	0.446416
C86	C	0.755582	-0.115512	0.251965
C87	C	0.755626	-0.057397	0.251981
C88	C	0.755491	-0.251856	0.116086
C89	C	0.755585	-0.251713	0.057972
C90	C	0.789010	-0.218333	0.806799
C91	C	0.789016	-0.218318	0.861403
O92	O	0.817464	-0.189864	0.889657
N93	N	0.755559	-0.251749	0.888698
C94	C	0.722090	-0.285192	0.861387
O95	O	0.693632	-0.313626	0.889617
C96	C	0.722081	-0.285204	0.806783
C97	C	0.755544	-0.251775	0.779491
C98	C	0.822470	-0.184906	0.779506
C99	C	0.822464	-0.184921	0.724906
C100	C	0.788998	-0.218363	0.697598
C101	C	0.755538	-0.251790	0.724890
C102	C	0.688610	-0.318644	0.779472
C103	C	0.688603	-0.318653	0.724865
C104	C	0.722066	-0.285224	0.697573
C105	C	0.722067	-0.285247	0.642982
N106	N	0.755524	-0.251817	0.615686
C107	C	0.788990	-0.218375	0.642994
C108	C	0.722110	-0.285165	0.976057
C109	C	0.722121	-0.285157	1.030660
C110	C	0.789047	-0.218282	1.030672
C111	C	0.789038	-0.218293	0.976069
C112	C	0.755567	-0.251735	0.948762
C113	C	0.788975	-0.218410	0.528329
C114	C	0.788968	-0.218429	0.473724
C115	C	0.722040	-0.285302	0.473716
C116	C	0.722049	-0.285285	0.528316
C117	C	0.755518	-0.251834	0.555622
O118	O	0.693632	-0.313686	0.614693
O119	O	0.817437	-0.189941	0.614757
H120	H	0.694913	-1.052361	0.312588
H121	H	0.849715	-0.801096	0.157961
C122	C	0.692417	-0.314845	1.114352
C123	C	0.685347	-0.321912	1.060657
H124	H	0.669715	-0.337540	1.132868
H125	H	0.684786	-0.279720	1.123303
H126	H	0.727544	-0.322493	1.123301
H127	H	0.650221	-0.314260	1.051707
H128	H	0.692974	-0.357045	1.051702
C129	C	0.655967	-0.351278	0.981538
C130	C	0.685325	-0.321937	0.946044
H131	H	0.633261	-0.373981	0.963010
H132	H	0.635987	-0.328492	1.002831
H133	H	0.678745	-0.371265	1.002839
H134	H	0.662547	-0.301947	0.924745
H135	H	0.705307	-0.344726	0.924741
C136	C	0.093204	-0.292447	0.148097
C137	C	0.061801	-0.321981	0.181627
H138	H	0.111698	-0.315109	0.125361
H139	H	0.117302	-0.272569	0.168041
H140	H	0.071907	-0.269638	0.128143
H141	H	0.083099	-0.344786	0.201584
H142	H	0.037700	-0.341867	0.161681
H143	H	0.816286	-0.191071	0.953851
C144	C	0.859322	-0.211125	0.589739
C145	C	0.825766	-0.181643	0.558340
H146	H	0.882033	-0.188428	0.608268
H147	H	0.879296	-0.233909	0.568439
H148	H	0.839391	-0.231026	0.613811
H149	H	0.845696	-0.161745	0.534265
H150	H	0.805789	-0.158850	0.579642
C151	C	0.418312	-0.148168	0.292826
C152	C	0.449692	-0.181794	0.322245
H153	H	0.399820	-0.125509	0.315565
H154	H	0.394213	-0.168048	0.272885
H155	H	0.439625	-0.128138	0.270081
H156	H	0.428379	-0.201828	0.344987
H157	H	0.473794	-0.161913	0.342195
H158	H	0.694795	-0.312531	0.451472
H159	H	0.305371	-0.157922	0.346206
C160	C	0.528838	-0.152496	0.351635
C161	C	0.564304	-0.181801	0.322234
H162	H	0.547388	-0.129835	0.374364
H163	H	0.507532	-0.175305	0.371592
H164	H	0.507547	-0.132465	0.328885
H165	H	0.585593	-0.201835	0.344984
H166	H	0.585619	-0.158989	0.302275
C167	C	0.618287	-0.840443	0.325985
C168	C	0.651836	-0.808994	0.355494
H169	H	0.595587	-0.858976	0.348664
H170	H	0.638219	-0.864506	0.306100
H171	H	0.598295	-0.819171	0.303184
H172	H	0.671831	-0.830267	0.378292
H173	H	0.631901	-0.784928	0.375387
C174	C	0.234092	-0.119112	0.385157
C175	C	0.198556	-0.148410	0.355761
H176	H	0.215596	-0.096459	0.407900
H177	H	0.255390	-0.099079	0.362409
H178	H	0.255383	-0.141931	0.405104
H179	H	0.177266	-0.125591	0.335811
H180	H	0.177248	-0.168445	0.378511
C181	C	0.595541	-0.355591	0.211017
C182	C	0.564156	-0.321976	0.181590
H183	H	0.614052	-0.378240	0.188281
H184	H	0.574233	-0.375629	0.233751
H185	H	0.619629	-0.335699	0.230968
H186	H	0.540065	-0.341868	0.161642
H187	H	0.585465	-0.301935	0.158846
C188	C	0.366653	-0.348300	0.155163
C189	C	0.312952	-0.355347	0.148096
H190	H	0.385151	-0.370956	0.132424
H191	H	0.375606	-0.356008	0.190272
H192	H	0.375621	-0.313158	0.147575
H193	H	0.303983	-0.390489	0.155688
H194	H	0.303995	-0.347643	0.112979
C195	C	0.026489	-0.152495	0.351676
C196	C	0.061957	-0.181795	0.322273
H197	H	0.045037	-0.129833	0.374405
H198	H	0.005186	-0.175308	0.371633
H199	H	0.005195	-0.132466	0.328928
H200	H	0.083249	-0.201827	0.345021
H201	H	0.083269	-0.158979	0.302314
C202	C	0.658901	-0.348337	0.863160
C203	C	0.651832	-0.355397	0.809463
H204	H	0.636198	-0.371033	0.881673
H205	H	0.651271	-0.313212	0.872115
H206	H	0.694027	-0.355986	0.872108
H207	H	0.616706	-0.347744	0.800514
H208	H	0.659458	-0.390530	0.800505
H209	H	0.816101	-0.450883	0.191298
C210	C	0.233811	-0.384643	0.118694
C211	C	0.198339	-0.355349	0.148099
H212	H	0.215266	-0.407295	0.095952
H213	H	0.255098	-0.404678	0.141436
H214	H	0.255121	-0.361821	0.098745
H215	H	0.177031	-0.378171	0.168051
H216	H	0.177043	-0.335313	0.125354
C217	C	0.484990	-0.351287	0.152197
C218	C	0.449525	-0.321981	0.181599
H219	H	0.466439	-0.373941	0.129463
H220	H	0.506276	-0.371319	0.174942
H221	H	0.506301	-0.328473	0.132241
H222	H	0.428217	-0.344795	0.201559
H223	H	0.428230	-0.301946	0.158852
H224	H	0.849722	-0.157671	0.801735
H225	H	-0.044900	-0.191315	0.312733
C226	C	0.658866	-0.348370	0.641158
C227	C	0.651811	-0.355414	0.694850
H228	H	0.636150	-0.371063	0.622629
H229	H	0.693984	-0.356029	0.632216
H230	H	0.651241	-0.313241	0.632215
H231	H	0.659440	-0.390542	0.703793
H232	H	0.616685	-0.347758	0.703795
H233	H	0.816327	-1.052289	0.191376
H234	H	0.694880	-0.953311	0.312586
H235	H	-0.045019	-0.312472	0.191188
C236	C	0.855202	-0.980910	0.152523
C237	C	0.825824	-0.945432	0.181841
H238	H	0.877904	-0.962369	0.129853
H239	H	0.832440	-1.002238	0.132506
H240	H	0.875192	-1.002178	0.175329
H241	H	0.805830	-0.924167	0.159035
H242	H	0.848588	-0.924096	0.201859
C243	C	0.622435	-0.729910	0.384792
C244	C	0.651787	-0.694387	0.355474
H245	H	0.599712	-0.711404	0.407455
H246	H	0.645212	-0.751167	0.404816
H247	H	0.602468	-0.751244	0.361985
H248	H	0.671757	-0.673055	0.378280
H249	H	0.629008	-0.673120	0.335448
H250	H	0.694729	-0.550015	0.312536
C251	C	0.855030	-0.522189	0.152470
C252	C	0.825681	-0.557708	0.181795
H253	H	0.877740	-0.540697	0.129797
H254	H	0.875004	-0.500861	0.175267
H255	H	0.832246	-0.500925	0.132452
H256	H	0.848465	-0.578970	0.201817
H257	H	0.805705	-0.579046	0.158996
C258	C	0.888597	-0.729746	0.119123
C259	C	0.859215	-0.694260	0.148428
H260	H	0.911308	-0.711211	0.096457
H261	H	0.865838	-0.751073	0.099102
H262	H	0.908577	-0.751014	0.141937
H263	H	0.839231	-0.672995	0.125613
H264	H	0.881976	-0.672924	0.168450
C265	C	0.692212	-0.389482	0.314977
C266	C	0.685159	-0.443178	0.322041
H267	H	0.669505	-0.370967	0.337648
H268	H	0.684577	-0.380563	0.279843
H269	H	0.727336	-0.380501	0.322658
H270	H	0.650035	-0.452160	0.314356
H271	H	0.692790	-0.452101	0.357182
H272	H	0.816219	-0.191207	0.451505
H273	H	0.849712	-0.157699	0.702689
C274	C	0.818758	-0.188561	1.114386
C275	C	0.825826	-0.181512	1.060697
H276	H	0.841460	-0.165858	1.132922
H277	H	0.826392	-0.223683	1.123330
H278	H	0.783631	-0.180912	1.123319
H279	H	0.860952	-0.189165	1.051763
H280	H	0.818196	-0.146382	1.051749
H281	H	0.694806	-0.312510	0.550539
