data_functionalizedCrystal
_audit_creation_method	'MofGen! by Chris Wilmer'
_symmetry_space_group_name_H-M	'P1'
_symmetry_Int_Tables_number	1
_symmetry_cell_setting	triclinic
loop_
_symmetry_equiv_pos_as_xyz
  x,y,z
_cell_length_a	19.288867
_cell_length_b	10.723024
_cell_length_c	17.766277
_cell_angle_alpha	90.005773
_cell_angle_beta	89.992126
_cell_angle_gamma	96.197531
loop_
_atom_site_label
_atom_site_type_symbol
_atom_site_fract_x
_atom_site_fract_y
_atom_site_fract_z
O1	O	0.922365	-0.155671	-0.062567
O2	O	1.422365	0.344329	0.437433
O3	O	0.720241	-0.176666	-0.062574
O4	O	1.220241	0.323334	0.437426
O5	O	0.825965	0.015505	-0.062566
O6	O	1.325965	0.515505	0.437434
O7	O	0.816641	-0.347843	-0.062575
O8	O	1.316641	0.152157	0.437425
O9	O	0.825947	0.015515	0.062622
O10	O	1.325947	0.515515	0.562622
O11	O	0.720222	-0.176657	0.062614
O12	O	1.220222	0.323343	0.562614
O13	O	0.922346	-0.155661	0.062622
O14	O	1.422346	0.344339	0.562622
Cu15	Cu	0.821283	-0.166158	0.074049
Cu16	Cu	1.321283	0.333842	0.574049
Cu17	Cu	0.821305	-0.166169	-0.074001
Cu18	Cu	1.321305	0.333831	0.425999
O19	O	0.816622	-0.347833	0.062614
O20	O	1.316622	0.152167	0.562614
C21	C	0.694351	-0.175985	0.000019
C22	C	1.194351	0.324015	0.500019
C23	C	0.617234	-0.173956	0.000016
C24	C	1.117234	0.326044	0.500016
C25	C	0.825277	0.061996	0.000027
C26	C	1.325277	0.561996	0.500027
C27	C	0.823247	0.200507	0.000025
C28	C	1.323247	0.700507	0.500025
C29	C	0.061584	-0.159345	-0.068215
C30	C	0.561584	0.340655	0.431785
C31	C	0.134044	-0.161244	-0.068218
C32	C	0.634044	0.338756	0.431782
C33	C	0.170268	-0.162195	0.000022
C34	C	0.670268	0.337805	0.500022
C35	C	0.134029	-0.161213	0.068270
C36	C	0.634029	0.338787	0.568270
C37	C	0.061572	-0.159301	0.068271
C38	C	0.561572	0.340699	0.568271
C39	C	0.280083	-0.238301	0.052302
C40	C	0.780083	0.261699	0.552302
C41	C	0.352539	-0.240221	0.052298
C42	C	0.852539	0.259779	0.552298
C43	C	0.393752	-0.168085	0.000023
C44	C	0.893752	0.331915	0.500023
C45	C	0.362500	-0.094046	-0.052262
C46	C	0.862500	0.405954	0.447738
C47	C	0.290042	-0.092135	-0.052261
C48	C	0.790042	0.407865	0.447739
C49	C	0.248837	-0.164267	0.000029
C50	C	0.748837	0.335733	0.500029
C51	C	0.508553	-0.171117	-0.068224
C52	C	1.008553	0.328883	0.431776
C53	C	0.581015	-0.173008	-0.068224
C54	C	1.081015	0.326992	0.431776
C55	C	0.580998	-0.172990	0.068266
C56	C	1.080998	0.327010	0.568266
C57	C	0.508538	-0.171086	0.068264
C58	C	1.008538	0.328914	0.568264
C59	C	0.472320	-0.170155	0.000017
C60	C	0.972320	0.329845	0.500017
C61	C	0.948236	-0.156342	0.000027
C62	C	1.448236	0.343658	0.500027
C63	C	1.025353	-0.158371	0.000024
C64	C	1.525353	0.341629	0.500024
C65	C	0.882405	0.276732	0.000027
C66	C	1.382405	0.776732	0.500027
C67	C	0.880308	0.419891	0.000025
C68	C	1.380308	0.919891	0.500025
N69	N	0.821272	-0.166149	0.178179
N70	N	1.321272	0.333851	0.678179
C71	C	0.817310	0.605677	0.000020
C72	C	1.317310	1.105677	0.500020
C73	C	0.819340	0.467165	0.000022
C74	C	1.319340	0.967165	0.500022
N75	N	0.821321	-0.166168	-0.178132
N76	N	1.321321	0.333832	0.321868
C77	C	0.868102	-0.081097	0.217569
C78	C	1.368102	0.418903	0.717569
C79	C	0.868106	-0.081091	0.296371
C80	C	1.368106	0.418909	0.796371
C81	C	0.821287	-0.166159	0.335780
C82	C	1.321287	0.333841	0.835780
C83	C	0.774448	-0.251218	0.296380
C84	C	1.274448	0.248782	0.796380
C85	C	0.774440	-0.251213	0.217579
C86	C	1.274440	0.248787	0.717579
C87	C	0.812728	-0.279851	0.460615
C88	C	1.312728	0.220149	0.960615
C89	C	0.812740	-0.279858	0.539414
C90	C	1.312740	0.220142	1.039414
C91	C	0.821305	-0.166174	0.578826
C92	C	1.321305	0.333826	1.078826
C93	C	0.829873	-0.052479	0.539430
C94	C	1.329873	0.447521	1.039430
C95	C	0.829866	-0.052474	0.460629
C96	C	1.329866	0.447526	0.960629
C97	C	0.821289	-0.166173	0.421225
C98	C	1.321289	0.333827	0.921225
C99	C	0.868142	-0.081109	0.703662
C100	C	1.368142	0.418891	1.203662
C101	C	0.868142	-0.081101	0.782465
C102	C	1.368142	0.418899	1.282465
C103	C	0.774486	-0.251238	0.782472
C104	C	1.274486	0.248762	1.282472
C105	C	0.774484	-0.251235	0.703671
C106	C	1.274484	0.248765	1.203671
C107	C	0.821316	-0.166171	0.664270
C108	C	1.321316	0.333829	1.164270
H109	H	0.032100	-0.158583	-0.123787
H110	H	0.532100	0.341417	0.376213
H111	H	0.934604	0.236005	0.000033
H112	H	1.434604	0.736005	0.500033
H113	H	0.930951	0.485386	0.000030
H114	H	1.430951	0.985386	0.500030
F115	F	0.385793	-0.319028	0.107937
F116	F	0.885793	0.180972	0.607937
F117	F	0.917952	0.009438	0.338300
F118	F	1.417952	0.509438	0.838300
H119	H	0.610513	-0.173792	-0.123795
H120	H	1.110513	0.326208	0.376205
F121	F	0.917983	0.009434	0.824389
F122	F	1.417983	0.509434	1.324389
H123	H	0.768694	0.401677	0.000026
H124	H	1.268694	0.901677	0.500026
H125	H	0.479038	-0.170297	0.123831
H126	H	0.979038	0.329703	0.623831
F127	F	0.755016	0.253733	0.000016
F128	F	1.255016	0.753733	0.500016
F129	F	0.236228	-0.315071	0.107950
F130	F	0.736228	0.184929	0.607950
H131	H	0.163548	-0.162044	-0.123788
H132	H	0.663548	0.337956	0.376212
F133	F	0.838994	0.068521	0.581368
F134	F	1.338994	0.568521	1.081368
H135	H	0.906234	-0.011830	0.185492
H136	H	1.406234	0.488170	0.685492
H137	H	0.264600	-0.031848	-0.094831
H138	H	0.764600	0.468152	0.405169
F139	F	0.838979	0.068525	0.418704
F140	F	1.338979	0.568525	0.918704
F141	F	0.172583	-0.162220	0.140896
F142	F	0.672583	0.337780	0.640896
H143	H	0.906274	-0.011841	0.671581
H144	H	1.406274	0.488159	1.171581
F145	F	0.724653	-0.341766	0.824410
F146	F	1.224653	0.158234	1.324410
H147	H	0.396055	-0.035311	-0.094831
H148	H	0.896055	0.464689	0.405169
F149	F	0.619547	-0.173984	0.140893
F150	F	1.119547	0.326016	0.640893
H151	H	0.736353	-0.320497	0.671597
H152	H	1.236353	0.179503	1.171597
F153	F	0.803626	-0.400861	0.581335
F154	F	1.303626	0.099139	1.081335
H155	H	0.805741	-0.372432	0.428532
H156	H	1.305741	0.127568	0.928532
F157	F	0.724617	-0.341749	0.338321
F158	F	1.224617	0.158251	0.838321
F159	F	0.724595	-0.341741	0.175655
F160	F	1.224595	0.158259	0.675655
F161	F	0.470004	-0.170119	-0.140858
F162	F	0.970004	0.329881	0.359142
F163	F	0.023011	-0.158268	0.140904
F164	F	0.523011	0.341732	0.640904
