data_functionalizedCrystal
_audit_creation_method	'MofGen! by Chris Wilmer'
_symmetry_space_group_name_H-M	'P1'
_symmetry_Int_Tables_number	1
_symmetry_cell_setting	triclinic
loop_
_symmetry_equiv_pos_as_xyz
  x,y,z
_cell_length_a	16.959454
_cell_length_b	16.959455
_cell_length_c	16.959447
_cell_angle_alpha	89.984280
_cell_angle_beta	90.026736
_cell_angle_gamma	89.981311
loop_
_atom_site_label
_atom_site_type_symbol
_atom_site_fract_x
_atom_site_fract_y
_atom_site_fract_z
Zn1	Zn	-0.314695	-1.208384	0.446958
Zn2	Zn	0.018638	-0.875050	0.780291
Zn3	Zn	0.351972	-0.541717	1.113625
Zn4	Zn	-0.446888	-1.208306	0.314788
Zn5	Zn	-0.113554	-0.874973	0.648121
Zn6	Zn	0.219779	-0.541640	0.981454
Zn7	Zn	-0.314724	-1.076212	0.314792
Zn8	Zn	0.018610	-0.742879	0.648125
Zn9	Zn	0.351943	-0.409546	0.981459
Zn10	Zn	-0.446832	-1.076177	0.446923
Zn11	Zn	-0.113499	-0.742844	0.780256
Zn12	Zn	0.219834	-0.409510	1.113590
O13	O	-0.380785	-1.142270	0.380865
O14	O	-0.047451	-0.808936	0.714198
O15	O	0.285882	-0.475603	1.047532
O16	O	-0.332242	-1.318984	0.429438
O17	O	0.001091	-0.985651	0.762771
O18	O	0.334425	-0.652318	1.096105
O19	O	-0.429391	-1.190766	0.204177
O20	O	-0.096058	-0.857433	0.537511
O21	O	0.237276	-0.524099	0.870844
O22	O	-0.204109	-1.093792	0.332341
O23	O	0.129224	-0.760459	0.665674
O24	O	0.462558	-0.427126	0.999007
O25	O	-0.429363	-1.318927	0.332333
O26	O	-0.096030	-0.985594	0.665666
O27	O	0.237304	-0.652261	0.999000
O28	O	-0.204088	-1.190898	0.429442
O29	O	0.129245	-0.857565	0.762776
O30	O	0.462579	-0.524231	1.096109
O31	O	-0.332291	-1.093717	0.204181
O32	O	0.001043	-0.760384	0.537514
O33	O	0.334376	-0.427050	0.870847
O34	O	-0.332237	-0.965597	0.332307
O35	O	0.001096	-0.632263	0.665640
O36	O	0.334430	-0.298930	0.998974
O37	O	-0.429269	-1.093732	0.557539
O38	O	-0.095936	-0.760399	0.890872
O39	O	0.237398	-0.427065	1.224205
O40	O	-0.429297	-0.965571	0.429383
O41	O	-0.095963	-0.632237	0.762716
O42	O	0.237370	-0.298904	1.096049
O43	O	-0.332188	-1.190864	0.557564
O44	O	0.001145	-0.857531	0.890898
O45	O	0.334478	-0.524197	1.224231
O46	O	-0.557491	-1.190732	0.332299
O47	O	-0.224158	-0.857398	0.665632
O48	O	0.109176	-0.524065	0.998966
O49	O	-0.557451	-1.093657	0.429378
O50	O	-0.224117	-0.760324	0.762712
O51	O	0.109216	-0.426990	1.096045
C52	C	-0.380765	-0.936904	0.380842
C53	C	-0.047431	-0.603570	0.714175
C54	C	0.285902	-0.270237	1.047509
C55	C	-0.380775	-0.849047	0.380851
C56	C	-0.047442	-0.515714	0.714184
C57	C	0.285892	-0.182380	1.047518
C58	C	-0.586151	-1.142204	0.380852
C59	C	-0.252818	-0.808870	0.714185
C60	C	0.080516	-0.475537	1.047518
C61	C	-0.674008	-1.142248	0.380872
C62	C	-0.340674	-0.808914	0.714206
C63	C	-0.007341	-0.475581	1.047539
C64	C	-0.431269	-0.807741	0.330220
C65	C	-0.097936	-0.474408	0.663553
C66	C	0.235398	-0.141075	0.996887
C67	C	-0.330286	-0.807799	0.431486
C68	C	0.003047	-0.474466	0.764820
C69	C	0.336381	-0.141132	1.098153
C70	C	-0.330291	-0.725253	0.431494
C71	C	0.003042	-0.391920	0.764828
C72	C	0.336375	-0.058586	1.098161
C73	C	-0.380785	-0.683948	0.380864
C74	C	-0.047452	-0.350614	0.714197
C75	C	0.285882	-0.017281	1.047530
C76	C	-0.431274	-0.725188	0.330225
C77	C	-0.097941	-0.391855	0.663558
C78	C	0.235393	-0.058521	0.996892
C79	C	-0.279798	-0.684006	0.482126
C80	C	0.053536	-0.350673	0.815460
C81	C	0.386869	-0.017340	1.148793
C82	C	-0.279800	-0.601455	0.482136
C83	C	0.053533	-0.268122	0.815469
C84	C	0.386867	0.065211	1.148803
C85	C	-0.330299	-0.560149	0.431509
C86	C	0.003035	-0.226815	0.764842
C87	C	0.336368	0.106518	1.098175
C88	C	-0.380790	-0.601394	0.380868
C89	C	-0.047457	-0.268061	0.714202
C90	C	0.285877	0.065273	1.047535
C91	C	-0.431284	-0.560088	0.330238
C92	C	-0.097951	-0.226755	0.663571
C93	C	0.235383	0.106578	0.996904
C94	C	-0.481780	-0.601332	0.279601
C95	C	-0.148447	-0.267999	0.612934
C96	C	0.184887	0.065334	0.946268
C97	C	-0.481773	-0.683881	0.279597
C98	C	-0.148439	-0.350548	0.612931
C99	C	0.184894	-0.017214	0.946264
C100	C	-0.330306	-0.477600	0.431512
C101	C	0.003027	-0.144267	0.764845
C102	C	0.336360	0.189067	1.098179
C103	C	-0.431289	-0.477535	0.330242
C104	C	-0.097956	-0.144202	0.663576
C105	C	0.235378	0.189132	0.996909
C106	C	-1.045492	-1.091796	0.431409
C107	C	-0.712159	-0.758463	0.764742
C108	C	-0.378825	-0.425130	1.098076
C109	C	-1.045474	-1.192964	0.330402
C110	C	-0.712141	-0.859630	0.663735
C111	C	-0.378808	-0.526297	0.997069
C112	C	-0.962928	-1.192936	0.330395
C113	C	-0.629595	-0.859603	0.663728
C114	C	-0.296262	-0.526269	0.997061
C115	C	-0.921661	-1.142337	0.380894
C116	C	-0.588327	-0.809004	0.714228
C117	C	-0.254994	-0.475670	1.047561
C118	C	-0.962938	-1.091765	0.431402
C119	C	-0.629605	-0.758432	0.764735
C120	C	-0.296272	-0.425099	1.098068
C121	C	-0.921644	-1.243501	0.279883
C122	C	-0.588311	-0.910167	0.613216
C123	C	-0.254978	-0.576834	0.946549
C124	C	-0.839093	-1.243475	0.279873
C125	C	-0.505760	-0.910141	0.613206
C126	C	-0.172427	-0.576808	0.946540
C127	C	-0.797824	-1.192879	0.330377
C128	C	-0.464491	-0.859546	0.663711
C129	C	-0.131157	-0.526212	0.997044
C130	C	-0.839107	-1.142306	0.380887
C131	C	-0.505774	-0.808973	0.714220
C132	C	-0.172440	-0.475639	1.047554
C133	C	-0.797839	-1.091707	0.431387
C134	C	-0.464506	-0.758374	0.764720
C135	C	-0.131172	-0.425040	1.098054
C136	C	-0.839121	-1.041137	0.481901
C137	C	-0.505787	-0.707804	0.815235
C138	C	-0.172454	-0.374471	1.148568
C139	C	-0.921669	-1.041170	0.481906
C140	C	-0.588336	-0.707836	0.815239
C141	C	-0.255002	-0.374503	1.148573
C142	C	-0.715276	-1.192847	0.330373
C143	C	-0.381942	-0.859513	0.663706
C144	C	-0.048609	-0.526180	0.997039
C145	C	-0.715286	-1.091676	0.431379
C146	C	-0.381952	-0.758343	0.764713
C147	C	-0.048619	-0.425009	1.098046
C148	C	-0.174617	-1.142358	0.380896
C149	C	0.158717	-0.809024	0.714229
C150	C	0.492050	-0.475691	1.047563
C151	C	-0.086760	-1.142395	0.380909
C152	C	0.246573	-0.809062	0.714242
C153	C	0.579907	-0.475729	1.047576
C154	C	-0.380719	-1.142303	0.587033
C155	C	-0.047386	-0.808969	0.920367
C156	C	0.285947	-0.475636	1.253700
C157	C	-0.380691	-1.142317	0.674890
C158	C	-0.047358	-0.808983	1.008223
C159	C	0.285975	-0.475650	1.341557
C160	C	-0.380802	-0.348438	0.380884
C161	C	-0.047469	-0.015105	0.714218
C162	C	0.285865	0.318229	1.047551
C163	C	-0.380800	-0.436295	0.380881
C164	C	-0.047467	-0.102961	0.714214
C165	C	0.285867	0.230372	1.047548
C166	C	-0.380793	-1.142283	0.175499
C167	C	-0.047460	-0.808949	0.508832
C168	C	0.285874	-0.475616	0.842166
C169	C	-0.380598	-1.142422	0.087643
C170	C	-0.047265	-0.809088	0.420976
C171	C	0.286069	-0.475755	0.754309
C172	C	-0.431153	-1.091839	1.046355
C173	C	-0.097820	-0.758506	1.379688
C174	C	0.235513	-0.425172	1.713022
C175	C	-0.330063	-1.192983	1.046377
C176	C	0.003271	-0.859650	1.379710
C177	C	0.336604	-0.526317	1.713043
C178	C	-0.330079	-1.192962	0.963831
C179	C	0.003254	-0.859629	1.297164
C180	C	0.336587	-0.526296	1.630498
C181	C	-0.380635	-1.142380	0.922543
C182	C	-0.047301	-0.809046	1.255877
C183	C	0.286032	-0.475713	1.589210
C184	C	-0.431173	-1.091818	0.963801
C185	C	-0.097840	-0.758485	1.297135
C186	C	0.235493	-0.425151	1.630468
C187	C	-0.279547	-1.243529	0.922566
C188	C	0.053786	-0.910195	1.255900
C189	C	0.387119	-0.576862	1.589233
C190	C	-0.279563	-1.243510	0.840015
C191	C	0.053771	-0.910177	1.173349
C192	C	0.387104	-0.576843	1.506682
C193	C	-0.330115	-1.192923	0.798726
C194	C	0.003219	-0.859590	1.132060
C195	C	0.336552	-0.526256	1.465393
C196	C	-0.380655	-1.142359	0.839990
C197	C	-0.047321	-0.809025	1.173323
C198	C	0.286012	-0.475692	1.506656
C199	C	-0.431210	-1.091776	0.798702
C200	C	-0.097877	-0.758443	1.132035
C201	C	0.235457	-0.425109	1.465369
C202	C	-0.481747	-1.041207	0.839964
C203	C	-0.148413	-0.707874	1.173297
C204	C	0.184920	-0.374541	1.506630
C205	C	-0.481725	-1.041231	0.922512
C206	C	-0.148392	-0.707898	1.255846
C207	C	0.184941	-0.374564	1.589179
C208	C	-0.330136	-1.192899	0.716178
C209	C	0.003197	-0.859566	1.049511
C210	C	0.336531	-0.526233	1.382844
C211	C	-0.431230	-1.091755	0.716148
C212	C	-0.097897	-0.758422	1.049482
C213	C	0.235437	-0.425088	1.382815
H214	H	-0.472411	-0.443910	0.289015
H215	H	-0.139078	-0.110576	0.622349
H216	H	0.194256	0.222757	0.955682
H217	H	-0.472297	-1.050665	1.079954
H218	H	-0.138964	-0.717332	1.413287
H219	H	0.194370	-0.383998	1.746621
H220	H	-0.472392	-1.050557	0.682538
H221	H	-0.139059	-0.717224	1.015871
H222	H	0.194275	-0.383890	1.349204
H223	H	-1.079080	-1.234154	0.289282
H224	H	-0.745746	-0.900821	0.622616
H225	H	-0.412413	-0.567488	0.955949
C226	C	-0.224260	-0.729438	0.537818
C227	C	0.109073	-0.396105	0.871151
C228	C	0.442406	-0.062771	1.204485
H229	H	-0.194184	-0.693054	0.567971
H230	H	0.139149	-0.359721	0.901304
H231	H	0.472482	-0.026387	1.234637
H232	H	-0.254539	-0.761641	0.572206
H233	H	0.078795	-0.428308	0.905539
H234	H	0.412128	-0.094974	1.238873
H235	H	-0.189783	-0.761642	0.507632
H236	H	0.143551	-0.428309	0.840965
H237	H	0.476884	-0.094976	1.174299
H238	H	-0.289173	-0.841435	0.472704
H239	H	0.044161	-0.508101	0.806037
H240	H	0.377494	-0.174768	1.139371
H241	H	-0.955251	-1.284690	0.238763
H242	H	-0.621917	-0.951357	0.572096
H243	H	-0.288584	-0.618023	0.905429
H244	H	-0.522872	-1.000063	0.956115
H245	H	-0.189539	-0.666730	1.289448
H246	H	0.143795	-0.333396	1.622782
C247	C	-0.274453	-1.248615	1.091791
C248	C	0.058881	-0.915282	1.425124
C249	C	0.392214	-0.581948	1.758457
H250	H	-0.281675	-1.241382	1.146863
H251	H	0.051658	-0.908049	1.480197
H252	H	0.384992	-0.574715	1.813530
H253	H	-0.286020	-1.301717	1.078262
H254	H	0.047313	-0.968384	1.411595
H255	H	0.380646	-0.635051	1.744929
H256	H	-0.221345	-1.237054	1.078274
H257	H	0.111989	-0.903721	1.411608
H258	H	0.445322	-0.570387	1.744941
C259	C	-0.486808	-0.853104	0.274522
C260	C	-0.153475	-0.519771	0.607855
C261	C	0.179859	-0.186438	0.941188
H262	H	-0.479574	-0.908184	0.281764
H263	H	-0.146240	-0.574851	0.615098
H264	H	0.187093	-0.241517	0.948431
H265	H	-0.539930	-0.839562	0.286001
H266	H	-0.206597	-0.506229	0.619334
H267	H	0.126736	-0.172896	0.952668
H268	H	-0.475171	-0.839561	0.221430
H269	H	-0.141838	-0.506228	0.554764
H270	H	0.191496	-0.172895	0.888097
C271	C	-0.537354	-0.985570	0.794542
C272	C	-0.204021	-0.652236	1.127875
C273	C	0.129313	-0.318903	1.461209
H274	H	-0.530122	-0.992802	0.739470
H275	H	-0.196789	-0.659468	1.072804
H276	H	0.136544	-0.326135	1.406137
H277	H	-0.590462	-0.997112	0.808058
H278	H	-0.257128	-0.663779	1.141391
H279	H	0.076205	-0.330445	1.474725
H280	H	-0.525769	-0.932465	0.808065
H281	H	-0.192436	-0.599132	1.141398
H282	H	0.140897	-0.265798	1.474732
H283	H	-0.522882	-0.717469	0.238370
H284	H	-0.189548	-0.384136	0.571703
H285	H	0.143785	-0.050802	0.905037
H286	H	-0.805487	-1.284651	0.238743
H287	H	-0.472154	-0.951318	0.572076
H288	H	-0.138820	-0.617985	0.905409
C289	C	-0.274549	-1.248513	0.670793
C290	C	0.058784	-0.915180	1.004127
C291	C	0.392117	-0.581846	1.337460
H292	H	-0.244435	-1.278638	0.707206
H293	H	0.088898	-0.945305	1.040539
H294	H	0.422231	-0.611972	1.373872
H295	H	-0.304793	-1.282930	0.638579
H296	H	0.028540	-0.949597	0.971913
H297	H	0.361874	-0.616263	1.305246
H298	H	-0.240109	-1.218275	0.638604
H299	H	0.093224	-0.884942	0.971937
H300	H	0.426558	-0.551608	1.305271
C301	C	-0.223944	-1.299169	0.967979
C302	C	0.109389	-0.965835	1.301312
C303	C	0.442723	-0.632502	1.634645
H304	H	-0.193856	-1.329287	0.931584
H305	H	0.139477	-0.995954	1.264917
H306	H	0.472810	-0.662621	1.598250
H307	H	-0.189492	-1.268957	1.000188
H308	H	0.143841	-0.935623	1.333521
H309	H	0.477175	-0.602290	1.666854
H310	H	-0.254185	-1.333603	1.000175
H311	H	0.079148	-1.000269	1.333508
H312	H	0.412482	-0.666936	1.666841
C313	C	-0.223969	-1.299126	0.794635
C314	C	0.109364	-0.965792	1.127968
C315	C	0.442697	-0.632459	1.461301
H316	H	-0.193855	-1.329249	0.831048
H317	H	0.139479	-0.995916	1.164381
H318	H	0.472812	-0.662582	1.497715
H319	H	-0.254212	-1.333544	0.762421
H320	H	0.079122	-1.000211	1.095754
H321	H	0.412455	-0.666878	1.429088
H322	H	-0.189530	-1.268887	0.762445
H323	H	0.143803	-0.935553	1.095778
H324	H	0.477137	-0.602220	1.429112
H325	H	-0.522889	-0.567691	0.238374
H326	H	-0.189556	-0.234357	0.571708
H327	H	0.143777	0.098976	0.905041
H328	H	-0.238684	-0.567882	0.523369
H329	H	0.094649	-0.234548	0.856702
H330	H	0.427983	0.098785	1.190035
H331	H	-0.681690	-1.050475	0.472506
H332	H	-0.348357	-0.717142	0.805839
H333	H	-0.015023	-0.383808	1.139172
C334	C	-0.274772	-0.432235	0.487208
C335	C	0.058562	-0.098902	0.820541
C336	C	0.391895	0.234432	1.153875
H337	H	-0.244701	-0.468658	0.517363
H338	H	0.088632	-0.135325	0.850696
H339	H	0.421965	0.198009	1.184030
H340	H	-0.240301	-0.400027	0.457033
H341	H	0.093033	-0.066693	0.790366
H342	H	0.426366	0.266640	1.123700
H343	H	-0.305058	-0.400042	0.521606
H344	H	0.028276	-0.066708	0.854939
H345	H	0.361609	0.266625	1.188272
H346	H	-0.805511	-0.999936	0.523015
H347	H	-0.472177	-0.666602	0.856348
H348	H	-0.138844	-0.333269	1.189682
C349	C	-0.669869	-1.248466	0.274815
C350	C	-0.336536	-0.915132	0.608148
C351	C	-0.003203	-0.581799	0.941481
H352	H	-0.706270	-1.278606	0.244742
H353	H	-0.372936	-0.945273	0.578075
H354	H	-0.039603	-0.611939	0.911408
H355	H	-0.637704	-1.218240	0.240347
H356	H	-0.304370	-0.884906	0.573680
H357	H	0.028963	-0.551573	0.907014
H358	H	-0.637630	-1.282880	0.305085
H359	H	-0.304297	-0.949547	0.638418
H360	H	0.029037	-0.616213	0.971751
C361	C	-1.090893	-1.036174	0.486973
C362	C	-0.757559	-0.702841	0.820307
C363	C	-0.424226	-0.369508	1.153640
H364	H	-1.054490	-1.006041	0.517050
H365	H	-0.721156	-0.672707	0.850384
H366	H	-0.387823	-0.339374	1.183717
H367	H	-1.123141	-1.001765	0.456714
H368	H	-0.789807	-0.668432	0.790047
H369	H	-0.456474	-0.335099	1.123381
H370	H	-1.123049	-1.066408	0.521449
H371	H	-0.789716	-0.733075	0.854783
H372	H	-0.456382	-0.399741	1.188116
H373	H	-0.955288	-0.999998	0.523031
H374	H	-0.621954	-0.666665	0.856364
H375	H	-0.288621	-0.333331	1.189698
