data_functionalizedCrystal
_audit_creation_method	'MofGen! by Chris Wilmer'
_symmetry_space_group_name_H-M	'P1'
_symmetry_Int_Tables_number	1
_symmetry_cell_setting	triclinic
loop_
_symmetry_equiv_pos_as_xyz
  x,y,z
_cell_length_a	29.839131
_cell_length_b	29.839134
_cell_length_c	12.759393
_cell_angle_alpha	89.977145
_cell_angle_beta	90.037941
_cell_angle_gamma	89.980268
loop_
_atom_site_label
_atom_site_type_symbol
_atom_site_fract_x
_atom_site_fract_y
_atom_site_fract_z
Zn1	Zn	-0.179087	-0.686761	0.594058
Zn2	Zn	-0.254225	-0.686681	0.418359
Zn3	Zn	-0.179081	-0.611632	0.418384
Zn4	Zn	-0.254162	-0.611592	0.593987
O5	O	-0.216639	-0.649166	0.506197
O6	O	-0.189082	-0.749618	0.570770
O7	O	-0.244282	-0.676709	0.271341
O8	O	-0.116215	-0.621648	0.441728
O9	O	-0.244286	-0.749559	0.441685
O10	O	-0.116219	-0.676845	0.570795
O11	O	-0.189074	-0.621570	0.271360
O12	O	-0.189012	-0.548759	0.441659
O13	O	-0.244179	-0.621580	0.741017
O14	O	-0.244174	-0.548730	0.570673
O15	O	-0.189021	-0.676807	0.741070
O16	O	-0.317084	-0.676670	0.441616
O17	O	-0.317037	-0.621502	0.570649
C18	C	-0.216586	-0.532444	0.506162
C19	C	-0.216574	-0.482509	0.506172
C20	C	-0.187933	-0.125949	0.573517
C21	C	-0.187905	-0.313622	0.573502
O22	O	-0.163509	-0.337909	0.630774
N23	N	-0.216598	-0.337064	0.506189
C24	C	-0.245303	-0.313586	0.438879
O25	O	-0.269711	-0.337831	0.381632
C26	C	-0.245333	-0.125913	0.438900
C27	C	-0.216635	-0.102473	0.506210
C28	C	-0.159238	-0.102509	0.640823
C29	C	-0.159243	-0.055593	0.640822
C30	C	-0.187945	-0.032118	0.573515
C31	C	-0.216641	-0.055558	0.506209
C32	C	-0.274040	-0.102435	0.371596
C33	C	-0.274046	-0.055514	0.371609
C34	C	-0.245347	-0.032074	0.438919
C35	C	-0.245348	0.014833	0.438901
N36	N	-0.216654	0.038275	0.506215
C37	C	-0.187953	0.014800	0.573521
C38	C	-0.245284	-0.412116	0.438871
C39	C	-0.245276	-0.459034	0.438865
C40	C	-0.187878	-0.459067	0.573490
C41	C	-0.187884	-0.412148	0.573490
C42	C	-0.216590	-0.388674	0.506185
C43	C	-0.187967	0.113326	0.573513
C44	C	-0.187974	0.160245	0.573503
C45	C	-0.245373	0.160274	0.438883
C46	C	-0.245364	0.113359	0.438888
C47	C	-0.216660	0.089886	0.506212
O48	O	-0.269734	0.039149	0.381668
O49	O	-0.163556	0.039054	0.630776
C50	C	-0.187928	-0.172864	0.573518
C51	C	-0.216623	-0.196304	0.506212
C52	C	-0.245325	-0.172829	0.438905
C53	C	-0.216615	-0.243222	0.506206
C54	C	-0.187914	-0.266698	0.573512
C55	C	-0.159220	-0.243255	0.640826
C56	C	-0.159226	-0.196340	0.640825
C57	C	-0.274018	-0.196271	0.371592
C58	C	-0.274010	-0.243187	0.371597
C59	C	-0.245308	-0.266662	0.438904
C60	C	-0.333361	-0.649085	0.506145
C61	C	-0.383296	-0.649092	0.506158
C62	C	-0.692951	-0.677944	0.439108
C63	C	-0.880624	-0.678000	0.439148
O64	O	-0.904898	-0.702467	0.382100
N65	N	-0.904081	-0.649260	0.506276
C66	C	-0.880617	-0.620505	0.573403
O67	O	-0.904875	-0.596064	0.630508
C68	C	-0.692945	-0.620452	0.573367
C69	C	-0.669490	-0.649192	0.506227
C70	C	-0.669496	-0.706682	0.371974
C71	C	-0.622581	-0.706666	0.371961
C72	C	-0.599120	-0.677913	0.439080
C73	C	-0.622574	-0.649176	0.506214
C74	C	-0.669481	-0.591701	0.640499
C75	C	-0.622560	-0.591691	0.640486
C76	C	-0.599106	-0.620430	0.573346
C77	C	-0.552198	-0.620407	0.573320
N78	N	-0.528741	-0.649147	0.506192
C79	C	-0.552202	-0.677900	0.439073
C80	C	-0.979147	-0.620534	0.573416
C81	C	-1.026065	-0.620547	0.573424
C82	C	-1.026069	-0.678042	0.439170
C83	C	-0.979150	-0.678027	0.439158
C84	C	-0.955690	-0.649275	0.506288
C85	C	-0.453676	-0.677864	0.439048
C86	C	-0.406757	-0.677845	0.439038
C87	C	-0.406757	-0.620351	0.573295
C88	C	-0.453672	-0.620369	0.573302
C89	C	-0.477131	-0.649129	0.506176
O90	O	-0.527895	-0.595956	0.630347
O91	O	-0.527936	-0.702344	0.381993
C92	C	-0.739866	-0.677960	0.439121
C93	C	-0.763321	-0.649223	0.506255
C94	C	-0.739860	-0.620470	0.573374
C95	C	-0.810239	-0.649236	0.506263
C96	C	-0.833699	-0.677989	0.439143
C97	C	-0.810242	-0.706729	0.372015
C98	C	-0.763327	-0.706713	0.372001
C99	C	-0.763317	-0.591730	0.640502
C100	C	-0.810233	-0.591748	0.640510
C101	C	-0.833693	-0.620501	0.573390
C102	C	-0.099460	-0.649260	0.506272
C103	C	-0.049526	-0.649300	0.506304
C104	C	-0.216593	-0.649198	0.780230
C105	C	-0.216574	-0.649211	0.897007
C106	C	-0.216682	0.233655	0.506220
C107	C	-0.216675	0.183721	0.506196
C108	C	-0.216652	-0.649161	0.233230
C109	C	-0.216544	-0.649235	0.116453
C110	C	-0.187822	-0.620511	0.951878
C111	C	-0.187808	-0.620521	1.061602
C112	C	-0.245299	-0.677936	1.061575
C113	C	-0.245315	-0.677923	0.951852
H114	H	-0.268661	-0.393007	0.384059
H115	H	-0.387661	-0.701247	0.384361
C116	C	-0.156667	-0.589303	1.121228
C117	C	-0.182083	-0.560484	1.184162
C118	C	-0.153411	-0.531713	1.239090
H119	H	-0.137085	-0.606454	1.164142
H120	H	-0.139563	-0.572176	1.072875
H121	H	-0.199179	-0.577609	1.232509
H122	H	-0.201664	-0.543324	1.141274
H123	H	-0.136307	-0.514586	1.190738
H124	H	-0.133831	-0.548867	1.281998
H125	H	-0.170652	-0.512153	1.281790
C126	C	-0.276461	-0.709111	0.892135
C127	C	-0.251047	-0.737911	0.829148
C128	C	-0.279723	-0.766640	0.774111
H129	H	-0.293584	-0.726258	0.940391
H130	H	-0.296025	-0.691915	0.849254
H131	H	-0.231491	-0.755106	0.872025
H132	H	-0.233925	-0.720777	0.780873
H133	H	-0.299288	-0.749444	0.731229
H134	H	-0.296845	-0.783784	0.822374
H135	H	-0.262485	-0.786181	0.731360
C136	C	-0.479060	-0.709104	0.366048
C137	C	-0.448469	-0.734255	0.307240
C138	C	-0.471836	-0.763031	0.239967
H139	H	-0.497338	-0.728718	0.406159
H140	H	-0.497378	-0.691945	0.320179
H141	H	-0.430159	-0.751413	0.353104
H142	H	-0.430190	-0.714653	0.267108
H143	H	-0.490154	-0.745872	0.194098
H144	H	-0.490114	-0.782642	0.280086
H145	H	-0.451084	-0.780097	0.200051
H146	H	-0.268699	-0.701313	1.106243
C147	C	-0.156798	0.185613	0.646706
C148	C	-0.131672	0.155008	0.705670
C149	C	-0.102955	0.178358	0.773124
H150	H	-0.137166	0.203920	0.606719
H151	H	-0.173998	0.203902	0.692469
H152	H	-0.114474	0.136727	0.659913
H153	H	-0.151293	0.136700	0.745678
H154	H	-0.120155	0.196647	0.818887
H155	H	-0.083325	0.196664	0.733129
H156	H	-0.085907	0.157597	0.813146
H157	H	-0.603487	-0.730069	0.317293
C158	C	-0.156876	0.087821	0.646732
C159	C	-0.182337	0.060888	0.713993
C160	C	-0.153709	0.037391	0.781459
H161	H	-0.137269	0.069485	0.606748
H162	H	-0.139796	0.108491	0.686873
H163	H	-0.199409	0.040220	0.673857
H164	H	-0.201942	0.079213	0.754001
H165	H	-0.136629	0.058061	0.821600
H166	H	-0.134105	0.019058	0.741466
H167	H	-0.170980	0.019117	0.827110
H168	H	-0.688593	-0.730098	0.317317
C169	C	-0.381254	-0.589213	0.646299
C170	C	-0.354290	-0.614636	0.713690
C171	C	-0.330792	-0.585971	0.780971
H172	H	-0.362938	-0.569634	0.606187
H173	H	-0.401923	-0.572105	0.686355
H174	H	-0.333622	-0.631736	0.673639
H175	H	-0.372594	-0.634214	0.753826
H176	H	-0.351462	-0.568863	0.821027
H177	H	-0.312480	-0.566393	0.740850
H178	H	-0.312498	-0.603216	0.826710
C179	C	-0.128071	-0.030229	0.714027
C180	C	-0.102947	-0.060838	0.772984
C181	C	-0.074230	-0.037492	0.840448
H182	H	-0.108437	-0.011920	0.674048
H183	H	-0.145271	-0.011943	0.759794
H184	H	-0.085748	-0.079117	0.727223
H185	H	-0.122569	-0.079148	0.812985
H186	H	-0.091430	-0.019206	0.886215
H187	H	-0.054599	-0.019185	0.800461
H188	H	-0.057183	-0.058257	0.880465
H189	H	-0.268739	0.179397	0.384079
H190	H	-0.268729	0.094273	0.384069
H191	H	-0.960056	-0.701429	0.384488
C192	C	-0.128053	-0.170975	0.714028
C193	C	-0.102928	-0.201584	0.772984
C194	C	-0.074210	-0.178239	0.840444
H195	H	-0.108419	-0.152667	0.674046
H196	H	-0.145252	-0.152688	0.759795
H197	H	-0.085730	-0.219864	0.727222
H198	H	-0.122550	-0.219893	0.812987
H199	H	-0.091409	-0.159952	0.886212
H200	H	-0.054579	-0.159932	0.800455
H201	H	-0.057162	-0.199003	0.880461
C202	C	-0.479199	-0.589238	0.646248
C203	C	-0.506100	-0.614669	0.713637
C204	C	-0.529623	-0.586009	0.780846
H205	H	-0.458558	-0.572099	0.686319
H206	H	-0.497557	-0.569687	0.606051
H207	H	-0.487744	-0.634212	0.753830
H208	H	-0.526750	-0.631807	0.673595
H209	H	-0.547981	-0.566459	0.740649
H210	H	-0.508979	-0.568872	0.820910
H211	H	-0.547881	-0.603260	0.826571
H212	H	-1.045158	-0.597141	0.628086
H213	H	-0.164515	-0.393067	0.628300
C214	C	-0.156768	-0.484641	0.646534
C215	C	-0.162915	-0.530745	0.632133
C216	C	-0.134273	-0.554320	0.699415
H217	H	-0.126556	-0.477012	0.631367
H218	H	-0.163387	-0.476991	0.717120
H219	H	-0.156293	-0.538392	0.561564
H220	H	-0.193121	-0.538387	0.647308
H221	H	-0.140892	-0.546670	0.770000
H222	H	-0.104063	-0.546688	0.684242
H223	H	-0.138443	-0.585604	0.689660
H224	H	-0.268640	-0.478115	0.384042
H225	H	-0.297409	-0.121512	0.316784
C226	C	-0.305230	-0.030109	0.298415
C227	C	-0.330351	-0.060683	0.239456
C228	C	-0.359077	-0.037298	0.172009
H229	H	-0.324866	-0.011808	0.338406
H230	H	-0.288037	-0.011812	0.252648
H231	H	-0.347542	-0.078973	0.285216
H232	H	-0.310727	-0.078986	0.199443
H233	H	-0.341884	-0.019001	0.126242
H234	H	-0.378710	-0.018997	0.212009
H235	H	-0.376121	-0.058039	0.131990
C236	C	-0.128108	-0.268829	0.713866
C237	C	-0.134258	-0.314934	0.699467
C238	C	-0.105613	-0.338509	0.766743
H239	H	-0.097897	-0.261202	0.698691
H240	H	-0.134724	-0.261179	0.784452
H241	H	-0.127639	-0.322581	0.628896
H242	H	-0.164463	-0.322575	0.714650
H243	H	-0.112229	-0.330859	0.837330
H244	H	-0.075404	-0.330878	0.751562
H245	H	-0.109785	-0.369793	0.756990
H246	H	-0.135865	-0.121617	0.695638
H247	H	-0.297379	-0.262268	0.316775
C248	C	-1.051553	-0.709348	0.366514
C249	C	-1.078423	-0.738136	0.426142
C250	C	-1.101896	-0.766998	0.359276
H251	H	-1.069931	-0.692261	0.320647
H252	H	-1.030869	-0.726492	0.326585
H253	H	-1.099105	-0.720994	0.466053
H254	H	-1.060057	-0.755232	0.472007
H255	H	-1.081211	-0.784142	0.319347
H256	H	-1.120270	-0.749908	0.313412
H257	H	-1.120126	-0.786537	0.399724
C258	C	-0.305197	-0.170869	0.298390
C259	C	-0.330312	-0.201446	0.239428
C260	C	-0.359034	-0.178064	0.171964
H261	H	-0.324836	-0.152566	0.338368
H262	H	-0.288001	-0.152574	0.252626
H263	H	-0.347507	-0.219733	0.285187
H264	H	-0.310685	-0.219750	0.199428
H265	H	-0.341838	-0.159769	0.126200
H266	H	-0.378670	-0.159762	0.211951
H267	H	-0.376075	-0.198807	0.131944
H268	H	-0.960049	-0.597120	0.628084
H269	H	-0.688570	-0.568296	0.695167
H270	H	-0.603461	-0.568278	0.695155
C271	C	-0.737947	-0.737968	0.299071
C272	C	-0.768543	-0.763157	0.240321
C273	C	-0.745183	-0.791960	0.173135
H274	H	-0.719668	-0.720841	0.253153
H275	H	-0.719629	-0.757554	0.339273
H276	H	-0.786853	-0.743573	0.200122
H277	H	-0.786822	-0.780293	0.286211
H278	H	-0.726865	-0.811546	0.213337
H279	H	-0.726905	-0.774829	0.127224
H280	H	-0.765938	-0.809057	0.133272
H281	H	-0.829352	-0.730140	0.317360
C282	C	-0.835613	-0.560526	0.713525
C283	C	-0.805019	-0.535353	0.772319
C284	C	-0.828382	-0.506595	0.839606
H285	H	-0.853946	-0.540924	0.673426
H286	H	-0.853877	-0.577698	0.759404
H287	H	-0.786763	-0.518182	0.726447
H288	H	-0.786686	-0.554943	0.812439
H289	H	-0.846646	-0.523768	0.885484
H290	H	-0.846714	-0.486997	0.799499
H291	H	-0.807628	-0.489515	0.879513
H292	H	-0.744219	-0.568316	0.695161
H293	H	-0.164419	-0.597132	0.907227
