data_functionalizedCrystal
_audit_creation_method	'MofGen! by Chris Wilmer'
_symmetry_space_group_name_H-M	'P1'
_symmetry_Int_Tables_number	1
_symmetry_cell_setting	triclinic
loop_
_symmetry_equiv_pos_as_xyz
  x,y,z
_cell_length_a	14.519731
_cell_length_b	13.596369
_cell_length_c	14.519731
_cell_angle_alpha	89.988654
_cell_angle_beta	96.311147
_cell_angle_gamma	90.005416
loop_
_atom_site_label
_atom_site_type_symbol
_atom_site_fract_x
_atom_site_fract_y
_atom_site_fract_z
O1	O	1.223866	0.081806	-0.120985
O2	O	1.723866	0.581806	0.379015
O3	O	0.955392	0.081809	-0.135201
O4	O	1.455392	0.581809	0.364799
O5	O	1.096737	0.081787	0.006144
O6	O	1.596737	0.581787	0.506144
O7	O	1.082521	0.081827	-0.262330
O8	O	1.582521	0.581827	0.237670
O9	O	1.096723	-0.081796	0.006151
O10	O	1.596723	0.418204	0.506151
O11	O	0.955378	-0.081774	-0.135194
O12	O	1.455378	0.418226	0.364806
O13	O	1.223851	-0.081777	-0.120978
O14	O	1.723851	0.418223	0.379022
Zn15	Zn	1.089613	-0.107748	-0.128084
Zn16	Zn	1.589613	0.392252	0.371916
Zn17	Zn	1.089631	0.107779	-0.128094
Zn18	Zn	1.589631	0.607779	0.371906
O19	O	1.082507	-0.081756	-0.262322
O20	O	1.582507	0.418244	0.237678
C21	C	0.921026	0.000017	-0.134531
C22	C	1.421026	0.500017	0.365469
C23	C	0.818645	0.000017	-0.132535
C24	C	1.318645	0.500017	0.367465
N25	N	1.089607	-0.254840	-0.128077
N26	N	1.589607	0.245160	0.371923
C27	C	1.089630	-0.656131	-0.128095
C28	C	1.589630	-0.156131	0.371905
C29	C	1.089621	-0.544480	-0.128093
C30	C	1.589621	-0.044480	0.371907
C31	C	1.089619	-0.455489	-0.128087
C32	C	1.589619	0.044511	0.371913
C33	C	1.089609	-0.343831	-0.128084
C34	C	1.589609	0.156169	0.371916
C35	C	0.735501	0.000021	-0.130913
C36	C	1.235501	0.500021	0.369087
C37	C	0.631192	0.000021	-0.128887
C38	C	1.131192	0.500021	0.371113
C39	C	0.548053	0.000021	-0.127278
C40	C	1.048053	0.500021	0.372722
C41	C	0.443738	0.000023	-0.125252
C42	C	0.943738	0.500023	0.374748
C43	C	1.258218	0.000016	-0.121648
C44	C	1.758218	0.500016	0.378352
C45	C	1.360598	0.000022	-0.123644
C46	C	1.860598	0.500022	0.376356
C47	C	1.096064	-0.000007	0.040507
C48	C	1.596064	0.499993	0.540507
C49	C	1.094068	-0.000016	0.142887
C50	C	1.594068	0.499984	0.642887
N51	N	1.089644	0.254871	-0.128094
N52	N	1.589644	0.754871	0.371906
C53	C	1.092446	-0.000021	0.226031
C54	C	1.592446	0.499979	0.726031
C55	C	1.090419	-0.000022	0.330340
C56	C	1.590419	0.499978	0.830340
C57	C	1.088811	-0.000022	0.413479
C58	C	1.588811	0.499978	0.913479
C59	C	1.086785	-0.000025	0.517795
C60	C	1.586785	0.499975	1.017795
C61	C	1.083180	0.000020	0.703315
C62	C	1.583180	0.500020	1.203315
C63	C	1.085176	-0.000025	0.600934
C64	C	1.585176	0.499975	1.100934
