data_functionalizedCrystal
_audit_creation_method	'MofGen! by Chris Wilmer'
_symmetry_space_group_name_H-M	'P1'
_symmetry_Int_Tables_number	1
_symmetry_cell_setting	triclinic
loop_
_symmetry_equiv_pos_as_xyz
  x,y,z
_cell_length_a	15.538191
_cell_length_b	17.699083
_cell_length_c	16.176319
_cell_angle_alpha	90.001389
_cell_angle_beta	89.995479
_cell_angle_gamma	114.722446
loop_
_atom_site_label
_atom_site_type_symbol
_atom_site_fract_x
_atom_site_fract_y
_atom_site_fract_z
O1	O	0.119201	-0.971508	-0.068626
O2	O	0.619201	-0.471508	0.431374
O3	O	0.134709	-0.746892	-0.068653
O4	O	0.634709	-0.246892	0.431347
O5	O	-0.010274	-0.902923	-0.068638
O6	O	0.489726	-0.402923	0.431362
O7	O	0.264185	-0.815476	-0.068641
O8	O	0.764185	-0.315476	0.431359
O9	O	-0.010284	-0.902910	0.068855
O10	O	0.489716	-0.402910	0.568855
O11	O	0.134700	-0.746878	0.068840
O12	O	0.634700	-0.246878	0.568840
O13	O	0.119192	-0.971494	0.068867
O14	O	0.619192	-0.471494	0.568867
Cu15	Cu	0.126945	-0.859185	0.081408
Cu16	Cu	0.626945	-0.359185	0.581408
Cu17	Cu	0.126956	-0.859201	-0.081194
Cu18	Cu	0.626956	-0.359201	0.418806
O19	O	0.264175	-0.815463	0.068852
O20	O	0.764175	-0.315463	0.568852
C21	C	0.134149	-0.718840	0.000090
C22	C	0.634149	-0.218840	0.500090
C23	C	0.132482	-0.635277	0.000080
C24	C	0.632482	-0.135277	0.500080
C25	C	-0.045395	-0.912066	0.000107
C26	C	0.454605	-0.412066	0.500107
C27	C	-0.150032	-0.939318	0.000102
C28	C	0.349968	-0.439318	0.500102
N29	N	0.126937	-0.859180	0.195773
N30	N	0.626937	-0.359180	0.695773
C31	C	-0.437202	-0.668571	0.000087
C32	C	0.062798	-0.168571	0.500087
C33	C	-0.535527	-0.694198	0.000092
C34	C	-0.035527	-0.194198	0.500092
C35	C	-0.558300	-0.838344	0.000109
C36	C	-0.058300	-0.338344	0.500109
C37	C	-0.459975	-0.812729	0.000100
C38	C	0.040025	-0.312729	0.500100
C39	C	-0.399434	-0.727842	0.000090
C40	C	0.100566	-0.227842	0.500090
C41	C	-0.422207	-0.872000	0.000103
C42	C	0.077793	-0.372000	0.500103
C43	C	-0.323891	-0.846387	0.000098
C44	C	0.176109	-0.346387	0.500098
C45	C	-0.263343	-0.761503	0.000091
C46	C	0.236657	-0.261503	0.500091
C47	C	-0.301118	-0.702229	0.000085
C48	C	0.198882	-0.202229	0.500085
C49	C	-0.482750	-0.956887	0.000118
C50	C	0.017250	-0.456887	0.500118
C51	C	-0.444981	-1.016158	0.000121
C52	C	0.055019	-0.516158	0.500121
C53	C	-0.346663	-0.990545	0.000111
C54	C	0.153337	-0.490545	0.500111
C55	C	-0.286116	-0.905661	0.000103
C56	C	0.213884	-0.405661	0.500103
C57	C	-0.308889	-1.049819	0.000116
C58	C	0.191111	-0.549819	0.500116
C59	C	-0.210573	-1.024206	0.000111
C60	C	0.289427	-0.524206	0.500111
C61	C	-0.187800	-0.880048	0.000099
C62	C	0.312200	-0.380048	0.500099
C63	C	0.299297	-0.806321	0.000106
C64	C	0.799297	-0.306321	0.500106
C65	C	0.403933	-0.779068	0.000105
C66	C	0.903933	-0.279068	0.500105
C67	C	0.119752	-0.999546	0.000122
C68	C	0.619752	-0.499546	0.500122
C69	C	0.121419	-1.083109	0.000127
C70	C	0.621419	-0.583109	0.500127
C71	C	0.217584	-0.563403	0.000079
C72	C	0.717584	-0.063403	0.500079
C73	C	0.216012	-0.484889	0.000090
C74	C	0.716012	0.015111	0.500090
C75	C	0.129337	-0.478252	0.000095
C76	C	0.629337	0.021748	0.500095
C77	C	0.044228	-0.550134	0.000098
C78	C	0.544228	-0.050134	0.500098
C79	C	0.045801	-0.628646	0.000094
C80	C	0.545801	-0.128646	0.500094
C81	C	0.037882	-0.233505	0.000119
C82	C	0.537882	0.266495	0.500119
C83	C	0.036316	-0.154985	0.000121
C84	C	0.536316	0.345015	0.500121
C85	C	0.208094	-0.089748	0.000115
C86	C	0.708094	0.410252	0.500115
C87	C	0.209667	-0.168260	0.000111
C88	C	0.709667	0.331740	0.500111
C89	C	0.124558	-0.240135	0.000118
C90	C	0.624558	0.259865	0.500118
C91	C	0.126264	-0.325269	0.000108
C92	C	0.626264	0.174731	0.500108
C93	C	0.127630	-0.393120	0.000100
C94	C	0.627630	0.106880	0.500100
N95	N	0.126957	-0.859215	-0.195559
N96	N	0.626957	-0.359215	0.304441
C97	C	0.062764	-0.928279	0.239044
C98	C	0.562764	-0.428279	0.739044
C99	C	0.062763	-0.928283	0.325591
C100	C	0.562763	-0.428283	0.825591
C101	C	0.126940	-0.859189	0.368866
C102	C	0.626940	-0.359189	0.868866
C103	C	0.191116	-0.790084	0.325589
C104	C	0.691116	-0.290084	0.825589
C105	C	0.191111	-0.790078	0.239043
C106	C	0.691111	-0.290078	0.739043
C107	C	0.191133	-0.790105	0.674617
C108	C	0.691133	-0.290105	1.174617
C109	C	0.191135	-0.790117	0.761169
C110	C	0.691135	-0.290117	1.261169
C111	C	0.062785	-0.928310	0.761164
C112	C	0.562785	-0.428310	1.261164
C113	C	0.062781	-0.928304	0.674619
C114	C	0.562781	-0.428304	1.174619
C115	C	0.126953	-0.859197	0.631350
C116	C	0.626953	-0.359197	1.131350
C117	C	0.126952	-0.859193	0.537506
C118	C	0.626952	-0.359193	1.037506
C119	C	0.126946	-0.859195	0.462708
C120	C	0.626946	-0.359195	0.962708
H121	H	-0.183289	-0.740650	0.000092
H122	H	0.316711	-0.240650	0.500092
H123	H	-0.251821	-0.633105	0.000071
H124	H	0.248179	-0.133105	0.500071
H125	H	-0.494287	-1.085273	0.000132
H126	H	0.005713	-0.585273	0.500132
N127	N	-0.371880	-0.577017	0.000074
N128	N	0.128120	-0.077017	0.500074
H129	H	-0.383999	-0.549962	-0.050898
H130	H	0.116001	-0.049962	0.449102
H131	H	-0.384034	-0.550020	0.051074
H132	H	0.115966	-0.050020	0.551074
H133	H	0.280246	-0.173657	0.000103
H134	H	0.780246	0.326343	0.500103
H135	H	-0.566272	-0.645927	0.000102
H136	H	-0.066272	-0.145927	0.500102
N137	N	-0.623599	-0.929898	0.000128
N138	N	-0.123599	-0.429898	0.500128
H139	H	-0.691614	-0.937132	0.000133
H140	H	-0.191614	-0.437132	0.500133
H141	H	-0.611389	-0.956902	-0.050841
H142	H	-0.111389	-0.456902	0.449159
H143	H	0.243366	-0.733810	0.203813
H144	H	0.743366	-0.233810	0.703813
N145	N	0.260347	-0.715589	0.807849
N146	N	0.760347	-0.215589	1.307849
H147	H	0.327238	-0.705913	0.792781
H148	H	0.827238	-0.205913	1.292781
H149	H	0.249480	-0.664886	0.792780
H150	H	0.749480	-0.164886	1.292780
N151	N	0.307828	-0.407393	0.000158
N152	N	0.807828	0.092607	0.500158
H153	H	0.345694	-0.406770	-0.050793
H154	H	0.845694	0.093230	0.449207
H155	H	0.293652	-0.356666	0.000220
H156	H	0.793652	0.143334	0.500220
H157	H	-0.031418	-0.292019	0.000126
H158	H	0.468582	0.207981	0.500126
H159	H	-0.026345	-0.544725	0.000115
H160	H	0.473655	-0.044725	0.500115
N161	N	0.299901	-0.012231	0.000120
N162	N	0.799901	0.487769	0.500120
H163	H	0.303089	0.021807	-0.050844
H164	H	0.803089	0.521807	0.449156
H165	H	0.303029	0.021730	0.051127
H166	H	0.803029	0.521730	0.551127
N167	N	-0.045987	-0.706172	0.000101
N168	N	0.454013	-0.206172	0.500101
H169	H	-0.101135	-0.690056	0.000104
H170	H	0.398865	-0.190056	0.500104
H171	H	-0.049077	-0.740170	-0.050870
H172	H	0.450923	-0.240170	0.449130
H173	H	-0.562804	-0.977738	0.000115
H174	H	-0.062804	-0.477738	0.500115
H175	H	-0.358196	-1.118934	0.000132
H176	H	0.141804	-0.618934	0.500132
N177	N	-0.169828	-1.088129	0.000119
N178	N	0.330172	-0.588129	0.500119
H179	H	-0.223098	-1.145790	0.000124
H180	H	0.276902	-0.645790	0.500124
H181	H	-0.129529	-1.080644	-0.050852
H182	H	0.370471	-0.580644	0.449148
H183	H	0.010530	-0.984579	0.796403
H184	H	0.510530	-0.484579	1.296403
H185	H	0.243367	-0.733824	0.360828
H186	H	0.743367	-0.233824	0.860828
H187	H	0.010508	-0.984544	0.203815
H188	H	0.510508	-0.484544	0.703815
H189	H	0.243386	-0.733837	0.639394
H190	H	0.743386	-0.233837	1.139394
H191	H	0.010509	-0.984548	0.360821
H192	H	0.510509	-0.484548	0.860821
H193	H	-0.034270	-0.149589	0.000127
H194	H	0.465730	0.350411	0.500127
N195	N	-0.006435	-1.002821	0.627938
N196	N	0.493565	-0.502821	1.127938
H197	H	0.004333	-1.053580	0.642988
H198	H	0.504333	-0.553580	1.142988
H199	H	-0.073291	-1.012409	0.643024
H200	H	0.426709	-0.512409	1.143024
N201	N	-0.122495	-0.788490	0.000112
N202	N	0.377505	-0.288490	0.500112
H203	H	-0.054482	-0.781261	0.000118
H204	H	0.445518	-0.281261	0.500118
H205	H	-0.134690	-0.761479	-0.050855
H206	H	0.365310	-0.261479	0.449145
N207	N	0.311071	-0.570559	0.000064
N208	N	0.811071	-0.070559	0.500064
H209	H	0.364743	-0.513110	0.000066
H210	H	0.864743	-0.013110	0.500066
H211	H	0.315465	-0.601716	0.051031
H212	H	0.815465	-0.101716	0.551031
