data_functionalizedCrystal
_audit_creation_method	'MofGen! by Chris Wilmer'
_symmetry_space_group_name_H-M	'P1'
_symmetry_Int_Tables_number	1
_symmetry_cell_setting	triclinic
loop_
_symmetry_equiv_pos_as_xyz
  x,y,z
_cell_length_a	13.032831
_cell_length_b	12.645330
_cell_length_c	13.032268
_cell_angle_alpha	82.848687
_cell_angle_beta	89.113023
_cell_angle_gamma	82.822813
loop_
_atom_site_label
_atom_site_type_symbol
_atom_site_fract_x
_atom_site_fract_y
_atom_site_fract_z
Zn1	Zn	1.498478	-0.715929	0.780858
Zn2	Zn	1.998478	-0.215929	1.280858
Zn3	Zn	1.520220	-0.873876	0.608884
Zn4	Zn	2.020220	-0.373876	1.108884
Zn5	Zn	1.348336	-0.671644	0.587098
Zn6	Zn	1.848336	-0.171644	1.087098
Zn7	Zn	1.326468	-0.868144	0.759009
Zn8	Zn	1.826468	-0.368144	1.259009
O9	O	1.423375	-0.782398	0.683962
O10	O	1.923375	-0.282398	1.183962
O11	O	1.645282	-0.757814	0.776307
O12	O	2.145282	-0.257814	1.276307
O13	O	1.515670	-0.830915	0.462076
O14	O	2.015670	-0.330915	0.962076
O15	O	1.368306	-0.529182	0.612827
O16	O	1.868306	-0.029182	1.112827
O17	O	1.661256	-0.873856	0.649958
O18	O	2.161256	-0.373856	1.149958
O19	O	1.478614	-0.561718	0.755182
O20	O	1.978614	-0.061718	1.255182
O21	O	1.389388	-0.682336	0.446071
O22	O	1.889388	-0.182336	0.946071
O23	O	1.201515	-0.676778	0.591641
O24	O	1.701515	-0.176778	1.091641
O25	O	1.331034	-0.864087	0.905824
O26	O	1.831034	-0.364087	1.405824
O27	O	1.185448	-0.821146	0.717943
O28	O	1.685448	-0.321146	1.217943
O29	O	1.457409	-0.752256	0.921877
O30	O	1.957409	-0.252256	1.421877
O31	O	1.494465	-1.021452	0.628771
O32	O	1.994465	-0.521452	1.128771
O33	O	1.352116	-1.017241	0.739067
O34	O	1.852116	-0.517241	1.239067
C35	C	1.156164	-0.743535	0.650057
C36	C	1.656164	-0.243535	1.150057
C37	C	1.041847	-0.726938	0.635577
C38	C	1.541847	-0.226938	1.135577
C39	C	0.982971	-0.791061	0.691519
C40	C	1.482971	-0.291061	1.191519
C41	C	0.864818	-0.773908	0.676555
C42	C	1.364818	-0.273908	1.176555
C43	C	1.423302	-1.057816	0.683938
C44	C	1.923302	-0.557816	1.183938
C45	C	1.423360	-1.175658	0.683974
C46	C	1.923360	-0.675658	1.183974
C47	C	1.334105	-1.340692	0.753648
C48	C	1.834105	-0.840692	1.253648
C49	C	1.333733	-1.218045	0.753341
C50	C	1.833733	-0.718045	1.253341
C51	C	1.407793	-1.203807	0.571873
C52	C	1.907793	-0.703807	1.071873
C53	C	1.407248	-1.326389	0.572295
C54	C	1.907248	-0.826389	1.072295
C55	C	1.528779	-1.361707	0.725584
C56	C	2.028779	-0.861707	1.225584
C57	C	1.527810	-1.239270	0.727870
C58	C	2.027810	-0.739270	1.227870
C59	C	1.691630	-0.821414	0.718000
C60	C	2.191630	-0.321414	1.218000
C61	C	1.805944	-0.838040	0.732505
C62	C	2.305944	-0.338040	1.232505
C63	C	1.389357	-0.812472	0.952210
C64	C	1.889357	-0.312472	1.452210
C65	C	1.374860	-0.825288	1.066522
C66	C	1.874860	-0.325288	1.566522
C67	C	1.423474	-0.505912	0.684012
C68	C	1.923474	-0.005912	1.184012
C69	C	1.423516	-0.388090	0.684033
C70	C	1.923516	0.111910	1.184033
C71	C	1.457320	-0.752374	0.416765
C72	C	1.957320	-0.252374	0.916765
C73	C	1.472016	-0.739288	0.302479
C74	C	1.972016	-0.239288	0.802479
C75	C	1.430925	-0.775669	1.125428
C76	C	1.930925	-0.275669	1.625428
C77	C	1.415944	-0.788914	1.243575
C78	C	1.915944	-0.288914	1.743575
H79	H	0.843003	-0.905637	0.791489
H80	H	1.343003	-0.405637	1.291489
H81	H	1.315763	-0.877565	1.103557
H82	H	1.815763	-0.377565	1.603557
H83	H	1.004781	-0.659337	0.576608
H84	H	1.504781	-0.159337	1.076608
H85	H	1.341878	-1.199591	0.836032
H86	H	1.841878	-0.699591	1.336032
H87	H	1.020037	-0.858655	0.750496
H88	H	1.520037	-0.358655	1.250496
C89	C	0.707435	-0.683338	0.597499
C90	C	1.207435	-0.183338	1.097499
C91	C	0.814798	-0.682659	0.596921
C92	C	1.314798	-0.182659	1.096921
H93	H	0.676558	-0.627013	0.548329
H94	H	1.176558	-0.127013	1.048329
H95	H	0.681133	-0.673137	0.664407
H96	H	1.181133	-0.173137	1.164407
H97	H	0.691804	-0.750321	0.580137
H98	H	1.191804	-0.250321	1.080137
H99	H	0.830429	-0.615679	0.614290
H100	H	1.330429	-0.115679	1.114290
H101	H	0.841110	-0.692852	0.529998
H102	H	1.341110	-0.192852	1.029998
C103	C	1.551169	-0.669206	1.145131
C104	C	2.051169	-0.169206	1.645131
C105	C	1.551775	-0.668675	1.252498
C106	C	2.051775	-0.168675	1.752498
H107	H	1.600407	-0.625610	1.114277
H108	H	2.100407	-0.125610	1.614277
H109	H	1.484282	-0.641706	1.118828
H110	H	1.984282	-0.141706	1.618828
H111	H	1.568426	-0.740662	1.129474
H112	H	2.068426	-0.240662	1.629474
H113	H	1.534511	-0.597219	1.268156
H114	H	2.034511	-0.097219	1.768156
H115	H	1.618677	-0.696170	1.278810
H116	H	2.118677	-0.196170	1.778810
C117	C	1.477697	-1.192508	0.399864
C118	C	1.977697	-0.692508	0.899864
C119	C	1.493767	-1.166219	0.499126
C120	C	1.993767	-0.666219	0.999126
H121	H	1.530788	-1.169324	0.354962
H122	H	2.030788	-0.669324	0.854962
H123	H	1.412450	-1.157947	0.374642
H124	H	1.912450	-0.657947	0.874642
H125	H	1.478972	-1.268089	0.402669
H126	H	1.978972	-0.768089	0.902669
H127	H	1.492484	-1.090638	0.496322
H128	H	1.992484	-0.590638	0.996322
H129	H	1.559030	-1.200778	0.524353
H130	H	2.059030	-0.700778	1.024353
H131	H	1.342048	-1.381809	0.836582
H132	H	1.842048	-0.881809	1.336582
H133	H	1.470292	-1.357178	0.517917
H134	H	1.970292	-0.857178	1.017917
H135	H	1.256264	-1.357903	0.725332
H136	H	1.756264	-0.857903	1.225332
H137	H	1.255418	-1.175020	0.724725
H138	H	1.755418	-0.675020	1.224725
H139	H	1.330710	-1.340879	0.538698
H140	H	1.830710	-0.840879	1.038698
H141	H	1.490012	-0.723380	1.088392
H142	H	1.990012	-0.223380	1.588392
C143	C	1.241161	-1.217617	0.502265
C144	C	1.741161	-0.717617	1.002265
C145	C	1.305657	-1.143426	0.526079
C146	C	1.805657	-0.643426	1.026079
H147	H	1.178108	-1.180341	0.473992
H148	H	1.678108	-0.680341	0.973992
H149	H	1.227153	-1.262793	0.563372
H150	H	1.727153	-0.762793	1.063372
H151	H	1.274479	-1.260023	0.453264
H152	H	1.774479	-0.760023	0.953264
H153	H	1.272342	-1.101025	0.575086
H154	H	1.772342	-0.601025	1.075086
H155	H	1.319663	-1.098232	0.464963
H156	H	1.819663	-0.598232	0.964963
H157	H	1.545671	-1.405172	0.806666
H158	H	2.045671	-0.905172	1.306666
C159	C	1.550468	-1.312658	0.906187
C160	C	2.050468	-0.812658	1.406187
C161	C	1.543957	-1.216378	0.839348
C162	C	2.043957	-0.716378	1.339348
H163	H	1.560412	-1.298524	0.975013
H164	H	2.060412	-0.798524	1.475013
H165	H	1.607120	-1.360766	0.886458
H166	H	2.107120	-0.860766	1.386458
H167	H	1.488276	-1.343971	0.902429
H168	H	1.988276	-0.843971	1.402429
H169	H	1.606152	-1.185069	0.843100
H170	H	2.106152	-0.685069	1.343100
H171	H	1.487299	-1.168253	0.859082
H172	H	1.987299	-0.668253	1.359082
C173	C	1.674728	-1.288809	0.622848
C174	C	2.174728	-0.788809	1.122848
C175	C	1.620990	-1.201943	0.665883
C176	C	2.120990	-0.701943	1.165883
H177	H	1.732254	-1.265764	0.584578
H178	H	2.232254	-0.765764	1.084578
H179	H	1.630018	-1.315647	0.578211
H180	H	2.130018	-0.815647	1.078211
H181	H	1.698372	-1.343922	0.676572
H182	H	2.198372	-0.843922	1.176572
H183	H	1.597339	-1.146833	0.612158
H184	H	2.097339	-0.646833	1.112158
H185	H	1.665708	-1.175089	0.710522
H186	H	2.165708	-0.675089	1.210522
H187	H	1.356842	-0.841195	1.280605
H188	H	1.856842	-0.341195	1.780605
H189	H	1.595223	-1.392760	0.675049
H190	H	2.095223	-0.892760	1.175049
