data_functionalizedCrystal
_audit_creation_method	'MofGen! by Chris Wilmer'
_symmetry_space_group_name_H-M	'P1'
_symmetry_Int_Tables_number	1
_symmetry_cell_setting	triclinic
loop_
_symmetry_equiv_pos_as_xyz
  x,y,z
_cell_length_a	12.759401
_cell_length_b	12.759394
_cell_length_c	12.759393
_cell_angle_alpha	90.030600
_cell_angle_beta	90.018496
_cell_angle_gamma	90.014017
loop_
_atom_site_label
_atom_site_type_symbol
_atom_site_fract_x
_atom_site_fract_y
_atom_site_fract_z
Zn1	Zn	1.606262	-0.418200	0.593988
Zn2	Zn	1.606158	-0.593919	0.418311
Zn3	Zn	1.430564	-0.418255	0.418328
Zn4	Zn	1.430555	-0.593838	0.593953
O5	O	1.518385	-0.506053	0.506145
O6	O	1.753269	-0.441520	0.570692
O7	O	1.582826	-0.570674	0.271293
O8	O	1.453917	-0.271227	0.441651
O9	O	1.753193	-0.570620	0.441623
O10	O	1.583002	-0.271186	0.570708
O11	O	1.453817	-0.441614	0.271305
O12	O	1.283541	-0.441536	0.441617
O13	O	1.453902	-0.570482	0.740979
O14	O	1.283535	-0.570536	0.570648
O15	O	1.582993	-0.441442	0.741005
O16	O	1.582817	-0.740929	0.441589
O17	O	1.453802	-0.740870	0.570632
C18	C	1.245417	-0.506034	0.506131
C19	C	1.128641	-0.506051	0.506150
C20	C	1.518326	-0.779021	0.506128
C21	C	1.518397	-0.895797	0.506156
C22	C	1.073803	-0.573329	0.573225
C23	C	0.964079	-0.573342	0.573236
C24	C	0.964040	-0.438796	0.439088
C25	C	1.073762	-0.438779	0.439083
C26	C	1.128681	-0.640601	0.640292
C27	C	1.073843	-0.707885	0.707372
C28	C	0.964119	-0.707898	0.707383
C29	C	0.909233	-0.640627	0.640315
C30	C	1.652713	-0.895597	0.640643
C31	C	1.719903	-0.950358	0.707895
C32	C	1.719966	-1.060079	0.707918
C33	C	1.652828	-1.115043	0.640684
C34	C	1.585637	-1.060282	0.573432
C35	C	1.585584	-0.950558	0.573414
C36	C	1.451318	-1.060482	0.438951
C37	C	1.451260	-0.950761	0.438921
C38	C	1.384181	-1.115446	0.371717
C39	C	1.316994	-1.060685	0.304458
C40	C	1.316935	-0.950957	0.304437
C41	C	1.384069	-0.896000	0.371669
C42	C	1.792418	-0.506073	0.506160
C43	C	1.909194	-0.506082	0.506166
C44	C	1.518458	-0.505947	0.780179
C45	C	1.518489	-0.505902	0.896955
C46	C	1.518472	-0.232020	0.506186
C47	C	1.518509	-0.115243	0.506203
C48	C	1.518372	-0.506083	0.233178
C49	C	1.518544	-0.505832	0.116402
C50	C	1.585716	-0.438704	0.951833
C51	C	1.585741	-0.438666	1.061557
C52	C	1.451310	-0.573033	1.061517
C53	C	1.451280	-0.573065	0.951795
C54	C	1.652926	-0.371541	0.896993
C55	C	1.720159	-0.304339	0.951871
C56	C	1.720184	-0.304301	1.061595
C57	C	1.652976	-0.371465	1.116442
H58	H	1.218024	-0.640599	0.640288
H59	H	1.384232	-1.204787	0.371744
N60	N	1.652901	-1.233384	0.640708
H61	H	1.580837	-1.259863	0.659968
H62	H	1.705700	-1.259641	0.693508
N63	N	1.652664	-0.777255	0.640612
H64	H	1.633311	-0.750782	0.712663
H65	H	1.599923	-0.750987	0.587760
H66	H	1.118412	-0.383987	0.384472
N67	N	1.244590	-1.119961	0.231944
H68	H	1.195905	-1.165489	0.274612
H69	H	1.287412	-1.165429	0.183320
N70	N	1.792432	-1.119158	0.780445
H71	H	1.749733	-1.164681	0.829102
H72	H	1.834942	-1.067635	0.822969
H73	H	1.262216	-0.906376	0.249677
H74	H	1.396522	-0.627767	0.907112
N75	N	1.384014	-0.777658	0.371638
H76	H	1.436740	-0.751153	0.424432
H77	H	1.311886	-0.751349	0.390859
N78	N	0.904975	-0.780467	0.779729
H79	H	0.859430	-0.829105	0.736947
H80	H	0.859535	-0.737767	0.828485
N81	N	1.133034	-0.780433	0.779712
H82	H	1.210864	-0.770220	0.769526
H83	H	1.113836	-0.855449	0.763228
N84	N	0.904844	-0.366265	0.366736
H85	H	0.859329	-0.317636	0.409507
H86	H	0.859369	-0.409005	0.318000
N87	N	0.790888	-0.640629	0.640335
H88	H	0.764473	-0.693453	0.693008
H89	H	0.764506	-0.659826	0.568197
H90	H	1.652915	-0.371567	0.807651
N91	N	1.792305	-0.891078	0.780419
H92	H	1.782073	-0.813260	0.770203
H93	H	1.867358	-0.910208	0.764132
N94	N	1.792655	-0.231910	0.892723
H95	H	1.782447	-0.242136	0.814887
H96	H	1.867681	-0.248282	0.911917
H97	H	1.774921	-0.249574	1.106273
H98	H	1.652989	-0.371417	1.205787
N99	N	1.378825	-0.645458	1.120682
H100	H	1.421514	-0.694136	1.166199
H101	H	1.336236	-0.687965	1.069209
