data_functionalizedCrystal
_audit_creation_method	'MofGen! by Chris Wilmer'
_symmetry_space_group_name_H-M	'P1'
_symmetry_Int_Tables_number	1
_symmetry_cell_setting	triclinic
loop_
_symmetry_equiv_pos_as_xyz
  x,y,z
_cell_length_a	14.519731
_cell_length_b	13.596369
_cell_length_c	16.109301
_cell_angle_alpha	89.998185
_cell_angle_beta	96.424833
_cell_angle_gamma	90.006024
loop_
_atom_site_label
_atom_site_type_symbol
_atom_site_fract_x
_atom_site_fract_y
_atom_site_fract_z
O1	O	1.223626	0.081797	-0.109064
O2	O	0.955124	0.081799	-0.121880
O3	O	1.096751	0.081788	0.005545
O4	O	1.081999	0.081808	-0.236490
O5	O	1.096733	-0.081795	0.005538
O6	O	0.955107	-0.081784	-0.121887
O7	O	1.223608	-0.081786	-0.109071
Zn8	Zn	1.089355	-0.107758	-0.115480
Zn9	Zn	1.089378	0.107770	-0.115471
O10	O	1.081981	-0.081775	-0.236497
C11	C	0.920757	0.000007	-0.121283
C12	C	0.818381	0.000008	-0.119484
C13	C	0.735240	0.000012	-0.118022
C14	C	0.630935	0.000012	-0.116195
C15	C	0.547799	0.000012	-0.114745
C16	C	0.443487	0.000014	-0.112918
N17	N	1.089346	-0.254849	-0.115486
C18	C	1.089350	-0.343847	-0.115488
C19	C	1.089359	-0.455499	-0.115482
C20	C	1.089371	-0.544489	-0.115473
C21	C	1.089382	-0.656148	-0.115468
C22	C	1.257975	0.000007	-0.109668
C23	C	1.360352	0.000013	-0.111468
C24	C	1.096145	-0.000004	0.036518
C25	C	1.094353	-0.000006	0.128816
N26	N	1.089394	0.254862	-0.115459
C27	C	1.082588	0.000019	-0.267469
C28	C	1.084379	0.000027	-0.359768
C29	C	1.174226	0.000009	0.350945
C30	C	1.172535	0.000017	0.437668
C31	C	1.004500	0.000015	0.418097
C32	C	1.006192	0.000014	0.331375
C33	C	1.091057	0.000006	0.297802
C34	C	1.087675	0.000015	0.471247
C35	C	1.085842	0.000024	0.565276
C36	C	1.092891	-0.000001	0.203766
H37	H	1.243329	0.000005	0.323613
H38	H	1.240260	0.000022	0.480935
H39	H	0.935405	0.000019	0.445443
H40	H	0.938461	0.000014	0.288103
