data_functionalizedCrystal
_audit_creation_method	'MofGen! by Chris Wilmer'
_symmetry_space_group_name_H-M	'P1'
_symmetry_Int_Tables_number	1
_symmetry_cell_setting	triclinic
loop_
_symmetry_equiv_pos_as_xyz
  x,y,z
_cell_length_a	31.640172
_cell_length_b	31.640172
_cell_length_c	17.917603
_cell_angle_alpha	63.027999
_cell_angle_beta	89.997458
_cell_angle_gamma	59.994337
loop_
_atom_site_label
_atom_site_type_symbol
_atom_site_fract_x
_atom_site_fract_y
_atom_site_fract_z
Zr1	Zr	0.409579	0.457781	-0.094026
O2	O	0.345028	0.540082	-0.208255
O3	O	0.429370	0.371402	-0.058991
O4	O	0.433209	0.451891	-0.208236
O5	O	0.338158	0.465661	0.058696
O6	O	0.502766	0.451884	-0.208240
O7	O	0.341189	0.459593	-0.059011
O8	O	0.495897	0.307904	0.058731
O9	O	0.345026	0.609641	-0.208275
O10	O	0.489717	0.408436	-0.044074
O11	O	0.435545	0.412970	0.043773
O12	O	0.440066	0.507735	-0.131944
O13	O	0.385895	0.512269	-0.044097
Zr14	Zr	0.515679	0.467447	0.093695
Zr15	Zr	0.520514	0.457769	-0.094034
Zr16	Zr	0.404745	0.467459	0.093702
Zr17	Zr	0.409575	0.568719	-0.094058
Zr18	Zr	0.515683	0.356508	0.093727
O19	O	0.495889	0.553825	0.058660
O20	O	0.502763	0.540065	-0.208266
O21	O	0.338155	0.553842	0.058670
O22	O	0.580230	0.385146	0.207924
O23	O	0.587104	0.371385	-0.059002
O24	O	0.422496	0.385163	0.207935
O25	O	0.587101	0.459567	-0.059027
O26	O	0.492049	0.473337	0.207904
O27	O	0.422493	0.473344	0.207909
O28	O	0.584070	0.465635	0.058679
O29	O	0.433204	0.609631	-0.208281
O30	O	0.492055	0.315596	0.207950
O31	O	0.580233	0.315587	0.207944
O32	O	0.584075	0.307894	0.058725
O33	O	0.341183	0.617333	-0.059056
O34	O	0.429361	0.617324	-0.059062
O35	O	0.485192	0.417493	0.131612
O36	O	0.539364	0.412959	0.043766
O37	O	0.489713	0.512258	-0.044104
O38	O	0.435542	0.516792	0.043743
C39	C	0.462634	0.323846	-0.000125
C40	C	0.462636	0.276750	-0.000112
C41	C	0.425980	0.019733	-0.065036
C42	C	0.425977	-0.157250	-0.065060
O43	O	0.394820	-0.150384	-0.120240
N44	N	0.462627	-0.214362	-0.000205
C45	C	0.499282	-0.227229	0.064657
O46	O	0.530459	-0.279868	0.119814
C47	C	0.499288	-0.050247	0.064677
C48	C	0.462632	0.006865	-0.000177
C49	C	0.389328	0.076843	-0.129885
C50	C	0.389327	0.121086	-0.129875
C51	C	0.425979	0.108218	-0.065017
C52	C	0.462631	0.051108	-0.000168
C53	C	0.535945	-0.063115	0.129534
C54	C	0.535944	-0.018864	0.129532
C55	C	0.499288	0.038249	0.064678
C56	C	0.499283	0.082484	0.064700
N57	N	0.462633	0.139596	-0.000154
C58	C	0.425981	0.152464	-0.065013
C59	C	0.499276	-0.320145	0.064643
C60	C	0.499275	-0.364390	0.064639
C61	C	0.425970	-0.294407	-0.065079
C62	C	0.425969	-0.250161	-0.065071
C63	C	0.462626	-0.263032	-0.000212
C64	C	0.425982	0.245374	-0.064988
C65	C	0.425984	0.289617	-0.064970
C66	C	0.499290	0.219631	0.064744
C67	C	0.499288	0.175391	0.064730
C68	C	0.462631	0.188267	-0.000143
O69	O	0.530427	0.075661	0.119846
O70	O	0.394816	0.205105	-0.120173
C71	C	0.425981	-0.024510	-0.065045
C72	C	0.462633	-0.081620	-0.000196
C73	C	0.499285	-0.094487	0.064662
C74	C	0.462631	-0.125865	-0.000200
C75	C	0.425979	-0.112998	-0.065058
C76	C	0.389329	-0.055885	-0.129913
C77	C	0.389329	-0.011643	-0.129903
C78	C	0.535935	-0.151600	0.129517
C79	C	0.535932	-0.195840	0.129503
C80	C	0.499280	-0.182973	0.064644
C81	C	0.323867	0.462628	-0.000156
C82	C	0.276773	0.462634	-0.000153
C83	C	-0.013563	0.459260	-0.065009
C84	C	-0.190549	0.459252	-0.065016
O85	O	-0.212002	0.456384	-0.120143
N86	N	-0.214349	0.462596	-0.000171
C87	C	-0.193899	0.465939	0.064683
O88	O	-0.218201	0.468777	0.119842
C89	C	-0.016911	0.465943	0.064692
C90	C	0.006884	0.462604	-0.000162
C91	C	0.010233	0.455921	-0.129858
C92	C	0.054475	0.455926	-0.129858
C93	C	0.074922	0.459270	-0.065010
C94	C	0.051127	0.462609	-0.000162
C95	C	0.003541	0.469281	0.129549
C96	C	0.047791	0.469280	0.129547
C97	C	0.071587	0.465942	0.064693
C98	C	0.115816	0.465958	0.064685
N99	N	0.139616	0.462614	-0.000160
C100	C	0.119169	0.459270	-0.065007
C101	C	-0.286820	0.465938	0.064672
C102	C	-0.331068	0.465938	0.064669
C103	C	-0.327714	0.459250	-0.065029
C104	C	-0.283468	0.459254	-0.065029
C105	C	-0.263020	0.462594	-0.000172
C106	C	0.212081	0.459282	-0.065004
C107	C	0.256326	0.459290	-0.065001
C108	C	0.252970	0.465974	0.064700
C109	C	0.208728	0.465969	0.064694
C110	C	0.188285	0.462621	-0.000162
O111	O	0.137300	0.468819	0.119789
O112	O	0.143485	0.456420	-0.120147
C113	C	-0.057805	0.459255	-0.065009
C114	C	-0.081601	0.462594	-0.000161
C115	C	-0.061154	0.465938	0.064687
C116	C	-0.125848	0.462594	-0.000164
C117	C	-0.146294	0.459250	-0.065012
C118	C	-0.122494	0.455906	-0.129856
C119	C	-0.078252	0.455911	-0.129857
C120	C	-0.084954	0.469282	0.129532
C121	C	-0.129197	0.469277	0.129526
C122	C	-0.149644	0.465933	0.064679
C123	C	0.601391	0.462599	-0.000175
C124	C	0.648486	0.462594	-0.000178
C125	C	0.468676	0.450508	-0.234985
C126	C	0.470728	0.446400	-0.314681
C127	C	0.462625	0.601381	-0.000206
C128	C	0.462623	0.648477	-0.000220
C129	C	0.474488	0.438895	-0.460611
C130	C	0.450772	0.486330	-0.539723
C131	C	0.452864	0.482154	-0.620924
C132	C	0.472397	0.443070	-0.379402
C133	C	0.456582	0.474719	0.234654
C134	C	0.454530	0.478828	0.314350
C135	C	0.601396	0.323832	-0.000135
C136	C	0.648492	0.276730	-0.000124
C137	C	0.456587	0.335952	0.234694
C138	C	0.454536	0.292964	0.314404
C139	C	0.595349	0.335937	0.234685
C140	C	0.640393	0.292944	0.314391
C141	C	0.329910	0.589290	-0.235016
C142	C	0.284866	0.632283	-0.314722
C143	C	0.323863	0.601396	-0.000196
C144	C	0.276766	0.648497	-0.000207
C145	C	0.468671	0.589276	-0.235026
C146	C	0.470722	0.632264	-0.314735
C147	C	0.644694	0.252250	-0.045979
C148	C	0.688942	0.207998	-0.045986
C149	C	0.736988	0.188225	-0.000134
C150	C	0.740785	0.212711	0.045722
C151	C	0.696537	0.256964	0.045724
C152	C	0.479488	0.275138	0.397695
C153	C	0.477559	0.234753	0.472598
C154	C	0.450681	0.212191	0.464207
C155	C	0.425726	0.230022	0.380906
C156	C	0.427652	0.270409	0.306006
C157	C	0.689827	0.270388	0.305967
C158	C	0.732155	0.229997	0.380852
C159	C	0.725048	0.212161	0.464160
C160	C	0.675608	0.234722	0.472583
C161	C	0.633281	0.275115	0.397699
C162	C	0.235431	0.654845	-0.306298
C163	C	0.193103	0.695250	-0.381183
C164	C	0.200211	0.713088	-0.464492
C165	C	0.249651	0.690524	-0.472914
C166	C	0.291977	0.650124	-0.398030
C167	C	0.280565	0.672982	0.045640
C168	C	0.236317	0.717245	0.045627
C169	C	0.188272	0.737019	-0.000228
C170	C	0.184475	0.712532	-0.046080
C171	C	0.228722	0.668273	-0.046072
C172	C	0.497605	0.654812	-0.306316
C173	C	0.499542	0.695198	-0.381204
C174	C	0.474592	0.713038	-0.464510
C175	C	0.447709	0.690485	-0.472928
C176	C	0.445775	0.650097	-0.398040
H177	H	0.359481	0.087330	-0.182705
C178	C	0.200267	0.682588	-0.205081
C179	C	0.227612	0.635248	-0.214728
H180	H	0.195441	0.670491	-0.148548
H181	H	0.167990	0.709870	-0.248474
H182	H	0.218832	0.699501	-0.211664
H183	H	0.209047	0.618337	-0.208151
H184	H	0.259895	0.607956	-0.171323
C185	C	0.112698	0.779551	-0.412154
C186	C	0.138763	0.720042	-0.371909
H187	H	0.079153	0.794854	-0.406421
H188	H	0.110868	0.795959	-0.472481
H189	H	0.130392	0.788197	-0.384841
H190	H	0.121071	0.711396	-0.399226
H191	H	0.140590	0.703629	-0.311571
H192	H	0.593031	0.293475	0.404570
C193	C	0.363610	0.349216	0.168560
C194	C	0.400228	0.289995	0.214452
H195	H	0.346677	0.361304	0.112042
H196	H	0.379891	0.368431	0.162829
H197	H	0.339421	0.358075	0.199681
H198	H	0.424419	0.281136	0.183334
H199	H	0.383946	0.270773	0.220179
C200	C	0.427113	0.805761	-0.596762
C201	C	0.476717	0.757437	-0.546824
H202	H	0.428426	0.833169	-0.647578
H203	H	0.411738	0.822006	-0.562886
H204	H	0.407536	0.794880	-0.613701
H205	H	0.496293	0.768317	-0.529879
H206	H	0.492099	0.741190	-0.580707
H207	H	0.669828	0.220193	0.540423
H208	H	0.165741	0.745985	-0.525460
C209	C	0.004700	0.475870	0.257764
C210	C	-0.022604	0.472943	0.200848
H211	H	-0.011438	0.478125	0.301788
H212	H	0.005441	0.508892	0.225727
H213	H	0.038613	0.442571	0.284390
H214	H	-0.056516	0.506244	0.174217
H215	H	-0.023350	0.439917	0.232890
C216	C	0.209863	0.750352	-0.628432
C217	C	0.257458	0.710131	-0.564492
H218	H	0.214683	0.762451	-0.684968
H219	H	0.191318	0.782454	-0.621864
H220	H	0.191313	0.733422	-0.621833
H221	H	0.276007	0.727062	-0.571087
H222	H	0.276010	0.678023	-0.571063
C223	C	0.343609	0.649509	-0.496238
C224	C	0.346316	0.625319	-0.407299
H225	H	0.377155	0.634193	-0.501963
H226	H	0.325930	0.689875	-0.523536
H227	H	0.325913	0.640854	-0.523528
H228	H	0.364009	0.633977	-0.380010
H229	H	0.364003	0.584943	-0.379990
H230	H	0.359485	-0.045415	-0.182721
C231	C	0.353513	-0.185443	-0.193290
C232	C	0.385681	-0.187385	-0.136366
H233	H	0.328642	-0.146687	-0.237309
H234	H	0.336948	-0.202642	-0.161257
H235	H	0.373133	-0.205675	-0.219919
H236	H	0.366061	-0.167156	-0.109731
H237	H	0.402246	-0.170178	-0.168403
H238	H	0.449117	0.179306	0.525203
C239	C	0.327353	0.682101	0.136276
C240	C	0.333373	0.651253	0.096048
H241	H	0.359954	0.668691	0.167391
H242	H	0.307948	0.676890	0.175853
H243	H	0.310080	0.721642	0.092861
H244	H	0.350643	0.611712	0.139463
H245	H	0.352786	0.656459	0.056467
H246	H	0.239419	0.737175	0.082968
C247	C	0.497628	0.174947	0.628135
C248	C	0.504994	0.215157	0.564155
H249	H	0.514562	0.162854	0.684655
H250	H	0.511176	0.142840	0.621584
H251	H	0.462147	0.191883	0.621562
H252	H	0.540475	0.198220	0.570724
H253	H	0.491448	0.247270	0.570708
C254	C	0.399787	0.165985	0.455031
C255	C	0.396196	0.205205	0.371692
H256	H	0.381564	0.150657	0.449342
H257	H	0.385594	0.184860	0.486121
H258	H	0.434641	0.135833	0.486143
H259	H	0.361342	0.235359	0.340583
H260	H	0.410387	0.186330	0.340589
C261	C	0.153124	0.802974	0.049709
C262	C	0.139637	0.785666	-0.000224
H263	H	0.123099	0.833003	0.049719
H264	H	0.173769	0.816209	0.025147
H265	H	0.171642	0.771448	0.108132
H266	H	0.121122	0.817190	-0.058649
H267	H	0.118983	0.772432	0.024336
H268	H	0.145350	0.728639	-0.083414
H269	H	0.225622	0.648338	-0.083403
C270	C	0.455948	0.697046	-0.610359
C271	C	0.420282	0.710105	-0.564505
H272	H	0.439013	0.709165	-0.666898
H273	H	0.480777	0.656872	-0.579244
H274	H	0.472236	0.716254	-0.616044
H275	H	0.403997	0.690893	-0.558814
H276	H	0.395444	0.750286	-0.595628
C277	C	0.812573	0.145691	0.411873
C278	C	0.786498	0.205203	0.371593
H279	H	0.846122	0.130387	0.406161
H280	H	0.794894	0.137028	0.384576
H281	H	0.814392	0.129297	0.472203
H282	H	0.784676	0.221597	0.311260
H283	H	0.804182	0.213870	0.398886
H284	H	0.695624	0.284904	0.238139
C285	C	0.393372	-0.331164	-0.122587
C286	C	0.385645	-0.280265	-0.136315
H287	H	0.368471	-0.322433	-0.166551
H288	H	0.390380	-0.351283	-0.066575
H289	H	0.426506	-0.354289	-0.125342
H290	H	0.352512	-0.257141	-0.133554
H291	H	0.388632	-0.260137	-0.192341
H292	H	0.396134	0.255866	-0.117815
H293	H	0.517922	0.640294	-0.238490
C294	C	0.801077	0.189150	0.546430
C295	C	0.771580	0.167757	0.546466
H296	H	0.829807	0.161734	0.597237
H297	H	0.781061	0.223667	0.546435
H298	H	0.812376	0.196548	0.495598
H299	H	0.760278	0.160363	0.597295
H300	H	0.791600	0.133229	0.546469
H301	H	0.521432	0.713557	-0.374333
H302	H	0.496361	0.395153	-0.453866
C303	C	0.419757	0.586127	-0.323987
C304	C	0.416200	0.625337	-0.407303
H305	H	0.401494	0.570847	-0.329712
H306	H	0.405589	0.604996	-0.292881
H307	H	0.454602	0.555941	-0.292870
H308	H	0.381355	0.655525	-0.438417
H309	H	0.430365	0.606468	-0.438422
H310	H	0.359483	0.167586	-0.182693
C311	C	0.353525	0.354343	-0.193198
C312	C	0.385691	0.352398	-0.136266
H313	H	0.328654	0.393099	-0.237214
H314	H	0.336961	0.337141	-0.161170
H315	H	0.373146	0.334114	-0.219831
H316	H	0.366071	0.372623	-0.109628
H317	H	0.402257	0.369607	-0.168299
C318	C	0.139829	0.504279	-0.183513
C319	C	0.189613	0.455605	-0.136296
H320	H	0.125957	0.502009	-0.227524
H321	H	0.140440	0.537573	-0.210150
H322	H	0.119325	0.506260	-0.144888
H323	H	0.210117	0.453626	-0.174920
H324	H	0.189005	0.422302	-0.109658
H325	H	0.605577	0.268347	-0.083328
C326	C	0.651737	0.326880	0.086479
C327	C	0.700717	0.283862	0.096147
H328	H	0.654321	0.343484	0.117609
H329	H	0.632772	0.310786	0.109123
H330	H	0.634904	0.355548	0.026148
H331	H	0.717548	0.255192	0.156478
H332	H	0.719689	0.299956	0.073507
H333	H	0.773013	0.152191	-0.000142
C334	C	0.535092	-0.435426	0.218450
C335	C	0.539564	-0.427166	0.135935
H336	H	0.559970	-0.474180	0.262464
H337	H	0.501948	-0.426796	0.221134
H338	H	0.540335	-0.410909	0.227717
H339	H	0.534318	-0.451680	0.126665
H340	H	0.572717	-0.435802	0.133249
C341	C	0.515142	-0.308769	0.183158
C342	C	0.539569	-0.334299	0.135949
H343	H	0.540016	-0.317506	0.227178
H344	H	0.495528	-0.323060	0.209781
H345	H	0.493321	-0.268422	0.144529
H346	H	0.561387	-0.374646	0.174577
H347	H	0.559192	-0.320010	0.109325
H348	H	0.565794	-0.109613	0.182344
H349	H	0.685840	0.188068	-0.083327
H350	H	0.565795	-0.029350	0.182349
C351	C	0.831629	0.146952	0.086443
C352	C	0.793599	0.190967	0.096129
H353	H	0.864234	0.133524	0.117571
H354	H	0.829296	0.161113	0.026117
H355	H	0.827150	0.116362	0.109087
H356	H	0.798075	0.221559	0.073479
H357	H	0.795933	0.176806	0.156467
C358	C	0.488102	0.327758	0.452774
C359	C	0.509027	0.299942	0.406927
H360	H	0.506334	0.343075	0.458471
H361	H	0.490529	0.301151	0.509292
H362	H	0.453253	0.357919	0.421639
H363	H	0.543875	0.269778	0.438066
H364	H	0.506605	0.326551	0.350399
C365	C	0.515148	0.087256	0.183220
C366	C	0.539575	0.112610	0.136022
H367	H	0.540022	0.048500	0.227232
H368	H	0.493326	0.088587	0.144589
H369	H	0.495535	0.107484	0.209860
H370	H	0.559184	0.092385	0.109376
H371	H	0.561406	0.111276	0.174659
C372	C	0.531837	0.256393	0.122329
C373	C	0.539580	0.205494	0.136030
H374	H	0.556715	0.247665	0.166333
H375	H	0.498693	0.279523	0.125028
H376	H	0.534862	0.276507	0.066338
H377	H	0.536551	0.185382	0.192019
H378	H	0.572732	0.182355	0.133340
H379	H	0.359479	0.034858	-0.182713
H380	H	0.565782	-0.162086	0.182333
C381	C	0.571760	-0.266886	0.283318
C382	C	0.576229	-0.258619	0.200798
H383	H	0.596641	-0.305641	0.327326
H384	H	0.538617	-0.258262	0.286006
H385	H	0.577000	-0.242369	0.292589
H386	H	0.570985	-0.283134	0.191525
H387	H	0.609379	-0.267250	0.198107
C388	C	0.297250	0.404706	-0.132292
C389	C	0.282484	0.455615	-0.136289
H390	H	0.313401	0.402436	-0.176297
H391	H	0.267974	0.404229	-0.141571
H392	H	0.320398	0.372926	-0.076300
H393	H	0.259334	0.487395	-0.192279
H394	H	0.311764	0.456097	-0.127017
C395	C	0.053336	0.449307	-0.258047
C396	C	0.080632	0.452247	-0.201140
H397	H	0.069486	0.447031	-0.302051
H398	H	0.019429	0.482605	-0.284693
H399	H	0.052590	0.416286	-0.225992
H400	H	0.081376	0.485271	-0.233195
H401	H	0.114548	0.418946	-0.174493
H402	H	-0.264096	0.456535	-0.117838
C403	C	-0.013131	0.403160	-0.161872
C404	C	-0.012236	0.452246	-0.201148
H405	H	-0.026998	0.400893	-0.205892
H406	H	-0.033642	0.405153	-0.123269
H407	H	0.020645	0.370142	-0.129830
H408	H	-0.046012	0.485264	-0.233186
H409	H	0.008275	0.450257	-0.239767
H410	H	-0.350443	0.468665	0.117472
C411	C	-0.394051	0.456269	-0.122600
C412	C	-0.350191	0.455567	-0.136305
H413	H	-0.407924	0.453988	-0.166595
H414	H	-0.418570	0.490804	-0.125312
H415	H	-0.385400	0.424485	-0.066603
H416	H	-0.358842	0.487354	-0.192300
H417	H	-0.325667	0.421028	-0.133601
H418	H	-0.270175	0.468658	0.117488
H419	H	0.064439	0.471998	0.182364
H420	H	0.269624	0.468699	0.117496
C421	C	0.132576	0.518725	0.096687
C422	C	0.182566	0.469644	0.135976
H423	H	0.116430	0.520990	0.140699
H424	H	0.114071	0.516726	0.058077
H425	H	0.133325	0.551746	0.064650
H426	H	0.181816	0.436623	0.168008
H427	H	0.201075	0.471638	0.174601
C428	C	-0.188831	0.452926	-0.187427
C429	C	-0.144973	0.452226	-0.201135
H430	H	-0.202706	0.450648	-0.231424
H431	H	-0.213350	0.487458	-0.190132
H432	H	-0.180179	0.421139	-0.131432
H433	H	-0.153626	0.484016	-0.257128
H434	H	-0.120450	0.417690	-0.198439
H435	H	-0.058880	0.453192	-0.182667
H436	H	-0.068310	0.472004	0.182339
C437	C	-0.128051	0.475878	0.257739
C438	C	-0.155349	0.472946	0.200823
H439	H	-0.144193	0.478135	0.301759
H440	H	-0.127312	0.508901	0.225701
H441	H	-0.094138	0.442580	0.284370
H442	H	-0.189262	0.506246	0.174187
H443	H	-0.156094	0.439919	0.232866
C444	C	0.424844	0.538145	-0.465460
C445	C	0.421231	0.545387	-0.548838
H446	H	0.406603	0.574603	-0.471086
H447	H	0.459695	0.517472	-0.434377
H448	H	0.410677	0.517455	-0.434378
H449	H	0.435402	0.566074	-0.579918
H450	H	0.386373	0.566069	-0.579934
