data_functionalizedCrystal
_audit_creation_method	'MofGen! by Chris Wilmer'
_symmetry_space_group_name_H-M	'P1'
_symmetry_Int_Tables_number	1
_symmetry_cell_setting	triclinic
loop_
_symmetry_equiv_pos_as_xyz
  x,y,z
_cell_length_a	18.215407
_cell_length_b	16.625546
_cell_length_c	18.215399
_cell_angle_alpha	90.029176
_cell_angle_beta	90.017813
_cell_angle_gamma	90.016981
loop_
_atom_site_label
_atom_site_type_symbol
_atom_site_fract_x
_atom_site_fract_y
_atom_site_fract_z
Zn1	Zn	1.125084	-0.321128	0.416070
Zn2	Zn	1.625084	0.178872	0.916070
Zn3	Zn	1.124998	-0.455968	0.293001
Zn4	Zn	1.624998	0.044032	0.793001
Zn5	Zn	1.002017	-0.321140	0.293022
Zn6	Zn	1.502017	0.178860	0.793022
Zn7	Zn	1.001988	-0.455909	0.416030
Zn8	Zn	1.501988	0.044091	0.916030
O9	O	1.063522	-0.388536	0.354531
O10	O	1.563522	0.111464	0.854531
O11	O	1.228057	-0.339034	0.399753
O12	O	1.728057	0.160966	0.899753
O13	O	1.108660	-0.438113	0.190019
O14	O	1.608660	0.061887	0.690019
O15	O	1.018390	-0.208306	0.309369
O16	O	1.518390	0.291694	0.809369
O17	O	1.227994	-0.438101	0.309334
O18	O	1.727994	0.061899	0.809334
O19	O	1.108807	-0.208297	0.399773
O20	O	1.608807	0.291703	0.899773
O21	O	1.018306	-0.339055	0.190035
O22	O	1.518306	0.160945	0.690035
O23	O	0.899029	-0.338998	0.309331
O24	O	1.399029	0.161002	0.809331
O25	O	1.018341	-0.438000	0.519020
O26	O	1.518341	0.062000	1.019020
O27	O	0.899007	-0.438013	0.399705
O28	O	1.399007	0.061987	0.899705
O29	O	1.108779	-0.338977	0.519049
O30	O	1.608779	0.161023	1.019049
O31	O	1.108632	-0.568793	0.309296
O32	O	1.608632	-0.068793	0.809296
O33	O	1.018257	-0.568750	0.399685
O34	O	1.518257	-0.068750	0.899685
C35	C	0.872315	-0.388501	0.354516
C36	C	1.372315	0.111499	0.854516
C37	C	0.790517	-0.388505	0.354528
C38	C	1.290517	0.111495	0.854528
C39	C	0.525486	-0.337052	0.401686
C40	C	1.025486	0.162948	0.901686
C41	C	0.602345	-0.337039	0.401684
C42	C	1.102345	0.162961	0.901684
C43	C	0.602298	-0.440047	0.307391
C44	C	1.102298	0.059953	0.807391
C45	C	0.525441	-0.440064	0.307398
C46	C	1.025441	0.059936	0.807398
C47	C	0.487037	-0.388561	0.354544
C48	C	0.987037	0.111439	0.854544
C49	C	0.640753	-0.388532	0.354535
C50	C	1.140753	0.111468	0.854535
C51	C	0.724087	-0.388518	0.354532
C52	C	1.224087	0.111482	0.854532
C53	C	0.403698	-0.388576	0.354548
C54	C	0.903698	0.111424	0.854548
C55	C	1.063452	-0.598027	0.354500
C56	C	1.563452	-0.098027	0.854500
C57	C	1.063490	-0.687648	0.354511
C58	C	1.563490	-0.187648	0.854511
C59	C	1.063618	-1.015824	0.354588
C60	C	1.563618	-0.515824	0.854588
C61	C	1.063580	-0.924516	0.354569
C62	C	1.563580	-0.424516	0.854569
C63	C	1.063553	-0.851739	0.354549
C64	C	1.563553	-0.351739	0.854549
C65	C	1.063516	-0.760425	0.354531
C66	C	1.563516	-0.260425	0.854531
C67	C	1.255475	-0.388573	0.354546
C68	C	1.755475	0.111427	0.854546
C69	C	1.337273	-0.388588	0.354552
C70	C	1.837273	0.111412	0.854552
C71	C	1.063567	-0.388481	0.546484
C72	C	1.563567	0.111519	1.046484
C73	C	1.063586	-0.388457	0.628283
C74	C	1.563586	0.111543	1.128283
C75	C	1.063612	-0.178228	0.354578
C76	C	1.563612	0.321772	0.854578
C77	C	1.063650	-0.088606	0.354598
C78	C	1.563650	0.411394	0.854598
C79	C	1.063519	-0.388534	0.163324
C80	C	1.563519	0.111466	0.663324
C81	C	1.063643	-0.388330	0.081526
C82	C	1.563643	0.111670	0.581526
C83	C	1.110694	-0.336848	0.816493
C84	C	1.610694	0.163152	1.316493
C85	C	1.110703	-0.336824	0.893352
C86	C	1.610703	0.163176	1.393352
C87	C	1.016530	-0.439942	0.893310
C88	C	1.516530	0.060058	1.393310
C89	C	1.016518	-0.439961	0.816453
C90	C	1.516518	0.060039	1.316453
C91	C	1.063604	-0.388415	0.778046
C92	C	1.563604	0.111585	1.278046
C93	C	1.063625	-0.388373	0.931762
C94	C	1.563625	0.111627	1.431762
C95	C	1.063634	-0.388347	1.015096
C96	C	1.563634	0.111653	1.515096
C97	C	1.063594	-0.388439	0.694707
C98	C	1.563594	0.111561	1.194707
H99	H	0.494220	-0.295115	0.440076
H100	H	0.994220	0.204885	0.940076
H101	H	0.978166	-0.481953	0.785149
H102	H	1.478166	0.018047	1.285149
C103	C	0.644636	-0.280370	0.453541
C104	C	1.144636	0.219630	0.953541
N105	N	0.676489	-0.237684	0.492601
N106	N	1.176489	0.262316	0.992601
H107	H	0.633576	-0.481977	0.269004
H108	H	1.133576	0.018023	0.769004
H109	H	0.494135	-0.482014	0.269008
H110	H	0.994135	0.017986	0.769008
C111	C	1.162507	-0.280098	0.935640
C112	C	1.662507	0.219902	1.435640
N113	N	1.201529	-0.237369	0.967491
N114	N	1.701529	0.262631	1.467491
C115	C	0.964736	-0.496638	0.935565
C116	C	1.464736	0.003362	1.435565
N117	N	0.925724	-0.539343	0.967390
N118	N	1.425724	-0.039343	1.467390
C119	C	1.162484	-0.280138	0.774248
C120	C	1.662484	0.219862	1.274248
N121	N	1.201491	-0.237420	0.742432
N122	N	1.701491	0.262580	1.242432
