data_functionalizedCrystal
_audit_creation_method	'MofGen! by Chris Wilmer'
_symmetry_space_group_name_H-M	'P1'
_symmetry_Int_Tables_number	1
_symmetry_cell_setting	triclinic
loop_
_symmetry_equiv_pos_as_xyz
  x,y,z
_cell_length_a	9.065218
_cell_length_b	23.532407
_cell_length_c	8.140239
_cell_angle_alpha	89.991844
_cell_angle_beta	89.997198
_cell_angle_gamma	83.932281
loop_
_atom_site_label
_atom_site_type_symbol
_atom_site_fract_x
_atom_site_fract_y
_atom_site_fract_z
O1	O	1.956283	0.083497	-0.136637
O2	O	1.526661	0.090346	-0.136641
O3	O	1.754427	0.004085	-0.136609
O4	O	1.728517	0.169758	-0.136670
O5	O	1.754415	0.004084	0.136618
O6	O	1.526649	0.090345	0.136586
O7	O	1.956271	0.083496	0.136590
Zn8	Zn	1.741458	0.086921	0.179968
Zn9	Zn	1.741474	0.086922	-0.180020
O10	O	1.728504	0.169757	0.136558
C11	C	1.471701	0.089687	-0.000028
C12	C	1.307955	0.087719	-0.000028
C13	C	1.753761	-0.017136	0.000009
C14	C	1.751778	-0.080368	0.000021
C15	C	1.874123	-0.478573	-0.000068
C16	C	1.872280	-0.537986	-0.000080
O17	O	1.985695	-0.573898	-0.000140
N18	N	1.736873	-0.561607	-0.000080
C19	C	1.603300	-0.525810	-0.000085
O20	O	1.487956	-0.551356	-0.000087
C21	C	1.605144	-0.466397	-0.000084
C22	C	1.740560	-0.442780	-0.000067
C23	C	2.009527	-0.454955	-0.000053
C24	C	2.011370	-0.395546	-0.000037
C25	C	1.877807	-0.359753	-0.000037
C26	C	1.742402	-0.383371	-0.000052
C27	C	1.471573	-0.430601	-0.000100
C28	C	1.473429	-0.371185	-0.000100
C29	C	1.608845	-0.347568	-0.000084
C30	C	1.610682	-0.288169	-0.000035
N31	N	1.746089	-0.264548	-0.000035
C32	C	1.879651	-0.300341	-0.000036
C33	C	1.599437	-0.650581	-0.000089
C34	C	1.597591	-0.709992	-0.000078
C35	C	1.866571	-0.722165	-0.000077
C36	C	1.868416	-0.662752	-0.000076
C37	C	1.734844	-0.626960	-0.000089
C38	C	1.883510	-0.175576	-0.000002
C39	C	1.885340	-0.116160	0.000021
C40	C	1.616360	-0.103993	0.000011
C41	C	1.614529	-0.163403	-0.000003
C42	C	1.748116	-0.199194	-0.000015
O43	O	1.497326	-0.252222	0.000018
O44	O	1.994976	-0.274786	-0.000055
C45	C	2.011231	0.084155	-0.000027
C46	C	2.174977	0.086123	-0.000038
C47	C	1.729170	0.190979	-0.000064
C48	C	1.731154	0.254210	-0.000087
N49	N	1.741457	0.086919	0.425651
N50	N	1.741486	0.086919	-0.425703
H51	H	1.995617	-0.096935	0.000038
H52	H	1.975325	-0.751318	-0.000084
H53	H	1.361303	-0.449820	-0.000123
H54	H	2.118297	-0.484092	-0.000059
H55	H	1.364656	-0.342046	-0.000113
O56	O	1.486665	-0.069194	-0.000284
C57	C	1.332735	0.004991	-0.141806
C58	C	1.479652	-0.034397	-0.141679
H59	H	1.327030	0.033142	-0.256093
H60	H	1.235566	-0.022061	-0.141927
H61	H	1.326887	0.033079	-0.027409
H62	H	1.485644	-0.062493	-0.256057
H63	H	1.576751	-0.007312	-0.141472
O64	O	1.999994	-0.639840	-0.000367
C65	C	2.230499	-0.632101	-0.141873
C66	C	2.081520	-0.658072	-0.141760
H67	H	2.296469	-0.646842	-0.256160
H68	H	2.208978	-0.583486	-0.141985
H69	H	2.296390	-0.646781	-0.027475
H70	H	2.015554	-0.643436	-0.256139
H71	H	2.103146	-0.706684	-0.141563
O72	O	2.013409	-0.210255	0.000066
C73	C	2.280393	-0.216042	-0.000009
C74	C	2.133395	-0.176703	-0.000060
H75	H	2.377439	-0.188931	-0.000145
H76	H	2.286358	-0.244158	0.114359
H77	H	2.286197	-0.244166	-0.114331
H78	H	2.127492	-0.148543	0.114185
H79	H	2.127491	-0.148625	-0.114503
O80	O	2.142823	-0.372543	-0.000262
C81	C	2.301079	-0.312568	-0.141884
C82	C	2.152132	-0.338563	-0.141803
H83	H	2.308667	-0.285099	-0.256324
H84	H	2.308712	-0.285026	-0.027618
H85	H	2.396180	-0.348374	-0.141813
H86	H	2.056945	-0.302794	-0.141931
H87	H	2.144628	-0.366119	-0.256058
O88	O	1.466010	-0.732903	-0.000368
C89	C	1.235513	-0.740623	-0.141879
C90	C	1.384495	-0.714654	-0.141761
H91	H	1.169553	-0.725870	-0.256165
H92	H	1.257031	-0.789239	-0.141995
H93	H	1.169616	-0.725955	-0.027480
H94	H	1.450468	-0.729278	-0.256140
H95	H	1.362872	-0.666042	-0.141559
H96	H	1.490659	-0.621442	-0.000085
H97	H	1.504263	-0.182633	0.000029
