data_functionalizedCrystal
_audit_creation_method	'MofGen! by Chris Wilmer'
_symmetry_space_group_name_H-M	'P1'
_symmetry_Int_Tables_number	1
_symmetry_cell_setting	triclinic
loop_
_symmetry_equiv_pos_as_xyz
  x,y,z
_cell_length_a	12.837943
_cell_length_b	10.489741
_cell_length_c	11.295483
_cell_angle_alpha	94.137284
_cell_angle_beta	85.461227
_cell_angle_gamma	89.684057
loop_
_atom_site_label
_atom_site_type_symbol
_atom_site_fract_x
_atom_site_fract_y
_atom_site_fract_z
O1	O	1.384854	0.324137	-0.099003
O2	O	1.082927	0.307742	-0.099010
O3	O	1.240760	0.131100	-0.098999
O4	O	1.227021	0.500780	-0.099013
O5	O	1.226897	0.146588	0.099051
O6	O	1.069064	0.323231	0.099040
O7	O	1.370991	0.339626	0.099047
Cu8	Cu	1.218762	0.332842	0.117127
Cu9	Cu	1.235156	0.314526	-0.117090
O10	O	1.213158	0.516268	0.099036
C11	C	1.037334	0.309948	0.000014
C12	C	0.922133	0.293430	0.000012
C13	C	0.682657	0.492006	0.000021
C14	C	0.574415	0.476492	0.000020
C15	C	0.597406	0.246889	0.000016
C16	C	0.705648	0.262403	0.000017
C17	C	0.748269	0.384966	0.000018
C18	C	0.856513	0.400478	0.000011
C19	C	0.879501	0.170877	0.000016
C20	C	0.771260	0.155363	0.000014
C21	C	1.232791	0.091198	0.000025
C22	C	1.229686	-0.050774	0.000023
C23	C	1.129262	-0.129987	0.000012
C24	C	1.169867	-0.209242	0.097662
C25	C	1.183558	-0.224485	-0.097600
C26	C	1.270327	-0.128153	0.097754
C27	C	1.284011	-0.143394	-0.097596
C28	C	1.324687	-0.222613	0.000078
C29	C	1.416585	0.337420	0.000020
C30	C	1.531786	0.353937	0.000015
C31	C	1.221127	0.556170	0.000010
C32	C	1.224233	0.698141	0.000004
N33	N	1.207238	0.345726	0.281863
N34	N	1.246688	0.301633	-0.281825
C35	C	1.329641	0.208822	0.531161
C36	C	1.320940	0.218568	0.655824
C37	C	1.181131	0.374956	0.655854
C38	C	1.189832	0.365210	0.531191
C39	C	1.264090	0.282142	0.468849
C40	C	1.272796	0.272403	0.344183
C41	C	1.132982	0.428784	0.344216
C42	C	1.124281	0.438530	0.468879
H43	H	0.717359	0.591801	0.000020
N44	N	1.019885	-0.076263	0.000136
H45	H	1.022804	0.019876	-0.000618
H46	H	0.986711	-0.112810	-0.072863
N47	N	0.503630	0.591926	0.000020
H48	H	0.453073	0.596328	0.073440
H49	H	0.547118	0.671864	-0.000022
N50	N	1.134905	-0.280275	-0.206952
H51	H	1.177255	-0.255232	-0.280705
H52	H	1.133780	-0.376498	-0.206445
N53	N	1.318906	-0.072567	0.207230
H54	H	1.320675	0.023629	0.206580
H55	H	1.276072	-0.097118	0.280834
N56	N	1.409709	0.119221	0.463894
H57	H	1.459619	0.169568	0.412149
H58	H	1.449847	0.074258	0.522347
N59	N	1.105940	-0.247964	0.207025
H60	H	1.032126	-0.214171	0.206957
H61	H	1.104958	-0.344265	0.206555
N62	N	1.347912	-0.104621	-0.206947
H63	H	1.315075	-0.139758	-0.280675
H64	H	1.350081	-0.008301	-0.205605
N65	N	1.434143	-0.276032	0.000145
H66	H	1.477502	-0.250932	-0.072894
H67	H	1.466674	-0.240643	0.073983
H68	H	0.932936	0.083716	0.000006
N69	N	1.391650	0.139502	0.723034
H70	H	1.380547	0.045734	0.701345
H71	H	1.466876	0.161622	0.701286
H72	H	1.333263	0.204769	0.293425
N73	N	1.101031	0.464527	0.723105
H74	H	1.105465	0.459565	0.811533
H75	H	1.115206	0.554861	0.701322
N76	N	0.551424	0.114709	0.000049
H77	H	0.472897	0.121131	0.000060
H78	H	0.580488	0.061532	-0.073365
N79	N	1.044202	0.528131	0.536127
H80	H	1.003999	0.573103	0.477732
H81	H	0.994355	0.477700	0.587862
H82	H	1.079610	0.488490	0.293468
N83	N	0.725275	0.023184	0.000024
H84	H	0.686012	0.005894	-0.073392
H85	H	0.783317	-0.042193	0.000067
N86	N	0.902489	0.532662	0.000002
H87	H	0.844495	0.598116	0.000006
H88	H	0.941763	0.549839	0.073420
