data_functionalizedCrystal
_audit_creation_method	'MofGen! by Chris Wilmer'
_symmetry_space_group_name_H-M	'P1'
_symmetry_Int_Tables_number	1
_symmetry_cell_setting	triclinic
loop_
_symmetry_equiv_pos_as_xyz
  x,y,z
_cell_length_a	14.044191
_cell_length_b	13.101018
_cell_length_c	14.044220
_cell_angle_alpha	86.335600
_cell_angle_beta	93.190327
_cell_angle_gamma	93.666878
loop_
_atom_site_label
_atom_site_type_symbol
_atom_site_fract_x
_atom_site_fract_y
_atom_site_fract_z
O1	O	1.281983	0.085170	0.225382
O2	O	1.615316	0.418503	0.558715
O3	O	1.948649	0.751836	0.892049
O4	O	1.005311	0.085182	0.217069
O5	O	1.338644	0.418516	0.550402
O6	O	1.671978	0.751849	0.883735
O7	O	1.139494	0.085166	0.082890
O8	O	1.472827	0.418499	0.416223
O9	O	1.806160	0.751833	0.749557
O10	O	1.147800	0.085186	0.359561
O11	O	1.481134	0.418519	0.692894
O12	O	1.814467	0.751853	1.026227
O13	O	1.129855	-0.085263	0.092525
O14	O	1.463188	0.248070	0.425859
O15	O	1.796521	0.581403	0.759192
O16	O	0.995672	-0.085247	0.226704
O17	O	1.329006	0.248087	0.560037
O18	O	1.662339	0.581420	0.893371
O19	O	1.272344	-0.085260	0.235017
O20	O	1.605677	0.248074	0.568351
O21	O	1.939011	0.581407	0.901684
Zn22	Zn	1.132478	-0.112313	0.232390
Zn23	Zn	1.465811	0.221021	0.565724
Zn24	Zn	1.799144	0.554354	0.899057
Zn25	Zn	1.145177	0.112235	0.219695
Zn26	Zn	1.478511	0.445569	0.553029
Zn27	Zn	1.811844	0.778902	0.886362
O28	O	1.138162	-0.085243	0.369196
O29	O	1.471495	0.248090	0.702529
O30	O	1.804828	0.581423	1.035863
C31	C	0.964870	-0.000031	0.218250
C32	C	1.298203	0.333303	0.551583
C33	C	1.631536	0.666636	0.884916
C34	C	0.858727	-0.000026	0.207402
C35	C	1.192060	0.333307	0.540735
C36	C	1.525394	0.666641	0.874069
N37	N	1.123818	-0.265560	0.241054
N38	N	1.457151	0.067773	0.574388
N39	N	1.790484	0.401106	0.907721
C40	C	0.613268	-0.000032	0.264503
C41	C	0.946601	0.333301	0.597836
C42	C	1.279935	0.666634	0.931169
C43	C	0.664393	-0.000036	0.187587
C44	C	0.997727	0.333297	0.520920
C45	C	1.331060	0.666631	0.854253
C46	C	0.772531	-0.000031	0.198615
C47	C	1.105864	0.333303	0.531948
C48	C	1.439197	0.666636	0.865281
C49	C	0.505121	-0.000038	0.253476
C50	C	0.838454	0.333296	0.586810
C51	C	1.171788	0.666629	0.920143
C52	C	1.165622	-0.525475	0.199233
C53	C	1.498955	-0.192142	0.532566
C54	C	1.832288	0.141192	0.865899
C55	C	1.112043	-0.474596	0.252843
C56	C	1.445377	-0.141262	0.586177
C57	C	1.778710	0.192071	0.919510
C58	C	1.118596	-0.358278	0.246282
C59	C	1.451930	-0.024944	0.579616
C60	C	1.785263	0.308389	0.912949
C61	C	1.159070	-0.641804	0.205793
C62	C	1.492403	-0.308470	0.539126
C63	C	1.825736	0.024863	0.872459
C64	C	1.312785	-0.000044	0.233836
C65	C	1.646119	0.333289	0.567169
C66	C	1.979452	0.666622	0.900503
C67	C	1.418929	-0.000042	0.244683
C68	C	1.752262	0.333291	0.578017
C69	C	2.085595	0.666625	0.911350
C70	C	1.131038	-0.000049	0.052086
C71	C	1.464372	0.333285	0.385419
C72	C	1.797705	0.666618	0.718752
C73	C	1.120194	-0.000050	-0.054057
C74	C	1.453527	0.333284	0.279276
C75	C	1.786860	0.666617	0.612609
N76	N	1.153844	0.265483	0.211025
N77	N	1.487178	0.598817	0.544358
N78	N	1.820511	0.932150	0.877691
C79	C	1.100368	-0.000034	-0.248396
C80	C	1.433702	0.333299	0.084937
C81	C	1.767035	0.666633	0.418270
C82	C	1.177283	-0.000034	-0.299524
C83	C	1.510616	0.333299	0.033809
C84	C	1.843950	0.666632	0.367142
C85	C	1.166252	-0.000026	-0.407661
C86	C	1.499585	0.333308	-0.074328
C87	C	1.832919	0.666641	0.259005
C88	C	1.111398	-0.000043	-0.140250
C89	C	1.444731	0.333291	0.193084
C90	C	1.778065	0.666624	0.526417
C91	C	1.146617	-0.000026	0.400000
C92	C	1.479950	0.333307	0.733333
C93	C	1.813283	0.666640	1.066667
C94	C	1.157462	-0.000019	0.506143
C95	C	1.490795	0.333315	0.839476
C96	C	1.824128	0.666648	1.172809
H97	H	0.626954	0.000031	0.113451
H98	H	0.960287	0.333364	0.446784
H99	H	1.293620	0.666697	0.780117
C100	C	1.277430	-0.000062	-0.248950
C101	C	1.610763	0.333272	0.084383
C102	C	1.944097	0.666605	0.417717
H103	H	1.271804	-0.000079	-0.181849
H104	H	1.605138	0.333255	0.151484
H105	H	1.938471	0.666588	0.484817
H106	H	1.314507	0.059363	-0.270240
H107	H	1.647840	0.392696	0.063093
H108	H	1.981173	0.726030	0.396426
H109	H	1.307754	-0.059509	-0.263544
H110	H	1.641088	0.273824	0.069789
H111	H	1.974421	0.607157	0.403122
H112	H	1.026241	-0.000028	-0.285836
H113	H	1.359574	0.333305	0.047498
H114	H	1.692908	0.666639	0.380831
H115	H	0.650710	-0.000024	0.338629
H116	H	0.984043	0.333309	0.671962
H117	H	1.317377	0.666643	1.005296
H118	H	1.061253	-0.518395	0.303669
H119	H	1.394586	-0.185061	0.637002
H120	H	1.727920	0.148272	0.970336
H121	H	1.216410	-0.481681	0.148412
H122	H	1.549743	-0.148348	0.481745
H123	H	1.883077	0.184985	0.815078
