data_functionalizedCrystal
_audit_creation_method	'MofGen! by Chris Wilmer'
_symmetry_space_group_name_H-M	'P1'
_symmetry_Int_Tables_number	1
_symmetry_cell_setting	triclinic
loop_
_symmetry_equiv_pos_as_xyz
  x,y,z
_cell_length_a	10.540514
_cell_length_b	15.995292
_cell_length_c	9.616153
_cell_angle_alpha	90.003315
_cell_angle_beta	90.002713
_cell_angle_gamma	83.991888
loop_
_atom_site_label
_atom_site_type_symbol
_atom_site_fract_x
_atom_site_fract_y
_atom_site_fract_z
O1	O	1.684244	0.117903	0.115652
O2	O	1.314670	0.129043	0.115650
O3	O	1.509598	0.001642	0.115653
O4	O	1.489316	0.245303	0.115649
O5	O	1.509590	0.001633	-0.115638
O6	O	1.314662	0.129034	-0.115641
O7	O	1.684236	0.117894	-0.115639
Zn8	Zn	1.499448	0.123462	-0.152363
Zn9	Zn	1.499458	0.123474	0.152374
O10	O	1.489308	0.245295	-0.115642
C11	C	1.267374	0.128207	0.000004
C12	C	1.126460	0.125721	0.000004
C13	C	1.054473	0.216837	0.000005
C14	C	0.907896	0.214281	0.000537
C15	C	0.934823	0.076173	0.131835
C16	C	1.081317	0.079375	0.131938
C17	C	1.081730	0.078016	-0.131093
C18	C	0.934764	0.077137	-0.132818
C19	C	1.508768	-0.029563	0.000011
C20	C	1.506294	-0.122531	0.000022
C21	C	1.497196	-0.460323	0.000009
C22	C	1.637889	-0.436178	-0.000507
C23	C	1.640564	-0.339487	0.000019
C24	C	1.501710	-0.292741	0.000014
C25	C	1.431374	-0.322253	0.132088
C26	C	1.429681	-0.419053	0.132194
C27	C	1.426799	-0.418938	-0.130828
C28	C	1.432013	-0.322414	-0.132568
C29	C	1.504254	-0.198029	0.000022
C30	C	1.494648	-0.555034	0.000010
C31	C	1.731532	0.118729	0.000010
C32	C	1.872446	0.121215	0.000019
C33	C	1.490137	0.276499	0.000003
C34	C	1.492612	0.369467	0.000002
N35	N	1.499450	0.123454	-0.360337
C36	C	1.604107	0.055538	-0.580662
C37	C	1.603831	0.055279	-0.419495
C38	C	1.367024	0.103588	-0.418868
C39	C	1.367647	0.103112	-0.580086
C40	C	1.526056	0.211473	-0.580213
C41	C	1.529059	0.210898	-0.418985
N42	N	1.499466	0.123476	0.360348
H43	H	0.913470	0.007819	0.136365
H44	H	1.471103	-0.446768	-0.230940
H45	H	1.457778	0.263880	-0.378712
N46	N	1.266959	0.163947	-0.370803
N47	N	1.154278	0.158217	-0.406919
H48	H	1.083606	0.200847	-0.372972
N49	N	1.710052	-0.315970	0.119013
N50	N	1.656617	-0.267021	0.207531
H51	H	1.705692	-0.250412	0.291578
H52	H	1.587369	-0.009378	-0.621191
H53	H	0.891785	0.107055	0.230305
H54	H	1.478398	-0.445578	0.230925
N55	N	1.120689	0.116044	-0.256488
N56	N	1.192297	0.074171	-0.340327
H57	H	1.219811	0.101035	-0.428884
N58	N	1.496229	-0.298715	-0.255141
N59	N	1.438111	-0.251151	-0.342512
H60	H	1.483463	-0.234402	-0.429076
N61	N	0.854950	0.258553	0.119776
N62	N	0.889101	0.234734	0.239090
H63	H	0.851715	0.266007	0.323307
H64	H	1.344206	0.038912	-0.617702
H65	H	1.330663	-0.290045	-0.140548
N66	N	1.705537	-0.472178	0.117650
N67	N	1.650581	-0.515539	0.202237
H68	H	1.698353	-0.540965	0.285689
H69	H	1.695649	-0.320139	-0.094654
H70	H	1.343004	0.040111	-0.378504
N71	N	1.300276	-0.438074	0.139757
N72	N	1.264627	-0.479959	0.239480
H73	H	1.173236	-0.493387	0.244832
H74	H	1.692116	-0.463858	-0.095223
N75	N	1.303194	-0.283033	0.138233
N76	N	1.262155	-0.232771	0.045118
H77	H	1.171627	-0.205071	0.049453
H78	H	1.287442	0.150672	-0.619110
N79	N	1.492678	-0.296733	0.255388
N80	N	1.607154	-0.321919	0.277682
H81	H	1.650459	-0.303898	0.364759
N82	N	1.430340	0.274924	-0.628047
N83	N	1.361370	0.317301	-0.542442
H84	H	1.293769	0.362110	-0.576229
H85	H	1.109082	0.112280	0.230848
N86	N	1.296884	-0.437259	-0.131933
N87	N	1.256170	-0.480594	-0.036883
H88	H	1.164421	-0.493537	-0.037652
H89	H	1.586843	-0.010011	-0.380940
N90	N	0.882759	0.118443	-0.255147
N91	N	0.800104	0.180116	-0.244645
H92	H	0.763372	0.209294	-0.331038
N93	N	1.727291	0.070347	-0.369860
N94	N	1.814264	0.081124	-0.454287
H95	H	1.901452	0.091793	-0.419240
N96	N	1.728015	0.070286	-0.629308
N97	N	1.792572	0.015413	-0.699384
H98	H	1.880084	0.025831	-0.733754
N99	N	1.644604	0.235181	-0.631220
N100	N	1.710940	0.187502	-0.712011
H101	H	1.794668	0.204237	-0.748041
N102	N	1.142758	-0.004578	0.138985
N103	N	1.216375	-0.032161	0.043828
H104	H	1.259768	-0.091451	0.048812
H105	H	1.626477	0.225954	-0.380730
N106	N	0.905599	-0.007958	-0.143314
N107	N	0.792101	-0.023546	-0.151772
H108	H	0.771501	-0.083648	-0.159175
H109	H	0.864730	0.249709	-0.093932
H110	H	1.082490	0.253795	-0.094507
H111	H	1.084191	0.253262	0.094391
H112	H	1.129931	0.010808	-0.132364
