data_functionalizedCrystal
_audit_creation_method	'MofGen! by Chris Wilmer'
_symmetry_space_group_name_H-M	'P1'
_symmetry_Int_Tables_number	1
_symmetry_cell_setting	triclinic
loop_
_symmetry_equiv_pos_as_xyz
  x,y,z
_cell_length_a	14.395555
_cell_length_b	14.560438
_cell_length_c	14.560438
_cell_angle_alpha	120.000612
_cell_angle_beta	90.001141
_cell_angle_gamma	60.001246
loop_
_atom_site_label
_atom_site_type_symbol
_atom_site_fract_x
_atom_site_fract_y
_atom_site_fract_z
Zr1	Zr	0.894876	1.005318	0.120529
O2	O	0.746554	1.196916	0.267171
O3	O	0.940345	0.813718	0.075577
O4	O	0.940346	1.005324	0.267179
O5	O	0.746552	1.005306	-0.075572
O6	O	1.093214	1.005331	0.267183
O7	O	0.746552	1.005310	0.075569
O8	O	1.093211	0.662583	-0.075558
O9	O	0.746554	1.348054	0.267168
O10	O	1.073820	0.892532	0.056406
O11	O	0.959736	0.892524	-0.056392
O12	O	0.959738	1.118115	0.169194
O13	O	0.845654	1.118107	0.056396
Zr14	Zr	1.138681	1.005322	-0.120519
Zr15	Zr	1.138682	1.005329	0.120534
Zr16	Zr	0.894875	1.005312	-0.120525
Zr17	Zr	0.894877	1.246366	0.120524
Zr18	Zr	1.138680	0.764275	-0.120514
O19	O	1.093212	1.196922	-0.075568
O20	O	1.093214	1.196931	0.267179
O21	O	0.746552	1.196907	-0.075576
O22	O	1.287003	0.813724	-0.267161
O23	O	1.287005	0.813734	0.075585
O24	O	0.940343	0.813709	-0.267169
O25	O	1.287005	1.005334	0.075582
O26	O	1.093211	1.005316	-0.267169
O27	O	0.940343	1.005310	-0.267173
O28	O	1.287005	1.005330	-0.075560
O29	O	0.940347	1.348063	0.267173
O30	O	1.093210	0.662578	-0.267163
O31	O	1.287003	0.662586	-0.267158
O32	O	1.287004	0.662592	-0.075553
O33	O	0.746553	1.348049	0.075563
O34	O	0.940346	1.348057	0.075567
O35	O	1.073819	0.892526	-0.169185
O36	O	1.187903	0.892534	-0.056387
O37	O	1.073821	1.118117	0.056402
O38	O	0.959737	1.118109	-0.056396
C39	C	1.016778	0.703806	0.000010
C40	C	1.016778	0.601475	0.000012
C41	C	1.076326	0.553403	0.058892
C42	C	1.076330	0.457244	0.058881
C43	C	0.957229	0.457241	-0.058890
C44	C	0.957232	0.553392	-0.058885
C45	C	0.711815	1.005307	-0.000002
C46	C	0.608313	1.005302	-0.000005
C47	C	0.609927	0.882304	-0.061500
C48	C	0.516911	0.943789	-0.106077
C49	C	0.516901	0.943822	0.044540
C50	C	0.516660	1.066787	-0.044644
C51	C	0.516664	1.066803	0.106033
C52	C	0.423631	1.128378	0.061482
C53	C	1.321742	1.005334	0.000012
C54	C	1.425244	1.005338	0.000014
C55	C	1.016780	1.005328	0.301526
C56	C	1.016781	1.005331	0.403859
C57	C	1.016779	1.306834	-0.000001
C58	C	1.016779	1.409165	-0.000003
C59	C	1.100997	1.005336	0.451937
C60	C	1.101001	1.005325	0.548084
C61	C	0.932563	1.005309	0.548068
C62	C	0.932565	1.005311	0.451919
C63	C	1.016779	1.005314	0.698485
C64	C	1.016783	1.005318	0.596155
C65	C	1.321742	0.703820	0.000018
C66	C	1.425243	0.601494	0.000022
C67	C	1.016776	0.703798	-0.301510
C68	C	1.016775	0.601465	-0.403842
C69	C	1.321740	0.703812	-0.301503
C70	C	1.425241	0.601483	-0.403832
C71	C	0.711817	1.306828	0.301513
C72	C	0.608316	1.409158	0.403842
C73	C	0.711816	1.306820	-0.000008
C74	C	0.608314	1.409147	-0.000012
C75	C	1.016781	1.306842	0.301520
C76	C	1.016782	1.409176	0.403852
C77	C	1.414322	0.553417	0.058898
C78	C	1.511576	0.457278	0.058906
C79	C	1.630671	0.457298	-0.058847
C80	C	1.533417	0.553441	-0.058848
C81	C	1.076324	0.553387	-0.510794
C82	C	1.076310	0.457243	-0.606942
C83	C	0.957198	0.457258	-0.489171
C84	C	0.957206	0.553407	-0.393026
C85	C	1.533416	0.553410	-0.393031
C86	C	1.630663	0.457270	-0.489183
C87	C	1.511544	0.457279	-0.606937
C88	C	1.414300	0.553424	-0.510785
H89	H	1.124821	0.418105	0.106825
H90	H	1.326245	0.592550	0.106845
H91	H	1.542330	0.592539	-0.305948
N92	N	0.515684	0.874947	0.094440
H93	H	0.585172	0.782033	0.047914
H94	H	0.516135	0.920555	0.174084
H95	H	1.124813	0.592549	0.106848
H96	H	0.863985	1.005302	0.412769
H97	H	0.517634	1.118743	0.195681
N98	N	0.892999	0.405382	-0.122396
H99	H	0.809693	0.478739	-0.091515
H100	H	0.924327	0.365471	-0.204748
N101	N	0.892978	0.605310	-0.277642
H102	H	0.833071	0.701827	-0.235158
H103	H	0.855299	0.560209	-0.285432
N104	N	0.893013	0.605239	-0.122404
H105	H	0.855286	0.560195	-0.159711
H106	H	0.833146	0.701758	-0.068348
H107	H	1.124825	0.592517	-0.519607
H108	H	0.344004	1.232469	0.113482
N109	N	1.545190	0.605321	-0.122336
H110	H	1.507489	0.588603	-0.181583
H111	H	1.507501	0.701822	-0.068237
H112	H	0.863995	1.005295	0.587209
H113	H	0.689682	0.778298	-0.113574
N114	N	1.140549	0.405387	-0.722293
H115	H	1.200468	0.308870	-0.764807
H116	H	1.085856	0.422212	-0.764722
N117	N	1.191826	1.005355	0.400098
H118	H	1.245178	1.005355	0.445147
H119	H	1.235995	0.925276	0.320164
H120	H	1.502674	0.418140	0.106851
H121	H	0.908701	0.418116	-0.480379
N122	N	1.747339	0.405423	-0.477534
H123	H	1.739508	0.450461	-0.395190
H124	H	1.790283	0.308903	-0.514868
N125	N	1.191820	1.005358	0.599954
H126	H	1.245161	1.005381	0.554920
H127	H	1.154967	1.085446	0.679886
H128	H	1.718756	0.418160	-0.106779
H129	H	1.326213	0.592569	-0.519589
N130	N	0.515673	0.874942	-0.224848
H131	H	0.585156	0.782025	-0.271251
H132	H	0.444835	0.876302	-0.223801
N133	N	0.517742	1.135597	-0.094674
H134	H	0.588138	1.135125	-0.094403
H135	H	0.517920	1.089459	-0.174513
H136	H	1.502650	0.418136	-0.694028
