data_functionalizedCrystal
_audit_creation_method	'MofGen! by Chris Wilmer'
_symmetry_space_group_name_H-M	'P1'
_symmetry_Int_Tables_number	1
_symmetry_cell_setting	triclinic
loop_
_symmetry_equiv_pos_as_xyz
  x,y,z
_cell_length_a	12.759401
_cell_length_b	18.050589
_cell_length_c	12.759393
_cell_angle_alpha	89.969329
_cell_angle_beta	89.980326
_cell_angle_gamma	90.027384
loop_
_atom_site_label
_atom_site_type_symbol
_atom_site_fract_x
_atom_site_fract_y
_atom_site_fract_z
Zn1	Zn	1.606156	-0.295632	-0.594022
Zn2	Zn	1.606009	-0.419842	-0.418345
Zn3	Zn	1.430458	-0.295669	-0.418358
Zn4	Zn	1.430405	-0.419783	-0.593983
O5	O	1.518257	-0.357731	-0.506177
O6	O	1.753158	-0.312118	-0.570730
O7	O	1.582683	-0.403411	-0.271326
O8	O	1.453849	-0.191739	-0.441682
O9	O	1.753050	-0.403375	-0.441661
O10	O	1.582933	-0.191712	-0.570742
O11	O	1.453706	-0.312181	-0.271335
O12	O	1.283430	-0.312123	-0.441644
O13	O	1.453759	-0.403274	-0.741009
O14	O	1.283391	-0.403309	-0.570675
O15	O	1.582882	-0.312060	-0.741038
O16	O	1.582631	-0.523759	-0.441622
O17	O	1.453616	-0.523715	-0.570663
C18	C	1.245290	-0.357714	-0.506157
C19	C	1.128513	-0.357725	-0.506174
C20	C	1.518130	-0.550684	-0.506160
C21	C	1.518172	-0.633229	-0.506187
C22	C	1.073641	-0.310182	-0.439110
C23	C	0.963917	-0.310200	-0.439124
C24	C	0.963947	-0.405304	-0.573273
C25	C	1.073669	-0.405290	-0.573254
C26	C	0.813913	-0.283581	-0.315310
C27	C	0.759037	-0.236027	-0.248255
C28	C	0.794669	-0.163545	-0.232295
C29	C	0.885177	-0.138602	-0.283404
C30	C	0.940047	-0.186152	-0.350466
C31	C	0.904416	-0.258645	-0.366406
C32	C	1.223675	-0.431901	-0.697069
C33	C	1.278548	-0.479448	-0.764137
C34	C	1.242917	-0.551932	-0.780109
C35	C	1.152407	-0.576872	-0.729018
C36	C	1.097534	-0.529325	-0.661950
C37	C	1.133172	-0.456842	-0.645977
C38	C	1.448083	-0.832683	-0.576335
C39	C	1.422469	-0.882132	-0.480466
C40	C	1.518276	-0.784360	-0.506201
C41	C	1.543941	-0.881993	-0.602081
C42	C	1.518373	-0.930345	-0.506223
C43	C	1.492611	-0.832721	-0.410282
C44	C	1.614128	-0.832578	-0.531961
C45	C	1.588551	-0.882004	-0.436026
C46	C	1.518217	-0.700261	-0.506190
C47	C	1.518432	-1.014441	-0.506223
C48	C	1.792291	-0.357749	-0.506198
C49	C	1.909067	-0.357757	-0.506207
C50	C	1.518331	-0.357656	-0.780211
C51	C	1.518362	-0.357624	-0.896987
C52	C	1.518413	-0.164026	-0.506218
C53	C	1.518480	-0.081480	-0.506235
C54	C	1.451228	-0.310112	-0.951854
C55	C	1.451253	-0.310089	-1.061578
C56	C	1.585554	-0.405093	-1.061560
C57	C	1.585523	-0.405119	-0.951838
C58	C	1.327411	-0.283510	-1.211528
C59	C	1.260286	-0.235986	-1.266398
C60	C	1.244206	-0.163529	-1.230806
C61	C	1.295266	-0.138581	-1.140347
C62	C	1.362399	-0.186101	-1.085482
C63	C	1.378459	-0.258568	-1.121072
C64	C	1.709366	-0.431691	-0.801886
C65	C	1.776505	-0.479207	-0.747019
C66	C	1.792596	-0.551665	-0.782609
C67	C	1.741554	-0.576611	-0.873072
C68	C	1.674416	-0.529094	-0.927938
C69	C	1.658323	-0.456637	-0.892342
C70	C	1.518245	-0.357753	-0.233210
C71	C	1.518417	-0.357575	-0.116434
H72	H	1.118291	-0.271450	-0.384491
O73	O	1.721452	-0.803721	-0.560715
H74	H	1.779798	-0.824375	-0.503207
O75	O	1.572655	-0.910661	-0.709473
H76	H	1.514221	-0.890906	-0.767522
H77	H	1.396541	-0.271439	-0.907198
H78	H	0.685345	-0.256342	-0.206643
H79	H	1.287596	-0.590640	-0.834735
O80	O	1.171775	-0.112278	-1.289958
H81	H	1.138960	-0.141801	-1.358825
H82	H	1.632857	-0.549411	-1.001600
O83	O	1.463790	-0.804180	-0.302852
H84	H	1.384521	-0.824519	-0.281406
H85	H	1.754660	-0.635611	-0.902053
O86	O	1.376174	-0.452554	-0.819245
H87	H	1.391746	-0.394167	-0.796860
O88	O	1.369347	-0.803989	-0.654788
H89	H	1.370530	-0.742504	-0.654608
H90	H	1.818077	-0.458887	-0.673367
H91	H	0.919280	-0.444030	-0.627889
O92	O	0.999917	-0.556230	-0.606837
H93	H	0.932381	-0.521164	-0.630120
H94	H	1.282178	-0.079576	-1.111382
O95	O	1.037666	-0.159265	-0.405583
H96	H	1.053231	-0.100873	-0.383218
H97	H	1.341455	-0.903914	-0.458698
H98	H	1.696241	-0.372697	-0.772879
H99	H	0.914177	-0.079577	-0.270409
H100	H	1.218713	-0.256306	-1.340051
H101	H	1.123390	-0.635892	-0.742030
O102	O	1.667240	-0.910516	-0.357396
H103	H	1.645730	-0.890676	-0.277929
H104	H	1.403975	-0.165787	-1.011835
H105	H	1.640235	-0.443760	-1.106232
O106	O	1.865010	-0.602920	-0.723434
H107	H	1.897803	-0.573405	-0.654549
O108	O	1.344747	-0.361666	-1.249908
H109	H	1.297978	-0.371022	-1.322033
H110	H	0.784899	-0.342604	-0.328288
O111	O	0.735491	-0.112260	-0.159957
H112	H	0.654275	-0.105019	-0.189356
O113	O	1.262101	-0.353717	-0.679842
H114	H	1.334246	-0.344358	-0.726652
