data_functionalizedCrystal
_audit_creation_method	'MofGen! by Chris Wilmer'
_symmetry_space_group_name_H-M	'P1'
_symmetry_Int_Tables_number	1
_symmetry_cell_setting	triclinic
loop_
_symmetry_equiv_pos_as_xyz
  x,y,z
_cell_length_a	19.188905
_cell_length_b	19.188930
_cell_length_c	11.804365
_cell_angle_alpha	101.784974
_cell_angle_beta	78.186848
_cell_angle_gamma	83.139668
loop_
_atom_site_label
_atom_site_type_symbol
_atom_site_fract_x
_atom_site_fract_y
_atom_site_fract_z
O1	O	0.940335	0.072913	-0.099237
O2	O	0.737015	0.084671	-0.099198
O3	O	0.844539	-0.022861	-0.099195
O4	O	0.832811	0.180445	-0.099240
O5	O	0.816232	0.005419	0.098860
O6	O	0.708709	0.112951	0.098857
O7	O	0.912028	0.101193	0.098818
Cu8	Cu	0.807784	0.109654	0.116922
Cu9	Cu	0.841260	0.076209	-0.117302
O10	O	0.804504	0.208725	0.098816
C11	C	0.696850	0.098434	-0.000165
C12	C	0.619342	0.097303	-0.000149
C13	C	0.830005	-0.034732	-0.000164
C14	C	0.828863	-0.112235	-0.000154
C15	C	0.598381	0.081342	-0.108112
C16	C	0.525559	0.080267	-0.108127
C17	C	0.473703	0.095139	-0.000172
C18	C	0.494670	0.111106	0.107805
C19	C	0.567490	0.112188	0.107816
N20	N	0.353199	0.065184	0.080177
N21	N	0.284024	0.064154	0.080158
C22	C	0.254300	0.091883	-0.000200
N23	N	0.296367	0.120669	-0.080558
N24	N	0.365549	0.121696	-0.080544
C25	C	0.394740	0.093968	-0.000173
C26	C	0.154378	0.074756	-0.108187
C27	C	0.081554	0.073686	-0.108197
C28	C	0.050667	0.104519	0.107738
C29	C	0.123489	0.105595	0.107745
C30	C	0.175342	0.090710	-0.000221
C31	C	0.891955	-0.157165	-0.000160
C32	C	0.890886	-0.229991	-0.000179
C33	C	0.826718	-0.257881	-0.000168
C34	C	0.763618	-0.212941	-0.000168
C35	C	0.764691	-0.140118	-0.000161
N36	N	0.768035	-0.356255	0.067244
N37	N	0.767020	-0.425435	0.067240
C38	C	0.823483	-0.477292	-0.000191
N39	N	0.881008	-0.457357	-0.067603
N40	N	0.882024	-0.388171	-0.067593
C41	C	0.825548	-0.336844	-0.000176
C42	C	0.885421	-0.601190	-0.000220
C43	C	0.884351	-0.674019	-0.000246
C44	C	0.757079	-0.656965	-0.000223
C45	C	0.758153	-0.584140	-0.000209
C46	C	0.822325	-0.556257	-0.000201
C47	C	0.952194	0.087429	-0.000217
C48	C	1.029703	0.088560	-0.000241
C49	C	0.819038	0.220595	-0.000218
C50	C	0.820182	0.298097	-0.000237
N51	N	0.784243	0.133177	0.281662
N52	N	0.864805	0.052681	-0.282042
C53	C	0.921334	-0.003820	0.655614
C54	C	0.939141	-0.021618	0.530953
C55	C	0.900418	0.017079	0.468624
C56	C	0.843885	0.073578	0.530968
C57	C	0.826080	0.091381	0.655642
C58	C	0.805164	0.112280	0.468652
C59	C	0.748631	0.168779	0.530996
C60	C	0.730828	0.186580	0.655658
C61	C	0.769551	0.147882	0.717986
C62	C	0.822969	0.094477	0.343978
C63	C	0.727715	0.189678	0.344006
C64	C	0.709908	0.207477	0.468668
H65	H	0.640595	0.069221	-0.196026
H66	H	0.508489	0.067270	-0.196046
H67	H	0.452444	0.123217	0.195702
H68	H	0.868999	0.048476	0.293228
H69	H	0.952861	-0.035319	0.706370
H70	H	0.713311	-0.103535	-0.000156
H71	H	0.663877	0.253479	0.519444
H72	H	0.935731	-0.710602	-0.000258
H73	H	0.696184	0.221191	0.293259
H74	H	0.584554	0.125186	0.195736
H75	H	0.914919	0.002585	0.367119
H76	H	0.684801	0.232589	0.706419
H77	H	0.196598	0.062643	-0.196099
H78	H	0.937675	-0.578487	-0.000219
H79	H	0.985170	-0.067618	0.480196
H80	H	0.064491	0.060692	-0.196117
H81	H	0.944210	-0.134468	-0.000158
H82	H	0.704832	-0.679673	-0.000219
H83	H	0.755051	0.162371	0.819496
H84	H	0.706775	-0.547555	-0.000197
H85	H	0.008446	0.116632	0.195637
H86	H	0.140555	0.118588	0.195660
H87	H	0.711372	-0.235654	-0.000161
H88	H	0.942266	-0.266582	-0.000189
