data_functionalizedCrystal
_audit_creation_method	'MofGen! by Chris Wilmer'
_symmetry_space_group_name_H-M	'P1'
_symmetry_Int_Tables_number	1
_symmetry_cell_setting	triclinic
loop_
_symmetry_equiv_pos_as_xyz
  x,y,z
_cell_length_a	10.654550
_cell_length_b	14.519709
_cell_length_c	9.730223
_cell_angle_alpha	89.994652
_cell_angle_beta	89.999957
_cell_angle_gamma	84.082538
loop_
_atom_site_label
_atom_site_type_symbol
_atom_site_fract_x
_atom_site_fract_y
_atom_site_fract_z
O1	O	1.666594	0.129532	-0.114191
O2	O	1.300996	0.141873	-0.114216
O3	O	1.493488	0.001514	-0.114190
O4	O	1.474102	0.269891	-0.114216
O5	O	1.493476	0.001511	0.114390
O6	O	1.300984	0.141869	0.114364
O7	O	1.666581	0.129528	0.114389
Zn8	Zn	1.483781	0.135698	0.150669
Zn9	Zn	1.483797	0.135703	-0.150495
O10	O	1.474089	0.269887	0.114363
C11	C	1.254201	0.140965	0.000071
C12	C	1.114784	0.138254	0.000061
C13	C	1.034504	0.220895	0.000057
C14	C	0.903507	0.218342	0.000081
C15	C	0.933084	0.050500	0.000108
C16	C	1.064078	0.053054	0.000094
C17	C	1.492579	-0.032852	0.000100
C18	C	1.489871	-0.135247	0.000100
C19	C	1.479904	-0.510195	0.000064
C20	C	1.482672	-0.405872	0.000075
C21	C	1.484887	-0.322724	0.000083
C22	C	1.487656	-0.218395	0.000091
C23	C	1.713377	0.130436	0.000099
C24	C	1.852794	0.133147	0.000100
C25	C	1.474999	0.304253	0.000070
C26	C	1.477706	0.406649	0.000061
N27	N	1.483779	0.135694	0.356205
N28	N	1.483809	0.135700	-0.356032
C29	C	1.569043	0.073570	0.428142
C30	C	1.569056	0.073570	0.572025
C31	C	1.398535	0.197827	0.572021
C32	C	1.398518	0.197822	0.428140
H33	H	1.129446	-0.014247	0.000101
O34	O	1.083819	0.303633	-0.000208
C35	C	1.158718	0.310126	-0.118585
H36	H	1.127628	0.261733	-0.201318
H37	H	1.261972	0.289519	-0.091831
C38	C	1.181235	0.469862	-0.070664
C39	C	1.143043	0.410431	-0.172281
H40	H	1.171571	0.531735	-0.103784
H41	H	1.130778	0.465487	0.009092
H42	H	1.267278	0.452678	-0.048377
H43	H	1.056997	0.427608	-0.194553
H44	H	1.193485	0.414811	-0.252042
O45	O	1.651936	0.013351	0.642056
C46	C	1.729542	0.063275	0.725238
H47	H	1.679680	0.135099	0.746788
H48	H	1.822359	0.070178	0.669774
C49	C	1.817528	-0.076754	0.835447
C50	C	1.756282	0.011459	0.861924
H51	H	1.834029	-0.108717	0.919759
H52	H	1.765248	-0.110390	0.779402
H53	H	1.894868	-0.070989	0.789223
H54	H	1.678937	0.005693	0.908131
H55	H	1.808551	0.045093	0.917980
O56	O	1.315641	0.258263	0.358464
C57	C	1.240378	0.313089	0.452806
H58	H	1.291875	0.314493	0.555362
H59	H	1.147029	0.282504	0.468130
C60	C	1.151449	0.410675	0.270661
C61	C	1.214703	0.412405	0.396619
H62	H	1.135606	0.471936	0.236002
H63	H	1.202151	0.373735	0.207100
H64	H	1.073666	0.385183	0.283448
H65	H	1.292491	0.437885	0.383828
H66	H	1.164013	0.449351	0.460177
H67	H	0.838147	0.285637	0.000081
O68	O	0.884034	-0.032338	0.000182
C69	C	0.982986	-0.104732	0.000148
H70	H	1.072030	-0.078311	0.043418
H71	H	1.001460	-0.130259	-0.109514
C72	C	0.836474	-0.217469	0.036649
C73	C	0.945836	-0.185020	0.089805
H74	H	0.813557	-0.266997	0.091948
H75	H	0.769806	-0.168696	0.036667
H76	H	0.851883	-0.238734	-0.054735
H77	H	0.930420	-0.163745	0.181179
H78	H	1.012500	-0.233791	0.089804
H79	H	1.638466	0.022980	0.369576
H80	H	1.329120	0.248412	0.630605
