data_functionalizedCrystal
_audit_creation_method	'MofGen! by Chris Wilmer'
_symmetry_space_group_name_H-M	'P1'
_symmetry_Int_Tables_number	1
_symmetry_cell_setting	triclinic
loop_
_symmetry_equiv_pos_as_xyz
  x,y,z
_cell_length_a	16.992694
_cell_length_b	15.538191
_cell_length_c	15.455313
_cell_angle_alpha	91.603349
_cell_angle_beta	87.142206
_cell_angle_gamma	68.970158
loop_
_atom_site_label
_atom_site_type_symbol
_atom_site_fract_x
_atom_site_fract_y
_atom_site_fract_z
O1	O	0.989241	0.191780	-0.072014
O2	O	0.761568	0.189633	-0.072040
O3	O	0.919723	0.056913	-0.072026
O4	O	0.831085	0.324499	-0.072028
O5	O	0.910688	0.064469	0.072235
O6	O	0.752533	0.197189	0.072222
O7	O	0.980206	0.199336	0.072247
Cu8	Cu	0.865545	0.198952	0.085407
Cu9	Cu	0.876229	0.190016	-0.085199
O10	O	0.822051	0.332055	0.072233
C11	C	0.728624	0.190651	0.000088
C12	C	0.643924	0.182416	0.000078
C13	C	0.571070	0.261869	0.000078
C14	C	0.491487	0.254127	0.000090
C15	C	0.484758	0.166930	0.000095
C16	C	0.557620	0.087471	0.000098
C17	C	0.637201	0.095214	0.000092
C18	C	0.250294	0.134837	0.000119
C19	C	0.170704	0.127099	0.000122
C20	C	0.104576	0.293756	0.000116
C21	C	0.184162	0.301491	0.000105
C22	C	0.257016	0.222033	0.000112
N23	N	0.403412	0.159014	0.000105
N24	N	0.338360	0.229950	0.000108
C25	C	0.924480	0.026294	0.000103
C26	C	0.952104	-0.076201	0.000097
C27	C	0.677671	-0.384652	0.000085
C28	C	0.703646	-0.480962	0.000090
C29	C	0.849754	-0.492404	0.000106
C30	C	0.823791	-0.396094	0.000097
C31	C	0.737748	-0.342224	0.000087
C32	C	0.883868	-0.353667	0.000099
C33	C	0.857907	-0.257364	0.000095
C34	C	0.771868	-0.203488	0.000088
C35	C	0.711786	-0.245922	0.000083
C36	C	0.969911	-0.407537	0.000115
C37	C	1.029988	-0.365110	0.000117
C38	C	1.004027	-0.268806	0.000106
C39	C	0.917988	-0.214930	0.000099
C40	C	1.064108	-0.226373	0.000111
C41	C	1.038146	-0.130070	0.000107
C42	C	0.892026	-0.118628	0.000095
C43	C	1.013150	0.198318	0.000118
C44	C	1.097851	0.206553	0.000122
C45	C	0.817294	0.362675	0.000103
C46	C	0.789671	0.465169	0.000103
N47	N	0.858036	0.205237	0.205401
N48	N	0.883746	0.183724	-0.205194
C49	C	0.925237	0.148877	0.250801
C50	C	0.919563	0.153639	0.341609
C51	C	0.846689	0.214767	0.387015
C52	C	0.779482	0.271130	0.341608
C53	C	0.785154	0.266362	0.250803
C54	C	0.822212	0.235320	0.658594
C55	C	0.816545	0.240085	0.749406
C56	C	0.956626	0.122592	0.749400
C57	C	0.962294	0.117834	0.658593
C58	C	0.895085	0.174194	0.613194
N59	N	0.840889	0.219638	0.479834
N60	N	0.900884	0.169317	0.520376
H61	H	0.432169	0.318826	0.000089
H62	H	0.984580	0.099104	0.213838
H63	H	0.974283	0.107745	0.378573
H64	H	1.021633	0.068059	0.621625
O65	O	0.707960	0.017999	-0.000066
C66	C	0.713289	-0.038512	-0.074767
H67	H	0.675327	0.005378	-0.126988
H68	H	0.782191	-0.072529	-0.099848
H69	H	0.686659	-0.094079	-0.057872
H70	H	0.821962	-0.074764	0.000081
H71	H	1.011344	0.076706	0.786372
O72	O	0.933332	-0.544785	-0.000041
C73	C	0.957391	-0.604767	-0.074740
H74	H	0.911375	-0.575237	-0.126964
H75	H	1.023872	-0.612237	-0.099817
H76	H	0.956380	-0.675330	-0.057843
O77	O	0.190850	0.386121	0.000032
C78	C	0.276713	0.375917	0.000030
H79	H	0.317702	0.303917	-0.027250
H80	H	0.288460	0.429855	-0.041892
H81	H	0.293409	0.385729	0.069228
O82	O	1.096390	-0.088700	0.000144
C83	C	1.055024	0.007849	0.000118
H84	H	0.986981	0.027346	0.027425
H85	H	1.089191	0.042994	0.042003
H86	H	1.055451	0.031280	-0.069092
O87	O	0.756868	0.290164	0.614636
C88	C	0.691328	0.345123	0.674188
H89	H	0.718459	0.351952	0.738910
H90	H	0.660291	0.416509	0.647947
H91	H	0.642237	0.311352	0.683861
H92	H	0.654716	-0.515501	0.000100
H93	H	0.552135	0.016474	0.000115
O94	O	0.320973	0.057557	0.000084
C95	C	0.297964	-0.021060	0.000109
H96	H	0.233250	-0.003578	-0.027204
H97	H	0.346700	-0.079299	-0.041771
H98	H	0.295336	-0.043875	0.069320
H99	H	0.045251	0.358447	0.000112
O100	O	0.746592	-0.109928	0.000236
C101	C	0.693146	-0.070699	0.074933
H102	H	0.706127	-0.123558	0.127158
H103	H	0.705680	-0.007418	0.100010
H104	H	0.624413	-0.049398	0.058033
O105	O	0.745750	0.299339	0.793615
C106	C	0.709184	0.249096	0.846141
H107	H	0.759450	0.179967	0.859738
H108	H	0.682105	0.290013	0.909998
H109	H	0.656429	0.236679	0.811163
O110	O	0.594108	-0.332282	-0.000083
C111	C	0.579411	-0.280133	-0.074788
H112	H	0.631965	-0.315144	-0.127002
H113	H	0.516070	-0.275285	-0.099878
H114	H	0.578313	-0.207802	-0.057895
H115	H	0.641722	-0.202058	0.000069
H116	H	0.991046	-0.485953	0.000111
H117	H	0.730432	0.312256	0.213839
O118	O	1.113535	-0.417581	0.000087
C119	C	1.123568	-0.511677	0.000115
H120	H	1.066035	-0.521347	-0.027197
H121	H	1.182715	-0.554128	-0.041763
H122	H	1.130067	-0.535647	0.069327
H123	H	0.165234	0.056090	0.000126
H124	H	1.134164	-0.270247	0.000128
H125	H	0.576539	0.332874	0.000072
H126	H	0.720144	0.320898	0.378583
