data_functionalizedCrystal
_audit_creation_method	'MofGen! by Chris Wilmer'
_symmetry_space_group_name_H-M	'P1'
_symmetry_Int_Tables_number	1
_symmetry_cell_setting	triclinic
loop_
_symmetry_equiv_pos_as_xyz
  x,y,z
_cell_length_a	12.645331
_cell_length_b	21.395361
_cell_length_c	21.395355
_cell_angle_alpha	89.978489
_cell_angle_beta	90.024737
_cell_angle_gamma	89.970313
loop_
_atom_site_label
_atom_site_type_symbol
_atom_site_fract_x
_atom_site_fract_y
_atom_site_fract_z
Zn1	Zn	1.620657	0.249528	0.354251
Zn2	Zn	1.620492	0.354288	0.249468
Zn3	Zn	1.443365	0.249526	0.249488
Zn4	Zn	1.443313	0.354270	0.354208
O5	O	1.531957	0.301903	0.301854
O6	O	1.768982	0.263433	0.340362
O7	O	1.596948	0.340398	0.161793
O8	O	1.466974	0.161849	0.263411
O9	O	1.768861	0.340400	0.263378
O10	O	1.597230	0.161850	0.340380
O11	O	1.466814	0.263430	0.161807
O12	O	1.295011	0.263413	0.263369
O13	O	1.466885	0.340369	0.441892
O14	O	1.294973	0.340367	0.340307
O15	O	1.597179	0.263416	0.441924
O16	O	1.596898	0.441964	0.263336
O17	O	1.466725	0.441950	0.340288
C18	C	1.256527	0.301888	0.301836
C19	C	1.138697	0.301897	0.301843
C20	C	1.531817	0.464691	0.301819
C21	C	1.531854	0.534332	0.301825
C22	C	1.532045	0.301890	0.465277
C23	C	1.532082	0.301885	0.534919
C24	C	0.971122	0.253262	0.253709
C25	C	1.093681	0.253388	0.253496
C26	C	1.094150	0.367896	0.283797
C27	C	0.971552	0.367630	0.283469
C28	C	0.971558	0.285161	0.368209
C29	C	1.094164	0.283687	0.367841
C30	C	1.808462	0.301919	0.301873
C31	C	1.926292	0.301925	0.301880
C32	C	1.532126	0.138480	0.301903
C33	C	1.532198	0.068839	0.301923
C34	C	1.599695	0.567031	0.261797
C35	C	1.599744	0.632467	0.261811
C36	C	1.531934	0.665200	0.301847
C37	C	1.464088	0.632493	0.341882
C38	C	1.464048	0.567059	0.341872
C39	C	1.436482	0.768914	0.306756
C40	C	1.436520	0.834347	0.306763
C41	C	1.532057	0.867021	0.301883
C42	C	1.627559	0.834254	0.296985
C43	C	1.627519	0.768820	0.296974
C44	C	1.531970	0.736153	0.301863
C45	C	1.599957	0.970673	0.261869
C46	C	1.600008	1.036109	0.261887
C47	C	1.464343	1.036135	0.341955
C48	C	1.464301	0.970699	0.341940
C49	C	1.532107	0.937972	0.301893
C50	C	1.531930	0.301871	0.139066
C51	C	1.532098	0.301699	0.069426
C52	C	1.599923	0.261814	0.567649
C53	C	1.599922	0.261787	0.633085
C54	C	1.532090	0.301842	0.665787
C55	C	1.464236	0.341916	0.633049
C56	C	1.464232	0.341938	0.567614
C57	C	1.523671	0.358258	0.769450
C58	C	1.523683	0.358237	0.834883
C59	C	1.532097	0.301776	0.867608
C60	C	1.540522	0.245334	0.834892
C61	C	1.540518	0.245355	0.769458
C62	C	1.532087	0.301823	0.736739
C63	C	1.599940	0.261672	0.971291
C64	C	1.599931	0.261644	1.036728
C65	C	1.464251	0.341780	1.036690
C66	C	1.464255	0.341802	0.971255
C67	C	1.532105	0.301749	0.938559
H68	H	1.123802	0.204447	0.264809
F69	F	1.729155	0.733948	0.291764
F70	F	1.672153	0.219000	1.071562
F71	F	1.671872	0.532204	0.219183
F72	F	1.671952	0.667275	0.219206
H73	H	1.655164	0.229153	0.659739
H74	H	1.655172	0.944025	0.229262
H75	H	1.409054	0.944074	0.374531
F76	F	1.392042	0.384544	0.667853
H77	H	0.941895	0.405114	0.317025
F78	F	1.392051	0.384405	1.071490
F79	F	1.392023	0.384589	0.532779
H80	H	1.124812	0.316546	0.405653
H81	H	1.123307	0.405122	0.317782
F82	F	0.933666	0.331488	0.415124
H83	H	1.705354	0.860855	0.293012
F84	F	1.672225	1.070910	0.219286
H85	H	1.124797	0.382359	0.235828
H86	H	1.409134	1.062786	0.374555
H87	H	1.547375	0.199397	0.742823
F88	F	0.932637	0.189098	0.268334
H89	H	1.547375	0.199358	0.861536
F90	F	0.931203	0.223355	0.389657
F91	F	1.672147	0.219043	0.936492
H92	H	1.358757	0.861022	0.310745
F93	F	1.132244	0.220209	0.385633
H94	H	1.408803	0.540435	0.374468
H95	H	0.940267	0.264218	0.204846
H96	H	1.655171	0.229199	0.541032
H97	H	1.122952	0.264467	0.204344
H98	H	1.409017	0.374436	0.944605
H99	H	1.516829	0.404196	0.861515
F100	F	0.934096	0.386213	0.220089
F101	F	1.514740	0.418357	0.734627
F102	F	1.334792	0.734147	0.311951
H103	H	1.408878	0.659149	0.374480
