data_functionalizedCrystal
_audit_creation_method	'MofGen! by Chris Wilmer'
_symmetry_space_group_name_H-M	'P1'
_symmetry_Int_Tables_number	1
_symmetry_cell_setting	triclinic
loop_
_symmetry_equiv_pos_as_xyz
  x,y,z
_cell_length_a	29.839134
_cell_length_b	29.839132
_cell_length_c	17.077396
_cell_angle_alpha	89.965873
_cell_angle_beta	89.968968
_cell_angle_gamma	90.040610
loop_
_atom_site_label
_atom_site_type_symbol
_atom_site_fract_x
_atom_site_fract_y
_atom_site_fract_z
Zn1	Zn	-0.686740	0.178909	0.444053
Zn2	Zn	-0.686658	0.254040	0.312774
Zn3	Zn	-0.611613	0.178918	0.312775
Zn4	Zn	-0.611566	0.254007	0.443972
O5	O	-0.649144	0.216468	0.378393
O6	O	-0.749596	0.188885	0.426673
O7	O	-0.676688	0.244092	0.202927
O8	O	-0.621634	0.116050	0.330224
O9	O	-0.749536	0.244083	0.330223
O10	O	-0.676829	0.116043	0.426673
O11	O	-0.621554	0.188901	0.202928
O12	O	-0.548740	0.188869	0.330144
O13	O	-0.621552	0.244027	0.553829
O14	O	-0.548705	0.244036	0.426534
O15	O	-0.676783	0.188853	0.553889
O16	O	-0.676642	0.316902	0.330143
O17	O	-0.621472	0.316878	0.426533
C18	C	-0.532422	0.216450	0.378331
C19	C	-0.482487	0.216453	0.378323
C20	C	-0.649055	0.333191	0.378347
C21	C	-0.649058	0.383125	0.378353
C22	C	-0.172835	0.245240	0.428497
C23	C	0.014838	0.245255	0.428522
O24	O	0.039110	0.269707	0.471162
N25	N	0.038298	0.216491	0.378417
C26	C	0.014837	0.187719	0.328305
O27	O	0.039097	0.163251	0.285693
C28	C	-0.172836	0.187703	0.328284
C29	C	-0.196293	0.216472	0.378388
C30	C	-0.196293	0.274007	0.478597
C31	C	-0.243208	0.274005	0.478587
C32	C	-0.266666	0.245236	0.428478
C33	C	-0.243209	0.216470	0.378378
C34	C	-0.196296	0.158929	0.278177
C35	C	-0.243217	0.158927	0.278178
C36	C	-0.266675	0.187696	0.328281
C37	C	-0.313582	0.187699	0.328258
N38	N	-0.337042	0.216463	0.378364
C39	C	-0.313584	0.245232	0.428474
C40	C	0.113367	0.187730	0.328318
C41	C	0.160285	0.187735	0.328322
C42	C	0.160283	0.245270	0.428541
C43	C	0.113365	0.245267	0.428532
C44	C	0.089907	0.216494	0.378424
C45	C	-0.412110	0.245225	0.428449
C46	C	-0.459029	0.245222	0.428432
C47	C	-0.459023	0.187685	0.328217
C48	C	-0.412108	0.187690	0.328230
C49	C	-0.388652	0.216462	0.378352
O50	O	-0.337883	0.163256	0.285648
O51	O	-0.337852	0.269689	0.471091
C52	C	-0.125920	0.245243	0.428507
C53	C	-0.102462	0.216476	0.378407
C54	C	-0.125920	0.187708	0.328298
C55	C	-0.055544	0.216481	0.378411
C56	C	-0.032086	0.245249	0.428521
C57	C	-0.055546	0.274013	0.478626
C58	C	-0.102462	0.274011	0.478617
C59	C	-0.102460	0.158944	0.278192
C60	C	-0.055545	0.158949	0.278205
C61	C	-0.032087	0.187717	0.328315
C62	C	0.233677	0.216489	0.378444
C63	C	0.183743	0.216503	0.378432
C64	C	-0.677891	0.692769	0.328244
C65	C	-0.677934	0.880442	0.328262
O66	O	-0.702401	0.904707	0.285644
N67	N	-0.649191	0.903911	0.378406
C68	C	-0.620438	0.880458	0.428553
O69	O	-0.595994	0.904726	0.471210
C70	C	-0.620397	0.692786	0.428539
C71	C	-0.649139	0.669320	0.378386
C72	C	-0.706631	0.669303	0.278096
C73	C	-0.706618	0.622387	0.278089
C74	C	-0.677866	0.598938	0.328230
C75	C	-0.649126	0.622404	0.378379
C76	C	-0.591646	0.669334	0.478689
C77	C	-0.591640	0.622413	0.478682
C78	C	-0.620381	0.598947	0.428529
C79	C	-0.620361	0.552040	0.428513
N80	N	-0.649104	0.528571	0.378369
C81	C	-0.677857	0.552020	0.328228
C82	C	-0.620460	0.978989	0.428556
C83	C	-0.620470	1.025906	0.428559
C84	C	-0.677967	1.025887	0.328269
C85	C	-0.677955	0.978968	0.328263
C86	C	-0.649203	0.955520	0.378412
C87	C	-0.677827	0.453494	0.328216
C88	C	-0.677811	0.406575	0.328212
C89	C	-0.620315	0.406598	0.428504
C90	C	-0.620330	0.453514	0.428506
C91	C	-0.649090	0.476961	0.378360
O92	O	-0.595911	0.527746	0.471115
O93	O	-0.702303	0.527744	0.285590
C94	C	-0.677904	0.739684	0.328251
C95	C	-0.649164	0.763151	0.378400
C96	C	-0.620412	0.739701	0.428541
C97	C	-0.649174	0.810068	0.378402
C98	C	-0.677926	0.833518	0.328261
C99	C	-0.706669	0.810049	0.278117
C100	C	-0.706657	0.763134	0.278110
C101	C	-0.591669	0.763170	0.478685
C102	C	-0.591684	0.810085	0.478687
C103	C	-0.620436	0.833535	0.428546
C104	C	-0.649171	0.216435	0.583138
C105	C	-0.649183	0.216421	0.670388
C106	C	-0.649229	1.099290	0.378441
C107	C	-0.649222	1.049356	0.378417
C108	C	-0.649143	0.216469	0.174446
C109	C	-0.649219	0.216357	0.087196
C110	C	-0.677943	0.187690	0.711410
C111	C	-0.677948	0.187675	0.793391
C112	C	-0.649196	0.216394	0.834347
C113	C	-0.620433	0.245127	0.793319
C114	C	-0.620426	0.245139	0.711340
C115	C	-0.620451	0.245100	0.964189
C116	C	-0.620459	0.245088	1.046174
C117	C	-0.677973	0.187636	1.046240
C118	C	-0.677966	0.187648	0.964261
C119	C	-0.649204	0.216381	0.923238
H120	H	-0.478126	0.268651	0.469233
H121	H	-0.701357	0.164305	0.678070
C122	C	-0.709430	0.380763	0.273042
C123	C	-0.705797	0.387256	0.183800
C124	C	-0.737415	0.361446	0.128633
C125	C	-0.772667	0.329144	0.162709
C126	C	-0.776302	0.322650	0.251956
C127	C	-0.744683	0.348459	0.307123
H128	H	-0.679700	0.411169	0.158570
H129	H	-0.734725	0.366254	0.062567
H130	H	-0.796073	0.310038	0.121872
H131	H	-0.802399	0.298736	0.277186
H132	H	-0.747374	0.343652	0.373190
H133	H	-0.262313	0.135493	0.237377
H134	H	-0.478131	0.164264	0.287416
H135	H	-0.701392	0.164239	1.079645
C136	C	-0.588848	0.276694	1.091228
C137	C	-0.557220	0.308309	1.046108
C138	C	-0.525616	0.339925	1.091163
C139	C	-0.525641	0.339925	1.181337
C140	C	-0.557271	0.308309	1.226461
C141	C	-0.588874	0.276693	1.181407
H142	H	-0.557200	0.308310	0.979352
H143	H	-0.502202	0.363329	1.057758
H144	H	-0.502247	0.363328	1.214689
H145	H	-0.557290	0.308308	1.293217
H146	H	-0.612288	0.253289	1.214811
H147	H	-0.568275	0.829188	0.519527
C148	C	-0.588792	0.276748	0.666215
C149	C	-0.608225	0.312031	0.609850
C150	C	-0.576590	0.343641	0.564727
C151	C	-0.525522	0.339968	0.575969
C152	C	-0.506087	0.304684	0.632337
C153	C	-0.537722	0.273074	0.677459
H154	H	-0.646030	0.314750	0.601525
H155	H	-0.590977	0.369760	0.523000
H156	H	-0.502104	0.363368	0.542567
H157	H	-0.468282	0.301965	0.640661
H158	H	-0.523335	0.246955	0.719186
H159	H	-0.597023	0.268490	0.930791
H160	H	-0.121557	0.297438	0.519416
C161	C	-0.588850	1.051716	0.483722
C162	C	-0.557226	1.025916	0.538877
C163	C	-0.525607	1.051724	0.594045
C164	C	-0.525612	1.103332	0.594060
C165	C	-0.557237	1.129135	0.538903
C166	C	-0.588856	1.103327	0.483734
H167	H	-0.557222	0.987710	0.538868
H168	H	-0.502197	1.032623	0.634876
H169	H	-0.502206	1.122436	0.634899
H170	H	-0.557241	1.167340	0.538911
H171	H	-0.612266	1.122428	0.442903
C172	C	-0.588714	0.479327	0.483675
C173	C	-0.608173	0.511533	0.545352
C174	C	-0.576560	0.537342	0.600530
C175	C	-0.525488	0.530945	0.594031
C176	C	-0.506026	0.498737	0.532352
C177	C	-0.537639	0.472928	0.477174
H178	H	-0.645981	0.516270	0.550164
H179	H	-0.590967	0.561184	0.646189
H180	H	-0.502087	0.550050	0.634878
H181	H	-0.468218	0.494000	0.527539
H182	H	-0.523232	0.449086	0.431515
C183	C	-0.709574	0.953158	0.273099
C184	C	-0.705939	0.959647	0.183856
C185	C	-0.737560	0.933839	0.128692
C186	C	-0.772816	0.901542	0.162771
C187	C	-0.776452	0.895051	0.252019
C188	C	-0.744831	0.920859	0.307183
H189	H	-0.679839	0.983556	0.158625
H190	H	-0.734869	0.938643	0.062625
H191	H	-0.796224	0.882437	0.121935
H192	H	-0.802552	0.871142	0.277250
H193	H	-0.747523	0.916054	0.373250
H194	H	-0.701378	1.044987	0.287442
C195	C	-0.386313	0.276876	0.483579
C196	C	-0.354024	0.312126	0.449457
C197	C	-0.328227	0.343778	0.504581
C198	C	-0.334719	0.340181	0.593828
C199	C	-0.367009	0.304929	0.627955
C200	C	-0.392806	0.273277	0.572830
H201	H	-0.349217	0.314790	0.383387
H202	H	-0.304324	0.369874	0.479318
H203	H	-0.315623	0.363612	0.634635
H204	H	-0.371816	0.302265	0.694025
H205	H	-0.416709	0.247181	0.598093
C206	C	-0.128257	0.127298	0.223060
C207	C	-0.160548	0.092044	0.257163
C208	C	-0.186341	0.060398	0.202021
C209	C	-0.179845	0.064008	0.112777
C210	C	-0.147554	0.099264	0.078670
C211	C	-0.121760	0.130909	0.133811
H212	H	-0.165358	0.089371	0.323231
H213	H	-0.210246	0.034299	0.227270
H214	H	-0.198939	0.040582	0.071958
H215	H	-0.142743	0.101937	0.012602
H216	H	-0.097855	0.157008	0.108562
H217	H	-0.701368	0.164280	0.826788
H218	H	-0.597021	0.268509	0.826672
H219	H	-0.597046	0.959900	0.469395
C220	C	-0.560038	0.737381	0.533844
C221	C	-0.508971	0.743891	0.527333
C222	C	-0.477335	0.718106	0.582493
C223	C	-0.496766	0.685810	0.644165
C224	C	-0.547836	0.679299	0.650679
C225	C	-0.579471	0.705085	0.595519
H226	H	-0.494585	0.767799	0.481677
H227	H	-0.439530	0.722926	0.577671
H228	H	-0.473348	0.666722	0.684999
H229	H	-0.562222	0.655391	0.696335
H230	H	-0.617276	0.700264	0.600341
C231	C	-0.738276	0.737325	0.222944
C232	C	-0.734643	0.743820	0.133702
C233	C	-0.766265	0.718016	0.078534
C234	C	-0.801520	0.685717	0.112608
C235	C	-0.805155	0.679221	0.201855
C236	C	-0.773533	0.705025	0.257023
H237	H	-0.708543	0.767731	0.108475
H238	H	-0.763574	0.722825	0.012468
H239	H	-0.824929	0.666615	0.071770
H240	H	-0.831255	0.655310	0.227083
H241	H	-0.776224	0.700216	0.323089
C242	C	0.186092	0.276914	0.483666
C243	C	0.237700	0.276913	0.483667
C244	C	0.263512	0.308553	0.538794
C245	C	0.237716	0.340194	0.593919
C246	C	0.186105	0.340196	0.593919
C247	C	0.160293	0.308556	0.538793
H248	H	0.256799	0.253490	0.442859
H249	H	0.301718	0.308551	0.538793
H250	H	0.256823	0.363615	0.634726
H251	H	0.167006	0.363619	0.634728
H252	H	0.122088	0.308558	0.538794
C253	C	-0.709594	0.156057	0.919209
C254	C	-0.705974	0.104983	0.930504
C255	C	-0.737601	0.073391	0.885452
C256	C	-0.772849	0.092873	0.829106
C257	C	-0.776471	0.143950	0.817809
C258	C	-0.744844	0.175542	0.862860
H259	H	-0.679879	0.090559	0.972217
H260	H	-0.734920	0.035580	0.893815
H261	H	-0.796262	0.069487	0.795756
H262	H	-0.802566	0.158374	0.776096
H263	H	-0.747525	0.213353	0.854497
C264	C	-0.170495	0.305658	0.533721
C265	C	-0.176921	0.356722	0.527137
C266	C	-0.151128	0.388378	0.582260
C267	C	-0.118907	0.368970	0.643966
C268	C	-0.112479	0.317903	0.650553
C269	C	-0.138272	0.286246	0.595430
H270	H	-0.200774	0.371092	0.481455
H271	H	-0.155886	0.426182	0.577383
H272	H	-0.099813	0.392404	0.684772
H273	H	-0.088626	0.303533	0.696234
H274	H	-0.133514	0.248443	0.600306
H275	H	-0.177205	0.135504	0.237376
H276	H	-0.262303	0.297430	0.519388
H277	H	0.094269	0.268693	0.469332
C278	C	-0.029736	0.305658	0.533749
C279	C	-0.036144	0.356726	0.527182
C280	C	-0.010332	0.388367	0.582305
C281	C	0.021888	0.368940	0.643996
C282	C	0.028297	0.317870	0.650565
C283	C	0.002485	0.286229	0.595442
H284	H	-0.059997	0.371109	0.481513
H285	H	-0.015076	0.426173	0.577442
H286	H	0.040996	0.392363	0.684801
H287	H	0.052150	0.303486	0.696234
H288	H	0.007230	0.248423	0.600306
C289	C	0.186085	0.156094	0.273199
C290	C	0.160275	0.124450	0.218083
C291	C	0.186074	0.092806	0.162960
C292	C	0.237681	0.092806	0.162952
C293	C	0.263494	0.124451	0.218070
C294	C	0.237696	0.156095	0.273193
H295	H	0.122070	0.124449	0.218087
H296	H	0.166965	0.069381	0.122158
H297	H	0.256779	0.069382	0.122147
H298	H	0.301700	0.124452	0.218066
H299	H	0.256804	0.179520	0.313995
H300	H	0.094273	0.164299	0.287510
H301	H	-0.036450	0.135522	0.237398
C302	C	-0.386298	0.156044	0.273124
C303	C	-0.392789	0.104978	0.279710
C304	C	-0.366981	0.073326	0.224615
C305	C	-0.334683	0.092740	0.162933
C306	C	-0.328190	0.143809	0.156344
C307	C	-0.353998	0.175461	0.211440
H308	H	-0.416700	0.090604	0.325373
H309	H	-0.371788	0.035522	0.229493
H310	H	-0.315578	0.069310	0.122148
H311	H	-0.304280	0.158183	0.110682
H312	H	-0.349192	0.213266	0.206562
H313	H	-0.730024	0.603284	0.237253
C314	C	-0.709460	0.479282	0.273052
C315	C	-0.690022	0.511577	0.211386
C316	C	-0.721652	0.537364	0.156217
C317	C	-0.772719	0.530856	0.162714
C318	C	-0.792160	0.498560	0.224383
C319	C	-0.760530	0.472772	0.279551
H320	H	-0.652217	0.516396	0.206574
H321	H	-0.707260	0.561272	0.110566
H322	H	-0.796134	0.549946	0.121875
H323	H	-0.829965	0.493741	0.229194
H324	H	-0.774922	0.448864	0.325202
H325	H	-0.730047	0.688390	0.237265
H326	H	-0.568240	0.688432	0.519525
H327	H	-0.568227	0.603324	0.519522
H328	H	-0.596904	0.387499	0.469326
H329	H	-0.730079	0.829150	0.237288
