data_functionalizedCrystal
_audit_creation_method	'MofGen! by Chris Wilmer'
_symmetry_space_group_name_H-M	'P1'
_symmetry_Int_Tables_number	1
_symmetry_cell_setting	triclinic
loop_
_symmetry_equiv_pos_as_xyz
  x,y,z
_cell_length_a	15.298068
_cell_length_b	29.839131
_cell_length_c	15.298259
_cell_angle_alpha	80.273620
_cell_angle_beta	91.587309
_cell_angle_gamma	99.692747
loop_
_atom_site_label
_atom_site_type_symbol
_atom_site_fract_x
_atom_site_fract_y
_atom_site_fract_z
Zn1	Zn	1.253481	-0.008246	-0.727432
Zn2	Zn	1.753481	0.491754	-0.227432
Zn3	Zn	1.278690	-0.093840	-0.580907
Zn4	Zn	1.778690	0.406160	-0.080907
Zn5	Zn	1.132326	-0.033507	-0.555569
Zn6	Zn	1.632326	0.466493	-0.055569
Zn7	Zn	1.106935	-0.098161	-0.701940
Zn8	Zn	1.606935	0.401839	-0.201940
O9	O	1.192858	-0.058439	-0.641462
O10	O	1.692858	0.441561	-0.141462
O11	O	1.379408	-0.007220	-0.729267
O12	O	1.879408	0.492780	-0.229267
O13	O	1.280451	-0.094600	-0.454968
O14	O	1.780451	0.405400	0.045032
O15	O	1.148474	0.032723	-0.578432
O16	O	1.648474	0.532723	-0.078432
O17	O	1.397929	-0.070106	-0.621616
O18	O	1.897929	0.429894	-0.121616
O19	O	1.237485	0.051282	-0.704699
O20	O	1.737485	0.551282	-0.204699
O21	O	1.172918	-0.050274	-0.436352
O22	O	1.672918	0.449726	0.063648
O23	O	1.006375	-0.054464	-0.553714
O24	O	1.506375	0.445536	-0.053714
O25	O	1.105198	-0.077470	-0.827900
O26	O	1.605198	0.422530	-0.327900
O27	O	0.987720	-0.101965	-0.661251
O28	O	1.487720	0.398035	-0.161251
O29	O	1.212864	-0.011410	-0.846629
O30	O	1.712864	0.488590	-0.346629
O31	O	1.255830	-0.157293	-0.596897
O32	O	1.755830	0.342707	-0.096897
O33	O	1.129643	-0.160467	-0.685820
O34	O	1.629643	0.339533	-0.185820
C35	C	0.965263	-0.081425	-0.601967
C36	C	1.465263	0.418575	-0.101967
C37	C	0.867893	-0.091268	-0.585092
C38	C	1.367893	0.408732	-0.085092
C39	C	0.554792	0.011797	-0.762074
C40	C	1.054792	0.511797	-0.262074
C41	C	0.646275	0.021044	-0.777934
C42	C	1.146275	0.521044	-0.277934
C43	C	0.701684	-0.007033	-0.729725
C44	C	1.201684	0.492967	-0.229725
C45	C	0.665601	-0.044359	-0.665653
C46	C	1.165601	0.455641	-0.165653
C47	C	0.574108	-0.053609	-0.649796
C48	C	1.074108	0.446391	-0.149796
C49	C	0.721000	-0.072439	-0.617447
C50	C	1.221000	0.427561	-0.117447
C51	C	0.684917	-0.109765	-0.553375
C52	C	1.184917	0.390235	-0.053375
C53	C	0.593433	-0.119013	-0.537521
C54	C	1.093433	0.380987	-0.037521
C55	C	0.538024	-0.090936	-0.585730
C56	C	1.038024	0.409064	-0.085730
C57	C	0.812493	-0.063189	-0.633304
C58	C	1.312493	0.436811	-0.133304
C59	C	0.831809	-0.128595	-0.521026
C60	C	1.331809	0.371405	-0.021026
C61	C	0.740326	-0.137842	-0.505166
C62	C	1.240326	0.362158	-0.005166
C63	C	1.192737	-0.175180	-0.641365
C64	C	1.692737	0.324820	-0.141365
C65	C	1.192761	-0.225112	-0.641367
C66	C	1.692761	0.274888	-0.141367
C67	C	1.239180	-0.525036	-0.707287
C68	C	1.739180	-0.025036	-0.207287
C69	C	1.239266	-0.712696	-0.707356
C70	C	1.739266	-0.212696	-0.207356
O71	O	1.278612	-0.728713	-0.763326
O72	O	1.778612	-0.228713	-0.263326
N73	N	1.192990	-0.745859	-0.641585
N74	N	1.692990	-0.245859	-0.141585
C75	C	1.146684	-0.732105	-0.575796
C76	C	1.646684	-0.232105	-0.075796
O77	O	1.107318	-0.764618	-0.519860
O78	O	1.607318	-0.264618	-0.019860
C79	C	1.146594	-0.544446	-0.575731
C80	C	1.646594	-0.044446	-0.075731
C81	C	1.192880	-0.511285	-0.641501
C82	C	1.692880	-0.011285	-0.141501
C83	C	1.285462	-0.491875	-0.773052
C84	C	1.785462	0.008125	-0.273052
C85	C	1.285444	-0.444963	-0.773031
C86	C	1.785444	0.055037	-0.273031
C87	C	1.239144	-0.431212	-0.707245
C88	C	1.739144	0.068788	-0.207245
C89	C	1.192862	-0.464372	-0.641480
C90	C	1.692862	0.035628	-0.141480
C91	C	1.100283	-0.530693	-0.509946
C92	C	1.600283	-0.030693	-0.009946
C93	C	1.100263	-0.483775	-0.509937
C94	C	1.600263	0.016225	-0.009937
C95	C	1.146549	-0.450613	-0.575707
C96	C	1.646549	0.049387	-0.075707
C97	C	1.146544	-0.403709	-0.575673
C98	C	1.646544	0.096291	-0.075673
N99	N	1.192820	-0.370546	-0.641444
N100	N	1.692820	0.129454	-0.141444
C101	C	1.239120	-0.384297	-0.707230
C102	C	1.739120	0.115703	-0.207230
C103	C	1.146736	-0.830628	-0.575833
C104	C	1.646736	-0.330628	-0.075833
C105	C	1.146760	-0.877542	-0.575848
C106	C	1.646760	-0.377542	-0.075848
C107	C	1.239341	-0.858130	-0.707410
C108	C	1.739341	-0.358130	-0.207410
C109	C	1.239322	-0.811214	-0.707390
C110	C	1.739322	-0.311214	-0.207390
C111	C	1.193013	-0.797465	-0.641604
C112	C	1.693013	-0.297465	-0.141604
C113	C	1.239080	-0.285779	-0.707181
C114	C	1.739080	0.214221	-0.207181
C115	C	1.239061	-0.238864	-0.707153
C116	C	1.739061	0.261136	-0.207153
C117	C	1.146476	-0.258280	-0.575594
C118	C	1.646476	0.241720	-0.075594
C119	C	1.146499	-0.305192	-0.575620
C120	C	1.646499	0.194808	-0.075620
C121	C	1.192802	-0.318939	-0.641421
C122	C	1.692802	0.181061	-0.141421
O123	O	1.107210	-0.387658	-0.519738
O124	O	1.607210	0.112342	-0.019738
O125	O	1.278465	-0.351777	-0.763169
O126	O	1.778465	0.148223	-0.263169
C127	C	1.239198	-0.571948	-0.707308
C128	C	1.739198	-0.071948	-0.207308
C129	C	1.192916	-0.605109	-0.641542
C130	C	1.692916	-0.105109	-0.141542
C131	C	1.146616	-0.591357	-0.575756
C132	C	1.646616	-0.091357	-0.075756
C133	C	1.192940	-0.652023	-0.641557
C134	C	1.692940	-0.152023	-0.141557
C135	C	1.239240	-0.665775	-0.707343
C136	C	1.739240	-0.165775	-0.207343
C137	C	1.285516	-0.632611	-0.773114
C138	C	1.785516	-0.132611	-0.273114
C139	C	1.285498	-0.585699	-0.773094
C140	C	1.785498	-0.085699	-0.273094
C141	C	1.100340	-0.624521	-0.509985
C142	C	1.600340	-0.124521	-0.009985
C143	C	1.100362	-0.671432	-0.510011
C144	C	1.600362	-0.171432	-0.010011
C145	C	1.146663	-0.685183	-0.575797
C146	C	1.646663	-0.185183	-0.075797
C147	C	1.421342	-0.035363	-0.681111
C148	C	1.921342	0.464637	-0.181111
C149	C	1.518708	-0.025530	-0.698008
C150	C	2.018708	0.474470	-0.198008
C151	C	1.153387	-0.042104	-0.869936
C152	C	1.653387	0.457896	-0.369936
C153	C	1.136567	-0.035143	-0.967298
C154	C	1.636567	0.464857	-0.467298
C155	C	1.193000	0.058762	-0.641583
C156	C	1.693000	0.558762	-0.141583
C157	C	1.193060	0.108706	-0.641634
C158	C	1.693060	0.608706	-0.141634
C159	C	1.313103	-0.107839	-1.280506
C160	C	1.813103	0.392161	-0.780506
C161	C	1.328902	-0.114383	-1.189029
C162	C	1.828902	0.385617	-0.689029
C163	C	1.280820	-0.094573	-1.133592
C164	C	1.780820	0.405427	-0.633592
C165	C	1.216936	-0.068220	-1.169640
C166	C	1.716936	0.431780	-0.669640
C167	C	1.201130	-0.061679	-1.261126
C168	C	1.701130	0.438321	-0.761126
C169	C	1.168847	-0.048413	-1.114211
C170	C	1.668847	0.451587	-0.614211
C171	C	1.104963	-0.022059	-1.150260
C172	C	1.604963	0.477941	-0.650260
C173	C	1.089161	-0.015519	-1.241737
C174	C	1.589161	0.484481	-0.741737
C175	C	1.137243	-0.035328	-1.297174
C176	C	1.637243	0.464672	-0.797174
C177	C	1.184652	-0.054954	-1.022726
C178	C	1.684652	0.445046	-0.522726
C179	C	1.072679	-0.008793	-1.003346
C180	C	1.572679	0.491207	-0.503346
C181	C	1.056880	-0.002250	-1.094823
C182	C	1.556880	0.497750	-0.594823
C183	C	1.232226	-0.074672	-0.413886
C184	C	1.732226	0.425328	0.086114
C185	C	1.249216	-0.081489	-0.316554
C186	C	1.749216	0.418511	0.183446
H187	H	1.276756	-0.211863	-0.760711
H188	H	1.776756	0.288137	-0.260711
H189	H	1.293687	-0.099903	-1.059107
H190	H	1.793687	0.400097	-0.559107
F191	F	1.021494	0.012285	-0.944349
F192	F	1.521494	0.512285	-0.444349
F193	F	1.288362	-0.300403	-0.777214
F194	F	1.788362	0.199597	-0.277214
F195	F	0.850885	-0.023465	-0.701491
F196	F	1.350885	0.476535	-0.201491
H197	H	0.509670	0.034651	-0.801324
H198	H	1.009670	0.534651	-0.301324
H199	H	1.352239	-0.123969	-1.325649
H200	H	1.852239	0.376031	-0.825649
H201	H	0.776174	0.000500	-0.742639
H202	H	1.276174	0.500500	-0.242639
F203	F	1.334703	-0.409675	-0.843038
F204	F	1.834703	0.090325	-0.343038
F205	F	1.120434	-0.028364	-1.394537
F206	F	1.620434	0.471636	-0.894537
H207	H	0.564056	-0.149409	-0.485356
H208	H	1.064056	0.350591	0.014644
H209	H	0.675647	0.051434	-0.830104
H210	H	1.175647	0.551434	-0.330104
H211	H	1.062592	-0.557686	-0.456388
H212	H	1.562592	-0.057686	0.043612
F213	F	1.288618	-0.872773	-0.777424
F214	F	1.788618	-0.372773	-0.277424
H215	H	0.463529	-0.098465	-0.572826
H216	H	0.963529	0.401535	-0.072826
H217	H	1.277012	-0.784216	-0.760946
H218	H	1.777012	-0.284216	-0.260946
F219	F	0.701912	-0.177565	-0.436978
F220	F	1.201912	0.322435	0.063022
F221	F	1.097204	-0.243636	-0.505583
F222	F	1.597204	0.256364	-0.005583
H223	H	0.876922	-0.151459	-0.481774
H224	H	1.376922	0.348541	0.018226
F225	F	1.021140	0.012511	-1.280095
F226	F	1.521140	0.512511	-0.780095
H227	H	1.236673	-0.076408	-0.993385
H228	H	1.736673	0.423592	-0.493385
H229	H	1.323164	-0.503065	-0.826628
H230	H	1.823164	-0.003065	-0.326628
H231	H	1.062549	-0.472583	-0.456366
H232	H	1.562549	0.027417	0.043634
F233	F	1.097509	-0.912831	-0.505838
F234	F	1.597509	-0.412831	-0.005838
F235	F	0.988891	0.025797	-1.133200
F236	F	1.488891	0.525797	-0.633200
H237	H	1.109025	-0.819437	-0.522260
H238	H	1.609025	-0.319437	-0.022260
H239	H	1.380909	-0.135845	-1.159683
H240	H	1.880909	0.364155	-0.659683
H241	H	1.108817	-0.332193	-0.522059
H242	H	1.608817	0.167807	-0.022059
F243	F	1.334796	-0.647255	-0.843126
F244	F	1.834796	-0.147255	-0.343126
F245	F	1.334762	-0.550411	-0.843097
F246	F	1.834762	-0.050411	-0.343097
F247	F	1.051053	-0.609893	-0.439966
F248	F	1.551053	-0.109893	0.060034
F249	F	1.051099	-0.706721	-0.440001
F250	F	1.551099	-0.206721	0.059999
