data_functionalizedCrystal
_audit_creation_method	'MofGen! by Chris Wilmer'
_symmetry_space_group_name_H-M	'P1'
_symmetry_Int_Tables_number	1
_symmetry_cell_setting	triclinic
loop_
_symmetry_equiv_pos_as_xyz
  x,y,z
_cell_length_a	6.817900
_cell_length_b	16.418049
_cell_length_c	9.514088
_cell_angle_alpha	91.371721
_cell_angle_beta	118.843545
_cell_angle_gamma	103.389670
loop_
_atom_site_label
_atom_site_type_symbol
_atom_site_fract_x
_atom_site_fract_y
_atom_site_fract_z
V1	V	-4.217234	-0.117373	-0.501316
O2	O	-4.201371	0.004112	-0.491191
O3	O	-4.167208	-0.231261	-0.498447
O4	O	-4.252014	-0.116238	-0.719702
O5	O	-4.115978	-0.111707	-0.268404
V6	V	-4.690294	-0.102762	-0.473390
O7	O	-4.501443	-0.149421	-0.562574
O8	O	-4.856282	-0.070714	-0.412132
O9	O	-4.517113	0.011126	-0.476259
O10	O	-4.823554	-0.224247	-0.483515
O11	O	-4.908947	-0.108428	-0.706301
O12	O	-4.432307	-0.103897	-0.255004
C13	C	-4.009122	-0.259003	-0.490683
C14	C	-4.050061	-0.352112	-0.489793
C15	C	-4.329385	-0.570620	-0.495809
C16	C	-4.367846	-0.658106	-0.494987
C17	C	-3.997504	-0.649515	-0.478907
C18	C	-3.959054	-0.562030	-0.479741
C19	C	-4.124996	-0.522585	-0.488184
C20	C	-4.201907	-0.697556	-0.486528
C21	C	-4.243607	-0.792413	-0.485636
C22	C	-4.083297	-0.427722	-0.489078
C23	C	-4.117298	-0.112279	-0.772913
C24	C	-4.227008	-0.112104	-0.951448
C25	C	-4.338539	0.038864	-0.484018
C26	C	-4.276842	0.131972	-0.484919
C27	C	-4.230361	-0.107859	-0.201784
C28	C	-4.099890	-0.108029	-0.023247
H29	H	-3.792612	-0.522919	-0.473537
O30	O	-3.870015	-0.104184	-0.933782
C31	C	-3.568121	-0.170001	-0.890417
C32	C	-3.828524	-0.174466	-0.991840
H33	H	-3.534483	-0.226807	-0.937340
H34	H	-3.517512	-0.170916	-0.757551
H35	H	-3.459545	-0.108928	-0.901342
H36	H	-3.937278	-0.235531	-0.981050
H37	H	-3.878946	-0.173503	-1.124663
H38	H	-4.419785	-0.115462	-1.026572
O39	O	-4.566150	-0.704833	-0.502152
C40	C	-4.733015	-0.796756	-0.370628
C41	C	-4.508246	-0.743891	-0.362331
H42	H	-4.686281	-0.828334	-0.257582
H43	H	-4.834190	-0.847498	-0.483525
H44	H	-4.844999	-0.753518	-0.376878
H45	H	-4.396082	-0.787062	-0.356020
H46	H	-4.407250	-0.693142	-0.249452
O47	O	-4.490322	-0.532238	-0.503735
C48	C	-4.570353	-0.426636	-0.374222
C49	C	-4.387871	-0.470043	-0.365018
H50	H	-4.487578	-0.376331	-0.262101
H51	H	-4.723043	-0.475954	-0.379434
H52	H	-4.635505	-0.395450	-0.488026
H53	H	-4.322533	-0.501228	-0.251224
H54	H	-4.235313	-0.420690	-0.359895
H55	H	-3.862403	-0.681642	-0.472029
