data_functionalizedCrystal
_audit_creation_method	'MofGen! by Chris Wilmer'
_symmetry_space_group_name_H-M	'P1'
_symmetry_Int_Tables_number	1
_symmetry_cell_setting	triclinic
loop_
_symmetry_equiv_pos_as_xyz
  x,y,z
_cell_length_a	23.532407
_cell_length_b	23.532407
_cell_length_c	22.610064
_cell_angle_alpha	90.000603
_cell_angle_beta	89.997161
_cell_angle_gamma	97.151322
loop_
_atom_site_label
_atom_site_type_symbol
_atom_site_fract_x
_atom_site_fract_y
_atom_site_fract_z
O1	O	0.755263	-0.069127	-0.049117
O2	O	1.255263	0.430873	0.450883
O3	O	0.589400	-0.079130	-0.049135
O4	O	1.089400	0.420870	0.450865
O5	O	0.677333	0.008803	-0.049114
O6	O	1.177333	0.508803	0.450886
O7	O	0.667330	-0.157060	-0.049137
O8	O	1.167330	0.342940	0.450863
O9	O	0.677318	0.008790	0.049255
O10	O	1.177318	0.508790	0.549255
O11	O	0.589385	-0.079143	0.049234
O12	O	1.089385	0.420857	0.549234
O13	O	0.755248	-0.069140	0.049252
O14	O	1.255248	0.430860	0.549252
Zn15	Zn	0.672314	-0.074144	0.064862
Zn16	Zn	1.172314	0.425856	0.564862
Zn17	Zn	0.672334	-0.074127	-0.064744
Zn18	Zn	1.172334	0.425873	0.435256
O19	O	0.667315	-0.157073	0.049232
O20	O	1.167315	0.342927	0.549232
C21	C	0.568176	-0.078882	0.000048
C22	C	1.068176	0.421118	0.500048
C23	C	0.504959	-0.078116	0.000041
C24	C	1.004959	0.421884	0.500041
C25	C	0.105856	-0.125350	0.000061
C26	C	0.605856	0.374650	0.500061
C27	C	0.046456	-0.124638	0.000065
C28	C	0.546456	0.375362	0.500065
O29	O	0.009711	-0.168424	0.000081
O30	O	0.509711	0.331576	0.500081
N31	N	0.023830	-0.072362	0.000071
N32	N	0.523830	0.427638	0.500071
C33	C	0.060607	-0.020794	0.000080
C34	C	0.560607	0.479206	0.500080
O35	O	0.035908	0.023737	0.000086
O36	O	0.535908	0.523737	0.500086
C37	C	0.120006	-0.021506	0.000080
C38	C	0.620006	0.478494	0.500080
C39	C	0.142629	-0.073785	0.000068
C40	C	0.642629	0.426215	0.500068
C41	C	0.128479	-0.177625	0.000050
C42	C	0.628479	0.322375	0.500050
C43	C	0.187876	-0.178336	0.000045
C44	C	0.687876	0.321664	0.500045
C45	C	0.224649	-0.126772	0.000052
C46	C	0.724649	0.373228	0.500052
C47	C	0.202025	-0.074497	0.000063
C48	C	0.702025	0.425503	0.500063
C49	C	0.156783	0.030062	0.000093
C50	C	0.656783	0.530062	0.500093
C51	C	0.216185	0.029345	0.000094
C52	C	0.716185	0.529345	0.500094
C53	C	0.238808	-0.022934	0.000082
C54	C	0.738808	0.477066	0.500082
C55	C	0.298194	-0.023643	0.000065
C56	C	0.798194	0.476357	0.500065
N57	N	0.320820	-0.075920	0.000059
N58	N	0.820820	0.424080	0.500059
C59	C	0.284048	-0.127484	0.000052
C60	C	0.784048	0.372516	0.500052
C61	C	-0.064135	-0.019302	0.000080
C62	C	0.435865	0.480698	0.500080
C63	C	-0.123533	-0.018589	0.000075
C64	C	0.376467	0.481411	0.500075
C65	C	-0.137680	-0.122434	0.000061
C66	C	0.362320	0.377566	0.500061
C67	C	-0.078281	-0.123146	0.000062
C68	C	0.421719	0.376854	0.500062
C69	C	-0.041509	-0.071578	0.000074
C70	C	0.458491	0.428422	0.500074
C71	C	0.408784	-0.128974	0.000042
C72	C	0.908784	0.371026	0.500042
C73	C	0.468186	-0.129680	0.000034
C74	C	0.968186	0.370320	0.500034
C75	C	0.482329	-0.025836	0.000051
C76	C	0.982329	0.474164	0.500051
C77	C	0.422932	-0.025129	0.000055
C78	C	0.922932	0.474871	0.500055
C79	C	0.386160	-0.076702	0.000052
C80	C	0.886160	0.423298	0.500052
O81	O	0.334974	0.020119	0.000052
O82	O	0.834974	0.520119	0.500052
O83	O	0.308755	-0.172007	0.000054
O84	O	0.808755	0.327993	0.500054
C85	C	0.677071	0.030013	0.000072
C86	C	1.177071	0.530013	0.500072
C87	C	0.676305	0.093230	0.000076
C88	C	1.176305	0.593230	0.500076
C89	C	0.776472	-0.069388	0.000069
C90	C	1.276472	0.430612	0.500069
C91	C	0.839689	-0.070154	0.000071
C92	C	1.339689	0.429846	0.500071
C93	C	0.667577	-0.178283	0.000045
C94	C	1.167577	0.321717	0.500045
C95	C	0.668343	-0.241500	0.000036
C96	C	1.168343	0.258500	0.500036
N97	N	0.672304	-0.074155	0.153314
N98	N	1.172304	0.425845	0.653314
C99	C	0.723539	0.492333	0.000049
C100	C	1.223539	0.992333	0.500049
C101	C	0.722827	0.551733	0.000044
C102	C	1.222827	1.051733	0.500044
O103	O	0.766613	0.588478	0.000027
O104	O	1.266613	1.088478	0.500027
N105	N	0.670551	0.574359	0.000039
N106	N	1.170551	1.074359	0.500039
C107	C	0.618983	0.537582	0.000032
C108	C	1.118983	1.037582	0.500032
O109	O	0.574452	0.562281	0.000027
O110	O	1.074452	1.062281	0.500027
C111	C	0.619695	0.478182	0.000033
C112	C	1.119695	0.978182	0.500033
C113	C	0.671974	0.455560	0.000044
C114	C	1.171974	0.955560	0.500044
C115	C	0.775814	0.469710	0.000060
C116	C	1.275814	0.969710	0.500060
C117	C	0.776525	0.410313	0.000065
C118	C	1.276525	0.910313	0.500065
C119	C	0.724961	0.373540	0.000060
C120	C	1.224961	0.873540	0.500060
C121	C	0.672685	0.396164	0.000050
C122	C	1.172685	0.896164	0.500050
C123	C	0.568127	0.441406	0.000022
C124	C	1.068127	0.941406	0.500022
C125	C	0.568844	0.382004	0.000021
C126	C	1.068844	0.882004	0.500021
C127	C	0.621123	0.359381	0.000033
C128	C	1.121123	0.859381	0.500033
C129	C	0.621832	0.299995	0.000050
C130	C	1.121832	0.799995	0.500050
N131	N	0.674109	0.277368	0.000056
N132	N	1.174109	0.777368	0.500056
C133	C	0.725673	0.314141	0.000061
C134	C	1.225673	0.814141	0.500061
C135	C	0.617491	0.662324	0.000031
C136	C	1.117491	1.162324	0.500031
C137	C	0.616778	0.721722	0.000034
C138	C	1.116778	1.221722	0.500034
C139	C	0.720623	0.735869	0.000045
C140	C	1.220623	1.235869	0.500045
C141	C	0.721335	0.676470	0.000046
C142	C	1.221335	1.176470	0.500046
C143	C	0.669767	0.639698	0.000036
C144	C	1.169767	1.139698	0.500036
C145	C	0.727163	0.189405	0.000073
C146	C	1.227163	0.689405	0.500073
C147	C	0.727869	0.130003	0.000081
C148	C	1.227869	0.630003	0.500081
C149	C	0.624025	0.115860	0.000067
C150	C	1.124025	0.615860	0.500067
C151	C	0.623318	0.175257	0.000062
C152	C	1.123318	0.675257	0.500062
C153	C	0.674891	0.212029	0.000063
C154	C	1.174891	0.712029	0.500063
O155	O	0.578070	0.263215	0.000065
O156	O	1.078070	0.763215	0.500065
O157	O	0.770196	0.289433	0.000058
O158	O	1.270196	0.789433	0.500058
N159	N	0.672349	-0.074111	-0.153196
N160	N	1.172349	0.425889	0.346804
C161	C	0.711273	-0.035196	0.561965
C162	C	1.211273	0.464804	1.061965
C163	C	0.711276	-0.035192	0.623884
C164	C	1.211276	0.464808	1.123884
O165	O	0.744384	-0.002076	0.655911
O166	O	1.244384	0.497924	1.155911
N167	N	0.672334	-0.074115	0.654851
N168	N	1.172334	0.425885	1.154851
C169	C	0.633383	-0.113041	0.623895
C170	C	1.133383	0.386959	1.123895
O171	O	0.600259	-0.146147	0.655920
O172	O	1.100259	0.353853	1.155920
C173	C	0.633377	-0.113042	0.561976
C174	C	1.133377	0.386958	1.061976
C175	C	0.672326	-0.074120	0.531013
C176	C	1.172326	0.425880	1.031013
C177	C	0.750218	0.003724	0.531001
C178	C	1.250218	0.503724	1.031001
C179	C	0.750215	0.003719	0.469085
C180	C	1.250215	0.503719	0.969085
C181	C	0.711268	-0.035206	0.438133
C182	C	1.211268	0.464794	0.938133
C183	C	0.672323	-0.074125	0.469097
C184	C	1.172323	0.425875	0.969097
C185	C	0.594424	-0.151965	0.531021
C186	C	1.094424	0.348035	1.031021
C187	C	0.594422	-0.151962	0.469098
C188	C	1.094422	0.348038	0.969098
C189	C	0.633370	-0.113040	0.438134
C190	C	1.133370	0.386960	0.938134
C191	C	0.633374	-0.113054	0.376229
C192	C	1.133374	0.386946	0.876229
N193	N	0.672316	-0.074131	0.345262
N194	N	1.172316	0.425869	0.845262
C195	C	0.711263	-0.035207	0.376214
C196	C	1.211263	0.464793	0.876214
C197	C	0.633396	-0.113035	0.753928
C198	C	1.133396	0.386965	1.253928
C199	C	0.633403	-0.113037	0.815846
C200	C	1.133403	0.386963	1.315846
C201	C	0.711296	-0.035187	0.815831
C202	C	1.211296	0.464813	1.315831
C203	C	0.711291	-0.035188	0.753913
C204	C	1.211291	0.464812	1.253913
C205	C	0.672338	-0.074112	0.722962
C206	C	1.172338	0.425888	1.222962
C207	C	0.711255	-0.035220	0.246187
C208	C	1.211255	0.464780	0.746187
C209	C	0.711251	-0.035230	0.184266
C210	C	1.211251	0.464770	0.684266
C211	C	0.633357	-0.113078	0.184286
C212	C	1.133357	0.386922	0.684286
C213	C	0.633363	-0.113071	0.246202
C214	C	1.133363	0.386929	0.746202
C215	C	0.672314	-0.074137	0.277151
C216	C	1.172314	0.425863	0.777151
O217	O	0.600281	-0.146152	0.344163
O218	O	1.100281	0.353848	0.844163
O219	O	0.744376	-0.002101	0.344182
O220	O	1.244376	0.497899	0.844182
H221	H	0.486602	-0.172255	0.000024
H222	H	0.986602	0.327745	0.500024
H223	H	0.525555	0.459814	0.000009
H224	H	1.025555	0.959814	0.500009
H225	H	-0.059867	-0.165717	0.000055
H226	H	0.440133	0.334283	0.500055
C227	C	0.552104	-0.194131	0.564702
C228	C	1.052104	0.305869	1.064702
C229	C	0.517426	-0.163966	0.600260
C230	C	1.017426	0.336034	1.100260
C231	C	0.478435	-0.202791	0.631299
C232	C	0.978435	0.297209	1.131299
H233	H	0.528854	-0.217322	0.537458
H234	H	1.028854	0.282678	1.037458
H235	H	0.572431	-0.217733	0.588890
H236	H	1.072431	0.282267	1.088890
H237	H	0.497100	-0.140373	0.576073
H238	H	0.997100	0.359627	1.076073
H239	H	0.540659	-0.140777	0.627514
H240	H	1.040659	0.359223	1.127514
H241	H	0.498762	-0.226394	0.655487
H242	H	0.998762	0.273606	1.155487
H243	H	0.455190	-0.225981	0.604051
H244	H	0.955190	0.274019	1.104051
H245	H	0.454905	-0.182331	0.655432
H246	H	0.954905	0.317669	1.155432
H247	H	0.742973	-0.003516	0.271379
H248	H	1.242973	0.496484	0.771379
C249	C	0.088589	-0.233633	-0.000083
C250	C	0.588589	0.266367	0.499917
C251	C	0.098774	-0.265109	-0.050707
C252	C	0.598774	0.234891	0.449293
C253	C	0.062037	-0.316707	-0.050859
C254	C	0.562037	0.183293	0.449141
H255	H	0.095383	-0.255158	0.034175
H256	H	0.595383	0.244842	0.534175
H257	H	0.049960	-0.225757	-0.000116
H258	H	0.549960	0.274243	0.499884
H259	H	0.137393	-0.272987	-0.050669
H260	H	0.637393	0.227013	0.449331
H261	H	0.091976	-0.243601	-0.084973
H262	H	0.591976	0.256399	0.415027
H263	H	0.023409	-0.308830	-0.050891
H264	H	0.523409	0.191170	0.449109
H265	H	0.068834	-0.338226	-0.016599
H266	H	0.568834	0.161774	0.483401
H267	H	0.068939	-0.338067	-0.085209
H268	H	0.568939	0.161933	0.414791
H269	H	0.601648	-0.144772	0.159075
H270	H	1.101648	0.355228	0.659075
H271	H	0.819097	0.391900	0.000072
H272	H	1.319097	0.891900	0.500072
C273	C	0.568000	0.075994	-0.000035
C274	C	1.068000	0.575994	0.499965
C275	C	0.536509	0.086181	-0.050645
C276	C	1.036509	0.586181	0.449355
C277	C	0.484894	0.049471	-0.050761
C278	C	0.984894	0.549471	0.449239
H279	H	0.575836	0.037361	-0.000064
H280	H	1.075836	0.537361	0.499936
H281	H	0.546507	0.082825	0.034245
H282	H	1.046507	0.582825	0.534245
H283	H	0.557999	0.079346	-0.084916
H284	H	1.057999	0.579346	0.415084
H285	H	0.528658	0.124808	-0.050627
H286	H	1.028658	0.624808	0.449373
H287	H	0.463400	0.056301	-0.016481
H288	H	0.963400	0.556301	0.483519
H289	H	0.492735	0.010839	-0.050788
H290	H	0.992735	0.510839	0.449212
H291	H	0.463519	0.056381	-0.085096
H292	H	0.963519	0.556381	0.414904
H293	H	0.742969	-0.003535	0.159057
H294	H	1.242969	0.496465	0.659057
C295	C	0.368800	-0.184924	-0.000059
C296	C	0.868800	0.315076	0.499941
C297	C	0.334278	-0.187537	-0.050659
C298	C	0.834278	0.312463	0.449341
C299	C	0.297433	-0.239066	-0.050772
C300	C	0.797433	0.260934	0.449228
H301	H	0.390716	-0.216203	-0.000098
H302	H	0.890716	0.283797	0.499902
H303	H	0.345299	-0.186821	0.034228
H304	H	0.845299	0.313179	0.534228
H305	H	0.357776	-0.185646	-0.084937
H306	H	0.857776	0.314354	0.415063
H307	H	0.312350	-0.156270	-0.050631
H308	H	0.812350	0.343730	0.449369
H309	H	0.273931	-0.240963	-0.016486
H310	H	0.773931	0.259037	0.483514
H311	H	0.319353	-0.270340	-0.050810
H312	H	0.819353	0.229660	0.449190
H313	H	0.274001	-0.240843	-0.085101
H314	H	0.774001	0.259157	0.414899
C315	C	0.212517	-0.235053	0.000120
C316	C	0.712517	0.264947	0.500120
C317	C	0.246218	-0.238504	0.050715
C318	C	0.746218	0.261496	0.550715
C319	C	0.268932	-0.290741	0.050797
C320	C	0.768932	0.209259	0.550797
H321	H	0.182167	-0.265710	0.000144
H322	H	0.682167	0.234290	0.500144
H323	H	0.235426	-0.237485	-0.034170
H324	H	0.735426	0.262515	0.465830
H325	H	0.223311	-0.236077	0.084996
H326	H	0.723311	0.263923	0.584996
H327	H	0.276578	-0.207859	0.050701
H328	H	0.776578	0.292141	0.550701
H329	H	0.291840	-0.293173	0.016508
H330	H	0.791840	0.206827	0.516508
H331	H	0.238578	-0.321394	0.050820
H332	H	0.738578	0.178606	0.550820
H333	H	0.291805	-0.293087	0.085123
H334	H	0.791805	0.206913	0.585123
H335	H	0.246123	0.071339	0.000104
H336	H	0.746123	0.571339	0.500104
H337	H	0.781929	0.035414	0.443878
H338	H	1.281929	0.535414	0.943878
H339	H	0.601677	-0.144736	0.728731
H340	H	1.101677	0.355264	1.228731
C341	C	0.784692	0.105553	0.000060
C342	C	1.284692	0.605553	0.500060
C343	C	0.829695	0.150475	0.000046
C344	C	1.329695	0.650475	0.500046
C345	C	0.882046	0.127976	0.000017
C346	C	1.382046	0.627976	0.500017
H347	H	0.787207	0.082687	0.034356
H348	H	1.287207	0.582687	0.534356
H349	H	0.787165	0.082690	-0.034255
H350	H	1.287165	0.582690	0.465745
H351	H	0.827224	0.173328	0.034357
H352	H	1.327224	0.673328	0.534357
H353	H	0.827199	0.173345	-0.034248
H354	H	1.327199	0.673345	0.465752
H355	H	0.884519	0.105113	-0.034298
H356	H	1.384519	0.605113	0.465702
H357	H	0.884555	0.105110	0.034314
H358	H	1.384555	0.605110	0.534314
H359	H	0.912587	0.158452	0.000001
H360	H	1.412587	0.658452	0.500001
C361	C	0.132312	0.086867	0.000020
C362	C	0.632312	0.586867	0.500020
C363	C	0.151050	0.118036	-0.050573
C364	C	0.651050	0.618036	0.449427
C365	C	0.128528	0.170375	-0.050654
C366	C	0.628528	0.670375	0.449346
H367	H	0.091672	0.079999	-0.000010
H368	H	0.591672	0.579999	0.499990
H369	H	0.144976	0.108102	0.034312
H370	H	0.644976	0.608102	0.534312
H371	H	0.138383	0.096806	-0.084856
H372	H	0.638383	0.596806	0.415144
H373	H	0.191687	0.124920	-0.050554
H374	H	0.691687	0.624920	0.449446
H375	H	0.141192	0.191610	-0.016362
H376	H	0.641192	0.691610	0.483638
H377	H	0.087888	0.163501	-0.050682
H378	H	0.587888	0.663501	0.449318
H379	H	0.141242	0.191531	-0.084978
H380	H	0.641242	0.691531	0.415022
C381	C	0.792445	0.045961	0.564706
C382	C	1.292445	0.545961	1.064706
C383	C	0.784117	0.037651	0.625562
C384	C	1.284117	0.537651	1.125562
C385	C	0.823008	0.076554	0.656625
C386	C	1.323008	0.576554	1.156625
H387	H	0.830439	0.040001	0.554618
H388	H	1.330439	0.540001	1.054618
H389	H	0.786473	0.083952	0.554590
H390	H	1.286473	0.583952	1.054590
H391	H	0.790094	-0.000331	0.635674
H392	H	1.290094	0.499669	1.135674
H393	H	0.746131	0.043615	0.635668
H394	H	1.246131	0.543615	1.135668
H395	H	0.817036	0.114545	0.646509
H396	H	1.317036	0.614545	1.146509
H397	H	0.860999	0.070591	0.646532
H398	H	1.360999	0.570591	1.146532
H399	H	0.817359	0.070925	0.697918
H400	H	1.317359	0.570925	1.197918
H401	H	0.743005	-0.003494	0.728706
H402	H	1.243005	0.496506	1.228706
C403	C	-0.177584	-0.178439	-0.000062
C404	C	0.322416	0.321561	0.499938
C405	C	-0.167418	-0.209928	-0.050682
C406	C	0.332582	0.290072	0.449318
C407	C	-0.204173	-0.261515	-0.050821
C408	C	0.295827	0.238485	0.449179
H409	H	-0.170793	-0.199961	0.034198
H410	H	0.329207	0.300039	0.534198
H411	H	-0.216208	-0.170548	-0.000091
H412	H	0.283792	0.329452	0.499909
H413	H	-0.128804	-0.217820	-0.050648
H414	H	0.371196	0.282180	0.449352
H415	H	-0.174213	-0.188423	-0.084951
H416	H	0.325787	0.311577	0.415049
H417	H	-0.242796	-0.253624	-0.050849
H418	H	0.257204	0.246376	0.449151
H419	H	-0.197378	-0.283032	-0.016558
H420	H	0.302622	0.216968	0.483442
H421	H	-0.197284	-0.282885	-0.085168
H422	H	0.302716	0.217115	0.414832
C423	C	0.753644	0.007104	0.849337
C424	C	1.253644	0.507104	1.349337
C425	C	0.787761	0.041185	0.808973
C426	C	1.287761	0.541185	1.308973
C427	C	0.826780	0.080142	0.839818
C428	C	1.326780	0.580142	1.339818
H429	H	0.733357	0.030761	0.873495
H430	H	1.233357	0.530761	1.373495
H431	H	0.777264	-0.013248	0.873478
H432	H	1.277264	0.486752	1.373478
H433	H	0.764143	0.061536	0.784842
H434	H	1.264143	0.561536	1.284842
H435	H	0.808060	0.017545	0.784813
H436	H	1.308060	0.517545	1.284813
H437	H	0.850401	0.059789	0.863958
H438	H	1.350401	0.559789	1.363958
H439	H	0.806489	0.103794	0.863974
H440	H	1.306489	0.603794	1.363974
H441	H	0.849937	0.103267	0.812435
H442	H	1.349937	0.603267	1.312435
C443	C	0.783139	0.229349	-0.000044
C444	C	1.283139	0.729349	0.499956
C445	C	0.785788	0.263852	-0.050662
C446	C	1.285788	0.763852	0.449338
C447	C	0.837347	0.300651	-0.050789
C448	C	1.337347	0.800651	0.449211
H449	H	0.785071	0.252871	0.034218
H450	H	1.285071	0.752871	0.534218
H451	H	0.814386	0.207382	-0.000068
H452	H	1.314386	0.707382	0.499932
H453	H	0.754549	0.285818	-0.050632
H454	H	1.254549	0.785818	0.449368
H455	H	0.783866	0.240347	-0.084932
H456	H	1.283866	0.740347	0.415068
H457	H	0.868595	0.278683	-0.050813
H458	H	1.368595	0.778683	0.449187
H459	H	0.839275	0.324168	-0.016525
H460	H	1.339275	0.824168	0.483475
H461	H	0.839154	0.324061	-0.085135
H462	H	1.339154	0.824061	0.414865
C463	C	0.591056	-0.155326	0.849353
C464	C	1.091056	0.344674	1.349353
C465	C	0.556941	-0.189403	0.808986
C466	C	1.056941	0.310597	1.308986
C467	C	0.517916	-0.228359	0.839828
C468	C	1.017916	0.271641	1.339828
H469	H	0.611338	-0.178985	0.873509
H470	H	1.111338	0.321015	1.373509
H471	H	0.567434	-0.134973	0.873494
H472	H	1.067434	0.365027	1.373494
H473	H	0.580560	-0.209754	0.784854
H474	H	1.080560	0.290246	1.284854
H475	H	0.536647	-0.165759	0.784828
H476	H	1.036647	0.334241	1.284828
H477	H	0.494294	-0.208005	0.863969
H478	H	0.994294	0.291995	1.363969
H479	H	0.538202	-0.252014	0.863983
H480	H	1.038202	0.247986	1.363983
H481	H	0.494761	-0.251481	0.812443
H482	H	0.994761	0.248519	1.312443
C483	C	0.559958	0.746169	-0.000001
C484	C	1.059958	1.246169	0.499999
C485	C	0.514957	0.701244	-0.000019
C486	C	1.014957	1.201244	0.499981
C487	C	0.462605	0.723740	-0.000063
C488	C	0.962605	1.223740	0.499937
H489	H	0.557432	0.769040	0.034290
H490	H	1.057432	1.269040	0.534290
H491	H	0.557494	0.769027	-0.034321
H492	H	1.057494	1.269027	0.465679
H493	H	0.517420	0.678396	0.034298
H494	H	1.017420	1.178396	0.534298
H495	H	0.517464	0.678370	-0.034308
H496	H	1.017464	1.178370	0.465692
H497	H	0.460141	0.746598	-0.034383
H498	H	0.960141	1.246598	0.465617
H499	H	0.460085	0.746611	0.034229
H500	H	0.960085	1.246611	0.534229
H501	H	0.432065	0.693263	-0.000081
H502	H	0.932065	1.193263	0.499919
C503	C	-0.024307	0.036752	0.000052
C504	C	0.475693	0.536752	0.500052
C505	C	-0.056842	0.082680	0.000040
C506	C	0.443158	0.582680	0.500040
C507	C	-0.020176	0.134324	0.000007
C508	C	0.479824	0.634324	0.500007
H509	H	-0.000828	0.038716	0.034345
H510	H	0.499172	0.538716	0.534345
H511	H	-0.000849	0.038669	-0.034267
H512	H	0.499151	0.538669	0.465733
H513	H	-0.080290	0.080764	0.034355
H514	H	0.419710	0.580764	0.534355
H515	H	-0.080319	0.080735	-0.034250
H516	H	0.419681	0.580735	0.465750
H517	H	0.003282	0.136241	-0.034312
H518	H	0.503282	0.636241	0.465688
H519	H	0.003301	0.136282	0.034300
H520	H	0.503301	0.636282	0.534300
H521	H	-0.042245	0.165492	-0.000007
H522	H	0.457755	0.665492	0.499993
C523	C	0.831865	0.509534	0.000098
C524	C	1.331865	1.009534	0.500098
C525	C	0.877790	0.476996	0.000122
C526	C	1.377790	0.976996	0.500122
C527	C	0.929437	0.513658	0.000171
C528	C	1.429437	1.013658	0.500171
H529	H	0.833842	0.533016	-0.034194
H530	H	1.333842	1.033016	0.465806
H531	H	0.833773	0.532990	0.034417
H532	H	1.333773	1.032990	0.534417
H533	H	0.875883	0.453550	-0.034194
H534	H	1.375883	0.953550	0.465806
H535	H	0.875833	0.453515	0.034412
H536	H	1.375833	0.953515	0.534412
H537	H	0.931345	0.537113	0.034490
H538	H	1.431345	1.037113	0.534490
H539	H	0.931408	0.537138	-0.034122
H540	H	1.431408	1.037138	0.465878
H541	H	0.960603	0.491586	0.000193
H542	H	1.460603	0.991586	0.500193
H543	H	-0.141947	0.023982	0.000076
H544	H	0.358053	0.523982	0.500076
H545	H	0.562700	-0.183658	0.443901
H546	H	1.062700	0.316342	0.943901
C547	C	0.512792	0.342174	0.000041
C548	C	1.012792	0.842174	0.500041
C549	C	0.466861	0.374706	0.000045
C550	C	0.966861	0.874706	0.500045
C551	C	0.415219	0.338036	0.000072
C552	C	0.915219	0.838036	0.500072
H553	H	0.510836	0.318694	-0.034252
H554	H	1.010836	0.818694	0.465748
H555	H	0.510870	0.318718	0.034360
H556	H	1.010870	0.818718	0.534360
H557	H	0.468782	0.398152	-0.034270
H558	H	0.968782	0.898152	0.465730
H559	H	0.468798	0.398185	0.034336
H560	H	0.968798	0.898185	0.534336
H561	H	0.413297	0.314580	0.034391
H562	H	0.913297	0.814580	0.534391
H563	H	0.413269	0.314557	-0.034221
H564	H	0.913269	0.814557	0.465779
H565	H	0.384049	0.360103	0.000080
H566	H	0.884049	0.860103	0.500080
H567	H	0.404512	0.017441	0.000056
H568	H	0.904512	0.517441	0.500056
C569	C	0.591012	-0.155353	0.279716
C570	C	1.091012	0.344647	0.779716
C571	C	0.556894	-0.189432	0.239353
C572	C	1.056894	0.310568	0.739353
C573	C	0.517863	-0.228378	0.270200
C574	C	1.017863	0.271622	0.770200
H575	H	0.611289	-0.179011	0.303879
H576	H	1.111289	0.320989	0.803879
H577	H	0.567392	-0.134992	0.303853
H578	H	1.067392	0.365008	0.803853
H579	H	0.580511	-0.209792	0.215227
H580	H	1.080511	0.290208	0.715227
H581	H	0.536605	-0.165789	0.215190
H582	H	1.036605	0.334211	0.715190
H583	H	0.494243	-0.208017	0.294337
H584	H	0.994243	0.291983	0.794337
H585	H	0.538145	-0.252032	0.294362
H586	H	1.038145	0.247968	0.794362
H587	H	0.494706	-0.251502	0.242819
H588	H	0.994706	0.248498	0.742819
H589	H	0.512280	0.016146	0.000054
H590	H	1.012280	0.516146	0.500054
C591	C	0.561542	0.622335	0.000121
C592	C	1.061542	1.122335	0.500121
C593	C	0.558912	0.587811	0.050723
C594	C	1.058912	1.087811	0.550723
C595	C	0.507385	0.550964	0.050821
C596	C	1.007385	1.050964	0.550821
H597	H	0.530262	0.644249	0.000149
H598	H	1.030262	1.144249	0.500149
H599	H	0.559657	0.598834	-0.034164
H600	H	1.059657	1.098834	0.465836
H601	H	0.560791	0.611308	0.084999
H602	H	1.060791	1.111308	0.584999
H603	H	0.590180	0.565884	0.050706
H604	H	1.090180	1.065884	0.550706
H605	H	0.505500	0.527464	0.016536
H606	H	1.005500	1.027464	0.516536
H607	H	0.476109	0.572883	0.050847
H608	H	0.976109	1.072883	0.550847
H609	H	0.505597	0.527532	0.085151
H610	H	1.005597	1.027532	0.585151
C611	C	0.566601	0.199903	-0.000037
C612	C	1.066601	0.699903	0.499963
C613	C	0.563174	0.233595	-0.050645
C614	C	1.063174	0.733595	0.449355
C615	C	0.510938	0.256310	-0.050758
C616	C	1.010938	0.756310	0.449242
H617	H	0.535943	0.169553	-0.000067
H618	H	1.035943	0.669553	0.499933
H619	H	0.564154	0.222818	0.034244
H620	H	1.064154	0.722818	0.534244
H621	H	0.565615	0.210681	-0.084917
H622	H	1.065615	0.710681	0.415083
H623	H	0.593820	0.263954	-0.050625
H624	H	1.093820	0.763954	0.449375
H625	H	0.508491	0.279226	-0.016477
H626	H	1.008491	0.779226	0.483523
H627	H	0.480284	0.225957	-0.050787
H628	H	0.980284	0.725957	0.449213
H629	H	0.508608	0.279177	-0.085092
H630	H	1.008608	0.779177	0.414908
H631	H	0.763906	0.658056	0.000054
H632	H	1.263906	1.158056	0.500054
H633	H	0.762610	0.765821	0.000047
H634	H	1.262610	1.265821	0.500047
