data_functionalizedCrystal
_audit_creation_method	'MofGen! by Chris Wilmer'
_symmetry_space_group_name_H-M	'P1'
_symmetry_Int_Tables_number	1
_symmetry_cell_setting	triclinic
loop_
_symmetry_equiv_pos_as_xyz
  x,y,z
_cell_length_a	17.077404
_cell_length_b	17.077402
_cell_length_c	18.215407
_cell_angle_alpha	89.989341
_cell_angle_beta	89.989808
_cell_angle_gamma	90.021402
loop_
_atom_site_label
_atom_site_type_symbol
_atom_site_fract_x
_atom_site_fract_y
_atom_site_fract_z
Zn1	Zn	-1.199973	0.312700	0.416123
Zn2	Zn	-0.699973	0.812700	0.916123
Zn3	Zn	-1.199899	0.443936	0.293060
Zn4	Zn	-0.699899	0.943936	0.793060
Zn5	Zn	-1.068727	0.312681	0.293070
Zn6	Zn	-0.568727	0.812681	0.793070
Zn7	Zn	-1.068670	0.443921	0.416085
Zn8	Zn	-0.568670	0.943921	0.916085
O9	O	-1.134317	0.378309	0.354584
O10	O	-0.634317	0.878309	0.854584
O11	O	-1.309810	0.330122	0.399810
O12	O	-0.809810	0.830122	0.899810
O13	O	-1.182491	0.426524	0.190077
O14	O	-0.682491	0.926524	0.690077
O15	O	-1.086192	0.202837	0.309414
O16	O	-0.586192	0.702837	0.809414
O17	O	-1.309755	0.426541	0.309396
O18	O	-0.809755	0.926541	0.809396
O19	O	-1.182618	0.202850	0.399820
O20	O	-0.682618	0.702850	0.899820
O21	O	-1.086120	0.330091	0.190085
O22	O	-0.586120	0.830091	0.690085
O23	O	-0.958872	0.330077	0.309377
O24	O	-0.458872	0.830077	0.809377
O25	O	-1.086094	0.426515	0.519074
O26	O	-0.586094	0.926515	1.019074
O27	O	-0.958830	0.426497	0.399755
O28	O	-0.458830	0.926497	0.899755
O29	O	-1.182563	0.330107	0.519102
O30	O	-0.682563	0.830107	1.019102
O31	O	-1.182436	0.553781	0.309359
O32	O	-0.682436	1.053781	0.809359
O33	O	-1.086022	0.553769	0.399745
O34	O	-0.586022	1.053769	0.899745
C35	C	-0.930369	0.378284	0.354563
C36	C	-0.430369	0.878284	0.854563
C37	C	-0.843119	0.378292	0.354572
C38	C	-0.343119	0.878292	0.854572
C39	C	-0.802158	0.328175	0.401721
C40	C	-0.302158	0.828175	0.901721
C41	C	-0.720178	0.328179	0.401723
C42	C	-0.220178	0.828179	0.901723
C43	C	-0.679160	0.378304	0.354578
C44	C	-0.179160	0.878304	0.854578
C45	C	-0.720127	0.428423	0.307424
C46	C	-0.220127	0.928423	0.807424
C47	C	-0.802106	0.428414	0.307419
C48	C	-0.302106	0.928414	0.807419
C49	C	-0.549257	0.428438	0.307438
C50	C	-0.049257	0.928438	0.807438
C51	C	-0.467272	0.428447	0.307444
C52	C	0.032728	0.928447	0.807444
C53	C	-0.467329	0.328202	0.401742
C54	C	0.032671	0.828202	0.901742
C55	C	-0.549308	0.328194	0.401737
C56	C	-0.049308	0.828194	0.901737
C57	C	-0.590269	0.378314	0.354584
C58	C	-0.090269	0.878314	0.854584
C59	C	-1.134236	0.582257	0.354563
C60	C	-0.634236	1.082257	0.854563
C61	C	-1.134273	0.669507	0.354578
C62	C	-0.634273	1.169507	0.854578
C63	C	-1.134330	0.378311	0.546537
C64	C	-0.634330	0.878311	1.046537
C65	C	-1.134336	0.378312	0.628336
C66	C	-0.634336	0.878312	1.128336
C67	C	-0.339061	0.378332	0.354600
C68	C	0.160939	0.878332	0.854600
C69	C	-0.426311	0.378331	0.354593
C70	C	0.073689	0.878331	0.854593
C71	C	-1.184526	0.710477	0.307566
C72	C	-0.684526	1.210477	0.807566
C73	C	-1.184562	0.792457	0.307588
C74	C	-0.684562	1.292457	0.807588
C75	C	-1.134341	0.833466	0.354619
C76	C	-0.634341	1.333466	0.854619
C77	C	-1.084086	0.792491	0.401636
C78	C	-0.584086	1.292491	0.901636
C79	C	-1.084055	0.710512	0.401617
C80	C	-0.584055	1.210512	0.901617
C81	C	-1.084155	0.963361	0.401670
C82	C	-0.584155	1.463361	0.901670
C83	C	-1.084185	1.045345	0.401688
C84	C	-0.584185	1.545345	0.901688
C85	C	-1.184662	1.045306	0.307642
C86	C	-0.684662	1.545306	0.807642
C87	C	-1.184631	0.963327	0.307623
C88	C	-0.684631	1.463327	0.807623
C89	C	-1.134374	0.922357	0.354639
C90	C	-0.634374	1.422357	0.854639
C91	C	-1.134413	1.173565	0.354632
C92	C	-0.634413	1.673565	0.854632
C93	C	-1.134438	1.086315	0.354677
C94	C	-0.634438	1.586315	0.854677
C95	C	-1.184552	0.328121	0.816546
C96	C	-0.684552	0.828121	1.316546
C97	C	-1.184547	0.328121	0.893405
C98	C	-0.684547	0.828121	1.393405
C99	C	-1.084095	0.428515	0.893364
C100	C	-0.584095	0.928515	1.393364
C101	C	-1.084096	0.428511	0.816507
C102	C	-0.584096	0.928511	1.316507
C103	C	-1.134329	0.378315	0.778100
C104	C	-0.634329	0.878315	1.278100
C105	C	-1.134324	0.378319	0.931816
C106	C	-0.634324	0.878319	1.431816
C107	C	-1.134318	0.378319	1.015149
C108	C	-0.634318	0.878319	1.515149
C109	C	-1.134333	0.378314	0.694761
C110	C	-0.634333	0.878314	1.194761
C111	C	-1.134304	0.378324	1.163378
C112	C	-0.634304	0.878324	1.663378
C113	C	-1.134316	0.378322	1.081579
C114	C	-0.634316	0.878322	1.581579
H115	H	-0.835549	0.287360	0.440114
H116	H	-0.335549	0.787360	0.940114
C117	C	-1.028863	0.918296	0.453385
C118	C	-0.528863	1.418296	0.953385
N119	N	-0.987213	0.884352	0.492330
N120	N	-0.487213	1.384352	0.992330
C121	C	-0.675125	0.273049	0.453593
C122	C	-0.175125	0.773049	0.953593
N123	N	-0.641191	0.231523	0.492665
N124	N	-0.141191	0.731523	0.992665
C125	C	-0.422270	0.273072	0.453615
C126	C	0.077730	0.773072	0.953615
N127	N	-0.388328	0.231554	0.492687
N128	N	0.111672	0.731554	0.992687
H129	H	-1.043199	0.825887	0.439932
H130	H	-0.543199	1.325887	0.939932
C131	C	-1.028948	1.090454	0.453432
C132	C	-0.528948	1.590454	0.953432
N133	N	-0.987345	1.124429	0.492409
N134	N	-0.487345	1.624429	0.992409
H135	H	-1.043135	0.677155	0.439900
H136	H	-0.543135	1.177155	0.939900
H137	H	-1.043193	0.469384	0.785203
H138	H	-0.543193	0.969384	1.285203
C139	C	-1.239802	0.272898	0.774301
C140	C	-0.739802	0.772898	1.274301
N141	N	-1.281415	0.231299	0.742483
N142	N	-0.781415	0.731299	1.242483
H143	H	-0.686723	0.469232	0.269034
H144	H	-0.186723	0.969232	0.769034
H145	H	-0.582703	0.287383	0.440131
H146	H	-0.082703	0.787383	0.940131
C147	C	-1.028841	0.483726	0.935619
C148	C	-0.528841	0.983726	1.435619
N149	N	-0.987222	0.525312	0.967445
N150	N	-0.487222	1.025312	1.467445
C151	C	-0.594312	0.483575	0.255568
C152	C	-0.094312	0.983575	0.755568
N153	N	-0.628247	0.525107	0.216504
N154	N	-0.128247	1.025107	0.716504
C155	C	-0.422154	0.483586	0.255581
C156	C	0.077846	0.983586	0.755581
N157	N	-0.388171	0.525117	0.216517
N158	N	0.111829	1.025117	0.716517
H159	H	-0.835455	0.469224	0.269025
H160	H	-0.335455	0.969224	0.769025
H161	H	-1.225442	0.287247	0.924704
H162	H	-0.725442	0.787247	1.424704
H163	H	-1.225418	0.677093	0.269266
H164	H	-0.725418	1.177093	0.769266
H165	H	-1.225482	0.825812	0.269306
H166	H	-0.725482	1.325812	0.769306
H167	H	-1.225520	0.929938	0.269324
H168	H	-0.725520	1.429938	0.769324
C169	C	-1.239951	1.090375	0.255929
C170	C	-0.739951	1.590375	0.755929
N171	N	-1.281593	1.124324	0.216981
N172	N	-0.781593	1.624324	0.716981
