data_functionalizedCrystal
_audit_creation_method	'MofGen! by Chris Wilmer'
_symmetry_space_group_name_H-M	'P1'
_symmetry_Int_Tables_number	1
_symmetry_cell_setting	triclinic
loop_
_symmetry_equiv_pos_as_xyz
  x,y,z
_cell_length_a	10.654550
_cell_length_b	10.654550
_cell_length_c	9.130313
_cell_angle_alpha	90.002847
_cell_angle_beta	90.000488
_cell_angle_gamma	84.484931
loop_
_atom_site_label
_atom_site_type_symbol
_atom_site_fract_x
_atom_site_fract_y
_atom_site_fract_z
O1	O	-1.667840	-0.176396	-0.121690
O2	O	-1.302362	-0.193202	-0.121716
O3	O	-1.493504	-0.002060	-0.121693
O4	O	-1.476698	-0.367538	-0.121713
O5	O	-1.493489	-0.002060	0.121906
O6	O	-1.302347	-0.193202	0.121882
O7	O	-1.667826	-0.176396	0.121909
Cu8	Cu	-1.485085	-0.184799	0.144138
Cu9	Cu	-1.485102	-0.184799	-0.143946
O10	O	-1.476683	-0.367538	0.121886
C11	C	-1.255556	-0.191968	0.000080
C12	C	-1.116113	-0.188276	0.000070
C13	C	-1.492263	0.044738	0.000105
C14	C	-1.488571	0.184181	0.000103
C15	C	-1.714631	-0.177630	0.000110
C16	C	-1.854074	-0.181322	0.000110
C17	C	-1.036628	-0.300818	0.000068
C18	C	-0.905607	-0.297341	0.000093
C19	C	-0.933570	-0.068772	0.000117
C20	C	-1.064588	-0.072250	0.000101
C21	C	-1.477925	-0.414336	0.000084
C22	C	-1.481616	-0.553779	0.000077
N23	N	-1.485082	-0.184798	0.346761
C24	C	-1.601112	0.263667	0.000111
C25	C	-1.597636	0.394688	0.000092
C26	C	-1.369066	0.366725	0.000065
C27	C	-1.372544	0.235706	0.000073
N28	N	-1.485115	-0.184790	-0.346568
C29	C	-1.561913	-0.261680	0.423409
C30	C	-1.561934	-0.261673	0.576746
C31	C	-1.408281	-0.107899	0.576773
C32	C	-1.408268	-0.107900	0.423439
H33	H	-1.078574	-0.395294	0.000053
H34	H	-0.840894	-0.388984	0.000095
H35	H	-1.624499	-0.324277	0.639146
C36	C	-1.276388	0.022445	0.000057
C37	C	-1.248830	0.148323	0.000058
H38	H	-1.200015	-0.031500	0.000033
H39	H	-1.323895	0.006729	0.085009
H40	H	-1.323929	0.006732	-0.084889
H41	H	-1.201297	0.164038	0.085009
H42	H	-1.201303	0.164045	-0.084903
C43	C	-1.713804	-0.413667	0.438789
C44	C	-1.646358	-0.346193	0.339123
H45	H	-1.765945	-0.465834	0.386755
H46	H	-1.656459	-0.464592	0.498595
H47	H	-1.764765	-0.356330	0.498595
H48	H	-1.595389	-0.403530	0.279324
H49	H	-1.703710	-0.295264	0.279292
C50	C	-1.726345	0.558223	-0.125137
C51	C	-1.721347	0.482056	0.000099
H52	H	-1.802728	0.612153	-0.125137
H53	H	-1.656763	0.607662	-0.125141
H54	H	-1.722955	0.506504	-0.210068
H55	H	-1.724728	0.533774	0.085031
H56	H	-1.790949	0.432612	0.000117
C57	C	-1.256373	0.044096	0.438855
C58	C	-1.323805	-0.023388	0.339176
H59	H	-1.204230	0.096262	0.386831
H60	H	-1.313726	0.095022	0.498654
H61	H	-1.205415	-0.013235	0.498667
H62	H	-1.374770	0.033943	0.279371
H63	H	-1.266444	-0.074318	0.279351
H64	H	-0.891602	0.025693	0.000151
H65	H	-1.695588	0.221720	0.000132
H66	H	-1.274601	0.408693	0.000043
H67	H	-1.345740	-0.045293	0.639223
C68	C	-1.079080	0.154041	0.000109
C69	C	-1.151970	0.051466	0.000097
H70	H	-1.133028	0.230411	0.000101
H71	H	-1.027406	0.150645	0.085057
H72	H	-1.027387	0.150639	-0.084840
H73	H	-1.203656	0.054863	0.085052
H74	H	-1.203666	0.054863	-0.084860
