data_functionalizedCrystal
_audit_creation_method	'MofGen! by Chris Wilmer'
_symmetry_space_group_name_H-M	'P1'
_symmetry_Int_Tables_number	1
_symmetry_cell_setting	triclinic
loop_
_symmetry_equiv_pos_as_xyz
  x,y,z
_cell_length_a	21.295418
_cell_length_b	21.295417
_cell_length_c	12.759393
_cell_angle_alpha	89.962952
_cell_angle_beta	89.958063
_cell_angle_gamma	90.045515
loop_
_atom_site_label
_atom_site_type_symbol
_atom_site_fract_x
_atom_site_fract_y
_atom_site_fract_z
Zn1	Zn	0.962348	-0.250313	-0.594561
Zn2	Zn	0.962255	-0.355595	-0.418861
Zn3	Zn	0.857075	-0.250373	-0.418832
Zn4	Zn	0.857042	-0.355577	-0.594434
O5	O	0.909680	-0.302964	-0.506672
O6	O	1.050425	-0.264261	-0.571320
O7	O	0.948278	-0.341669	-0.271836
O8	O	0.871092	-0.162275	-0.442184
O9	O	1.050357	-0.341612	-0.442234
O10	O	0.948436	-0.162231	-0.571291
O11	O	0.871002	-0.264363	-0.271815
O12	O	0.768981	-0.264346	-0.442060
O13	O	0.871037	-0.341581	-0.741472
O14	O	0.768957	-0.341639	-0.571075
O15	O	0.948404	-0.264244	-0.741565
O16	O	0.948246	-0.443682	-0.442110
O17	O	0.870947	-0.443669	-0.571103
C18	C	0.746128	-0.302998	-0.506551
C19	C	0.676160	-0.303027	-0.506524
C20	C	0.643298	-0.343327	-0.573601
C21	C	0.577555	-0.343311	-0.573649
C22	C	0.544678	-0.303003	-0.506600
C23	C	0.577548	-0.262695	-0.439518
C24	C	0.643290	-0.262707	-0.439480
N25	N	0.441404	-0.298091	-0.414709
N26	N	0.378952	-0.298083	-0.414748
C27	C	0.346603	-0.302962	-0.506711
N28	N	0.379065	-0.307862	-0.598637
N29	N	0.441522	-0.307873	-0.598597
C30	C	0.473392	-0.302985	-0.506634
C31	C	0.242455	-0.343248	-0.573845
C32	C	0.176711	-0.343228	-0.573894
C33	C	0.176706	-0.262614	-0.439754
C34	C	0.242448	-0.262631	-0.439715
C35	C	0.275319	-0.302951	-0.506759
C36	C	0.909600	-0.466516	-0.506619
C37	C	0.909623	-0.536484	-0.506631
C38	C	0.949873	-0.569271	-0.573906
C39	C	0.949895	-0.635013	-0.573931
C40	C	0.909674	-0.667967	-0.506664
C41	C	0.869416	-0.635172	-0.439385
C42	C	0.869391	-0.569431	-0.439369
N43	N	0.904916	-0.771236	-0.414715
N44	N	0.904944	-0.833688	-0.414734
C45	C	0.909748	-0.866041	-0.506712
N46	N	0.914534	-0.833584	-0.598673
N47	N	0.914510	-0.771127	-0.598653
C48	C	0.909697	-0.739252	-0.506675
C49	C	0.950024	-0.970113	-0.574020
C50	C	0.950042	-1.035857	-0.574048
C51	C	0.869566	-1.036015	-0.439492
C52	C	0.869545	-0.970272	-0.439474
C53	C	0.909777	-0.937326	-0.506736
C54	C	1.073870	-0.302932	-0.506794
C55	C	1.143839	-0.302918	-0.506846
C56	C	0.909727	-0.302904	-0.780706
C57	C	0.909747	-0.302878	-0.897482
C58	C	0.909778	-0.138774	-0.506748
C59	C	0.909819	-0.068806	-0.506781
C60	C	0.950036	-0.262602	-0.952395
C61	C	0.950046	-0.262575	-1.062119
C62	C	0.869478	-0.343105	-1.062009
C63	C	0.869465	-0.343129	-0.952286
C64	C	0.909669	-0.302979	-0.233705
C65	C	0.909771	-0.302828	-0.116929
H66	H	0.550775	-0.229874	-0.384928
O67	O	0.830313	-0.537482	-0.374110
C68	C	0.838930	-0.472391	-0.388496
H69	H	0.859519	-0.463349	-0.469616
H70	H	0.791772	-0.447462	-0.381265
H71	H	0.872465	-0.453728	-0.326243
O72	O	0.830460	-1.068085	-0.374298
C73	C	0.789787	-1.106115	-0.434045
H74	H	0.811970	-1.115901	-0.513711
H75	H	0.781375	-1.152374	-0.391247
H76	H	0.743127	-1.080824	-0.445490
H77	H	0.982782	-0.943287	-0.628793
O78	O	0.989212	-0.223538	-1.115579
C79	C	1.029864	-0.259354	-1.179053
H80	H	1.007636	-0.307060	-1.195449
H81	H	1.038321	-0.233693	-1.256229
H82	H	1.076506	-0.266271	-1.136811
H83	H	0.836683	-0.375877	-1.106644
O84	O	0.675294	-0.382399	-0.638790
C85	C	0.713385	-0.346613	-0.706757
H86	H	0.723259	-0.298884	-0.669840
H87	H	0.759597	-0.372272	-0.720743
H88	H	0.688100	-0.339744	-0.784645
H89	H	0.982834	-0.229826	-0.907776
O90	O	0.830308	-0.382316	-0.899100
C91	C	0.794749	-0.417830	-0.970997
H92	H	0.820539	-0.419991	-1.049234
H93	H	0.788000	-0.467434	-0.939260
H94	H	0.746956	-0.394784	-0.982634
H95	H	0.670046	-0.229888	-0.384858
O96	O	0.274472	-0.223510	-0.374643
C97	C	0.339546	-0.232176	-0.388965
H98	H	0.348557	-0.252850	-0.469978
H99	H	0.364574	-0.185025	-0.381965
H100	H	0.358127	-0.265660	-0.326536
O101	O	0.988971	-0.537365	-0.639345
C102	C	1.024514	-0.580406	-0.698709
H103	H	0.998746	-0.627297	-0.702306
H104	H	1.031200	-0.561366	-0.781496
H105	H	1.072336	-0.587360	-0.660332
H106	H	0.550793	-0.376128	-0.628275
O107	O	0.274293	-0.382426	-0.639078
C108	C	0.231186	-0.418000	-0.698285
H109	H	0.184352	-0.392209	-0.702028
H110	H	0.250229	-0.424774	-0.781031
H111	H	0.224121	-0.465781	-0.659676
O112	O	0.989173	-1.067779	-0.639255
C113	C	1.029868	-1.105778	-0.579527
H114	H	1.007690	-1.115690	-0.499867
H115	H	1.038309	-1.151977	-0.622350
H116	H	1.076513	-1.080395	-0.568066
O117	O	0.830432	-0.938517	-0.374013
C118	C	0.794924	-0.981697	-0.314663
H119	H	0.820726	-1.028532	-0.311094
H120	H	0.788230	-0.962750	-0.231866
H121	H	0.747105	-0.988726	-0.353036
H122	H	0.982666	-0.661713	-0.628726
O123	O	0.144689	-0.382317	-0.639025
C124	C	0.079615	-0.373671	-0.624670
H125	H	0.070663	-0.325063	-0.590423
H126	H	0.054678	-0.377995	-0.703369
H127	H	0.060883	-0.410962	-0.568614
O128	O	0.144757	-0.223555	-0.374485
C129	C	0.106649	-0.259350	-0.306559
H130	H	0.126406	-0.308931	-0.299945
H131	H	0.105889	-0.236542	-0.225762
H132	H	0.056838	-0.261523	-0.339042
O133	O	0.830315	-0.667249	-0.374187
C134	C	0.789645	-0.705286	-0.433928
H135	H	0.811827	-0.715071	-0.513595
H136	H	0.781240	-0.751545	-0.391126
H137	H	0.742981	-0.680000	-0.445370
