data_functionalizedCrystal
_audit_creation_method	'MofGen! by Chris Wilmer'
_symmetry_space_group_name_H-M	'P1'
_symmetry_Int_Tables_number	1
_symmetry_cell_setting	triclinic
loop_
_symmetry_equiv_pos_as_xyz
  x,y,z
_cell_length_a	12.837943
_cell_length_b	15.995350
_cell_length_c	11.892095
_cell_angle_alpha	93.891441
_cell_angle_beta	85.689438
_cell_angle_gamma	89.160657
loop_
_atom_site_label
_atom_site_type_symbol
_atom_site_fract_x
_atom_site_fract_y
_atom_site_fract_z
O1	O	1.382080	0.212847	-0.093972
O2	O	1.080275	0.202094	-0.093979
O3	O	1.239427	0.086241	-0.093975
O4	O	1.222927	0.328700	-0.093977
O5	O	1.226157	0.095884	0.094032
O6	O	1.067005	0.211737	0.094028
O7	O	1.368810	0.222490	0.094035
Zn8	Zn	1.215800	0.218644	0.123881
Zn9	Zn	1.233284	0.205939	-0.123826
O10	O	1.209657	0.338343	0.094030
C11	C	1.035019	0.203283	0.000023
C12	C	0.919942	0.192449	0.000020
C13	C	0.678983	0.322688	0.000035
C14	C	0.570857	0.312513	0.000033
C15	C	0.595563	0.161925	0.000023
C16	C	0.703688	0.172100	0.000025
C17	C	0.745394	0.252484	0.000029
C18	C	0.853523	0.262658	0.000023
C19	C	0.878225	0.112072	0.000020
C20	C	0.770100	0.101896	0.000018
C21	C	1.232110	0.059813	0.000027
C22	C	1.230066	-0.033301	0.000020
C23	C	1.222721	-0.371634	0.000024
C24	C	1.109405	-0.333265	-0.000400
C25	C	1.111421	-0.236390	0.000023
C26	C	1.226364	-0.203783	0.000021
C27	C	1.274693	-0.234893	0.107382
C28	C	1.271839	-0.331752	0.107472
C29	C	1.289271	-0.342889	-0.106327
C30	C	1.289344	-0.246018	-0.107746
C31	C	1.228429	-0.108921	0.000024
C32	C	1.220659	-0.466496	0.000029
C33	C	1.414066	0.221301	0.000030
C34	C	1.529143	0.232134	0.000025
C35	C	1.216974	0.364770	0.000026
C36	C	1.219020	0.457884	0.000025
N37	N	1.203876	0.227315	0.292935
N38	N	1.245217	0.197262	-0.292880
C39	C	1.328193	0.136877	0.529587
C40	C	1.319865	0.142945	0.647928
C41	C	1.178889	0.245514	0.647962
C42	C	1.187216	0.239446	0.529621
C43	C	1.261872	0.185127	0.470437
C44	C	1.270204	0.179064	0.352093
C45	C	1.129223	0.281628	0.352129
C46	C	1.120896	0.287696	0.470471
H47	H	1.072907	-0.215422	-0.076937
H48	H	1.060110	0.331919	0.518672
C49	C	1.057390	0.334071	0.287768
C50	C	1.117398	0.386258	0.219805
C51	C	1.051269	0.434576	0.160491
H52	H	1.011721	0.367361	0.339841
H53	H	1.017504	0.298150	0.241539
H54	H	1.157266	0.422175	0.266030
H55	H	1.163064	0.352990	0.167710
H56	H	1.011383	0.398655	0.114262
H57	H	1.005604	0.467861	0.212573
H58	H	1.091975	0.469985	0.114364
H59	H	0.932310	0.054906	0.000008
C60	C	1.097669	0.304359	0.712179
C61	C	0.997834	0.281113	0.683433
C62	C	0.922985	0.335292	0.742582
H63	H	1.110134	0.360184	0.692850
H64	H	1.102140	0.301042	0.791139
H65	H	0.993365	0.284439	0.604491
H66	H	0.985336	0.225298	0.702765
H67	H	0.927457	0.331974	0.821542
H68	H	0.935460	0.391113	0.723248
H69	H	0.855238	0.319522	0.723094
H70	H	0.887477	0.328111	0.000028
C71	C	1.045026	-0.198779	0.102775
C72	C	0.942174	-0.225929	0.097885
C73	C	0.880987	-0.191310	0.192536
H74	H	1.045895	-0.139374	0.103500
H75	H	1.072412	-0.216299	0.169580
H76	H	0.914795	-0.208404	0.031098
H77	H	0.941273	-0.285329	0.097176
H78	H	0.908373	-0.208829	0.259340
H79	H	0.881865	-0.131906	0.193252
H80	H	0.811198	-0.209732	0.189236
H81	H	0.712940	0.388139	0.000037
H82	H	0.561579	0.096485	0.000112
C83	C	1.409125	0.077778	0.465366
C84	C	1.390298	-0.004386	0.494112
C85	C	1.464825	-0.058848	0.434958
H86	H	1.476990	0.093309	0.484691
H87	H	1.404572	0.081027	0.386407
H88	H	1.394861	-0.007632	0.573053
H89	H	1.322447	-0.019943	0.474784
H90	H	1.460272	-0.055598	0.355998
H91	H	1.532685	-0.043309	0.454287
H92	H	1.452055	-0.114602	0.454445
C93	C	1.247693	-0.379893	-0.214866
C94	C	1.325951	-0.429433	-0.276408
C95	C	1.287672	-0.463544	-0.376385
H96	H	1.227264	-0.335905	-0.258829
H97	H	1.189075	-0.413429	-0.196971
H98	H	1.384552	-0.395899	-0.294306
H99	H	1.346389	-0.473434	-0.232479
H100	H	1.229053	-0.497080	-0.358489
H101	H	1.267243	-0.419551	-0.420337
H102	H	1.340760	-0.497167	-0.418148
H103	H	1.069536	-0.359360	-0.077391
H104	H	1.354712	-0.357110	0.112342
C105	C	0.498820	0.388753	-0.000200
C106	C	0.524480	0.431682	-0.096936
C107	C	0.458132	0.501916	-0.097196
H108	H	0.506782	0.424809	0.065288
H109	H	0.428438	0.371214	-0.000263
H110	H	0.594844	0.449223	-0.096863
H111	H	0.516512	0.395651	-0.162439
H112	H	0.387751	0.484377	-0.097259
H113	H	0.466099	0.537964	-0.031704
H114	H	0.475527	0.531047	-0.162835
C115	C	0.724617	0.014692	-0.000046
C116	C	0.615712	0.020804	-0.000072
C117	C	0.573782	-0.059513	-0.000150
H118	H	0.742674	-0.011294	0.065493
H119	H	0.751981	-0.017947	-0.065640
H120	H	0.588357	0.053431	0.065515
H121	H	0.597625	0.046775	-0.065607
H122	H	0.601146	-0.092153	-0.065744
H123	H	0.591847	-0.085493	0.065390
H124	H	0.499887	-0.055378	-0.000179
H125	H	1.058900	-0.352531	0.076159
H126	H	1.373869	0.103654	0.696085
C127	C	1.209842	-0.354841	0.214513
C128	C	1.175309	-0.281621	0.278500
C129	C	1.118179	-0.302853	0.377106
H130	H	1.253033	-0.386884	0.257568
H131	H	1.151305	-0.386859	0.194938
H132	H	1.233837	-0.249616	0.298077
H133	H	1.132103	-0.249568	0.235479
H134	H	1.059642	-0.334871	0.357530
H135	H	1.161377	-0.334897	0.420151
H136	H	1.094733	-0.253177	0.420528
H137	H	1.358857	-0.213825	0.111373
C138	C	1.242482	-0.219227	-0.213619
C139	C	1.246941	-0.131969	-0.216269
C140	C	1.203791	-0.107253	-0.313786
H141	H	1.171760	-0.235944	-0.213039
H142	H	1.280925	-0.244926	-0.278557
H143	H	1.208496	-0.106279	-0.151348
H144	H	1.317651	-0.115230	-0.216867
H145	H	1.242235	-0.132953	-0.378724
H146	H	1.133072	-0.123975	-0.313197
H147	H	1.206819	-0.048048	-0.315602
H148	H	1.330995	0.134837	0.303907
H149	H	1.230224	-0.205512	0.187277
H150	H	1.373623	-0.224301	-0.114230
H151	H	1.372891	-0.368019	-0.107050
