data_functionalizedCrystal
_audit_creation_method	'MofGen! by Chris Wilmer'
_symmetry_space_group_name_H-M	'P1'
_symmetry_Int_Tables_number	1
_symmetry_cell_setting	triclinic
loop_
_symmetry_equiv_pos_as_xyz
  x,y,z
_cell_length_a	10.540539
_cell_length_b	10.654550
_cell_length_c	9.730223
_cell_angle_alpha	89.999957
_cell_angle_beta	90.002267
_cell_angle_gamma	95.494789
loop_
_atom_site_label
_atom_site_type_symbol
_atom_site_fract_x
_atom_site_fract_y
_atom_site_fract_z
O1	O	0.178301	-1.667902	0.114180
O2	O	0.678301	-1.167902	0.614180
O3	O	0.195288	-1.302429	0.114205
O4	O	0.695288	-0.802429	0.614205
O5	O	0.002085	-1.493504	0.114190
O6	O	0.502085	-0.993504	0.614190
O7	O	0.371504	-1.476827	0.114195
O8	O	0.871504	-0.976827	0.614195
O9	O	0.002079	-1.493491	-0.114390
O10	O	0.502079	-0.993491	0.385610
O11	O	0.195282	-1.302417	-0.114375
O12	O	0.695282	-0.802417	0.385625
O13	O	0.178295	-1.667889	-0.114400
O14	O	0.678295	-1.167889	0.385600
Zn15	Zn	0.186788	-1.485151	-0.150679
Zn16	Zn	0.686788	-0.985151	0.349321
Zn17	Zn	0.186795	-1.485167	0.150484
Zn18	Zn	0.686795	-0.985167	0.650484
O19	O	0.371498	-1.476815	-0.114385
O20	O	0.871498	-0.976815	0.385615
C21	C	0.194038	-1.255625	-0.000082
C22	C	0.694038	-0.755625	0.499918
C23	C	0.190306	-1.116180	-0.000072
C24	C	0.690306	-0.616180	0.499928
C25	C	-0.045221	-1.492247	-0.000097
C26	C	0.454779	-0.992247	0.499903
C27	C	-0.186167	-1.488505	-0.000090
C28	C	0.313833	-0.988505	0.499910
C29	C	0.179545	-1.714694	-0.000110
C30	C	0.679545	-1.214694	0.499890
C31	C	0.183277	-1.854139	-0.000110
C32	C	0.683277	-1.354139	0.499890
C33	C	-0.369543	-1.345134	0.000433
C34	C	0.130457	-0.845134	0.500433
C35	C	-0.222926	-1.348927	-0.000082
C36	C	0.277074	-0.848927	0.499918
C37	C	-0.247852	-1.555670	-0.130624
C38	C	0.252148	-1.055670	0.369376
C39	C	-0.394395	-1.550906	-0.130734
C40	C	0.105605	-1.050906	0.369266
C41	C	-0.394908	-1.553759	0.129204
C42	C	0.105092	-1.053759	0.629204
C43	C	-0.247927	-1.555044	0.130930
C44	C	0.252073	-1.055044	0.630930
C45	C	0.418804	-1.478072	-0.000095
C46	C	0.918804	-0.978072	0.499905
C47	C	0.559750	-1.481813	-0.000093
C48	C	1.059750	-0.981813	0.499907
N49	N	0.186782	-1.485149	-0.356216
N50	N	0.686782	-0.985149	0.143784
C51	C	0.304061	-1.036735	-0.000075
C52	C	0.804061	-0.536735	0.499925
C53	C	0.300547	-0.905712	-0.000099
C54	C	0.800547	-0.405712	0.499901
C55	C	0.069513	-0.933594	-0.000112
C56	C	0.569513	-0.433594	0.499888
C57	C	0.073029	-1.064614	-0.000098
C58	C	0.573029	-0.564614	0.499902
C59	C	0.101269	-1.569786	-0.428148
C60	C	0.601269	-1.069786	0.071852
C61	C	0.101269	-1.569799	-0.572031
C62	C	0.601269	-1.069799	-0.072031
C63	C	0.272309	-1.400533	-0.572037
C64	C	0.772309	-0.900533	-0.072037
C65	C	0.272301	-1.400516	-0.428156
C66	C	0.772301	-0.900516	0.071844
N67	N	0.186791	-1.485179	0.356021
N68	N	0.686791	-0.985179	0.856021
H69	H	-0.180301	-1.296078	0.093491
H70	H	0.319699	-0.796078	0.593491
H71	H	0.341938	-1.331628	-0.630625
H72	H	0.841938	-0.831628	-0.130625
F73	F	0.010251	-1.659878	-0.648582
F74	F	0.510251	-1.159878	-0.148582
F75	F	0.010249	-1.659857	-0.351589
F76	F	0.510249	-1.159857	0.148411
F77	F	0.363316	-1.310424	-0.351595
F78	F	0.863316	-0.810424	0.148405
H79	H	-0.398121	-1.290002	0.094042
H80	H	0.101879	-0.790002	0.594042
H81	H	-0.019610	-1.129302	-0.000100
H82	H	0.480390	-0.629302	0.499900
H83	H	-0.223742	-1.656808	0.138805
H84	H	0.276258	-1.156808	0.638805
H85	H	-0.181153	-1.295697	-0.093803
H86	H	0.318847	-0.795697	0.406197
H87	H	-0.399732	-1.290216	-0.092644
H88	H	0.100268	-0.790216	0.407356
H89	H	-0.422579	-1.501258	-0.228305
H90	H	0.077421	-1.001258	0.271695
F91	F	0.421621	-0.821165	-0.000104
F92	F	0.921621	-0.321165	0.499896
F93	F	-0.457144	-1.682110	-0.138497
F94	F	0.042856	-1.182110	0.361503
F95	F	-0.218685	-1.689648	-0.136982
F96	F	0.281315	-1.189648	0.363018
H97	H	-0.205238	-1.509003	-0.227758
H98	H	0.294762	-1.009003	0.272242
H99	H	-0.426442	-1.508590	0.228141
H100	H	0.073558	-1.008590	0.728141
F101	F	-0.193901	-1.491314	0.257168
F102	F	0.306099	-0.991314	0.757168
H103	H	0.399556	-1.078715	-0.000064
H104	H	0.899556	-0.578715	0.499936
F105	F	-0.456684	-1.685532	0.130346
F106	F	0.043316	-1.185532	0.630346
F107	F	-0.055295	-0.878702	-0.000133
F108	F	0.444705	-0.378702	0.499867
