data_functionalizedCrystal
_audit_creation_method	'MofGen! by Chris Wilmer'
_symmetry_space_group_name_H-M	'P1'
_symmetry_Int_Tables_number	1
_symmetry_cell_setting	triclinic
loop_
_symmetry_equiv_pos_as_xyz
  x,y,z
_cell_length_a	13.635800
_cell_length_b	10.992421
_cell_length_c	10.992709
_cell_angle_alpha	88.178650
_cell_angle_beta	108.769842
_cell_angle_gamma	71.235237
loop_
_atom_site_label
_atom_site_type_symbol
_atom_site_fract_x
_atom_site_fract_y
_atom_site_fract_z
V1	V	2.057136	-0.177698	0.400567
O2	O	2.036200	0.008604	0.392960
O3	O	2.045926	-0.352407	0.397810
O4	O	2.045938	-0.174936	0.575276
O5	O	2.036188	-0.170096	0.214265
V6	V	2.295582	-0.155418	0.378286
O7	O	2.195038	-0.226572	0.449443
O8	O	2.382779	-0.106543	0.329411
O9	O	2.195190	0.019292	0.381043
O10	O	2.375217	-0.341719	0.385893
O11	O	2.375229	-0.163020	0.564588
O12	O	2.195178	-0.158179	0.203577
V13	V	2.557136	-0.177698	0.400567
O14	O	2.536200	0.008604	0.392960
O15	O	2.545926	-0.352407	0.397810
O16	O	2.545938	-0.174936	0.575276
O17	O	2.536188	-0.170096	0.214265
V18	V	2.795582	-0.155418	0.378286
O19	O	2.695038	-0.226572	0.449443
O20	O	2.882779	-0.106543	0.329411
O21	O	2.695190	0.019292	0.381043
O22	O	2.875217	-0.341719	0.385893
O23	O	2.875229	-0.163020	0.564588
O24	O	2.695178	-0.158179	0.203577
C25	C	1.971165	-0.394999	0.391486
C26	C	2.002729	-0.537826	0.390396
C27	C	1.936561	-0.733114	0.381610
C28	C	1.903520	-0.584470	0.382235
C29	C	2.038030	-0.576480	0.270583
C30	C	2.070148	-0.725023	0.269314
C31	C	2.135908	-0.763566	0.514925
C32	C	2.101381	-0.615052	0.517525
C33	C	1.971180	-0.168615	0.617861
C34	C	2.002751	-0.167513	0.760686
C35	C	2.101621	0.061876	0.387364
C36	C	2.059677	0.204702	0.388462
C37	C	2.101606	-0.164505	0.160986
C38	C	2.059653	-0.165600	0.018159
C39	C	2.471165	-0.394999	0.391486
C40	C	2.502729	-0.537826	0.390396
C41	C	2.471180	-0.168615	0.617861
C42	C	2.502751	-0.167513	0.760686
C43	C	2.125996	-0.174856	0.822996
C44	C	2.159009	-0.174244	0.971641
C45	C	2.023954	-0.285143	0.979406
C46	C	1.991863	-0.286403	0.830864
C47	C	1.926779	-0.040830	0.792390
C48	C	1.961286	-0.038252	0.940906
C49	C	2.601621	0.061876	0.387364
C50	C	2.559677	0.204702	0.388462
C51	C	2.601606	-0.164505	0.160986
C52	C	2.559653	-0.165600	0.018159
C53	C	2.436561	-0.733114	0.381610
C54	C	2.403520	-0.584470	0.382235
C55	C	2.538030	-0.576480	0.270583
C56	C	2.570148	-0.725023	0.269314
C57	C	2.635908	-0.763566	0.514925
C58	C	2.601381	-0.615052	0.517525
C59	C	2.436319	-0.157646	0.955807
C60	C	2.403539	-0.159324	0.807326
C61	C	2.601762	-0.294181	0.837776
C62	C	2.633923	-0.293038	0.986340
C63	C	2.572805	-0.047745	0.948333
C64	C	2.537446	-0.047168	0.799324
H65	H	1.874961	-0.558692	0.467846
O66	O	1.931401	0.079031	0.726928
H67	H	1.902642	0.080374	0.620095
O68	O	2.197198	-0.061104	1.005898
H69	H	2.192208	-0.006340	0.916201
O70	O	1.994119	0.078909	0.972686
H71	H	2.067064	0.071742	0.945156
O72	O	2.442570	0.076965	0.730003
H73	H	2.371000	0.053064	0.668278
O74	O	2.116797	-0.410016	1.051227
H75	H	2.137142	-0.410380	1.157493
H76	H	2.632742	-0.813069	0.605585
H77	H	1.829177	-0.532042	0.290958
O78	O	2.358683	-0.036172	0.980774
H79	H	2.407189	0.019944	1.037882
H80	H	2.423852	-0.242214	1.003790
O81	O	2.068329	-0.583733	0.634613
H82	H	2.046883	-0.477929	0.638391
H83	H	2.676272	-0.584843	0.530905
O84	O	1.919443	-0.794583	0.494298
H85	H	1.998497	-0.870120	0.556391
H86	H	1.878662	-0.753688	0.290409
H87	H	2.014745	-0.742552	0.174185
H88	H	2.658254	-0.765906	0.269125
H89	H	2.626143	-0.382158	1.032600
O90	O	2.305203	-0.038686	0.736688
H91	H	2.327147	0.048706	0.760629
O92	O	2.255026	-0.818018	0.523255
H93	H	2.259975	-0.867454	0.437798
H94	H	2.724925	-0.304047	1.028969
O95	O	2.691340	-0.053807	1.002438
H96	H	2.740704	-0.140177	1.078670
H97	H	2.047065	-0.381684	0.813352
O98	O	1.807543	-0.032036	0.737815
H99	H	1.774642	-0.030731	0.818106
O100	O	2.701360	-0.308202	0.799625
H101	H	2.681299	-0.224839	0.725131
H102	H	2.374948	-0.245078	0.782504
O103	O	2.257215	-0.295390	1.041129
H104	H	2.327569	-0.297236	1.010350
O105	O	2.571462	-0.412546	0.803873
H106	H	2.485980	-0.381470	0.732183
O107	O	2.504653	0.079697	0.975299
H108	H	2.416126	0.089441	0.939089
O109	O	2.200591	-0.575050	0.535247
H110	H	2.268639	-0.631369	0.625800
O111	O	2.186846	-0.779192	0.269047
H112	H	2.220109	-0.699271	0.269813
H113	H	2.110846	-0.546244	0.271965
O114	O	2.365674	-0.550305	0.495623
H115	H	2.370857	-0.640047	0.550502
O116	O	1.944918	-0.504675	0.145904
H117	H	1.873433	-0.441426	0.168962
O118	O	2.419443	-0.794583	0.494298
H119	H	2.498497	-0.870120	0.556391
H120	H	2.132742	-0.813069	0.605585
O121	O	2.631544	-0.045179	0.756221
H122	H	2.704147	-0.135075	0.803071
O123	O	2.568486	-0.583308	0.634644
H124	H	2.625187	-0.540057	0.699171
H125	H	2.139207	-0.089977	0.776669
H126	H	1.886308	-0.024524	0.971022
H127	H	1.903637	-0.286194	0.789881
O128	O	2.202460	-0.295884	0.795787
H129	H	2.193297	-0.382882	0.838049
O130	O	1.927355	-0.282865	1.019349
H131	H	1.856203	-0.192260	0.970194
O132	O	2.359844	-0.760236	0.260736
H133	H	2.409020	-0.817825	0.205524
O134	O	2.305037	-0.515005	0.261338
H135	H	2.280860	-0.587573	0.202191
H136	H	2.514745	-0.742552	0.174185
H137	H	2.467733	-0.522257	0.176466
O138	O	2.634473	-0.536420	0.272386
H139	H	2.658322	-0.488415	0.358902
H140	H	2.725833	-0.804682	0.521205
