data_functionalizedCrystal
_audit_creation_method	'MofGen! by Chris Wilmer'
_symmetry_space_group_name_H-M	'P1'
_symmetry_Int_Tables_number	1
_symmetry_cell_setting	triclinic
loop_
_symmetry_equiv_pos_as_xyz
  x,y,z
_cell_length_a	16.956984
_cell_length_b	16.974813
_cell_length_c	16.776229
_cell_angle_alpha	86.338786
_cell_angle_beta	89.992291
_cell_angle_gamma	79.731954
loop_
_atom_site_label
_atom_site_type_symbol
_atom_site_fract_x
_atom_site_fract_y
_atom_site_fract_z
O1	O	1.058006	0.032765	-0.068405
O2	O	0.825818	0.060528	-0.070196
O3	O	0.948385	-0.068881	-0.061845
O4	O	0.935440	0.162173	-0.076757
O5	O	0.948369	-0.068887	0.070732
O6	O	0.825802	0.060521	0.062381
O7	O	1.057990	0.032758	0.064172
Zn8	Zn	0.941894	0.046639	0.084326
Zn9	Zn	0.941915	0.046647	-0.090350
O10	O	0.935424	0.162167	0.055820
C11	C	0.796101	0.061946	-0.004000
C12	C	0.707575	0.066173	-0.004272
C13	C	0.675568	-0.004496	0.000290
C14	C	0.592389	-0.000520	0.000028
C15	C	0.541218	0.074126	-0.004792
C16	C	0.573230	0.144800	-0.009357
C17	C	0.656408	0.140823	-0.009100
C18	C	0.291424	0.093811	-0.006068
C19	C	0.208240	0.097782	-0.006321
C20	C	0.227405	-0.047538	0.003061
C21	C	0.310584	-0.051508	0.003322
C22	C	0.342589	0.019166	-0.001247
N23	N	0.456195	0.078192	-0.005057
N24	N	0.427611	0.015099	-0.000987
C25	C	0.947884	-0.098310	0.006341
C26	C	0.946407	-0.185991	0.011995
C27	C	0.945724	-0.227175	-0.057616
C28	C	0.944330	-0.309559	-0.052301
C29	C	0.943626	-0.350758	0.022626
C30	C	0.944307	-0.309568	0.092242
C31	C	0.945695	-0.227184	0.086926
C32	C	0.939470	-0.597149	0.046273
C33	C	0.938085	-0.679539	0.051584
C34	C	0.938107	-0.679525	-0.092959
C35	C	0.939499	-0.597140	-0.098268
C36	C	0.940176	-0.555956	-0.028652
N37	N	0.942205	-0.434969	0.028061
N38	N	0.941592	-0.471746	-0.034088
C39	C	1.087708	0.031340	-0.002027
C40	C	1.176233	0.027113	-0.001759
C41	C	0.935924	0.191596	-0.012368
C42	C	0.937402	0.279277	-0.018027
N43	N	0.941885	0.046632	0.203537
N44	N	0.941930	0.046647	-0.209561
C45	C	0.996174	-0.010649	0.248951
C46	C	0.996178	-0.010650	0.332404
C47	C	0.941897	0.046634	0.370440
C48	C	0.887602	0.103918	0.325020
C49	C	0.887595	0.103915	0.241570
C50	C	0.887631	0.103932	0.661566
C51	C	0.887644	0.103932	0.745023
C52	C	0.996215	-0.010633	0.752400
C53	C	0.996207	-0.010636	0.668950
C54	C	0.941910	0.046645	0.623537
C55	C	0.941905	0.046644	0.533049
C56	C	0.941905	0.046639	0.460927
H57	H	0.317471	0.151358	-0.009794
H58	H	1.040424	-0.057276	0.789384
H59	H	0.531560	0.205578	-0.013286
C60	C	0.840607	0.243847	0.341668
C61	C	0.827929	0.166886	0.366823
H62	H	0.803762	0.282721	0.367470
H63	H	0.893809	0.248988	0.355006
H64	H	0.832834	0.252029	0.285467
H65	H	0.835708	0.158701	0.423024
H66	H	0.774714	0.161743	0.353491
C67	C	0.877637	-0.188448	-0.183307
C68	C	0.946490	-0.181897	-0.139981
H69	H	0.878106	-0.160493	-0.234157
H70	H	0.876720	-0.243403	-0.190094
H71	H	0.831388	-0.165875	-0.155058
H72	H	0.992739	-0.204475	-0.168228
H73	H	0.947415	-0.126931	-0.133198
C74	C	0.869149	-0.691507	-0.215365
C75	C	0.937335	-0.724798	-0.169474
H76	H	0.868669	-0.719456	-0.262604
H77	H	0.822453	-0.695939	-0.185369
H78	H	0.870091	-0.636549	-0.229254
H79	H	0.936390	-0.779755	-0.155579
H80	H	0.984043	-0.720374	-0.199475
H81	H	0.843439	0.150582	0.775990
C82	C	0.870157	0.212649	0.140689
C83	C	0.827921	0.166880	0.191645
H84	H	0.833313	0.251517	0.109865
H85	H	0.903311	0.238946	0.171535
H86	H	0.902481	0.178522	0.106099
H87	H	0.795601	0.201007	0.226239
H88	H	0.794753	0.140582	0.160796
C89	C	0.321169	-0.194752	0.012568
C90	C	0.366829	-0.133561	0.008619
H91	H	0.355894	-0.245408	0.015837
H92	H	0.288322	-0.190179	0.058501
H93	H	0.288334	-0.190174	-0.033965
H94	H	0.399660	-0.138136	0.055155
H95	H	0.399690	-0.138137	-0.037318
H96	H	0.566333	-0.058066	0.003742
C97	C	0.686148	-0.147737	0.009526
C98	C	0.731812	-0.086550	0.005583
H99	H	0.720871	-0.198395	0.012786
H100	H	0.653305	-0.143169	0.055462
H101	H	0.653309	-0.143151	-0.037005
H102	H	0.764647	-0.091133	0.052116
H103	H	0.764669	-0.091120	-0.040358
C104	C	1.044199	-0.061698	0.544315
C105	C	1.055733	-0.073735	0.627149
H106	H	1.080909	-0.100691	0.518514
H107	H	0.990935	-0.066692	0.531059
H108	H	1.052945	-0.009550	0.527194
H109	H	1.046981	-0.125881	0.644270
H110	H	1.109009	-0.068748	0.640410
C111	C	0.877576	-0.188460	0.207617
C112	C	0.946439	-0.181906	0.163443
H113	H	0.878035	-0.160509	0.254857
H114	H	0.831339	-0.165895	0.176459
H115	H	0.876662	-0.243424	0.221505
H116	H	0.947350	-0.126942	0.149550
H117	H	0.992689	-0.204468	0.194607
H118	H	0.682466	0.198369	-0.012812
C119	C	0.108409	-0.105970	0.006826
C120	C	0.192223	-0.125219	0.008073
H121	H	0.086692	-0.153931	0.009913
H122	H	0.090839	-0.075476	0.051089
H123	H	0.090855	-0.075460	-0.041377
H124	H	0.209777	-0.155725	0.056279
H125	H	0.209800	-0.155727	-0.036194
H126	H	0.943777	-0.343089	-0.108985
C127	C	0.939354	-0.605459	0.189680
C128	C	0.940247	-0.551892	0.122795
H129	H	0.939846	-0.577517	0.236923
H130	H	0.892329	-0.628513	0.188176
H131	H	0.985290	-0.646667	0.189307
H132	H	0.894307	-0.510687	0.123165
H133	H	0.987277	-0.528825	0.124300
C134	C	1.104680	-0.034893	0.156604
C135	C	1.055805	-0.073635	0.207126
H136	H	1.141485	-0.073787	0.130783
H137	H	1.072347	-0.000767	0.117630
H138	H	1.133366	-0.003860	0.187139
H139	H	1.027115	-0.104663	0.176589
H140	H	1.088143	-0.107775	0.246104
C141	C	0.872328	-0.491236	-0.188918
C142	C	0.940116	-0.551898	-0.180670
H143	H	0.872670	-0.463317	-0.239800
H144	H	0.825360	-0.514370	-0.184284
H145	H	0.872990	-0.454872	-0.148271
H146	H	0.939450	-0.588266	-0.221314
H147	H	0.987096	-0.528764	-0.185312
H148	H	0.166578	0.158571	-0.010242
C149	C	0.942186	-0.435864	0.164572
C150	C	0.943540	-0.354853	0.174604
H151	H	0.941721	-0.463820	0.215421
H152	H	0.895483	-0.440295	0.135173
H153	H	0.988445	-0.458419	0.136328
H154	H	0.897278	-0.332297	0.202842
H155	H	0.990248	-0.350417	0.204015
C156	C	1.103519	-0.123875	0.331312
C157	C	1.055867	-0.073604	0.382322
H158	H	1.140374	-0.162736	0.362131
H159	H	1.070362	-0.150180	0.300478
H160	H	1.132147	-0.092800	0.296742
H161	H	1.027234	-0.104678	0.416888
H162	H	1.089027	-0.047296	0.413170
H163	H	0.843422	0.150573	0.624598
H164	H	0.937508	-0.713080	0.112601
