data_functionalizedCrystal
_audit_creation_method	'MofGen! by Chris Wilmer'
_symmetry_space_group_name_H-M	'P1'
_symmetry_Int_Tables_number	1
_symmetry_cell_setting	triclinic
loop_
_symmetry_equiv_pos_as_xyz
  x,y,z
_cell_length_a	15.995292
_cell_length_b	14.519709
_cell_length_c	12.996460
_cell_angle_alpha	89.987633
_cell_angle_beta	89.998337
_cell_angle_gamma	96.425620
loop_
_atom_site_label
_atom_site_type_symbol
_atom_site_fract_x
_atom_site_fract_y
_atom_site_fract_z
O1	O	0.109763	-1.223628	-0.085425
O2	O	0.609763	-0.723628	0.414575
O3	O	0.122689	-0.955124	-0.085456
O4	O	0.622689	-0.455124	0.414544
O5	O	-0.005654	-1.096744	-0.085441
O6	O	0.494346	-0.596744	0.414559
O7	O	0.238106	-1.082008	-0.085440
O8	O	0.738106	-0.582008	0.414560
O9	O	-0.005661	-1.096762	0.085692
O10	O	0.494339	-0.596762	0.585692
O11	O	0.122682	-0.955143	0.085678
O12	O	0.622682	-0.455143	0.585678
O13	O	0.109756	-1.223646	0.085708
O14	O	0.609756	-0.723646	0.585708
Cu15	Cu	0.116218	-1.089396	0.101319
Cu16	Cu	0.616218	-0.589396	0.601319
Cu17	Cu	0.116227	-1.089374	-0.101067
Cu18	Cu	0.616227	-0.589374	0.398933
O19	O	0.238099	-1.082027	0.085694
O20	O	0.738099	-0.582027	0.585694
C21	C	0.122083	-0.920775	0.000107
C22	C	0.622083	-0.420775	0.500107
C23	C	0.120278	-0.818397	0.000095
C24	C	0.620278	-0.318397	0.500095
N25	N	0.116227	-1.089360	-0.243414
N26	N	0.616227	-0.589360	0.256586
C27	C	-0.036854	-1.096153	0.000123
C28	C	0.463146	-0.596153	0.500123
C29	C	-0.129810	-1.094355	0.000115
C30	C	0.370190	-0.594355	0.500115
C31	C	-0.467558	-1.087745	0.000124
C32	C	0.032442	-0.587745	0.500124
C33	C	-0.444093	-1.189962	0.000518
C34	C	0.055907	-0.689962	0.500518
C35	C	-0.347414	-1.191905	0.000128
C36	C	0.152586	-0.691905	0.500128
C37	C	-0.299997	-1.091025	0.000120
C38	C	0.200003	-0.591025	0.500120
C39	C	-0.329170	-1.039911	-0.097609
C40	C	0.170830	-0.539911	0.402391
C41	C	-0.425963	-1.038680	-0.097687
C42	C	0.074037	-0.538680	0.402313
C43	C	-0.425831	-1.036614	0.096924
C44	C	0.074169	-0.536614	0.596924
C45	C	-0.329333	-1.040402	0.098212
C46	C	0.170667	-0.540402	0.598212
C47	C	-0.205298	-1.092873	0.000114
C48	C	0.294702	-0.592873	0.500114
C49	C	-0.562257	-1.085894	0.000122
C50	C	-0.062257	-0.585894	0.500122
C51	C	0.269299	-1.082617	0.000127
C52	C	0.769299	-0.582617	0.500127
C53	C	0.362254	-1.084415	0.000129
C54	C	0.862254	-0.584415	0.500129
C55	C	0.110362	-1.257995	0.000143
C56	C	0.610362	-0.757995	0.500143
C57	C	0.112167	-1.360373	0.000149
C58	C	0.612167	-0.860373	0.500149
C59	C	0.113632	-0.443515	0.000142
C60	C	0.613632	0.056485	0.500142
C61	C	0.115478	-0.547819	0.000128
C62	C	0.615478	-0.047819	0.500128
C63	C	0.116955	-0.630953	0.000117
C64	C	0.616955	-0.130953	0.500117
C65	C	0.118801	-0.735264	0.000106
C66	C	0.618801	-0.235264	0.500106
C67	C	0.116228	-1.089363	-0.336520
C68	C	0.616228	-0.589363	0.163480
C69	C	0.116226	-1.089375	-0.453325
C70	C	0.616226	-0.589375	0.046675
C71	C	0.116220	-1.089391	-0.546423
C72	C	0.616220	-0.589391	-0.046423
C73	C	0.116217	-1.089402	-0.663236
C74	C	0.616217	-0.589402	-0.163236
N75	N	0.116211	-1.089418	0.243666
N76	N	0.616211	-0.589418	0.743666
H77	H	-0.328332	-1.231935	0.070183
H78	H	0.171668	-0.731935	0.570183
H79	H	-0.453875	-1.068812	0.171001
H80	H	0.046125	-0.568812	0.671001
H81	H	-0.440625	-0.963734	-0.102121
H82	H	0.059375	-0.463734	0.397879
C83	C	-0.304152	-1.090661	0.195888
C84	C	0.195848	-0.590661	0.695888
N85	N	-0.285172	-1.128511	0.269456
N86	N	0.214828	-0.628511	0.769456
C87	C	-0.481845	-1.243205	0.095197
C88	C	0.018155	-0.743205	0.595197
N89	N	-0.510287	-1.283308	0.166512
N90	N	-0.010287	-0.783308	0.666512
C91	C	-0.284946	-0.940925	0.106176
C92	C	0.215054	-0.440925	0.606176
N93	N	-0.251515	-0.865995	0.112166
N94	N	0.248485	-0.365995	0.612166
C95	C	-0.322461	-1.246279	-0.094671
C96	C	0.177539	-0.746279	0.405329
N97	N	-0.303667	-1.287233	-0.166080
N98	N	0.196333	-0.787233	0.333920
C99	C	-0.444897	-0.934974	0.097816
C100	C	0.055103	-0.434974	0.597816
N101	N	-0.459267	-0.858423	0.098483
N102	N	0.040733	-0.358423	0.598483
H103	H	-0.473049	-1.229135	-0.069166
H104	H	0.026951	-0.729135	0.430834
C105	C	-0.302003	-1.087848	-0.195856
C106	C	0.197997	-0.587848	0.304144
N107	N	-0.281544	-1.123960	-0.269853
N108	N	0.218456	-0.623960	0.230147
H109	H	-0.452723	-1.074065	-0.170734
H110	H	0.047277	-0.574065	0.329266
H111	H	-0.297414	-0.965676	-0.101248
H112	H	0.202586	-0.465676	0.398752
