data_functionalizedCrystal
_audit_creation_method	'MofGen! by Chris Wilmer'
_symmetry_space_group_name_H-M	'P1'
_symmetry_Int_Tables_number	1
_symmetry_cell_setting	triclinic
loop_
_symmetry_equiv_pos_as_xyz
  x,y,z
_cell_length_a	10.723023
_cell_length_b	12.837942
_cell_length_c	9.798715
_cell_angle_alpha	90.002853
_cell_angle_beta	90.002994
_cell_angle_gamma	89.648244
loop_
_atom_site_label
_atom_site_type_symbol
_atom_site_fract_x
_atom_site_fract_y
_atom_site_fract_z
O1	O	1.672991	0.145509	0.113476
O2	O	2.172991	0.645509	0.613476
O3	O	1.311351	0.159439	0.113482
O4	O	1.811351	0.659439	0.613482
O5	O	1.484152	0.001514	0.113471
O6	O	1.984152	0.501514	0.613471
O7	O	1.500190	0.303434	0.113487
O8	O	2.000190	0.803434	0.613487
O9	O	1.484139	0.001513	-0.113511
O10	O	1.984139	0.501513	0.386489
O11	O	1.311338	0.159437	-0.113500
O12	O	1.811338	0.659437	0.386500
O13	O	1.672978	0.145508	-0.113506
O14	O	2.172978	0.645508	0.386494
Zn15	Zn	1.492156	0.152473	-0.149541
Zn16	Zn	1.992156	0.652473	0.350459
Zn17	Zn	1.492173	0.152474	0.149517
Zn18	Zn	1.992173	0.652474	0.649517
O19	O	1.500177	0.303433	-0.113495
O20	O	2.000177	0.803433	0.386505
C21	C	1.264735	0.158425	-0.000008
C22	C	1.764735	0.658425	0.499992
C23	C	1.125851	0.155392	-0.000006
C24	C	1.625851	0.655392	0.499994
C25	C	1.063926	0.154040	-0.117589
C26	C	1.563926	0.654040	0.382411
C27	C	0.920382	0.150906	-0.117590
C28	C	1.420382	0.650906	0.382410
C29	C	1.478728	-0.037146	-0.000019
C30	C	1.978728	0.462854	0.499981
C31	C	1.462569	-0.152338	-0.000017
C32	C	1.962569	0.347662	0.499983
C33	C	1.656825	-0.391915	0.000009
C34	C	2.156825	0.108085	0.500009
C35	C	1.641649	-0.500149	0.000011
C36	C	2.141649	-0.000149	0.500011
C37	C	1.417040	-0.477041	0.000000
C38	C	1.917040	0.022959	0.500000
C39	C	1.432217	-0.368807	-0.000002
C40	C	1.932217	0.131193	0.499998
C41	C	1.552113	-0.326248	-0.000000
C42	C	2.052113	0.173752	0.500000
C43	C	1.567289	-0.218013	-0.000012
C44	C	2.067289	0.281987	0.499988
C45	C	1.342681	-0.194907	-0.000013
C46	C	1.842681	0.305093	0.499987
C47	C	1.327505	-0.303140	-0.000011
C48	C	1.827505	0.196860	0.499989
C49	C	1.719594	0.146522	-0.000012
C50	C	2.219594	0.646522	0.499988
C51	C	1.858478	0.149554	-0.000006
C52	C	2.358478	0.649554	0.499994
C53	C	1.505601	0.342092	-0.000001
C54	C	2.005601	0.842092	0.499999
C55	C	1.521760	0.457284	0.000005
C56	C	2.021760	0.957284	0.500005
N57	N	1.492153	0.152471	-0.353641
N58	N	1.992153	0.652471	0.146359
C59	C	1.419646	0.219069	-0.421446
C60	C	1.919646	0.719069	0.078554
C61	C	1.419663	0.219068	-0.578609
C62	C	1.919663	0.719068	-0.078609
N63	N	1.492185	0.152468	0.353617
N64	N	1.992185	0.652468	0.853617
H65	H	1.117178	0.155196	-0.218255
H66	H	1.617178	0.655196	0.281745
H67	H	1.754449	-0.357263	-0.000003
H68	H	2.254449	0.142737	0.499997
H69	H	1.357581	0.276082	-0.636919
H70	H	1.857581	0.776082	-0.136919
H71	H	1.554246	0.095456	-0.411941
H72	H	2.054246	0.595456	0.088059
Br73	Br	1.316164	0.314119	-0.324292
Br74	Br	1.816164	0.814119	0.175708
Br75	Br	0.831629	0.148980	-0.285385
Br76	Br	1.331629	0.648980	0.214615
H77	H	0.911724	0.150724	0.100666
H78	H	1.411724	0.650724	0.600666
Br79	Br	1.254337	-0.534818	0.000047
Br80	Br	1.754337	-0.034818	0.500047
H81	H	1.072599	0.154227	0.100660
H82	H	1.572599	0.654227	0.600660
Br83	Br	1.730002	-0.160254	-0.000024
Br84	Br	2.230002	0.339746	0.499976
Br85	Br	1.783764	-0.589266	0.000032
Br86	Br	2.283764	-0.089266	0.500032
Br87	Br	1.164797	-0.360909	0.000004
Br88	Br	1.664797	0.139091	0.500004
H89	H	1.257417	-0.141429	-0.000031
H90	H	1.757417	0.358571	0.499969
H91	H	1.554260	0.095443	-0.588082
H92	H	2.054260	0.595443	-0.088082
