data_functionalizedCrystal
_audit_creation_method	'MofGen! by Chris Wilmer'
_symmetry_space_group_name_H-M	'P1'
_symmetry_Int_Tables_number	1
_symmetry_cell_setting	triclinic
loop_
_symmetry_equiv_pos_as_xyz
  x,y,z
_cell_length_a	12.759401
_cell_length_b	21.295417
_cell_length_c	12.759393
_cell_angle_alpha	89.960780
_cell_angle_beta	89.980163
_cell_angle_gamma	90.032032
loop_
_atom_site_label
_atom_site_type_symbol
_atom_site_fract_x
_atom_site_fract_y
_atom_site_fract_z
Zn1	Zn	1.606140	-0.250546	-0.593965
Zn2	Zn	2.106140	0.249454	-0.093965
Zn3	Zn	1.605986	-0.355830	-0.418261
Zn4	Zn	2.105986	0.144170	0.081739
Zn5	Zn	1.430442	-0.250582	-0.418300
Zn6	Zn	1.930442	0.249418	0.081700
Zn7	Zn	1.430382	-0.355784	-0.593899
Zn8	Zn	1.930382	0.144216	-0.093899
O9	O	1.518237	-0.303186	-0.506106
O10	O	2.018237	0.196814	-0.006106
O11	O	1.753140	-0.264517	-0.570669
O12	O	2.253140	0.235483	-0.070669
O13	O	1.582660	-0.341903	-0.271245
O14	O	2.082660	0.158097	0.228755
O15	O	1.453838	-0.162488	-0.441646
O16	O	1.953838	0.337512	0.058354
O17	O	1.753027	-0.341869	-0.441580
O18	O	2.253027	0.158131	0.058420
O19	O	1.582922	-0.162461	-0.570706
O20	O	2.082922	0.337539	-0.070706
O21	O	1.453689	-0.264577	-0.271274
O22	O	1.953689	0.235423	0.228726
O23	O	1.283413	-0.264533	-0.441582
O24	O	1.783413	0.235467	0.058418
O25	O	1.453736	-0.341790	-0.740929
O26	O	1.953736	0.158210	-0.240929
O27	O	1.283369	-0.341825	-0.570594
O28	O	1.783369	0.158175	-0.070594
O29	O	1.582864	-0.264472	-0.740977
O30	O	2.082864	0.235528	-0.240977
O31	O	1.582602	-0.443914	-0.441516
O32	O	2.082602	0.056086	0.058484
O33	O	1.453586	-0.443880	-0.570556
O34	O	1.953586	0.056120	-0.070556
C35	C	1.245270	-0.303178	-0.506085
C36	C	1.745270	0.196822	-0.006085
C37	C	1.128493	-0.303190	-0.506101
C38	C	1.628493	0.196810	-0.006101
C39	C	1.073636	-0.343497	-0.573172
C40	C	1.573636	0.156503	-0.073172
C41	C	0.963912	-0.343499	-0.573193
C42	C	1.463912	0.156501	-0.073193
C43	C	0.963912	-0.262886	-0.439063
C44	C	1.463912	0.237114	0.060937
C45	C	1.073634	-0.262881	-0.439048
C46	C	1.573634	0.237119	0.060952
C47	C	1.518099	-0.466737	-0.506048
C48	C	2.018099	0.033263	-0.006048
C49	C	1.518137	-0.536705	-0.506058
C50	C	2.018137	-0.036705	-0.006058
C51	C	1.585375	-0.569569	-0.438936
C52	C	2.085375	-0.069569	0.061064
C53	C	1.585424	-0.635311	-0.438960
C54	C	2.085424	-0.135311	0.061040
C55	C	1.518216	-0.668188	-0.506094
C56	C	2.018216	-0.168188	-0.006094
C57	C	1.450974	-0.635317	-0.573230
C58	C	1.950974	-0.135317	-0.073230
C59	C	1.450934	-0.569575	-0.573212
C60	C	1.950934	-0.069575	-0.073212
N61	N	1.426309	-0.771454	-0.514097
N62	N	1.926309	-0.271454	-0.014097
N63	N	1.426350	-0.833906	-0.514108
N64	N	1.926350	-0.333906	-0.014108
C65	C	1.518334	-0.866262	-0.506155
C66	C	2.018334	-0.366262	-0.006155
N67	N	1.610278	-0.833808	-0.498169
N68	N	2.110278	-0.333808	0.001831
N69	N	1.610236	-0.771351	-0.498153
N70	N	2.110236	-0.271351	0.001847
C71	C	1.518253	-0.739473	-0.506122
C72	C	2.018253	-0.239473	-0.006122
C73	C	1.585631	-0.970411	-0.439054
C74	C	2.085631	-0.470411	0.060946
C75	C	1.585682	-1.036155	-0.439085
C76	C	2.085682	-0.536155	0.060915
C77	C	1.451222	-1.036159	-0.573350
C78	C	1.951222	-0.536159	-0.073350
C79	C	1.451181	-0.970417	-0.573325
C80	C	1.951181	-0.470417	-0.073325
C81	C	1.518384	-0.937547	-0.506171
C82	C	2.018384	-0.437547	-0.006171
C83	C	1.792270	-0.303194	-0.506128
C84	C	2.292270	0.196806	-0.006128
C85	C	1.909047	-0.303197	-0.506137
C86	C	2.409047	0.196803	-0.006137
C87	C	1.518311	-0.303122	-0.780140
C88	C	2.018311	0.196878	-0.280140
C89	C	1.518342	-0.303095	-0.896916
C90	C	2.018342	0.196905	-0.396916
C91	C	1.518404	-0.138995	-0.506188
C92	C	2.018404	0.361005	-0.006188
C93	C	1.518475	-0.069027	-0.506222
C94	C	2.018475	0.430973	-0.006222
C95	C	1.451211	-0.262824	-0.951793
C96	C	1.951211	0.237176	-0.451793
C97	C	1.451235	-0.262805	-1.061517
C98	C	1.951235	0.237195	-0.561517
C99	C	1.585531	-0.343329	-1.061479
C100	C	2.085531	0.156671	-0.561479
C101	C	1.585500	-0.343351	-0.951757
C102	C	2.085500	0.156649	-0.451757
C103	C	1.518225	-0.303204	-0.233139
C104	C	2.018225	0.196796	0.266861
C105	C	1.518397	-0.303053	-0.116363
C106	C	2.018397	0.196947	0.383637
H107	H	1.640098	-0.542808	-0.384258
H108	H	2.140098	-0.042808	0.115742
F109	F	1.132021	-0.219975	-0.367664
F110	F	1.632021	0.280025	0.132336
H111	H	1.396569	-0.230013	-1.106192
H112	H	1.896569	0.269987	-0.606192
F113	F	1.132017	-0.386396	-0.644538
F114	F	1.632017	0.113604	-0.144538
F115	F	1.379612	-0.935440	-0.644762
F116	F	1.879612	-0.435440	-0.144762
H117	H	0.919252	-0.376320	-0.627810
H118	H	1.419252	0.123680	-0.127810
H119	H	1.396180	-0.542817	-0.627872
H120	H	1.896180	-0.042817	-0.127872
H121	H	0.919233	-0.230068	-0.384470
H122	H	1.419233	0.269932	0.115530
H123	H	1.640181	-0.662074	-0.384301
H124	H	2.140181	-0.162074	0.115699
H125	H	1.396255	-0.662089	-0.627893
H126	H	1.896255	-0.162089	-0.127893
H127	H	1.640355	-0.943648	-0.384377
H128	H	2.140355	-0.443648	0.115623
F129	F	1.656951	-0.386217	-0.893350
F130	F	2.156951	0.113783	-0.393350
F131	F	1.657004	-0.386168	-1.119853
F132	F	2.157004	0.113832	-0.619853
H133	H	1.640442	-1.062911	-0.384429
H134	H	2.140442	-0.562911	0.115571
H135	H	1.396505	-1.062927	-0.628017
H136	H	1.896505	-0.562927	-0.128017
H137	H	1.396525	-0.230045	-0.907145
H138	H	1.896525	0.269955	-0.407145
