data_functionalizedCrystal
_audit_creation_method	'MofGen! by Chris Wilmer'
_symmetry_space_group_name_H-M	'P1'
_symmetry_Int_Tables_number	1
_symmetry_cell_setting	triclinic
loop_
_symmetry_equiv_pos_as_xyz
  x,y,z
_cell_length_a	27.354012
_cell_length_b	27.353283
_cell_length_c	27.349551
_cell_angle_alpha	60.005606
_cell_angle_beta	60.011434
_cell_angle_gamma	59.993282
loop_
_atom_site_label
_atom_site_type_symbol
_atom_site_fract_x
_atom_site_fract_y
_atom_site_fract_z
O1	O	0.067635	-0.714267	0.597330
O2	O	0.025429	-0.556105	0.481282
O3	O	0.125575	-0.656186	0.481214
O4	O	-0.032512	-0.614186	0.597397
O5	O	0.158797	-0.622968	0.514367
O6	O	0.058650	-0.522887	0.514434
O7	O	0.100856	-0.681048	0.630482
Zn8	Zn	0.085028	-0.596693	0.577722
Zn9	Zn	0.041257	-0.640460	0.534042
O10	O	0.000709	-0.580967	0.630549
N11	N	0.114901	-0.566828	0.607534
N12	N	0.011389	-0.670331	0.504229
C13	C	0.179404	-0.338196	0.672015
C14	C	0.179501	-0.502386	0.836160
C15	C	0.179415	-0.502363	0.671996
C16	C	0.343611	-0.502373	0.671960
C17	C	0.197478	-0.392371	0.690061
C18	C	0.197534	-0.484321	0.781984
C19	C	0.289434	-0.484312	0.690032
C20	C	0.197486	-0.484308	0.690051
C21	C	0.156398	-0.269238	0.649045
C22	C	0.156418	-0.525342	0.649015
C23	C	0.220484	-0.461329	0.713032
C24	C	0.443889	-0.485097	0.619172
C25	C	0.506571	-0.505993	0.598266
C26	C	0.506589	-0.607412	0.636940
C27	C	0.443909	-0.586515	0.657848
C28	C	0.171510	-0.237888	0.587422
C29	C	0.150593	-0.175201	0.566543
C30	C	0.099458	-0.175218	0.668913
C31	C	0.120375	-0.237905	0.689792
C32	C	0.094789	-0.510201	0.664176
C33	C	0.073888	-0.531091	0.643278
C34	C	0.176239	-0.582263	0.592072
C35	C	0.197142	-0.561373	0.612963
C36	C	0.094933	-0.510244	0.936476
C37	C	0.074073	-0.531151	0.999161
C38	C	0.176453	-0.582335	0.999126
C39	C	0.197312	-0.561429	0.936439
C40	C	0.156551	-0.525382	0.905116
C41	C	0.412561	-0.525357	0.648961
C42	C	-0.098513	-0.688235	0.485867
C43	C	-0.006461	-0.688368	0.394066
C44	C	-0.006645	-0.780264	0.486040
C45	C	-0.006630	-0.688361	0.486097
C46	C	-0.029562	-0.711308	0.463018
N47	N	0.537030	-0.566846	0.607436
O48	O	0.741877	-0.576849	0.459995
O49	O	0.742050	-0.693241	0.618010
O50	O	0.741986	-0.692977	0.517791
O51	O	0.741941	-0.577114	0.560214
O52	O	0.642405	-0.659839	0.551046
O53	O	0.642469	-0.660104	0.651265
O54	O	0.642296	-0.543712	0.493251
Zn55	Zn	0.626572	-0.596646	0.577538
Zn56	Zn	0.757774	-0.640307	0.533723
O57	O	0.642360	-0.543976	0.593469
N58	N	0.847316	-0.670107	0.503818
N59	N	0.114877	-0.144758	0.607577
O60	O	-0.032498	0.060193	0.597441
O61	O	0.125523	0.060193	0.481067
O62	O	0.025289	0.060179	0.481345
O63	O	0.067736	0.060207	0.597163
O64	O	0.058511	-0.039410	0.514543
O65	O	0.158745	-0.039397	0.514265
O66	O	0.000724	-0.039396	0.630638
Zn67	Zn	0.085009	-0.055208	0.577722
Zn68	Zn	0.041238	0.076005	0.533983
O69	O	0.100958	-0.039382	0.630360
N70	N	0.011362	0.165555	0.504130
N71	N	0.115121	-0.566884	1.029592
O72	O	0.104990	-0.714248	1.234528
O73	O	-0.011371	-0.556177	1.234539
O74	O	-0.011103	-0.656395	1.234497
O75	O	0.104722	-0.614030	1.234569
O76	O	0.022090	-0.623190	1.134913
O77	O	0.021822	-0.522972	1.134954
O78	O	0.138182	-0.681044	1.134943
Zn79	Zn	0.085272	-0.596736	1.119137
Zn80	Zn	0.041539	-0.640484	1.250344
O81	O	0.137914	-0.580826	1.134984
N82	N	0.011689	-0.670343	1.339890
C83	C	0.038085	-0.519567	0.481870
C84	C	0.162104	-0.643505	0.481786
C85	C	0.088200	-0.717587	0.629893
C86	C	-0.035819	-0.593649	0.629977
C87	C	0.692280	-0.692701	0.654545
C88	C	0.692203	-0.692374	0.530435
C89	C	0.692063	-0.544251	0.456717
C90	C	0.692144	-0.544580	0.580825
C91	C	0.162000	0.010521	0.481600
C92	C	0.037914	0.010381	0.481984
C93	C	-0.035795	0.010399	0.630065
C94	C	0.088333	0.010415	0.629722
C95	C	-0.010799	-0.519660	1.184747
C96	C	-0.010461	-0.643761	1.184677
C97	C	0.137610	-0.717561	1.184734
C98	C	0.137280	-0.593452	1.184783
H99	H	0.061737	-0.480889	0.910978
O100	O	-0.054440	-0.465526	1.184722
C101	C	-0.105977	-0.465531	1.184713
H102	H	-0.092699	-0.500991	1.165848
H103	H	-0.138526	-0.475983	1.232484
C104	C	-0.152550	-0.359968	1.168829
C105	C	-0.136240	-0.403516	1.145653
H106	H	-0.171220	-0.321713	1.144737
H107	H	-0.117829	-0.359964	1.168837
H108	H	-0.179671	-0.368685	1.208637
H109	H	-0.109114	-0.394803	1.105849
H110	H	-0.170957	-0.403517	1.145638
H111	H	0.692005	-0.507708	0.411338
O112	O	-0.089980	0.010515	0.673600
C113	C	-0.135129	0.062085	0.653117
H114	H	-0.114730	0.098127	0.615822
H115	H	-0.156306	0.050417	0.635256
C116	C	-0.208452	0.041222	0.751056
C117	C	-0.183398	0.085492	0.705253
H118	H	-0.238229	0.055660	0.783216
H119	H	-0.178035	0.006477	0.764855
H120	H	-0.226095	0.031503	0.736164
H121	H	-0.165750	0.095205	0.720144
H122	H	-0.213813	0.120240	0.691457
O123	O	0.099280	0.010386	0.673077
C124	C	0.158134	0.010401	0.651260
H125	H	0.186449	-0.008448	0.612820
H126	H	0.157247	0.058179	0.634562
C127	C	0.150594	-0.005509	0.749125
C128	C	0.185373	-0.028665	0.701914
H129	H	0.167397	-0.029604	0.780370
H130	H	0.110943	-0.005517	0.763823
H131	H	0.149858	0.034305	0.735202
H132	H	0.186103	-0.068475	0.715836
H133	H	0.225026	-0.028665	0.687219
O134	O	0.216273	-0.654085	0.438236
C135	C	0.242832	-0.612980	0.422132
H136	H	0.206551	-0.571548	0.434187
H137	H	0.275479	-0.634673	0.447304
C138	C	0.321316	-0.645633	0.339445
C139	C	0.276754	-0.594743	0.354247
H140	H	0.342243	-0.634385	0.297571
H141	H	0.303424	-0.673328	0.350296
H142	H	0.348516	-0.663706	0.360427
H143	H	0.249551	-0.576676	0.333271
H144	H	0.294642	-0.567045	0.343390
O145	O	0.692194	-0.735723	0.519519
C146	C	0.692159	-0.713915	0.460662
H147	H	0.673266	-0.662911	0.444924
H148	H	0.739923	-0.729035	0.429662
C149	C	0.676323	-0.801212	0.478836
C150	C	0.653114	-0.738568	0.459508
H151	H	0.652241	-0.816420	0.478122
H152	H	0.676349	-0.815906	0.518488
H153	H	0.716126	-0.813804	0.452999
H154	H	0.613315	-0.725977	0.485348
H155	H	0.653080	-0.723872	0.419860
O156	O	-0.053779	-0.654639	1.184574
C157	C	-0.031971	-0.713501	1.184558
H158	H	0.019032	-0.729278	1.165748
H159	H	-0.047141	-0.744481	1.232319
C160	C	-0.119193	-0.695260	1.168537
C161	C	-0.056551	-0.714635	1.145428
H162	H	-0.134357	-0.695961	1.144402
H163	H	-0.133887	-0.655604	1.168549
H164	H	-0.131827	-0.721079	1.208337
H165	H	-0.043918	-0.688811	1.105632
H166	H	-0.041855	-0.754287	1.145408
O167	O	0.181270	-0.771677	1.184705
C168	C	0.232796	-0.771682	1.184746
H169	H	0.232086	-0.723651	1.165907
H170	H	0.233495	-0.793089	1.232527
C171	C	0.289969	-0.866643	1.168830
C172	C	0.289099	-0.807651	1.145687
H173	H	0.324699	-0.888833	1.144739
H174	H	0.255254	-0.866641	1.168805
H175	H	0.290549	-0.884474	1.208647
H176	H	0.288511	-0.789819	1.105873
H177	H	0.323815	-0.807651	1.145704
H178	H	-0.081227	-0.584696	0.666460
H179	H	0.173667	-0.584388	1.184797
O180	O	0.027227	-0.465343	0.438442
C181	C	-0.031612	-0.428192	0.460164
H182	H	-0.059990	-0.457082	0.498615
H183	H	-0.030710	-0.397968	0.476818
C184	C	-0.023913	-0.353929	0.362226
C185	C	-0.058769	-0.389412	0.409449
H186	H	-0.040665	-0.330005	0.330943
H187	H	0.015729	-0.378957	0.347592
H188	H	-0.023165	-0.328747	0.376113
H189	H	-0.059511	-0.414598	0.395564
H190	H	-0.098412	-0.364387	0.424080
H191	H	0.692134	-0.508185	0.589902
O192	O	0.099038	-0.771830	0.673302
C193	C	0.157887	-0.808971	0.651590
H194	H	0.173687	-0.792656	0.600587
H195	H	0.188862	-0.807325	0.666747
C196	C	0.139577	-0.893843	0.738939
C197	C	0.158982	-0.873808	0.676296
H198	H	0.140255	-0.933838	0.754180
H199	H	0.099930	-0.868820	0.753568
H200	H	0.165393	-0.892466	0.751561
H201	H	0.133163	-0.875178	0.663674
H202	H	0.198625	-0.898833	0.661666
H203	H	0.023897	-0.518815	1.024687
H204	H	0.209648	-0.611676	1.024626
O205	O	0.692443	-0.736311	0.708658
C206	C	0.744022	-0.750180	0.719388
H207	H	0.780036	-0.736903	0.674935
H208	H	0.732363	-0.724531	0.748332
C209	C	0.723235	-0.834219	0.806655
C210	C	0.767469	-0.817917	0.752056
H211	H	0.737697	-0.876001	0.826809
H212	H	0.688483	-0.824874	0.799428
H213	H	0.713522	-0.812840	0.830768
H214	H	0.777176	-0.839290	0.727941
H215	H	0.802223	-0.827267	0.759280
O216	O	0.257191	-0.576168	0.906070
C217	C	0.288691	-0.612474	0.947161
H218	H	0.258811	-0.604481	0.991851
H219	H	0.302217	-0.661575	0.953817
C220	C	0.381889	-0.606421	0.867797
C221	C	0.345192	-0.596600	0.922685
H222	H	0.416743	-0.596632	0.852698
H223	H	0.360667	-0.581963	0.840112
H224	H	0.393154	-0.647338	0.873351
H225	H	0.333921	-0.555682	0.917129
H226	H	0.366413	-0.621051	0.950368
O227	O	0.256989	-0.576003	0.598274
C228	C	0.266707	-0.549852	0.624459
H229	H	0.225572	-0.509613	0.633926
H230	H	0.275087	-0.584152	0.668178
C231	C	0.372093	-0.578730	0.569591
C232	C	0.321572	-0.529305	0.581214
H233	H	0.405938	-0.566058	0.542917
H234	H	0.365547	-0.596351	0.551951
H235	H	0.379069	-0.607309	0.606027
H236	H	0.314593	-0.500731	0.544780
H237	H	0.328119	-0.511679	0.598847
H238	H	0.207290	0.010797	0.444973
O239	O	0.027097	0.010253	0.438629
C240	C	0.013004	-0.041328	0.459278
H241	H	0.032335	-0.077360	0.496466
H242	H	-0.037702	-0.029671	0.477334
C243	C	0.016248	-0.020487	0.361532
C244	C	0.039995	-0.064745	0.407204
H245	H	0.032895	-0.034931	0.329410
H246	H	0.025741	0.014265	0.347620
H247	H	-0.026006	-0.010777	0.376587
H248	H	0.082247	-0.074448	0.392151
H249	H	0.030510	-0.099499	0.421112
O250	O	0.055148	-0.475181	0.699163
C251	C	-0.003728	-0.466306	0.708068
H252	H	-0.003634	-0.473303	0.670277
H253	H	-0.021668	-0.499673	0.752721
C254	C	-0.044052	-0.393491	0.754943
C255	C	-0.043937	-0.402081	0.708524
H256	H	-0.068855	-0.353875	0.755227
H257	H	-0.004386	-0.399472	0.748946
H258	H	-0.059000	-0.421301	0.792149
H259	H	-0.028982	-0.374276	0.671319
H260	H	-0.083601	-0.396094	0.714515
H261	H	0.209407	-0.611608	0.562721
O262	O	0.413571	-0.625703	0.686750
C263	C	0.454687	-0.684163	0.690117
H264	H	0.499356	-0.681777	0.653088
H265	H	0.461378	-0.708093	0.735540
C266	C	0.375355	-0.721850	0.727937
C267	C	0.430218	-0.718919	0.682454
H268	H	0.360261	-0.743291	0.723213
H269	H	0.347654	-0.682465	0.725671
H270	H	0.380939	-0.741790	0.765785
H271	H	0.424632	-0.698973	0.644607
H272	H	0.457917	-0.758302	0.684713
O273	O	0.014027	-0.516315	0.657901
C274	C	-0.001153	-0.484757	0.605244
H275	H	0.034167	-0.463539	0.567583
H276	H	-0.003241	-0.516982	0.592045
C277	C	-0.106009	-0.461475	0.662683
C278	C	-0.062630	-0.435410	0.616429
H279	H	-0.143932	-0.431037	0.669582
H280	H	-0.095782	-0.482738	0.698159
H281	H	-0.107741	-0.488329	0.651678
H282	H	-0.060893	-0.408563	0.627438
H283	H	-0.072858	-0.414142	0.580955
H284	H	0.532110	-0.657210	0.644171
H285	H	0.418366	-0.435297	0.611936
O286	O	0.536981	-0.466848	0.569236
C287	C	0.521624	-0.424285	0.517571
H288	H	0.504378	-0.443598	0.503173
H289	H	0.485242	-0.382027	0.527825
C290	C	0.598471	-0.385068	0.484416
C291	C	0.577295	-0.408790	0.466730
H292	H	0.632811	-0.375507	0.453055
H293	H	0.608817	-0.413741	0.519225
H294	H	0.568148	-0.349855	0.492961
H295	H	0.607615	-0.444006	0.458193
H296	H	0.566956	-0.380122	0.431918
O297	O	0.206473	-0.268230	0.547758
C298	C	0.215332	-0.227116	0.488889
H299	H	0.177533	-0.182434	0.489015
H300	H	0.259982	-0.220445	0.470917
C301	C	0.262182	-0.306455	0.448535
C302	C	0.215753	-0.251576	0.448689
H303	H	0.262445	-0.321543	0.423736
H304	H	0.256216	-0.334155	0.488196
H305	H	0.299385	-0.300888	0.433560
H306	H	0.178551	-0.257145	0.463671
H307	H	0.221714	-0.223878	0.409029
H308	H	0.070133	-0.149706	0.702094
O309	O	0.165297	-0.144679	0.506693
C310	C	0.196856	-0.108426	0.491539
H311	H	0.185565	-0.099041	0.532847
H312	H	0.247024	-0.132580	0.474320
C313	C	0.192679	-0.060404	0.391707
C314	C	0.178808	-0.048872	0.442442
H315	H	0.181549	-0.023670	0.361420
H316	H	0.171419	-0.084829	0.401916
H317	H	0.234486	-0.080534	0.377366
H318	H	0.137001	-0.028750	0.456787
H319	H	0.200060	-0.024442	0.432234
O320	O	0.105661	-0.268264	0.749672
C321	C	0.069366	-0.227163	0.781156
H322	H	0.077349	-0.182475	0.751263
H323	H	0.020269	-0.220499	0.794679
C324	C	0.075455	-0.306521	0.874374
C325	C	0.085263	-0.251637	0.837660
H326	H	0.085258	-0.321618	0.909230
H327	H	0.099905	-0.334212	0.853164
H328	H	0.034540	-0.300960	0.885637
H329	H	0.126178	-0.257200	0.826392
H330	H	0.060819	-0.223947	0.858870
