data_functionalizedCrystal
_audit_creation_method	'MofGen! by Chris Wilmer'
_symmetry_space_group_name_H-M	'P1'
_symmetry_Int_Tables_number	1
_symmetry_cell_setting	triclinic
loop_
_symmetry_equiv_pos_as_xyz
  x,y,z
_cell_length_a	12.827893
_cell_length_b	12.827892
_cell_length_c	12.827885
_cell_angle_alpha	90.026888
_cell_angle_beta	90.019272
_cell_angle_gamma	90.017301
loop_
_atom_site_label
_atom_site_type_symbol
_atom_site_fract_x
_atom_site_fract_y
_atom_site_fract_z
Zn1	Zn	-1.597656	0.415983	-0.590870
Zn2	Zn	-1.597544	0.590761	-0.416139
Zn3	Zn	-1.422897	0.416034	-0.416143
Zn4	Zn	-1.422876	0.590683	-0.590839
O5	O	-1.510243	0.503365	-0.503498
O6	O	-1.743877	0.439179	-0.567702
O7	O	-1.574338	0.567637	-0.269903
O8	O	-1.446134	0.269791	-0.439336
O9	O	-1.743795	0.567587	-0.439328
O10	O	-1.574529	0.269754	-0.567707
O11	O	-1.446026	0.439266	-0.269907
O12	O	-1.276658	0.439190	-0.439306
O13	O	-1.446099	0.567455	-0.737079
O14	O	-1.276643	0.567504	-0.567654
O15	O	-1.574509	0.439104	-0.737102
O16	O	-1.574318	0.736986	-0.439298
O17	O	-1.445991	0.736929	-0.567650
C18	C	-1.238733	0.503345	-0.503478
C19	C	-1.122580	0.503362	-0.503494
C20	C	-1.510169	0.774875	-0.503493
C21	C	-1.510232	0.891028	-0.503526
C22	C	-1.510314	0.503265	-0.776068
C23	C	-1.510345	0.503222	-0.892221
C24	C	-1.782813	0.503386	-0.503518
C25	C	-1.898966	0.503395	-0.503527
C26	C	-1.070815	0.566954	-0.566907
C27	C	-0.950765	0.566973	-0.566925
C28	C	-1.573806	0.942807	-0.440087
C29	C	-1.573874	1.062857	-0.440119
C30	C	-1.510338	1.230795	-0.503538
C31	C	-1.510357	1.114642	-0.503588
C32	C	-1.573893	0.439697	-0.944017
C33	C	-1.573925	0.439652	-1.064068
C34	C	-1.510232	0.503390	-0.231988
C35	C	-1.510405	0.503138	-0.115835
H36	H	-1.115375	0.621381	-0.621187
H37	H	-0.906249	0.621420	-0.621212
H38	H	-1.078021	0.448927	-0.449222
O39	O	-1.445322	0.944001	-0.568452
C40	C	-1.386178	0.872549	-0.627412
H41	H	-1.428864	0.794677	-0.631116
H42	H	-1.306816	0.861079	-0.589080
C43	C	-1.318691	1.010830	-0.734042
C44	C	-1.371122	0.915188	-0.738600
H45	H	-1.309399	1.037133	-0.802627
H46	H	-1.358534	1.058970	-0.694318
H47	H	-1.252561	1.001258	-0.702094
H48	H	-1.437255	0.924764	-0.770535
H49	H	-1.331290	0.867051	-0.778332
H50	H	-1.628270	0.385342	-0.899485
H51	H	-1.628190	0.898262	-0.385753
H52	H	-1.628335	0.385270	-1.108611
O53	O	-1.638808	1.116131	-0.375451
C54	C	-1.624430	1.224134	-0.389891
H55	H	-1.590111	1.238896	-0.470508
H56	H	-1.568847	1.255230	-0.327867
C57	C	-1.772319	1.262035	-0.281533
C58	C	-1.730176	1.280166	-0.380552
H59	H	-1.837547	1.296599	-0.275768
H60	H	-1.782004	1.189271	-0.271801
H61	H	-1.725990	1.287948	-0.229857
H62	H	-1.776499	1.254241	-0.432225
H63	H	-1.720502	1.352927	-0.390293
O64	O	-1.445640	0.568078	-1.062593
C65	C	-1.505157	0.635560	-0.999477
H66	H	-1.584376	0.598700	-0.983247
H67	H	-1.516581	0.713026	-1.041472
C68	C	-1.350427	0.699695	-0.915665
C69	C	-1.447722	0.654418	-0.895723
H70	H	-1.314998	0.711332	-0.851667
H71	H	-1.310328	0.654234	-0.958190
H72	H	-1.359961	0.764245	-0.950663
H73	H	-1.438187	0.589864	-0.860738
H74	H	-1.487818	0.699869	-0.853190
H75	H	-0.943476	0.448952	-0.449231
H76	H	-1.455921	1.070121	-0.557899
O77	O	-1.445317	0.567957	-0.945293
C78	C	-1.341141	0.545167	-0.918676
H79	H	-1.335857	0.461722	-0.888608
H80	H	-1.313730	0.601276	-0.855398
C81	C	-1.278000	0.659685	-1.052625
C82	C	-1.271509	0.557194	-1.015703
H83	H	-1.235046	0.667109	-1.112474
H84	H	-1.348185	0.675043	-1.070555
H85	H	-1.255159	0.706431	-0.999884
H86	H	-1.294361	0.510452	-1.068439
H87	H	-1.201326	0.541829	-0.997784
