data_functionalizedCrystal
_audit_creation_method	'MofGen! by Chris Wilmer'
_symmetry_space_group_name_H-M	'P1'
_symmetry_Int_Tables_number	1
_symmetry_cell_setting	triclinic
loop_
_symmetry_equiv_pos_as_xyz
  x,y,z
_cell_length_a	14.519709
_cell_length_b	14.519709
_cell_length_c	12.996460
_cell_angle_alpha	89.999948
_cell_angle_beta	90.000034
_cell_angle_gamma	96.319856
loop_
_atom_site_label
_atom_site_type_symbol
_atom_site_fract_x
_atom_site_fract_y
_atom_site_fract_z
O1	O	-1.223869	0.120893	0.085418
O2	O	-0.723869	0.620893	0.585418
O3	O	-0.955392	0.135129	0.085448
O4	O	-0.455392	0.635129	0.585448
O5	O	-1.096749	-0.006227	0.085442
O6	O	-0.596749	0.493773	0.585442
O7	O	-1.082512	0.262250	0.085425
O8	O	-0.582512	0.762250	0.585425
O9	O	-1.096734	-0.006235	-0.085692
O10	O	-0.596734	0.493765	0.414308
O11	O	-0.955377	0.135122	-0.085686
O12	O	-0.455377	0.635122	0.414314
O13	O	-1.223854	0.120885	-0.085716
O14	O	-0.723854	0.620885	0.414284
Cu15	Cu	-1.089614	0.128003	-0.101327
Cu16	Cu	-0.589614	0.628003	0.398673
Cu17	Cu	-1.089632	0.128012	0.101059
Cu18	Cu	-0.589632	0.628012	0.601059
O19	O	-1.082497	0.262242	-0.085709
O20	O	-0.582497	0.762242	0.414291
C21	C	-0.921025	0.134462	-0.000115
C22	C	-0.421025	0.634462	0.499885
C23	C	-0.818643	0.132474	-0.000103
C24	C	-0.318643	0.632474	0.499897
C25	C	-1.096078	-0.040591	-0.000120
C26	C	-0.596078	0.459409	0.499880
C27	C	-1.094090	-0.142972	-0.000107
C28	C	-0.594090	0.357028	0.499893
C29	C	-1.258221	0.121553	-0.000150
C30	C	-0.758221	0.621553	0.499850
C31	C	-1.360602	0.123541	-0.000156
C32	C	-0.860602	0.623541	0.499844
C33	C	-1.083168	0.296605	-0.000145
C34	C	-0.583168	0.796605	0.499855
C35	C	-1.085156	0.398987	-0.000152
C36	C	-0.585156	0.898987	0.499848
C37	C	-0.443748	0.125154	-0.000149
C38	C	0.056252	0.625154	0.499851
C39	C	-0.548056	0.127187	-0.000136
C40	C	-0.048056	0.627187	0.499864
C41	C	-0.631192	0.128814	-0.000125
C42	C	-0.131192	0.628814	0.499875
C43	C	-0.735507	0.130847	-0.000114
C44	C	-0.235507	0.630847	0.499886
N45	N	-1.089609	0.127996	-0.243674
N46	N	-0.589609	0.627996	0.256326
C47	C	-1.092476	0.773883	-0.000112
C48	C	-0.592476	1.273883	0.499888
C49	C	-1.090443	0.669575	-0.000123
C50	C	-0.590443	1.169575	0.499877
C51	C	-1.088816	0.586438	-0.000133
C52	C	-0.588816	1.086438	0.499867
C53	C	-1.086783	0.482123	-0.000142
C54	C	-0.586783	0.982123	0.499858
C55	C	-1.089630	0.128013	-0.663488
C56	C	-0.589630	0.628013	-0.163488
C57	C	-1.089622	0.128011	-0.546683
C58	C	-0.589622	0.628011	-0.046683
C59	C	-1.089620	0.128005	-0.453585
C60	C	-0.589620	0.628005	0.046415
C61	C	-1.089610	0.128002	-0.336772
C62	C	-0.589610	0.628002	0.163228
N63	N	-1.089644	0.128012	0.243406
N64	N	-0.589644	0.628012	0.743406
