data_functionalizedCrystal
_audit_creation_method	'MofGen! by Chris Wilmer'
_symmetry_space_group_name_H-M	'P1'
_symmetry_Int_Tables_number	1
_symmetry_cell_setting	triclinic
loop_
_symmetry_equiv_pos_as_xyz
  x,y,z
_cell_length_a	17.699083
_cell_length_b	9.198806
_cell_length_c	17.699083
_cell_angle_alpha	90.004337
_cell_angle_beta	83.283015
_cell_angle_gamma	89.997927
loop_
_atom_site_label
_atom_site_type_symbol
_atom_site_fract_x
_atom_site_fract_y
_atom_site_fract_z
O1	O	1.004075	0.120692	0.095710
O2	O	0.783697	0.120740	0.108162
O3	O	0.900112	0.120701	-0.008253
O4	O	0.887660	0.120730	0.212125
O5	O	0.900103	-0.121084	-0.008254
O6	O	0.783688	-0.121046	0.108161
O7	O	1.004066	-0.121094	0.095709
Cu8	Cu	0.893876	-0.143146	0.101935
Cu9	Cu	0.893887	0.142792	0.101936
O10	O	0.887651	-0.121055	0.212124
C11	C	0.755495	-0.000147	0.107716
C12	C	0.671477	-0.000129	0.106377
C13	C	0.622856	-0.000121	0.174710
C14	C	0.543913	-0.000140	0.173448
C15	C	0.513592	-0.000157	0.103852
C16	C	0.562219	-0.000169	0.035513
C17	C	0.641161	-0.000161	0.036776
C18	C	0.243856	-0.000206	0.030418
C19	C	0.164908	-0.000210	0.029160
C20	C	0.146608	-0.000185	0.167090
C21	C	0.225550	-0.000176	0.168353
C22	C	0.274170	-0.000197	0.100015
C23	C	0.359769	-0.000179	0.101384
C24	C	0.427995	-0.000164	0.102481
N25	N	0.893874	-0.344260	0.101934
C26	C	0.937554	-0.416462	0.145366
C27	C	0.937565	-0.583875	0.145365
C28	C	1.032268	-0.000204	0.096156
C29	C	1.116286	-0.000212	0.097494
C30	C	0.899662	-0.000191	-0.036451
C31	C	0.898323	-0.000192	-0.120469
N32	N	0.893895	0.343906	0.101931
C33	C	0.966656	-0.000209	-0.169090
C34	C	0.965394	-0.000195	-0.248033
C35	C	0.895798	-0.000176	-0.278354
C36	C	0.827459	-0.000154	-0.229727
C37	C	0.828722	-0.000157	-0.150785
C38	C	0.822364	-0.000141	-0.548090
C39	C	0.821106	-0.000143	-0.627038
C40	C	0.959036	-0.000180	-0.645338
C41	C	0.960299	-0.000182	-0.566396
C42	C	0.891961	-0.000154	-0.517776
C43	C	0.893330	-0.000165	-0.432177
C44	C	0.894427	-0.000175	-0.363951
C45	C	0.888102	-0.000160	0.240322
C46	C	0.889440	-0.000150	0.324340
H47	H	0.680748	-0.000167	-0.018868
H48	H	0.856494	-0.594011	0.064749
H49	H	0.647537	-0.000106	0.231384
H50	H	0.856489	-0.406386	0.064747
H51	H	1.014680	-0.000196	-0.684934
H52	H	0.764429	-0.000130	-0.651721
H53	H	0.766718	-0.000118	-0.508512
H54	H	0.537526	-0.000204	-0.021154
C55	C	0.751973	-0.000207	-0.262790
C56	C	0.765490	-0.000252	-0.342331
C57	C	0.695969	-0.000326	-0.372813
H58	H	0.723787	0.084092	-0.246174
H59	H	0.723833	-0.084551	-0.246137
H60	H	0.793618	0.084083	-0.358978
H61	H	0.793664	-0.084545	-0.358968
H62	H	0.667829	-0.084669	-0.356159
H63	H	0.667789	0.083975	-0.356191
H64	H	0.705131	-0.000370	-0.426784
C65	C	1.042298	-0.000151	-0.136321
C66	C	1.101870	-0.000119	-0.195802
C67	C	1.171564	-0.000039	-0.165647
H68	H	1.045767	-0.084443	-0.105920
H69	H	1.045700	0.084199	-0.105925
H70	H	1.098470	-0.084461	-0.226184
H71	H	1.098427	0.084167	-0.226207
H72	H	1.174965	0.084311	-0.135251
H73	H	1.175024	-0.084333	-0.135247
H74	H	1.211992	-0.000004	-0.205999
C75	C	0.754449	-0.000212	-0.098119
C76	C	0.693228	-0.000232	-0.141566
C77	C	0.624794	-0.000292	-0.093078
H78	H	0.751972	0.084083	-0.066924
H79	H	0.752027	-0.084559	-0.066955
H80	H	0.695648	0.084107	-0.172717
H81	H	0.695679	-0.084521	-0.172759
H82	H	0.622373	-0.084640	-0.061914
H83	H	0.622326	0.084004	-0.061886
H84	H	0.583248	-0.000319	-0.122550
C85	C	0.093944	-0.000104	0.241371
C86	C	0.137396	-0.000041	0.302588
C87	C	0.088911	0.000059	0.371024
H88	H	0.062756	-0.084401	0.243858
H89	H	0.062775	0.084242	0.243785
H90	H	0.168552	-0.084379	0.300175
H91	H	0.168583	0.084249	0.300126
H92	H	0.057742	0.084405	0.373439
H93	H	0.057725	-0.084239	0.373504
H94	H	0.118386	0.000115	0.412569
H95	H	1.021038	-0.000212	-0.287618
C96	C	1.035784	-0.000271	-0.533330
C97	C	1.022264	-0.000305	-0.453790
C98	C	1.091784	-0.000399	-0.423305
H99	H	1.063974	0.084018	-0.549941
H100	H	1.063921	-0.084624	-0.549988
H101	H	0.994139	0.084040	-0.437139
H102	H	0.994086	-0.084588	-0.437158
H103	H	1.119921	-0.084752	-0.439962
H104	H	1.119968	0.083892	-0.439922
H105	H	1.082620	-0.000435	-0.369334
H106	H	0.140225	-0.000226	-0.027517
C107	C	0.491164	0.000176	0.247666
C108	C	0.504827	0.124604	0.289566
C109	C	0.456244	0.124952	0.357938
H110	H	0.500304	-0.084030	0.276303
H111	H	0.439794	0.000241	0.236984
H112	H	0.556186	0.124526	0.300249
H113	H	0.495682	0.208830	0.260952
H114	H	0.404874	0.125017	0.347256
H115	H	0.465389	0.040741	0.386568
H116	H	0.465503	0.209380	0.386372
C117	C	0.258506	0.000157	0.243896
C118	C	0.303266	0.124580	0.248656
C119	C	0.333626	0.124948	0.318241
H120	H	0.288979	-0.084052	0.247337
H121	H	0.218260	0.000240	0.284432
H122	H	0.343507	0.124484	0.208130
H123	H	0.272811	0.208809	0.245228
H124	H	0.293379	0.125032	0.358778
H125	H	0.364095	0.040734	0.321676
H126	H	0.363993	0.209374	0.321483
H127	H	0.283434	-0.000224	-0.025228
C128	C	0.987357	-0.333825	0.195078
C129	C	0.966573	-0.370761	0.271421
C130	C	1.012443	-0.294682	0.317238
H131	H	0.980765	-0.232291	0.188588
H132	H	1.039167	-0.358722	0.180866
H133	H	0.914776	-0.345854	0.285629
H134	H	0.973168	-0.472282	0.277935
H135	H	1.064253	-0.319579	0.303026
H136	H	1.005848	-0.193152	0.310741
H137	H	0.998352	-0.319742	0.369041
H138	H	0.974957	-0.645967	0.182553
