data_functionalizedCrystal
_audit_creation_method	'MofGen! by Chris Wilmer'
_symmetry_space_group_name_H-M	'P1'
_symmetry_Int_Tables_number	1
_symmetry_cell_setting	triclinic
loop_
_symmetry_equiv_pos_as_xyz
  x,y,z
_cell_length_a	18.215407
_cell_length_b	13.897448
_cell_length_c	18.215398
_cell_angle_alpha	90.023802
_cell_angle_beta	90.019464
_cell_angle_gamma	90.018140
loop_
_atom_site_label
_atom_site_type_symbol
_atom_site_fract_x
_atom_site_fract_y
_atom_site_fract_z
Zn1	Zn	1.125106	-0.384037	0.416124
Zn2	Zn	1.458439	-0.050704	0.749457
Zn3	Zn	1.791773	0.282629	1.082791
Zn4	Zn	1.125031	-0.545340	0.293061
Zn5	Zn	1.458364	-0.212007	0.626395
Zn6	Zn	1.791697	0.121327	0.959728
Zn7	Zn	1.002039	-0.384062	0.293072
Zn8	Zn	1.335373	-0.050728	0.626405
Zn9	Zn	1.668706	0.282605	0.959738
Zn10	Zn	1.002020	-0.545293	0.416086
Zn11	Zn	1.335353	-0.211960	0.749420
Zn12	Zn	1.668687	0.121373	1.082753
O13	O	1.063549	-0.464683	0.354586
O14	O	1.396882	-0.131350	0.687919
O15	O	1.730216	0.201984	1.021252
O16	O	1.228080	-0.405444	0.399811
O17	O	1.561414	-0.072110	0.733145
O18	O	1.894747	0.261223	1.066478
O19	O	1.108692	-0.523976	0.190078
O20	O	1.442026	-0.190642	0.523412
O21	O	1.775359	0.142691	0.856745
O22	O	1.018404	-0.249077	0.309415
O23	O	1.351737	0.084256	0.642748
O24	O	1.685071	0.417590	0.976082
O25	O	1.228025	-0.523952	0.309398
O26	O	1.561358	-0.190619	0.642731
O27	O	1.894692	0.142715	0.976064
O28	O	1.108821	-0.249059	0.399821
O29	O	1.442154	0.084274	0.733154
O30	O	1.775487	0.417608	1.066488
O31	O	1.018331	-0.405485	0.190086
O32	O	1.351664	-0.072152	0.523419
O33	O	1.684998	0.261181	0.856753
O34	O	0.899053	-0.405440	0.309378
O35	O	1.232386	-0.072107	0.642711
O36	O	1.565719	0.261226	0.976045
O37	O	1.018371	-0.523873	0.519076
O38	O	1.351704	-0.190539	0.852409
O39	O	1.685038	0.142794	1.185742
O40	O	0.899038	-0.523896	0.399756
O41	O	1.232372	-0.190563	0.733090
O42	O	1.565705	0.142770	1.066423
O43	O	1.108802	-0.405399	0.519103
O44	O	1.442135	-0.072065	0.852437
O45	O	1.775468	0.261268	1.185770
O46	O	1.108673	-0.680315	0.309361
O47	O	1.442007	-0.346982	0.642694
O48	O	1.775340	-0.013649	0.976027
O49	O	1.018298	-0.680281	0.399747
O50	O	1.351631	-0.346948	0.733080
O51	O	1.684965	-0.013614	1.066413
C52	C	0.872343	-0.464667	0.354565
C53	C	1.205676	-0.131333	0.687898
C54	C	1.539009	0.202000	1.021231
C55	C	0.790544	-0.464683	0.354573
C56	C	1.123877	-0.131349	0.687906
C57	C	1.457211	0.201984	1.021240
C58	C	0.602362	-0.526460	0.401574
C59	C	0.935695	-0.193126	0.734907
C60	C	1.269028	0.140207	1.068241
C61	C	0.525503	-0.526463	0.401583
C62	C	0.858836	-0.193129	0.734917
C63	C	1.192170	0.140204	1.068250
C64	C	0.525488	-0.402924	0.307614
C65	C	0.858822	-0.069590	0.640947
C66	C	1.192155	0.263743	0.974280
C67	C	0.602346	-0.402917	0.307609
C68	C	0.935679	-0.069583	0.640942
C69	C	1.269012	0.263750	0.974275
C70	C	0.640780	-0.464690	0.354588
C71	C	0.974114	-0.131357	0.687921
C72	C	1.307447	0.201977	1.021255
C73	C	0.487064	-0.464700	0.354602
C74	C	0.820398	-0.131367	0.687935
C75	C	1.153731	0.201966	1.021269
C76	C	0.403731	-0.464703	0.354612
C77	C	0.737064	-0.131370	0.687945
C78	C	1.070397	0.201964	1.021278
C79	C	0.724119	-0.464686	0.354579
C80	C	1.057453	-0.131353	0.687913
C81	C	1.390786	0.201980	1.021246
C82	C	1.063495	-0.715297	0.354565
C83	C	1.396829	-0.381964	0.687898
C84	C	1.730162	-0.048631	1.021231
C85	C	1.063540	-0.822511	0.354580
C86	C	1.396873	-0.489178	0.687913
C87	C	1.730206	-0.155845	1.021247
C88	C	1.063617	-1.018806	0.354626
C89	C	1.396950	-0.685473	0.687960
C90	C	1.730284	-0.352140	1.021293
C91	C	1.063572	-0.909574	0.354603
C92	C	1.396905	-0.576241	0.687936
C93	C	1.730239	-0.242907	1.021269
C94	C	1.255502	-0.464700	0.354607
C95	C	1.588835	-0.131367	0.687941
C96	C	1.922169	0.201966	1.021274
C97	C	1.337301	-0.464708	0.354617
C98	C	1.670634	-0.131374	0.687950
C99	C	2.003967	0.201959	1.021283
C100	C	1.063593	-0.464628	0.546539
C101	C	1.396926	-0.131294	0.879872
C102	C	1.730259	0.202039	1.213206
C103	C	1.063611	-0.464604	0.628338
C104	C	1.396945	-0.131271	0.961671
C105	C	1.730278	0.202063	1.295004
C106	C	1.063623	-0.213090	0.354623
C107	C	1.396956	0.120243	0.687957
C108	C	1.730290	0.453577	1.021290
C109	C	1.063655	-0.105876	0.354639
C110	C	1.396988	0.227457	0.687973
C111	C	1.730321	0.560791	1.021306
C112	C	1.063548	-0.464669	0.163380
C113	C	1.396881	-0.131335	0.496713
C114	C	1.730215	0.201998	0.830046
C115	C	1.063672	-0.464421	0.081581
C116	C	1.397005	-0.131087	0.414914
C117	C	1.730339	0.202246	0.748248
C118	C	1.110696	-0.526183	0.893396
C119	C	1.444029	-0.192849	1.226729
C120	C	1.777363	0.140484	1.560063
C121	C	1.110685	-0.526216	0.816537
C122	C	1.444018	-0.192883	1.149871
C123	C	1.777351	0.140450	1.483204
C124	C	1.016582	-0.402839	0.816528
C125	C	1.349915	-0.069506	1.149862
C126	C	1.683249	0.263828	1.483195
C127	C	1.016590	-0.402811	0.893386
C128	C	1.349924	-0.069478	1.226719
C129	C	1.683257	0.263856	1.560052
C130	C	1.063651	-0.464482	0.931818
C131	C	1.396985	-0.131148	1.265151
C132	C	1.730318	0.202185	1.598484
C133	C	1.063632	-0.464543	0.778101
C134	C	1.396965	-0.131210	1.111435
C135	C	1.730299	0.202124	1.444768
C136	C	1.063619	-0.464579	0.694768
C137	C	1.396953	-0.131245	1.028101
C138	C	1.730286	0.202088	1.361434
C139	C	1.063663	-0.464447	1.015157
C140	C	1.396996	-0.131114	1.348490
C141	C	1.730330	0.202219	1.681823
H142	H	0.494185	-0.352632	0.269364
H143	H	0.827519	-0.019298	0.602697
H144	H	1.160852	0.314035	0.936030
H145	H	1.149015	-0.576400	0.924685
H146	H	1.482349	-0.243067	1.258018
H147	H	1.815682	0.090267	1.591352
N148	N	1.161423	-0.592769	0.775097
N149	N	1.494756	-0.259435	1.108430
N150	N	1.828090	0.073898	1.441763
H151	H	1.191234	-0.631830	0.811108
H152	H	1.524567	-0.298497	1.144442
H153	H	1.857901	0.034837	1.477775
H154	H	1.195486	-0.553519	0.743217
H155	H	1.528819	-0.220185	1.076551
H156	H	1.862152	0.113148	1.409884
H157	H	0.978268	-0.352628	0.785228
H158	H	1.311601	-0.019295	1.118561
H159	H	1.644934	0.314039	1.451894
H160	H	0.978277	-0.352565	0.924669
H161	H	1.311610	-0.019232	1.258003
H162	H	1.644944	0.314101	1.591336
H163	H	0.633653	-0.576757	0.439829
H164	H	0.966986	-0.243424	0.773163
H165	H	1.300320	0.089909	1.106496
H166	H	0.633627	-0.352610	0.269347
H167	H	0.966960	-0.019277	0.602680
H168	H	1.300294	0.314056	0.936013
H169	H	0.494226	-0.576760	0.439845
H170	H	0.827559	-0.243427	0.773179
H171	H	1.160893	0.089906	1.106512
