data_functionalizedCrystal
_audit_creation_method	'MofGen! by Chris Wilmer'
_symmetry_space_group_name_H-M	'P1'
_symmetry_Int_Tables_number	1
_symmetry_cell_setting	triclinic
loop_
_symmetry_equiv_pos_as_xyz
  x,y,z
_cell_length_a	6.817900
_cell_length_b	14.858329
_cell_length_c	14.125286
_cell_angle_alpha	95.641192
_cell_angle_beta	100.396688
_cell_angle_gamma	104.519616
loop_
_atom_site_label
_atom_site_type_symbol
_atom_site_fract_x
_atom_site_fract_y
_atom_site_fract_z
V1	V	-3.996470	-0.127952	-0.300263
V2	V	-3.496470	0.372048	0.199737
O3	O	-3.979253	0.006888	-0.294265
O4	O	-3.479253	0.506888	0.205735
O5	O	-3.953299	-0.254417	-0.298481
O6	O	-3.453299	0.245583	0.201519
O7	O	-3.932530	-0.125659	-0.431095
O8	O	-3.432530	0.374341	0.068905
O9	O	-4.000166	-0.122762	-0.160734
O10	O	-3.500166	0.377238	0.339266
V11	V	-4.481434	-0.111862	-0.283541
V12	V	-3.981434	0.388138	0.216459
O13	O	-4.254567	-0.163246	-0.336944
O14	O	-3.754567	0.336754	0.163056
O15	O	-4.673535	-0.076567	-0.246861
O16	O	-4.173535	0.423433	0.253139
O17	O	-4.301399	0.014604	-0.285324
O18	O	-3.801399	0.514604	0.214676
O19	O	-4.616049	-0.246701	-0.289539
O20	O	-4.116049	0.253299	0.210461
O21	O	-4.595136	-0.117051	-0.423071
O22	O	-4.095136	0.382949	0.076929
O23	O	-4.322168	-0.114154	-0.152710
O24	O	-3.822168	0.385846	0.347290
C25	C	-3.800074	-0.285257	-0.293814
C26	C	-3.300074	0.214743	0.206186
C27	C	-3.845960	-0.388642	-0.293229
C28	C	-3.345960	0.111358	0.206771
C29	C	-3.883219	-0.472601	-0.292745
C30	C	-3.383219	0.027399	0.207255
C31	C	-3.929981	-0.577932	-0.292142
C32	C	-3.429981	-0.077932	0.207858
C33	C	-3.967267	-0.661886	-0.291663
C34	C	-3.467267	-0.161886	0.208337
C35	C	-4.014032	-0.767223	-0.291058
C36	C	-3.514032	-0.267223	0.208942
C37	C	-3.773581	-0.121012	-0.462975
C38	C	-3.273581	0.378988	0.037025
C39	C	-3.802620	-0.119975	-0.569932
C40	C	-3.302620	0.380025	-0.069932
C41	C	-4.041467	-0.121860	-0.818058
C42	C	-3.541467	0.378140	-0.318058
C43	C	-3.855818	-0.117952	-0.765735
C44	C	-3.355818	0.382048	-0.265735
C45	C	-3.826220	-0.119078	-0.656780
C46	C	-3.326220	0.380922	-0.156780
C47	C	-4.071074	-0.120734	-0.927023
C48	C	-3.571074	0.379266	-0.427023
C49	C	-4.117966	0.045439	-0.289988
C50	C	-3.617966	0.545439	0.210012
C51	C	-4.051318	0.148823	-0.290579
C52	C	-3.551318	0.648823	0.209421
C53	C	-4.144460	-0.118804	-0.120825
C54	C	-3.644460	0.381196	0.379175
C55	C	-4.094659	-0.119837	-0.013867
C56	C	-3.594659	0.380163	0.486133
H57	H	-3.719107	-0.113760	-0.802767
H58	H	-3.219107	0.386240	-0.302767
O59	O	-4.204361	-0.126904	-0.773741
O60	O	-3.704361	0.373096	-0.273741
C61	C	-4.138064	-0.126909	-0.673243
C62	C	-3.638064	0.373091	-0.173243
H63	H	-3.992728	-0.152629	-0.660282
H64	H	-3.492728	0.347371	-0.160282
H65	H	-4.265969	-0.175607	-0.645539
H66	H	-3.765969	0.324393	-0.145539
H67	H	-4.101886	-0.052497	-0.632644
H68	H	-3.601886	0.447503	-0.132644
