data_functionalizedCrystal
_audit_creation_method	'MofGen! by Chris Wilmer'
_symmetry_space_group_name_H-M	'P1'
_symmetry_Int_Tables_number	1
_symmetry_cell_setting	triclinic
loop_
_symmetry_equiv_pos_as_xyz
  x,y,z
_cell_length_a	25.639242
_cell_length_b	25.639240
_cell_length_c	12.827885
_cell_angle_alpha	90.038050
_cell_angle_beta	89.970560
_cell_angle_gamma	89.961937
loop_
_atom_site_label
_atom_site_type_symbol
_atom_site_fract_x
_atom_site_fract_y
_atom_site_fract_z
Zn1	Zn	0.799249	0.208197	-0.591072
Zn2	Zn	0.799154	0.295642	-0.416307
Zn3	Zn	0.711814	0.208214	-0.416315
Zn4	Zn	0.711764	0.295595	-0.590976
O5	O	0.755495	0.251912	-0.503667
O6	O	0.872402	0.219808	-0.567926
O7	O	0.787549	0.284071	-0.270072
O8	O	0.723473	0.135047	-0.439540
O9	O	0.872332	0.284054	-0.439527
O10	O	0.787712	0.135034	-0.567933
O11	O	0.723380	0.219839	-0.270077
O12	O	0.638642	0.219793	-0.439447
O13	O	0.723388	0.283974	-0.737225
O14	O	0.638605	0.283992	-0.567770
O15	O	0.787663	0.219763	-0.737295
O16	O	0.787501	0.368801	-0.439434
O17	O	0.723296	0.368766	-0.567762
C18	C	0.619653	0.251890	-0.503599
C19	C	0.561539	0.251893	-0.503595
C20	C	0.310355	0.218428	-0.436965
C21	C	0.364960	0.218423	-0.436952
O22	O	0.393205	0.189939	-0.380242
N23	N	0.392265	0.251899	-0.503648
C24	C	0.364963	0.285379	-0.570369
O25	O	0.393202	0.313852	-0.627098
C26	C	0.310359	0.285381	-0.570386
C27	C	0.283057	0.251906	-0.503679
C28	C	0.283053	0.184956	-0.370264
C29	C	0.228453	0.184961	-0.370276
C30	C	0.201154	0.218439	-0.436990
C31	C	0.228457	0.251912	-0.503691
C32	C	0.283058	0.318857	-0.637112
C33	C	0.228451	0.318856	-0.637124
C34	C	0.201149	0.285381	-0.570417
C35	C	0.146558	0.285395	-0.570417
N36	N	0.119253	0.251919	-0.503721
C37	C	0.146551	0.218441	-0.437007
C38	C	0.479633	0.285372	-0.570327
C39	C	0.534236	0.285373	-0.570305
C40	C	0.534229	0.218417	-0.436890
C41	C	0.479626	0.218418	-0.436907
C42	C	0.452328	0.251896	-0.503632
C43	C	0.031886	0.218456	-0.437037
C44	C	-0.022719	0.218466	-0.437052
C45	C	-0.022708	0.285420	-0.570471
C46	C	0.031893	0.285412	-0.570453
C47	C	0.059188	0.251926	-0.503732
O48	O	0.118278	0.313863	-0.627100
O49	O	0.118305	0.189968	-0.380297
C50	C	0.755397	0.387754	-0.503610
C51	C	0.755402	0.445868	-0.503620
C52	C	0.788971	0.806237	-0.436921
C53	C	0.788987	0.860841	-0.436931
O54	O	0.817458	0.889082	-0.380188
N55	N	0.755537	0.888151	-0.503691
C56	C	0.722074	0.860854	-0.570453
O57	O	0.693624	0.889097	-0.627239
C58	C	0.722061	0.806250	-0.570447
C59	C	0.755508	0.778943	-0.503675
C60	C	0.822416	0.778930	-0.370155
C61	C	0.822399	0.724329	-0.370144
C62	C	0.788937	0.697036	-0.436898
C63	C	0.755492	0.724343	-0.503664
C64	C	0.688600	0.778954	-0.637214
C65	C	0.688590	0.724347	-0.637203
C66	C	0.722038	0.697040	-0.570431
C67	C	0.722013	0.642449	-0.570407
N68	N	0.755462	0.615139	-0.503647
C69	C	0.788924	0.642432	-0.436893
C70	C	0.722104	0.975524	-0.570461
C71	C	0.722114	1.030127	-0.570462
C72	C	0.789028	1.030110	-0.436941
C73	C	0.789015	0.975507	-0.436935
C74	C	0.755553	0.948214	-0.503700
C75	C	0.788886	0.527767	-0.436874
C76	C	0.788865	0.473162	-0.436866
C77	C	0.721953	0.473183	-0.570390
C78	C	0.721972	0.527784	-0.570395
C79	C	0.755443	0.555074	-0.503633
O80	O	0.693557	0.614173	-0.627124
O81	O	0.817374	0.614183	-0.380126
C82	C	0.891868	0.251934	-0.503736
C83	C	0.949982	0.251944	-0.503766
C84	C	0.755531	0.251862	-0.776238
C85	C	0.755546	0.251840	-0.892391
C86	C	0.755589	1.115539	-0.503730
C87	C	0.755579	1.057425	-0.503710
C88	C	0.787355	0.220060	-0.944211
C89	C	0.787371	0.220037	-1.064261
C90	C	0.755490	0.251924	-0.232158
C91	C	0.755576	0.251798	-0.116005
H92	H	0.556460	0.312637	-0.624614
O93	O	0.823413	0.184038	-0.885263
H94	H	0.864452	0.192997	-0.906174
H95	H	-0.044946	0.191206	-0.382728
H96	H	0.694851	0.953305	-0.624826
O97	O	-0.052160	0.321541	-0.642393
H98	H	-0.024005	0.344827	-0.688763
H99	H	0.814606	0.192831	-1.108825
O100	O	0.652527	0.808399	-0.709239
H101	H	0.629266	0.780238	-0.755660
H102	H	0.728344	0.279010	-1.071448
O103	O	0.825124	1.059552	-0.364941
H104	H	0.866151	1.049023	-0.382950
O105	O	0.719483	0.287856	-0.951342
H106	H	0.728399	0.328907	-0.930432
O107	O	0.061323	0.182348	-0.365061
H108	H	0.033157	0.159082	-0.318676
O109	O	0.199013	0.148849	-0.298334
H110	H	0.174107	0.172214	-0.245070
O111	O	0.312493	0.148854	-0.298283
H112	H	0.284326	0.125588	-0.251902
H113	H	0.661342	0.702128	-0.691575
H114	H	0.457400	0.191158	-0.382592
H115	H	0.556465	0.191156	-0.382570
H116	H	0.457411	0.312637	-0.624660
H117	H	0.305278	0.346116	-0.691432
H118	H	0.206228	0.346116	-0.691464
H119	H	0.054123	0.312674	-0.624763
O120	O	0.685897	0.557242	-0.642407
H121	H	0.662627	0.529087	-0.688827
O122	O	0.824948	0.443708	-0.364857
H123	H	0.816013	0.454230	-0.282821
O124	O	0.824983	0.557204	-0.364874
H125	H	0.816031	0.546767	-0.282836
O126	O	0.858483	0.694879	-0.298141
H127	H	0.881756	0.723039	-0.251741
O128	O	0.858509	0.808367	-0.298152
H129	H	0.849556	0.797924	-0.216119
O130	O	0.825098	0.946053	-0.364936
H131	H	0.816162	0.956571	-0.282899
O132	O	0.686035	1.059578	-0.642472
H133	H	0.662769	1.031420	-0.688889
H134	H	0.694707	0.450952	-0.624738
