data_functionalizedCrystal
_audit_creation_method	'MofGen! by Chris Wilmer'
_symmetry_space_group_name_H-M	'P1'
_symmetry_Int_Tables_number	1
_symmetry_cell_setting	triclinic
loop_
_symmetry_equiv_pos_as_xyz
  x,y,z
_cell_length_a	12.759401
_cell_length_b	25.639239
_cell_length_c	12.759393
_cell_angle_alpha	89.963931
_cell_angle_beta	89.982932
_cell_angle_gamma	90.038847
loop_
_atom_site_label
_atom_site_type_symbol
_atom_site_fract_x
_atom_site_fract_y
_atom_site_fract_z
Zn1	Zn	1.606065	-0.208123	-0.593941
Zn2	Zn	1.605891	-0.295568	-0.418245
Zn3	Zn	1.430372	-0.208149	-0.418281
Zn4	Zn	1.430283	-0.295529	-0.593886
O5	O	1.518153	-0.251842	-0.506088
O6	O	1.753063	-0.219728	-0.570643
O7	O	1.582572	-0.283999	-0.271228
O8	O	1.453788	-0.134980	-0.441621
O9	O	1.752935	-0.283974	-0.441559
O10	O	1.582870	-0.134961	-0.570678
O11	O	1.453619	-0.219772	-0.271255
O12	O	1.283339	-0.219735	-0.441567
O13	O	1.453636	-0.283908	-0.740914
O14	O	1.283273	-0.283933	-0.570584
O15	O	1.582783	-0.219690	-0.740955
O16	O	1.582485	-0.368728	-0.441505
O17	O	1.453467	-0.368700	-0.570549
C18	C	1.245185	-0.251833	-0.506074
C19	C	1.128409	-0.251841	-0.506093
C20	C	1.517976	-0.387685	-0.506040
C21	C	1.517996	-0.445799	-0.506055
C22	C	1.073540	-0.285323	-0.573160
C23	C	0.963816	-0.285329	-0.573172
C24	C	0.963839	-0.218371	-0.439039
C25	C	1.073561	-0.218362	-0.439033
C26	C	1.073526	-0.323982	-0.650598
C27	C	0.963802	-0.323988	-0.650609
C28	C	1.585508	-0.806164	-0.439010
C29	C	1.585549	-0.860768	-0.439024
O30	O	1.642766	-0.889007	-0.381967
N31	N	1.518337	-0.888081	-0.506158
C32	C	1.451088	-0.860787	-0.573289
O33	O	1.393924	-0.889033	-0.630394
C34	C	1.451054	-0.806184	-0.573280
C35	C	1.518262	-0.778874	-0.506134
C36	C	1.652711	-0.778854	-0.371870
C37	C	1.652669	-0.724253	-0.371855
C38	C	1.585423	-0.696963	-0.438980
C39	C	1.518220	-0.724273	-0.506119
C40	C	1.383811	-0.778890	-0.640416
C41	C	1.383783	-0.724283	-0.640401
C42	C	1.450991	-0.696973	-0.573256
C43	C	1.450931	-0.642382	-0.573228
N44	N	1.518143	-0.615069	-0.506094
C45	C	1.585388	-0.642360	-0.438970
C46	C	1.451168	-0.975458	-0.573306
C47	C	1.451196	-1.030060	-0.573311
C48	C	1.585658	-1.030038	-0.439046
C49	C	1.585623	-0.975434	-0.439037
C50	C	1.518379	-0.948145	-0.506172
C51	C	1.585294	-0.527695	-0.438943
C52	C	1.585242	-0.473089	-0.438930
C53	C	1.450785	-0.473116	-0.573198
C54	C	1.450832	-0.527717	-0.573207
C55	C	1.518095	-0.555005	-0.506076
O56	O	1.393746	-0.614109	-0.630258
O57	O	1.642553	-0.614107	-0.381885
C58	C	1.792186	-0.251852	-0.506103
C59	C	1.908962	-0.251857	-0.506109
C60	C	1.518219	-0.251792	-0.780122
C61	C	1.518248	-0.251770	-0.896898
C62	C	1.518359	-0.115469	-0.506159
C63	C	1.518446	-0.057355	-0.506190
C64	C	1.585444	-0.285177	-1.061467
C65	C	1.585404	-0.285199	-0.951743
C66	C	1.451119	-0.218321	-0.951783
C67	C	1.451153	-0.218301	-1.061505
C68	C	1.662976	-0.323787	-1.061443
C69	C	1.662937	-0.323810	-0.951719
C70	C	1.518147	-0.251855	-0.233121
C71	C	1.518322	-0.251729	-0.116345
H72	H	1.118231	-0.191095	-0.384427
N73	N	1.315088	-0.696401	-0.708963
N74	N	1.315052	-0.647648	-0.708946
H75	H	1.266535	-0.627956	-0.757365
H76	H	0.933973	-0.364472	-0.628669
N77	N	1.653890	-0.445186	-0.370345
N78	N	1.653844	-0.396433	-0.370329
H79	H	1.702322	-0.376727	-0.321891
N80	N	1.116165	-0.372205	-0.613839
N81	N	1.095555	-0.387859	-0.523349
H82	H	1.125670	-0.421917	-0.497383
H83	H	0.919169	-0.191114	-0.384442
N84	N	1.110936	-0.310421	-0.752712
N85	N	1.167301	-0.270977	-0.764775
H86	H	1.193722	-0.261397	-0.836890
H87	H	1.641135	-0.364276	-1.091197
N88	N	0.921171	-0.305853	-0.747648
N89	N	0.980999	-0.292267	-0.820311
H90	H	0.950891	-0.279458	-0.888842
H91	H	1.744312	-0.312969	-0.921944
N92	N	1.654005	-0.555555	-0.370362
N93	N	1.713994	-0.531156	-0.310423
H94	H	1.762517	-0.550832	-0.261982
H95	H	1.707399	-0.702021	-0.317183
N96	N	1.382158	-0.555609	-0.641781
N97	N	1.322114	-0.531233	-0.701700
H98	H	1.273615	-0.550928	-0.750137
N99	N	1.382536	-0.184166	-0.895761
N100	N	1.389589	-0.135919	-0.908038
H101	H	1.341155	-0.111795	-0.868472
N102	N	1.721420	-0.806717	-0.303297
N103	N	1.781414	-0.782316	-0.243366
H104	H	1.829941	-0.801990	-0.194926
N105	N	1.654278	-0.947548	-0.370441
N106	N	1.714306	-0.971928	-0.310512
H107	H	1.762798	-0.952236	-0.262062
H108	H	1.396031	-0.450888	-0.627847
H109	H	1.640417	-1.052267	-0.384394
H110	H	1.396459	-1.052291	-0.627977
H111	H	1.633748	-0.362287	-0.917669
H112	H	1.329078	-0.801117	-0.695088
N113	N	1.382464	-0.947592	-0.641891
N114	N	1.322464	-0.971990	-0.701822
H115	H	1.273943	-0.952313	-0.750263
N116	N	1.382567	-0.184140	-1.117545
N117	N	1.322601	-0.154300	-1.068566
H118	H	1.274156	-0.130172	-1.108143
H119	H	1.740301	-0.309279	-1.095483
