data_functionalizedCrystal
_audit_creation_method	'MofGen! by Chris Wilmer'
_symmetry_space_group_name_H-M	'P1'
_symmetry_Int_Tables_number	1
_symmetry_cell_setting	triclinic
loop_
_symmetry_equiv_pos_as_xyz
  x,y,z
_cell_length_a	31.640172
_cell_length_b	31.640171
_cell_length_c	15.698487
_cell_angle_alpha	59.994994
_cell_angle_beta	60.006320
_cell_angle_gamma	89.984411
loop_
_atom_site_label
_atom_site_type_symbol
_atom_site_fract_x
_atom_site_fract_y
_atom_site_fract_z
Zr1	Zr	-0.055660	0.407118	0.932561
O2	O	-0.123151	0.427801	0.932553
O3	O	-0.034941	0.339640	0.932539
O4	O	-0.123111	0.339637	1.110231
O5	O	0.034535	0.497351	0.614723
O6	O	-0.123112	0.339638	1.250414
O7	O	-0.034981	0.427803	0.754861
O8	O	0.034607	0.339642	0.932556
O9	O	-0.123184	0.497346	0.932581
O10	O	-0.026141	0.384726	1.037176
O11	O	0.025740	0.436628	0.827975
O12	O	-0.078068	0.436625	1.037185
O13	O	-0.026188	0.488528	0.827984
Zr14	Zr	0.055210	0.518039	0.932632
Zr15	Zr	-0.055661	0.407119	1.156137
Zr16	Zr	0.055212	0.518038	0.709056
Zr17	Zr	-0.055712	0.518035	0.932606
Zr18	Zr	0.055262	0.407122	0.932588
O19	O	0.034491	0.585517	0.932654
O20	O	-0.123153	0.427802	1.250450
O21	O	0.034494	0.585516	0.614758
O22	O	0.122701	0.497356	0.932640
O23	O	-0.034944	0.339641	1.250436
O24	O	0.122703	0.497355	0.614744
O25	O	-0.034985	0.427806	1.250471
O26	O	0.122661	0.585520	0.754962
O27	O	0.122662	0.585519	0.614779
O28	O	0.034532	0.497353	1.110332
O29	O	-0.123185	0.497347	1.110294
O30	O	0.122735	0.427810	0.754899
O31	O	0.122734	0.427810	0.932612
O32	O	0.034606	0.339643	1.110269
O33	O	-0.035056	0.585514	0.754925
O34	O	-0.035057	0.585515	0.932638
O35	O	0.077619	0.488532	0.828009
O36	O	0.025738	0.436629	1.037210
O37	O	-0.026190	0.488529	1.037218
O38	O	0.025691	0.540431	0.828017
C39	C	-0.000160	0.323838	0.932541
C40	C	-0.000137	0.276750	0.932522
C41	C	0.026861	-0.032463	0.823387
C42	C	0.026906	0.144537	0.823350
O43	O	0.049960	0.190462	0.730476
N44	N	-0.000170	0.139578	0.932548
C45	C	-0.027256	0.090365	1.041763
O46	O	-0.050280	0.090208	1.134642
C47	C	-0.027298	-0.086633	1.041798
C48	C	-0.000225	-0.081671	0.932593
C49	C	0.053932	-0.027502	0.714190
C50	C	0.053918	-0.071750	0.714200
C51	C	0.026833	-0.120958	0.823407
C52	C	-0.000239	-0.125918	0.932603
C53	C	-0.054381	-0.135846	1.151012
C54	C	-0.054388	-0.180095	1.151011
C55	C	-0.027315	-0.175133	1.041806
C56	C	-0.027338	-0.219374	1.041820
N57	N	-0.000263	-0.214415	0.932622
C58	C	0.026823	-0.165207	0.823415
C59	C	-0.027233	0.183293	1.041737
C60	C	-0.027223	0.227542	1.041729
C61	C	0.026940	0.281711	0.823315
C62	C	0.026927	0.237461	0.823325
C63	C	-0.000157	0.188252	0.932539
C64	C	0.026791	-0.258132	0.823445
C65	C	0.026773	-0.302385	0.823465
C66	C	-0.027388	-0.356550	1.041878
C67	C	-0.027372	-0.312301	1.041858
C68	C	-0.000279	-0.263090	0.932632
O69	O	-0.050375	-0.265314	1.134645
O70	O	0.049853	-0.165062	0.730550
C71	C	0.026875	0.011785	0.823376
C72	C	-0.000197	0.006824	0.932573
C73	C	-0.027283	-0.042384	1.041779
C74	C	-0.000187	0.051073	0.932564
C75	C	0.026898	0.100281	0.823358
C76	C	0.053974	0.105240	0.714160
C77	C	0.053960	0.060993	0.714170
C78	C	-0.054358	-0.047343	1.150977
C79	C	-0.054343	-0.003093	1.150958
C80	C	-0.027257	0.046115	1.041752
C81	C	-0.138971	0.462573	0.932563
C82	C	-0.186060	0.462571	0.932552
C83	C	-0.478115	0.500891	0.932633
C84	C	-0.655110	0.500895	0.932652
O85	O	-0.678024	0.533466	0.932719
N86	N	-0.677222	0.462582	0.932635
C87	C	-0.655084	0.424263	0.932621
O88	O	-0.677956	0.391673	0.932619
C89	C	-0.478092	0.424258	0.932611
C90	C	-0.455980	0.462576	0.932616
C91	C	-0.456002	0.539206	0.932640
C92	C	-0.411755	0.539206	0.932629
C93	C	-0.389619	0.500891	0.932611
C94	C	-0.411732	0.462576	0.932604
C95	C	-0.455958	0.385938	0.932605
C96	C	-0.411708	0.385939	0.932606
C97	C	-0.389595	0.424257	0.932611
C98	C	-0.345349	0.424262	0.932576
N99	N	-0.323237	0.462575	0.932593
C100	C	-0.345372	0.500890	0.932611
C101	C	-0.748007	0.424269	0.932623
C102	C	-0.792254	0.424271	0.932624
C103	C	-0.792277	0.500902	0.932657
C104	C	-0.748027	0.500902	0.932649
C105	C	-0.725895	0.462582	0.932641
C106	C	-0.252449	0.500888	0.932586
C107	C	-0.208196	0.500886	0.932570
C108	C	-0.208178	0.424254	0.932542
C109	C	-0.252426	0.424257	0.932552
C110	C	-0.274561	0.462576	0.932578
O111	O	-0.322411	0.391705	0.932522
O112	O	-0.322499	0.533468	0.932639
C113	C	-0.522363	0.500890	0.932645
C114	C	-0.544475	0.462576	0.932638
C115	C	-0.522340	0.424261	0.932620
C116	C	-0.588722	0.462577	0.932638
C117	C	-0.610857	0.500892	0.932656
C118	C	-0.588745	0.539205	0.932674
C119	C	-0.544498	0.539205	0.932662
C120	C	-0.544452	0.385948	0.932603
C121	C	-0.588699	0.385951	0.932613
C122	C	-0.610834	0.424266	0.932631
C123	C	0.138521	0.462584	0.932630
C124	C	0.185611	0.462586	0.932641
C125	C	-0.000223	0.462577	0.652937
C126	C	-0.000222	0.462577	0.558023
C127	C	-0.000290	0.601319	0.932652
C128	C	-0.000312	0.648407	0.932671
C129	C	-0.000227	0.462582	0.384248
C130	C	-0.000225	0.462581	0.480949
C131	C	-0.000227	0.462580	1.212256
C132	C	-0.000228	0.462580	1.307170
C133	C	-0.138908	0.323833	1.212167
C134	C	-0.185976	0.276745	1.307051
C135	C	-0.000162	0.323839	1.212201
C136	C	-0.000140	0.276752	1.307096
C137	C	0.138523	0.462583	0.652970
C138	C	0.185613	0.462584	0.558068
C139	C	-0.000288	0.601318	0.652993
C140	C	-0.000310	0.648405	0.558098
C141	C	0.138458	0.601324	0.653026
C142	C	0.185526	0.648412	0.558142
C143	C	-0.138973	0.462574	1.212223
C144	C	-0.186063	0.462573	1.307126
C145	C	-0.235190	0.281722	1.351623
C146	C	-0.279419	0.237481	1.440790
C147	C	-0.274434	0.188264	1.485376
C148	C	-0.225214	0.183287	1.440800
C149	C	-0.180986	0.227528	1.351641
C150	C	-0.027215	0.227542	1.351651
C151	C	-0.027205	0.183294	1.440828
C152	C	-0.000117	0.188258	1.485441
C153	C	0.026958	0.237474	1.440881
C154	C	0.026945	0.281720	1.351713
C155	C	0.234812	0.489683	0.513509
C156	C	0.279062	0.489694	0.424325
C157	C	0.274113	0.462605	0.379708
C158	C	0.224909	0.435505	0.424271
C159	C	0.180660	0.435497	0.513447
C160	C	0.026761	0.697615	0.513551
C161	C	0.026739	0.741863	0.424400
C162	C	-0.000351	0.736899	0.379790
C163	C	-0.027424	0.687683	0.424345
C164	C	-0.027405	0.643437	0.513501
C165	C	0.180524	0.697621	0.513579
C166	C	0.224745	0.741870	0.424413
C167	C	0.273967	0.736910	0.379818
C168	C	0.278968	0.687696	0.424385
C169	C	0.234748	0.643447	0.513544
C170	C	-0.181097	0.489665	1.351719
C171	C	-0.225339	0.489662	1.440902
C172	C	-0.274546	0.462569	1.485484
C173	C	-0.279512	0.435474	1.440886
C174	C	-0.235270	0.435474	1.351711
H175	H	0.048852	-0.218067	0.734503
H176	H	-0.319491	0.241543	1.477068
H177	H	-0.474021	0.570407	0.932658
H178	H	-0.239259	0.321794	1.315329
H179	H	0.309970	0.772943	0.307219
H180	H	0.319051	0.683664	0.388063
H181	H	-0.310566	0.462574	1.558096
H182	H	-0.606773	0.570404	0.932679
H183	H	0.140448	0.701670	0.549877
H184	H	0.140601	0.413427	0.549725
H185	H	0.076026	0.145314	0.625240
H186	H	0.238852	0.511744	0.549822
H187	H	-0.310451	0.152245	1.557975
H188	H	-0.049424	-0.316343	1.130783
H189	H	0.048823	0.701667	0.549856
H190	H	-0.141034	0.511729	1.315431
H191	H	0.220886	0.413450	0.387931
H192	H	0.049012	0.241508	1.477219
H193	H	0.048993	0.321785	0.734395
H194	H	-0.319582	0.413416	1.477198
H195	H	-0.393756	0.570407	0.932640
H196	H	0.310148	0.462616	0.307096
H197	H	-0.000110	0.152226	1.558046
H198	H	-0.473954	0.354735	0.932601
H199	H	-0.270466	0.532091	0.932608
H200	H	-0.000362	0.772931	0.307193
H201	H	-0.076443	-0.220163	1.239948
H202	H	-0.221163	0.143208	1.477116
H203	H	-0.730025	0.532104	0.932652
H204	H	-0.239321	0.413413	1.315407
H205	H	-0.810305	0.532102	0.932663
H206	H	-0.221286	0.511729	1.477198
H207	H	0.238828	0.603381	0.549825
H208	H	0.048787	0.781931	0.388133
H209	H	-0.049280	0.223490	1.315350
H210	H	-0.810250	0.393073	0.932601
H211	H	0.048819	-0.298338	0.734533
H212	H	-0.140916	0.223468	1.315352
H213	H	-0.049253	0.143226	1.477094
H214	H	0.076006	0.065040	0.625244
H215	H	0.075966	-0.067702	0.625274
H216	H	0.319122	0.511761	0.388056
H217	H	-0.076394	-0.007141	1.239892
H218	H	-0.190146	0.393060	0.932523
H219	H	0.075991	0.012563	0.625256
H220	H	-0.076414	-0.087408	1.239907
H221	H	0.048996	0.321787	1.315438
H222	H	-0.393687	0.354737	0.932587
H223	H	0.048973	0.241507	0.734400
H224	H	-0.049447	0.603370	0.549760
H225	H	-0.049275	0.223496	1.130653
H226	H	-0.049480	0.683649	0.388010
H227	H	-0.049289	0.143226	1.130676
H228	H	-0.049442	-0.396622	1.130792
H229	H	-0.190193	0.532091	0.932570
H230	H	-0.076427	-0.139895	1.239936
H231	H	-0.526435	0.354746	0.932595
H232	H	-0.729992	0.393062	0.932622
H233	H	-0.270427	0.393058	0.932534
H234	H	0.220662	0.781938	0.388141
H235	H	-0.526497	0.570408	0.932667
H236	H	-0.606697	0.354748	0.932599
