data_functionalizedCrystal
_audit_creation_method	'MofGen! by Chris Wilmer'
_symmetry_space_group_name_H-M	'P1'
_symmetry_Int_Tables_number	1
_symmetry_cell_setting	triclinic
loop_
_symmetry_equiv_pos_as_xyz
  x,y,z
_cell_length_a	17.077404
_cell_length_b	13.897448
_cell_length_c	17.077396
_cell_angle_alpha	89.971798
_cell_angle_beta	89.982756
_cell_angle_gamma	90.017917
loop_
_atom_site_label
_atom_site_type_symbol
_atom_site_fract_x
_atom_site_fract_y
_atom_site_fract_z
Zn1	Zn	1.200065	-0.384001	-0.443849
Zn2	Zn	1.700065	0.115999	0.056151
Zn3	Zn	1.199990	-0.545316	-0.312585
Zn4	Zn	1.699990	-0.045316	0.187415
Zn5	Zn	1.068802	-0.384037	-0.312597
Zn6	Zn	1.568802	0.115963	0.187403
Zn7	Zn	1.068777	-0.545257	-0.443809
Zn8	Zn	1.568777	-0.045257	0.056191
O9	O	1.134409	-0.464653	-0.378210
O10	O	1.634409	0.035347	0.121790
O11	O	1.309902	-0.405410	-0.426448
O12	O	1.809902	0.094590	0.073552
O13	O	1.182566	-0.523962	-0.202740
O14	O	1.682566	-0.023962	0.297260
O15	O	1.086257	-0.249051	-0.330029
O16	O	1.586257	0.250949	0.169971
O17	O	1.309847	-0.523927	-0.330010
O18	O	1.809847	-0.023927	0.169990
O19	O	1.182695	-0.249024	-0.426459
O20	O	1.682695	0.250976	0.073541
O21	O	1.086184	-0.405471	-0.202748
O22	O	1.586184	0.094529	0.297252
O23	O	0.958952	-0.405414	-0.329990
O24	O	1.458952	0.094586	0.170010
O25	O	1.086214	-0.523826	-0.553661
O26	O	1.586214	-0.023826	-0.053661
O27	O	0.958934	-0.523861	-0.426391
O28	O	1.458934	-0.023861	0.073609
O29	O	1.182671	-0.405352	-0.553690
O30	O	1.682671	0.094648	-0.053690
O31	O	1.182542	-0.680290	-0.329971
O32	O	1.682542	-0.180290	0.170029
O33	O	1.086140	-0.680246	-0.426380
O34	O	1.586140	-0.180246	0.073620
C35	C	0.930461	-0.464635	-0.378188
C36	C	1.430461	0.035365	0.121812
C37	C	0.843211	-0.464651	-0.378198
C38	C	1.343211	0.035349	0.121802
C39	C	1.134351	-0.715267	-0.378187
C40	C	1.634351	-0.215267	0.121813
C41	C	1.134399	-0.822481	-0.378204
C42	C	1.634399	-0.322481	0.121796
C43	C	0.802232	-0.526419	-0.428313
C44	C	1.302232	-0.026419	0.071687
C45	C	0.720251	-0.526422	-0.428326
C46	C	1.220251	-0.026422	0.071674
C47	C	0.679252	-0.464659	-0.378218
C48	C	1.179252	0.035341	0.121782
C49	C	0.720237	-0.402884	-0.328100
C50	C	1.220237	0.097116	0.171900
C51	C	0.802216	-0.402878	-0.328092
C52	C	1.302216	0.097122	0.171908
C53	C	0.549367	-0.402903	-0.328119
C54	C	1.049367	0.097097	0.171881
C55	C	0.467382	-0.402910	-0.328126
C56	C	0.967382	0.097090	0.171874
C57	C	0.467402	-0.526447	-0.428353
C58	C	0.967402	-0.026447	0.071647
C59	C	0.549381	-0.526441	-0.428345
C60	C	1.049381	-0.026441	0.071655
C61	C	0.590361	-0.464666	-0.378226
C62	C	1.090361	0.035334	0.121774
C63	C	1.134481	-1.018776	-0.378253
C64	C	1.634481	-0.518776	0.121747
C65	C	1.134433	-0.909544	-0.378228
C66	C	1.634433	-0.409544	0.121772
C67	C	1.339153	-0.464671	-0.378232
C68	C	1.839153	0.035329	0.121768
C69	C	1.426403	-0.464679	-0.378242
C70	C	1.926403	0.035321	0.121758
C71	C	1.134448	-0.464578	-0.582954
C72	C	1.634448	0.035422	-0.082954
C73	C	1.134465	-0.464546	-0.670204
C74	C	1.634465	0.035454	-0.170204
C75	C	1.134488	-0.213060	-0.378250
C76	C	1.634488	0.286940	0.121750
C77	C	1.134521	-0.105846	-0.378267
C78	C	1.634521	0.394154	0.121733
C79	C	1.084294	-0.402841	-0.711198
C80	C	1.584294	0.097159	-0.211198
C81	C	1.084307	-0.402819	-0.793179
C82	C	1.584307	0.097181	-0.293179
C83	C	1.134495	-0.464498	-0.834164
C84	C	1.634495	0.035502	-0.334164
C85	C	1.184668	-0.526211	-0.793164
C86	C	1.684668	-0.026211	-0.293164
C87	C	1.184651	-0.526237	-0.711185
C88	C	1.684651	-0.026237	-0.211185
C89	C	1.184702	-0.526150	-0.964034
C90	C	1.684702	-0.026150	-0.464034
C91	C	1.184721	-0.526123	-1.046019
C92	C	1.684721	-0.026123	-0.546019
C93	C	1.084358	-0.402732	-1.046028
C94	C	1.584358	0.097268	-0.546028
C95	C	1.084341	-0.402758	-0.964049
C96	C	1.584341	0.097242	-0.464049
C97	C	1.134515	-0.464470	-0.923055
C98	C	1.634515	0.035530	-0.423055
C99	C	1.134415	-0.464658	-0.174262
C100	C	1.634415	0.035342	0.325738
C101	C	1.134550	-0.464418	-0.087013
C102	C	1.634550	0.035582	0.412987
H103	H	0.835608	-0.576717	-0.469114
H104	H	1.335608	-0.076717	0.030886
H105	H	1.043449	-0.352576	-0.826552
H106	H	1.543449	0.147424	-0.326552
O107	O	1.035517	-0.342811	-0.924356
O108	O	1.535517	0.157189	-0.424356
C109	C	0.991248	-0.288320	-0.978115
C110	C	1.491248	0.211680	-0.478115
H111	H	0.988525	-0.327807	-1.036546
H112	H	1.488525	0.172193	-0.536546
H113	H	0.929401	-0.278031	-0.954420
H114	H	1.429401	0.221969	-0.454420
H115	H	1.020021	-0.215062	-0.986849
H116	H	1.520021	0.284938	-0.486849
O117	O	0.680566	-0.586526	-0.477024
O118	O	1.180566	-0.086526	0.022976
C119	C	0.734332	-0.641029	-0.521254
C120	C	1.234332	-0.141029	-0.021254
H121	H	0.792757	-0.644301	-0.489092
H122	H	1.292757	-0.144301	0.010908
H123	H	0.710637	-0.717047	-0.529506
H124	H	1.210637	-0.217047	-0.029506
H125	H	0.743079	-0.605814	-0.580927
H126	H	1.243079	-0.105814	-0.080927
O127	O	1.035521	-0.342932	-1.085875
O128	O	1.535521	0.157068	-0.585875
C129	C	0.984822	-0.397835	-1.133284
C130	C	1.484822	0.102165	-0.633284
H131	H	0.979956	-0.473814	-1.108564
H132	H	1.479956	0.026186	-0.608564
H133	H	0.924421	-0.362950	-1.134204
H134	H	1.424421	0.137050	-0.634204
H135	H	1.009093	-0.401137	-1.195421
H136	H	1.509093	0.098863	-0.695421
H137	H	0.835580	-0.352575	-0.287287
H138	H	1.335580	0.147425	0.212713
H139	H	0.582761	-0.576738	-0.469142
H140	H	1.082761	-0.076738	0.030858
H141	H	1.225589	-0.576348	-1.079387
H142	H	1.725589	-0.076348	-0.579387
H143	H	0.686848	-0.352592	-0.287305
H144	H	1.186848	0.147408	0.212695
O145	O	0.427478	-0.586360	-0.477018
O146	O	0.927478	-0.086360	0.022982
C147	C	0.346330	-0.573138	-0.466273
C148	C	0.846330	-0.073138	0.033727
H149	H	0.335138	-0.498657	-0.440674
H150	H	0.835138	0.001343	0.059326
H151	H	0.315199	-0.579776	-0.525066
H152	H	0.815199	-0.079776	-0.025066
H153	H	0.323034	-0.630287	-0.424391
H154	H	0.823034	-0.130287	0.075609
H155	H	0.582729	-0.352591	-0.287314
H156	H	1.082729	0.147409	0.212686
O157	O	1.233512	-0.586131	-0.924333
O158	O	1.733512	-0.086131	-0.424333
C159	C	1.277800	-0.640584	-0.978084
C160	C	1.777800	-0.140584	-0.478084
H161	H	1.280547	-0.601055	-1.036529
H162	H	1.780547	-0.101055	-0.536529
H163	H	1.339638	-0.650892	-0.954399
H164	H	1.839638	-0.150892	-0.454399
H165	H	1.249030	-0.713834	-0.986789
H166	H	1.749030	-0.213834	-0.486789
O167	O	0.427480	-0.342834	-0.279579
O168	O	0.927480	0.157166	0.220421
C169	C	0.380122	-0.280603	-0.324394
C170	C	0.880122	0.219397	0.175606
H171	H	0.367850	-0.314753	-0.383819
H172	H	0.867850	0.185247	0.116181
H173	H	0.322467	-0.267587	-0.292452
H174	H	0.822467	0.232413	0.207548
H175	H	0.411753	-0.209150	-0.333151
H176	H	0.911753	0.290850	0.166849
O177	O	1.035464	-0.342895	-0.671510
O178	O	1.535464	0.157105	-0.171510
C179	C	0.991198	-0.288413	-0.725276
C180	C	1.491198	0.211587	-0.225276
H181	H	0.988483	-0.327904	-0.783706
H182	H	1.488483	0.172096	-0.283706
H183	H	0.929347	-0.278129	-0.701588
H184	H	1.429347	0.221871	-0.201588
H185	H	1.019965	-0.215153	-0.734011
H186	H	1.519965	0.284847	-0.234011
H187	H	1.225529	-0.576436	-0.826541
H188	H	1.725529	-0.076436	-0.326541
O189	O	1.233315	-0.586144	-0.671240
O190	O	1.733315	-0.086144	-0.171240
C191	C	1.222551	-0.572927	-0.590095
C192	C	1.722551	-0.072927	-0.090095
H193	H	1.161981	-0.541332	-0.578900
H194	H	1.661981	-0.041332	-0.078900
H195	H	1.227844	-0.645190	-0.558926
H196	H	1.727844	-0.145190	-0.058926
H197	H	1.269124	-0.521574	-0.566843
H198	H	1.769124	-0.021574	-0.066843
