data_functionalizedCrystal
_audit_creation_method	'MofGen! by Chris Wilmer'
_symmetry_space_group_name_H-M	'P1'
_symmetry_Int_Tables_number	1
_symmetry_cell_setting	triclinic
loop_
_symmetry_equiv_pos_as_xyz
  x,y,z
_cell_length_a	14.971486
_cell_length_b	14.044220
_cell_length_c	14.048226
_cell_angle_alpha	89.992807
_cell_angle_beta	89.998499
_cell_angle_gamma	88.401503
loop_
_atom_site_label
_atom_site_type_symbol
_atom_site_fract_x
_atom_site_fract_y
_atom_site_fract_z
O1	O	1.196679	0.123538	-0.079053
O2	O	1.530012	0.456871	0.254280
O3	O	1.863346	0.790204	0.587614
O4	O	0.937444	0.138332	-0.079079
O5	O	1.270778	0.471665	0.254254
O6	O	1.604111	0.804998	0.587588
O7	O	1.063171	-0.007054	-0.079057
O8	O	1.396504	0.326279	0.254276
O9	O	1.729837	0.659612	0.587610
O10	O	1.070953	0.268924	-0.079075
O11	O	1.404286	0.602257	0.254258
O12	O	1.737619	0.935590	0.587592
O13	O	1.063153	-0.007063	0.079264
O14	O	1.396487	0.326270	0.412598
O15	O	1.729820	0.659604	0.745931
O16	O	0.937427	0.138323	0.079242
O17	O	1.270760	0.471656	0.412576
O18	O	1.604094	0.804990	0.745909
O19	O	1.196662	0.123529	0.079268
O20	O	1.529995	0.456863	0.412602
O21	O	1.863329	0.790196	0.745935
Zn22	Zn	1.067042	0.130925	0.104392
Zn23	Zn	1.400375	0.464258	0.437726
Zn24	Zn	1.733708	0.797591	0.771059
Zn25	Zn	1.067064	0.130936	-0.104203
Zn26	Zn	1.400398	0.464269	0.229130
Zn27	Zn	1.733731	0.797603	0.562464
O28	O	1.070936	0.268915	0.079246
O29	O	1.404269	0.602249	0.412580
O30	O	1.737602	0.935582	0.745913
C31	C	0.904059	0.137666	0.000078
C32	C	1.237392	0.470999	0.333412
C33	C	1.570726	0.804332	0.666745
C34	C	0.804606	0.135683	0.000069
C35	C	1.137939	0.469016	0.333402
C36	C	1.471272	0.802350	0.666735
C37	C	0.754109	0.221093	0.000064
C38	C	1.087442	0.554427	0.333398
C39	C	1.420775	0.887760	0.666731
C40	C	0.660662	0.219225	0.000079
C41	C	0.993995	0.552558	0.333412
C42	C	1.327329	0.885892	0.666745
C43	C	0.617714	0.131945	0.000090
C44	C	0.951047	0.465278	0.333424
C45	C	1.284381	0.798612	0.666757
C46	C	0.668218	0.046528	0.000097
C47	C	1.001551	0.379862	0.333431
C48	C	1.334884	0.713195	0.666764
C49	C	0.761663	0.048398	0.000090
C50	C	1.094996	0.381731	0.333423
C51	C	1.428329	0.715064	0.666757
C52	C	0.473449	0.042638	0.000111
C53	C	0.806782	0.375971	0.333444
C54	C	1.140115	0.709304	0.666777
C55	C	0.379997	0.040767	0.000117
C56	C	0.713331	0.374101	0.333450
C57	C	1.046664	0.707434	0.666783
C58	C	0.372448	0.213465	0.000100
C59	C	0.705782	0.546798	0.333433
C60	C	1.039115	0.880131	0.666766
C61	C	0.465893	0.215334	0.000092
C62	C	0.799226	0.548668	0.333425
C63	C	1.132560	0.882001	0.666759
C64	C	0.516390	0.129917	0.000097
C65	C	0.849724	0.463250	0.333431
C66	C	1.183057	0.796584	0.666764
C67	C	1.059755	-0.042377	0.000104
C68	C	1.393089	0.290956	0.333437
C69	C	1.726422	0.624290	0.666770
C70	C	1.049594	-0.147614	0.000104
C71	C	1.382928	0.185719	0.333437
C72	C	1.716261	0.519053	0.666770
C73	C	1.031018	-0.340297	0.000088
C74	C	1.364351	-0.006963	0.333422
C75	C	1.697684	0.326370	0.666755
C76	C	1.103085	-0.397848	0.000093
C77	C	1.436418	-0.064515	0.333426
C78	C	1.769751	0.268819	0.666759
C79	C	1.092748	-0.505063	0.000084
C80	C	1.426082	-0.171730	0.333417
C81	C	1.759415	0.161603	0.666751
C82	C	1.041353	-0.233071	0.000097
C83	C	1.374686	0.100262	0.333430
C84	C	1.708019	0.433595	0.666764
C85	C	1.230047	0.124195	0.000109
C86	C	1.563381	0.457528	0.333442
C87	C	1.896714	0.790862	0.666776
C88	C	1.329501	0.126178	0.000112
C89	C	1.662834	0.459511	0.333446
C90	C	1.996167	0.792844	0.666779
C91	C	1.074351	0.304238	0.000083
C92	C	1.407684	0.637571	0.333417
C93	C	1.741017	0.970904	0.666750
C94	C	1.084512	0.409475	0.000077
C95	C	1.417845	0.742808	0.333410
C96	C	1.751179	1.076142	0.666744
N97	N	1.067033	0.130916	0.246753
N98	N	1.400366	0.464250	0.580086
N99	N	1.733699	0.797583	0.913420
N100	N	1.067080	0.130937	-0.246564
N101	N	1.400413	0.464270	0.086770
N102	N	1.733747	0.797604	0.420103
C103	C	1.122726	0.066566	0.296581
C104	C	1.456059	0.399900	0.629914
C105	C	1.789392	0.733233	0.963247
C106	C	1.122732	0.066566	0.396238
C107	C	1.456065	0.399899	0.729572
C108	C	1.789398	0.733232	1.062905
C109	C	1.067049	0.130921	0.446066
C110	C	1.400382	0.464254	0.779400
C111	C	1.733715	0.797587	1.112733
C112	C	1.011350	0.195274	0.396232
C113	C	1.344683	0.528607	0.729565
C114	C	1.678016	0.861941	1.062898
C115	C	1.011340	0.195269	0.296576
C116	C	1.344673	0.528603	0.629909
C117	C	1.678006	0.861936	0.963242
C118	C	1.011376	0.195281	0.603946
C119	C	1.344709	0.528614	0.937279
C120	C	1.678043	0.861948	1.270612
C121	C	1.011387	0.195287	0.703609
C122	C	1.344720	0.528621	1.036942
C123	C	1.678054	0.861954	1.370275
C124	C	1.122768	0.066577	0.703608
C125	C	1.456101	0.399911	1.036942
C126	C	1.789435	0.733244	1.370275
C127	C	1.122758	0.066573	0.603953
C128	C	1.456091	0.399906	0.937286
C129	C	1.789425	0.733239	1.270619
C130	C	1.067060	0.130927	0.554125
C131	C	1.400393	0.464261	0.887458
C132	C	1.733727	0.797594	1.220791
H133	H	0.789070	0.292167	0.000054
H134	H	1.122403	0.625500	0.333387
H135	H	1.455737	0.958833	0.666721
Br136	Br	0.524180	0.333787	0.000062
Br137	Br	0.857513	0.667120	0.333395
Br138	Br	1.190847	1.000453	0.666728
Br139	Br	1.218860	-0.345769	0.000112
Br140	Br	1.552193	-0.012435	0.333446
Br141	Br	1.885526	0.320898	0.666779
Br142	Br	0.609932	-0.071925	0.000123
Br143	Br	0.943266	0.261408	0.333456
Br144	Br	1.276599	0.594742	0.666790
H145	H	0.802776	-0.021152	0.000093
H146	H	1.136110	0.312181	0.333426
H147	H	1.469443	0.645514	0.666760
H148	H	0.961562	-0.371545	0.000079
H149	H	1.294895	-0.038211	0.333412
H150	H	1.628229	0.295122	0.666746
H151	H	1.168073	0.014165	0.256017
H152	H	1.501406	0.347498	0.589351
H153	H	1.834740	0.680832	0.922684
H154	H	1.168080	0.014166	0.436808
H155	H	1.501414	0.347500	0.770141
H156	H	1.834747	0.680833	1.103474
Br157	Br	1.198335	-0.020758	0.536325
Br158	Br	1.531669	0.312576	0.869659
Br159	Br	1.865002	0.645909	1.202992
H160	H	0.966018	0.247683	0.563379
H161	H	1.299351	0.581016	0.896713
H162	H	1.632684	0.914349	1.230046
Br163	Br	1.198361	-0.020756	0.771235
Br164	Br	1.531694	0.312578	1.104568
Br165	Br	1.865028	0.645911	1.437901
Br166	Br	0.303918	0.329389	0.000091
Br167	Br	0.637251	0.662722	0.333424
Br168	Br	0.970585	0.996055	0.666758
Br169	Br	0.935747	0.282600	0.228952
Br170	Br	1.269080	0.615933	0.562285
Br171	Br	1.602414	0.949266	0.895619
H172	H	0.966007	0.247670	0.436807
H173	H	1.299340	0.581003	0.770141
H174	H	1.632674	0.914337	1.103474
H175	H	0.966043	0.247691	0.744173
H176	H	1.299377	0.581024	1.077507
H177	H	1.632710	0.914357	1.410840
Br178	Br	0.592133	0.335144	0.000070
Br179	Br	0.925467	0.668478	0.333403
Br180	Br	1.258800	1.001811	0.666736
H181	H	0.345032	-0.030303	0.000127
H182	H	0.678365	0.303030	0.333461
H183	H	1.011699	0.636363	0.666794
Br184	Br	0.541980	-0.073287	0.000123
Br185	Br	0.875314	0.260046	0.333456
Br186	Br	1.208647	0.593380	0.666789
