data_functionalizedCrystal
_audit_creation_method	'MofGen! by Chris Wilmer'
_symmetry_space_group_name_H-M	'P1'
_symmetry_Int_Tables_number	1
_symmetry_cell_setting	triclinic
loop_
_symmetry_equiv_pos_as_xyz
  x,y,z
_cell_length_a	10.540535
_cell_length_b	10.540510
_cell_length_c	9.616153
_cell_angle_alpha	90.005072
_cell_angle_beta	89.994755
_cell_angle_gamma	84.518476
loop_
_atom_site_label
_atom_site_type_symbol
_atom_site_fract_x
_atom_site_fract_y
_atom_site_fract_z
O1	O	1.685857	0.178882	0.115561
O2	O	1.316442	0.195744	0.115580
O3	O	1.509597	0.002604	0.115570
O4	O	1.492702	0.372022	0.115572
O5	O	1.509609	0.002585	-0.115722
O6	O	1.316453	0.195725	-0.115711
O7	O	1.685869	0.178863	-0.115730
Zn8	Zn	1.501163	0.187291	-0.152443
Zn9	Zn	1.501148	0.187316	0.152293
O10	O	1.492713	0.372003	-0.115720
C11	C	1.269145	0.194471	-0.000063
C12	C	1.128197	0.190691	-0.000056
C13	C	1.091541	0.049676	-0.000062
C14	C	0.944941	0.045698	-0.000601
C15	C	0.918860	0.255052	-0.131894
C16	C	1.065625	0.258052	-0.131991
C17	C	1.065496	0.260126	0.131040
C18	C	0.919150	0.253604	0.132759
C19	C	1.508344	-0.044709	-0.000073
C20	C	1.504577	-0.185659	-0.000065
C21	C	1.638762	-0.403117	-0.000601
C22	C	1.642779	-0.256521	-0.000073
C23	C	1.433824	-0.230406	0.132015
C24	C	1.430785	-0.377167	0.132118
C25	C	1.427920	-0.376997	-0.130903
C26	C	1.434475	-0.230656	-0.132642
C27	C	1.733166	0.180136	-0.000084
C28	C	1.874114	0.183915	-0.000082
C29	C	1.493967	0.419316	-0.000074
C30	C	1.497733	0.560266	-0.000073
N31	N	1.501138	0.187324	0.360268
N32	N	1.501182	0.187273	-0.360418
C33	C	1.397940	0.290739	0.580643
C34	C	1.397542	0.290496	0.419475
C35	C	1.471367	0.054496	0.418743
C36	C	1.470650	0.055072	0.579961
C37	C	1.634489	0.215457	0.580148
C38	C	1.633603	0.218489	0.418921
H39	H	0.890549	0.201836	0.230275
Cl40	Cl	1.156340	-0.033926	0.145856
H41	H	0.871493	0.356818	-0.136423
H42	H	1.107955	0.216131	0.230984
Cl43	Cl	1.678350	0.361906	0.642959
Cl44	Cl	1.582257	-0.067489	0.640159
Cl45	Cl	1.495279	-0.442632	-0.285466
Cl46	Cl	1.101174	0.417651	-0.140672
H47	H	1.692608	-0.445081	-0.095322
H48	H	1.698139	-0.227186	-0.094751
H49	H	1.692289	-0.446616	0.093579
H50	H	1.698451	-0.228109	0.094765
Cl51	Cl	1.668456	0.369363	0.359926
Cl52	Cl	1.757872	0.109887	0.356696
H53	H	1.479128	-0.417374	0.230845
Cl54	Cl	1.322916	0.015662	0.356425
H55	H	1.711329	0.140027	0.618267
H56	H	0.887968	0.206231	-0.230367
H57	H	0.870091	0.354480	0.141129
Cl58	Cl	1.099673	0.420328	0.132973
Cl59	Cl	1.271199	-0.412673	0.141393
H60	H	1.332082	-0.183015	0.136931
H61	H	1.482950	-0.199542	0.230303
Cl62	Cl	1.584302	-0.067317	0.359528
H63	H	1.298625	0.272344	0.380918
H64	H	1.415399	0.389182	0.379942
Cl65	Cl	1.513948	-0.186483	-0.283506
Cl66	Cl	1.278691	-0.154906	-0.144950
H67	H	0.915605	-0.009936	0.093868
Cl68	Cl	1.158645	-0.032547	-0.145788
Cl69	Cl	0.901016	-0.039772	-0.147366
H70	H	1.105807	0.209995	-0.230901
Cl71	Cl	1.267720	-0.411194	-0.132273
H72	H	1.415529	0.389737	0.619438
Cl73	Cl	1.246093	0.263088	0.643205
Cl74	Cl	1.320506	0.017100	0.638036
