data_functionalizedCrystal
_audit_creation_method	'MofGen! by Chris Wilmer'
_symmetry_space_group_name_H-M	'P1'
_symmetry_Int_Tables_number	1
_symmetry_cell_setting	triclinic
loop_
_symmetry_equiv_pos_as_xyz
  x,y,z
_cell_length_a	10.489716
_cell_length_b	13.101039
_cell_length_c	14.044190
_cell_angle_alpha	93.663707
_cell_angle_beta	91.139544
_cell_angle_gamma	93.391327
loop_
_atom_site_label
_atom_site_type_symbol
_atom_site_fract_x
_atom_site_fract_y
_atom_site_fract_z
O1	O	-1.714066	-0.085219	0.128536
O2	O	-1.380733	0.248115	0.461869
O3	O	-1.047399	0.581448	0.795202
O4	O	-1.344144	-0.085224	0.141122
O5	O	-1.010811	0.248110	0.474456
O6	O	-0.677477	0.581443	0.807789
O7	O	-1.523546	-0.085201	-0.003192
O8	O	-1.190213	0.248132	0.330141
O9	O	-0.856880	0.581466	0.663475
O10	O	-1.534664	-0.085241	0.272850
O11	O	-1.201330	0.248092	0.606184
O12	O	-0.867997	0.581425	0.939517
O13	O	-1.510676	0.085227	0.007180
O14	O	-1.177343	0.418560	0.340513
O15	O	-0.844010	0.751894	0.673846
O16	O	-1.331274	0.085204	0.151494
O17	O	-0.997941	0.418538	0.484827
O18	O	-0.664607	0.751871	0.818161
O19	O	-1.701196	0.085210	0.138907
O20	O	-1.367863	0.418543	0.472241
O21	O	-1.034529	0.751876	0.805574
Zn22	Zn	-1.514192	0.112266	0.146847
Zn23	Zn	-1.180858	0.445599	0.480181
Zn24	Zn	-0.847525	0.778933	0.813514
Zn25	Zn	-1.531148	-0.112280	0.133182
Zn26	Zn	-1.197815	0.221053	0.466516
Zn27	Zn	-0.864482	0.554386	0.799849
O28	O	-1.521794	0.085187	0.283222
O29	O	-1.188460	0.418520	0.616555
O30	O	-0.855127	0.751854	0.949889
C31	C	-1.290081	-0.000010	0.145362
C32	C	-0.956747	0.333323	0.478696
C33	C	-0.623414	0.666657	0.812029
C34	C	-1.148163	-0.000011	0.142533
C35	C	-0.814829	0.333322	0.475866
C36	C	-0.481496	0.666656	0.809200
C37	C	-1.512249	0.000016	-0.033353
C38	C	-1.178915	0.333349	0.299980
C39	C	-0.845582	0.666683	0.633313
C40	C	-1.497745	0.000025	-0.138677
C41	C	-1.164411	0.333358	0.194656
C42	C	-0.831078	0.666691	0.527990
C43	C	-1.755259	-0.000006	0.134667
C44	C	-1.421926	0.333327	0.468001
C45	C	-1.088593	0.666660	0.801334
C46	C	-1.897178	-0.000012	0.137496
C47	C	-1.563845	0.333321	0.470830
C48	C	-1.230511	0.666655	0.804163
C49	C	-1.059469	-0.000026	0.231031
C50	C	-0.726136	0.333307	0.564364
C51	C	-0.392802	0.666640	0.897698
C52	C	-0.971032	0.084015	0.189381
C53	C	-0.637699	0.417348	0.522714
C54	C	-0.304365	0.750682	0.856048
C55	C	-0.983725	-0.084014	0.179134
C56	C	-0.650392	0.249320	0.512467
C57	C	-0.317059	0.582653	0.845801
C58	C	-1.061590	0.084100	0.100924
C59	C	-0.728256	0.417433	0.434257
C60	C	-0.394923	0.750766	0.767591
C61	C	-1.074295	-0.084005	0.090686
C62	C	-0.740962	0.249329	0.424019
C63	C	-0.407629	0.582662	0.757352
C64	C	-0.985899	0.000057	0.048972
C65	C	-0.652566	0.333391	0.382305
C66	C	-0.319232	0.666724	0.715638
N67	N	-1.502628	0.265513	0.156173
N68	N	-1.169295	0.598847	0.489506
N69	N	-0.835962	0.932180	0.822840
N70	N	-1.542721	-0.265527	0.123849
N71	N	-1.209388	0.067806	0.457183
N72	N	-0.876054	0.401139	0.790516
C73	C	-1.486897	0.474554	0.168869
C74	C	-1.153564	0.807887	0.502203
C75	C	-0.820230	1.141220	0.835536
C76	C	-1.558448	0.525439	0.111156
C77	C	-1.225115	0.858772	0.444489
C78	C	-0.891782	1.192105	0.777823
C79	C	-1.549695	0.641756	0.118220
C80	C	-1.216362	0.975089	0.451554
C81	C	-0.883029	1.308423	0.784887
C82	C	-1.495649	0.358226	0.161806
C83	C	-1.162315	0.691559	0.495140
C84	C	-0.828982	1.024893	0.828473
C85	C	-1.574094	-0.000014	-0.388450
C86	C	-1.240760	0.333319	-0.055116
C87	C	-0.907427	0.666652	0.278217
C88	C	-1.471253	-0.000009	-0.331516
C89	C	-1.137919	0.333325	0.001818
C90	C	-0.804586	0.666658	0.335151
C91	C	-1.485996	0.000010	-0.224210
C92	C	-1.152663	0.333343	0.109123
C93	C	-0.819330	0.666676	0.442456
C94	C	-1.559352	-0.000033	-0.495765
C95	C	-1.226019	0.333300	-0.162431
C96	C	-0.892685	0.666634	0.170902
C97	C	-1.533091	-0.000032	0.313383
C98	C	-1.199758	0.333301	0.646716
C99	C	-0.866425	0.666634	0.980050
C100	C	-1.547596	-0.000048	0.418706
C101	C	-1.214263	0.333285	0.752039
C102	C	-0.880929	0.666619	1.085373
H103	H	-1.091944	0.000041	0.308016
H104	H	-0.758610	0.333374	0.641349
H105	H	-0.425277	0.666708	0.974682
O106	O	-1.692374	-0.000180	-0.350520
O107	O	-1.359041	0.333153	-0.017187
O108	O	-1.025708	0.666487	0.316146
C109	C	-1.765763	-0.088432	-0.386382
C110	C	-1.432430	0.244902	-0.053048
C111	C	-1.099096	0.578235	0.280285
H112	H	-1.699450	-0.150136	-0.411262
H113	H	-1.366116	0.183197	-0.077928
H114	H	-1.032783	0.516530	0.255405
H115	H	-1.828986	-0.118042	-0.327785
H116	H	-1.495652	0.215291	0.005548
H117	H	-1.162319	0.548624	0.338882
H118	H	-1.828197	-0.068481	-0.449095
H119	H	-1.494864	0.264853	-0.115762
H120	H	-1.161531	0.598186	0.217572
O121	O	-1.352926	0.000126	-0.369381
O122	O	-1.019592	0.333459	-0.036047
O123	O	-0.686259	0.666792	0.297286
C124	C	-1.279584	0.088413	-0.333547
C125	C	-0.946251	0.421746	-0.000214
C126	C	-0.612917	0.755080	0.333120
H127	H	-1.319804	0.117847	-0.262847
H128	H	-0.986471	0.451180	0.070486
H129	H	-0.653138	0.784514	0.403819
H130	H	-1.176316	0.068570	-0.321868
H131	H	-0.842983	0.401903	0.011465
H132	H	-0.509650	0.735236	0.344799
H133	H	-1.283323	0.150212	-0.386948
H134	H	-0.949990	0.483545	-0.053615
H135	H	-0.616656	0.816879	0.279719
O136	O	-1.639098	0.473043	0.045789
O137	O	-1.305765	0.806377	0.379123
O138	O	-0.972431	1.139710	0.712456
C139	C	-1.629791	0.366888	0.053053
C140	C	-1.296458	0.700221	0.386386
C141	C	-0.963125	1.033554	0.719719
H142	H	-1.592244	0.352286	0.127383
H143	H	-1.258911	0.685619	0.460717
H144	H	-0.925577	1.018952	0.794050
H145	H	-1.728154	0.325914	0.040315
H146	H	-1.394820	0.659247	0.373648
H147	H	-1.061487	0.992581	0.706981
H148	H	-1.561454	0.336623	-0.002666
H149	H	-1.228120	0.669956	0.330668
H150	H	-0.894787	1.003290	0.664001
O151	O	-0.917406	0.168865	0.239021
O152	O	-0.584073	0.502198	0.572354
O153	O	-0.250740	0.835532	0.905687
C154	C	-0.958737	0.257332	0.198564
C155	C	-0.625404	0.590666	0.531897
C156	C	-0.292070	0.923999	0.865231
H157	H	-1.052867	0.237762	0.157647
H158	H	-0.719534	0.571096	0.490980
H159	H	-0.386201	0.904429	0.824314
H160	H	-0.973058	0.319095	0.257658
H161	H	-0.639725	0.652429	0.590992
H162	H	-0.306392	0.985762	0.924325
H163	H	-0.883709	0.286677	0.147674
H164	H	-0.550376	0.620010	0.481008
H165	H	-0.217042	0.953344	0.814341
H166	H	-1.095747	0.155220	0.067915
H167	H	-0.762414	0.488553	0.401248
H168	H	-0.429080	0.821887	0.734581
H169	H	-0.953648	0.000117	-0.028062
H170	H	-0.620315	0.333450	0.305272
H171	H	-0.286982	0.666784	0.638605
H172	H	-0.949398	-0.155054	0.212188
H173	H	-0.616065	0.178280	0.545521
H174	H	-0.282732	0.511613	0.878855
O175	O	-1.128036	-0.168858	0.041132
O176	O	-0.794702	0.164475	0.374465
O177	O	-0.461369	0.497809	0.707799
C178	C	-1.088509	-0.257289	0.082665
C179	C	-0.755176	0.076044	0.415998
C180	C	-0.421843	0.409378	0.749332
H181	H	-1.058320	-0.237164	0.160344
H182	H	-0.724986	0.096169	0.493677
H183	H	-0.391653	0.429503	0.827011
H184	H	-1.170925	-0.318267	0.079220
H185	H	-0.837591	0.015066	0.412553
H186	H	-0.504258	0.348400	0.745887
H187	H	-1.004325	-0.287943	0.042017
H188	H	-0.670992	0.045390	0.375350
H189	H	-0.337659	0.378723	0.708684
H190	H	-1.419072	0.518342	0.223582
H191	H	-1.085738	0.851676	0.556916
H192	H	-0.752405	1.185009	0.890249
