data_functionalizedCrystal
_audit_creation_method	'MofGen! by Chris Wilmer'
_symmetry_space_group_name_H-M	'P1'
_symmetry_Int_Tables_number	1
_symmetry_cell_setting	triclinic
loop_
_symmetry_equiv_pos_as_xyz
  x,y,z
_cell_length_a	10.685980
_cell_length_b	16.959454
_cell_length_c	10.685314
_cell_angle_alpha	85.662493
_cell_angle_beta	89.642737
_cell_angle_gamma	85.610190
loop_
_atom_site_label
_atom_site_type_symbol
_atom_site_fract_x
_atom_site_fract_y
_atom_site_fract_z
Zn1	Zn	1.863521	0.266292	-0.856529
Zn2	Zn	1.879450	0.387661	-0.646764
Zn3	Zn	1.669809	0.264791	-0.630679
Zn4	Zn	1.653685	0.407729	-0.840373
O5	O	1.766616	0.331618	-0.743586
O6	O	2.041187	0.274621	-0.842197
O7	O	1.865055	0.362335	-0.469085
O8	O	1.695587	0.154377	-0.660668
O9	O	2.052889	0.363790	-0.688083
O10	O	1.837907	0.155479	-0.826599
O11	O	1.711033	0.272064	-0.457267
O12	O	1.492118	0.291523	-0.645002
O13	O	1.668106	0.397994	-1.018061
O14	O	1.480271	0.396539	-0.799064
O15	O	1.822271	0.294080	-1.029931
O16	O	1.849420	0.500936	-0.672417
O17	O	1.683551	0.515680	-0.814661
C18	C	1.440676	0.346047	-0.718535
C19	C	1.301235	0.352240	-0.707848
C20	C	1.766496	0.536989	-0.743561
C21	C	1.766556	0.624845	-0.743601
C22	C	1.680312	1.004022	-0.817667
C23	C	1.853153	0.988609	-0.669688
C24	C	1.853116	0.906064	-0.669671
C25	C	1.766675	0.872494	-0.743652
C26	C	1.680270	0.921469	-0.817649
C27	C	1.939511	0.857083	-0.595666
C28	C	1.939478	0.774533	-0.595645
C29	C	1.853041	0.740962	-0.669633
C30	C	1.766634	0.789942	-0.743635
C31	C	1.680193	0.756372	-0.817616
C32	C	1.593790	0.805351	-0.891625
C33	C	1.593834	0.887898	-0.891638
C34	C	1.852997	0.658415	-0.669620
C35	C	1.680151	0.673820	-0.817598
C36	C	2.093829	0.317134	-0.768736
C37	C	2.233268	0.310962	-0.779454
C38	C	1.741613	0.348443	-1.070786
C39	C	1.730958	0.355613	-1.210219
C40	C	1.766749	1.125447	-0.743647
C41	C	1.766753	1.037592	-0.743686
C42	C	1.791594	0.314799	-0.417665
C43	C	1.802492	0.307395	-0.278252
H44	H	1.252741	0.392320	-0.638356
Br45	Br	2.056744	0.708069	-0.495217
H46	H	1.661557	0.402381	-1.258650
Br47	Br	1.918138	0.229433	-1.197544
Br48	Br	1.562841	0.628267	-0.918018
Br49	Br	1.314080	0.244151	-0.895260
H50	H	1.523488	0.927783	-0.951891
Br51	Br	1.476473	0.759781	-0.992013
H52	H	1.609968	1.043904	-0.877927
Br53	Br	1.970458	1.034169	-0.569288
Br54	Br	2.056822	0.902646	-0.495276
H55	H	1.923340	0.618540	-0.609357
