data_functionalizedCrystal
_audit_creation_method	'MofGen! by Chris Wilmer'
_symmetry_space_group_name_H-M	'P1'
_symmetry_Int_Tables_number	1
_symmetry_cell_setting	triclinic
loop_
_symmetry_equiv_pos_as_xyz
  x,y,z
_cell_length_a	13.897449
_cell_length_b	13.897447
_cell_length_c	12.759393
_cell_angle_alpha	89.967926
_cell_angle_beta	89.976808
_cell_angle_gamma	90.020357
loop_
_atom_site_label
_atom_site_type_symbol
_atom_site_fract_x
_atom_site_fract_y
_atom_site_fract_z
Zn1	Zn	1.474688	-0.383937	-0.594109
Zn2	Zn	1.474578	-0.545266	-0.418428
Zn3	Zn	1.313378	-0.383989	-0.418434
Zn4	Zn	1.313354	-0.545194	-0.594055
O5	O	1.394000	-0.464596	-0.506257
O6	O	1.609655	-0.405346	-0.570825
O7	O	1.453158	-0.523925	-0.271408
O8	O	1.334833	-0.249000	-0.441763
O9	O	1.609574	-0.523874	-0.441752
O10	O	1.453347	-0.248962	-0.570831
O11	O	1.334725	-0.405435	-0.271412
O12	O	1.178393	-0.405365	-0.441711
O13	O	1.334792	-0.523750	-0.741083
O14	O	1.178376	-0.523801	-0.570738
O15	O	1.453323	-0.405276	-0.741123
O16	O	1.453135	-0.680238	-0.441700
O17	O	1.334684	-0.680185	-0.570732
C18	C	1.143385	-0.464582	-0.506220
C19	C	1.036171	-0.464598	-0.506229
C20	C	1.393921	-0.715211	-0.506232
C21	C	1.393976	-0.822425	-0.506257
C22	C	0.949102	-0.464602	-0.506247
C23	C	0.839869	-0.464608	-0.506279
C24	C	1.394022	-0.909494	-0.506281
C25	C	1.394090	-1.018727	-0.506308
C26	C	1.645593	-0.464612	-0.506294
C27	C	1.752806	-0.464619	-0.506310
C28	C	1.394067	-0.464499	-0.780290
C29	C	1.394096	-0.464458	-0.897067
C30	C	1.394105	-0.213003	-0.506304
C31	C	1.394149	-0.105789	-0.506324
C32	C	1.455824	-0.402762	-0.951951
C33	C	1.455847	-0.402727	-1.061675
C34	C	1.332411	-0.526092	-1.061621
C35	C	1.332384	-0.526121	-0.951899
C36	C	1.527091	-0.331541	-0.951984
C37	C	1.527114	-0.331506	-1.061708
C38	C	1.393988	-0.464624	-0.233289
C39	C	1.394146	-0.464393	-0.116513
H40	H	1.282116	-0.576356	-0.907216
O41	O	1.503418	-0.242402	-0.916423
C42	C	1.579389	-0.205745	-0.855063
H43	H	1.649368	-0.243124	-0.877724
H44	H	1.586615	-0.125063	-0.869216
H45	H	1.563616	-0.219404	-0.768636
H46	H	1.282166	-0.576294	-1.106278
O47	O	1.611723	-0.363614	-0.911502
C48	C	1.628610	-0.458582	-0.945678
H49	H	1.586811	-0.472327	-1.021057
H50	H	1.708780	-0.468892	-0.960909
H51	H	1.603897	-0.511320	-0.882704
O52	O	1.495108	-0.246830	-1.102205
C53	C	1.400134	-0.229910	-1.067984
H54	H	1.386334	-0.271746	-0.992582
H55	H	1.389862	-0.149744	-1.052776
H56	H	1.347410	-0.254558	-1.130920
O57	O	1.616159	-0.355483	-1.097383
C58	C	1.609934	-0.439616	-1.158711
H59	H	1.533514	-0.447739	-1.189921
H60	H	1.662334	-0.434323	-1.227239
H61	H	1.628921	-0.504818	-1.108569
