data_functionalizedCrystal
_audit_creation_method	'MofGen! by Chris Wilmer'
_symmetry_space_group_name_H-M	'P1'
_symmetry_Int_Tables_number	1
_symmetry_cell_setting	triclinic
loop_
_symmetry_equiv_pos_as_xyz
  x,y,z
_cell_length_a	14.853576
_cell_length_b	9.065215
_cell_length_c	13.330367
_cell_angle_alpha	89.988784
_cell_angle_beta	90.002991
_cell_angle_gamma	95.673376
loop_
_atom_site_label
_atom_site_type_symbol
_atom_site_fract_x
_atom_site_fract_y
_atom_site_fract_z
O1	O	0.132173	-1.957760	-0.083404
O2	O	0.143019	-1.528260	-0.083410
O3	O	0.006452	-1.754476	-0.083403
O4	O	0.268740	-1.731544	-0.083411
O5	O	0.006461	-1.754518	0.083444
O6	O	0.143028	-1.528302	0.083437
O7	O	0.132183	-1.957802	0.083443
Cu8	Cu	0.137606	-1.743056	0.098674
Cu9	Cu	0.137595	-1.743006	-0.098642
O10	O	0.268750	-1.731586	0.083436
C11	C	0.141982	-1.473315	0.000013
C12	C	0.138867	-1.309534	0.000011
C13	C	-0.027140	-1.753456	0.000019
C14	C	-0.127246	-1.750335	0.000016
C15	C	-0.174277	-1.748843	-0.090937
C16	C	-0.174280	-1.748907	0.090966
C17	C	-0.268336	-1.745982	0.090966
C18	C	-0.315367	-1.744491	0.000013
C19	C	-0.268342	-1.745924	-0.090940
C20	C	-0.315369	-1.744565	0.181918
C21	C	-0.409431	-1.741642	0.181921
C22	C	-0.456463	-1.740140	0.090967
C23	C	-0.409432	-1.741571	0.000011
C24	C	-0.456463	-1.740080	-0.090942
C25	C	-0.409433	-1.741500	-0.181900
C26	C	-0.315374	-1.744421	-0.181894
C27	C	-0.550521	-1.737219	0.090961
C28	C	-0.550527	-1.737160	-0.090945
C29	C	0.302341	-1.732606	0.000011
C30	C	0.402448	-1.735727	0.000008
C31	C	0.133220	-1.012747	0.000017
C32	C	0.136334	-1.176529	0.000011
N33	N	0.137581	-1.742972	-0.237423
C34	C	0.197957	-1.642727	-0.710049
C35	C	0.077263	-1.843448	-0.710011
C36	C	0.077257	-1.843426	-0.604993
C37	C	0.137600	-1.743051	-0.552498
C38	C	0.197951	-1.642699	-0.605021
C39	C	0.016901	-1.943766	-0.552462
C40	C	0.016892	-1.943747	-0.447437
C41	C	0.077240	-1.843378	-0.394940
C42	C	0.137594	-1.743023	-0.447470
C43	C	0.197938	-1.642648	-0.394974
C44	C	0.258296	-1.542298	-0.447502
C45	C	0.258300	-1.542330	-0.552524
C46	C	0.077237	-1.843347	-0.289918
C47	C	0.197931	-1.642619	-0.289946
N48	N	0.137613	-1.743102	0.237456
H49	H	-0.447738	-1.740294	-0.255954
H50	H	0.307441	-1.460628	-0.595299
O51	O	-0.601238	-1.735701	0.189059
H52	H	-0.651294	-1.834857	0.193402
H53	H	0.307425	-1.460566	-0.404749
O54	O	-0.460156	-1.740102	0.280018
H55	H	-0.434895	-1.640198	0.323629
O56	O	-0.048200	-2.051979	-0.390781
H57	H	-0.009543	-2.123598	-0.342908
H58	H	0.247103	-1.561028	-0.752820
O59	O	0.263021	-1.534366	-0.233323
H60	H	0.307440	-1.596412	-0.185459
H61	H	-0.277074	-1.745583	-0.255947
O62	O	0.012148	-1.951656	-0.766623
H63	H	0.022282	-1.934802	-0.848476
H64	H	-0.588813	-1.735934	-0.165011
O65	O	-0.123558	-1.750532	0.189060
H66	H	-0.134400	-1.649518	0.232682
O67	O	-0.048225	-2.051954	-0.609075
H68	H	-0.038086	-2.035101	-0.690928
O69	O	0.012150	-1.951572	-0.233259
H70	H	-0.029806	-2.021377	-0.287406
H71	H	-0.277071	-1.745791	0.255967
H72	H	-0.135981	-1.749994	-0.164993
