data_functionalizedCrystal
_audit_creation_method	'MofGen! by Chris Wilmer'
_symmetry_space_group_name_H-M	'P1'
_symmetry_Int_Tables_number	1
_symmetry_cell_setting	triclinic
loop_
_symmetry_equiv_pos_as_xyz
  x,y,z
_cell_length_a	16.109318
_cell_length_b	16.974813
_cell_length_c	14.586319
_cell_angle_alpha	86.341649
_cell_angle_beta	90.000075
_cell_angle_gamma	83.432062
loop_
_atom_site_label
_atom_site_type_symbol
_atom_site_fract_x
_atom_site_fract_y
_atom_site_fract_z
O1	O	1.103035	0.101699	-0.083708
O2	O	1.353035	0.351699	0.166292
O3	O	1.603035	0.601699	0.416292
O4	O	1.853035	0.851699	0.666292
O5	O	0.860964	0.114333	-0.084664
O6	O	1.110964	0.364333	0.165336
O7	O	1.360964	0.614333	0.415336
O8	O	1.610964	0.864333	0.665336
O9	O	0.988747	-0.007089	-0.075641
O10	O	1.238747	0.242911	0.174359
O11	O	1.488747	0.492911	0.424359
O12	O	1.738747	0.742911	0.674359
O13	O	0.975251	0.223121	-0.092731
O14	O	1.225251	0.473121	0.157269
O15	O	1.475251	0.723121	0.407269
O16	O	1.725251	0.973121	0.657269
O17	O	0.988739	-0.007091	0.076840
O18	O	1.238739	0.242909	0.326840
O19	O	1.488739	0.492909	0.576840
O20	O	1.738739	0.742909	0.826840
O21	O	0.860955	0.114331	0.067817
O22	O	1.110955	0.364331	0.317817
O23	O	1.360955	0.614331	0.567817
O24	O	1.610955	0.864331	0.817817
O25	O	1.103026	0.101697	0.068773
O26	O	1.353026	0.351697	0.318773
O27	O	1.603026	0.601697	0.568773
O28	O	1.853026	0.851697	0.818773
Cu29	Cu	0.981989	0.108014	0.082218
Cu30	Cu	1.231989	0.358014	0.332218
Cu31	Cu	1.481989	0.608014	0.582218
Cu32	Cu	1.731989	0.858014	0.832218
Cu33	Cu	0.982000	0.108016	-0.098109
Cu34	Cu	1.232000	0.358016	0.151891
Cu35	Cu	1.482000	0.608016	0.401891
Cu36	Cu	1.732000	0.858016	0.651891
O37	O	0.975242	0.223119	0.059750
O38	O	1.225242	0.473119	0.309750
O39	O	1.475242	0.723119	0.559750
O40	O	1.725242	0.973119	0.809750
C41	C	0.829985	0.113818	-0.008387
C42	C	1.079985	0.363818	0.241613
C43	C	1.329985	0.613818	0.491613
C44	C	1.579985	0.863818	0.741613
C45	C	0.737692	0.112276	-0.008280
C46	C	0.987692	0.362276	0.241720
C47	C	1.237692	0.612276	0.491720
C48	C	1.487692	0.862276	0.741720
C49	C	0.988230	-0.036548	0.002784
C50	C	1.238230	0.213452	0.252784
C51	C	1.488230	0.463452	0.502784
C52	C	1.738230	0.713452	0.752784
C53	C	0.986690	-0.124324	0.009294
C54	C	1.236690	0.125676	0.259294
C55	C	1.486690	0.375676	0.509294
C56	C	1.736690	0.625676	0.759294
C57	C	0.438627	0.107299	-0.091012
C58	C	0.688627	0.357299	0.158988
C59	C	0.938627	0.607299	0.408988
C60	C	1.188627	0.857299	0.658988
C61	C	0.525347	0.108742	-0.091124
C62	C	0.775347	0.358742	0.158876
C63	C	1.025347	0.608742	0.408876
C64	C	1.275347	0.858742	0.658876
C65	C	0.525356	0.108729	0.075120
C66	C	0.775356	0.358729	0.325120
C67	C	1.025356	0.608729	0.575120
C68	C	1.275356	0.858729	0.825120
C69	C	0.438639	0.107280	0.075232
C70	C	0.688639	0.357280	0.325232
C71	C	0.938639	0.607280	0.575232
C72	C	1.188639	0.857280	0.825232
C73	C	0.395276	0.106569	-0.007837
C74	C	0.645276	0.356569	0.242163
C75	C	0.895276	0.606569	0.492163
C76	C	1.145276	0.856569	0.742163
C77	C	0.568714	0.109461	-0.008062
C78	C	0.818714	0.359461	0.241938
C79	C	1.068714	0.609461	0.491938
C80	C	1.318714	0.859461	0.741938
C81	C	0.662739	0.111026	-0.008183
C82	C	0.912739	0.361026	0.241817
C83	C	1.162739	0.611026	0.491817
C84	C	1.412739	0.861026	0.741817
C85	C	0.301244	0.105003	-0.007715
C86	C	0.551244	0.355003	0.242285
C87	C	0.801244	0.605003	0.492285
C88	C	1.051244	0.855003	0.742285
C89	C	0.985973	-0.165557	-0.070764
C90	C	1.235973	0.084443	0.179236
C91	C	1.485973	0.334443	0.429236
C92	C	1.735973	0.584443	0.679236
C93	C	0.984521	-0.248031	-0.064645
C94	C	1.234521	0.001969	0.185355
C95	C	1.484521	0.251969	0.435355
C96	C	1.734521	0.501969	0.685355
C97	C	0.983791	-0.289273	0.021534
C98	C	1.233791	-0.039273	0.271534
C99	C	1.483791	0.210727	0.521534
C100	C	1.733791	0.460727	0.771534
C101	C	0.984506	-0.248035	0.101598
C102	C	1.234506	0.001965	0.351598
C103	C	1.484506	0.251965	0.601598
C104	C	1.734506	0.501965	0.851598
C105	C	0.985952	-0.165561	0.095478
C106	C	1.235952	0.084439	0.345478
C107	C	1.485952	0.334439	0.595478
C108	C	1.735952	0.584439	0.845478
C109	C	0.979460	-0.535933	0.048751
C110	C	1.229460	-0.285933	0.298751
C111	C	1.479460	-0.035933	0.548751
C112	C	1.729460	0.214067	0.798751
C113	C	0.978016	-0.618413	0.054866
C114	C	1.228016	-0.368413	0.304866
C115	C	1.478016	-0.118413	0.554866
C116	C	1.728016	0.131587	0.804866
C117	C	0.978030	-0.618404	-0.111378
C118	C	1.228030	-0.368404	0.138622
C119	C	1.478030	-0.118404	0.388622
C120	C	1.728030	0.131596	0.638622
C121	C	0.979481	-0.535929	-0.117491
C122	C	1.229481	-0.285929	0.132509
C123	C	1.479481	-0.035929	0.382509
C124	C	1.729481	0.214071	0.632509
C125	C	0.980191	-0.494697	-0.037427
C126	C	1.230191	-0.244697	0.212573
C127	C	1.480191	0.005303	0.462573
C128	C	1.730191	0.255303	0.712573
N129	N	0.982310	-0.373576	0.027791
N130	N	1.232310	-0.123576	0.277791
N131	N	1.482310	0.126424	0.527791
N132	N	1.732310	0.376424	0.777791
N133	N	0.981667	-0.410395	-0.043685
N134	N	1.231667	-0.160395	0.206315
N135	N	1.481667	0.089605	0.456315
N136	N	1.731667	0.339605	0.706315
C137	C	1.134004	0.102212	-0.007505
C138	C	1.384004	0.352212	0.242495
C139	C	1.634004	0.602212	0.492495
C140	C	1.884004	0.852212	0.742495
C141	C	1.226298	0.103754	-0.007619
C142	C	1.476298	0.353754	0.242381
C143	C	1.726298	0.603754	0.492381
C144	C	1.976298	0.853754	0.742381
C145	C	0.975760	0.252578	-0.018677
C146	C	1.225760	0.502578	0.231323
C147	C	1.475760	0.752578	0.481323
C148	C	1.725760	1.002578	0.731323
C149	C	0.977300	0.340355	-0.025193
C150	C	1.227300	0.590355	0.224807
C151	C	1.477300	0.840355	0.474807
C152	C	1.727300	1.090355	0.724807
N153	N	0.981988	0.108012	0.209050
N154	N	1.231988	0.358012	0.459050
N155	N	1.481988	0.608012	0.709050
N156	N	1.731988	0.858012	0.959050
N157	N	0.982008	0.108012	-0.224940
N158	N	1.232008	0.358012	0.025060
N159	N	1.482008	0.608012	0.275060
N160	N	1.732008	0.858012	0.525060
C161	C	1.038589	0.054265	0.448050
C162	C	1.288589	0.304265	0.698050
C163	C	1.538589	0.554265	0.948050
C164	C	1.788589	0.804265	1.198050
C165	C	1.038592	0.054263	0.544032
C166	C	1.288592	0.304263	0.794032
C167	C	1.538592	0.554263	1.044032
C168	C	1.788592	0.804263	1.294032
C169	C	0.925400	0.161762	0.536053
C170	C	1.175400	0.411762	0.786053
C171	C	1.425400	0.661762	1.036053
C172	C	1.675400	0.911762	1.286053
C173	C	0.925395	0.161759	0.440073
C174	C	1.175395	0.411759	0.690073
C175	C	1.425395	0.661759	0.940073
C176	C	1.675395	0.911759	1.190073
C177	C	0.981994	0.108012	0.396075
C178	C	1.231994	0.358012	0.646075
C179	C	1.481994	0.608012	0.896075
C180	C	1.731994	0.858012	1.146075
C181	C	0.982002	0.108012	0.588035
C182	C	1.232002	0.358012	0.838035
C183	C	1.482002	0.608012	1.088035
C184	C	1.732002	0.858012	1.338035
C185	C	0.982004	0.108011	0.692103
C186	C	1.232004	0.358011	0.942103
C187	C	1.482004	0.608011	1.192103
C188	C	1.732004	0.858011	1.442103
C189	C	0.981991	0.108012	0.292001
C190	C	1.231991	0.358012	0.542001
C191	C	1.481991	0.608012	0.792001
C192	C	1.731991	0.858012	1.042001
H193	H	0.403324	0.106719	-0.158651
H194	H	0.653324	0.356719	0.091349
H195	H	0.903324	0.606719	0.341349
H196	H	1.153324	0.856719	0.591349
H197	H	0.977418	-0.651990	0.125046
H198	H	1.227418	-0.401990	0.375046
H199	H	1.477418	-0.151990	0.625046
H200	H	1.727418	0.098010	0.875046
H201	H	1.084676	0.010496	0.586348
H202	H	1.334676	0.260496	0.836348
H203	H	1.584676	0.510496	1.086348
H204	H	1.834676	0.760496	1.336348
H205	H	0.983941	-0.281599	-0.129837
H206	H	1.233941	-0.031599	0.120163
H207	H	1.483941	0.218401	0.370163
H208	H	1.733941	0.468401	0.620163
Br209	Br	0.848575	0.234701	0.369528
Br210	Br	1.098575	0.484701	0.619528
Br211	Br	1.348575	0.734701	0.869528
Br212	Br	1.598575	0.984701	1.119528
Br213	Br	0.584179	0.109725	-0.204009
Br214	Br	0.834179	0.359725	0.045991
Br215	Br	1.084179	0.609725	0.295991
Br216	Br	1.334179	0.859725	0.545991
H217	H	0.986572	-0.131984	-0.140941
H218	H	1.236572	0.118016	0.109059
H219	H	1.486572	0.368016	0.359059
H220	H	1.736572	0.618016	0.609059
Br221	Br	1.115401	-0.018680	0.388341
Br222	Br	1.365401	0.231320	0.638341
Br223	Br	1.615401	0.481320	0.888341
Br224	Br	1.865401	0.731320	1.138341
H225	H	0.879320	0.205523	0.571886
H226	H	1.129320	0.455523	0.821886
H227	H	1.379320	0.705523	1.071886
H228	H	1.629320	0.955523	1.321886
Br229	Br	0.977068	-0.674365	-0.220031
Br230	Br	1.227068	-0.424365	0.029969
Br231	Br	1.477068	-0.174365	0.279969
Br232	Br	1.727068	0.075635	0.529969
Br233	Br	0.980406	-0.479984	0.157411
Br234	Br	1.230406	-0.229984	0.407411
Br235	Br	1.480406	0.020016	0.657411
Br236	Br	1.730406	0.270016	0.907411
Br237	Br	0.584210	0.109701	0.187849
Br238	Br	0.834210	0.359701	0.437849
Br239	Br	1.084210	0.609701	0.687849
Br240	Br	1.334210	0.859701	0.937849
Br241	Br	0.983502	-0.304003	0.218557
Br242	Br	1.233502	-0.054003	0.468557
Br243	Br	1.483502	0.195997	0.718557
Br244	Br	1.733502	0.445997	0.968557
H245	H	0.980076	-0.502356	-0.187667
H246	H	1.230076	-0.252356	0.062333
H247	H	1.480076	-0.002356	0.312333
H248	H	1.730076	0.247644	0.562333
Br249	Br	0.379800	0.106285	0.188121
Br250	Br	0.629800	0.356285	0.438121
Br251	Br	0.879800	0.606285	0.688121
Br252	Br	1.129800	0.856285	0.938121
H253	H	0.986524	-0.131989	0.160670
H254	H	1.236524	0.118011	0.410670
H255	H	1.486524	0.368011	0.660670
H256	H	1.736524	0.618011	0.910670
