data_functionalizedCrystal
_audit_creation_method	'MofGen! by Chris Wilmer'
_symmetry_space_group_name_H-M	'P1'
_symmetry_Int_Tables_number	1
_symmetry_cell_setting	triclinic
loop_
_symmetry_equiv_pos_as_xyz
  x,y,z
_cell_length_a	13.897449
_cell_length_b	13.897448
_cell_length_c	13.897449
_cell_angle_alpha	89.992317
_cell_angle_beta	89.988684
_cell_angle_gamma	90.019497
loop_
_atom_site_label
_atom_site_type_symbol
_atom_site_fract_x
_atom_site_fract_y
_atom_site_fract_z
Zn1	Zn	-1.474550	0.384180	0.545535
Zn2	Zn	-1.224550	0.634180	0.795535
Zn3	Zn	-0.974550	0.884180	1.045535
Zn4	Zn	-0.724550	1.134180	1.295535
Zn5	Zn	-1.474480	0.545444	0.384244
Zn6	Zn	-1.224480	0.795444	0.634244
Zn7	Zn	-0.974480	1.045444	0.884244
Zn8	Zn	-0.724480	1.295444	1.134244
Zn9	Zn	-1.313280	0.384164	0.384239
Zn10	Zn	-1.063280	0.634164	0.634239
Zn11	Zn	-0.813280	0.884164	0.884239
Zn12	Zn	-0.563280	1.134164	1.134239
Zn13	Zn	-1.313215	0.545434	0.545482
Zn14	Zn	-1.063215	0.795434	0.795482
Zn15	Zn	-0.813215	1.045434	1.045482
Zn16	Zn	-0.563215	1.295434	1.295482
O17	O	-1.393881	0.464805	0.464875
O18	O	-1.143881	0.714805	0.714875
O19	O	-0.893881	0.964805	0.964875
O20	O	-0.643881	1.214805	1.214875
O21	O	-1.609522	0.405582	0.524165
O22	O	-1.359522	0.655582	0.774165
O23	O	-1.109522	0.905582	1.024165
O24	O	-0.859522	1.155582	1.274165
O25	O	-1.453094	0.524048	0.249262
O26	O	-1.203094	0.774048	0.499262
O27	O	-0.953094	1.024048	0.749262
O28	O	-0.703094	1.274048	0.999262
O29	O	-1.334729	0.249185	0.405655
O30	O	-1.084729	0.499185	0.655655
O31	O	-0.834729	0.749185	0.905655
O32	O	-0.584729	0.999185	1.155655
O33	O	-1.609471	0.524062	0.405665
O34	O	-1.359471	0.774062	0.655665
O35	O	-1.109471	1.024062	0.905665
O36	O	-0.859471	1.274062	1.155665
O37	O	-1.453213	0.249196	0.524159
O38	O	-1.203213	0.499196	0.774159
O39	O	-0.953213	0.749196	1.024159
O40	O	-0.703213	0.999196	1.274159
O41	O	-1.334662	0.405556	0.249258
O42	O	-1.084662	0.655556	0.499258
O43	O	-0.834662	0.905556	0.749258
O44	O	-0.584662	1.155556	0.999258
O45	O	-1.178290	0.405547	0.405603
O46	O	-0.928290	0.655547	0.655603
O47	O	-0.678290	0.905547	0.905603
O48	O	-0.428290	1.155547	1.155603
O49	O	-1.334618	0.524045	0.680470
O50	O	-1.084618	0.774045	0.930470
O51	O	-0.834618	1.024045	1.180470
O52	O	-0.584618	1.274045	1.430470
O53	O	-1.178242	0.524031	0.524068
O54	O	-0.928242	0.774031	0.774068
O55	O	-0.678242	1.024031	1.024068
O56	O	-0.428242	1.274031	1.274068
O57	O	-1.453150	0.405572	0.680510
O58	O	-1.203150	0.655572	0.930510
O59	O	-0.953150	0.905572	1.180510
O60	O	-0.703150	1.155572	1.430510
O61	O	-1.453031	0.680424	0.405612
O62	O	-1.203031	0.930424	0.655612
O63	O	-0.953031	1.180424	0.905612
O64	O	-0.703031	1.430424	1.155612
O65	O	-1.334551	0.680417	0.524073
O66	O	-1.084551	0.930417	0.774073
O67	O	-0.834551	1.180417	1.024073
O68	O	-0.584551	1.430417	1.274073
C69	C	-1.143267	0.464787	0.464830
C70	C	-0.893267	0.714787	0.714830
C71	C	-0.643267	0.964787	0.964830
C72	C	-0.393267	1.214787	1.214830
C73	C	-1.036053	0.464802	0.464833
C74	C	-0.786053	0.714802	0.714833
C75	C	-0.536053	0.964802	0.964833
C76	C	-0.286053	1.214802	1.214833
C77	C	-0.948983	0.464804	0.464845
C78	C	-0.698983	0.714804	0.714845
C79	C	-0.448983	0.964804	0.964845
C80	C	-0.198983	1.214804	1.214845
C81	C	-0.839751	0.464809	0.464869
C82	C	-0.589751	0.714809	0.714869
C83	C	-0.339751	0.964809	0.964869
C84	C	-0.089751	1.214809	1.214869
C85	C	-1.393803	0.715420	0.464858
C86	C	-1.143803	0.965420	0.714858
C87	C	-0.893803	1.215420	0.964858
C88	C	-0.643803	1.465420	1.214858
C89	C	-1.393857	0.822634	0.464884
C90	C	-1.143857	1.072634	0.714884
C91	C	-0.893857	1.322634	0.964884
C92	C	-0.643857	1.572634	1.214884
C93	C	-1.393885	0.464810	0.716468
C94	C	-1.143885	0.714810	0.966468
C95	C	-0.893885	0.964810	1.216468
C96	C	-0.643885	1.214810	1.466468
C97	C	-1.393886	0.464811	0.823682
C98	C	-1.143886	0.714811	1.073682
C99	C	-0.893886	0.964811	1.323682
C100	C	-0.643886	1.214811	1.573682
C101	C	-0.645474	0.464821	0.464909
C102	C	-0.395474	0.714821	0.714909
C103	C	-0.145474	0.964821	0.964909
C104	C	0.104526	1.214821	1.214909
C105	C	-0.752688	0.464818	0.464894
C106	C	-0.502688	0.714818	0.714894
C107	C	-0.252688	0.964818	0.964894
C108	C	-0.002688	1.214818	1.214894
C109	C	-1.393952	1.018929	0.464953
C110	C	-1.143952	1.268929	0.714953
C111	C	-0.893952	1.518929	0.964953
C112	C	-0.643952	1.768929	1.214953
C113	C	-1.393897	0.909696	0.464917
C114	C	-1.143897	1.159696	0.714917
C115	C	-0.893897	1.409696	0.964917
C116	C	-0.643897	1.659696	1.214917
C117	C	-1.393978	1.213213	0.464924
C118	C	-1.143978	1.463213	0.714924
C119	C	-0.893978	1.713213	0.964924
C120	C	-0.643978	1.963213	1.214924
C121	C	-1.393998	1.105999	0.464974
C122	C	-1.143998	1.355999	0.714974
C123	C	-0.893998	1.605999	0.964974
C124	C	-0.643998	1.855999	1.214974
C125	C	-1.393862	0.464816	1.019977
C126	C	-1.143862	0.714816	1.269977
C127	C	-0.893862	0.964816	1.519977
C128	C	-0.643862	1.214816	1.769977
C129	C	-1.393873	0.464816	0.910745
C130	C	-1.143873	0.714816	1.160745
C131	C	-0.893873	0.964816	1.410745
C132	C	-0.643873	1.214816	1.660745
C133	C	-1.393868	0.464821	1.214261
C134	C	-1.143868	0.714821	1.464261
C135	C	-0.893868	0.964821	1.714261
C136	C	-0.643868	1.214821	1.964261
C137	C	-1.393861	0.464813	1.107047
C138	C	-1.143861	0.714813	1.357047
C139	C	-0.893861	0.964813	1.607047
C140	C	-0.643861	1.214813	1.857047
