data_functionalizedCrystal
_audit_creation_method	'MofGen! by Chris Wilmer'
_symmetry_space_group_name_H-M	'P1'
_symmetry_Int_Tables_number	1
_symmetry_cell_setting	triclinic
loop_
_symmetry_equiv_pos_as_xyz
  x,y,z
_cell_length_a	16.959455
_cell_length_b	13.897448
_cell_length_c	16.959447
_cell_angle_alpha	89.970632
_cell_angle_beta	89.985678
_cell_angle_gamma	90.014639
loop_
_atom_site_label
_atom_site_type_symbol
_atom_site_fract_x
_atom_site_fract_y
_atom_site_fract_z
Zn1	Zn	1.208397	-0.384074	-0.446914
Zn2	Zn	1.208325	-0.545393	-0.314738
Zn3	Zn	1.076225	-0.384105	-0.314751
Zn4	Zn	1.076195	-0.545321	-0.446876
O5	O	1.142286	-0.464723	-0.380820
O6	O	1.318998	-0.405491	-0.429390
O7	O	1.190784	-0.524040	-0.204128
O8	O	1.093801	-0.249119	-0.332305
O9	O	1.318945	-0.524011	-0.332281
O10	O	1.190907	-0.249097	-0.429404
O11	O	1.093731	-0.405543	-0.204139
O12	O	0.965610	-0.405473	-0.332268
O13	O	1.093750	-0.523888	-0.557492
O14	O	0.965589	-0.523917	-0.429340
O15	O	1.190878	-0.405421	-0.557520
O16	O	1.190755	-0.680365	-0.332244
O17	O	1.093680	-0.680312	-0.429326
C18	C	0.936919	-0.464691	-0.380802
C19	C	0.849063	-0.464701	-0.380813
C20	C	0.477574	-0.402998	-0.330380
C21	C	0.477600	-0.526527	-0.431305
C22	C	0.560146	-0.526513	-0.431300
C23	C	0.601410	-0.464742	-0.380834
C24	C	0.560128	-0.402985	-0.330372
C25	C	0.601434	-0.588276	-0.481754
C26	C	0.683985	-0.588266	-0.481751
C27	C	0.725251	-0.526489	-0.431288
C28	C	0.683963	-0.464728	-0.380825
C29	C	0.725227	-0.402957	-0.330359
C30	C	0.683941	-0.341191	-0.279900
C31	C	0.601393	-0.341208	-0.279909
C32	C	0.807799	-0.526472	-0.431279
C33	C	0.807781	-0.402944	-0.330351
C34	C	1.142228	-0.715337	-0.380797
C35	C	1.142276	-0.822551	-0.380814
C36	C	1.142359	-1.018846	-0.380863
C37	C	1.142310	-0.909614	-0.380838
C38	C	1.348454	-0.464756	-0.380838
C39	C	1.436310	-0.464770	-0.380846
C40	C	1.142319	-0.464643	-0.586988
C41	C	1.142333	-0.464609	-0.674845
C42	C	1.142365	-0.213130	-0.380860
C43	C	1.142399	-0.105916	-0.380877
C44	C	1.091857	-0.526188	-1.046309
C45	C	1.192997	-0.402827	-1.046333
C46	C	1.192976	-0.402848	-0.963787
C47	C	1.142395	-0.464540	-0.922498
C48	C	1.091836	-0.526212	-0.963755
C49	C	1.243540	-0.341184	-0.922523
C50	C	1.243522	-0.341203	-0.839972
C51	C	1.192937	-0.402891	-0.798682
C52	C	1.142375	-0.464564	-0.839944
C53	C	1.091794	-0.526257	-0.798655
C54	C	1.041227	-0.587926	-0.839916
C55	C	1.041251	-0.587900	-0.922465
C56	C	1.192913	-0.402917	-0.716134
C57	C	1.091773	-0.526281	-0.716102
C58	C	1.142298	-0.464733	-0.175454
C59	C	1.142437	-0.464495	-0.087597
H60	H	0.841372	-0.352635	-0.289260
O61	O	0.437353	-0.343092	-0.281392
C62	C	0.355644	-0.356322	-0.292234
H63	H	0.344365	-0.430803	-0.318013
H64	H	0.332243	-0.299174	-0.334413
C65	C	0.327087	-0.255882	-0.180612
C66	C	0.313234	-0.347364	-0.212269
H67	H	0.300925	-0.250352	-0.131288
H68	H	0.382135	-0.246965	-0.173309
H69	H	0.307586	-0.208269	-0.215769
H70	H	0.332743	-0.394975	-0.177117
H71	H	0.258187	-0.356289	-0.219565
H72	H	0.717549	-0.290901	-0.238807
O73	O	1.292561	-0.281166	-0.962669
C74	C	1.247594	-0.218859	-1.010448
H75	H	1.185339	-0.212884	-0.985567
H76	H	1.244868	-0.248672	-1.073001
C77	C	1.362717	-0.125935	-1.042312
C78	C	1.286256	-0.118590	-1.011748
H79	H	1.386567	-0.064086	-1.043117
H80	H	1.393014	-0.167915	-1.010124
H81	H	1.360435	-0.150784	-1.094436
H82	H	1.288540	-0.093754	-0.959621
H83	H	1.255961	-0.076604	-1.043927
O84	O	1.292660	-0.281204	-0.800018
C85	C	1.337322	-0.226767	-0.854163
H86	H	1.304965	-0.223411	-0.913009
H87	H	1.397346	-0.262096	-0.862930
C88	C	1.388477	-0.128237	-0.749698
C89	C	1.348732	-0.124108	-0.821972
H90	H	1.395518	-0.064912	-0.729841
H91	H	1.358390	-0.164913	-0.713218
H92	H	1.438493	-0.157681	-0.757013
H93	H	1.298713	-0.094675	-0.814654
H94	H	1.378811	-0.087424	-0.858450
H95	H	0.567771	-0.290922	-0.238827
H96	H	0.443998	-0.576824	-0.472387
O97	O	1.241943	-0.342883	-0.676088
C98	C	1.224725	-0.246737	-0.696297
H99	H	1.161588	-0.241843	-0.718994
H100	H	1.267127	-0.221521	-0.744217
C101	C	1.311473	-0.188395	-0.595104
C102	C	1.233925	-0.182383	-0.622974
H103	H	1.317151	-0.148697	-0.549877
H104	H	1.323076	-0.253170	-0.581490
H105	H	1.346800	-0.167383	-0.635044
H106	H	1.198601	-0.203406	-0.583038
H107	H	1.222316	-0.117609	-0.636580
O108	O	0.561310	-0.648133	-0.530857
C109	C	0.513574	-0.593287	-0.581974
H110	H	0.538474	-0.517326	-0.586963
H111	H	0.451007	-0.589922	-0.557539
C112	C	0.481731	-0.733829	-0.657950
C113	C	0.512317	-0.640535	-0.664083
H114	H	0.480952	-0.762975	-0.708598
H115	H	0.513889	-0.770781	-0.623510
H116	H	0.429594	-0.731012	-0.637585
H117	H	0.564456	-0.643354	-0.684438
H118	H	0.480168	-0.603584	-0.698528
O119	O	1.042727	-0.586352	-0.676030
C120	C	1.059964	-0.682483	-0.696200
H121	H	1.123112	-0.687351	-0.718898
H122	H	1.017587	-0.707675	-0.744107
C123	C	0.973178	-0.740903	-0.594978
C124	C	1.050740	-0.746884	-0.622850
H125	H	0.967485	-0.780631	-0.549734
H126	H	0.961562	-0.676139	-0.581390
H127	H	0.937872	-0.761896	-0.634908
H128	H	1.086043	-0.725881	-0.582925
H129	H	1.062362	-0.811647	-0.636430
O130	O	0.992188	-0.647997	-0.799836
C131	C	1.009428	-0.744129	-0.820002
H132	H	1.072572	-0.748994	-0.842711
H133	H	0.967043	-0.769330	-0.867900
C134	C	0.922663	-0.802546	-0.718760
C135	C	1.000220	-0.808523	-0.746646
H136	H	0.916980	-0.842269	-0.673512
H137	H	0.911046	-0.737781	-0.705175
H138	H	0.887351	-0.823546	-0.758682
H139	H	1.035530	-0.787512	-0.706728
H140	H	1.011844	-0.873287	-0.760223
O141	O	0.992251	-0.647906	-0.962582
C142	C	1.037249	-0.710181	-1.010331
H143	H	1.099492	-0.716159	-0.985446
H144	H	1.040003	-0.680336	-1.072898
C145	C	0.922151	-0.803107	-1.042148
C146	C	0.998598	-0.810456	-1.011581
H147	H	0.898309	-0.864960	-1.042923
H148	H	0.891835	-0.761149	-1.009982
H149	H	0.924457	-0.778232	-1.094285
H150	H	0.996291	-0.835319	-0.959442
H151	H	1.028914	-0.852421	-1.043739
O152	O	0.723964	-0.648288	-0.530843
C153	C	0.669841	-0.702829	-0.575371
H154	H	0.611000	-0.663336	-0.578165
H155	H	0.661049	-0.776046	-0.546323
C156	C	0.774350	-0.765353	-0.656044
C157	C	0.702083	-0.716844	-0.659482
H158	H	0.794238	-0.774004	-0.707926
H159	H	0.810814	-0.728611	-0.626043
H160	H	0.767013	-0.826363	-0.631833
H161	H	0.709422	-0.655832	-0.683683
H162	H	0.665620	-0.753577	-0.689488
O163	O	1.042813	-0.586060	-1.086506
C164	C	1.053656	-0.572794	-1.168220
H165	H	1.114668	-0.541211	-1.179507
H166	H	1.006792	-0.521412	-1.191653
C167	C	0.971451	-0.709169	-1.196718
C168	C	1.046390	-0.670385	-1.210581
H169	H	0.966965	-0.769365	-1.222849
H170	H	0.964143	-0.718104	-1.141666
H171	H	0.932406	-0.666340	-1.216246
H172	H	1.085433	-0.713207	-1.191044
H173	H	1.053704	-0.661458	-1.265631
H174	H	0.841410	-0.576764	-0.472360
H175	H	1.234182	-0.352606	-1.079955
