data_functionalizedCrystal
_audit_creation_method	'MofGen! by Chris Wilmer'
_symmetry_space_group_name_H-M	'P1'
_symmetry_Int_Tables_number	1
_symmetry_cell_setting	triclinic
loop_
_symmetry_equiv_pos_as_xyz
  x,y,z
_cell_length_a	16.120530
_cell_length_b	21.295417
_cell_length_c	16.120297
_cell_angle_alpha	92.867002
_cell_angle_beta	90.128140
_cell_angle_gamma	87.125778
loop_
_atom_site_label
_atom_site_type_symbol
_atom_site_fract_x
_atom_site_fract_y
_atom_site_fract_z
Zn1	Zn	1.247391	-0.318915	-0.534523
Zn2	Zn	1.254326	-0.419125	-0.395453
Zn3	Zn	1.115383	-0.308278	-0.388443
Zn4	Zn	1.108282	-0.418545	-0.527422
O5	O	1.181345	-0.366216	-0.461460
O6	O	1.364676	-0.336903	-0.521981
O7	O	1.241769	-0.400212	-0.278158
O8	O	1.132963	-0.221604	-0.407859
O9	O	1.369771	-0.410526	-0.419806
O10	O	1.229949	-0.229419	-0.515184
O11	O	1.139688	-0.318773	-0.273008
O12	O	0.998075	-0.318211	-0.400973
O13	O	1.120862	-0.409538	-0.644729
O14	O	0.992859	-0.399224	-0.503081
O15	O	1.223064	-0.336340	-0.649946
O16	O	1.234884	-0.507133	-0.412921
O17	O	1.127586	-0.506707	-0.509878
C18	C	0.965295	-0.357501	-0.450496
C19	C	0.872866	-0.353788	-0.445825
C20	C	0.703638	-0.346996	-0.437305
C21	C	0.659891	-0.385485	-0.485677
C22	C	0.565726	-0.381705	-0.480936
C23	C	0.797811	-0.350774	-0.442045
C24	C	1.181239	-0.529761	-0.461409
C25	C	1.181268	-0.599731	-0.461418
C26	C	1.237182	-0.632802	-0.410990
C27	C	1.237220	-0.698547	-0.411010
C28	C	1.181329	-0.731217	-0.461450
C29	C	1.125411	-0.698138	-0.511889
C30	C	1.125380	-0.632395	-0.511873
N31	N	1.108264	-0.831783	-0.464098
N32	N	1.108296	-0.894236	-0.464108
C33	C	1.181420	-0.929297	-0.461503
N34	N	1.254514	-0.899546	-0.458870
N35	N	1.254481	-0.837087	-0.458855
C36	C	1.181357	-0.802504	-0.461473
C37	C	1.237380	-1.033657	-0.411094
C38	C	1.237419	-1.099403	-0.411120
C39	C	1.125603	-1.098992	-0.511994
C40	C	1.125571	-1.033248	-0.511973
C41	C	1.181459	-1.000584	-0.461518
C42	C	1.398240	-0.374966	-0.472468
C43	C	1.490667	-0.378694	-0.477159
C44	C	1.170397	-0.374061	-0.678353
C45	C	1.165731	-0.377404	-0.770780
C46	C	1.181474	-0.202033	-0.461531
C47	C	1.181529	-0.132068	-0.461562
C48	C	1.157183	-0.383493	-0.940004
C49	C	1.205672	-0.348757	-0.983777
C50	C	1.200915	-0.352144	-1.077938
C51	C	1.161938	-0.380106	-0.845834
C52	C	1.192299	-0.358358	-0.245413
C53	C	1.197126	-0.354844	-0.152995
H54	H	0.693157	-0.421274	-0.530651
H55	H	1.112102	-0.415774	-0.973246
O56	O	1.291412	-0.730737	-0.361953
C57	C	1.246816	-0.764941	-0.305809
H58	H	1.182312	-0.773346	-0.331913
H59	H	1.240804	-0.737024	-0.243721
C60	C	1.372584	-0.818339	-0.261024
C61	C	1.293361	-0.828667	-0.293089
H62	H	1.401296	-0.857647	-0.253174
H63	H	1.402630	-0.795294	-0.298847
H64	H	1.367563	-0.795073	-0.209288
H65	H	1.298384	-0.851925	-0.344829
H66	H	1.263317	-0.851718	-0.255274
O67	O	0.663829	-0.304357	-0.383672
C68	C	0.577311	-0.310027	-0.390832
H69	H	0.564165	-0.359155	-0.417372
H70	H	0.550454	-0.273375	-0.433988
C71	C	0.552985	-0.239024	-0.271908
C72	C	0.536839	-0.299367	-0.304498
H73	H	0.528019	-0.232446	-0.218655
H74	H	0.611274	-0.235202	-0.267085
H75	H	0.530604	-0.208488	-0.307879
H76	H	0.559229	-0.329901	-0.268532
H77	H	0.478553	-0.303193	-0.309313
H78	H	1.250756	-0.316473	-0.950533
O79	O	1.071005	-0.729795	-0.560840
C80	C	0.989053	-0.709805	-0.538380
H81	H	0.988947	-0.660858	-0.506316
H82	H	0.963254	-0.744165	-0.494195
C83	C	0.934660	-0.767789	-0.656229
C84	C	0.934528	-0.707670	-0.616853
H85	H	0.901025	-0.766475	-0.704634
H86	H	0.989872	-0.781259	-0.671359
H87	H	0.913162	-0.796416	-0.619400
H88	H	0.956035	-0.679046	-0.653679
H89	H	0.879319	-0.694195	-0.601731
H90	H	1.282691	-0.606210	-0.369908
O91	O	1.071024	-0.600191	-0.560741
C92	C	1.019712	-0.558354	-0.510618
H93	H	1.052265	-0.547414	-0.449112
H94	H	0.958572	-0.580923	-0.498314
C95	C	0.962298	-0.510380	-0.631116
C96	C	1.002283	-0.496939	-0.555575
H97	H	0.951543	-0.472498	-0.658848
H98	H	0.996865	-0.538568	-0.664886
H99	H	0.911352	-0.529189	-0.620852
H100	H	1.053232	-0.478138	-0.565841
H101	H	0.967724	-0.468747	-0.521808
O102	O	1.291749	-1.002022	-0.362066
C103	C	1.341101	-1.045313	-0.317548
H104	H	1.342261	-1.093508	-0.351770
H105	H	1.313891	-1.048843	-0.252829
C106	C	1.428775	-0.963534	-0.268080
C107	C	1.430206	-1.022728	-0.310117
H108	H	1.483738	-0.949602	-0.263493
H109	H	1.395524	-0.934368	-0.298070
H110	H	1.406096	-0.966484	-0.214152
H111	H	1.452874	-1.019776	-0.364047
H112	H	1.463463	-1.051894	-0.280136
H113	H	1.282957	-1.126329	-0.370057
H114	H	1.080099	-1.125592	-0.553068
O115	O	1.071167	-1.001213	-0.560973
C116	C	1.021857	-1.044144	-0.605514
H117	H	1.020749	-1.089676	-0.571320
H118	H	1.049068	-1.054602	-0.670239
C119	C	0.934091	-0.959485	-0.654921
C120	C	0.932725	-1.015406	-0.612920
H121	H	0.879111	-0.941758	-0.659494
H122	H	0.967314	-0.930561	-0.624916
H123	H	0.956771	-0.968207	-0.708855
H124	H	0.910055	-1.006682	-0.558984
H125	H	0.899496	-1.044328	-0.642916
