data_functionalizedCrystal
_audit_creation_method	'MofGen! by Chris Wilmer'
_symmetry_space_group_name_H-M	'P1'
_symmetry_Int_Tables_number	1
_symmetry_cell_setting	triclinic
loop_
_symmetry_equiv_pos_as_xyz
  x,y,z
_cell_length_a	13.897448
_cell_length_b	13.897449
_cell_length_c	19.805399
_cell_angle_alpha	90.022808
_cell_angle_beta	89.974981
_cell_angle_gamma	89.982380
loop_
_atom_site_label
_atom_site_type_symbol
_atom_site_fract_x
_atom_site_fract_y
_atom_site_fract_z
Zn1	Zn	-0.384039	-1.474672	-0.382790
Zn2	Zn	-0.050706	-1.141338	-0.049457
Zn3	Zn	0.282628	-0.808005	0.283877
Zn4	Zn	-0.545345	-1.474575	-0.269607
Zn5	Zn	-0.212012	-1.141241	0.063726
Zn6	Zn	0.121322	-0.807908	0.397060
Zn7	Zn	-0.384065	-1.313370	-0.269608
Zn8	Zn	-0.050732	-0.980037	0.063725
Zn9	Zn	0.282601	-0.646703	0.397058
Zn10	Zn	-0.545294	-1.313342	-0.382747
Zn11	Zn	-0.211960	-0.980009	-0.049414
Zn12	Zn	0.121373	-0.646676	0.283919
O13	O	-0.464686	-1.393990	-0.326188
O14	O	-0.131352	-1.060656	0.007145
O15	O	0.201981	-0.727323	0.340478
O16	O	-0.405447	-1.609640	-0.367793
O17	O	-0.072114	-1.276307	-0.034460
O18	O	0.261220	-0.942974	0.298873
O19	O	-0.523984	-1.453162	-0.174891
O20	O	-0.190650	-1.119828	0.158443
O21	O	0.142683	-0.786495	0.491776
O22	O	-0.249080	-1.334819	-0.284641
O23	O	0.084253	-1.001486	0.048693
O24	O	0.417586	-0.668152	0.382026
O25	O	-0.523958	-1.609569	-0.284638
O26	O	-0.190625	-1.276236	0.048695
O27	O	0.142709	-0.942903	0.382028
O28	O	-0.249061	-1.453327	-0.367795
O29	O	0.084272	-1.119993	-0.034461
O30	O	0.417606	-0.786660	0.298872
O31	O	-0.405492	-1.334725	-0.174892
O32	O	-0.072159	-1.001392	0.158442
O33	O	0.261175	-0.668058	0.491775
O34	O	-0.405442	-1.178385	-0.284599
O35	O	-0.072109	-0.845051	0.048734
O36	O	0.261224	-0.511718	0.382068
O37	O	-0.523870	-1.334772	-0.477470
O38	O	-0.190537	-1.001439	-0.144136
O39	O	0.142796	-0.668105	0.189197
O40	O	-0.523896	-1.178364	-0.367722
O41	O	-0.190562	-0.845031	-0.034388
O42	O	0.142771	-0.511698	0.298945
O43	O	-0.405397	-1.453300	-0.477501
O44	O	-0.072064	-1.119967	-0.144168
O45	O	0.261269	-0.786633	0.189166
O46	O	-0.680320	-1.453135	-0.284597
O47	O	-0.346987	-1.119802	0.048737
O48	O	-0.013653	-0.786468	0.382070
O49	O	-0.680282	-1.334678	-0.367720
O50	O	-0.346949	-1.001345	-0.034387
O51	O	-0.013615	-0.668012	0.298946
C52	C	-0.464667	-1.143375	-0.326156
C53	C	-0.131334	-0.810042	0.007177
C54	C	0.202000	-0.476709	0.340510
C55	C	-0.464682	-1.036161	-0.326159
C56	C	-0.131349	-0.702828	0.007175
C57	C	0.201984	-0.369495	0.340508
C58	C	-0.464684	-0.949092	-0.326167
C59	C	-0.131351	-0.615758	0.007166
C60	C	0.201983	-0.282425	0.340499
C61	C	-0.464689	-0.839859	-0.326184
C62	C	-0.131356	-0.506526	0.007149
C63	C	0.201978	-0.173192	0.340482
C64	C	-0.715300	-1.393919	-0.326169
C65	C	-0.381967	-1.060586	0.007165
C66	C	-0.048633	-0.727253	0.340498
C67	C	-0.822514	-1.393977	-0.326183
C68	C	-0.489181	-1.060644	0.007151
C69	C	-0.155847	-0.727311	0.340484
C70	C	-1.018809	-1.394079	-0.326225
C71	C	-0.685476	-1.060745	0.007108
C72	C	-0.352142	-0.727412	0.340441
C73	C	-0.909577	-1.394020	-0.326204
C74	C	-0.576243	-1.060686	0.007130
C75	C	-0.242910	-0.727353	0.340463
C76	C	-0.213093	-1.394087	-0.326223
C77	C	0.120241	-1.060753	0.007111
C78	C	0.453574	-0.727420	0.340444
C79	C	-0.105879	-1.394128	-0.326237
C80	C	0.227454	-1.060795	0.007096
C81	C	0.560788	-0.727461	0.340429
C82	C	-0.464625	-1.394044	-0.502731
C83	C	-0.131292	-1.060710	-0.169398
C84	C	0.202042	-0.727377	0.163936
C85	C	-0.464599	-1.394067	-0.577963
C86	C	-0.131266	-1.060734	-0.244630
C87	C	0.202068	-0.727400	0.088704
C88	C	-0.464701	-0.645583	-0.326212
C89	C	-0.131368	-0.312249	0.007121
C90	C	0.201965	0.021084	0.340454
C91	C	-0.464698	-0.752797	-0.326202
C92	C	-0.131365	-0.419463	0.007132
C93	C	0.201969	-0.086130	0.340465
C94	C	-0.402907	-1.455786	-0.613325
C95	C	-0.069574	-1.122452	-0.279991
C96	C	0.263759	-0.789119	0.053342
C97	C	-0.402879	-1.455796	-0.684013
C98	C	-0.069546	-1.122462	-0.350680
C99	C	0.263787	-0.789129	-0.017346
C100	C	-0.464549	-1.394091	-0.719339
C101	C	-0.131215	-1.060757	-0.386005
C102	C	0.202118	-0.727424	-0.052672
C103	C	-0.526243	-1.332365	-0.683972
C104	C	-0.192910	-0.999032	-0.350639
C105	C	0.140423	-0.665698	-0.017305
C106	C	-0.526266	-1.332351	-0.613285
C107	C	-0.192933	-0.999018	-0.279952
C108	C	0.140401	-0.665684	0.053382
C109	C	-0.526154	-1.332420	-0.969046
C110	C	-0.192820	-0.999086	-0.635712
C111	C	0.140513	-0.665753	-0.302379
C112	C	-0.526128	-1.332440	-1.039738
C113	C	-0.192795	-0.999107	-0.706404
C114	C	0.140538	-0.665774	-0.373071
C115	C	-0.402767	-1.455864	-1.039774
C116	C	-0.069434	-1.122531	-0.706440
C117	C	0.263900	-0.789197	-0.373107
C118	C	-0.402789	-1.455850	-0.969087
C119	C	-0.069456	-1.122517	-0.635753
C120	C	0.263877	-0.789183	-0.302420
C121	C	-0.464480	-1.394121	-0.933726
C122	C	-0.131147	-1.060788	-0.600393
C123	C	0.202187	-0.727455	-0.267059
C124	C	-0.464508	-1.394110	-0.857078
C125	C	-0.131175	-1.060777	-0.523744
C126	C	0.202158	-0.727443	-0.190411
C127	C	-0.464526	-1.394106	-0.795986
C128	C	-0.131193	-1.060773	-0.462652
C129	C	0.202141	-0.727440	-0.129319
C130	C	-0.464677	-1.393991	-0.150332
C131	C	-0.131343	-1.060658	0.183001
C132	C	0.201990	-0.727325	0.516334
C133	C	-0.464431	-1.394155	-0.075101
C134	C	-0.131098	-1.060822	0.258233
C135	C	0.202236	-0.727488	0.591566
H136	H	-0.352692	-1.506036	-0.584568
H137	H	-0.019358	-1.172703	-0.251234
H138	H	0.313975	-0.839369	0.082099
Br139	Br	-0.609830	-1.248694	-1.087680
Br140	Br	-0.276497	-0.915361	-0.754346
Br141	Br	0.056837	-0.582027	-0.421013
Br142	Br	-0.319196	-1.539605	-0.732002
Br143	Br	0.014138	-1.206272	-0.398668
Br144	Br	0.347471	-0.872939	-0.065335
Br145	Br	-0.319097	-1.539600	-0.921148
Br146	Br	0.014236	-1.206267	-0.587815
Br147	Br	0.347569	-0.872934	-0.254481
H148	H	-0.576492	-1.282084	-0.584494
H149	H	-0.243159	-0.948750	-0.251161
H150	H	0.090175	-0.615417	0.082172
H151	H	-0.576400	-1.282170	-0.940264
H152	H	-0.243067	-0.948837	-0.606930
H153	H	0.090267	-0.615504	-0.273597
H154	H	-0.576452	-1.282121	-0.712740
H155	H	-0.243119	-0.948787	-0.379406
H156	H	0.090214	-0.615454	-0.046073
H157	H	-0.352532	-1.506123	-1.068573
H158	H	-0.019199	-1.172790	-0.735239
H159	H	0.314135	-0.839457	-0.401906
