data_functionalizedCrystal
_audit_creation_method	'MofGen! by Chris Wilmer'
_symmetry_space_group_name_H-M	'P1'
_symmetry_Int_Tables_number	1
_symmetry_cell_setting	triclinic
loop_
_symmetry_equiv_pos_as_xyz
  x,y,z
_cell_length_a	14.971506
_cell_length_b	19.188930
_cell_length_c	14.048226
_cell_angle_alpha	89.988446
_cell_angle_beta	89.993237
_cell_angle_gamma	83.383585
loop_
_atom_site_label
_atom_site_type_symbol
_atom_site_fract_x
_atom_site_fract_y
_atom_site_fract_z
O1	O	1.186455	0.091055	-0.079178
O2	O	1.519788	0.424388	0.254155
O3	O	1.853122	0.757722	0.587488
O4	O	0.926000	0.101936	-0.079180
O5	O	1.259333	0.435270	0.254153
O6	O	1.592666	0.768603	0.587487
O7	O	1.063743	-0.005135	-0.079161
O8	O	1.397077	0.328198	0.254173
O9	O	1.730410	0.661531	0.587506
O10	O	1.048711	0.198127	-0.079198
O11	O	1.382044	0.531460	0.254135
O12	O	1.715378	0.864793	0.587469
O13	O	1.063727	-0.005142	0.079161
O14	O	1.397060	0.328192	0.412494
O15	O	1.730394	0.661525	0.745827
O16	O	0.925983	0.101930	0.079141
O17	O	1.259317	0.435263	0.412474
O18	O	1.592650	0.768597	0.745808
O19	O	1.186438	0.091049	0.079143
O20	O	1.519772	0.424382	0.412476
O21	O	1.853105	0.757715	0.745810
Zn22	Zn	1.056208	0.096488	0.104279
Zn23	Zn	1.389542	0.429822	0.437612
Zn24	Zn	1.722875	0.763155	0.770946
Zn25	Zn	1.056230	0.096497	-0.104316
Zn26	Zn	1.389563	0.429830	0.229017
Zn27	Zn	1.722897	0.763163	0.562350
O28	O	1.048695	0.198120	0.079123
O29	O	1.382028	0.531454	0.412457
O30	O	1.715361	0.864787	0.745790
C31	C	0.892670	0.101444	-0.000019
C32	C	1.226003	0.434777	0.333314
C33	C	1.559336	0.768111	0.666647
C34	C	0.793381	0.099978	-0.000019
C35	C	1.126715	0.433311	0.333314
C36	C	1.460048	0.766645	0.666647
C37	C	1.063248	-0.031151	0.000003
C38	C	1.396582	0.302182	0.333336
C39	C	1.729915	0.635516	0.666669
C40	C	1.061787	-0.108660	0.000011
C41	C	1.395120	0.224673	0.333344
C42	C	1.728454	0.558006	0.666678
C43	C	0.354796	0.157287	-0.000040
C44	C	0.688129	0.490620	0.333294
C45	C	1.021463	0.823953	0.666627
C46	C	0.448089	0.158659	-0.000044
C47	C	0.781422	0.491992	0.333289
C48	C	1.114756	0.825325	0.666623
C49	C	0.505641	0.095750	-0.000028
C50	C	0.838974	0.429083	0.333305
C51	C	1.172308	0.762417	0.666639
C52	C	0.469896	0.031465	-0.000018
C53	C	0.803230	0.364798	0.333316
C54	C	1.136563	0.698132	0.666649
C55	C	0.376605	0.030094	-0.000020
C56	C	0.709938	0.363427	0.333313
C57	C	1.043272	0.696761	0.666647
C58	C	0.664344	0.034327	-0.000010
C59	C	0.997678	0.367661	0.333323
C60	C	1.331011	0.700994	0.666656
C61	C	0.757642	0.035698	-0.000006
C62	C	1.090975	0.369032	0.333327
C63	C	1.424309	0.702365	0.666661
C64	C	0.735828	0.162892	-0.000034
C65	C	1.069162	0.496225	0.333299
C66	C	1.402495	0.829559	0.666633
C67	C	0.642537	0.161521	-0.000036
C68	C	0.975870	0.494854	0.333297
C69	C	1.309204	0.828187	0.666630
C70	C	0.606798	0.097236	-0.000024
C71	C	0.940132	0.430569	0.333309
C72	C	1.273465	0.763903	0.666642
C73	C	1.142611	-0.153320	0.000016
C74	C	1.475944	0.180014	0.333349
C75	C	1.809277	0.513347	0.666683
C76	C	1.141238	-0.226148	0.000001
C77	C	1.474571	0.107185	0.333334
C78	C	1.807904	0.440519	0.666667
C79	C	1.059037	-0.254314	-0.000000
C80	C	1.392370	0.079020	0.333333
C81	C	1.725703	0.412353	0.666666
C82	C	0.978203	-0.209645	-0.000011
C83	C	1.311536	0.123689	0.333322
C84	C	1.644869	0.457022	0.666656
C85	C	0.979578	-0.136818	-0.000005
C86	C	1.312911	0.196515	0.333328
C87	C	1.646244	0.529849	0.666661
N88	N	0.996198	-0.362527	0.053879
N89	N	1.329532	-0.029193	0.387212
N90	N	1.662865	0.304140	0.720546
N91	N	0.994897	-0.431710	0.053875
N92	N	1.328231	-0.098376	0.387209
N93	N	1.661564	0.234957	0.720542
C94	C	1.054888	-0.473736	-0.000020
C95	C	1.388222	-0.140403	0.333314
C96	C	1.721555	0.192931	0.666647
N97	N	1.116243	-0.443967	-0.053900
N98	N	1.449577	-0.110634	0.279434
N99	N	1.782910	0.222699	0.612767
N100	N	1.117547	-0.374778	-0.053892
N101	N	1.450880	-0.041445	0.279441
N102	N	1.784213	0.291888	0.612775
C103	C	1.057537	-0.333281	-0.000007
C104	C	1.390870	0.000052	0.333326
C105	C	1.724203	0.333385	0.666659
C106	C	1.134229	-0.597365	-0.000033
C107	C	1.467562	-0.264031	0.333301
C108	C	1.800896	0.069302	0.666634
C109	C	1.132853	-0.670194	-0.000054
C110	C	1.466186	-0.336860	0.333280
C111	C	1.799519	-0.003527	0.666613
C112	C	0.969815	-0.653689	-0.000056
C113	C	1.303149	-0.320356	0.333278
C114	C	1.636482	0.012978	0.666611
C115	C	0.971194	-0.580861	-0.000044
C116	C	1.304527	-0.247528	0.333289
C117	C	1.637861	0.085805	0.666622
C118	C	1.053403	-0.552704	-0.000028
C119	C	1.386736	-0.219370	0.333305
C120	C	1.720070	0.113963	0.666639
C121	C	1.219768	0.091541	-0.000020
C122	C	1.553102	0.424874	0.333313
C123	C	1.886435	0.758208	0.666647
C124	C	1.319057	0.093007	-0.000026
C125	C	1.652390	0.426340	0.333307
C126	C	1.985723	0.759674	0.666640
C127	C	1.049190	0.224136	-0.000042
C128	C	1.382523	0.557469	0.333291
C129	C	1.715856	0.890803	0.666625
C130	C	1.050651	0.301645	-0.000057
C131	C	1.383984	0.634979	0.333277
C132	C	1.717318	0.968312	0.666610
N133	N	1.056200	0.096482	0.246640
N134	N	1.389533	0.429816	0.579973
N135	N	1.722867	0.763149	0.913306
N136	N	1.056245	0.096497	-0.246677
N137	N	1.389579	0.429831	0.086656
N138	N	1.722912	0.763164	0.419990
C139	C	1.117212	0.049091	0.296466
C140	C	1.450545	0.382424	0.629800
C141	C	1.783878	0.715757	0.963133
C142	C	1.117218	0.049090	0.396124
C143	C	1.450551	0.382423	0.729457
C144	C	1.783885	0.715757	1.062791
C145	C	1.056216	0.096485	0.445953
C146	C	1.389549	0.429819	0.779286
C147	C	1.722882	0.763152	1.112620
C148	C	0.995197	0.143879	0.396119
C149	C	1.328530	0.477213	0.729453
C150	C	1.661864	0.810546	1.062786
C151	C	0.995187	0.143876	0.296464
C152	C	1.328521	0.477209	0.629797
C153	C	1.661854	0.810542	0.963130
C154	C	0.995223	0.143884	0.603834
C155	C	1.328556	0.477218	0.937167
C156	C	1.661890	0.810551	1.270500
C157	C	0.995233	0.143889	0.703496
C158	C	1.328567	0.477222	1.036830
C159	C	1.661900	0.810556	1.370163
C160	C	1.117253	0.049099	0.703494
C161	C	1.450587	0.382432	1.036827
C162	C	1.783920	0.715765	1.370161
C163	C	1.117244	0.049095	0.603838
C164	C	1.450577	0.382429	0.937172
C165	C	1.783910	0.715762	1.270505
C166	C	1.056226	0.096490	0.554011
C167	C	1.389559	0.429824	0.887345
C168	C	1.722893	0.763157	1.220678
H169	H	0.307942	0.208515	-0.000045
H170	H	0.641276	0.541848	0.333288
H171	H	0.974609	0.875181	0.666621
O172	O	0.884020	-0.532686	-0.000026
O173	O	1.217353	-0.199352	0.333307
O174	O	1.550687	0.133981	0.666641
H175	H	0.826628	-0.564504	-0.000018
H176	H	1.159961	-0.231170	0.333315
H177	H	1.493294	0.102163	0.666649
O178	O	0.338050	-0.039236	0.000004
O179	O	0.671383	0.294098	0.333337
O180	O	1.004717	0.627431	0.666671
H181	H	0.393741	-0.082750	0.000027
H182	H	0.727074	0.250583	0.333360
H183	H	1.060408	0.583916	0.666693
O184	O	1.183004	-0.002032	0.242723
O185	O	1.516337	0.331302	0.576056
O186	O	1.849671	0.664635	0.909389
H187	H	1.225423	-0.034991	0.294117
H188	H	1.558756	0.298342	0.627451
H189	H	1.892090	0.631676	0.960784
H190	H	0.595679	0.212747	-0.000043
H191	H	0.929013	0.546080	0.333290
H192	H	1.262346	0.879413	0.666624
H193	H	1.198672	-0.706555	-0.000055
H194	H	1.532005	-0.373222	0.333279
H195	H	1.865338	-0.039889	0.666612
O196	O	1.183036	-0.002025	0.449854
O197	O	1.516369	0.331309	0.783187
O198	O	1.849702	0.664642	1.116520
H199	H	1.145536	-0.036021	0.495270
H200	H	1.478869	0.297312	0.828603
H201	H	1.812203	0.630646	1.161937
H202	H	0.635250	-0.018020	-0.000005
H203	H	0.968583	0.315313	0.333328
H204	H	1.301917	0.648647	0.666662
H205	H	0.945504	0.182466	0.255896
H206	H	1.278838	0.515799	0.589229
H207	H	1.612171	0.849133	0.922562
O208	O	1.183034	-0.002024	0.550088
O209	O	1.516367	0.331309	0.883421
O210	O	1.849700	0.664642	1.216754
H211	H	1.225458	-0.034986	0.601475
H212	H	1.558791	0.298347	0.934809
H213	H	1.892125	0.631681	1.268142
H214	H	0.477183	0.211001	-0.000064
H215	H	0.810516	0.544335	0.333270
H216	H	1.143849	0.877668	0.666603
O217	O	1.183073	-0.002014	0.757235
O218	O	1.516406	0.331319	1.090568
O219	O	1.849739	0.664652	1.423901
H220	H	1.225501	-0.034962	0.705843
H221	H	1.558835	0.298371	1.039176
H222	H	1.892168	0.631705	1.372510
O223	O	0.881155	-0.684062	-0.000056
O224	O	1.214489	-0.350728	0.333277
O225	O	1.547822	-0.017395	0.666611
H226	H	0.825183	-0.640768	-0.000060
H227	H	1.158516	-0.307434	0.333274
H228	H	1.491849	0.025899	0.666607
H229	H	1.209552	-0.130399	0.000026
H230	H	1.542885	0.202934	0.333359
H231	H	1.876218	0.536268	0.666693
O232	O	1.228414	-0.274330	0.000019
O233	O	1.561747	0.059003	0.333352
O234	O	1.895080	0.392336	0.666686
H235	H	1.285809	-0.242515	0.000039
H236	H	1.619142	0.090818	0.333372
H237	H	1.952475	0.424151	0.666706
O238	O	0.889544	-0.240023	-0.000011
O239	O	1.222877	0.093310	0.333323
O240	O	1.556211	0.426644	0.666656
H241	H	0.833570	-0.196730	-0.000020
H242	H	1.166904	0.136604	0.333313
H243	H	1.500237	0.469937	0.666647
O244	O	0.929422	0.194992	0.757247
O245	O	1.262756	0.528325	1.090581
O246	O	1.596089	0.861659	1.423914
H247	H	0.886977	0.227937	0.705859
H248	H	1.220310	0.561270	1.039193
H249	H	1.553644	0.894604	1.372526
O250	O	0.774366	0.232231	-0.000057
O251	O	1.107699	0.565564	0.333276
O252	O	1.441032	0.898898	0.666610
H253	H	0.848905	0.222618	-0.000066
H254	H	1.182238	0.555952	0.333267
H255	H	1.515572	0.889285	0.666600
O256	O	0.929417	0.195005	0.550086
O257	O	1.262751	0.528339	0.883419
O258	O	1.596084	0.861672	1.216753
H259	H	0.887007	0.227969	0.601476
H260	H	1.220341	0.561303	0.934809
H261	H	1.553674	0.894636	1.268142
H262	H	0.804499	-0.015528	-0.000001
H263	H	1.137833	0.317806	0.333332
H264	H	1.471166	0.651139	0.666666
H265	H	0.913759	-0.100456	-0.000009
H266	H	1.247093	0.232878	0.333324
H267	H	1.580426	0.566211	0.666658
H268	H	0.945523	0.182467	0.436696
H269	H	1.278857	0.515800	0.770029
H270	H	1.612190	0.849134	1.103363
H271	H	1.201169	-0.574438	-0.000024
H272	H	1.534502	-0.241104	0.333310
H273	H	1.867835	0.092229	0.666643
O274	O	0.531969	-0.036387	0.000010
O275	O	0.865303	0.296946	0.333343
O276	O	1.198636	0.630280	0.666676
H277	H	0.575014	-0.038805	-0.064510
H278	H	0.908347	0.294529	0.268824
H279	H	1.241681	0.627862	0.602157
