data_functionalizedCrystal
_audit_creation_method	'MofGen! by Chris Wilmer'
_symmetry_space_group_name_H-M	'P1'
_symmetry_Int_Tables_number	1
_symmetry_cell_setting	triclinic
loop_
_symmetry_equiv_pos_as_xyz
  x,y,z
_cell_length_a	16.120297
_cell_length_b	15.297475
_cell_length_c	15.300062
_cell_angle_alpha	107.346699
_cell_angle_beta	102.999967
_cell_angle_gamma	96.324991
loop_
_atom_site_label
_atom_site_type_symbol
_atom_site_fract_x
_atom_site_fract_y
_atom_site_fract_z
Zn1	Zn	-0.807329	-1.448125	-0.654294
Zn2	Zn	-0.697084	-1.480072	-0.804603
Zn3	Zn	-0.638790	-1.300484	-0.619490
Zn4	Zn	-0.807312	-1.319450	-0.782769
O5	O	-0.737629	-1.387033	-0.715289
O6	O	-0.817108	-1.581372	-0.697935
O7	O	-0.572687	-1.461682	-0.774619
O8	O	-0.636758	-1.298763	-0.492868
O9	O	-0.736112	-1.604843	-0.808367
O10	O	-0.760583	-1.407233	-0.518439
O11	O	-0.529859	-1.329740	-0.638617
O12	O	-0.636741	-1.173991	-0.617446
O13	O	-0.923979	-1.331086	-0.771155
O14	O	-0.760553	-1.187925	-0.737407
O15	O	-0.923991	-1.425623	-0.676764
O16	O	-0.736095	-1.480072	-0.932944
O17	O	-0.817079	-1.362063	-0.916904
C18	C	-0.692320	-1.147508	-0.671281
C19	C	-0.672961	-1.045040	-0.652478
C20	C	-0.955081	-1.376906	-0.725406
C21	C	-1.047746	-1.372591	-0.729718
C22	C	-0.782933	-1.426616	-0.958958
C23	C	-0.802359	-1.443633	-1.063217
C24	C	-1.217395	-1.364675	-0.737563
C25	C	-1.258696	-1.409526	-0.692767
C26	C	-1.353095	-1.405122	-0.697132
C27	C	-1.122988	-1.369079	-0.733199
C28	C	-0.521020	-1.397162	-0.705153
C29	C	-0.428341	-1.401613	-0.700610
C30	C	-0.783115	-1.627493	-0.759469
C31	C	-0.802498	-1.729963	-0.778296
C32	C	-0.875995	-0.785400	-0.849684
C33	C	-0.894183	-0.881674	-0.867357
C34	C	-0.838879	-0.922520	-0.813639
C35	C	-0.765384	-0.867083	-0.742245
C36	C	-0.747191	-0.770800	-0.724575
C37	C	-0.710075	-0.907921	-0.688529
C38	C	-0.636580	-0.852484	-0.617135
C39	C	-0.618391	-0.756210	-0.599468
C40	C	-0.673694	-0.715364	-0.653186
C41	C	-0.728269	-1.004203	-0.706199
C42	C	-0.599464	-0.989604	-0.581090
C43	C	-0.581277	-0.893330	-0.563417
C44	C	-0.875974	-1.508048	-1.125417
C45	C	-0.894234	-1.524044	-1.223376
C46	C	-0.838877	-1.475634	-1.259146
C47	C	-0.765256	-1.411223	-1.196946
C48	C	-0.746998	-1.395219	-1.098977
C49	C	-0.709901	-1.362806	-1.232705
C50	C	-0.636281	-1.298395	-1.170505
C51	C	-0.618026	-1.282394	-1.072546
C52	C	-0.673383	-1.330805	-1.036777
C53	C	-0.728159	-1.378809	-1.330674
C54	C	-0.599183	-1.265981	-1.304233
C55	C	-0.580923	-1.249984	-1.206274
C56	C	-0.692170	-1.347319	-0.470674
C57	C	-0.672799	-1.330395	-0.366433
H58	H	-1.223159	-1.451230	-0.651138
H59	H	-1.252931	-1.322974	-0.779189
H60	H	-0.554431	-1.022861	-0.537349
C61	C	-0.936859	-1.561290	-1.086063
N62	N	-0.982721	-1.601396	-1.056421
H63	H	-0.788109	-1.049331	-0.764329
H64	H	-0.521436	-0.848179	-0.505287
C65	C	-0.858878	-1.028428	-0.833098
N66	N	-0.873941	-1.108203	-0.847761
C67	C	-0.809135	-1.449667	-1.399083
N68	N	-0.870129	-1.503044	-1.450610
C69	C	-0.975206	-1.594906	-1.291790
N70	N	-1.036194	-1.648288	-1.343322
C71	C	-0.653701	-0.609453	-0.633736
N72	N	-0.638648	-0.529680	-0.619083
H73	H	-0.853749	-1.488661	-1.338909
H74	H	-0.954021	-0.926805	-0.925489
H75	H	-0.921011	-0.752134	-0.893419
H76	H	-0.558539	-0.711077	-0.541343
H77	H	-0.658518	-1.317786	-0.957012
H78	H	-0.558085	-1.229940	-1.021901
C79	C	-0.499947	-1.179128	-1.137842
N80	N	-0.438956	-1.125757	-1.086298
H81	H	-0.554109	-1.226557	-1.333355
