data_functionalizedCrystal
_audit_creation_method	'MofGen! by Chris Wilmer'
_symmetry_space_group_name_H-M	'P1'
_symmetry_Int_Tables_number	1
_symmetry_cell_setting	triclinic
loop_
_symmetry_equiv_pos_as_xyz
  x,y,z
_cell_length_a	14.044209
_cell_length_b	14.044220
_cell_length_c	12.503572
_cell_angle_alpha	93.843168
_cell_angle_beta	86.165405
_cell_angle_gamma	93.188415
loop_
_atom_site_label
_atom_site_type_symbol
_atom_site_fract_x
_atom_site_fract_y
_atom_site_fract_z
O1	O	-1.282200	-0.225107	0.089194
O2	O	-0.948866	0.108227	0.422528
O3	O	-0.615533	0.441560	0.755861
O4	O	-1.005530	-0.216802	0.089225
O5	O	-0.672196	0.116532	0.422558
O6	O	-0.338863	0.449865	0.755891
O7	O	-1.139711	-0.082619	0.089199
O8	O	-0.806378	0.250714	0.422533
O9	O	-0.473045	0.584048	0.755866
O10	O	-1.148018	-0.359289	0.089220
O11	O	-0.814685	-0.025956	0.422553
O12	O	-0.481351	0.307377	0.755886
O13	O	-1.129622	-0.092729	-0.089441
O14	O	-0.796288	0.240605	0.243893
O15	O	-0.462955	0.573938	0.577226
O16	O	-0.995440	-0.226911	-0.089415
O17	O	-0.662107	0.106422	0.243918
O18	O	-0.328773	0.439756	0.577251
O19	O	-1.272110	-0.235216	-0.089446
O20	O	-0.938777	0.098117	0.243888
O21	O	-0.605443	0.431450	0.577221
Cu22	Cu	-1.132854	-0.231987	-0.105742
Cu23	Cu	-0.799520	0.101347	0.227592
Cu24	Cu	-0.466187	0.434680	0.560925
Cu25	Cu	-1.144786	-0.220031	0.105521
Cu26	Cu	-0.811453	0.113302	0.438854
Cu27	Cu	-0.478119	0.446636	0.772187
O28	O	-1.137928	-0.369399	-0.089420
O29	O	-0.804595	-0.036066	0.243913
O30	O	-0.471262	0.297268	0.577246
C31	C	-0.964863	-0.218221	-0.000092
C32	C	-0.631530	0.115113	0.333242
C33	C	-0.298197	0.448446	0.666575
C34	C	-0.858721	-0.207376	-0.000080
C35	C	-0.525388	0.125957	0.333253
C36	C	-0.192055	0.459290	0.666586
N37	N	-1.124468	-0.240396	-0.254333
N38	N	-0.791135	0.092938	0.079001
N39	N	-0.457802	0.426271	0.412334
C40	C	-1.131031	-0.052052	-0.000121
C41	C	-0.797697	0.281281	0.333213
C42	C	-0.464364	0.614615	0.666546
C43	C	-1.120186	0.054091	-0.000121
C44	C	-0.786853	0.387424	0.333212
C45	C	-0.453520	0.720757	0.666546
C46	C	-0.664382	-0.187553	-0.000101
C47	C	-0.331049	0.145780	0.333233
C48	C	0.002284	0.479114	0.666566
C49	C	-0.613252	-0.264468	-0.000099
C50	C	-0.279919	0.068866	0.333235
C51	C	0.053414	0.402199	0.666568
C52	C	-0.505116	-0.253437	-0.000110
C53	C	-0.171782	0.079896	0.333223
C54	C	0.161551	0.413229	0.666557
C55	C	-0.772529	-0.198581	-0.000089
C56	C	-0.439196	0.134752	0.333244
C57	C	-0.105862	0.468085	0.666577
C58	C	-0.312777	-0.233799	-0.000124
C59	C	0.020557	0.099535	0.333209
C60	C	0.353890	0.432868	0.666543
C61	C	-0.418919	-0.244648	-0.000119
C62	C	-0.085586	0.088685	0.333214
C63	C	0.247747	0.422018	0.666548
C64	C	-1.146609	-0.399966	-0.000098
C65	C	-0.813276	-0.066632	0.333235
C66	C	-0.479942	0.266701	0.666569
C67	C	-1.157454	-0.506108	-0.000091
C68	C	-0.824121	-0.172775	0.333243
C69	C	-0.490787	0.160559	0.666576
C70	C	-1.100361	0.248429	-0.000103
C71	C	-0.767028	0.581763	0.333230
C72	C	-0.433694	0.915096	0.666563
C73	C	-1.177275	0.299559	-0.000108
C74	C	-0.843942	0.632893	0.333225
C75	C	-0.510608	0.966226	0.666558
C76	C	-1.166244	0.407696	-0.000099
C77	C	-0.832911	0.741029	0.333235
C78	C	-0.499577	1.074363	0.666568
C79	C	-1.111391	0.140283	-0.000113
C80	C	-0.778057	0.473616	0.333220
C81	C	-0.444724	0.806949	0.666554
C82	C	-1.112133	-0.252774	-0.473445
C83	C	-0.778800	0.080559	-0.140112
C84	C	-0.445467	0.413893	0.193221
C85	C	-1.165511	-0.199240	-0.526783
C86	C	-0.832177	0.134093	-0.193449
C87	C	-0.498844	0.467427	0.139884
C88	C	-1.158647	-0.206127	-0.648705
C89	C	-0.825314	0.127206	-0.315371
C90	C	-0.491981	0.460539	0.017962
C91	C	-1.118995	-0.245888	-0.351512
C92	C	-0.785662	0.087446	-0.018179
C93	C	-0.452329	0.420779	0.315154
N94	N	-1.153179	-0.211615	0.254111
N95	N	-0.819845	0.121718	0.587445
N96	N	-0.486512	0.455052	0.920778
H97	H	-0.626945	-0.113426	-0.000111
H98	H	-0.293611	0.219907	0.333222
H99	H	0.039722	0.553240	0.666555
H100	H	-1.251412	0.262124	-0.000045
H101	H	-0.918079	0.595458	0.333289
H102	H	-0.584746	0.928791	0.666622
H103	H	-1.061285	-0.303776	-0.519343
H104	H	-0.727952	0.029558	-0.186010
H105	H	-0.394618	0.362891	0.147323
N106	N	-1.002167	0.298011	-0.000091
N107	N	-0.668834	0.631344	0.333242
N108	N	-0.335501	0.964678	0.666576
H109	H	-1.008108	0.369351	-0.000089
H110	H	-0.674775	0.702684	0.333244
H111	H	-0.341441	1.036018	0.666578
H112	H	-0.962620	0.275139	-0.066317
H113	H	-0.629287	0.608472	0.267017
H114	H	-0.295953	0.941806	0.600350
H115	H	-0.650692	-0.338600	-0.000089
H116	H	-0.317359	-0.005267	0.333245
H117	H	0.015974	0.328066	0.666578
H118	H	-1.216363	-0.148236	-0.480879
H119	H	-0.883030	0.185097	-0.147546
H120	H	-0.549697	0.518430	0.185787
