data_functionalizedCrystal
_audit_creation_method	'MofGen! by Chris Wilmer'
_symmetry_space_group_name_H-M	'P1'
_symmetry_Int_Tables_number	1
_symmetry_cell_setting	triclinic
loop_
_symmetry_equiv_pos_as_xyz
  x,y,z
_cell_length_a	16.992694
_cell_length_b	27.732048
_cell_length_c	16.053802
_cell_angle_alpha	92.539157
_cell_angle_beta	87.249047
_cell_angle_gamma	86.655439
loop_
_atom_site_label
_atom_site_type_symbol
_atom_site_fract_x
_atom_site_fract_y
_atom_site_fract_z
O1	O	1.042477	0.100541	-0.069340
O2	O	0.814206	0.099416	-0.069364
O3	O	0.935430	0.029889	-0.069335
O4	O	0.921253	0.170068	-0.069368
O5	O	0.928758	0.033699	0.069522
O6	O	0.807534	0.103227	0.069493
O7	O	1.035804	0.104351	0.069518
Zn8	Zn	0.920610	0.104394	0.091552
Zn9	Zn	0.929401	0.099374	-0.091398
O10	O	0.914580	0.173879	0.069489
C11	C	0.781675	0.099876	0.000062
C12	C	0.694684	0.095561	0.000053
C13	C	0.643939	0.137184	0.000044
C14	C	0.562201	0.133129	0.000056
C15	C	0.531209	0.087449	0.000072
C16	C	0.581960	0.045823	0.000084
C17	C	0.663696	0.049880	0.000077
C18	C	0.287814	0.070636	0.000098
C19	C	0.206072	0.066583	0.000103
C20	C	0.186318	0.153889	0.000077
C21	C	0.268057	0.157941	0.000065
C22	C	0.318800	0.116315	0.000081
N23	N	0.447660	0.083302	0.000082
N24	N	0.402348	0.120463	0.000077
C25	C	0.931796	0.013774	0.000096
C26	C	0.930900	-0.039919	0.000103
C27	C	0.996895	-0.375882	0.000067
C28	C	0.993571	-0.577686	0.000055
O29	O	1.053919	-0.606333	0.000025
N30	N	0.921689	-0.599917	0.000048
C31	C	0.850634	-0.571695	0.000038
O32	O	0.789419	-0.595235	0.000024
C33	C	0.853960	-0.369893	0.000045
C34	C	0.925846	-0.347663	0.000060
C35	C	1.068775	-0.353652	0.000081
C36	C	1.069606	-0.303204	0.000089
C37	C	0.998556	-0.274986	0.000082
C38	C	0.926676	-0.297215	0.000067
C39	C	0.782906	-0.341671	0.000029
C40	C	0.783744	-0.291218	0.000029
C41	C	0.855630	-0.268989	0.000044
C42	C	0.856457	-0.218549	0.000068
N43	N	0.928338	-0.196317	0.000075
C44	C	0.999388	-0.224535	0.000082
C45	C	0.848893	-0.677645	0.000037
C46	C	0.848061	-0.728095	0.000037
C47	C	0.990998	-0.734082	0.000052
C48	C	0.991829	-0.683631	0.000058
C49	C	0.920775	-0.655413	0.000044
C50	C	1.001126	-0.118591	0.000098
C51	C	1.001949	-0.068138	0.000109
C52	C	0.859013	-0.062155	0.000090
C53	C	0.858189	-0.112603	0.000084
C54	C	0.929252	-0.140820	0.000085
O55	O	0.796141	-0.189872	0.000089
O56	O	1.060595	-0.200987	0.000078
C57	C	0.996065	-0.426330	0.000059
C58	C	0.924185	-0.448559	0.000045
C59	C	0.853136	-0.420341	0.000038
C60	C	0.923354	-0.499010	0.000045
C61	C	0.994403	-0.527228	0.000052
C62	C	1.066285	-0.504997	0.000059
C63	C	1.067115	-0.454549	0.000066
C64	C	0.781254	-0.442573	0.000031
C65	C	0.780430	-0.493021	0.000024
C66	C	0.851480	-0.521240	0.000031
C67	C	1.068336	0.103892	0.000090
C68	C	1.155327	0.108206	0.000093
C69	C	0.918214	0.189993	0.000056
C70	C	0.919111	0.243686	0.000044
N71	N	0.914616	0.107820	0.216411
N72	N	0.935401	0.095944	-0.216257
C73	C	0.966215	0.078248	0.260117
C74	C	0.962030	0.080649	0.347523
C75	C	0.906248	0.112625	0.391221
C76	C	0.854643	0.142199	0.347509
C77	C	0.858825	0.139794	0.260104
C78	C	0.887978	0.123113	0.652626
C79	C	0.883801	0.125516	0.740037
C80	C	0.991188	0.063966	0.740045
C81	C	0.995369	0.061567	0.652639
C82	C	0.943761	0.091138	0.608934
N83	N	0.901970	0.115082	0.480564
N84	N	0.948036	0.088679	0.519593
H85	H	0.180842	0.029383	0.000114
H86	H	0.724370	-0.359762	0.000012
O87	O	1.049284	0.030284	0.610289
C88	C	1.009792	-0.002538	0.560035
H89	H	0.949022	0.014129	0.546761
H90	H	1.045522	-0.010901	0.498643
H91	H	1.002900	-0.037383	0.594060
O92	O	1.070211	-0.145948	-0.000008
C93	C	1.117340	-0.137412	-0.071924
H94	H	1.098766	-0.100587	-0.095901
H95	H	1.181969	-0.137976	-0.055737
H96	H	1.109397	-0.166769	-0.122286
O97	O	0.779912	-0.650182	0.000140
C98	C	0.772647	-0.618861	0.072065
H99	H	0.833669	-0.613242	0.096046
H100	H	0.743752	-0.582562	0.055889
H101	H	0.734645	-0.635452	0.122421
H102	H	1.033204	0.039890	0.775637
O103	O	1.071739	-0.046493	0.000009
C104	C	1.079963	-0.019464	-0.071913
H105	H	1.019189	-0.009959	-0.095893
H106	H	1.110021	0.015185	-0.055731
H107	H	1.117326	-0.041763	-0.122270
H108	H	0.801167	-0.039170	0.000088
H109	H	0.669166	0.174382	0.000031
O110	O	0.808629	0.168452	0.217608
C111	C	0.763029	0.139301	0.167054
H112	H	0.760911	0.101872	0.193412
H113	H	0.700545	0.156557	0.166062
H114	H	0.790756	0.135903	0.100810
O115	O	0.714765	-0.263754	0.000128
C116	C	0.707495	-0.232435	0.072057
H117	H	0.768515	-0.226819	0.096045
H118	H	0.678605	-0.196134	0.055881
H119	H	0.669487	-0.249027	0.122406
O120	O	1.012136	0.051856	0.389882
C121	C	1.001002	0.002944	0.368561
H122	H	0.973823	0.000079	0.305107
H123	H	1.060349	-0.018628	0.365563
H124	H	0.959832	-0.012171	0.417768
H125	H	0.144995	0.187778	0.000065
O126	O	0.829534	0.156586	0.782357
C127	C	0.784889	0.182178	0.725041
H128	H	0.787231	0.160624	0.662742
H129	H	0.721004	0.187794	0.750304
H130	H	0.810328	0.218809	0.715729
O131	O	0.800348	0.173205	0.389919
C132	C	0.723889	0.161745	0.368562
H133	H	0.725130	0.122387	0.344550
H134	H	0.681741	0.167347	0.426047
H135	H	0.702968	0.186231	0.317821
O136	O	0.513022	0.173609	0.000009
C137	C	0.557902	0.214797	0.000010
H138	H	0.620320	0.204168	-0.026283
H139	H	0.529306	0.243048	-0.040310
H140	H	0.560370	0.230480	0.066621
O141	O	0.298027	0.202353	0.000092
C142	C	0.235711	0.238221	0.000066
H143	H	0.179083	0.223255	0.026362
H144	H	0.250489	0.271030	0.040370
H145	H	0.227172	0.249384	-0.066554
H146	H	0.556720	0.008630	0.000109
O147	O	1.137016	-0.433038	0.000038
C148	C	1.199538	-0.468770	0.000063
H149	H	1.179247	-0.504571	-0.026229
H150	H	1.251703	-0.457396	-0.040246
H151	H	1.218224	-0.473237	0.066682
H152	H	1.124136	-0.527981	0.000068
H153	H	0.329120	0.036741	0.000112
H154	H	1.128142	-0.285110	0.000098
O155	O	0.712883	0.009397	0.000045
C156	C	0.668003	-0.031791	0.000079
H157	H	0.608102	-0.022607	-0.026209
H158	H	0.700460	-0.062255	-0.040229
H159	H	0.659157	-0.043816	0.066700
H160	H	1.126636	-0.376623	0.000084
H161	H	1.050364	-0.665535	0.000070
O162	O	0.837968	0.151867	0.610092
C163	C	0.881996	0.181928	0.559534
H164	H	0.944177	0.164712	0.546429
H165	H	0.852129	0.186615	0.498078
H166	H	0.885285	0.218766	0.593212
H167	H	1.048850	-0.757066	0.000058
O168	O	0.788417	-0.134259	-0.000035
C169	C	0.787109	-0.165215	-0.071970
H170	H	0.850187	-0.176026	-0.095940
H171	H	0.755502	-0.198984	-0.055810
H172	H	0.754581	-0.145667	-0.122327
H173	H	0.721887	-0.511115	0.000019
O174	O	0.778164	-0.749608	-0.000006
C175	C	0.715637	-0.713877	0.000007
H176	H	0.738452	-0.679513	-0.026276
H177	H	0.667349	-0.727458	-0.040315
H178	H	0.690549	-0.705767	0.066621
H179	H	0.723396	-0.419602	0.000024
O180	O	1.020284	0.047139	0.217600
C181	C	0.981065	0.014300	0.167103
H182	H	0.920150	0.030810	0.153989
H183	H	1.016810	0.006210	0.105648
H184	H	0.974523	-0.020673	0.200839
