data_functionalizedCrystal
_audit_creation_method	'MofGen! by Chris Wilmer'
_symmetry_space_group_name_H-M	'P1'
_symmetry_Int_Tables_number	1
_symmetry_cell_setting	triclinic
loop_
_symmetry_equiv_pos_as_xyz
  x,y,z
_cell_length_a	8.559649
_cell_length_b	16.992694
_cell_length_c	15.455313
_cell_angle_alpha	92.857794
_cell_angle_beta	92.289439
_cell_angle_gamma	99.776556
loop_
_atom_site_label
_atom_site_type_symbol
_atom_site_fract_x
_atom_site_fract_y
_atom_site_fract_z
O1	O	0.329735	-1.023967	-0.072017
O2	O	0.829735	-0.523967	0.427983
O3	O	0.326044	-0.795905	-0.072043
O4	O	0.826044	-0.295905	0.427957
O5	O	0.097853	-0.930028	-0.072027
O6	O	0.597853	-0.430028	0.427973
O7	O	0.557925	-0.889844	-0.072033
O8	O	1.057925	-0.389844	0.427967
O9	O	0.110845	-0.922362	0.072234
O10	O	0.610845	-0.422362	0.572234
O11	O	0.339035	-0.788239	0.072218
O12	O	0.839035	-0.288239	0.572218
O13	O	0.342726	-1.016301	0.072244
O14	O	0.842726	-0.516301	0.572244
Cu15	Cu	0.342067	-0.901570	0.085403
Cu16	Cu	0.842067	-0.401570	0.585403
Cu17	Cu	0.326703	-0.910636	-0.085202
Cu18	Cu	0.826703	-0.410636	0.414798
O19	O	0.570917	-0.882177	0.072228
O20	O	1.070917	-0.382177	0.572228
C21	C	0.045208	-0.929241	0.000102
C22	C	0.545208	-0.429241	0.500102
C23	C	-0.131015	-0.938306	0.000099
C24	C	0.368985	-0.438306	0.500099
C25	C	0.327794	-0.763145	0.000084
C26	C	0.827794	-0.263145	0.500084
C27	C	0.313635	-0.676954	0.000075
C28	C	0.813635	-0.176954	0.500075
N29	N	0.352873	-0.895199	0.205398
N30	N	0.852873	-0.395199	0.705398
C31	C	0.623562	-0.882965	0.000097
C32	C	1.123562	-0.382965	0.500097
C33	C	0.799784	-0.873900	0.000095
C34	C	1.299784	-0.373900	0.500095
C35	C	0.340976	-1.049061	0.000115
C36	C	0.840976	-0.549061	0.500115
C37	C	0.355134	-1.135252	0.000119
C38	C	0.855134	-0.635252	0.500119
C39	C	0.450242	-0.618488	0.000073
C40	C	0.950242	-0.118488	0.500073
C41	C	0.436931	-0.537502	0.000086
C42	C	0.936931	-0.037502	0.500086
C43	C	0.287010	-0.514985	0.000093
C44	C	0.787010	-0.014985	0.500093
C45	C	0.150392	-0.573459	0.000096
C46	C	0.650392	-0.073459	0.500096
C47	C	0.163706	-0.654442	0.000090
C48	C	0.663706	-0.154442	0.500090
C49	C	0.231831	-0.274709	0.000117
C50	C	0.731831	0.225291	0.500117
C51	C	0.218527	-0.193718	0.000120
C52	C	0.718527	0.306282	0.500120
C53	C	0.505067	-0.157767	0.000111
C54	C	1.005067	0.342233	0.500111
C55	C	0.518367	-0.238755	0.000099
C56	C	1.018367	0.261245	0.500099
C57	C	0.381750	-0.297221	0.000108
C58	C	0.881750	0.202779	0.500108
N59	N	0.273400	-0.432205	0.000102
N60	N	0.773400	0.067795	0.500102
N61	N	0.395362	-0.379998	0.000104
N62	N	0.895362	0.120002	0.500104
N63	N	0.315885	-0.917014	-0.205197
N64	N	0.815885	-0.417014	0.294803
C65	C	0.255970	-0.952194	0.250799
C66	C	0.755970	-0.452194	0.750799
C67	C	0.264158	-0.947382	0.341606
C68	C	0.764158	-0.447382	0.841606
C69	C	0.369258	-0.885578	0.387011
C70	C	0.869258	-0.385578	0.887011
C71	C	0.466164	-0.828576	0.341604
C72	C	0.966164	-0.328576	0.841604
C73	C	0.457968	-0.833386	0.250798
C74	C	0.957968	-0.333386	0.750798
C75	C	0.404595	-0.864822	0.658590
C76	C	0.904595	-0.364822	1.158590
C77	C	0.412788	-0.860018	0.749402
C78	C	0.912788	-0.360018	1.249402
C79	C	0.210778	-0.978824	0.749398
C80	C	0.710778	-0.478824	1.249398
C81	C	0.202598	-0.983631	0.658591
C82	C	0.702598	-0.483631	1.158591
C83	C	0.299499	-0.926627	0.613191
C84	C	0.799499	-0.426627	1.113191
N85	N	0.377633	-0.880659	0.479831
N86	N	0.877633	-0.380659	0.979831
N87	N	0.291114	-0.931543	0.520373
N88	N	0.791114	-0.431543	1.020373
H89	H	-0.124646	-0.811825	0.000091
H90	H	0.375354	-0.311825	0.500091
Cl91	Cl	0.060081	-0.348199	0.000126
Cl92	Cl	0.560081	0.151801	0.500126
H93	H	0.640447	-0.257081	0.000084
H94	H	1.140447	0.242919	0.500084
H95	H	0.028324	-0.555118	0.000115
H96	H	0.528324	-0.055118	0.500115
H97	H	0.131884	-1.025233	0.786371
H98	H	0.631884	-0.525233	1.286371
Cl99	Cl	-0.247690	-1.034152	0.000121
Cl100	Cl	0.252310	-0.534152	0.500121
H101	H	0.572324	-0.636813	0.000067
H102	H	1.072324	-0.136813	0.500067
Cl103	Cl	0.030042	-0.165413	0.000148
Cl104	Cl	0.530042	0.334587	0.500148
Cl105	Cl	0.142333	-1.019035	0.398683
Cl106	Cl	0.642333	-0.519035	0.898683
Cl107	Cl	0.608675	-0.464004	0.000079
Cl108	Cl	1.108675	0.035996	0.500079
Cl109	Cl	-0.008037	-0.727944	0.000096
Cl110	Cl	0.491963	-0.227944	0.500096
Cl111	Cl	0.123845	-1.029899	0.193728
Cl112	Cl	0.623845	-0.529899	0.693728
H113	H	0.117017	-1.033957	0.621624
H114	H	0.617017	-0.533957	1.121624
Cl115	Cl	0.579789	-0.761728	0.193723
Cl116	Cl	1.079789	-0.261728	0.693723
Cl117	Cl	0.544930	-0.782314	0.806476
Cl118	Cl	1.044930	-0.282314	1.306476
Cl119	Cl	0.526417	-0.793165	0.601523
Cl120	Cl	1.026417	-0.293165	1.101523
Cl121	Cl	0.598285	-0.750874	0.398682
Cl122	Cl	1.098285	-0.250874	0.898682
H123	H	0.616293	-0.110156	0.000106
H124	H	1.116293	0.389844	0.500106
