data_functionalizedCrystal
_audit_creation_method	'MofGen! by Chris Wilmer'
_symmetry_space_group_name_H-M	'P1'
_symmetry_Int_Tables_number	1
_symmetry_cell_setting	triclinic
loop_
_symmetry_equiv_pos_as_xyz
  x,y,z
_cell_length_a	6.817900
_cell_length_b	13.563541
_cell_length_c	15.185463
_cell_angle_alpha	109.450035
_cell_angle_beta	104.264314
_cell_angle_gamma	104.704624
loop_
_atom_site_label
_atom_site_type_symbol
_atom_site_fract_x
_atom_site_fract_y
_atom_site_fract_z
V1	V	-4.069074	-0.154449	-0.322128
O2	O	-4.021276	0.006666	-0.276326
O3	O	-4.053488	-0.305520	-0.358078
O4	O	-4.023987	-0.152405	-0.445213
O5	O	-4.050982	-0.147509	-0.188588
V6	V	-4.548021	-0.135139	-0.301521
O7	O	-4.340371	-0.196808	-0.367332
O8	O	-4.726921	-0.092780	-0.256317
O9	O	-4.340400	0.015932	-0.265571
O10	O	-4.713216	-0.296255	-0.347323
O11	O	-4.683510	-0.142079	-0.435061
O12	O	-4.369902	-0.137183	-0.178436
C13	C	-3.906364	-0.342338	-0.362841
C14	C	-3.974930	-0.465843	-0.393055
C15	C	-3.983035	-0.749650	-0.129132
C16	C	-3.918600	-0.633611	-0.100742
C17	C	-3.932680	-0.591663	-0.173818
C18	C	-4.011200	-0.665766	-0.275288
C19	C	-4.075626	-0.781816	-0.303680
C20	C	-4.025270	-0.623829	-0.348366
C21	C	-4.103791	-0.697932	-0.449837
C22	C	-4.168210	-0.813971	-0.478224
C23	C	-4.154131	-0.855919	-0.405148
C24	C	-3.960845	-0.507779	-0.319975
C25	C	-4.053435	-0.539945	-0.494523
C26	C	-4.117870	-0.655984	-0.522913
C27	C	-3.868731	-0.147023	-0.473989
C28	C	-3.913368	-0.146351	-0.574862
C29	C	-3.918655	-0.137991	-0.995369
C30	C	-4.285597	-0.149104	-1.007407
C31	C	-4.243655	-0.149725	-0.912628
C32	C	-4.039209	-0.144481	-0.859215
C33	C	-3.876705	-0.138615	-0.900582
C34	C	-4.406159	-0.155603	-0.871258
C35	C	-4.364223	-0.156225	-0.776474
C36	C	-4.159769	-0.150973	-0.723057
C37	C	-3.997260	-0.145105	-0.764428
C38	C	-3.792814	-0.139861	-0.711015
C39	C	-3.630297	-0.133985	-0.752382
C40	C	-3.672251	-0.133362	-0.847164
C41	C	-4.117814	-0.151596	-0.628275
C42	C	-3.750864	-0.140485	-0.616229
C43	C	-4.150867	0.052744	-0.260807
C44	C	-4.061540	0.176247	-0.230599
C45	C	-4.188500	-0.142569	-0.149657
C46	C	-4.123100	-0.143235	-0.048781
H47	H	-3.854676	-0.573284	-0.018125
H48	H	-3.584370	-0.136193	-0.572738
Br49	Br	-3.698103	-0.130014	-1.051504
H50	H	-4.452055	-0.153382	-1.050904
Br51	Br	-4.683619	-0.162740	-0.943757
H52	H	-4.496558	-0.161008	-0.742801
Br53	Br	-4.338361	-0.159583	-0.572142
Br54	Br	-3.963908	-0.806584	-0.029969
H55	H	-4.181807	-0.716335	-0.605531
H56	H	-3.539945	-0.128582	-0.880855
Br57	Br	-4.072535	-0.483026	-0.593704
H58	H	-3.880203	-0.497177	-0.150697
Br59	Br	-3.854286	-0.407224	-0.182270
H60	H	-4.232122	-0.874303	-0.560847
Br61	Br	-4.241606	-1.013408	-0.443675
Br62	Br	-3.352849	-0.126884	-0.679889
