data_functionalizedCrystal
_audit_creation_method	'MofGen! by Chris Wilmer'
_symmetry_space_group_name_H-M	'P1'
_symmetry_Int_Tables_number	1
_symmetry_cell_setting	triclinic
loop_
_symmetry_equiv_pos_as_xyz
  x,y,z
_cell_length_a	9.065215
_cell_length_b	9.065215
_cell_length_c	8.140239
_cell_angle_alpha	89.997429
_cell_angle_beta	90.001981
_cell_angle_gamma	94.985269
loop_
_atom_site_label
_atom_site_type_symbol
_atom_site_fract_x
_atom_site_fract_y
_atom_site_fract_z
O1	O	-1.960398	0.216336	-0.136583
O2	O	-1.627065	0.549669	0.196751
O3	O	-1.293731	0.883002	0.530084
O4	O	-1.531112	0.234086	-0.136592
O5	O	-1.197779	0.567420	0.196742
O6	O	-0.864446	0.900753	0.530075
O7	O	-1.754631	0.010568	-0.136580
O8	O	-1.421297	0.343901	0.196753
O9	O	-1.087964	0.677235	0.530087
O10	O	-1.736880	0.439854	-0.136594
O11	O	-1.403546	0.773187	0.196739
O12	O	-1.070213	1.106520	0.530072
O13	O	-1.754618	0.010565	0.136647
O14	O	-1.421285	0.343899	0.469980
O15	O	-1.087952	0.677232	0.803314
O16	O	-1.531100	0.234084	0.136635
O17	O	-1.197767	0.567417	0.469969
O18	O	-0.864433	0.900750	0.803302
O19	O	-1.960385	0.216333	0.136644
O20	O	-1.627052	0.549666	0.469978
O21	O	-1.293719	0.883000	0.803311
Zn22	Zn	-1.745741	0.225208	0.180021
Zn23	Zn	-1.412407	0.558541	0.513354
Zn24	Zn	-1.079074	0.891874	0.846687
Zn25	Zn	-1.745757	0.225211	-0.179968
Zn26	Zn	-1.412424	0.558545	0.153365
Zn27	Zn	-1.079091	0.891878	0.486699
O28	O	-1.736867	0.439851	0.136633
O29	O	-1.403534	0.773184	0.469966
O30	O	-1.070201	1.106518	0.803299
C31	C	-1.476120	0.232380	0.000021
C32	C	-1.142786	0.565713	0.333354
C33	C	-0.809453	0.899047	0.666687
C34	C	-1.312277	0.227282	0.000017
C35	C	-0.978943	0.560615	0.333351
C36	C	-0.645610	0.893949	0.666684
C37	C	-1.752919	-0.044420	0.000032
C38	C	-1.419586	0.288913	0.333365
C39	C	-1.086253	0.622247	0.666698
C40	C	-1.747821	-0.208263	0.000027
C41	C	-1.414488	0.125070	0.333360
C42	C	-1.081155	0.458404	0.666693
C43	C	-1.015378	0.218039	0.000027
C44	C	-0.682045	0.551372	0.333361
C45	C	-0.348712	0.884706	0.666694
C46	C	-1.179221	0.223137	0.000017
C47	C	-0.845888	0.556470	0.333350
C48	C	-0.512555	0.889803	0.666683
C49	C	-1.738578	0.494839	0.000017
C50	C	-1.405245	0.828172	0.333351
C51	C	-1.071912	1.161506	0.666684
C52	C	-1.743676	0.658682	0.000012
C53	C	-1.410343	0.992015	0.333345
C54	C	-1.077010	1.325349	0.666678
N55	N	-1.745740	0.225205	0.425703
N56	N	-1.412407	0.558538	0.759036
N57	N	-1.079074	0.891871	1.092370
N58	N	-1.745769	0.225203	-0.425650
N59	N	-1.412436	0.558536	-0.092317
N60	N	-1.079103	0.891870	0.241016
