data_functionalizedCrystal
_audit_creation_method	'MofGen! by Chris Wilmer'
_symmetry_space_group_name_H-M	'P1'
_symmetry_Int_Tables_number	1
_symmetry_cell_setting	triclinic
loop_
_symmetry_equiv_pos_as_xyz
  x,y,z
_cell_length_a	15.944551
_cell_length_b	15.944551
_cell_length_c	12.503552
_cell_angle_alpha	86.481026
_cell_angle_beta	93.518990
_cell_angle_gamma	83.498738
loop_
_atom_site_label
_atom_site_type_symbol
_atom_site_fract_x
_atom_site_fract_y
_atom_site_fract_z
O1	O	1.119367	0.103483	0.089211
O2	O	0.874819	0.116838	0.089238
O3	O	1.003771	-0.012114	0.089214
O4	O	0.990416	0.232434	0.089235
O5	O	0.994062	-0.002408	-0.089427
O6	O	0.865110	0.126544	-0.089403
O7	O	1.109658	0.113189	-0.089430
Cu8	Cu	0.986497	0.120753	-0.105728
Cu9	Cu	0.997980	0.109274	0.105535
O10	O	0.980706	0.242141	-0.089406
C11	C	0.838671	0.121136	-0.000079
C12	C	0.745425	0.119473	-0.000069
C13	C	0.998362	-0.038555	-0.000107
C14	C	0.996699	-0.131801	-0.000107
C15	C	0.530567	0.035570	-0.000097
C16	C	0.474334	0.069747	0.087985
C17	C	0.574699	0.116467	-0.000082
C18	C	0.464784	0.079336	-0.088140
C19	C	0.409785	0.113557	-0.000100
C20	C	0.519698	0.150661	0.088073
C21	C	0.510150	0.160243	-0.088132
C22	C	0.453936	0.194477	-0.000028
C23	C	0.669701	0.118141	-0.000071
C24	C	0.314784	0.111889	-0.000103
C25	C	0.912796	-0.346659	-0.000083
C26	C	0.946971	-0.402890	-0.088168
C27	C	0.993693	-0.302527	-0.000099
C28	C	0.956563	-0.412443	0.087958
C29	C	0.990782	-0.467441	-0.000086
C30	C	1.027886	-0.357526	-0.088256
C31	C	1.037470	-0.367077	0.087949
C32	C	1.071703	-0.423290	-0.000158
C33	C	0.995367	-0.207524	-0.000107
C34	C	0.989114	-0.562442	-0.000085
C35	C	1.145807	0.108891	-0.000111
C36	C	1.239052	0.110553	-0.000114
C37	C	0.986116	0.268581	-0.000083
C38	C	0.987778	0.361827	-0.000076
N39	N	0.978428	0.128826	-0.254319
C40	C	1.017923	0.089315	-0.526760
C41	C	0.966564	0.140702	-0.473426
C42	C	0.973167	0.134093	-0.351504
C43	C	1.011321	0.095924	-0.648693
N44	N	1.006056	0.101194	0.254127
H45	H	0.563905	-0.031573	0.000006
H46	H	0.526234	0.198477	-0.162597
H47	H	0.917636	0.189660	-0.519333
C48	C	0.552172	0.191372	0.188791
N49	N	0.576635	0.222030	0.264653
C50	C	0.452626	0.018056	0.188575
N51	N	0.436277	-0.020884	0.264335
C52	C	0.432182	0.038559	-0.188740
N53	N	0.407631	0.007840	-0.264508
C54	C	1.089122	-0.345344	0.188549
N55	N	1.128021	-0.328973	0.264330
C56	C	0.822079	-0.301649	-0.000193
N57	N	0.753753	-0.267744	-0.000283
H58	H	0.420780	0.261682	0.000027
H59	H	0.908708	-0.418952	-0.162629
H60	H	1.058021	-0.333485	-0.162807
H61	H	1.066849	0.040362	-0.480858
C62	C	1.162489	-0.468090	-0.000238
N63	N	1.230867	-0.501836	-0.000304
H64	H	0.926384	-0.436567	0.162432
