data_functionalizedCrystal
_audit_creation_method	'MofGen! by Chris Wilmer'
_symmetry_space_group_name_H-M	'P1'
_symmetry_Int_Tables_number	1
_symmetry_cell_setting	triclinic
loop_
_symmetry_equiv_pos_as_xyz
  x,y,z
_cell_length_a	10.654550
_cell_length_b	14.519709
_cell_length_c	9.730223
_cell_angle_alpha	89.997715
_cell_angle_beta	89.996251
_cell_angle_gamma	84.082524
loop_
_atom_site_label
_atom_site_type_symbol
_atom_site_fract_x
_atom_site_fract_y
_atom_site_fract_z
O1	O	1.666589	0.129528	-0.114406
O2	O	1.300991	0.141869	-0.114384
O3	O	1.493483	0.001510	-0.114384
O4	O	1.474097	0.269887	-0.114407
O5	O	1.493481	0.001514	0.114196
O6	O	1.300989	0.141873	0.114195
O7	O	1.666586	0.129532	0.114174
Zn8	Zn	1.483787	0.135703	0.150477
Zn9	Zn	1.483790	0.135698	-0.150687
O10	O	1.474094	0.269890	0.114173
C11	C	1.254201	0.140965	-0.000092
C12	C	1.114784	0.138254	-0.000083
C13	C	1.034504	0.220895	-0.000110
C14	C	0.903507	0.218342	-0.000134
C15	C	0.933085	0.050500	-0.000108
C16	C	1.064078	0.053054	-0.000075
C17	C	1.085209	0.306095	-0.000118
C18	C	1.004928	0.388743	-0.000147
C19	C	0.873931	0.386190	-0.000170
C20	C	0.823217	0.300989	-0.000165
C21	C	1.492579	-0.032852	-0.000093
C22	C	1.489871	-0.135247	-0.000092
C23	C	1.479904	-0.510195	-0.000127
C24	C	1.482672	-0.405873	-0.000117
C25	C	1.484887	-0.322725	-0.000109
C26	C	1.487656	-0.218396	-0.000101
C27	C	1.713377	0.130436	-0.000122
C28	C	1.852794	0.133147	-0.000140
C29	C	1.474999	0.304253	-0.000120
C30	C	1.477707	0.406648	-0.000130
N31	N	1.483795	0.135705	0.356013
N32	N	1.483793	0.135688	-0.356224
C33	C	1.569052	0.073576	0.427939
C34	C	1.569048	0.073565	0.571822
C35	C	1.398527	0.197821	0.571840
C36	C	1.398525	0.197827	0.427959
C37	C	1.654321	0.011455	0.355993
C38	C	1.739586	-0.050679	0.427920
C39	C	1.739583	-0.050691	0.571803
C40	C	1.654315	0.011432	0.643759
H41	H	0.891782	-0.018867	-0.000127
O42	O	1.141891	-0.027309	-0.000121
C43	C	1.069051	-0.103056	-0.000103
H44	H	0.971348	-0.080279	-0.043401
H45	H	1.059642	-0.129132	0.109556
C46	C	1.254176	-0.209317	-0.036550
C47	C	1.134178	-0.181344	-0.089740
H48	H	1.294351	-0.257611	-0.091837
H49	H	1.303251	-0.158286	-0.036557
H50	H	1.246318	-0.231041	0.054831
H51	H	1.142039	-0.159609	-0.181113
H52	H	1.085106	-0.232374	-0.089751
H53	H	1.329100	0.248418	0.369396
O54	O	1.654309	0.011248	0.783528
C55	C	1.628560	-0.076466	0.831584
H56	H	1.654186	-0.130621	0.748663
H57	H	1.523913	-0.074753	0.857108
C58	C	1.675707	-0.034928	1.063458
C59	C	1.707191	-0.101443	0.961617
H60	H	1.724205	-0.050335	1.143672
H61	H	1.693050	0.024168	1.031083
H62	H	1.588500	-0.033507	1.084711
H63	H	1.794392	-0.102855	0.940354
H64	H	1.689864	-0.160541	0.993992
H65	H	1.654334	0.011460	0.238836
H66	H	1.329106	0.248399	0.630436
O67	O	0.796124	0.466555	-0.000253
C68	C	0.868975	0.542297	-0.000215
H69	H	0.966697	0.519510	-0.043466
H70	H	0.878333	0.568378	0.109444
C71	C	0.683879	0.648567	-0.036760
C72	C	0.803900	0.620583	-0.089893
H73	H	0.643737	0.696860	-0.092072
H74	H	0.634797	0.597540	-0.036781
H75	H	0.691695	0.670296	0.054621
H76	H	0.796082	0.598844	-0.181266
H77	H	0.852980	0.671609	-0.089890
H78	H	1.046228	0.458110	-0.000140
O79	O	1.822214	-0.111095	0.357903
C80	C	1.754804	-0.168459	0.274737
H81	H	1.656639	-0.132370	0.253162
H82	H	1.746074	-0.236659	0.330227
C83	C	1.946132	-0.232069	0.164574
C84	C	1.825569	-0.187741	0.138066
H85	H	1.989785	-0.243967	0.080271
H86	H	1.991550	-0.193425	0.220608
H87	H	1.938840	-0.288897	0.210819
H88	H	1.832862	-0.130909	0.091837
H89	H	1.780154	-0.226376	0.082020
O90	O	1.822348	-0.111173	0.641522
C91	C	1.801725	-0.202608	0.606381
H92	H	1.753320	-0.202819	0.501918
H93	H	1.739158	-0.231564	0.687360
C94	C	1.988555	-0.262825	0.728023
C95	C	1.929112	-0.263085	0.599713
H96	H	2.067131	-0.300132	0.723915
H97	H	2.002447	-0.201224	0.751703
H98	H	1.936403	-0.286953	0.795491
H99	H	1.981256	-0.238947	0.532251
H100	H	1.915232	-0.324684	0.576021
H101	H	1.191871	0.308183	-0.000105
H102	H	0.716549	0.298917	-0.000163
