data_functionalizedCrystal
_audit_creation_method	'MofGen! by Chris Wilmer'
_symmetry_space_group_name_H-M	'P1'
_symmetry_Int_Tables_number	1
_symmetry_cell_setting	triclinic
loop_
_symmetry_equiv_pos_as_xyz
  x,y,z
_cell_length_a	19.288862
_cell_length_b	13.930277
_cell_length_c	19.288865
_cell_angle_alpha	90.009791
_cell_angle_beta	96.864237
_cell_angle_gamma	89.976134
loop_
_atom_site_label
_atom_site_type_symbol
_atom_site_fract_x
_atom_site_fract_y
_atom_site_fract_z
O1	O	-0.921352	0.080212	0.086639
O2	O	-0.421352	0.580212	0.586639
O3	O	-0.719091	0.080134	0.098330
O4	O	-0.219091	0.580134	0.598330
O5	O	-0.826066	0.080156	-0.008646
O6	O	-0.326066	0.580156	0.491354
O7	O	-0.814377	0.080190	0.193615
O8	O	-0.314377	0.580190	0.693615
O9	O	-0.826051	-0.079505	-0.008648
O10	O	-0.326051	0.420495	0.491352
O11	O	-0.719076	-0.079528	0.098328
O12	O	-0.219076	0.420472	0.598328
O13	O	-0.921337	-0.079450	0.086637
O14	O	-0.421337	0.420550	0.586637
Zn15	Zn	-0.820205	-0.104838	0.092482
Zn16	Zn	-0.320205	0.395162	0.592482
Zn17	Zn	-0.820224	0.105523	0.092485
Zn18	Zn	-0.320224	0.605523	0.592485
O19	O	-0.814363	-0.079472	0.193613
O20	O	-0.314363	0.420528	0.693613
C21	C	-0.693207	0.000293	0.097953
C22	C	-0.193207	0.500293	0.597953
C23	C	-0.616104	0.000263	0.096824
C24	C	-0.116104	0.500263	0.596824
C25	C	-0.571407	0.000285	0.159593
C26	C	-0.071407	0.500285	0.659593
C27	C	-0.498960	0.000291	0.158533
C28	C	0.001040	0.500291	0.658533
C29	C	-0.471213	0.000293	0.094701
C30	C	0.028787	0.500293	0.594701
C31	C	-0.515919	0.000265	0.031924
C32	C	-0.015919	0.500265	0.531924
C33	C	-0.588364	0.000250	0.032986
C34	C	-0.088364	0.500250	0.532986
C35	C	-0.362956	0.056246	0.044523
C36	C	0.137044	0.556246	0.544523
C37	C	-0.290511	0.056267	0.043464
C38	C	0.209489	0.556267	0.543464
C39	C	-0.247767	0.000335	0.091423
C40	C	0.252233	0.500335	0.591423
C41	C	-0.277474	-0.055605	0.140453
C42	C	0.222526	0.444395	0.640453
C43	C	-0.349920	-0.055620	0.141515
C44	C	0.150080	0.444380	0.641515
C45	C	-0.392659	0.000309	0.093542
C46	C	0.107341	0.500309	0.593542
C47	C	-0.124514	0.000363	0.153046
C48	C	0.375486	0.500363	0.653046
C49	C	-0.052066	0.000362	0.151983
C50	C	0.447934	0.500362	0.651983
C51	C	-0.069027	0.000346	0.025373
C52	C	0.430973	0.500346	0.525373
C53	C	-0.141473	0.000336	0.026438
C54	C	0.358527	0.500336	0.526438
C55	C	-0.169212	0.000349	0.090276
C56	C	0.330788	0.500349	0.590276
N57	N	-0.820196	-0.248405	0.092480
N58	N	-0.320196	0.251595	0.592480
C59	C	-0.772854	-0.700684	0.139835
C60	C	-0.272854	-0.200684	0.639835
C61	C	-0.867613	-0.700633	0.045129
C62	C	-0.367613	-0.200633	0.545129
C63	C	-0.867605	-0.600138	0.045127
C64	C	-0.367605	-0.100138	0.545127
C65	C	-0.820221	-0.549910	0.092480
C66	C	-0.320221	-0.049910	0.592480
C67	C	-0.772846	-0.600179	0.139836
C68	C	-0.272846	-0.100179	0.639836
C69	C	-0.914985	-0.549862	-0.002223
C70	C	-0.414985	-0.049862	0.497777
C71	C	-0.914979	-0.449360	-0.002226
C72	C	-0.414979	0.050640	0.497774
C73	C	-0.867591	-0.399131	0.045124
C74	C	-0.367591	0.100869	0.545124
C75	C	-0.820213	-0.449405	0.092481
C76	C	-0.320213	0.050595	0.592481
C77	C	-0.772829	-0.399178	0.139834
C78	C	-0.272829	0.100822	0.639834
C79	C	-0.725447	-0.449451	0.187189
C80	C	-0.225447	0.050549	0.687189
C81	C	-0.725458	-0.549949	0.187186
C82	C	-0.225458	-0.049949	0.687186
C83	C	-0.867580	-0.298632	0.045126
C84	C	-0.367580	0.201368	0.545126
C85	C	-0.772821	-0.298673	0.139835
C86	C	-0.272821	0.201327	0.639835
C87	C	0.052779	0.000377	0.087016
C88	C	0.552779	0.500377	0.587016
C89	C	-0.024324	0.000363	0.088151
C90	C	0.475676	0.500363	0.588151
C91	C	-0.825683	0.000322	-0.034523
C92	C	-0.325683	0.500322	0.465477
C93	C	-0.824554	0.000314	-0.111627
C94	C	-0.324554	0.500314	0.388373
N95	N	-0.820238	0.249089	0.092482
N96	N	-0.320238	0.749089	0.592482
C97	C	-0.887322	0.000333	-0.156324
C98	C	-0.387322	0.500333	0.343676
C99	C	-0.886261	0.000348	-0.228771
C100	C	-0.386261	0.500348	0.271229
C101	C	-0.822429	0.000324	-0.256518
C102	C	-0.322429	0.500324	0.243482
C103	C	-0.759652	0.000310	-0.211811
C104	C	-0.259652	0.500310	0.288189
C105	C	-0.760715	0.000305	-0.139366
C106	C	-0.260715	0.500305	0.360634
C107	C	-0.772244	-0.055622	-0.364806
C108	C	-0.272244	0.444378	0.135194
C109	C	-0.771184	-0.055622	-0.437250
C110	C	-0.271184	0.444378	0.062750
C111	C	-0.819149	0.000344	-0.479963
C112	C	-0.319149	0.500344	0.020037
C113	C	-0.868186	0.056299	-0.450225
C114	C	-0.368186	0.556299	0.049775
C115	C	-0.869248	0.056294	-0.377779
C116	C	-0.369248	0.556294	0.122221
C117	C	-0.821270	0.000330	-0.335072
C118	C	-0.321270	0.500330	0.164928
C119	C	-0.880771	0.000381	-0.603216
C120	C	-0.380771	0.500381	-0.103216
C121	C	-0.879708	0.000402	-0.675664
C122	C	-0.379708	0.500402	-0.175664
C123	C	-0.753098	0.000354	-0.658703
C124	C	-0.253098	0.500354	-0.158703
C125	C	-0.754163	0.000343	-0.586257
C126	C	-0.254163	0.500343	-0.086257
C127	C	-0.818001	0.000352	-0.558518
C128	C	-0.318001	0.500352	-0.058518
C129	C	-0.814746	0.000364	0.219490
C130	C	-0.314746	0.500364	0.719490
C131	C	-0.815875	0.000379	0.296594
C132	C	-0.315875	0.500379	0.796594
H133	H	-0.493322	0.000280	-0.020048
H134	H	0.006678	0.500280	0.479952
C135	C	-0.637535	0.000232	-0.036060
C136	C	-0.137535	0.500232	0.463940
H137	H	-0.684654	0.000220	-0.026285
H138	H	-0.184654	0.500220	0.473715
H139	H	-0.629168	0.055906	-0.062245
H140	H	-0.129168	0.555906	0.437755
H141	H	-0.629127	-0.055456	-0.062243
H142	H	-0.129127	0.444544	0.437757
C143	C	-0.673329	-0.394198	0.239278
C144	C	-0.173329	0.105802	0.739278
H145	H	-0.645114	-0.438527	0.267483
H146	H	-0.145114	0.061473	0.767483
H147	H	-0.644498	-0.355013	0.214365
H148	H	-0.144498	0.144987	0.714365
H149	H	-0.698228	-0.354976	0.268130
H150	H	-0.198228	0.145024	0.768130
C151	C	-0.717248	-0.117170	-0.469956
C152	C	-0.217248	0.382830	0.030044
H153	H	-0.688825	-0.150488	-0.434143
H154	H	-0.188825	0.349512	0.065857
H155	H	-0.740839	-0.162142	-0.501439
H156	H	-0.240839	0.337858	-0.001439
H157	H	-0.688792	-0.076841	-0.494455
H158	H	-0.188792	0.423159	0.005545
C159	C	-0.682881	0.000331	-0.689212
C160	C	-0.182881	0.500331	-0.189212
H161	H	-0.645650	0.000322	-0.652213
H162	H	-0.145650	0.500322	-0.152213
H163	H	-0.679828	-0.055342	-0.717132
H164	H	-0.179828	0.444658	-0.217132
H165	H	-0.679843	0.056020	-0.717109
H166	H	-0.179843	0.556020	-0.217109
H167	H	-0.906195	-0.741532	0.006579
H168	H	-0.406195	-0.241532	0.506579
C169	C	-0.689437	0.000287	-0.242326
C170	C	-0.189437	0.500287	0.257674
H171	H	-0.652205	0.000283	-0.205327
H172	H	-0.152205	0.500283	0.294673
H173	H	-0.686382	-0.055388	-0.270244
H174	H	-0.186382	0.444612	0.229756
H175	H	-0.686401	0.055974	-0.270226
H176	H	-0.186401	0.555974	0.229774
H177	H	-0.686882	-0.590888	0.225741
H178	H	-0.186882	-0.090888	0.725741
H179	H	-0.734274	-0.741618	0.178389
H180	H	-0.234274	-0.241618	0.678389
C181	C	-0.720699	-0.243430	0.191926
C182	C	-0.220699	0.256570	0.691926
H183	H	-0.692487	-0.287766	0.220129
H184	H	-0.192487	0.212234	0.720129
H185	H	-0.691864	-0.204247	0.167016
H186	H	-0.191864	0.295753	0.667016
H187	H	-0.745594	-0.204206	0.220782
H188	H	-0.245594	0.295794	0.720782
C189	C	-0.967103	-0.605111	-0.054305
C190	C	-0.467103	-0.105111	0.445695
H191	H	-0.960315	-0.672164	-0.047528
H192	H	-0.460315	-0.172164	0.452472
H193	H	-1.013432	-0.588611	-0.046879
H194	H	-0.513432	-0.088611	0.453121
H195	H	-0.959704	-0.588657	-0.100647
H196	H	-0.459704	-0.088657	0.399353
H197	H	-0.930823	0.000423	-0.712056
H198	H	-0.430823	0.500423	-0.212056
H199	H	-0.266329	0.101821	0.003544
H200	H	0.233671	0.601821	0.503544
H201	H	-0.907243	0.101873	-0.485001
H202	H	-0.407243	0.601873	0.014999
C203	C	-0.967090	-0.394069	-0.054319
C204	C	-0.467090	0.105931	0.445681
H205	H	-0.995307	-0.438377	-0.082523
H206	H	-0.495307	0.061623	0.417477
H207	H	-0.995919	-0.354830	-0.029411
H208	H	-0.495919	0.145170	0.470589
H209	H	-0.942185	-0.354897	-0.083172
H210	H	-0.442185	0.145103	0.416828
C211	C	-0.919693	-0.243336	-0.006956
C212	C	-0.419693	0.256664	0.493044
H213	H	-0.947913	-0.287643	-0.035159
H214	H	-0.447913	0.212357	0.464841
H215	H	-0.948519	-0.204100	0.017957
H216	H	-0.448519	0.295900	0.517957
H217	H	-0.894793	-0.204161	-0.035812
H218	H	-0.394793	0.295839	0.464188
H219	H	-0.703050	0.000322	-0.549863
H220	H	-0.203050	0.500322	-0.049863
H221	H	-0.939304	0.000344	-0.133744
H222	H	-0.439304	0.500344	0.366256
C223	C	-0.923179	0.117841	-0.345065
C224	C	-0.423179	0.617841	0.154935
H225	H	-0.916943	0.109814	-0.295803
H226	H	-0.416943	0.609814	0.204197
H227	H	-0.916909	0.183479	-0.356108
H228	H	-0.416909	0.683479	0.143892
H229	H	-0.968961	0.098185	-0.363095
H230	H	-0.468961	0.598185	0.136905
H231	H	-0.593988	0.000298	0.211575
H232	H	-0.093988	0.500298	0.711575
C233	C	-0.719482	-0.117189	-0.317824
C234	C	-0.219482	0.382811	0.182176
H235	H	-0.727133	-0.109173	-0.270419
H236	H	-0.227133	0.390827	0.229581
H237	H	-0.725408	-0.182824	-0.330526
H238	H	-0.225408	0.317176	0.169474
H239	H	-0.673351	-0.097536	-0.323537
H240	H	-0.173351	0.402464	0.176463
C241	C	-0.449785	0.000330	0.227580
C242	C	0.050215	0.500330	0.727580
H243	H	-0.476682	0.000344	0.265751
H244	H	0.023318	0.500344	0.765751
H245	H	-0.421143	-0.055335	0.229805
H246	H	0.078857	0.444665	0.729805
H247	H	-0.421202	0.056027	0.229786
H248	H	0.078798	0.556027	0.729786
C249	C	-0.955308	0.000362	-0.277946
C250	C	-0.455308	0.500362	0.222054
H251	H	-0.993479	0.000361	-0.251050
H252	H	-0.493479	0.500361	0.248950
H253	H	-0.957535	0.056040	-0.306555
H254	H	-0.457535	0.556040	0.193445
H255	H	-0.957511	-0.055323	-0.306564
H256	H	-0.457511	0.444677	0.193436
C257	C	-0.950989	0.000402	-0.572700
C258	C	-0.450989	0.500402	-0.072700
H259	H	-0.988221	0.000430	-0.609699
H260	H	-0.488221	0.500430	-0.109699
H261	H	-0.954031	-0.055279	-0.544802
H262	H	-0.454031	0.444721	-0.044802
H263	H	-0.954039	0.056084	-0.544782
H264	H	-0.454039	0.556084	-0.044782
C265	C	-0.691667	0.000274	-0.090197
C266	C	-0.191667	0.500274	0.409803
H267	H	-0.653497	0.000258	-0.117095
H268	H	-0.153497	0.500258	0.382905
H269	H	-0.689455	0.055945	-0.061571
H270	H	-0.189455	0.555945	0.438429
H271	H	-0.689447	-0.055417	-0.061597
H272	H	-0.189447	0.444583	0.438403
H273	H	-0.374105	-0.101172	0.181435
H274	H	0.125895	0.398828	0.681435
H275	H	-0.242673	-0.101151	0.179505
H276	H	0.257327	0.398849	0.679505
H277	H	-0.147101	0.000359	0.205027
H278	H	0.352899	0.500359	0.705027
H279	H	-0.015674	0.000375	0.203099
H280	H	0.484326	0.500375	0.703099
H281	H	-0.046435	0.000407	-0.026600
H282	H	0.453565	0.500407	0.473400
C283	C	-0.190641	0.000326	-0.042608
C284	C	0.309359	0.500326	0.457392
H285	H	-0.163742	0.000336	-0.080777
H286	H	0.336258	0.500336	0.419223
H287	H	-0.219234	-0.055355	-0.044829
H288	H	0.280766	0.444645	0.455171
H289	H	-0.219274	0.056007	-0.044822
H290	H	0.280726	0.556007	0.455178
H291	H	-0.397753	0.101798	0.005468
H292	H	0.102247	0.601798	0.505468
