data_functionalizedCrystal
_audit_creation_method	'MofGen! by Chris Wilmer'
_symmetry_space_group_name_H-M	'P1'
_symmetry_Int_Tables_number	1
_symmetry_cell_setting	triclinic
loop_
_symmetry_equiv_pos_as_xyz
  x,y,z
_cell_length_a	21.295418
_cell_length_b	21.295417
_cell_length_c	17.077395
_cell_angle_alpha	89.969115
_cell_angle_beta	89.965068
_cell_angle_gamma	90.045515
loop_
_atom_site_label
_atom_site_type_symbol
_atom_site_fract_x
_atom_site_fract_y
_atom_site_fract_z
Zn1	Zn	0.962305	-0.250351	-0.444227
Zn2	Zn	1.462305	0.249649	0.055773
Zn3	Zn	0.962225	-0.355622	-0.312952
Zn4	Zn	1.462225	0.144378	0.187048
Zn5	Zn	0.857044	-0.250400	-0.312931
Zn6	Zn	1.357044	0.249600	0.187069
Zn7	Zn	0.856999	-0.355616	-0.444132
Zn8	Zn	1.356999	0.144384	0.055868
O9	O	0.909643	-0.302997	-0.378560
O10	O	1.409643	0.197003	0.121440
O11	O	1.050383	-0.264298	-0.426862
O12	O	1.550383	0.235702	0.073138
O13	O	0.948258	-0.341687	-0.203103
O14	O	1.448258	0.158313	0.296897
O15	O	0.871059	-0.162304	-0.330378
O16	O	1.371059	0.337696	0.169622
O17	O	1.050325	-0.341640	-0.330415
O18	O	1.550325	0.158360	0.169585
O19	O	0.948394	-0.162268	-0.426841
O20	O	1.448394	0.337732	0.073159
O21	O	0.870982	-0.264381	-0.203087
O22	O	1.370982	0.235619	0.296913
O23	O	0.768949	-0.264374	-0.330286
O24	O	1.268949	0.235626	0.169714
O25	O	0.870982	-0.341629	-0.553991
O26	O	1.370982	0.158371	-0.053991
O27	O	0.768915	-0.341676	-0.426679
O28	O	1.268915	0.158324	0.073321
O29	O	0.948350	-0.264292	-0.554061
O30	O	1.448350	0.235708	-0.054061
O31	O	0.948214	-0.443711	-0.330323
O32	O	1.448214	0.056289	0.169677
O33	O	0.870905	-0.443706	-0.426700
O34	O	1.370905	0.056294	0.073300
C35	C	0.746091	-0.303030	-0.378470
C36	C	1.246091	0.196970	0.121530
C37	C	0.676123	-0.303060	-0.378450
C38	C	1.176123	0.196940	0.121550
C39	C	0.643256	-0.343364	-0.428567
C40	C	1.143256	0.156636	0.071433
C41	C	0.577513	-0.343348	-0.428602
C42	C	1.077513	0.156652	0.071398
C43	C	0.544641	-0.303035	-0.378507
C44	C	1.044641	0.196965	0.121493
C45	C	0.577516	-0.262723	-0.328386
C46	C	1.077516	0.237277	0.171614
C47	C	0.643257	-0.262735	-0.328358
C48	C	1.143257	0.237265	0.171642
N49	N	0.441373	-0.298118	-0.309850
N50	N	0.941373	0.201882	0.190150
N51	N	0.378922	-0.298110	-0.309879
N52	N	0.878922	0.201890	0.190121
C53	C	0.346566	-0.302995	-0.378590
C54	C	0.846566	0.197005	0.121410
N55	N	0.379021	-0.307901	-0.447272
N56	N	0.879021	0.192099	0.052728
N57	N	0.441478	-0.307912	-0.447242
N58	N	0.941478	0.192088	0.052758
C59	C	0.473355	-0.303017	-0.378532
C60	C	0.973355	0.196983	0.121468
C61	C	0.242413	-0.343285	-0.428749
C62	C	0.742413	0.156715	0.071251
C63	C	0.176669	-0.343265	-0.428786
C64	C	0.676669	0.156735	0.071214
C65	C	0.176674	-0.262643	-0.328563
C66	C	0.676674	0.237357	0.171437
C67	C	0.242416	-0.262659	-0.328533
C68	C	0.742416	0.237341	0.171467
C69	C	0.275282	-0.302984	-0.378625
C70	C	0.775282	0.197016	0.121375
C71	C	0.909563	-0.466549	-0.378521
C72	C	1.409563	0.033451	0.121479
C73	C	0.909586	-0.536517	-0.378530
C74	C	1.409586	-0.036517	0.121470
C75	C	0.949831	-0.569308	-0.428794
C76	C	1.449831	-0.069308	0.071206
C77	C	0.949853	-0.635050	-0.428813
C78	C	1.449853	-0.135050	0.071187
C79	C	0.909637	-0.667999	-0.378555
C80	C	1.409637	-0.167999	0.121445
C81	C	0.869384	-0.635201	-0.328287
C82	C	1.369384	-0.135201	0.171713
C83	C	0.869359	-0.569459	-0.328275
C84	C	1.369359	-0.069459	0.171725
N85	N	0.904886	-0.771263	-0.309855
N86	N	1.404886	-0.271263	0.190145
N87	N	0.904914	-0.833714	-0.309869
N88	N	1.404914	-0.333714	0.190131
C89	C	0.909711	-0.866074	-0.378590
C90	C	1.409711	-0.366074	0.121410
N91	N	0.914491	-0.833623	-0.447299
N92	N	1.414491	-0.333623	0.052701
N93	N	0.914466	-0.771166	-0.447284
N94	N	1.414466	-0.271166	0.052716
C95	C	0.909660	-0.739285	-0.378563
C96	C	1.409660	-0.239285	0.121437
C97	C	0.949982	-0.970151	-0.428879
C98	C	1.449982	-0.470151	0.071121
C99	C	0.950000	-1.035894	-0.428900
C100	C	1.450000	-0.535894	0.071100
C101	C	0.869534	-1.036043	-0.328367
C102	C	1.369534	-0.536043	0.171633
C103	C	0.869513	-0.970301	-0.328353
C104	C	1.369513	-0.470301	0.171647
C105	C	0.909740	-0.937358	-0.378608
C106	C	1.409740	-0.437358	0.121392
C107	C	1.073833	-0.302964	-0.378652
C108	C	1.573833	0.197036	0.121348
C109	C	1.143801	-0.302950	-0.378690
C110	C	1.643801	0.197050	0.121310
C111	C	0.909670	-0.302954	-0.583305
C112	C	1.409670	0.197046	-0.083305
C113	C	0.909682	-0.302936	-0.670555
C114	C	1.409682	0.197064	-0.170555
C115	C	0.909741	-0.138807	-0.378618
C116	C	1.409741	0.361193	0.121382
C117	C	0.909782	-0.068839	-0.378642
C118	C	1.409782	0.431161	0.121358
C119	C	0.950037	-0.262581	-1.046407
C120	C	1.450037	0.237419	-0.546407
C121	C	0.950024	-0.262603	-0.964426
C122	C	1.450024	0.237397	-0.464426
C123	C	0.909733	-0.302877	-0.923404
C124	C	1.409733	0.197123	-0.423404
C125	C	0.869458	-0.343135	-0.964366
C126	C	1.369458	0.156865	-0.464366
C127	C	0.869474	-0.343116	-1.046345
C128	C	1.369474	0.156884	-0.546345
C129	C	0.869425	-0.343171	-0.793496
C130	C	1.369425	0.156829	-0.293496
C131	C	0.869407	-0.343190	-0.711511
C132	C	1.369407	0.156810	-0.211511
C133	C	0.949975	-0.262659	-0.711577
C134	C	1.449975	0.237341	-0.211577
C135	C	0.949991	-0.262640	-0.793556
C136	C	1.449991	0.237360	-0.293556
C137	C	0.909715	-0.302897	-0.834513
C138	C	1.409715	0.197103	-0.334513
C139	C	0.909652	-0.302994	-0.174613
C140	C	1.409652	0.197006	0.325387
C141	C	0.909763	-0.302835	-0.087363
C142	C	1.409763	0.197165	0.412637
H143	H	0.982585	-0.542488	-0.469717
H144	H	1.482585	-0.042488	0.030283
O145	O	0.989118	-0.938120	-0.477591
O146	O	1.489118	-0.438120	0.022409
C147	C	1.029779	-0.900059	-0.432962
C148	C	1.529779	-0.400059	0.067038
H149	H	1.033710	-0.919900	-0.371147
H150	H	1.533710	-0.419900	0.128853
H151	H	1.078207	-0.899244	-0.461433
H152	H	1.578207	-0.399244	0.038567
H153	H	1.010302	-0.850259	-0.430217
H154	H	1.510302	-0.350259	0.069783
H155	H	0.836638	-0.662032	-0.287368
H156	H	1.336638	-0.162032	0.212632
O157	O	0.989157	-1.067652	-0.477753
O158	O	1.489157	-0.567652	0.022247
C159	C	1.024645	-1.024475	-0.522114
C160	C	1.524645	-0.524475	-0.022114
H161	H	1.026820	-0.977628	-0.489956
H162	H	1.526820	-0.477628	0.010044
H163	H	1.074246	-1.043408	-0.530559
H164	H	1.574246	-0.543408	-0.030559
H165	H	1.001567	-1.017477	-0.581699
H166	H	1.501567	-0.517477	-0.081699
H167	H	0.836655	-0.375929	-0.930959
H168	H	1.336655	0.124071	-0.430959
H169	H	0.149910	-0.376084	-0.469602
H170	H	0.649910	0.123916	0.030398
H171	H	0.836585	-0.375970	-0.678113
H172	H	1.336585	0.124030	-0.178113
O173	O	0.675150	-0.382462	-0.477344
O174	O	1.175150	0.117538	0.022656
C175	C	0.659142	-0.368793	-0.555615
C176	C	1.159142	0.131207	-0.055615
H177	H	0.641124	-0.318504	-0.559699
H178	H	1.141124	0.181496	-0.059699
H179	H	0.702397	-0.374265	-0.594370
H180	H	1.202397	0.125735	-0.094370
H181	H	0.620962	-0.402555	-0.576069
H182	H	1.120962	0.097445	-0.076069
H183	H	0.836785	-1.062870	-0.287450
H184	H	1.336785	-0.562870	0.212550
H185	H	0.982620	-0.661754	-0.469754
H186	H	1.482620	-0.161754	0.030246
H187	H	0.149909	-0.229816	-0.287778
H188	H	0.649909	0.270184	0.212222
O189	O	0.274250	-0.223492	-0.279769
O190	O	0.774250	0.276508	0.220231
C191	C	0.231141	-0.187894	-0.235574
C192	C	0.731141	0.312106	0.264426
H193	H	0.184251	-0.213666	-0.232817
H194	H	0.684251	0.286334	0.267183
H195	H	0.250096	-0.181118	-0.173735
H196	H	0.750096	0.318882	0.326265
H197	H	0.224219	-0.140114	-0.264433
H198	H	0.724219	0.359886	0.235567
H199	H	0.836744	-0.943600	-0.287420
H200	H	1.336744	-0.443600	0.212580
H201	H	0.550747	-0.376169	-0.469416
H202	H	1.050747	0.123831	0.030584
H203	H	0.982797	-0.229843	-0.826955
H204	H	1.482797	0.270157	-0.326955
O205	O	0.989184	-0.223585	-0.671873
O206	O	1.489184	0.276415	-0.171873
C207	C	1.051924	-0.237326	-0.691905
C208	C	1.551924	0.262674	-0.191905
H209	H	1.053236	-0.261504	-0.751424
H210	H	1.553236	0.238496	-0.251424
H211	H	1.080173	-0.191885	-0.694724
H212	H	1.580173	0.308115	-0.194724
H213	H	1.073096	-0.269698	-0.645767
H214	H	1.573096	0.230302	-0.145767
H215	H	0.269174	-0.376116	-0.469541
H216	H	0.769174	0.123884	0.030459
O217	O	0.830245	-0.537700	-0.279369
O218	O	1.330245	-0.037700	0.220631
C219	C	0.794738	-0.580876	-0.235029
C220	C	1.294738	-0.080876	0.264971
H221	H	0.820538	-0.627711	-0.232360
H222	H	1.320538	-0.127711	0.267640
H223	H	0.788047	-0.561923	-0.173167
H224	H	1.288047	-0.061923	0.326833
H225	H	0.746917	-0.587905	-0.263703
H226	H	1.246917	-0.087905	0.236297
H227	H	0.982842	-0.229782	-1.079802
H228	H	1.482842	0.270218	-0.579802
H229	H	0.982821	-0.229826	-0.931083
H230	H	1.482821	0.270174	-0.431083
H231	H	0.550747	-0.229899	-0.287600
H232	H	1.050747	0.270101	0.212400
O233	O	0.830241	-0.382298	-0.833161
O234	O	1.330241	0.117702	-0.333161
C235	C	0.794685	-0.417858	-0.779376
C236	C	1.294685	0.082142	-0.279376
H237	H	0.792511	-0.392089	-0.720945
H238	H	1.292511	0.107911	-0.220945
H239	H	0.745088	-0.424573	-0.803038
H240	H	1.245088	0.075427	-0.303038
H241	H	0.817703	-0.465666	-0.770654
H242	H	1.317703	0.034334	-0.270654
O243	O	0.830382	-0.382305	-1.086046
O244	O	1.330382	0.117695	-0.586046
C245	C	0.844106	-0.445047	-1.066013
C246	C	1.344106	0.054953	-0.566013
H247	H	0.868291	-0.446360	-1.006501
H248	H	1.368291	0.053640	-0.506501
H249	H	0.798658	-0.473282	-1.063180
H250	H	1.298658	0.026718	-0.563180
H251	H	0.876467	-0.466233	-1.112159
H252	H	1.376467	0.033767	-0.612159
O253	O	0.675091	-0.223565	-0.279594
O254	O	1.175091	0.276435	0.220406
C255	C	0.631983	-0.187965	-0.235400
C256	C	1.131983	0.312035	0.264600
H257	H	0.585091	-0.213734	-0.232646
H258	H	1.085091	0.286266	0.267354
H259	H	0.650936	-0.181191	-0.173559
H260	H	1.150936	0.318809	0.326441
H261	H	0.625065	-0.140184	-0.264258
H262	H	1.125065	0.359816	0.235742
