data_functionalizedCrystal
_audit_creation_method	'MofGen! by Chris Wilmer'
_symmetry_space_group_name_H-M	'P1'
_symmetry_Int_Tables_number	1
_symmetry_cell_setting	triclinic
loop_
_symmetry_equiv_pos_as_xyz
  x,y,z
_cell_length_a	17.077404
_cell_length_b	10.686285
_cell_length_c	17.077396
_cell_angle_alpha	85.608118
_cell_angle_beta	89.980499
_cell_angle_gamma	85.631810
loop_
_atom_site_label
_atom_site_type_symbol
_atom_site_fract_x
_atom_site_fract_y
_atom_site_fract_z
Zn1	Zn	1.224115	-0.502339	-0.419935
Zn2	Zn	1.234129	-0.713359	-0.278625
Zn3	Zn	1.092848	-0.502383	-0.288680
Zn4	Zn	1.102918	-0.713284	-0.409853
O5	O	1.163502	-0.607841	-0.349273
O6	O	1.335290	-0.530344	-0.401201
O7	O	1.215364	-0.685422	-0.170110
O8	O	1.101856	-0.325802	-0.314519
O9	O	1.342648	-0.685379	-0.297382
O10	O	1.198297	-0.325769	-0.410951
O11	O	1.111566	-0.530419	-0.177497
O12	O	0.984337	-0.530347	-0.304743
O13	O	1.119018	-0.685252	-0.521039
O14	O	0.991734	-0.685295	-0.393768
O15	O	1.208061	-0.530271	-0.528447
O16	O	1.225128	-0.889924	-0.287606
O17	O	1.128728	-0.889869	-0.384018
C18	C	0.959553	-0.607818	-0.349253
C19	C	0.872305	-0.607839	-0.349261
C20	C	0.835193	-0.688642	-0.395530
C21	C	0.753212	-0.688645	-0.395542
C22	C	0.708346	-0.607850	-0.349281
C23	C	0.745463	-0.527038	-0.303011
C24	C	0.827441	-0.527030	-0.303003
C25	C	0.574594	-0.527063	-0.303028
C26	C	0.492610	-0.527072	-0.303035
C27	C	0.500365	-0.688678	-0.395568
C28	C	0.582344	-0.688670	-0.395560
C29	C	0.619455	-0.607859	-0.349288
C30	C	1.179129	-0.935681	-0.333644
C31	C	1.185885	-1.075932	-0.326983
C32	C	1.368248	-0.607865	-0.349294
C33	C	1.455498	-0.607875	-0.349303
C34	C	1.163545	-0.607748	-0.554022
C35	C	1.163564	-0.607709	-0.641274
C36	C	1.147836	-0.278722	-0.364981
C37	C	1.141160	-0.138470	-0.371675
C38	C	1.209930	-0.527004	-0.686123
C39	C	1.209937	-0.526962	-0.768105
C40	C	1.163582	-0.607632	-0.805237
C41	C	1.117211	-0.688341	-0.760382
C42	C	1.117200	-0.688375	-0.678402
C43	C	1.117239	-0.688265	-0.931256
C44	C	1.117251	-0.688232	-1.013242
C45	C	1.209976	-0.526851	-1.020959
C46	C	1.209965	-0.526886	-0.938979
C47	C	1.163595	-0.607596	-0.894130
C48	C	1.163500	-0.607843	-0.145325
C49	C	1.163617	-0.607527	-0.058091
H50	H	0.871718	-0.754439	-0.433198
H51	H	0.456080	-0.461267	-0.265375
C52	C	0.868266	-0.438145	-0.252105
C53	C	0.927201	-0.492682	-0.187815
C54	C	0.968023	-0.403789	-0.136919
C55	C	0.949910	-0.260359	-0.150312
C56	C	0.890972	-0.205815	-0.214604
C57	C	0.850150	-0.294708	-0.265501
H58	H	0.940612	-0.598864	-0.177899
H59	H	1.011653	-0.444166	-0.089326
H60	H	0.980129	-0.194555	-0.112635
H61	H	0.877561	-0.099633	-0.224521
H62	H	0.806520	-0.254330	-0.313094
C63	C	1.244598	-1.148547	-0.268399
C64	C	1.332969	-1.130424	-0.275738
C65	C	1.391680	-1.203038	-0.217155
C66	C	1.362021	-1.293775	-0.151232
C67	C	1.273646	-1.311902	-0.143890
C68	C	1.214935	-1.239288	-0.202473
H69	H	1.354928	-1.063251	-0.324540
H70	H	1.457101	-1.189619	-0.222590
H71	H	1.405483	-1.347529	-0.107865
H72	H	1.251687	-1.379075	-0.095087
H73	H	1.149514	-1.252707	-0.197038
H74	H	1.247680	-0.461316	-0.655896
C75	C	1.066201	-0.777155	-0.629062
C76	C	0.976474	-0.766846	-0.640807
C77	C	0.925472	-0.855624	-0.591466
C78	C	0.964195	-0.954710	-0.530380
C79	C	1.053926	-0.965023	-0.518632
C80	C	1.104929	-0.876246	-0.567973
H81	H	0.947805	-0.693492	-0.686029
H82	H	0.859047	-0.847989	-0.600163
H83	H	0.926440	-1.020429	-0.493855
H84	H	1.082596	-1.038377	-0.473410
H85	H	1.171354	-0.883881	-0.559276
H86	H	1.247695	-0.461247	-0.804617
C87	C	1.066290	-0.777012	-1.054088
C88	C	1.015302	-0.865817	-1.004759
C89	C	0.964357	-0.954623	-1.045603
C90	C	0.964401	-0.954623	-1.135777
C91	C	1.015391	-0.865815	-1.185111
C92	C	1.066336	-0.777010	-1.144267
H93	H	1.015268	-0.865820	-0.938002
H94	H	0.926611	-1.020364	-1.009082
H95	H	0.926689	-1.020362	-1.166012
H96	H	1.015425	-0.865813	-1.251868
H97	H	1.104082	-0.711268	-1.180788
C98	C	1.260957	-0.438149	-0.898133
C99	C	1.247725	-0.294698	-0.916248
C100	C	1.298716	-0.205957	-0.875403
C101	C	1.362938	-0.260669	-0.816444
C102	C	1.376173	-0.404128	-0.798327
C103	C	1.325182	-0.492868	-0.839171
H104	H	1.200181	-0.254191	-0.959895
H105	H	1.288918	-0.099759	-0.888815
H106	H	1.400685	-0.194978	-0.786209
H107	H	1.423717	-0.444635	-0.754679
H108	H	1.334980	-0.599066	-0.825759
H109	H	1.097701	-1.084717	-0.415034
C110	C	1.066238	-0.777049	-0.881914
C111	C	0.976511	-0.766756	-0.893651
C112	C	0.925519	-0.855543	-0.844305
C113	C	0.964254	-0.954624	-0.783222
C114	C	1.053986	-0.964921	-0.771483
C115	C	1.104978	-0.876134	-0.820828
H116	H	0.947833	-0.693406	-0.938870
H117	H	0.859093	-0.847919	-0.852996
H118	H	0.926506	-1.020349	-0.746694
H119	H	1.082664	-1.038271	-0.726263
H120	H	1.171404	-0.883758	-0.812138
H121	H	0.604807	-0.461247	-0.265356
H122	H	0.618873	-0.754467	-0.433225
H123	H	0.723000	-0.754444	-0.433218
H124	H	1.247732	-0.461131	-1.057480
H125	H	0.470145	-0.754473	-0.433246
H126	H	0.708925	-0.461248	-0.265348
H127	H	1.079465	-0.754019	-0.790622
