data_functionalizedCrystal
_audit_creation_method	'MofGen! by Chris Wilmer'
_symmetry_space_group_name_H-M	'P1'
_symmetry_Int_Tables_number	1
_symmetry_cell_setting	triclinic
loop_
_symmetry_equiv_pos_as_xyz
  x,y,z
_cell_length_a	10.654545
_cell_length_b	10.967829
_cell_length_c	9.130313
_cell_angle_alpha	77.867600
_cell_angle_beta	89.996934
_cell_angle_gamma	84.599203
loop_
_atom_site_label
_atom_site_type_symbol
_atom_site_fract_x
_atom_site_fract_y
_atom_site_fract_z
O1	O	1.667818	0.175251	-0.166014
O2	O	1.302337	0.191956	-0.170236
O3	O	1.493506	0.002025	-0.122289
O4	O	1.476649	0.365181	-0.213961
O5	O	1.493493	0.002020	0.121311
O6	O	1.302324	0.191950	0.073364
O7	O	1.667805	0.175245	0.077586
Cu8	Cu	1.485063	0.183597	0.097718
Cu9	Cu	1.485079	0.183604	-0.190368
O10	O	1.476636	0.365175	0.029639
C11	C	1.255532	0.190727	-0.048128
C12	C	1.116089	0.187061	-0.047204
C13	C	1.050578	0.185332	0.086019
C14	C	0.919559	0.181867	0.086893
C15	C	0.919574	0.181865	-0.178691
C16	C	1.050591	0.185321	-0.179562
C17	C	1.492272	-0.044478	0.011246
C18	C	1.488599	-0.183035	0.046212
C19	C	1.486969	-0.244799	-0.064392
C20	C	1.483173	-0.388004	-0.028255
C21	C	1.714610	0.176473	-0.044526
C22	C	1.854053	0.180139	-0.045458
C23	C	1.477870	0.411678	-0.103899
C24	C	1.481543	0.550235	-0.138875
N25	N	1.485061	0.183592	0.300342
N26	N	1.485090	0.183599	-0.392989
C27	C	1.569740	0.099526	0.398215
C28	C	1.569752	0.099526	0.551552
C29	C	1.400403	0.267669	0.509125
C30	C	1.400386	0.267661	0.355793
H31	H	0.866229	0.180449	-0.286452
H32	H	1.481751	-0.441139	0.093198
H33	H	1.638703	0.031071	0.631239
Br34	Br	1.139465	0.187690	0.265646
Br35	Br	0.830655	0.179519	0.267705
Br36	Br	1.684654	-0.014570	0.322966
Br37	Br	1.139510	0.187652	-0.360374
H38	H	1.331463	0.336118	0.554289
Br39	Br	1.285447	0.381748	0.222953
H40	H	1.488378	-0.191657	-0.185838
Br41	Br	1.483841	-0.361208	-0.341313
H42	H	1.487177	-0.236175	0.167658
