data_functionalizedCrystal
_audit_creation_method	'MofGen! by Chris Wilmer'
_symmetry_space_group_name_H-M	'P1'
_symmetry_Int_Tables_number	1
_symmetry_cell_setting	triclinic
loop_
_symmetry_equiv_pos_as_xyz
  x,y,z
_cell_length_a	12.759401
_cell_length_b	21.295417
_cell_length_c	21.295411
_cell_angle_alpha	89.972329
_cell_angle_beta	89.986642
_cell_angle_gamma	90.030129
loop_
_atom_site_label
_atom_site_type_symbol
_atom_site_fract_x
_atom_site_fract_y
_atom_site_fract_z
Zn1	Zn	1.606091	-0.250630	-0.355864
Zn2	Zn	2.106091	0.249370	0.144136
Zn3	Zn	1.605956	-0.355895	-0.250591
Zn4	Zn	2.105956	0.144105	0.249409
Zn5	Zn	1.430409	-0.250644	-0.250615
Zn6	Zn	1.930409	0.249356	0.249385
Zn7	Zn	1.430336	-0.355866	-0.355829
Zn8	Zn	1.930336	0.144134	0.144171
O9	O	1.518198	-0.303259	-0.303225
O10	O	2.018198	0.196741	0.196775
O11	O	1.753094	-0.264600	-0.341904
O12	O	2.253094	0.235400	0.158096
O13	O	1.582643	-0.341951	-0.162505
O14	O	2.082643	0.158049	0.337495
O15	O	1.453801	-0.162553	-0.264601
O16	O	1.953801	0.337447	0.235399
O17	O	1.752995	-0.341937	-0.264561
O18	O	2.252995	0.158063	0.235439
O19	O	1.582874	-0.162542	-0.341927
O20	O	2.082874	0.337458	0.158073
O21	O	1.453670	-0.264624	-0.162522
O22	O	1.953670	0.235376	0.337478
O23	O	1.283379	-0.264596	-0.264567
O24	O	1.783379	0.235404	0.235433
O25	O	1.453676	-0.341888	-0.443923
O26	O	1.953676	0.158112	0.056077
O27	O	1.283325	-0.341902	-0.341867
O28	O	1.783325	0.158098	0.158133
O29	O	1.582803	-0.264572	-0.443949
O30	O	2.082803	0.235428	0.056051
O31	O	1.582572	-0.443980	-0.264527
O32	O	2.082572	0.056020	0.235473
O33	O	1.453545	-0.443959	-0.341844
O34	O	1.953545	0.056041	0.158156
C35	C	1.245231	-0.303248	-0.303216
C36	C	1.745231	0.196752	0.196784
C37	C	1.128454	-0.303258	-0.303227
C38	C	1.628454	0.196742	0.196773
C39	C	1.073645	-0.263061	-0.343562
C40	C	1.573645	0.236939	0.156438
C41	C	0.963920	-0.263068	-0.343566
C42	C	1.463920	0.236932	0.156434
C43	C	0.963825	-0.343473	-0.262899
C44	C	1.463825	0.156527	0.237101
C45	C	1.073547	-0.343463	-0.262892
C46	C	1.573547	0.156537	0.237108
C47	C	0.814029	-0.188873	-0.366204
C48	C	1.314029	0.311127	0.133796
C49	C	0.759216	-0.148682	-0.406548
C50	C	1.259216	0.351318	0.093452
C51	C	0.794867	-0.139097	-0.467987
C52	C	1.294867	0.360903	0.032013
C53	C	0.885330	-0.169714	-0.489093
C54	C	1.385330	0.330286	0.010907
C55	C	0.940138	-0.209910	-0.448752
C56	C	1.440138	0.290090	0.051248
C57	C	0.904488	-0.219482	-0.387305
C58	C	1.404488	0.280518	0.112695
C59	C	1.223440	-0.417659	-0.240261
C60	C	1.723440	0.082341	0.259739
C61	C	1.278250	-0.457859	-0.199922
C62	C	1.778250	0.042141	0.300078
C63	C	1.242601	-0.467449	-0.138483
C64	C	1.742601	0.032551	0.361517
C65	C	1.152134	-0.436844	-0.117379
C66	C	1.652134	0.063156	0.382621
C67	C	1.097325	-0.396644	-0.157717
C68	C	1.597325	0.103356	0.342283
C69	C	1.132982	-0.387053	-0.219156
C70	C	1.632982	0.112947	0.280844
C71	C	1.518064	-0.466810	-0.303193
C72	C	2.018064	0.033190	0.196807
C73	C	1.518103	-0.536778	-0.303200
C74	C	2.018103	-0.036778	0.196800
C75	C	1.585273	-0.569582	-0.343493
C76	C	2.085273	-0.069582	0.156507
C77	C	1.585310	-0.635325	-0.343508
C78	C	2.085310	-0.135325	0.156492
C79	C	1.518188	-0.668261	-0.303220
C80	C	2.018188	-0.168261	0.196780
C81	C	1.451005	-0.635449	-0.262925
C82	C	1.951005	-0.135449	0.237075
C83	C	1.450963	-0.569708	-0.262915
C84	C	1.950963	-0.069708	0.237085
N85	N	1.510258	-0.771520	-0.248129
N86	N	2.010258	-0.271520	0.251871
N87	N	1.510304	-0.833971	-0.248141
N88	N	2.010304	-0.333971	0.251859
C89	C	1.518311	-0.866336	-0.303249
C90	C	2.018311	-0.366336	0.196751
N91	N	1.526290	-0.833889	-0.358346
N92	N	2.026290	-0.333889	0.141654
N93	N	1.526249	-0.771432	-0.358334
N94	N	2.026249	-0.271432	0.141666
C95	C	1.518226	-0.739546	-0.303227
C96	C	2.018226	-0.239546	0.196773
C97	C	1.585524	-0.970425	-0.343561
C98	C	2.085524	-0.470425	0.156439
C99	C	1.585554	-1.036169	-0.343578
C100	C	2.085554	-0.536169	0.156422
C101	C	1.451255	-1.036292	-0.262989
C102	C	1.951255	-0.536292	0.237011
C103	C	1.451220	-0.970549	-0.262978
C104	C	1.951220	-0.470549	0.237022
C105	C	1.518360	-0.937620	-0.303263
C106	C	2.018360	-0.437620	0.196737
C107	C	1.792231	-0.303270	-0.303234
C108	C	2.292231	0.196730	0.196766
C109	C	1.909008	-0.303275	-0.303238
C110	C	2.409008	0.196725	0.196762
C111	C	1.518246	-0.303225	-0.467415
C112	C	2.018246	0.196775	0.032585
C113	C	1.518267	-0.303211	-0.537383
C114	C	2.018267	0.196789	-0.037383
C115	C	1.518361	-0.139068	-0.303271
C116	C	2.018361	0.360932	0.196729
C117	C	1.518431	-0.069100	-0.303290
C118	C	2.018431	0.430900	0.196710
C119	C	1.585541	-0.343344	-1.036833
C120	C	2.085541	0.156656	-0.536833
C121	C	1.585522	-0.343365	-0.971091
C122	C	2.085522	0.156635	-0.471091
C123	C	1.518366	-0.303113	-0.938223
C124	C	2.018366	0.196887	-0.438223
C125	C	1.451206	-0.262849	-0.971103
C126	C	1.951206	0.237151	-0.471103
C127	C	1.451219	-0.262834	-1.036845
C128	C	1.951219	0.237166	-0.536845
N129	N	1.510340	-0.248033	-0.835017
N130	N	2.010340	0.251967	-0.335017
N131	N	1.510334	-0.248049	-0.772565
N132	N	2.010334	0.251951	-0.272565
C133	C	1.518320	-0.303155	-0.740148
C134	C	2.018320	0.196845	-0.240148
N135	N	1.526334	-0.358246	-0.772542
N136	N	2.026334	0.141754	-0.272542
N137	N	1.526347	-0.358230	-0.834999
N138	N	2.026347	0.141770	-0.334999
C139	C	1.518344	-0.303124	-0.866938
C140	C	2.018344	0.196876	-0.366938
C141	C	1.585451	-0.343441	-0.635990
C142	C	2.085451	0.156559	-0.135990
C143	C	1.585424	-0.343462	-0.570246
C144	C	2.085424	0.156538	-0.070246
C145	C	1.451114	-0.262941	-0.570260
C146	C	1.951114	0.237059	-0.070260
C147	C	1.451135	-0.262926	-0.636003
C148	C	1.951135	0.237074	-0.136003
C149	C	1.518309	-0.303175	-0.668864
C150	C	2.018309	0.196825	-0.168864
C151	C	1.518210	-0.303247	-0.139673
C152	C	2.018210	0.196753	0.360327
C153	C	1.518393	-0.303084	-0.069706
C154	C	2.018393	0.196916	0.430294
H155	H	1.351923	-0.482771	-0.217107
H156	H	1.851923	0.017229	0.282893
O157	O	1.378793	-0.935161	-0.219507
O158	O	1.878793	-0.435161	0.280493
H159	H	1.332133	-0.969106	-0.191488
H160	H	1.832133	-0.469106	0.308512
O161	O	0.904599	-0.386839	-0.219401
O162	O	1.404599	0.113161	0.280599
H163	H	0.925630	-0.375968	-0.170015
H164	H	1.425630	0.124032	0.329985
H165	H	1.118347	-0.230322	-0.376403
H166	H	1.618347	0.269678	0.123597
H167	H	1.396597	-1.063107	-0.230189
H168	H	1.896597	-0.563107	0.269811
H169	H	1.640145	-0.376216	-0.662747
H170	H	2.140145	0.123784	-0.162747
O171	O	0.735752	-0.095746	-0.511501
O172	O	1.235752	0.404254	-0.011501
H173	H	0.788090	-0.056935	-0.526633
H174	H	1.288090	0.443065	-0.026633
H175	H	1.640251	-1.062877	-0.376392
H176	H	2.140251	-0.562877	0.123608
H177	H	1.640098	-0.376254	-0.543483
H178	H	2.140098	0.123746	-0.043483
O179	O	1.378516	-0.534320	-0.219453
O180	O	1.878516	-0.034320	0.280547
H181	H	1.425560	-0.504362	-0.187450
H182	H	1.925560	-0.004362	0.312550
O183	O	1.378686	-0.219519	-0.534822
O184	O	1.878686	0.280481	-0.034822
H185	H	1.325200	-0.247694	-0.504855
H186	H	1.825200	0.252306	-0.004855
H187	H	1.287217	-0.500201	-0.105647
H188	H	1.787217	-0.000201	0.394353
O189	O	1.657679	-0.534060	-0.386942
O190	O	2.157679	-0.034060	0.113058
H191	H	1.711138	-0.504103	-0.358782
H192	H	2.211138	-0.004103	0.141218
H193	H	1.396352	-0.662270	-0.230123
H194	H	1.896352	-0.162270	0.269877
O195	O	0.923776	-0.159377	-0.555363
O196	O	1.423776	0.340623	-0.055363
H197	H	1.004100	-0.139384	-0.554086
H198	H	1.504100	0.360616	-0.054086
H199	H	1.640191	-0.943613	-0.376366
H200	H	2.140191	-0.443613	0.123634
H201	H	1.023662	-0.371724	-0.140530
H202	H	1.523662	0.128276	0.359470
H203	H	0.785001	-0.196666	-0.316174
H204	H	1.285001	0.303334	0.183826
H205	H	1.396526	-0.230076	-0.944338
H206	H	1.896526	0.269924	-0.444338
H207	H	1.396539	-0.230048	-1.063609
H208	H	1.896539	0.269952	-0.563609
O209	O	1.378728	-0.219490	-0.671463
O210	O	1.878728	0.280510	-0.171463
H211	H	1.296256	-0.230280	-0.658836
H212	H	1.796256	0.269720	-0.158836
O213	O	1.037708	-0.242928	-0.471503
O214	O	1.537708	0.257072	0.028497
H215	H	1.053296	-0.229511	-0.521005
H216	H	1.553296	0.270489	-0.021005
O217	O	1.657968	-0.386773	-1.072269
O218	O	2.157968	0.113227	-0.572269
H219	H	1.740436	-0.375992	-1.059657
H220	H	2.240436	0.124008	-0.559657
O221	O	0.661658	-0.115651	-0.383786
O222	O	1.161658	0.384349	0.116214
H223	H	0.646085	-0.129055	-0.334279
H224	H	1.146085	0.370945	0.165721
O225	O	1.657958	-0.386783	-0.935623
O226	O	2.157958	0.113217	-0.435623
H227	H	1.704676	-0.414764	-0.969518
H228	H	2.204676	0.085236	-0.469518
O229	O	1.657767	-0.670719	-0.386963
O230	O	2.157767	-0.170719	0.113037
H231	H	1.704451	-0.636776	-0.414971
H232	H	2.204451	-0.136776	0.085029
H233	H	1.123104	-0.444656	-0.067351
H234	H	1.623104	0.055344	0.432649
H235	H	1.252481	-0.409849	-0.290288
H236	H	1.752481	0.090151	0.209712
