data_functionalizedCrystal
_audit_creation_method	'MofGen! by Chris Wilmer'
_symmetry_space_group_name_H-M	'P1'
_symmetry_Int_Tables_number	1
_symmetry_cell_setting	triclinic
loop_
_symmetry_equiv_pos_as_xyz
  x,y,z
_cell_length_a	19.288859
_cell_length_b	14.044220
_cell_length_c	13.101039
_cell_angle_alpha	93.673600
_cell_angle_beta	86.652663
_cell_angle_gamma	88.161302
loop_
_atom_site_label
_atom_site_type_symbol
_atom_site_fract_x
_atom_site_fract_y
_atom_site_fract_z
O1	O	0.925436	0.123426	0.085238
O2	O	1.175436	0.373426	0.335238
O3	O	1.425436	0.623426	0.585238
O4	O	1.675436	0.873426	0.835238
O5	O	0.724200	0.139379	0.085236
O6	O	0.974200	0.389379	0.335236
O7	O	1.224200	0.639379	0.585236
O8	O	1.474200	0.889379	0.835236
O9	O	0.821798	-0.006569	0.085227
O10	O	1.071798	0.243431	0.335227
O11	O	1.321798	0.493431	0.585227
O12	O	1.571798	0.743431	0.835227
O13	O	0.827838	0.269375	0.085248
O14	O	1.077838	0.519375	0.335248
O15	O	1.327838	0.769375	0.585248
O16	O	1.577838	1.019375	0.835248
O17	O	0.828803	-0.017054	-0.085203
O18	O	1.078803	0.232946	0.164797
O19	O	1.328803	0.482946	0.414797
O20	O	1.578803	0.732946	0.664797
O21	O	0.731205	0.128895	-0.085194
O22	O	0.981205	0.378895	0.164806
O23	O	1.231205	0.628895	0.414806
O24	O	1.481205	0.878895	0.664806
O25	O	0.932441	0.112942	-0.085192
O26	O	1.182441	0.362942	0.164808
O27	O	1.432441	0.612942	0.414808
O28	O	1.682441	0.862942	0.664808
Zn29	Zn	0.832936	0.119254	-0.112253
Zn30	Zn	1.082936	0.369254	0.137747
Zn31	Zn	1.332936	0.619254	0.387747
Zn32	Zn	1.582936	0.869254	0.637747
Zn33	Zn	0.823706	0.133067	0.112297
Zn34	Zn	1.073706	0.383067	0.362297
Zn35	Zn	1.323706	0.633067	0.612297
Zn36	Zn	1.573706	0.883067	0.862297
O37	O	0.834843	0.258891	-0.085183
O38	O	1.084843	0.508891	0.164817
O39	O	1.334843	0.758891	0.414817
O40	O	1.584843	1.008891	0.664817
C41	C	0.701793	0.133625	0.000021
C42	C	0.951793	0.383625	0.250021
C43	C	1.201793	0.633625	0.500021
C44	C	1.451793	0.883625	0.750021
C45	C	0.624591	0.132087	0.000020
C46	C	0.874591	0.382087	0.250020
C47	C	1.124591	0.632087	0.500020
C48	C	1.374591	0.882087	0.750020
C49	C	0.065384	0.207319	0.000027
C50	C	0.315384	0.457319	0.250027
C51	C	0.565384	0.707319	0.500027
C52	C	0.815384	0.957319	0.750027
C53	C	0.137923	0.208772	0.000032
C54	C	0.387923	0.458772	0.250032
C55	C	0.637923	0.708772	0.500032
C56	C	0.887923	0.958772	0.750032
C57	C	0.177128	0.123136	0.000024
C58	C	0.427128	0.373136	0.250024
C59	C	0.677128	0.623136	0.500024
C60	C	0.927128	0.873136	0.750024
C61	C	0.143786	0.036041	0.000037
C62	C	0.393786	0.286041	0.250037
C63	C	0.643786	0.536041	0.500037
C64	C	0.893786	0.786041	0.750037
C65	C	0.071248	0.034591	0.000041
C66	C	0.321248	0.284591	0.250041
C67	C	0.571248	0.534591	0.500041
C68	C	0.821248	0.784591	0.750041
C69	C	0.296749	0.055596	-0.059694
C70	C	0.546749	0.305596	0.190306
C71	C	0.796749	0.555596	0.440306
C72	C	1.046749	0.805596	0.690306
C73	C	0.369287	0.057050	-0.059705
C74	C	0.619287	0.307050	0.190295
C75	C	0.869287	0.557050	0.440295
C76	C	1.119287	0.807050	0.690295
C77	C	0.400862	0.127607	0.000014
C78	C	0.650862	0.377607	0.250014
C79	C	0.900862	0.627607	0.500014
C80	C	1.150862	0.877607	0.750014
C81	C	0.359890	0.196726	0.059731
C82	C	0.609890	0.446726	0.309731
C83	C	0.859890	0.696726	0.559731
C84	C	1.109890	0.946726	0.809731
C85	C	0.287351	0.195275	0.059735
C86	C	0.537351	0.445275	0.309735
C87	C	0.787351	0.695275	0.559735
C88	C	1.037351	0.945275	0.809735
C89	C	0.255784	0.124700	0.000019
C90	C	0.505784	0.374700	0.250019
C91	C	0.755784	0.624700	0.500019
C92	C	1.005784	0.874700	0.750019
C93	C	0.512850	0.216273	0.000014
C94	C	0.762850	0.466273	0.250014
C95	C	1.012850	0.716273	0.500014
C96	C	1.262850	0.966273	0.750014
C97	C	0.585391	0.217724	0.000026
C98	C	0.835391	0.467724	0.250026
C99	C	1.085391	0.717724	0.500026
C100	C	1.335391	0.967724	0.750026
C101	C	0.591253	0.044990	0.000020
C102	C	0.841253	0.294990	0.250020
C103	C	1.091253	0.544990	0.500020
C104	C	1.341253	0.794990	0.750020
C105	C	0.518713	0.043542	0.000019
C106	C	0.768713	0.293542	0.250019
C107	C	1.018713	0.543542	0.500019
C108	C	1.268713	0.793542	0.750019
C109	C	0.479516	0.129186	0.000011
C110	C	0.729516	0.379186	0.250011
C111	C	0.979516	0.629186	0.500011
C112	C	1.229516	0.879186	0.750011
C113	C	0.822656	-0.047115	0.000012
C114	C	1.072656	0.202885	0.250012
C115	C	1.322656	0.452885	0.500012
C116	C	1.572656	0.702885	0.750012
C117	C	0.814769	-0.152307	0.000010
C118	C	1.064769	0.097693	0.250010
C119	C	1.314769	0.347693	0.500010
C120	C	1.564769	0.597693	0.750010
C121	C	0.800347	-0.344905	0.000025
C122	C	1.050347	-0.094905	0.250025
C123	C	1.300347	0.155095	0.500025
C124	C	1.550347	0.405095	0.750025
C125	C	0.856291	-0.402779	0.000028
C126	C	1.106291	-0.152779	0.250028
C127	C	1.356291	0.097221	0.500028
C128	C	1.606291	0.347221	0.750028
C129	C	0.848267	-0.509947	0.000037
C130	C	1.098267	-0.259947	0.250037
C131	C	1.348267	-0.009947	0.500037
C132	C	1.598267	0.240053	0.750037
C133	C	0.808370	-0.237727	0.000017
C134	C	1.058370	0.012273	0.250017
C135	C	1.308370	0.262273	0.500017
C136	C	1.558370	0.512273	0.750017
C137	C	0.954848	0.118697	0.000026
C138	C	1.204848	0.368697	0.250026
C139	C	1.454848	0.618697	0.500026
C140	C	1.704848	0.868697	0.750026
C141	C	1.032051	0.120235	0.000034
C142	C	1.282051	0.370235	0.250034
C143	C	1.532051	0.620235	0.500034
C144	C	1.782051	0.870235	0.750034
C145	C	0.833985	0.299436	0.000035
C146	C	1.083985	0.549436	0.250035
C147	C	1.333985	0.799436	0.500035
C148	C	1.583985	1.049436	0.750035
C149	C	0.841873	0.404628	0.000043
C150	C	1.091873	0.654628	0.250043
C151	C	1.341873	0.904628	0.500043
C152	C	1.591873	1.154628	0.750043
N153	N	0.817407	0.142488	0.265546
N154	N	1.067407	0.392488	0.515546
N155	N	1.317407	0.642488	0.765546
N156	N	1.567407	0.892488	1.015546
N157	N	0.839239	0.109826	-0.265502
N158	N	1.089239	0.359826	-0.015502
N159	N	1.339239	0.609826	0.234498
N160	N	1.589239	0.859826	0.484498
C161	C	0.808831	0.155305	0.474589
C162	C	1.058831	0.405305	0.724589
C163	C	1.308831	0.655305	0.974589
C164	C	1.558831	0.905305	1.224589
C165	C	0.847814	0.097012	0.525461
C166	C	1.097814	0.347012	0.775461
C167	C	1.347814	0.597012	1.025461
C168	C	1.597814	0.847012	1.275461
C169	C	0.843042	0.104143	0.641780
C170	C	1.093042	0.354143	0.891780
C171	C	1.343042	0.604143	1.141780
C172	C	1.593042	0.854143	1.391780
C173	C	0.813602	0.148175	0.358260
C174	C	1.063602	0.398175	0.608260
C175	C	1.313602	0.648175	0.858260
C176	C	1.563602	0.898175	1.108260
H177	H	0.033473	0.277058	0.000025
H178	H	0.283473	0.527058	0.250025
H179	H	0.533473	0.777058	0.500025
H180	H	0.783473	1.027058	0.750025
H181	H	0.884771	0.041748	0.481656
H182	H	1.134771	0.291748	0.731656
H183	H	1.384771	0.541748	0.981656
H184	H	1.634771	0.791748	1.231656
H185	H	0.385596	0.254183	0.108357
H186	H	0.635596	0.504183	0.358357
H187	H	0.885596	0.754183	0.608357
H188	H	1.135596	1.004183	0.858357
H189	H	0.253995	0.251553	0.108360
H190	H	0.503995	0.501553	0.358360
H191	H	0.753995	0.751553	0.608360
H192	H	1.003995	1.001553	0.858360
H193	H	0.771875	0.210564	0.518390
H194	H	1.021875	0.460564	0.768390
H195	H	1.271875	0.710564	1.018390
H196	H	1.521875	0.960564	1.268390
H197	H	0.746431	-0.375842	0.000027
H198	H	0.996431	-0.125842	0.250027
H199	H	1.246431	0.124158	0.500027
H200	H	1.496431	0.374158	0.750027
H201	H	0.165069	0.279688	0.000017
H202	H	0.415069	0.529688	0.250017
H203	H	0.665069	0.779688	0.500017
H204	H	0.915069	1.029688	0.750017
H205	H	0.910209	-0.371835	0.000098
H206	H	1.160209	-0.121835	0.250098
H207	H	1.410209	0.128165	0.500098
H208	H	1.660209	0.378165	0.750098
H209	H	0.480934	0.286010	0.000010
H210	H	0.730934	0.536010	0.250010
H211	H	0.980934	0.786010	0.500010
H212	H	1.230934	1.036010	0.750010
H213	H	0.623173	-0.024737	0.000022
H214	H	0.873173	0.225263	0.250022
H215	H	1.123173	0.475263	0.500022
H216	H	1.373173	0.725263	0.750022
H217	H	0.491574	-0.027371	0.000018
H218	H	0.741574	0.222629	0.250018
H219	H	0.991574	0.472629	0.500018
H220	H	1.241574	0.722629	0.750018
H221	H	0.612529	0.288641	0.000029
H222	H	0.862529	0.538641	0.250029
H223	H	1.112529	0.788641	0.500029
H224	H	1.362529	1.038641	0.750029
H225	H	0.402641	0.000773	-0.108335
H226	H	0.652641	0.250773	0.141665
H227	H	0.902641	0.500773	0.391665
H228	H	1.152641	0.750773	0.641665
H229	H	0.271048	-0.001865	-0.108326
H230	H	0.521048	0.248135	0.141674
H231	H	0.771048	0.498135	0.391674
H232	H	1.021048	0.748135	0.641674
H233	H	0.175712	-0.033684	0.000033
H234	H	0.425712	0.216316	0.250033
H235	H	0.675712	0.466316	0.500033
H236	H	0.925712	0.716316	0.750033
H237	H	0.044109	-0.036325	0.000047
H238	H	0.294109	0.213675	0.250047
H239	H	0.544109	0.463675	0.500047
H240	H	0.794109	0.713675	0.750047
