data_functionalizedCrystal
_audit_creation_method	'MofGen! by Chris Wilmer'
_symmetry_space_group_name_H-M	'P1'
_symmetry_Int_Tables_number	1
_symmetry_cell_setting	triclinic
loop_
_symmetry_equiv_pos_as_xyz
  x,y,z
_cell_length_a	14.519731
_cell_length_b	12.837932
_cell_length_c	11.295483
_cell_angle_alpha	85.466831
_cell_angle_beta	94.114372
_cell_angle_gamma	89.259278
loop_
_atom_site_label
_atom_site_type_symbol
_atom_site_fract_x
_atom_site_fract_y
_atom_site_fract_z
O1	O	-1.241210	-0.129043	-0.099048
O2	O	-0.974117	-0.145025	-0.099043
O3	O	-1.101740	0.013880	-0.099047
O4	O	-1.113587	-0.287949	-0.099045
O5	O	-1.090529	-0.000055	0.099004
O6	O	-0.962905	-0.158961	0.099008
O7	O	-1.229999	-0.142978	0.099003
Cu8	Cu	-1.095428	-0.152242	0.117089
Cu9	Cu	-1.108687	-0.135762	-0.117129
O10	O	-1.102375	-0.301884	0.099006
C11	C	-0.934087	-0.151244	-0.000017
C12	C	-0.831513	-0.149000	-0.000015
C13	C	-1.092133	0.045541	-0.000024
C14	C	-1.080198	0.160642	-0.000032
C15	C	-0.748211	-0.147177	-0.000018
C16	C	-0.643705	-0.144899	-0.000016
C17	C	-0.560410	-0.143091	-0.000014
C18	C	-0.455898	-0.140812	-0.000015
C19	C	-1.111983	-0.333545	-0.000019
C20	C	-1.123917	-0.448645	-0.000019
C21	C	-0.270028	-0.136760	-0.000020
C22	C	-0.372602	-0.139004	-0.000013
N23	N	-1.086110	-0.163833	0.281825
C24	C	-0.980446	0.310678	-0.000028
C25	C	-0.991654	0.202530	-0.000030
C26	C	-1.157541	0.226910	-0.000034
C27	C	-1.146333	0.335058	-0.000032
C28	C	-1.057782	0.376937	-0.000027
C29	C	-1.046575	0.485087	-0.000017
C30	C	-1.212462	0.509465	-0.000029
C31	C	-1.223670	0.401317	-0.000031
N32	N	-1.118012	-0.124163	-0.281866
C33	C	-1.185089	-0.040668	0.531112
C34	C	-1.178054	-0.049435	0.655776
C35	C	-1.065000	-0.190127	0.655819
C36	C	-1.072035	-0.181360	0.531155
C37	C	-1.132083	-0.106630	0.468806
C38	C	-1.139122	-0.097869	0.344140
C39	C	-1.026064	-0.238555	0.344186
C40	C	-1.019029	-0.247322	0.468849
H41	H	-0.908343	0.344775	-0.000002
H42	H	-0.928678	0.148585	-0.000032
O43	O	-1.253042	0.181726	-0.000056
H44	H	-1.286105	0.202643	0.080660
H45	H	-0.982905	-0.292269	0.293442
O46	O	-1.000240	-0.270719	0.723089
H47	H	-0.948379	-0.230942	0.779900
H48	H	-1.188018	-0.037022	0.293377
O49	O	-1.249828	0.039946	0.463843
H50	H	-1.301702	0.000197	0.407023
H51	H	-0.970136	-0.308164	0.519628
O52	O	-1.319175	0.356146	-0.000033
H53	H	-1.313978	0.269812	-0.000028
H54	H	-0.974472	0.519182	-0.000002
O55	O	-1.295886	0.580929	-0.000032
H56	H	-1.273219	0.663169	-0.000035
O57	O	-1.235235	0.021696	0.722984
H58	H	-1.278177	0.075123	0.658680
