data_functionalizedCrystal
_audit_creation_method	'MofGen! by Chris Wilmer'
_symmetry_space_group_name_H-M	'P1'
_symmetry_Int_Tables_number	1
_symmetry_cell_setting	triclinic
loop_
_symmetry_equiv_pos_as_xyz
  x,y,z
_cell_length_a	12.827892
_cell_length_b	10.686220
_cell_length_c	10.686551
_cell_angle_alpha	90.308082
_cell_angle_beta	94.405078
_cell_angle_gamma	85.603024
loop_
_atom_site_label
_atom_site_type_symbol
_atom_site_fract_x
_atom_site_fract_y
_atom_site_fract_z
Zn1	Zn	-0.254771	-1.972286	0.562389
Zn2	Zn	-0.443915	-1.956055	0.352633
Zn3	Zn	-0.281503	-1.746404	0.368707
Zn4	Zn	-0.441797	-1.762485	0.578411
O5	O	-0.355496	-1.859307	0.465535
O6	O	-0.269560	-2.145674	0.521133
O7	O	-0.434445	-1.914721	0.179220
O8	O	-0.131715	-1.776430	0.394421
O9	O	-0.408523	-2.133750	0.367026
O10	O	-0.112075	-1.942384	0.536719
O11	O	-0.315121	-1.760692	0.191029
O12	O	-0.313068	-1.572995	0.409957
O13	O	-0.404914	-1.803838	0.751831
O14	O	-0.430835	-1.584810	0.564025
O15	O	-0.267506	-1.957978	0.740060
O16	O	-0.589876	-1.930315	0.382561
O17	O	-0.588320	-1.788100	0.548439
C18	C	-0.374623	-1.533386	0.490474
C19	C	-0.382829	-1.393958	0.501173
C20	C	-0.627013	-1.859227	0.465519
C21	C	-0.743159	-1.859311	0.465545
C22	C	-0.332992	-1.884512	0.792735
C23	C	-0.323402	-1.895253	0.932168
C24	C	-0.795668	-1.929780	0.383541
C25	C	-0.915711	-1.929868	0.383567
C26	C	-0.082916	-1.859424	0.465576
C27	C	0.033241	-1.859474	0.465594
C28	C	-0.336296	-2.186501	0.440499
C29	C	-0.328114	-2.325931	0.429830
C30	C	-0.377834	-1.834273	0.139602
C31	C	-0.387115	-1.823775	0.000151
H32	H	-0.751753	-1.990053	0.313319
H33	H	-0.921614	-1.799133	0.535800
F34	F	-0.452278	-1.330659	0.591705
H35	H	-0.274993	-1.374357	0.360564
F36	F	-0.974727	-2.008722	0.291792
F37	F	-0.800554	-1.780542	0.557344
H38	H	-0.449003	-1.754366	0.951684
H39	H	-0.261517	-1.964676	0.980641
