data_functionalizedCrystal
_audit_creation_method	'MofGen! by Chris Wilmer'
_symmetry_space_group_name_H-M	'P1'
_symmetry_Int_Tables_number	1
_symmetry_cell_setting	triclinic
loop_
_symmetry_equiv_pos_as_xyz
  x,y,z
_cell_length_a	23.532407
_cell_length_b	22.010155
_cell_length_c	23.532407
_cell_angle_alpha	89.999577
_cell_angle_beta	97.151322
_cell_angle_gamma	90.003069
loop_
_atom_site_label
_atom_site_type_symbol
_atom_site_fract_x
_atom_site_fract_y
_atom_site_fract_z
O1	O	0.755264	0.050455	-0.069127
O2	O	1.255264	0.550455	0.430873
O3	O	0.589400	0.050474	-0.079130
O4	O	1.089400	0.550474	0.420870
O5	O	0.677334	0.050453	0.008803
O6	O	1.177334	0.550453	0.508803
O7	O	0.667330	0.050476	-0.157060
O8	O	1.167330	0.550476	0.342940
O9	O	0.677318	-0.050597	0.008790
O10	O	1.177318	0.449403	0.508790
O11	O	0.589384	-0.050576	-0.079143
O12	O	1.089384	0.449424	0.420857
O13	O	0.755248	-0.050595	-0.069140
O14	O	1.255248	0.449405	0.430860
Cu15	Cu	0.672315	-0.059812	-0.074143
Cu16	Cu	1.172315	0.440188	0.425857
Cu17	Cu	0.672333	0.059691	-0.074127
Cu18	Cu	1.172333	0.559691	0.425873
O19	O	0.667314	-0.050574	-0.157073
O20	O	1.167314	0.449426	0.342927
C21	C	0.568176	-0.000049	-0.078882
C22	C	1.068176	0.499951	0.421118
C23	C	0.504959	-0.000042	-0.078116
C24	C	1.004959	0.499958	0.421884
N25	N	0.672305	-0.143865	-0.074153
N26	N	1.172305	0.356135	0.425847
C27	C	0.105856	-0.000063	-0.125350
C28	C	0.605856	0.499937	0.374650
C29	C	0.046456	-0.000067	-0.124638
C30	C	0.546456	0.499933	0.375362
O31	O	0.009711	-0.000083	-0.168424
O32	O	0.509711	0.499917	0.331576
N33	N	0.023830	-0.000073	-0.072362
N34	N	0.523830	0.499927	0.427638
C35	C	0.060607	-0.000082	-0.020794
C36	C	0.560607	0.499918	0.479206
O37	O	0.035908	-0.000088	0.023737
O38	O	0.535908	0.499912	0.523737
C39	C	0.120006	-0.000082	-0.021506
C40	C	0.620006	0.499918	0.478494
C41	C	0.142629	-0.000070	-0.073785
C42	C	0.642629	0.499930	0.426215
C43	C	0.128479	-0.000051	-0.177625
C44	C	0.628479	0.499949	0.322375
C45	C	0.187876	-0.000046	-0.178336
C46	C	0.687876	0.499954	0.321664
C47	C	0.224649	-0.000053	-0.126772
C48	C	0.724649	0.499947	0.373228
C49	C	0.202025	-0.000065	-0.074497
C50	C	0.702025	0.499935	0.425503
C51	C	0.156783	-0.000096	0.030062
C52	C	0.656783	0.499904	0.530062
C53	C	0.216185	-0.000097	0.029345
C54	C	0.716185	0.499903	0.529345
C55	C	0.238808	-0.000084	-0.022934
C56	C	0.738808	0.499916	0.477066
C57	C	0.298194	-0.000067	-0.023643
C58	C	0.798194	0.499933	0.476357
N59	N	0.320820	-0.000061	-0.075920
N60	N	0.820820	0.499939	0.424080
C61	C	0.284048	-0.000054	-0.127484
C62	C	0.784048	0.499946	0.372516
C63	C	-0.064135	-0.000082	-0.019302
C64	C	0.435865	0.499918	0.480698
C65	C	-0.123533	-0.000077	-0.018589
C66	C	0.376467	0.499923	0.481411
C67	C	-0.137680	-0.000063	-0.122434
C68	C	0.362320	0.499937	0.377566
C69	C	-0.078281	-0.000064	-0.123146
C70	C	0.421719	0.499936	0.376854
C71	C	-0.041509	-0.000076	-0.071578
C72	C	0.458491	0.499924	0.428422
C73	C	0.408784	-0.000043	-0.128974
C74	C	0.908784	0.499957	0.371026
C75	C	0.468186	-0.000035	-0.129680
C76	C	0.968186	0.499965	0.370320
C77	C	0.482329	-0.000052	-0.025836
C78	C	0.982329	0.499948	0.474164
C79	C	0.422932	-0.000057	-0.025129
C80	C	0.922932	0.499943	0.474871
C81	C	0.386160	-0.000054	-0.076702
C82	C	0.886160	0.499946	0.423298
O83	O	0.334974	-0.000054	0.020119
O84	O	0.834974	0.499946	0.520119
O85	O	0.308755	-0.000055	-0.172007
O86	O	0.808755	0.499945	0.327993
C87	C	0.711273	-0.563653	-0.035196
C88	C	1.211273	-0.063653	0.464804
C89	C	0.711275	-0.627261	-0.035192
C90	C	1.211275	-0.127261	0.464808
O91	O	0.744384	-0.660160	-0.002076
O92	O	1.244384	-0.160160	0.497924
N93	N	0.672333	-0.659072	-0.074115
N94	N	1.172333	-0.159072	0.425885
C95	C	0.633382	-0.627272	-0.113041
C96	C	1.133382	-0.127272	0.386959
O97	O	0.600259	-0.660170	-0.146148
O98	O	1.100259	-0.160170	0.353852
C99	C	0.633377	-0.563665	-0.113042
C100	C	1.133377	-0.063665	0.386958
C101	C	0.672326	-0.531858	-0.074120
C102	C	1.172326	-0.031858	0.425880
C103	C	0.750217	-0.531846	0.003723
C104	C	1.250217	-0.031846	0.503723
C105	C	0.750215	-0.468243	0.003719
C106	C	1.250215	0.031757	0.503719
C107	C	0.711268	-0.436447	-0.035205
C108	C	1.211268	0.063553	0.464795
C109	C	0.672324	-0.468255	-0.074125
C110	C	1.172324	0.031745	0.425875
C111	C	0.594424	-0.531866	-0.151965
C112	C	1.094424	-0.031866	0.348035
C113	C	0.594422	-0.468256	-0.151962
C114	C	1.094422	0.031744	0.348038
C115	C	0.633370	-0.436448	-0.113040
C116	C	1.133370	0.063552	0.386960
C117	C	0.633374	-0.372856	-0.113054
C118	C	1.133374	0.127144	0.386946
N119	N	0.672317	-0.341045	-0.074130
N120	N	1.172317	0.158955	0.425870
C121	C	0.711263	-0.372841	-0.035206
C122	C	1.211263	0.127159	0.464794
C123	C	0.633395	-0.760850	-0.113036
C124	C	1.133395	-0.260850	0.386964
C125	C	0.633402	-0.824455	-0.113039
C126	C	1.133402	-0.324455	0.386961
C127	C	0.711294	-0.824440	-0.035188
C128	C	1.211294	-0.324440	0.464812
C129	C	0.711290	-0.760833	-0.035189
C130	C	1.211290	-0.260833	0.464811
C131	C	0.672337	-0.729039	-0.074113
C132	C	1.172337	-0.229039	0.425887
C133	C	0.711256	-0.239269	-0.035220
C134	C	1.211256	0.260731	0.464780
C135	C	0.711252	-0.175660	-0.035229
C136	C	1.211252	0.324340	0.464771
C137	C	0.633358	-0.175681	-0.113077
C138	C	1.133358	0.324319	0.386923
C139	C	0.633364	-0.239284	-0.113070
C140	C	1.133364	0.260716	0.386930
C141	C	0.672315	-0.271077	-0.074136
C142	C	1.172315	0.228923	0.425864
O143	O	0.600282	-0.339916	-0.146151
O144	O	1.100282	0.160084	0.353849
O145	O	0.744376	-0.339935	-0.002100
O146	O	1.244376	0.160065	0.497900
C147	C	0.776472	-0.000071	-0.069388
C148	C	1.276472	0.499929	0.430612
C149	C	0.839689	-0.000073	-0.070154
C150	C	1.339689	0.499927	0.429846
C151	C	0.677071	-0.000074	0.030013
C152	C	1.177071	0.499926	0.530013
C153	C	0.676305	-0.000078	0.093230
C154	C	1.176305	0.499922	0.593230
N155	N	0.672347	0.143744	-0.074112
N156	N	1.172347	0.643744	0.425888
C157	C	0.667577	-0.000046	-0.178283
C158	C	1.167577	0.499954	0.321717
C159	C	0.668343	-0.000037	-0.241500
C160	C	1.168343	0.499963	0.258500
C161	C	0.723539	-0.000050	0.492333
C162	C	1.223539	0.499950	0.992333
C163	C	0.722827	-0.000046	0.551733
C164	C	1.222827	0.499954	1.051733
O165	O	0.766613	-0.000028	0.588478
O166	O	1.266613	0.499972	1.088478
N167	N	0.670551	-0.000040	0.574359
N168	N	1.170551	0.499960	1.074359
C169	C	0.618983	-0.000033	0.537582
C170	C	1.118983	0.499967	1.037582
O171	O	0.574452	-0.000027	0.562281
O172	O	1.074452	0.499973	1.062281
C173	C	0.619695	-0.000033	0.478182
C174	C	1.119695	0.499967	0.978182
C175	C	0.671974	-0.000045	0.455560
C176	C	1.171974	0.499955	0.955560
C177	C	0.775814	-0.000061	0.469710
C178	C	1.275814	0.499939	0.969710
C179	C	0.776525	-0.000067	0.410313
C180	C	1.276525	0.499933	0.910313
C181	C	0.724961	-0.000062	0.373540
C182	C	1.224961	0.499938	0.873540
C183	C	0.672685	-0.000051	0.396164
C184	C	1.172685	0.499949	0.896164
C185	C	0.568127	-0.000022	0.441406
C186	C	1.068127	0.499978	0.941406
C187	C	0.568844	-0.000022	0.382004
C188	C	1.068844	0.499978	0.882004
C189	C	0.621123	-0.000034	0.359381
C190	C	1.121123	0.499966	0.859381
C191	C	0.621832	-0.000052	0.299995
C192	C	1.121832	0.499948	0.799995
N193	N	0.674109	-0.000057	0.277368
N194	N	1.174109	0.499943	0.777368
C195	C	0.725673	-0.000062	0.314141
C196	C	1.225673	0.499938	0.814141
C197	C	0.617491	-0.000031	0.662324
C198	C	1.117491	0.499969	1.162324
C199	C	0.616778	-0.000035	0.721722
C200	C	1.116778	0.499965	1.221722
C201	C	0.720623	-0.000047	0.735869
C202	C	1.220623	0.499953	1.235869
C203	C	0.721335	-0.000047	0.676470
C204	C	1.221335	0.499953	1.176470
C205	C	0.669767	-0.000037	0.639698
C206	C	1.169767	0.499963	1.139698
C207	C	0.727163	-0.000075	0.189405
C208	C	1.227163	0.499925	0.689405
C209	C	0.727869	-0.000083	0.130003
C210	C	1.227869	0.499917	0.630003
C211	C	0.624025	-0.000069	0.115860
C212	C	1.124025	0.499931	0.615860
C213	C	0.623318	-0.000064	0.175257
C214	C	1.123318	0.499936	0.675257
C215	C	0.674891	-0.000065	0.212029
C216	C	1.174891	0.499935	0.712029
O217	O	0.578070	-0.000067	0.263215
O218	O	1.078070	0.499933	0.763215
O219	O	0.770196	-0.000060	0.289433
O220	O	1.270196	0.499940	0.789433
H221	H	0.378851	-0.000042	-0.170970
H222	H	0.878851	0.499958	0.329030
H223	H	0.770443	-0.000094	0.111587
H224	H	1.270443	0.499906	0.611587
C225	C	0.834032	-0.000076	0.385433
C226	C	1.334032	0.499924	0.885433
H227	H	0.827078	-0.000082	0.344790
H228	H	1.327078	0.499918	0.844790
H229	H	0.855253	0.035160	0.398077
H230	H	1.355253	0.535160	0.898077
H231	H	0.855240	-0.035322	0.398079
H232	H	1.355240	0.464678	0.898079
C233	C	0.832540	-0.000072	0.510151
C234	C	1.332540	0.499928	1.010151
H235	H	0.863770	-0.000083	0.488162
H236	H	1.363770	0.499917	0.988162
H237	H	0.834436	0.035164	0.533621
H238	H	1.334436	0.535164	1.033621
H239	H	0.834415	-0.035317	0.533613
H240	H	1.334415	0.464683	1.033613
C241	C	0.590501	-0.274274	-0.155861
C242	C	1.090501	0.225726	0.344139
H243	H	0.567297	-0.246225	-0.179034
H244	H	1.067297	0.253775	0.320966
H245	H	0.610823	-0.299105	-0.179473
H246	H	1.110823	0.200895	0.320527
H247	H	0.566919	-0.299068	-0.135461
H248	H	1.066919	0.200932	0.364539
H249	H	0.762610	-0.000048	0.765821
H250	H	1.262610	0.499952	1.265821
C251	C	0.493068	-0.000025	-0.187190
C252	C	0.993068	0.499975	0.312810
H253	H	0.462657	-0.000028	-0.217797
H254	H	0.962657	0.499972	0.282203
H255	H	0.515946	0.035215	-0.189625
H256	H	1.015946	0.535215	0.310375
H257	H	0.515944	-0.035267	-0.189631
H258	H	1.015944	0.464733	0.310369
H259	H	0.404512	-0.000058	0.017441
H260	H	0.904512	0.499942	0.517441
C261	C	0.559271	-0.000028	0.746601
C262	C	1.059271	0.499972	1.246601
H263	H	0.528666	-0.000021	0.716188
H264	H	1.028666	0.499979	1.216188
H265	H	0.556825	-0.035262	0.769481
H266	H	1.056825	0.464738	1.269481
H267	H	0.556840	0.035219	0.769473
H268	H	1.056840	0.535219	1.269473
C269	C	0.551576	-0.433282	-0.194780
C270	C	1.051576	0.066718	0.305220
H271	H	0.557147	-0.390844	-0.189208
H272	H	1.057147	0.109156	0.310792
H273	H	0.557542	-0.443710	-0.232758
H274	H	1.057542	0.056290	0.267242
H275	H	0.513603	-0.443711	-0.188781
H276	H	1.013603	0.056289	0.311219
C277	C	0.754134	-0.859420	0.007632
C278	C	1.254134	-0.359420	0.507632
H279	H	0.777332	-0.831370	0.030813
H280	H	1.277332	-0.331370	0.530813
H281	H	0.733782	-0.884235	0.031234
H282	H	1.233782	-0.384235	0.531234
H283	H	0.777725	-0.884231	-0.012739
H284	H	1.277725	-0.384231	0.487261
C285	C	-0.148414	-0.000080	0.038916
C286	C	0.351586	0.499920	0.538916
H287	H	-0.189057	-0.000076	0.031961
H288	H	0.310943	0.499924	0.531961
H289	H	-0.135771	-0.035319	0.060131
H290	H	0.364229	0.464681	0.560131
H291	H	-0.135769	0.035162	0.060133
H292	H	0.364231	0.535162	0.560133
H293	H	0.742971	-0.149765	-0.003534
H294	H	1.242971	0.350235	0.496466
H295	H	0.575496	-0.000028	0.632386
H296	H	1.075496	0.499972	1.132386
H297	H	0.206289	-0.000036	-0.220908
H298	H	0.706289	0.499964	0.279092
C299	C	0.522786	-0.000065	0.030880
C300	C	1.022786	0.499935	0.530880
H301	H	0.561400	-0.000068	0.022964
H302	H	1.061400	0.499932	0.522964
H303	H	0.515965	0.035167	0.052342
H304	H	1.015965	0.535167	0.552342
H305	H	0.515957	-0.035315	0.052320
H306	H	1.015957	0.464685	0.552320
C307	C	0.510618	-0.000004	0.466278
C308	C	1.010618	0.499996	0.966278
H309	H	0.480016	0.000007	0.435863
H310	H	0.980016	0.500007	0.935863
H311	H	0.508166	-0.035239	0.489157
H312	H	1.008166	0.464761	0.989157
H313	H	0.508189	0.035242	0.489151
H314	H	1.008189	0.535242	0.989151
H315	H	0.781929	-0.442349	0.035414
H316	H	1.281929	0.057651	0.535414
H317	H	0.601650	-0.149783	-0.144771
H318	H	1.101650	0.350217	0.355229
H319	H	0.769159	-0.000073	0.219337
H320	H	1.269159	0.499927	0.719337
C321	C	-0.053402	-0.000055	-0.180653
C322	C	0.446598	0.499945	0.319347
H323	H	-0.083814	-0.000054	-0.211258
H324	H	0.416186	0.499946	0.288742
H325	H	-0.030520	0.035182	-0.183088
H326	H	0.469480	0.535182	0.316912
H327	H	-0.030530	-0.035300	-0.183096
H328	H	0.469470	0.464700	0.316904
H329	H	0.526850	-0.000013	0.352066
H330	H	1.026850	0.499987	0.852066
C331	C	0.131911	-0.000118	0.087571
C332	C	0.631911	0.499882	0.587571
H333	H	0.162326	-0.000131	0.118173
H334	H	0.662326	0.499869	0.618173
H335	H	0.109034	0.035117	0.090024
H336	H	0.609034	0.535117	0.590024
H337	H	0.109036	-0.035365	0.089999
H338	H	0.609036	0.464635	0.589999
C339	C	0.778842	-0.000054	0.651591
C340	C	1.278842	0.499946	1.151591
H341	H	0.809447	-0.000054	0.682003
H342	H	1.309447	0.499946	1.182003
H343	H	0.781276	-0.035291	0.628711
H344	H	1.281276	0.464709	1.128711
H345	H	0.781286	0.035190	0.628717
H346	H	1.281286	0.535190	1.128717
C347	C	0.754104	-0.274232	0.007604
C348	C	1.254104	0.225768	0.507604
H349	H	0.777298	-0.246172	0.030776
H350	H	1.277298	0.253828	0.530776
H351	H	0.733760	-0.299047	0.031214
H352	H	1.233760	0.200953	0.531214
H353	H	0.777698	-0.299042	-0.012764
H354	H	1.277698	0.200958	0.487236
C355	C	0.793066	-0.566811	0.046541
C356	C	1.293066	-0.066811	0.546541
H357	H	0.816258	-0.538750	0.069713
H358	H	1.316258	-0.038750	0.569713
H359	H	0.772726	-0.591630	0.070151
H360	H	1.272726	-0.091630	0.570151
H361	H	0.816661	-0.591617	0.026170
H362	H	1.316661	-0.091617	0.526170
H363	H	0.098544	-0.000048	-0.219617
H364	H	0.598544	0.499952	0.280383
C365	C	0.565812	-0.000050	0.200144
C366	C	1.065812	0.499950	0.700144
H367	H	0.535205	-0.000043	0.169733
H368	H	1.035205	0.499957	0.669733
H369	H	0.563364	-0.035281	0.223029
H370	H	1.063364	0.464719	0.723029
H371	H	0.563386	0.035201	0.223013
H372	H	1.063386	0.535201	0.723013
C373	C	0.567307	-0.000059	0.075406
C374	C	1.067307	0.499941	0.575406
H375	H	0.536068	-0.000055	0.097383
H376	H	1.036068	0.499945	0.597383
H377	H	0.565439	0.035179	0.051940
H378	H	1.065439	0.535179	0.551940
H379	H	0.565420	-0.035302	0.051940
H380	H	1.065420	0.464698	0.551940
H381	H	-0.034198	-0.000086	0.022693
H382	H	0.465802	0.499914	0.522693
H383	H	-0.167632	-0.000060	-0.164421
H384	H	0.332368	0.499940	0.335579
H385	H	0.246123	-0.000107	0.071339
H386	H	0.746123	0.499893	0.571339
H387	H	0.743004	-0.734939	-0.003495
H388	H	1.243004	-0.234939	0.496505
H389	H	0.601692	-0.850348	-0.144738
H390	H	1.101692	-0.350348	0.355262
H391	H	0.601676	-0.734966	-0.144737
H392	H	1.101676	-0.234966	0.355263
H393	H	0.562708	-0.557755	-0.183658
H394	H	1.062708	-0.057755	0.316342
