data_functionalizedCrystal
_audit_creation_method	'MofGen! by Chris Wilmer'
_symmetry_space_group_name_H-M	'P1'
_symmetry_Int_Tables_number	1
_symmetry_cell_setting	triclinic
loop_
_symmetry_equiv_pos_as_xyz
  x,y,z
_cell_length_a	12.376735
_cell_length_b	10.654550
_cell_length_c	10.654551
_cell_angle_alpha	95.514868
_cell_angle_beta	102.574425
_cell_angle_gamma	77.447224
loop_
_atom_site_label
_atom_site_type_symbol
_atom_site_fract_x
_atom_site_fract_y
_atom_site_fract_z
O1	O	-0.094086	-1.646160	0.154685
O2	O	-0.094067	-1.280686	0.171495
O3	O	-0.094078	-1.471825	-0.019649
O4	O	-0.094076	-1.455021	0.345829
O5	O	0.093924	-1.515133	0.023733
O6	O	0.093934	-1.323994	0.214878
O7	O	0.093916	-1.689468	0.198067
Zn8	Zn	0.123774	-1.513607	0.213360
Zn9	Zn	-0.123926	-1.456547	0.156202
O10	O	0.093926	-1.498328	0.389212
C11	C	-0.000064	-1.255542	0.191953
C12	C	-0.000057	-1.116101	0.188263
N13	N	0.292823	-1.552557	0.252368
C14	C	0.351985	-1.643027	0.342894
C15	C	0.470318	-1.670321	0.370171
C16	C	0.529501	-1.607142	0.306931
C17	C	0.470339	-1.516664	0.216410
C18	C	0.351994	-1.489374	0.189124
C19	C	0.529510	-1.453489	0.153161
C20	C	0.470347	-1.363011	0.062639
C21	C	0.352014	-1.335725	0.035358
C22	C	0.292832	-1.398904	0.098598
C23	C	0.647854	-1.480780	0.180447
C24	C	0.647863	-1.327127	0.026676
C25	C	0.529530	-1.299832	-0.000600
N26	N	0.707025	-1.417596	0.117202
C27	C	-0.000079	-1.492244	-0.044757
C28	C	-0.000087	-1.488550	-0.184202
C29	C	-0.000090	-1.714611	0.177609
C30	C	-0.000104	-1.854051	0.181297
C31	C	-0.000073	-1.036612	0.300800
C32	C	-0.000093	-0.905586	0.297319
C33	C	-0.000085	-0.933551	0.068752
C34	C	-0.000057	-1.064575	0.072236
C35	C	-0.000082	-1.020465	0.432761
C36	C	-0.000102	-0.889439	0.429280
C37	C	-0.102564	-1.463212	-0.273361
C38	C	-0.102559	-1.459733	-0.404380
C39	C	0.102411	-1.506938	-0.357068
C40	C	0.102404	-1.510408	-0.226050
C41	C	-0.220902	-1.435963	-0.300678
C42	C	-0.220897	-1.432484	-0.431697
C43	C	-0.000075	-1.477909	0.414318
C44	C	-0.000075	-1.481601	0.553762
H45	H	0.625853	-1.629372	0.329145
O46	O	0.212946	-1.530538	-0.402219
H47	H	0.217855	-1.444645	-0.450340
O48	O	0.534125	-1.767903	0.467796
H49	H	0.588073	-1.720723	0.547166
H50	H	-0.081250	-1.037423	0.456050
H51	H	-0.000103	-0.891578	-0.025718
O52	O	-0.281074	-1.307135	-0.253252
H53	H	-0.354779	-1.320244	-0.216072
O54	O	0.107404	-0.853688	0.506908
H55	H	0.117460	-0.876019	0.608946
H56	H	0.196475	-1.376683	0.076396
H57	H	0.696013	-1.554447	0.254150
O58	O	0.288158	-1.711159	0.411103
H59	H	0.195932	-1.676974	0.376926
O60	O	-0.104317	-0.810134	0.471096
H61	H	-0.155330	-0.875218	0.494312
O62	O	0.288197	-1.238143	-0.062277
H63	H	0.349226	-1.198785	-0.101659
O64	O	0.465678	-1.202278	-0.098249
H65	H	0.488380	-1.107359	-0.066640
O66	O	0.711678	-1.258966	-0.041537
H67	H	0.803904	-1.293130	-0.007345
O68	O	-0.269559	-1.546076	-0.272730
H69	H	-0.204692	-1.609977	-0.205110
H70	H	-0.266337	-1.508808	-0.488474
O71	O	-0.000021	-1.150321	-0.049137
H72	H	-0.000032	-1.092474	-0.130400
H73	H	0.078601	-1.067921	0.502528
H74	H	0.185851	-1.531034	-0.153459
H75	H	-0.257621	-1.332428	-0.469739
