data_functionalizedCrystal
_audit_creation_method	'MofGen! by Chris Wilmer'
_symmetry_space_group_name_H-M	'P1'
_symmetry_Int_Tables_number	1
_symmetry_cell_setting	triclinic
loop_
_symmetry_equiv_pos_as_xyz
  x,y,z
_cell_length_a	23.532361
_cell_length_b	23.532407
_cell_length_c	22.010155
_cell_angle_alpha	89.990798
_cell_angle_beta	89.988583
_cell_angle_gamma	82.839173
loop_
_atom_site_label
_atom_site_type_symbol
_atom_site_fract_x
_atom_site_fract_y
_atom_site_fract_z
O1	O	0.755286	0.069007	-0.050470
O2	O	0.589419	0.079038	-0.050486
O3	O	0.677354	-0.008910	-0.050466
O4	O	0.667351	0.156955	-0.050490
O5	O	0.677328	-0.008910	0.050584
O6	O	0.589393	0.079038	0.050565
O7	O	0.755260	0.069007	0.050580
Cu8	Cu	0.672324	0.074023	0.059799
Cu9	Cu	0.672355	0.074023	-0.059705
O10	O	0.667324	0.156955	0.050561
C11	C	0.568189	0.078787	0.000038
C12	C	0.504971	0.078032	0.000032
C13	C	0.231741	0.074728	-0.055046
C14	C	0.291141	0.075443	-0.055048
O15	O	0.321879	0.075793	-0.101892
N16	N	0.320832	0.075804	0.000035
C17	C	0.291122	0.075445	0.055123
O18	O	0.321831	0.075817	0.101975
C19	C	0.231724	0.074726	0.055124
C20	C	0.202035	0.074370	0.000037
C21	C	0.202052	0.074372	-0.110128
C22	C	0.142657	0.073658	-0.110126
C23	C	0.112950	0.073301	-0.055043
C24	C	0.142639	0.073657	0.000039
C25	C	0.202015	0.074362	0.110211
C26	C	0.142612	0.073642	0.110207
C27	C	0.112923	0.073287	0.055121
C28	C	0.053536	0.072585	0.055125
N29	N	0.023845	0.072224	0.000042
C30	C	0.053552	0.072582	-0.055042
C31	C	0.415862	0.076954	0.055117
C32	C	0.475258	0.077677	0.055116
C33	C	0.475274	0.077674	-0.055055
C34	C	0.415876	0.076955	-0.055054
C35	C	0.386171	0.076593	0.000034
C36	C	-0.071184	0.071083	-0.055034
C37	C	-0.130585	0.070372	-0.055027
C38	C	-0.130595	0.070371	0.055144
C39	C	-0.071199	0.071086	0.055137
C40	C	-0.041495	0.071440	0.000044
O41	O	0.022761	0.072232	0.101945
O42	O	0.022836	0.072202	-0.101886
C43	C	0.677086	-0.030126	0.000060
C44	C	0.676320	-0.093343	0.000065
C45	C	0.723555	-0.492454	0.000036
C46	C	0.722844	-0.551854	0.000031
O47	O	0.766630	-0.588606	0.000013
N48	N	0.670566	-0.574471	0.000027
C49	C	0.618997	-0.537685	0.000021
O50	O	0.574465	-0.562377	0.000016
C51	C	0.619709	-0.478286	0.000021
C52	C	0.671990	-0.455672	0.000032
C53	C	0.775832	-0.469839	0.000046
C54	C	0.776543	-0.410443	0.000052
C55	C	0.724977	-0.373662	0.000048
C56	C	0.672701	-0.396276	0.000038
C57	C	0.568140	-0.441501	0.000011
C58	C	0.568857	-0.382099	0.000011
C59	C	0.621137	-0.359485	0.000021
C60	C	0.621847	-0.300099	0.000039
N61	N	0.674124	-0.277481	0.000044
C62	C	0.725690	-0.314263	0.000048
C63	C	0.617505	-0.662427	0.000019
C64	C	0.616793	-0.721825	0.000023
C65	C	0.720640	-0.735990	0.000032
C66	C	0.721352	-0.676591	0.000033
C67	C	0.669783	-0.639810	0.000024
C68	C	0.727179	-0.189526	0.000061
C69	C	0.727886	-0.130124	0.000069
C70	C	0.624039	-0.115965	0.000057
C71	C	0.623332	-0.175361	0.000051
C72	C	0.674907	-0.212141	0.000051
O73	O	0.578083	-0.263312	0.000055
O74	O	0.770214	-0.289562	0.000045
C75	C	0.776489	0.069258	0.000055
C76	C	0.839708	0.070014	0.000057
C77	C	0.667592	0.178171	0.000033
C78	C	0.668358	0.241388	0.000024
N79	N	0.672306	0.074022	0.143851
N80	N	0.672377	0.074018	-0.143757
C81	C	0.706701	0.108377	0.563629
C82	C	0.706708	0.108376	0.627237
O83	O	0.735932	0.137582	0.660127
N84	N	0.672366	0.074016	0.659059
C85	C	0.638020	0.039651	0.627269
O86	O	0.608810	0.010425	0.660177
C87	C	0.638016	0.039650	0.563663
C88	C	0.672356	0.074016	0.531845
C89	C	0.741039	0.142741	0.531811
C90	C	0.741031	0.142743	0.468208
C91	C	0.706686	0.108382	0.436423
C92	C	0.672348	0.074018	0.468241
C93	C	0.603673	0.005282	0.531875
C94	C	0.603673	0.005284	0.468264
C95	C	0.638013	0.039650	0.436446
C96	C	0.637996	0.039659	0.372853
N97	N	0.672338	0.074019	0.341032
C98	C	0.706683	0.108380	0.372816
C99	C	0.638030	0.039656	0.760847
C100	C	0.638030	0.039659	0.824452
C101	C	0.706719	0.108384	0.824416
C102	C	0.706716	0.108382	0.760809
C103	C	0.672372	0.074015	0.729025
C104	C	0.706664	0.108383	0.239245
C105	C	0.706651	0.108383	0.175636
C106	C	0.637964	0.039657	0.175679
C107	C	0.637974	0.039658	0.239282
C108	C	0.672329	0.074023	0.271064
O109	O	0.608789	0.010466	0.339923
O110	O	0.735893	0.137596	0.339901
H111	H	0.499472	0.077965	-0.099907
H112	H	0.768996	0.170725	0.442307
H113	H	0.769176	-0.219466	0.000058
H114	H	0.575509	-0.632483	0.000017
C115	C	-0.163281	0.069975	0.115733
C116	C	-0.210875	0.118940	0.130874
C117	C	-0.243563	0.118538	0.191463
C118	C	-0.228657	0.069173	0.236910
C119	C	-0.181060	0.020204	0.221770
C120	C	-0.148373	0.020605	0.161181
H121	H	-0.221912	0.155487	0.097229
H122	H	-0.278797	0.154788	0.202670
H123	H	-0.252854	0.068875	0.281762
H124	H	-0.170024	-0.016343	0.255415
H125	H	-0.113139	-0.015644	0.149974
H126	H	0.770461	-0.111716	0.000079
C127	C	0.778822	0.180544	0.566765
C128	C	0.844253	0.171812	0.557991
C129	C	0.882036	0.209623	0.592938
C130	C	0.854386	0.256166	0.636659
C131	C	0.788951	0.264900	0.645435
C132	C	0.751169	0.227089	0.610487
H133	H	0.864724	0.137357	0.525625
H134	H	0.930475	0.203157	0.586442
H135	H	0.882355	0.284155	0.662529
H136	H	0.768480	0.299355	0.677801
H137	H	0.702729	0.233555	0.616984
C138	C	0.110003	0.073259	-0.170722
C139	C	0.062419	0.122224	-0.185890
C140	C	0.029769	0.121822	-0.246489
C141	C	0.044704	0.072455	-0.291918
C142	C	0.092290	0.023486	-0.276751
C143	C	0.124940	0.023889	-0.216152
H144	H	0.051361	0.158772	-0.152259
H145	H	-0.005458	0.158072	-0.257716
H146	H	0.020534	0.072157	-0.336777
H147	H	0.103347	-0.013061	-0.310382
H148	H	0.160166	-0.012361	-0.204925
C149	C	0.744448	0.146188	0.274197
C150	C	0.716797	0.192726	0.317922
C151	C	0.754577	0.230536	0.352874
C152	C	0.820009	0.221807	0.344101
C153	C	0.847664	0.175267	0.300374
C154	C	0.809884	0.137458	0.265422
H155	H	0.668358	0.199189	0.324419
H156	H	0.734105	0.264988	0.385243
H157	H	0.847976	0.249796	0.369974
H158	H	0.896103	0.168804	0.293877
H159	H	0.830356	0.103006	0.233053
C160	C	0.234673	0.074741	0.170802
C161	C	0.282254	0.025764	0.185942
C162	C	0.314917	0.026139	0.246535
C163	C	0.299999	0.075489	0.291987
C164	C	0.252416	0.124470	0.276849
C165	C	0.219753	0.124095	0.216256
H166	H	0.293300	-0.010771	0.152294
H167	H	0.350142	-0.010120	0.257741
H168	H	0.324178	0.075766	0.336841
H169	H	0.241370	0.161005	0.310496
H170	H	0.184528	0.160354	0.205050
H171	H	0.610057	0.011672	0.734973
H172	H	0.817825	-0.499782	0.000047
H173	H	0.226234	0.074662	-0.154986
C174	C	0.834055	-0.385575	0.000051
C175	C	0.876785	-0.399602	0.052521
C176	C	0.934300	-0.374741	0.052516
C177	C	0.949085	-0.335852	0.000041
C178	C	0.906354	-0.321823	-0.052433
C179	C	0.848838	-0.346685	-0.052427
H180	H	0.865841	-0.428392	0.091369
H181	H	0.965933	-0.385126	0.091361
H182	H	0.991662	-0.317448	0.000037
H183	H	0.917298	-0.293034	-0.091281
H184	H	0.817206	-0.336300	-0.091272
H185	H	0.734615	0.136371	0.149732
C186	C	0.559282	-0.746695	0.000020
C187	C	0.544494	-0.785588	0.052490
C188	C	0.486981	-0.810455	0.052484
C189	C	0.444257	-0.796429	0.000008
C190	C	0.459044	-0.757534	-0.052465
C191	C	0.516557	-0.732667	-0.052459
H192	H	0.576121	-0.795973	0.091339
H193	H	0.476034	-0.839247	0.091328
H194	H	0.401682	-0.814837	0.000004
H195	H	0.427416	-0.747150	-0.091314
H196	H	0.527503	-0.703875	-0.091304
H197	H	0.610060	0.011682	0.850354
H198	H	0.118429	0.073352	0.155067
C199	C	0.510627	-0.466361	-0.000004
C200	C	0.467871	-0.452345	0.052458
C201	C	0.410353	-0.477202	0.052441
C202	C	0.395591	-0.516075	-0.000038
C203	C	0.438348	-0.530093	-0.052504
C204	C	0.495866	-0.505236	-0.052487
H205	H	0.478798	-0.423568	0.091310
H206	H	0.378701	-0.466825	0.091281
H207	H	0.353012	-0.534475	-0.000050
H208	H	0.427421	-0.558870	-0.091356
H209	H	0.527517	-0.515613	-0.091327
C210	C	0.744509	0.146173	0.859387
C211	C	0.744517	0.146162	0.929351
C212	C	0.782307	0.183947	0.964324
C213	C	0.820089	0.221743	0.929332
C214	C	0.820083	0.221755	0.859364
C215	C	0.782293	0.183970	0.824391
H216	H	0.716548	0.118183	0.955258
H217	H	0.782312	0.183938	1.016119
H218	H	0.848064	0.249713	0.955221
H219	H	0.848052	0.249734	0.833457
H220	H	0.782288	0.183979	0.772595
H221	H	0.391707	0.076666	-0.099910
H222	H	0.575711	-0.022703	0.557771
C223	C	-0.038531	0.071501	0.115725
C224	C	-0.053455	0.120878	0.161145
C225	C	-0.020788	0.121296	0.221731
C226	C	0.026804	0.072338	0.236897
C227	C	0.041730	0.022957	0.191476
C228	C	0.009063	0.022539	0.130890
H229	H	-0.088688	0.157123	0.149920
H230	H	-0.031838	0.157851	0.255355
H231	H	0.050986	0.072648	0.281746
H232	H	0.076962	-0.013288	0.202701
H233	H	0.020112	-0.014016	0.097266
H234	H	0.499425	0.077975	0.099973
C235	C	0.565892	-0.032520	0.433303
C236	C	0.574664	-0.097953	0.442059
C237	C	0.536882	-0.135755	0.407099
C238	C	0.490329	-0.108125	0.363382
C239	C	0.481556	-0.042689	0.354623
C240	C	0.519337	-0.004886	0.389584
H241	H	0.609127	-0.118410	0.474423
H242	H	0.543377	-0.184196	0.413583
H243	H	0.462361	-0.136108	0.337502
H244	H	0.447093	-0.022232	0.322260
H245	H	0.512843	0.043554	0.383100
C246	C	0.512128	-0.341640	0.000003
C247	C	0.469211	-0.343957	-0.052477
C248	C	0.412484	-0.303499	-0.052484
C249	C	0.398674	-0.260724	-0.000011
C250	C	0.441592	-0.258406	0.052473
C251	C	0.498319	-0.298863	0.052480
H252	H	0.479433	-0.375623	-0.091324
H253	H	0.380713	-0.305216	-0.091336
H254	H	0.356681	-0.230775	-0.000016
H255	H	0.431370	-0.226740	0.091320
H256	H	0.530090	-0.297147	0.091332
H257	H	0.610005	0.011682	0.265190
H258	H	0.580761	-0.193774	0.000060
C259	C	0.778861	-0.651718	0.000039
C260	C	0.821584	-0.665740	0.052516
C261	C	0.879096	-0.640871	0.052521
C262	C	0.893884	-0.601981	0.000049
C263	C	0.851160	-0.587957	-0.052432
C264	C	0.793648	-0.612826	-0.052437
H265	H	0.810638	-0.694530	0.091362
H266	H	0.910724	-0.651252	0.091371
H267	H	0.936458	-0.583571	0.000052
H268	H	0.862106	-0.559167	-0.091279
H269	H	0.762020	-0.602445	-0.091287
H270	H	-0.047006	0.071372	-0.099896
C271	C	0.567320	-0.075497	0.000049
C272	C	0.553555	-0.032706	-0.052427
C273	C	0.496836	0.007764	-0.052439
C274	C	0.453882	0.005444	0.000024
C275	C	0.467645	-0.037348	0.052504
C276	C	0.524365	-0.077819	0.052516
H277	H	0.585353	-0.030987	-0.091267
H278	H	0.486647	0.039442	-0.091289
H279	H	0.411895	0.035402	0.000014
H280	H	0.435847	-0.039068	0.091344
H281	H	0.534553	-0.109496	0.091366
H282	H	0.762627	-0.765949	0.000033
H283	H	0.734678	0.136367	0.734907
H284	H	-0.154756	0.070084	-0.099887
H285	H	0.391679	0.076666	0.099978
H286	H	0.610000	0.011683	0.149788
