data_functionalizedCrystal
_audit_creation_method	'MofGen! by Chris Wilmer'
_symmetry_space_group_name_H-M	'P1'
_symmetry_Int_Tables_number	1
_symmetry_cell_setting	triclinic
loop_
_symmetry_equiv_pos_as_xyz
  x,y,z
_cell_length_a	21.395364
_cell_length_b	14.908178
_cell_length_c	21.395355
_cell_angle_alpha	93.314561
_cell_angle_beta	90.024516
_cell_angle_gamma	93.309658
loop_
_atom_site_label
_atom_site_type_symbol
_atom_site_fract_x
_atom_site_fract_y
_atom_site_fract_z
Zn1	Zn	0.943511	-0.359388	0.339857
Zn2	Zn	1.443511	0.140612	0.839857
Zn3	Zn	0.937391	-0.510238	0.229033
Zn4	Zn	1.437391	-0.010238	0.729033
Zn5	Zn	0.838726	-0.359377	0.235094
Zn6	Zn	1.338726	0.140623	0.735094
Zn7	Zn	0.832674	-0.510203	0.333775
Zn8	Zn	1.332674	-0.010203	0.833775
O9	O	0.888075	-0.434801	0.284440
O10	O	1.388075	0.065199	0.784440
O11	O	1.030376	-0.379417	0.325164
O12	O	1.530376	0.120583	0.825164
O13	O	0.924274	-0.490235	0.142159
O14	O	1.424274	0.009765	0.642159
O15	O	0.857720	-0.233126	0.254073
O16	O	1.357720	0.266874	0.754073
O17	O	1.025880	-0.490246	0.243743
O18	O	1.525880	0.009754	0.743743
O19	O	0.934705	-0.233134	0.331041
O20	O	1.434705	0.266866	0.831041
O21	O	0.851786	-0.379399	0.146612
O22	O	1.351786	0.120601	0.646612
O23	O	0.750246	-0.379365	0.248175
O24	O	1.250246	0.120635	0.748175
O25	O	0.847405	-0.490187	0.422260
O26	O	1.347405	0.009813	0.922260
O27	O	0.745800	-0.490177	0.320676
O28	O	1.245800	0.009823	0.820676
O29	O	0.928836	-0.379384	0.426728
O30	O	1.428836	0.120616	0.926728
O31	O	0.918406	-0.636486	0.237846
O32	O	1.418406	-0.136486	0.737846
O33	O	0.841471	-0.636460	0.314799
O34	O	1.341471	-0.136460	0.814799
C35	C	0.725289	-0.434767	0.284423
C36	C	1.225289	0.065233	0.784423
C37	C	0.655648	-0.434774	0.284431
C38	C	1.155648	0.065226	0.784431
C39	C	0.156186	-0.377229	0.326904
C40	C	0.656186	0.122771	0.826904
C41	C	0.221621	-0.377222	0.326905
C42	C	0.721621	0.122778	0.826905
C43	C	0.252007	-0.434829	0.284453
C44	C	0.752007	0.065171	0.784453
C45	C	0.216951	-0.492463	0.242008
C46	C	0.716951	0.007537	0.742008
C47	C	0.151517	-0.492474	0.242013
C48	C	0.651517	0.007526	0.742013
C49	C	0.355365	-0.441815	0.227705
C50	C	0.855365	0.058185	0.727705
C51	C	0.420798	-0.441797	0.227699
C52	C	0.920798	0.058203	0.727699
C53	C	0.453829	-0.434799	0.284436
C54	C	0.953829	0.065201	0.784436
C55	C	0.421419	-0.427799	0.341182
C56	C	0.921419	0.072201	0.841182
C57	C	0.355984	-0.427811	0.341187
C58	C	0.855984	0.072189	0.841187
C59	C	0.322960	-0.434823	0.284442
C60	C	0.822960	0.065177	0.784442
C61	C	0.559830	-0.377166	0.326881
C62	C	1.059830	0.122834	0.826881
C63	C	0.625266	-0.377165	0.326882
C64	C	1.125266	0.122835	0.826882
C65	C	0.620595	-0.492401	0.241980
C66	C	1.120595	0.007599	0.741980
C67	C	0.555160	-0.492406	0.241985
C68	C	1.055160	0.007594	0.741985
C69	C	0.524781	-0.434784	0.284435
C70	C	1.024781	0.065216	0.784435
C71	C	0.878634	-0.669209	0.275018
C72	C	1.378634	-0.169209	0.775018
C73	C	0.874653	-0.769489	0.271009
C74	C	1.374653	-0.269489	0.771009
C75	C	0.947274	-0.957786	0.343708
C76	C	1.447274	-0.457786	0.843708
C77	C	0.943535	-1.052008	0.339943
C78	C	1.443535	-0.552008	0.839943
C79	C	0.863433	-1.052159	0.259717
C80	C	1.363433	-0.552159	0.759717
C81	C	0.867172	-0.957936	0.263482
C82	C	1.367172	-0.457936	0.763482
C83	C	0.909095	-0.910753	0.305478
C84	C	1.409095	-0.410753	0.805478
C85	C	0.912836	-0.816529	0.309240
C86	C	1.412836	-0.316529	0.809240
C87	C	0.832731	-0.816681	0.229017
C88	C	1.332731	-0.316681	0.729017
C89	C	0.828992	-0.910903	0.225252
C90	C	1.328992	-0.410903	0.725252
C91	C	1.051497	-0.434837	0.284456
C92	C	1.551497	0.065163	0.784456
C93	C	1.121138	-0.434852	0.284463
C94	C	1.621138	0.065148	0.784463
C95	C	0.888128	-0.434783	0.447864
C96	C	1.388128	0.065217	0.947864
C97	C	0.888151	-0.434775	0.517505
C98	C	1.388151	0.065225	1.017505
C99	C	0.897571	-0.199478	0.293911
C100	C	1.397571	0.300522	0.793911
C101	C	0.901617	-0.099198	0.297948
C102	C	1.401617	0.400802	0.797948
C103	C	0.888062	-0.434754	0.121654
C104	C	1.388062	0.065246	0.621654
C105	C	0.888171	-0.434508	0.052023
C106	C	1.388171	0.065492	0.552023
C107	C	0.930550	-0.377077	0.552546
C108	C	1.430550	0.122923	1.052546
C109	C	0.930551	-0.377039	0.617983
C110	C	1.430551	0.122961	1.117983
C111	C	0.888158	-0.434714	0.648376
C112	C	1.388158	0.065286	1.148376
C113	C	0.845750	-0.492416	0.613327
C114	C	1.345750	0.007584	1.113327
C115	C	0.845747	-0.492446	0.547892
C116	C	1.345747	0.007554	1.047892
C117	C	0.879939	-0.515949	0.748786
C118	C	1.379939	-0.015949	1.248786
C119	C	0.879947	-0.515920	0.814220
C120	C	1.379947	-0.015920	1.314220
C121	C	0.888166	-0.434618	0.850201
C122	C	1.388166	0.065382	1.350201
C123	C	0.896390	-0.353344	0.820740
C124	C	1.396390	0.146656	1.320740
C125	C	0.896386	-0.353375	0.755304
C126	C	1.396386	0.146625	1.255304
C127	C	0.888157	-0.434686	0.719330
C128	C	1.388157	0.065314	1.219330
C129	C	0.930569	-0.376874	0.956196
C130	C	1.430569	0.123126	1.456196
C131	C	0.930565	-0.376833	1.021634
C132	C	1.430565	0.123167	1.521634
C133	C	0.845767	-0.492218	1.016977
C134	C	1.345767	0.007782	1.516977
C135	C	0.845768	-0.492251	0.951540
C136	C	1.345768	0.007749	1.451540
C137	C	0.888172	-0.434580	0.921154
C138	C	1.388172	0.065420	1.421154
H139	H	0.448311	-0.422095	0.387383
H140	H	0.948311	0.077905	0.887383
H141	H	0.965078	-0.330116	0.527810
H142	H	1.465078	0.169884	1.027810
C143	C	0.817396	-1.104076	0.213451
C144	C	1.317396	-0.604076	0.713451
N145	N	0.782749	-1.143182	0.178574
N146	N	1.282749	-0.643182	0.678574
C147	C	0.319037	-0.449516	0.165286
C148	C	0.819037	0.050484	0.665286
N149	N	0.291677	-0.455317	0.118273
N150	N	0.791677	0.044683	0.618273
C151	C	0.790731	-0.764937	0.186962
C152	C	1.290731	-0.264937	0.686962
N153	N	0.759099	-0.725963	0.155285
N154	N	1.259099	-0.225963	0.655285
C155	C	0.993391	-0.905882	0.389902
C156	C	1.493391	-0.405882	0.889902
N157	N	1.028126	-0.866790	0.424697
N158	N	1.528126	-0.366790	0.924697
C159	C	0.320336	-0.420101	0.403606
C160	C	0.820336	0.079899	0.903606
N161	N	0.293486	-0.414291	0.450621
N162	N	0.793486	0.085709	0.950621
H163	H	0.535094	-0.330246	0.361447
H164	H	1.035094	0.169754	0.861447
C165	C	0.663819	-0.313770	0.373573
C166	C	1.163819	0.186230	0.873573
N167	N	0.692858	-0.266018	0.408739
N168	N	1.192858	0.233982	0.908739
H169	H	0.974622	-1.090299	0.371076
H170	H	1.474622	-0.590299	0.871076
C171	C	0.782919	-0.962815	0.179019
C172	C	1.282919	-0.462815	0.679019
N173	N	0.748232	-1.001915	0.144180
N174	N	1.248232	-0.501915	0.644180
H175	H	0.965093	-0.329909	0.931454
H176	H	1.465093	0.170091	1.431454
C177	C	0.516606	-0.555784	0.195287
C178	C	1.016606	-0.055784	0.695287
N179	N	0.487568	-0.603522	0.160111
N180	N	0.987568	-0.103522	0.660111
H181	H	0.965077	-0.330049	0.646519
H182	H	1.465077	0.169951	1.146519
C183	C	0.905424	-0.263974	0.722899
C184	C	1.405424	0.236026	1.222899
N185	N	0.912227	-0.196635	0.698492
N186	N	1.412227	0.303365	1.198492
H187	H	0.903083	-0.287141	0.850034
H188	H	1.403083	0.212859	1.350034
C189	C	0.250377	-0.555827	0.195308
C190	C	0.750377	-0.055827	0.695308
N191	N	0.275553	-0.603555	0.160133
N192	N	0.775553	-0.103555	0.660133
H193	H	0.965091	-0.329844	1.050164
H194	H	1.465091	0.170156	1.550164
C195	C	0.112963	-0.555859	0.195317
C196	C	0.612963	-0.055859	0.695317
N197	N	0.083924	-0.603598	0.160143
N198	N	0.583924	-0.103598	0.660143
C199	C	0.799134	-0.555663	1.050405
C200	C	1.299134	-0.055663	1.550405
N201	N	0.764009	-0.603450	1.075587
N202	N	1.264009	-0.103450	1.575587
H203	H	0.811245	-0.539240	0.923009
H204	H	1.311245	-0.039240	1.423009
H205	H	0.873254	-0.582099	0.838202
H206	H	1.373254	-0.082099	1.338202
C207	C	0.870909	-0.605394	0.709213
C208	C	1.370909	-0.105394	1.209213
N209	N	0.864112	-0.672763	0.679407
N210	N	1.364112	-0.172763	1.179407
C211	C	0.654016	-0.555771	0.195283
C212	C	1.154016	-0.055771	0.695283
N213	N	0.679191	-0.603505	0.160111
N214	N	1.179191	-0.103505	0.660111
C215	C	0.799115	-0.555854	0.646761
C216	C	1.299115	-0.055854	1.146761
N217	N	0.763986	-0.603635	0.671943
N218	N	1.263986	-0.103635	1.171943
C219	C	0.958951	-0.764629	0.355437
C220	C	1.458951	-0.264629	0.855437
N221	N	0.993685	-0.725540	0.390235
N222	N	1.493685	-0.225540	0.890235
C223	C	0.799103	-0.555923	0.509345
C224	C	1.299103	-0.055923	1.009345
N225	N	0.763971	-0.603737	0.480311
N226	N	1.263971	-0.103737	0.980311
H227	H	0.131455	-0.330312	0.361473
H228	H	0.631455	0.169688	0.861473
C229	C	0.260181	-0.313826	0.373592
C230	C	0.760181	0.186174	0.873592
N231	N	0.289223	-0.266073	0.408756
N232	N	0.789223	0.233927	0.908756
C233	C	0.456444	-0.449494	0.165278
C234	C	0.956444	0.050506	0.665278
N235	N	0.483290	-0.455291	0.118261
N236	N	0.983290	0.044709	0.618261
