data_functionalizedCrystal
_audit_creation_method	'MofGen! by Chris Wilmer'
_symmetry_space_group_name_H-M	'P1'
_symmetry_Int_Tables_number	1
_symmetry_cell_setting	triclinic
loop_
_symmetry_equiv_pos_as_xyz
  x,y,z
_cell_length_a	14.519709
_cell_length_b	14.519731
_cell_length_c	13.596369
_cell_angle_alpha	89.998627
_cell_angle_beta	89.999684
_cell_angle_gamma	83.684499
loop_
_atom_site_label
_atom_site_type_symbol
_atom_site_fract_x
_atom_site_fract_y
_atom_site_fract_z
O1	O	1.223879	0.120884	-0.081666
O2	O	1.723879	0.620884	0.418334
O3	O	0.955404	0.135120	-0.081696
O4	O	1.455404	0.635120	0.418304
O5	O	1.096749	-0.006235	-0.081671
O6	O	1.596749	0.493765	0.418329
O7	O	1.082533	0.262239	-0.081690
O8	O	1.582533	0.762239	0.418310
O9	O	1.096732	-0.006227	0.081912
O10	O	1.596732	0.493773	0.581912
O11	O	0.955386	0.135128	0.081887
O12	O	1.455386	0.635128	0.581887
O13	O	1.223862	0.120892	0.081917
O14	O	1.723862	0.620892	0.581917
Zn15	Zn	1.089621	0.128011	0.107874
Zn16	Zn	1.589621	0.628011	0.607874
Zn17	Zn	1.089644	0.128001	-0.107653
Zn18	Zn	1.589644	0.628001	0.392347
O19	O	1.082516	0.262247	0.081892
O20	O	1.582516	0.762247	0.581892
C21	C	0.921035	0.134461	0.000092
C22	C	1.421035	0.634461	0.500092
C23	C	0.818654	0.132473	0.000080
C24	C	1.318654	0.632473	0.500080
C25	C	0.443757	0.125153	0.000126
C26	C	0.943757	0.625153	0.500126
C27	C	0.548065	0.127186	0.000113
C28	C	1.048065	0.627186	0.500113
C29	C	0.631202	0.128813	0.000102
C30	C	1.131202	0.628813	0.500102
C31	C	0.735517	0.130846	0.000091
C32	C	1.235517	0.630846	0.500091
C33	C	1.096075	-0.040591	0.000121
C34	C	1.596075	0.459409	0.500121
C35	C	1.094079	-0.142971	0.000121
C36	C	1.594079	0.357029	0.500121
C37	C	1.092457	-0.226115	0.000119
C38	C	1.592457	0.273885	0.500119
C39	C	1.090430	-0.330424	0.000111
C40	C	1.590430	0.169576	0.500111
C41	C	1.088822	-0.413563	0.000104
C42	C	1.588822	0.086437	0.500104
C43	C	1.086795	-0.517878	0.000098
C44	C	1.586795	-0.017878	0.500098
C45	C	1.258230	0.121551	0.000128
C46	C	1.758230	0.621551	0.500128
C47	C	1.360612	0.123539	0.000132
C48	C	1.860612	0.623539	0.500132
C49	C	1.083191	0.296603	0.000099
C50	C	1.583191	0.796603	0.500099
C51	C	1.085187	0.398983	0.000092
C52	C	1.585187	0.898983	0.500092
N53	N	1.089612	0.128018	0.254966
N54	N	1.589612	0.628018	0.754966
N55	N	1.089660	0.127987	-0.254745
N56	N	1.589660	0.627987	0.245255
C57	C	1.089617	0.128020	0.343964
C58	C	1.589617	0.628020	0.843964
C59	C	1.089626	0.128013	0.455616
C60	C	1.589626	0.628013	0.955616
C61	C	1.089638	0.128003	0.544606
C62	C	1.589638	0.628003	1.044606
C63	C	1.089648	0.127997	0.656265
C64	C	1.589648	0.627997	1.156265
