data_functionalizedCrystal
_audit_creation_method	'MofGen! by Chris Wilmer'
_symmetry_space_group_name_H-M	'P1'
_symmetry_Int_Tables_number	1
_symmetry_cell_setting	triclinic
loop_
_symmetry_equiv_pos_as_xyz
  x,y,z
_cell_length_a	16.959455
_cell_length_b	13.897447
_cell_length_c	16.959447
_cell_angle_alpha	90.028096
_cell_angle_beta	90.014322
_cell_angle_gamma	90.016477
loop_
_atom_site_label
_atom_site_type_symbol
_atom_site_fract_x
_atom_site_fract_y
_atom_site_fract_z
Zn1	Zn	1.208387	-0.384074	0.446921
Zn2	Zn	1.208311	-0.545393	0.314747
Zn3	Zn	1.076215	-0.384105	0.314758
Zn4	Zn	1.076181	-0.545321	0.446886
O5	O	1.142273	-0.464723	0.380828
O6	O	1.318988	-0.405491	0.429398
O7	O	1.190770	-0.524040	0.204138
O8	O	1.093794	-0.249119	0.332309
O9	O	1.318931	-0.524011	0.332291
O10	O	1.190900	-0.249097	0.429408
O11	O	1.093720	-0.405543	0.204146
O12	O	0.965600	-0.405473	0.332275
O13	O	1.093736	-0.523888	0.557502
O14	O	0.965575	-0.523917	0.429349
O15	O	1.190867	-0.405421	0.557527
O16	O	1.190737	-0.680365	0.332257
O17	O	1.093662	-0.680312	0.429338
C18	C	0.936907	-0.464691	0.380810
C19	C	0.849051	-0.464701	0.380821
C20	C	0.477564	-0.402998	0.330388
C21	C	0.477586	-0.526527	0.431314
C22	C	0.560132	-0.526513	0.431309
C23	C	0.601398	-0.464742	0.380842
C24	C	0.560117	-0.402985	0.330379
C25	C	0.601419	-0.588276	0.481765
C26	C	0.683970	-0.588266	0.481762
C27	C	0.725237	-0.526489	0.431298
C28	C	0.683951	-0.464728	0.380834
C29	C	0.725217	-0.402957	0.330367
C30	C	0.683932	-0.341191	0.279906
C31	C	0.601384	-0.341208	0.279916
C32	C	0.807785	-0.526472	0.431288
C33	C	0.807770	-0.402944	0.330359
C34	C	1.142209	-0.715337	0.380810
C35	C	1.142254	-0.822551	0.380828
C36	C	1.142292	-0.909621	0.380846
C37	C	1.142348	-1.018854	0.380867
C38	C	1.348442	-0.464756	0.380847
C39	C	1.436298	-0.464770	0.380855
C40	C	1.142306	-0.464643	0.586997
C41	C	1.142320	-0.464609	0.674853
C42	C	1.142359	-0.213130	0.380864
C43	C	1.142396	-0.105916	0.380879
C44	C	1.142286	-0.464733	0.175462
C45	C	1.142425	-0.464495	0.087606
C46	C	1.091843	-0.526188	1.046318
C47	C	1.192986	-0.402827	1.046340
C48	C	1.192965	-0.402848	0.963794
C49	C	1.142383	-0.464540	0.922506
C50	C	1.091822	-0.526212	0.963765
C51	C	1.243531	-0.341184	0.922529
C52	C	1.243513	-0.341203	0.839978
C53	C	1.192926	-0.402891	0.798689
C54	C	1.142362	-0.464564	0.839953
C55	C	1.091780	-0.526257	0.798665
C56	C	1.041212	-0.587926	0.839927
C57	C	1.041235	-0.587900	0.922475
C58	C	1.192902	-0.402917	0.716141
C59	C	1.091759	-0.526281	0.716111
H60	H	0.567815	-0.638574	0.522847
H61	H	0.717541	-0.290901	0.238812
C62	C	1.298361	-0.274328	0.795041
C63	C	1.287522	-0.287554	0.713911
C64	C	1.338031	-0.225964	0.672489
H65	H	1.286851	-0.209482	0.808501
H66	H	1.351492	-0.288439	0.808509
H67	H	1.234402	-0.273437	0.700448
H68	H	1.299037	-0.352388	0.700428
H69	H	1.391162	-0.240075	0.685957
H70	H	1.326518	-0.161122	0.685955
H71	H	1.330689	-0.234936	0.617439
H72	H	0.443983	-0.576824	0.472398
H73	H	1.050669	-0.576395	1.079917
C74	C	1.298531	-0.274170	0.967212
C75	C	1.342826	-0.220188	0.913412
C76	C	1.393508	-0.158450	0.954549
H77	H	1.268403	-0.232042	0.999423
H78	H	1.333006	-0.311044	0.999394
H79	H	1.308355	-0.183317	0.881244
H80	H	1.372971	-0.262291	0.881199
H81	H	1.427983	-0.195324	0.986730
H82	H	1.363373	-0.116328	0.986758
H83	H	1.423573	-0.121822	0.918051
C84	C	0.556419	-0.274252	0.225169
C85	C	0.475294	-0.287503	0.235966
C86	C	0.433845	-0.225847	0.185544
H87	H	0.569864	-0.209420	0.236785
H88	H	0.569877	-0.288285	0.172019
H89	H	0.461841	-0.273463	0.289105
H90	H	0.461825	-0.352322	0.224345
H91	H	0.447304	-0.239880	0.132394
H92	H	0.447297	-0.161019	0.197164
H93	H	0.378798	-0.234836	0.192858
C94	C	0.728745	-0.655197	0.536684
C95	C	0.708703	-0.634294	0.614920
C96	C	0.749943	-0.695920	0.665539
H97	H	0.715241	-0.720028	0.525132
H98	H	0.783827	-0.646335	0.529510
H99	H	0.653634	-0.643164	0.622090
H100	H	0.722209	-0.569474	0.626496
H101	H	0.805024	-0.687057	0.658365
H102	H	0.736435	-0.760747	0.653980
H103	H	0.736355	-0.681739	0.718627
C104	C	0.852427	-0.335841	0.275475
C105	C	0.798602	-0.281775	0.231276
C106	C	0.839711	-0.219961	0.180701
H107	H	0.884652	-0.293769	0.305677
H108	H	0.884592	-0.372664	0.240935
H109	H	0.766451	-0.244955	0.265811
H110	H	0.766375	-0.323822	0.201058
H111	H	0.871875	-0.256784	0.146161
H112	H	0.871934	-0.177896	0.210909
H113	H	0.803197	-0.183277	0.150701
C114	C	0.852567	-0.593404	0.486199
C115	C	0.832530	-0.572512	0.564439
C116	C	0.873775	-0.634143	0.615049
H117	H	0.839064	-0.658234	0.474643
H118	H	0.907648	-0.584539	0.479022
H119	H	0.777462	-0.581385	0.571613
H120	H	0.846036	-0.507693	0.576020
H121	H	0.928856	-0.625277	0.607872
H122	H	0.860268	-0.698969	0.603485
H123	H	0.860191	-0.619970	0.668140
C124	C	0.986429	-0.654963	0.794989
C125	C	1.031163	-0.716786	0.747576
C126	C	0.980728	-0.778542	0.706155
H127	H	0.956294	-0.691783	0.831286
H128	H	0.952013	-0.618092	0.762743
H129	H	1.065565	-0.753654	0.779820
H130	H	1.061296	-0.679992	0.711265
H131	H	0.946312	-0.741671	0.673909
H132	H	0.950595	-0.815356	0.742458
H133	H	1.011072	-0.820491	0.673976
C134	C	1.036970	-0.593320	0.671184
C135	C	1.081695	-0.655151	0.623769
C136	C	1.031252	-0.716911	0.582362
H137	H	1.006840	-0.630135	0.707488
H138	H	1.002550	-0.556452	0.638940
H139	H	1.116101	-0.692016	0.656010
H140	H	1.111823	-0.618363	0.587450
H141	H	0.996831	-0.680043	0.550118
H142	H	1.001124	-0.753720	0.618672
H143	H	1.061589	-0.758865	0.550181
H144	H	1.234077	-0.352709	0.682549
H145	H	0.443946	-0.352707	0.289306
H146	H	1.234172	-0.352606	1.079961
C147	C	0.986425	-0.654816	0.967417
C148	C	0.997288	-0.641609	1.048546
C149	C	0.946820	-0.703243	1.089973
H150	H	0.933285	-0.640755	0.953990
H151	H	0.997973	-0.719654	0.953921
H152	H	0.985734	-0.576786	1.062036
H153	H	1.050418	-0.655676	1.061996
H154	H	0.958368	-0.768081	1.076477
H155	H	0.893683	-0.689177	1.076540
H156	H	0.954188	-0.694297	1.145023
