data_functionalizedCrystal
_audit_creation_method	'MofGen! by Chris Wilmer'
_symmetry_space_group_name_H-M	'P1'
_symmetry_Int_Tables_number	1
_symmetry_cell_setting	triclinic
loop_
_symmetry_equiv_pos_as_xyz
  x,y,z
_cell_length_a	14.853567
_cell_length_b	16.109301
_cell_length_c	15.186229
_cell_angle_alpha	89.994833
_cell_angle_beta	90.000997
_cell_angle_gamma	96.451794
loop_
_atom_site_label
_atom_site_type_symbol
_atom_site_fract_x
_atom_site_fract_y
_atom_site_fract_z
O1	O	1.196184	-0.108546	0.073183
O2	O	1.529517	0.224787	0.406517
O3	O	1.862851	0.558120	0.739850
O4	O	0.933703	-0.121477	0.073196
O5	O	1.267037	0.211856	0.406529
O6	O	1.600370	0.545190	0.739863
O7	O	1.072154	0.006009	0.073180
O8	O	1.405488	0.339342	0.406514
O9	O	1.738821	0.672676	0.739847
O10	O	1.057733	-0.236033	0.073199
O11	O	1.391066	0.097301	0.406532
O12	O	1.724400	0.430634	0.739866
O13	O	1.072145	0.006011	-0.073277
O14	O	1.405478	0.339344	0.260056
O15	O	1.738812	0.672678	0.593390
O16	O	0.933694	-0.121475	-0.073261
O17	O	1.267027	0.211858	0.260072
O18	O	1.600361	0.545191	0.593405
O19	O	1.196175	-0.108545	-0.073274
O20	O	1.529508	0.224789	0.260059
O21	O	1.862842	0.558122	0.593393
Zn22	Zn	1.064933	-0.115010	-0.096521
Zn23	Zn	1.398266	0.218324	0.236812
Zn24	Zn	1.731600	0.551657	0.570146
Zn25	Zn	1.064945	-0.115012	0.096443
Zn26	Zn	1.398278	0.218321	0.429776
Zn27	Zn	1.731612	0.551655	0.763109
O28	O	1.057724	-0.236031	-0.073258
O29	O	1.391057	0.097303	0.260075
O30	O	1.724391	0.430636	0.593408
C31	C	0.900111	-0.120890	-0.000031
C32	C	1.233444	0.212443	0.333302
C33	C	1.566778	0.545776	0.666635
C34	C	0.800030	-0.119135	-0.000027
C35	C	1.133363	0.214199	0.333307
C36	C	1.466697	0.547532	0.666640
C37	C	1.229767	-0.109131	-0.000045
C38	C	1.563101	0.224202	0.333288
C39	C	1.896434	0.557535	0.666622
C40	C	1.329848	-0.110887	-0.000044
C41	C	1.663181	0.222446	0.333290
C42	C	1.996515	0.555780	0.666623
C43	C	1.742245	-0.194038	-0.000022
C44	C	2.075578	0.139295	0.333312
C45	C	2.408911	0.472628	0.666645
C46	C	1.763776	-0.042582	-0.000034
C47	C	2.097109	0.290751	0.333299
C48	C	2.430442	0.624085	0.666633
C49	C	1.669745	-0.040931	-0.000039
C50	C	2.003078	0.292402	0.333294
C51	C	2.336411	0.625736	0.666628
C52	C	1.611959	-0.115835	-0.000034
C53	C	1.945292	0.217498	0.333299
C54	C	2.278626	0.550832	0.666633
C55	C	1.648204	-0.192390	-0.000024
C56	C	1.981538	0.140943	0.333309
C57	C	2.314871	0.474277	0.666642
C58	C	1.633492	0.035622	-0.000040
C59	C	1.966825	0.368956	0.333294
C60	C	2.300159	0.702289	0.666627
C61	C	1.539456	0.037276	-0.000044
C62	C	1.872789	0.370610	0.333290
C63	C	2.206122	0.703943	0.666623
C64	C	1.481668	-0.037629	-0.000045
C65	C	1.815002	0.295705	0.333288
C66	C	2.148335	0.629038	0.666621
C67	C	1.517919	-0.114187	-0.000036
C68	C	1.851252	0.219147	0.333297
C69	C	2.184586	0.552480	0.666630
C70	C	1.460133	-0.189090	-0.000032
C71	C	1.793467	0.144243	0.333302
C72	C	2.126800	0.477576	0.666635
C73	C	1.496382	-0.265649	-0.000029
C74	C	1.829716	0.067684	0.333304
C75	C	2.163049	0.401017	0.666638
C76	C	1.590417	-0.267295	-0.000026
C77	C	1.923750	0.066039	0.333308
C78	C	2.257084	0.399372	0.666641
C79	C	1.387634	-0.035983	-0.000049
C80	C	1.720967	0.297350	0.333285
C81	C	2.054300	0.630683	0.666618
C82	C	1.366093	-0.187442	-0.000034
C83	C	1.699427	0.145891	0.333299
C84	C	2.032760	0.479225	0.666633
C85	C	1.071566	0.036986	-0.000049
C86	C	1.404899	0.370319	0.333285
C87	C	1.738232	0.703652	0.666618
C88	C	1.069814	0.129284	-0.000050
C89	C	1.403147	0.462617	0.333283
C90	C	1.736481	0.795950	0.666617
C91	C	1.058313	-0.267007	-0.000027
C92	C	1.391646	0.066326	0.333306
C93	C	1.724979	0.399659	0.666639
C94	C	1.060064	-0.359305	-0.000020
C95	C	1.393397	-0.025972	0.333313
C96	C	1.726731	0.307362	0.666646
N97	N	1.064931	-0.115007	-0.228214
N98	N	1.398265	0.218326	0.105120
N99	N	1.731598	0.551659	0.438453
C100	C	1.147896	0.351446	-0.000040
C101	C	1.481229	0.684780	0.333294
C102	C	1.814563	1.018113	0.666627
C103	C	1.146243	0.438169	-0.000032
C104	C	1.479577	0.771502	0.333301
C105	C	1.812910	1.104836	0.666634
C106	C	0.981976	0.418525	-0.000028
C107	C	1.315309	0.751859	0.333305
C108	C	1.648643	1.085192	0.666639
C109	C	0.983629	0.331804	-0.000029
C110	C	1.316963	0.665138	0.333304
C111	C	1.650296	0.998471	0.666638
C112	C	1.066592	0.298267	-0.000039
C113	C	1.399925	0.631601	0.333294
C114	C	1.733259	0.964934	0.666627
C115	C	1.063286	0.471711	-0.000031
C116	C	1.396619	0.805044	0.333302
C117	C	1.729953	1.138378	0.666636
C118	C	1.061494	0.565740	-0.000023
C119	C	1.394827	0.899073	0.333310
C120	C	1.728160	1.232406	0.666644
C121	C	1.068385	0.204233	-0.000046
C122	C	1.401718	0.537566	0.333288
C123	C	1.735052	0.870899	0.666621
C124	C	1.126258	-0.058576	-0.453943
C125	C	1.459592	0.274758	-0.120610
C126	C	1.792925	0.608091	0.212723
C127	C	1.126261	-0.058574	-0.546133
C128	C	1.459594	0.274760	-0.212800
C129	C	1.792928	0.608093	0.120534
C130	C	1.003620	-0.171442	-0.546128
C131	C	1.336954	0.161891	-0.212795
C132	C	1.670287	0.495225	0.120538
C133	C	1.003614	-0.171439	-0.453940
C134	C	1.336947	0.161894	-0.120607
C135	C	1.670281	0.495227	0.212726
C136	C	1.064938	-0.115007	-0.407850
C137	C	1.398271	0.218326	-0.074517
C138	C	1.731605	0.551659	0.258816
C139	C	1.064947	-0.115008	-0.592228
C140	C	1.398281	0.218325	-0.258895
C141	C	1.731614	0.551659	0.074439
C142	C	1.064950	-0.115006	-0.692184
C143	C	1.398283	0.218327	-0.358851
C144	C	1.731617	0.551660	-0.025517
C145	C	1.064934	-0.115008	-0.307888
C146	C	1.398268	0.218326	0.025446
C147	C	1.731601	0.551659	0.358779
N148	N	1.064954	-0.115008	0.228135
N149	N	1.398287	0.218326	0.561469
N150	N	1.731621	0.551659	0.894802
H151	H	1.319050	-0.248439	-0.000036
H152	H	1.652383	0.084894	0.333298
H153	H	1.985716	0.418228	0.666631
Br154	Br	1.791435	-0.297935	-0.000023
Br155	Br	2.124769	0.035398	0.333311
Br156	Br	2.458102	0.368732	0.666644
Br157	Br	1.256589	0.510338	-0.000028
Br158	Br	1.589923	0.843671	0.333305
Br159	Br	1.923256	1.177005	0.666639
H160	H	0.917418	0.288503	-0.000026
H161	H	1.250751	0.621837	0.333307
H162	H	1.584085	0.955170	0.666641
Br163	Br	0.920400	-0.248028	-0.608682
Br164	Br	1.253733	0.085306	-0.275349
Br165	Br	1.587067	0.418639	0.057985
Br166	Br	1.260487	0.305934	-0.000054
Br167	Br	1.593821	0.639267	0.333279
Br168	Br	1.927154	0.972601	0.666612
H169	H	0.914430	0.445842	-0.000021
H170	H	1.247764	0.779175	0.333312
H171	H	1.581097	1.112509	0.666645
Br172	Br	1.209481	0.018012	-0.391396
Br173	Br	1.542815	0.351346	-0.058062
Br174	Br	1.876148	0.684679	0.275271
Br175	Br	1.417949	-0.367301	-0.000009
Br176	Br	1.751282	-0.033967	0.333325
Br177	Br	2.084615	0.299366	0.666658
Br178	Br	0.920381	-0.248024	-0.391378
Br179	Br	1.253714	0.085310	-0.058045
Br180	Br	1.587048	0.418643	0.275289
Br181	Br	1.639618	-0.371186	-0.000013
Br182	Br	1.972951	-0.037853	0.333321
Br183	Br	2.306285	0.295480	0.666654
Br184	Br	1.842198	0.059068	-0.000035
Br185	Br	2.175532	0.392402	0.333298
Br186	Br	2.508865	0.725735	0.666632
Br187	Br	1.209480	0.018019	-0.608687
Br188	Br	1.542814	0.351352	-0.275353
Br189	Br	1.876147	0.684685	0.057980
H190	H	1.680547	0.096605	-0.000039
H191	H	2.013881	0.429938	0.333294
H192	H	2.347214	0.763272	0.666627
Br193	Br	1.338441	0.067909	-0.000050
Br194	Br	1.671774	0.401242	0.333283
Br195	Br	2.005107	0.734575	0.666617
Br196	Br	1.490268	0.141174	-0.000038
Br197	Br	1.823602	0.474508	0.333296
Br198	Br	2.156935	0.807841	0.666629
