data_functionalizedCrystal
_audit_creation_method	'MofGen! by Chris Wilmer'
_symmetry_space_group_name_H-M	'P1'
_symmetry_Int_Tables_number	1
_symmetry_cell_setting	triclinic
loop_
_symmetry_equiv_pos_as_xyz
  x,y,z
_cell_length_a	18.215405
_cell_length_b	18.215407
_cell_length_c	12.827879
_cell_angle_alpha	90.044483
_cell_angle_beta	89.934925
_cell_angle_gamma	89.978057
loop_
_atom_site_label
_atom_site_type_symbol
_atom_site_fract_x
_atom_site_fract_y
_atom_site_fract_z
Zn1	Zn	-0.292713	-1.125260	-0.590911
Zn2	Zn	0.207287	-0.625260	-0.090911
Zn3	Zn	-0.415867	-1.125123	-0.416163
Zn4	Zn	0.084133	-0.625123	0.083837
Zn5	Zn	-0.292819	-1.002141	-0.416175
Zn6	Zn	0.207181	-0.502141	0.083825
Zn7	Zn	-0.415742	-1.002165	-0.590854
Zn8	Zn	0.084258	-0.502165	-0.090854
O9	O	-0.354285	-1.063672	-0.503526
O10	O	0.145715	-0.563672	-0.003526
O11	O	-0.309058	-1.228226	-0.567749
O12	O	0.190942	-0.728226	-0.067749
O13	O	-0.399641	-1.108743	-0.269928
O14	O	0.100359	-0.608743	0.230072
O15	O	-0.189820	-1.018521	-0.439383
O16	O	0.310180	-0.518521	0.060617
O17	O	-0.399538	-1.228126	-0.439362
O18	O	0.100462	-0.728126	0.060638
O19	O	-0.189743	-1.108976	-0.567761
O20	O	0.310257	-0.608976	-0.067761
O21	O	-0.309238	-1.018388	-0.269937
O22	O	0.190762	-0.518388	0.230063
O23	O	-0.309117	-0.899160	-0.439329
O24	O	0.190883	-0.399160	0.060671
O25	O	-0.399325	-1.018561	-0.737098
O26	O	0.100675	-0.518561	-0.237098
O27	O	-0.399428	-0.899177	-0.567664
O28	O	0.100572	-0.399177	-0.067664
O29	O	-0.308936	-1.108998	-0.737140
O30	O	0.191064	-0.608998	-0.237140
O31	O	-0.518835	-1.108765	-0.439307
O32	O	-0.018835	-0.608765	0.060693
O33	O	-0.518743	-1.018428	-0.567652
O34	O	-0.018743	-0.518428	-0.067652
C35	C	-0.354271	-0.872466	-0.503492
C36	C	0.145729	-0.372466	-0.003492
C37	C	-0.354282	-0.790667	-0.503503
C38	C	0.145718	-0.290667	-0.003503
C39	C	-0.401380	-0.602502	-0.570240
C40	C	0.098620	-0.102502	-0.070240
C41	C	-0.401381	-0.525643	-0.570251
C42	C	0.098619	-0.025643	-0.070251
C43	C	-0.307195	-0.525595	-0.436816
C44	C	0.192805	-0.025595	0.063184
C45	C	-0.307190	-0.602453	-0.436810
C46	C	0.192810	-0.102453	0.063190
C47	C	-0.354287	-0.640904	-0.503521
C48	C	0.145713	-0.140904	-0.003521
C49	C	-0.354293	-0.487188	-0.503538
C50	C	0.145707	0.012812	-0.003538
C51	C	-0.354294	-0.403854	-0.503550
C52	C	0.145706	0.096146	-0.003550
C53	C	-0.354285	-0.724243	-0.503510
C54	C	0.145715	-0.224243	-0.003510
C55	C	-0.545492	-1.063604	-0.503495
C56	C	-0.045492	-0.563604	-0.003495
C57	C	-0.627290	-1.063642	-0.503517
C58	C	-0.127290	-0.563642	-0.003517
C59	C	-0.892250	-1.110786	-0.570465
C60	C	-0.392250	-0.610786	-0.070465
C61	C	-0.815391	-1.110762	-0.570449
C62	C	-0.315391	-0.610762	-0.070449
C63	C	-0.815579	-1.016653	-0.436647
C64	C	-0.315579	-0.516653	0.063353
C65	C	-0.892437	-1.016682	-0.436659
C66	C	-0.392437	-0.516682	0.063341
C67	C	-0.930770	-1.063747	-0.503573
C68	C	-0.430770	-0.563747	-0.003573
C69	C	-0.777054	-1.063694	-0.503546
C70	C	-0.277054	-0.563694	-0.003546
C71	C	-0.693720	-1.063667	-0.503528
C72	C	-0.193720	-0.563667	-0.003528
C73	C	-1.014109	-1.063776	-0.503590
C74	C	-0.514109	-0.563776	-0.003590
C75	C	-0.162332	-1.063761	-0.503580
C76	C	0.337668	-0.563761	-0.003580
C77	C	-0.080533	-1.063799	-0.503603
C78	C	0.419467	-0.563799	-0.003603
C79	C	-0.354105	-1.063797	-0.776096
C80	C	0.145895	-0.563797	-0.276096
C81	C	-0.354028	-1.063851	-0.892250
C82	C	0.145972	-0.563851	-0.392250
C83	C	-0.354298	-0.255625	-0.503555
C84	C	0.145702	0.244375	-0.003555
C85	C	-0.354297	-0.337424	-0.503556
C86	C	0.145703	0.162576	-0.003556
C87	C	-0.354412	-1.063590	-0.232016
C88	C	0.145588	-0.563590	0.267984
C89	C	-0.354281	-1.063680	-0.115863
C90	C	0.145719	-0.563680	0.384137
C91	C	-0.309819	-1.018690	-0.064131
C92	C	0.190181	-0.518690	0.435869
C93	C	-0.309683	-1.018782	0.055919
C94	C	0.190317	-0.518782	0.555919
H95	H	-0.439728	-0.494379	-0.624582
H96	H	0.060272	0.005621	-0.124582
H97	H	-0.923801	-0.978376	-0.382182
H98	H	-0.423801	-0.478376	0.117818
H99	H	-0.392097	-1.102369	0.063269
H100	H	0.107903	-0.602369	0.563269
N101	N	-0.259532	-0.967570	-0.123174
N102	N	0.240468	-0.467570	0.376826
H103	H	-0.271313	-0.915073	-0.104038
H104	H	0.228687	-0.415073	0.395962
H105	H	-0.206855	-0.978702	-0.104442
H106	H	0.293145	-0.478702	0.395558
N107	N	-0.256411	-0.484120	-0.364854
N108	N	0.243589	0.015880	0.135146
H109	H	-0.226577	-0.520113	-0.322587
H110	H	0.273423	-0.020113	0.177413
H111	H	-0.222373	-0.452265	-0.407472
H112	H	0.277627	0.047735	0.092528
H113	H	-0.271620	-0.980263	0.100407
H114	H	0.228380	-0.480263	0.600407
N115	N	-0.256385	-0.643879	-0.364860
N116	N	0.243615	-0.143879	0.135140
H117	H	-0.226552	-0.607859	-0.322597
H118	H	0.273448	-0.107859	0.177403
H119	H	-0.286313	-0.675735	-0.316422
H120	H	0.213687	-0.175735	0.183578
H121	H	-0.439727	-0.633806	-0.624562
H122	H	0.060273	-0.133806	-0.124562
N123	N	-0.933597	-1.161541	-0.642642
N124	N	-0.433597	-0.661541	-0.142642
H125	H	-0.897528	-1.191334	-0.685017
H126	H	-0.397528	-0.691334	-0.185017
H127	H	-0.965502	-1.195619	-0.600169
H128	H	-0.465502	-0.695619	-0.100169
H129	H	-0.784030	-1.149066	-0.624917
H130	H	-0.284030	-0.649066	-0.124917
H131	H	-0.784361	-0.978332	-0.382168
H132	H	-0.284361	-0.478332	0.117832
H133	H	-0.392243	-1.102267	-0.071276
H134	H	0.107757	-0.602267	0.428724
