data_functionalizedCrystal
_audit_creation_method	'MofGen! by Chris Wilmer'
_symmetry_space_group_name_H-M	'P1'
_symmetry_Int_Tables_number	1
_symmetry_cell_setting	triclinic
loop_
_symmetry_equiv_pos_as_xyz
  x,y,z
_cell_length_a	12.811434
_cell_length_b	10.723024
_cell_length_c	9.798715
_cell_angle_alpha	89.996609
_cell_angle_beta	84.569243
_cell_angle_gamma	95.745509
loop_
_atom_site_label
_atom_site_type_symbol
_atom_site_fract_x
_atom_site_fract_y
_atom_site_fract_z
O1	O	-0.147215	1.656451	-0.095255
O2	O	0.352785	2.156451	0.404745
O3	O	-0.161306	1.293229	-0.093515
O4	O	0.338694	1.793229	0.406485
O5	O	-0.001535	1.483980	-0.113285
O6	O	0.498465	1.983980	0.386715
O7	O	-0.306986	1.465700	-0.075485
O8	O	0.193014	1.965700	0.424515
O9	O	-0.001535	1.483966	0.113697
O10	O	0.498465	1.983966	0.613697
O11	O	-0.161306	1.293214	0.133467
O12	O	0.338694	1.793214	0.633467
O13	O	-0.147215	1.656437	0.131727
O14	O	0.352785	2.156437	0.631727
Zn15	Zn	-0.154260	1.474823	0.168635
Zn16	Zn	0.345740	1.974823	0.668635
Zn17	Zn	-0.154261	1.474842	-0.130423
Zn18	Zn	0.345739	1.974842	0.369577
O19	O	-0.306986	1.465686	0.151497
O20	O	0.193014	1.965686	0.651497
C21	C	-0.160281	1.246727	0.019848
C22	C	0.339719	1.746727	0.519848
C23	C	-0.157213	1.108188	0.019467
C24	C	0.342787	1.608188	0.519467
C25	C	-0.246612	1.032758	0.030530
C26	C	0.253388	1.532758	0.530530
C27	C	-0.243443	0.889571	0.030136
C28	C	0.256557	1.389571	0.530136
C29	C	-0.346097	1.466716	0.042846
C30	C	0.153903	1.966716	0.542846
C31	C	-0.462637	1.469781	0.057268
C32	C	0.037363	1.969781	0.557268
C33	C	-0.681626	1.475580	-0.163115
C34	C	-0.181626	1.975580	0.336885
C35	C	-0.791125	1.478460	-0.149571
C36	C	-0.291125	1.978460	0.350429
C37	C	-0.791135	1.478431	0.097899
C38	C	-0.291135	1.978431	0.597899
C39	C	-0.681636	1.475551	0.084355
C40	C	-0.181636	1.975551	0.584355
C41	C	-0.626886	1.474124	-0.046156
C42	C	-0.126886	1.974124	0.453844
C43	C	-0.517385	1.471234	-0.059699
C44	C	-0.017385	1.971234	0.440301
C45	C	-0.517397	1.471214	0.187769
C46	C	-0.017397	1.971214	0.687769
C47	C	-0.626896	1.474095	0.201313
C48	C	-0.126896	1.974095	0.701313
C49	C	0.037577	1.482949	-0.004637
C50	C	0.537577	1.982949	0.495363
C51	C	0.154116	1.479884	-0.019068
C52	C	0.654116	1.979884	0.480932
C53	C	-0.148240	1.702939	0.018360
C54	C	0.351760	2.202939	0.518360
C55	C	-0.151308	1.841478	0.018733
C56	C	0.348692	2.341478	0.518733
N57	N	-0.154259	1.474820	0.372735
N58	N	0.345741	1.974820	0.872735
N59	N	-0.154253	1.474856	-0.334524
N60	N	0.345747	1.974856	0.165476
C61	C	-0.086880	1.554913	0.432174
C62	C	0.413120	2.054913	0.932174
C63	C	-0.086876	1.554933	0.589336
C64	C	0.413124	2.054933	1.089336
H65	H	-0.074771	0.906285	0.009253
H66	H	0.425229	1.406285	0.509253
H67	H	-0.078328	1.066760	0.009670
H68	H	0.421672	1.566760	0.509670
H69	H	-0.211946	1.406286	0.614339
H70	H	0.288054	1.906286	1.114339
H71	H	-0.211939	1.406259	0.438197
H72	H	0.288061	1.906259	0.938197
O73	O	-0.850199	1.479979	0.238653
O74	O	-0.350199	1.979979	0.738653
H75	H	-0.820443	1.564376	0.294300
H76	H	-0.320443	2.064376	0.794300
O77	O	-0.010460	1.645777	0.657065
O78	O	0.489540	2.145777	1.157065
H79	H	0.040783	1.592761	0.715829
H80	H	0.540783	2.092761	1.215829
O81	O	-0.351108	1.087625	0.043472
O82	O	0.148892	1.587625	0.543472
H83	H	-0.416114	1.010591	0.051528
H84	H	0.083886	1.510591	0.551528
O85	O	-0.458327	1.469678	-0.200456
O86	O	0.041673	1.969678	0.299544
H87	H	-0.514792	1.471181	-0.279507
H88	H	-0.014792	1.971181	0.220493
H89	H	-0.319976	0.824756	0.039601
H90	H	0.180024	1.324756	0.539601
H91	H	-0.835691	1.479648	-0.244811
H92	H	-0.335691	1.979648	0.255189
O93	O	-0.622564	1.474022	-0.303869
O94	O	-0.122564	1.974022	0.196131
H95	H	-0.679026	1.475516	-0.382926
H96	H	-0.179026	1.975516	0.117074
O97	O	-0.685949	1.475633	0.342075
O98	O	-0.185949	1.975633	0.842075
H99	H	-0.771288	1.477874	0.331847
H100	H	-0.271288	1.977874	0.831847
O101	O	-0.458357	1.469652	0.313932
O102	O	0.041643	1.969652	0.813932
H103	H	-0.373016	1.467417	0.282593
H104	H	0.126984	1.967417	0.782593
H105	H	-0.029192	1.623465	0.366713
H106	H	0.470808	2.123465	0.866713
