data_functionalizedCrystal
_audit_creation_method	'MofGen! by Chris Wilmer'
_symmetry_space_group_name_H-M	'P1'
_symmetry_Int_Tables_number	1
_symmetry_cell_setting	triclinic
loop_
_symmetry_equiv_pos_as_xyz
  x,y,z
_cell_length_a	21.295420
_cell_length_b	21.295417
_cell_length_c	12.759393
_cell_angle_alpha	90.039170
_cell_angle_beta	90.021840
_cell_angle_gamma	90.028757
loop_
_atom_site_label
_atom_site_type_symbol
_atom_site_fract_x
_atom_site_fract_y
_atom_site_fract_z
Zn1	Zn	0.962338	-0.250601	0.594019
Zn2	Zn	0.962245	-0.355885	0.418316
Zn3	Zn	0.857066	-0.250631	0.418349
Zn4	Zn	0.857030	-0.355834	0.593947
O5	O	0.909670	-0.303238	0.506158
O6	O	1.050415	-0.264577	0.570729
O7	O	0.948269	-0.341957	0.271299
O8	O	0.871084	-0.162538	0.441695
O9	O	1.050347	-0.341929	0.441640
O10	O	0.948427	-0.162516	0.570760
O11	O	0.870995	-0.264627	0.271323
O12	O	0.768972	-0.264577	0.441626
O13	O	0.871023	-0.341840	0.740978
O14	O	0.768946	-0.341869	0.570637
O15	O	0.948392	-0.264527	0.741031
O16	O	0.948235	-0.443968	0.441570
O17	O	0.870934	-0.443930	0.570606
C18	C	0.746118	-0.303221	0.506128
C19	C	0.676150	-0.303229	0.506140
C20	C	0.176695	-0.343558	0.573269
C21	C	0.242437	-0.343558	0.573258
C22	C	0.275311	-0.303252	0.506191
C23	C	0.242436	-0.262954	0.439111
C24	C	0.176695	-0.262960	0.439116
N25	N	0.378552	-0.248136	0.498292
N26	N	0.441003	-0.248133	0.498293
C27	C	0.473385	-0.303234	0.506169
N28	N	0.440957	-0.358341	0.514064
N29	N	0.378500	-0.358343	0.514068
C30	C	0.346596	-0.303242	0.506177
C31	C	0.577538	-0.343533	0.573227
C32	C	0.643281	-0.343534	0.573209
C33	C	0.643279	-0.262925	0.439067
C34	C	0.577536	-0.262929	0.439080
C35	C	0.544670	-0.303232	0.506166
C36	C	0.909587	-0.466789	0.506100
C37	C	0.909610	-0.536758	0.506110
C38	C	0.949896	-0.569623	0.438990
C39	C	0.949926	-0.635366	0.439014
C40	C	0.909657	-0.668240	0.506146
C41	C	0.869368	-0.635367	0.573279
C42	C	0.869344	-0.569625	0.573261
N43	N	0.854590	-0.771504	0.514145
N44	N	0.854615	-0.833955	0.514157
C45	C	0.909728	-0.866315	0.506206
N46	N	0.964817	-0.833864	0.498224
N47	N	0.964792	-0.771407	0.498208
C48	C	0.909679	-0.739525	0.506174
C49	C	0.950050	-0.970466	0.439109
C50	C	0.950080	-1.036210	0.439140
C51	C	0.869517	-1.036209	0.573400
C52	C	0.869492	-0.970467	0.573374
C53	C	0.909758	-0.937599	0.506223
C54	C	1.073860	-0.303255	0.506189
C55	C	1.143828	-0.303263	0.506202
C56	C	0.909714	-0.303174	0.780191
C57	C	0.909733	-0.303147	0.896968
C58	C	0.909770	-0.139048	0.506239
C59	C	0.909812	-0.069079	0.506274
C60	C	0.909662	-0.303256	0.233191
C61	C	0.909765	-0.303105	0.116415
C62	C	0.950024	-0.262886	0.951859
C63	C	0.950039	-0.262864	1.061584
C64	C	0.869469	-0.343368	1.061516
C65	C	0.869452	-0.343387	0.951793
C66	C	0.996543	-0.216409	0.951900
C67	C	0.996558	-0.216387	1.061624
H68	H	0.149935	-0.230145	0.384502
H69	H	0.670040	-0.376352	0.627820
Cl70	Cl	0.818748	-0.676693	0.657679
H71	H	0.836538	-0.542865	0.627920
Cl72	Cl	0.976426	-0.141145	0.905965
H73	H	0.670043	-0.230109	0.384456
Cl74	Cl	0.818898	-1.077531	0.657803
Cl75	Cl	1.000736	-1.077527	0.354760
H76	H	0.149939	-0.376378	0.627892
H77	H	1.045308	-0.229445	1.091404
H78	H	0.982838	-0.943704	0.384433
Cl79	Cl	0.536217	-0.394202	0.657556
Cl80	Cl	0.283761	-0.212286	0.354794
H81	H	0.982684	-0.542864	0.384314
Cl82	Cl	0.283764	-0.394218	0.657579
H83	H	0.550776	-0.230115	0.384470
H84	H	0.982734	-0.662130	0.384357
H85	H	1.042836	-0.233888	0.917864
H86	H	0.836685	-0.943706	0.628025
H87	H	0.836640	-0.376169	0.907105
Cl88	Cl	0.969556	-0.144907	1.114214
Cl89	Cl	0.818833	-0.393953	1.130446
