data_functionalizedCrystal
_audit_creation_method	'MofGen! by Chris Wilmer'
_symmetry_space_group_name_H-M	'P1'
_symmetry_Int_Tables_number	1
_symmetry_cell_setting	triclinic
loop_
_symmetry_equiv_pos_as_xyz
  x,y,z
_cell_length_a	14.044220
_cell_length_b	8.597340
_cell_length_c	7.681481
_cell_angle_alpha	103.474906
_cell_angle_beta	96.265024
_cell_angle_gamma	90.777071
loop_
_atom_site_label
_atom_site_type_symbol
_atom_site_fract_x
_atom_site_fract_y
_atom_site_fract_z
O1	O	-0.131084	2.118484	0.174987
O2	O	-0.146187	1.656571	0.104903
O3	O	-0.000651	1.880595	0.138901
O4	O	-0.276621	1.894460	0.140989
O5	O	0.017303	1.908163	0.435942
O6	O	-0.128234	1.684139	0.401944
O7	O	-0.113131	2.146052	0.472028
Zn8	Zn	-0.117832	1.919472	0.484148
Zn9	Zn	-0.141486	1.883151	0.092783
O10	O	-0.258667	1.922028	0.438030
C11	C	-0.136589	1.610883	0.244400
C12	C	-0.134725	1.433673	0.217513
C13	C	-0.302958	1.914314	0.290428
C14	C	-0.408184	1.932419	0.293169
C15	C	-0.600844	1.965520	0.298199
C16	C	-0.658481	1.837109	0.278717
C17	C	-0.765683	1.855527	0.281516
C18	C	-0.493631	1.947104	0.295401
C19	C	0.043640	1.888309	0.286499
C20	C	0.148865	1.870203	0.283746
C21	C	-0.122729	2.191740	0.332527
C22	C	-0.124594	2.368948	0.359402
N23	N	-0.101687	1.944273	0.751246
N24	N	-0.157623	1.858362	-0.174313
H25	H	-0.141972	1.353508	0.075450
C26	C	-0.642364	2.130550	0.322888
C27	C	-0.620839	2.198941	0.182579
C28	C	-0.659096	2.350954	0.205253
H29	H	-0.615341	2.196612	0.434922
H30	H	-0.709948	2.121205	0.321380
H31	H	-0.553269	2.208295	0.184105
H32	H	-0.647862	2.132926	0.070528
H33	H	-0.726680	2.341608	0.203745
H34	H	-0.632071	2.417001	0.317291
H35	H	-0.644505	2.397370	0.110050
H36	H	-0.117340	1.449106	0.501456
H37	H	-0.627314	1.713340	0.259940
H38	H	-0.214717	1.770663	0.737181
H39	H	-0.044597	2.031990	0.839764
