data_functionalizedCrystal
_audit_creation_method	'MofGen! by Chris Wilmer'
_symmetry_space_group_name_H-M	'P1'
_symmetry_Int_Tables_number	1
_symmetry_cell_setting	triclinic
loop_
_symmetry_equiv_pos_as_xyz
  x,y,z
_cell_length_a	27.780903
_cell_length_b	27.780865
_cell_length_c	27.780883
_cell_angle_alpha	59.996870
_cell_angle_beta	89.996777
_cell_angle_gamma	59.999919
loop_
_atom_site_label
_atom_site_type_symbol
_atom_site_fract_x
_atom_site_fract_y
_atom_site_fract_z
O1	O	0.330241	0.424564	-0.014319
O2	O	0.260237	0.326000	0.014253
O3	O	0.260240	0.424566	-0.084317
O4	O	0.330238	0.325999	0.084250
O5	O	0.340298	0.344503	-0.084316
O6	O	0.340295	0.245938	0.014253
O7	O	0.410299	0.344502	-0.014319
Cu8	Cu	0.382607	0.287910	-0.000033
Cu9	Cu	0.287929	0.382592	-0.000033
O10	O	0.410296	0.245936	0.084251
C11	C	0.462918	0.579970	-0.029962
C12	C	0.433215	0.639378	-0.025876
C13	C	0.520848	0.551141	-0.030370
C14	C	0.462915	0.492802	-0.029957
C15	C	0.433210	0.459011	-0.025866
C16	C	0.520846	0.464106	-0.030366
C17	C	0.550082	0.492801	-0.029961
C18	C	0.613577	0.459009	-0.025875
C19	C	0.433814	0.551142	-0.030366
C20	C	0.664874	0.431707	-0.022572
C21	C	0.409219	0.687374	-0.022573
C22	C	0.409212	0.431710	-0.022560
C23	C	0.729229	0.397456	-0.018429
C24	C	0.379115	0.747586	-0.018431
C25	C	0.379106	0.397461	-0.018413
C26	C	0.207632	0.177692	0.029875
C27	C	0.237334	0.211486	0.025789
C28	C	0.149701	0.206385	0.030281
C29	C	0.207638	0.090525	0.029872
C30	C	0.237345	0.031119	0.025782
C31	C	0.149707	0.119350	0.030278
C32	C	0.120468	0.177688	0.029872
C33	C	0.056973	0.211477	0.025784
C34	C	0.236738	0.119355	0.030281
C35	C	0.005675	0.238775	0.022479
C36	C	0.261329	0.238789	0.022487
C37	C	0.261344	-0.016875	0.022477
C38	C	-0.058680	0.273022	0.018335
C39	C	0.291432	0.273041	0.018345
C40	C	0.291453	-0.077085	0.018332
C41	C	0.120469	0.579973	-0.372396
C42	C	0.056975	0.639382	-0.402101
C43	C	0.149703	0.551145	-0.314465
C44	C	0.207634	0.492803	-0.372394
C45	C	0.237337	0.459010	-0.402097
C46	C	0.236735	0.464107	-0.314463
C47	C	0.207632	0.492805	-0.285229
C48	C	0.237334	0.459013	-0.221733
C49	C	0.149704	0.551144	-0.401498
C50	C	0.261330	0.431712	-0.170435
C51	C	0.005678	0.687378	-0.426099
C52	C	0.261334	0.431708	-0.426093
C53	C	0.291435	0.397462	-0.106079
C54	C	-0.058676	0.747592	-0.456205
C55	C	0.291440	0.397457	-0.456198
O56	O	0.919557	0.245918	0.014244
O57	O	0.750990	0.344497	-0.014335
O58	O	0.849545	0.245930	0.084238
O59	O	0.821002	0.344485	-0.084328
O60	O	0.849547	0.325992	0.084233
O61	O	0.750992	0.424558	-0.014339
O62	O	0.919559	0.325980	0.014239
Cu63	Cu	0.835276	0.382579	-0.000050
Cu64	Cu	0.835273	0.287897	-0.000045
O65	O	0.821004	0.424546	-0.084333
O66	O	0.340322	0.905240	0.014243
O67	O	0.410313	0.765251	-0.014334
O68	O	0.410311	0.765236	0.084238
O69	O	0.340324	0.905255	-0.084328
O70	O	0.330245	0.765247	0.084229
O71	O	0.330248	0.765262	-0.014343
O72	O	0.260257	0.905251	0.014234
Cu73	Cu	0.287942	0.835257	-0.000055
Cu74	Cu	0.382628	0.835245	-0.000045
O75	O	0.260259	0.905266	-0.084337
O76	O	0.330249	0.325987	-0.575057
O77	O	0.260246	0.424559	-0.505063
O78	O	0.260245	0.325992	-0.505056
O79	O	0.330250	0.424555	-0.575064
O80	O	0.340301	0.245931	-0.424994
O81	O	0.340303	0.344498	-0.425001
O82	O	0.410306	0.245927	-0.494995
Cu83	Cu	0.382614	0.287902	-0.452688
Cu84	Cu	0.287938	0.382583	-0.547370
O85	O	0.410307	0.344494	-0.495002
O86	O	-0.249000	0.905268	-0.495009
O87	O	-0.080438	0.765262	-0.425010
O88	O	-0.179003	0.765264	-0.425005
O89	O	-0.150435	0.905266	-0.495014
O90	O	-0.179004	0.765264	-0.505065
O91	O	-0.080439	0.765262	-0.505070
O92	O	-0.249001	0.905269	-0.575069
Cu93	Cu	-0.164720	0.835266	-0.547380
Cu94	Cu	-0.164719	0.835265	-0.452699
O95	O	-0.150435	0.905267	-0.575075
C96	C	0.550076	0.090521	0.372328
C97	C	0.613569	0.031112	0.402031
C98	C	0.520842	0.119349	0.401432
C99	C	0.462910	0.177691	0.285162
C100	C	0.433206	0.211485	0.221667
C101	C	0.433809	0.206387	0.314399
C102	C	0.462912	0.177689	0.372330
C103	C	0.433211	0.211480	0.402035
C104	C	0.520840	0.119351	0.314397
C105	C	0.409215	0.238780	0.426032
C106	C	0.664866	-0.016884	0.426027
C107	C	0.409208	0.238787	0.170369
C108	C	0.379111	0.273030	0.456139
C109	C	0.729220	-0.077097	0.456132
C110	C	0.379102	0.273039	0.106013
C111	C	0.865109	0.177732	0.372299
C112	C	0.861017	0.211528	0.401998
C113	C	0.865506	0.119398	0.401403
C114	C	0.865126	0.177719	0.285139
C115	C	0.861054	0.211502	0.221647
C116	C	0.865523	0.119386	0.314375
C117	C	0.865102	0.090566	0.372303
C118	C	0.861003	0.031165	0.402007
C119	C	0.865530	0.206418	0.314371
C120	C	0.857691	-0.016824	0.426004
C121	C	0.857710	0.238833	0.425992
C122	C	0.857762	0.238795	0.170350
C123	C	0.853536	-0.077030	0.456110
C124	C	0.853562	0.273087	0.456093
C125	C	0.853634	0.273036	0.105997
C126	C	0.805443	0.579913	-0.372400
C127	C	0.809538	0.639318	-0.402104
C128	C	0.805043	0.551079	-0.401498
C129	C	0.805423	0.492758	-0.285235
C130	C	0.809495	0.458975	-0.221742
C131	C	0.805023	0.464056	-0.314466
C132	C	0.805444	0.492743	-0.372394
C133	C	0.809540	0.458945	-0.402092
C134	C	0.805022	0.551094	-0.314472
C135	C	0.812850	0.431639	-0.426084
C136	C	0.812847	0.687309	-0.426102
C137	C	0.812787	0.431681	-0.170446
C138	C	0.817002	0.397382	-0.456185
C139	C	0.816998	0.747518	-0.456209
C140	C	0.816915	0.397441	-0.106093
C141	C	0.462895	0.492768	0.372305
C142	C	0.433187	0.458979	0.402004
C143	C	0.520827	0.464065	0.401412
C144	C	0.462905	0.579938	0.285143
C145	C	0.433206	0.639352	0.221648
C146	C	0.520836	0.551102	0.314382
C147	C	0.550067	0.492758	0.372313
C148	C	0.613562	0.458959	0.402020
C149	C	0.433797	0.551112	0.314375
C150	C	0.664860	0.431652	0.426020
C151	C	0.409185	0.431680	0.425997
C152	C	0.409212	0.687351	0.170351
C153	C	0.729215	0.397394	0.456129
C154	C	0.379074	0.397433	0.456098
C155	C	0.379111	0.747569	0.105996
O156	O	0.820884	0.344568	0.574943
O157	O	0.849457	0.245992	0.504954
O158	O	0.750890	0.344575	0.504933
O159	O	0.919451	0.245986	0.574964
O160	O	0.750912	0.424623	0.424876
O161	O	0.849479	0.326041	0.424897
O162	O	0.820906	0.424617	0.494886
Cu163	Cu	0.835194	0.382638	0.452582
Cu164	Cu	0.835168	0.287971	0.547259
O165	O	0.919473	0.326034	0.494908
C166	C	0.120505	1.177744	-0.372413
C167	C	0.057010	1.211544	-0.402121
C168	C	0.149745	1.206437	-0.401511
C169	C	0.207667	1.090564	-0.285243
C170	C	0.237365	1.031150	-0.221748
C171	C	0.236775	1.119390	-0.314474
C172	C	0.207677	1.177733	-0.372404
C173	C	0.237386	1.211522	-0.402103
C174	C	0.149735	1.119400	-0.314482
C175	C	0.261388	1.238820	-0.426096
C176	C	0.005712	1.238851	-0.426121
C177	C	0.261358	0.983151	-0.170451
C178	C	0.291499	1.273067	-0.456196
C179	C	-0.058643	1.273109	-0.456231
C180	C	0.291459	0.922933	-0.106095
H181	H	0.544319	0.575269	-0.031027
H182	H	0.544309	0.575230	0.290912
H183	H	0.804393	0.575206	-0.449097
N184	N	0.118613	0.087398	0.031137
H185	H	0.106872	0.073383	0.067676
H186	H	0.082221	0.121443	-0.005041
N187	N	0.118642	1.087445	-0.283391
H188	H	0.077427	1.114584	-0.310715
H189	H	0.141210	1.039168	-0.271659
H190	H	0.544292	0.417117	0.449010
H191	H	0.126229	0.575277	-0.290997
N192	N	0.118612	0.583085	-0.464541
H193	H	0.077396	0.624487	-0.478622
H194	H	0.141179	0.597056	-0.490257
N195	N	0.370764	0.583108	-0.031236
H196	H	0.345017	0.597122	-0.067778
H197	H	0.368400	0.549074	0.004938
N198	N	0.118607	0.268559	0.031159
H199	H	0.145928	0.282453	0.031351
H200	H	0.082187	0.307080	-0.004992
N201	N	0.866405	0.087407	0.283302
H202	H	0.830255	0.087140	0.281155
H203	H	0.866628	0.114549	0.242106
H204	H	0.386213	0.575212	0.290887
H205	H	0.544312	0.095221	0.290927
N206	N	0.299788	0.087400	0.031154
H207	H	0.325535	0.039122	0.067697
H208	H	0.302155	0.087178	-0.005019
N209	N	0.299780	0.401919	-0.283365
H210	H	0.313861	0.388024	-0.310686
H211	H	0.325487	0.412753	-0.271630
H212	H	0.544313	0.095210	0.449035
H213	H	0.386212	0.253332	0.290925
H214	H	0.804367	0.417111	-0.290989
N215	N	0.299821	1.087431	-0.283381
H216	H	0.313899	1.046024	-0.242167
H217	H	0.325527	1.073463	-0.305955
N218	N	0.804143	0.583047	-0.283374
H219	H	0.840297	0.583304	-0.281210
H220	H	0.767585	0.631313	-0.305930
N221	N	0.551982	0.401838	-0.031105
H222	H	0.524673	0.387917	-0.031251
H223	H	0.563778	0.412555	-0.067609
N224	N	0.866368	0.087439	0.464452
H225	H	0.866559	0.114572	0.478532
H226	H	0.830215	0.087175	0.466816
N227	N	0.866396	0.268602	0.283272
H228	H	0.866577	0.282501	0.310590
H229	H	0.902940	0.257764	0.271541
H230	H	0.126273	1.253391	-0.449107
