data_functionalizedCrystal
_audit_creation_method	'MofGen! by Chris Wilmer'
_symmetry_space_group_name_H-M	'P1'
_symmetry_Int_Tables_number	1
_symmetry_cell_setting	triclinic
loop_
_symmetry_equiv_pos_as_xyz
  x,y,z
_cell_length_a	10.654545
_cell_length_b	27.731996
_cell_length_c	9.130313
_cell_angle_alpha	89.989531
_cell_angle_beta	89.996934
_cell_angle_gamma	83.552233
loop_
_atom_site_label
_atom_site_type_symbol
_atom_site_fract_x
_atom_site_fract_y
_atom_site_fract_z
O1	O	1.664956	0.067877	-0.121806
O2	O	1.299202	0.074347	-0.121814
O3	O	1.493473	0.000784	-0.121778
O4	O	1.470686	0.141440	-0.121842
O5	O	1.493460	0.000782	0.121821
O6	O	1.299189	0.074345	0.121784
O7	O	1.664943	0.067875	0.121793
Cu8	Cu	1.482065	0.071110	0.144031
Cu9	Cu	1.482080	0.071112	-0.144053
O10	O	1.470672	0.141438	0.121757
C11	C	1.252418	0.073872	-0.000015
C12	C	1.113034	0.072452	-0.000017
C13	C	1.047551	0.071782	0.132770
C14	C	0.916589	0.070440	0.132770
C15	C	0.916604	0.070439	-0.132814
C16	C	1.047565	0.071778	-0.132814
C17	C	1.492998	-0.017227	0.000026
C18	C	1.491588	-0.070892	0.000041
C19	C	1.482725	-0.403662	-0.132816
C20	C	1.477371	-0.605354	-0.132842
O21	O	1.476630	-0.631428	-0.245772
N22	N	1.476698	-0.630576	-0.000058
C23	C	1.477357	-0.605372	0.132742
O24	O	1.476649	-0.631453	0.245683
C25	C	1.482702	-0.403681	0.132767
C26	C	1.483387	-0.378462	-0.000026
C27	C	1.483408	-0.378443	-0.265599
C28	C	1.484753	-0.328023	-0.265591
C29	C	1.485415	-0.302823	-0.132801
C30	C	1.484732	-0.328042	-0.000019
C31	C	1.483351	-0.378478	0.265566
C32	C	1.484684	-0.328052	0.265560
C33	C	1.485369	-0.302833	0.132767
C34	C	1.486739	-0.252423	0.132779
N35	N	1.487411	-0.227200	-0.000005
C36	C	1.486749	-0.252401	-0.132795
C37	C	1.474553	-0.711263	0.132720
C38	C	1.473219	-0.761686	0.132715
C39	C	1.473231	-0.761664	-0.132871
C40	C	1.474574	-0.711241	-0.132864
C41	C	1.475225	-0.686041	-0.000064
C42	C	1.489576	-0.146516	-0.132769
C43	C	1.490926	-0.096092	-0.132749
C44	C	1.490908	-0.096118	0.132835
C45	C	1.489564	-0.146538	0.132817
C46	C	1.488894	-0.171735	0.000003
O47	O	1.487466	-0.226317	0.245650
O48	O	1.487429	-0.226310	-0.245719
C49	C	1.481379	-0.454082	-0.132824
C50	C	1.480696	-0.479301	-0.000042
C51	C	1.481358	-0.454101	0.132748
C52	C	1.479362	-0.529724	-0.000048
C53	C	1.478700	-0.554924	-0.132838
C54	C	1.479372	-0.529702	-0.265622
C55	C	1.480717	-0.479282	-0.265614
C56	C	1.480686	-0.479323	0.265533
C57	C	1.479342	-0.529743	0.265514
C58	C	1.478680	-0.554943	0.132724
C59	C	1.711728	0.068351	-0.000009
C60	C	1.851111	0.069771	-0.000017
C61	C	1.471147	0.159449	-0.000051
C62	C	1.472557	0.213114	-0.000076
N63	N	1.482063	0.071108	0.346654
N64	N	1.482092	0.071111	-0.346675
C65	C	1.568115	0.038548	0.423322
C66	C	1.568127	0.038548	0.576658
C67	C	1.396032	0.103672	0.576646
C68	C	1.396015	0.103669	0.423312
H69	H	1.100883	0.072322	-0.240951
H70	H	1.491487	-0.075561	-0.240890
N71	N	1.660952	0.003434	0.659346
H72	H	1.647908	0.008374	0.768116
H73	H	1.647140	-0.030908	0.632570
N74	N	0.845979	0.069713	-0.276031
H75	H	0.780863	0.099067	-0.281968
H76	H	0.907419	0.070321	-0.360073
N77	N	1.303188	0.138785	0.340607
H78	H	1.248683	0.159414	0.412434
H79	H	1.350817	0.160324	0.276954
H80	H	1.481274	-0.458753	-0.373748
N81	N	1.118168	0.072509	0.275992
H82	H	1.056807	0.071880	0.360111
H83	H	1.183288	0.043154	0.281795
N84	N	1.475227	-0.684023	-0.276062
H85	H	1.553629	-0.666749	-0.282014
H86	H	1.474536	-0.707658	-0.360126
H87	H	0.863278	0.069895	0.240899
H88	H	1.325975	0.130183	0.639077
N89	N	1.488887	-0.173688	-0.276018
H90	H	1.411265	-0.161246	-0.334095
H91	H	1.567061	-0.168552	-0.333913
N92	N	1.485485	-0.300826	-0.408818
H93	H	1.484858	-0.324447	-0.492930
H94	H	1.408164	-0.276245	-0.414608
N95	N	1.482780	-0.405622	-0.408834
H96	H	1.483445	-0.381989	-0.492936
H97	H	1.560135	-0.430188	-0.414552
H98	H	1.489018	-0.167073	0.240948
H99	H	1.472693	-0.782190	-0.240994
N100	N	1.660905	0.003418	0.340660
H101	H	1.613335	-0.018155	0.277077
H102	H	1.716118	0.022112	0.277094
N103	N	1.472507	-0.788885	0.275940
H104	H	1.473127	-0.765265	0.360056
H105	H	1.394079	-0.806146	0.281728
H106	H	1.475089	-0.690750	0.240868
N107	N	1.482591	-0.405663	0.408805
H108	H	1.404157	-0.422920	0.414716
H109	H	1.559953	-0.430221	0.414681
N110	N	1.485398	-0.300878	0.408805
H111	H	1.563828	-0.283620	0.414738
H112	H	1.408032	-0.276321	0.414648
N113	N	1.478682	-0.556892	-0.408840
H114	H	1.556800	-0.551778	-0.466878
H115	H	1.477689	-0.592649	-0.388541
H116	H	1.478794	-0.550273	0.373658
N117	N	1.491634	-0.068934	0.276054
H118	H	1.492586	-0.033165	0.255897
H119	H	1.413519	-0.074088	0.334037
H120	H	1.481227	-0.458811	0.373669
