data_functionalizedCrystal
_audit_creation_method	'MofGen! by Chris Wilmer'
_symmetry_space_group_name_H-M	'P1'
_symmetry_Int_Tables_number	1
_symmetry_cell_setting	triclinic
loop_
_symmetry_equiv_pos_as_xyz
  x,y,z
_cell_length_a	13.339070
_cell_length_b	10.540510
_cell_length_c	12.376457
_cell_angle_alpha	101.392640
_cell_angle_beta	75.589755
_cell_angle_gamma	100.071303
loop_
_atom_site_label
_atom_site_type_symbol
_atom_site_fract_x
_atom_site_fract_y
_atom_site_fract_z
O1	O	1.366116	0.620433	-0.094023
O2	O	1.070991	0.536695	-0.094020
O3	O	1.225302	0.396156	-0.094021
O4	O	1.211805	0.760973	-0.094022
O5	O	1.186738	0.431229	0.093991
O6	O	1.032426	0.571768	0.093993
O7	O	1.327552	0.655506	0.093989
Zn8	Zn	1.173866	0.619206	0.123842
Zn9	Zn	1.224677	0.572995	-0.123872
O10	O	1.173240	0.796046	0.093991
C11	C	1.013918	0.540087	-0.000013
C12	C	0.901315	0.497924	-0.000012
C13	C	1.205015	0.366045	-0.000017
C14	C	1.202007	0.224068	-0.000024
C15	C	0.538867	0.825758	-0.000030
C16	C	0.644663	0.865375	-0.000035
C17	C	0.708831	0.773516	-0.000029
C18	C	0.667193	0.642032	-0.000019
C19	C	0.561388	0.602409	-0.000023
C20	C	0.731352	0.550167	-0.000021
C21	C	0.689714	0.418683	-0.000011
C22	C	0.583918	0.379067	-0.000015
C23	C	0.519751	0.470927	-0.000021
C24	C	0.837157	0.589790	-0.000017
C25	C	0.859678	0.366441	-0.000010
C26	C	0.753882	0.326824	-0.000005
C27	C	1.309118	0.043232	0.000405
C28	C	1.312416	0.190842	-0.000024
C29	C	1.167509	0.140017	-0.107385
C30	C	1.165099	-0.007587	-0.107469
C31	C	1.118944	0.031705	0.106336
C32	C	1.123891	0.180095	0.107749
C33	C	1.384625	0.652114	-0.000020
C34	C	1.497230	0.694276	-0.000028
C35	C	1.193528	0.826156	-0.000016
C36	C	1.196538	0.968131	-0.000016
N37	N	1.139197	0.650745	0.292901
N38	N	1.259354	0.541449	-0.292931
C39	C	1.339832	0.468211	0.647884
C40	C	1.364092	0.446135	0.529544
C41	C	1.307870	0.497285	0.470377
C42	C	1.227385	0.570516	0.529562
C43	C	1.203128	0.592604	0.647914
C44	C	1.171166	0.621678	0.470407
C45	C	1.090681	0.694909	0.529592
C46	C	1.066428	0.716992	0.647932
C47	C	1.122650	0.665842	0.707099
C48	C	1.195422	0.599590	0.352056
C49	C	1.058718	0.723983	0.352086
C50	C	1.034459	0.746060	0.470426
H51	H	0.871048	0.696846	-0.000021
H52	H	0.486615	0.900534	-0.000045
H53	H	0.550023	0.272002	-0.000019
H54	H	1.102896	0.683811	0.803461
H55	H	1.000900	0.776633	0.696121
Br56	Br	1.416138	0.398818	0.728181
Br57	Br	1.165272	0.275849	0.240135
H58	H	1.041954	0.202896	0.114233
Br59	Br	0.852414	0.827285	-0.000034
H60	H	0.433601	0.438676	-0.000017
H61	H	0.678559	0.972428	-0.000052
H62	H	1.260954	0.539965	0.303878
Br63	Br	0.697359	0.148387	0.000010
Br64	Br	1.033402	0.171582	-0.114049
H65	H	0.968926	0.805687	0.518629
Br66	Br	0.982419	0.793417	0.271797
Br67	Br	0.946757	0.241763	-0.000016
H68	H	1.340853	0.249616	0.076935
Br69	Br	1.354496	0.021690	0.128738
H70	H	1.035899	-0.018565	0.107060
H71	H	1.367588	0.000022	-0.076154
H72	H	1.372709	0.220027	-0.077119
H73	H	1.083516	-0.059637	-0.112333
Br74	Br	1.256919	-0.077631	-0.241229
Br75	Br	1.149206	0.005958	0.241969
Br76	Br	1.260244	0.188892	-0.240561
H77	H	1.429623	0.386512	0.481360
H78	H	1.327626	0.479307	0.374019
