data_functionalizedCrystal
_audit_creation_method	'MofGen! by Chris Wilmer'
_symmetry_space_group_name_H-M	'P1'
_symmetry_Int_Tables_number	1
_symmetry_cell_setting	triclinic
loop_
_symmetry_equiv_pos_as_xyz
  x,y,z
_cell_length_a	10.540539
_cell_length_b	10.654550
_cell_length_c	9.730223
_cell_angle_alpha	89.995071
_cell_angle_beta	89.998382
_cell_angle_gamma	95.494789
loop_
_atom_site_label
_atom_site_type_symbol
_atom_site_fract_x
_atom_site_fract_y
_atom_site_fract_z
O1	O	1.685816	-0.176993	0.114225
O2	O	1.316397	-0.193670	0.114242
O3	O	1.509600	-0.002595	0.114224
O4	O	1.492613	-0.368068	0.114242
O5	O	1.509598	-0.002586	-0.114356
O6	O	1.316395	-0.193661	-0.114338
O7	O	1.685814	-0.176985	-0.114355
Zn8	Zn	1.501105	-0.185321	-0.150639
Zn9	Zn	1.501107	-0.185333	0.150525
O10	O	1.492611	-0.368059	-0.114338
C11	C	1.269094	-0.192415	-0.000046
C12	C	1.128147	-0.188673	-0.000040
C13	C	1.508352	0.044208	-0.000065
C14	C	1.504620	0.183652	-0.000063
N15	N	1.501112	-0.185313	-0.356175
C16	C	0.944772	-0.045302	-0.000581
C17	C	1.091388	-0.049095	-0.000051
C18	C	1.066451	-0.255849	0.130489
C19	C	0.919908	-0.251085	0.130584
C20	C	0.919417	-0.253915	-0.129354
C21	C	1.066399	-0.255200	-0.131065
C22	C	1.733118	-0.178240	-0.000064
C23	C	1.874064	-0.181981	-0.000062
C24	C	1.493859	-0.414862	-0.000045
C25	C	1.497591	-0.554306	-0.000039
C26	C	1.618375	0.263098	-0.000067
C27	C	1.614861	0.394120	-0.000050
C28	C	1.383827	0.366238	-0.000030
C29	C	1.387343	0.235218	-0.000037
N30	N	1.501109	-0.185332	0.356062
C31	C	1.586822	-0.100892	0.427980
C32	C	1.586827	-0.100885	0.571863
C33	C	1.415396	-0.269762	0.571897
C34	C	1.415398	-0.269774	0.428016
H35	H	0.916205	0.009843	-0.094191
H36	H	1.707492	0.458800	-0.000051
H37	H	0.872154	-0.354731	-0.130231
H38	H	1.288344	0.408240	-0.000012
O39	O	1.670202	-0.018825	0.358295
C40	C	1.745831	0.055727	0.452633
H41	H	1.747621	0.004212	0.555203
H42	H	1.703977	0.149513	0.467924
C43	C	1.880366	0.143336	0.270494
C44	C	1.882574	0.080059	0.396469
H45	H	1.964714	0.158351	0.235849
H46	H	1.829411	0.093113	0.206935
H47	H	1.845482	0.221483	0.283254
H48	H	1.917443	0.001907	0.383705
H49	H	1.933538	0.130270	0.460025
O50	O	1.117359	-0.200009	0.246242
C51	C	1.208782	-0.100285	0.209684
H52	H	1.188240	-0.066643	0.101436
H53	H	1.307950	-0.134524	0.212873
C54	C	1.227666	-0.031867	0.444618
C55	C	1.202429	0.009461	0.311670
H56	H	1.223753	0.035828	0.507531
H57	H	1.166076	-0.099055	0.469250
H58	H	1.310305	-0.060399	0.447256
H59	H	1.119786	0.037977	0.309030
H60	H	1.264006	0.076657	0.287040
O61	O	1.093132	-0.378106	0.136549
C62	C	1.160369	-0.397987	0.258673
H63	H	1.139824	-0.323673	0.337803
H64	H	1.266957	-0.390555	0.236103
C65	C	1.142816	-0.621401	0.218481
C66	C	1.117574	-0.530134	0.315674
H67	H	1.116424	-0.702917	0.253640
H68	H	1.097522	-0.608007	0.136201
H69	H	1.231640	-0.615192	0.199681
H70	H	1.028750	-0.536334	0.334459
H71	H	1.162853	-0.543532	0.397959
O72	O	1.732402	0.213212	-0.000015
C73	C	1.832050	0.311436	-0.000045
H74	H	1.795676	0.400738	0.043233
H75	H	1.867199	0.329669	-0.109705
C76	C	1.987232	0.163782	0.036442
C77	C	1.942558	0.273463	0.089607
H78	H	2.055402	0.140359	0.091737
H79	H	1.920098	0.097606	0.036457
H80	H	2.016513	0.178991	-0.054941
H81	H	1.913263	0.258248	0.180981
H82	H	2.009690	0.339636	0.089609
O83	O	1.141311	0.014557	0.111619
C84	C	1.228097	0.115703	0.068178
H85	H	1.204688	0.142647	-0.041685
H86	H	1.329165	0.086174	0.072342
C87	C	1.246744	0.196587	0.298442
C88	C	1.217986	0.229687	0.163511
H89	H	1.240513	0.266897	0.357250
H90	H	1.188279	0.128441	0.327711
H91	H	1.330966	0.171978	0.301893
H92	H	1.133761	0.254280	0.160059
H93	H	1.276437	0.297840	0.134243
H94	H	1.656623	-0.032128	0.630415
H95	H	1.090588	-0.356962	-0.138941
O96	O	1.332178	-0.351655	0.642009
C97	C	1.350572	-0.333558	0.784424
H98	H	1.397324	-0.234226	0.804055
H99	H	1.414709	-0.405384	0.825273
C100	C	1.163448	-0.472947	0.834184
C101	C	1.220860	-0.350942	0.858295
H102	H	1.083438	-0.483676	0.879753
H103	H	1.151058	-0.485144	0.738236
H104	H	1.216909	-0.532788	0.868225
H105	H	1.167407	-0.291104	0.824239
H106	H	1.233238	-0.338736	0.954239
H107	H	1.134021	0.003762	-0.093620
O108	O	0.862685	-0.370844	0.137922
C109	C	0.900688	-0.428422	0.259704
H110	H	0.933414	-0.352619	0.338076
H111	H	0.982524	-0.487685	0.236132
C112	C	0.747250	-0.606761	0.222451
C113	C	0.787435	-0.513658	0.318713
H114	H	0.677394	-0.659343	0.258848
H115	H	0.721650	-0.567972	0.140401
H116	H	0.815457	-0.656133	0.202816
H117	H	0.719234	-0.464278	0.338333
H118	H	0.813022	-0.552441	0.400768
H119	H	0.914585	0.009603	0.092502
H120	H	0.891717	-0.201444	0.228150
O121	O	0.881867	-0.200208	-0.247525
C122	C	0.924043	-0.266845	-0.361304
H123	H	0.940560	-0.366683	-0.328430
H124	H	1.016950	-0.216681	-0.401808
C125	C	0.802014	-0.149909	-0.515661
C126	C	0.822290	-0.272536	-0.475287
H127	H	0.739252	-0.153416	-0.585974
H128	H	0.773602	-0.105011	-0.439007
H129	H	0.879444	-0.108120	-0.549405
H130	H	0.744864	-0.314318	-0.441528
H131	H	0.850686	-0.317442	-0.551938
H132	H	1.107378	-0.206126	-0.227630
H133	H	1.294704	0.170530	-0.000029
H134	H	1.345600	-0.338541	0.369456
