data_functionalizedCrystal
_audit_creation_method	'MofGen! by Chris Wilmer'
_symmetry_space_group_name_H-M	'P1'
_symmetry_Int_Tables_number	1
_symmetry_cell_setting	triclinic
loop_
_symmetry_equiv_pos_as_xyz
  x,y,z
_cell_length_a	27.732048
_cell_length_b	27.731996
_cell_length_c	12.503572
_cell_angle_alpha	93.487301
_cell_angle_beta	86.516589
_cell_angle_gamma	82.632022
loop_
_atom_site_label
_atom_site_type_symbol
_atom_site_fract_x
_atom_site_fract_y
_atom_site_fract_z
O1	O	0.643721	0.054705	-0.089195
O2	O	1.143721	0.554705	0.410805
O3	O	0.502927	0.063450	-0.089229
O4	O	1.002927	0.563450	0.410771
O5	O	0.577709	-0.011320	-0.089188
O6	O	1.077709	0.488680	0.410812
O7	O	0.568939	0.129475	-0.089236
O8	O	1.068939	0.629475	0.410764
O9	O	0.572085	-0.005688	0.089451
O10	O	1.072085	0.494312	0.589451
O11	O	0.497303	0.069082	0.089410
O12	O	0.997303	0.569082	0.589410
O13	O	0.638097	0.060337	0.089444
O14	O	1.138097	0.560337	0.589444
Cu15	Cu	0.567187	0.065224	0.105738
Cu16	Cu	1.067187	0.565224	0.605738
Cu17	Cu	0.573838	0.058563	-0.105523
Cu18	Cu	1.073838	0.558563	0.394477
O19	O	0.563315	0.135108	0.089403
O20	O	1.063315	0.635108	0.589403
C21	C	0.482108	0.066082	0.000086
C22	C	0.982108	0.566082	0.500086
C23	C	0.428454	0.065529	0.000074
C24	C	0.928454	0.565529	0.500074
C25	C	0.089630	0.106235	0.000107
C26	C	0.589630	0.606235	0.500107
C27	C	-0.112029	0.104184	0.000117
C28	C	0.387971	0.604184	0.500117
O29	O	-0.143293	0.141407	0.000151
O30	O	0.356707	0.641407	0.500151
N31	N	-0.131145	0.059848	0.000130
N32	N	0.368855	0.559848	0.500130
C33	C	-0.099843	0.016022	0.000148
C34	C	0.400157	0.516022	0.500148
O35	O	-0.120730	-0.021735	0.000171
O36	O	0.379270	0.478265	0.500171
C37	C	0.101816	0.018074	0.000146
C38	C	0.601816	0.518074	0.500146
C39	C	0.120929	0.062412	0.000121
C40	C	0.620929	0.562412	0.500121
C41	C	0.108744	0.150570	0.000084
C42	C	0.608744	0.650570	0.500084
C43	C	0.159156	0.151082	0.000075
C44	C	0.659156	0.651082	0.500075
C45	C	0.190455	0.107259	0.000090
C46	C	0.690455	0.607259	0.500090
C47	C	0.171341	0.062924	0.000113
C48	C	0.671341	0.562924	0.500113
C49	C	0.133117	-0.025752	0.000171
C50	C	0.633117	0.474248	0.500171
C51	C	0.183534	-0.025235	0.000173
C52	C	0.683534	0.474765	0.500173
C53	C	0.202647	0.019103	0.000149
C54	C	0.702647	0.519103	0.500149
C55	C	0.253051	0.019613	0.000119
C56	C	0.753051	0.519613	0.500119
N57	N	0.272167	0.063949	0.000106
N58	N	0.772167	0.563949	0.500106
C59	C	0.240869	0.107772	0.000091
C60	C	0.740869	0.607772	0.500091
C61	C	-0.205717	0.014948	0.000147
C62	C	0.294283	0.514948	0.500147
C63	C	-0.256131	0.014435	0.000146
C64	C	0.243869	0.514435	0.500146
C65	C	-0.268314	0.102597	0.000117
C66	C	0.231686	0.602597	0.500117
C67	C	-0.217898	0.103110	0.000110
C68	C	0.282102	0.603110	0.500110
C69	C	-0.186601	0.059284	0.000134
C70	C	0.313399	0.559284	0.500134
C71	C	0.346738	0.108844	0.000072
C72	C	0.846738	0.608844	0.500072
C73	C	0.397156	0.109352	0.000059
C74	C	0.897156	0.609352	0.500059
C75	C	0.409334	0.021190	0.000094
C76	C	0.909334	0.521190	0.500094
C77	C	0.358921	0.020682	0.000102
C78	C	0.858921	0.520682	0.500102
C79	C	0.327624	0.064513	0.000094
C80	C	0.827624	0.564513	0.500094
O81	O	0.284343	-0.017589	0.000097
O82	O	0.784343	0.482411	0.500097
O83	O	0.261764	0.145524	0.000092
O84	O	0.761764	0.645524	0.500092
C85	C	0.039218	0.105723	0.000115
C86	C	0.539218	0.605723	0.500115
C87	C	0.020105	0.061388	0.000138
C88	C	0.520105	0.561388	0.500138
C89	C	0.051403	0.017565	0.000153
C90	C	0.551403	0.517565	0.500153
C91	C	-0.030310	0.060875	0.000137
C92	C	0.469690	0.560875	0.500137
C93	C	-0.061608	0.104698	0.000122
C94	C	0.438392	0.604698	0.500122
C95	C	-0.042492	0.149034	0.000109
C96	C	0.457508	0.649034	0.500109
C97	C	0.007920	0.149546	0.000100
C98	C	0.507920	0.649546	0.500100
C99	C	0.032287	-0.026771	0.000166
C100	C	0.532287	0.473229	0.500166
C101	C	-0.018126	-0.027279	0.000173
C102	C	0.481874	0.472721	0.500173
C103	C	-0.049424	0.016544	0.000159
C104	C	0.450576	0.516544	0.500159
C105	C	0.574717	-0.026511	0.000135
C106	C	1.074717	0.473489	0.500135
C107	C	0.574174	-0.080167	0.000146
C108	C	1.074174	0.419833	0.500146
C109	C	0.573827	-0.415956	-0.097283
C110	C	1.073827	0.084044	0.402717
C111	C	0.571766	-0.617614	-0.097302
C112	C	1.071766	-0.117614	0.402698
O113	O	0.574086	-0.646296	-0.180118
O114	O	1.074086	-0.146296	0.319882
N115	N	0.568445	-0.639761	0.000073
N116	N	1.068445	-0.139761	0.500073
C117	C	0.565635	-0.611490	0.097459
C118	C	1.065635	-0.111490	0.597459
O119	O	0.562757	-0.634954	0.180282
O120	O	1.062757	-0.134954	0.680282
C121	C	0.567692	-0.409831	0.097478
C122	C	1.067692	0.090169	0.597478
C123	C	0.571018	-0.387688	0.000096
C124	C	1.071018	0.112312	0.500096
C125	C	0.577153	-0.393812	-0.194657
C126	C	1.077153	0.106188	0.305343
C127	C	0.577670	-0.343400	-0.194651
C128	C	1.077670	0.156600	0.305349
C129	C	0.574862	-0.315133	-0.097271
C130	C	1.074862	0.184867	0.402729
C131	C	0.571536	-0.337277	0.000102
C132	C	1.071536	0.162723	0.500102
C133	C	0.564878	-0.381560	0.194863
C134	C	1.064878	0.118440	0.694863
C135	C	0.565392	-0.331143	0.194859
C136	C	1.065392	0.168857	0.694859
C137	C	0.568718	-0.308999	0.097478
C138	C	1.068718	0.191001	0.597478
C139	C	0.569245	-0.258598	0.097487
C140	C	1.069245	0.241402	0.597487
N141	N	0.572567	-0.236451	0.000112
N142	N	1.072567	0.263549	0.500112
C143	C	0.575375	-0.264718	-0.097267
C144	C	1.075375	0.235282	0.402733
C145	C	0.564556	-0.717364	0.097443
C146	C	1.064556	-0.217364	0.597443
C147	C	0.564042	-0.767778	0.097439
C148	C	1.064042	-0.267778	0.597439
C149	C	0.570173	-0.773899	-0.097324
C150	C	1.070173	-0.273899	0.402676
C151	C	0.570690	-0.723484	-0.097318
C152	C	1.070690	-0.223484	0.402682
C153	C	0.567878	-0.695217	0.000068
C154	C	1.067878	-0.195217	0.500068
C155	C	0.576463	-0.158851	-0.097248
C156	C	1.076463	0.341149	0.402752
C157	C	0.576982	-0.108435	-0.097233
C158	C	1.076982	0.391565	0.402767
C159	C	0.570849	-0.102318	0.097529
C160	C	1.070849	0.397682	0.597529
C161	C	0.570332	-0.152730	0.097515
C162	C	1.070332	0.347270	0.597515
C163	C	0.573138	-0.180995	0.000118
C164	C	1.073138	0.319005	0.500118
O165	O	0.566922	-0.229886	0.180259
O166	O	1.066922	0.270114	0.680259
O167	O	0.578242	-0.241244	-0.180078
O168	O	1.078242	0.258756	0.319922
C169	C	0.573309	-0.466367	-0.097289
C170	C	1.073309	0.033633	0.402711
C171	C	0.569983	-0.488511	0.000085
C172	C	1.069983	0.011489	0.500085
C173	C	0.567175	-0.460243	0.097464
C174	C	1.067175	0.039757	0.597464
C175	C	0.569470	-0.538925	0.000080
C176	C	1.069470	-0.038925	0.500080
C177	C	0.572278	-0.567193	-0.097299
C178	C	1.072278	-0.067193	0.402701
C179	C	0.575600	-0.545046	-0.194674
C180	C	1.075600	-0.045046	0.305326
C181	C	0.576117	-0.494634	-0.194668
C182	C	1.076117	0.005366	0.305332
C183	C	0.563853	-0.482390	0.194839
C184	C	1.063853	0.017610	0.694839
C185	C	0.563336	-0.532802	0.194825
C186	C	1.063336	-0.032802	0.694825
C187	C	0.566144	-0.561069	0.097446
C188	C	1.066144	-0.061069	0.597446
C189	C	0.658916	0.057705	0.000126
C190	C	1.158916	0.557705	0.500126
C191	C	0.712571	0.058258	0.000131
C192	C	1.212571	0.558258	0.500131
C193	C	0.566307	0.150299	0.000077
C194	C	1.066307	0.650299	0.500077
C195	C	0.566851	0.203954	0.000059
C196	C	1.066851	0.703954	0.500059
N197	N	0.562512	0.069909	0.254328
N198	N	1.062512	0.569909	0.754328
N199	N	0.578516	0.053875	-0.254113
N200	N	1.078516	0.553875	0.245887
C201	C	0.555636	0.076804	0.473439
C202	C	1.055636	0.576804	0.973439
C203	C	0.585391	0.046981	0.526783
C204	C	1.085391	0.546981	1.026783
C205	C	0.581565	0.050818	0.648704
C206	C	1.081565	0.550818	1.148704
C207	C	0.559461	0.072968	0.351507
C208	C	1.059461	0.572968	0.851507
H209	H	-0.033682	-0.063388	0.000185
H210	H	0.466318	0.436612	0.500185
N211	N	0.217289	-0.072507	0.000188
N212	N	0.717289	0.427493	0.500188
H213	H	0.252128	-0.065458	0.000181
H214	H	0.752128	0.434542	0.500181
H215	H	0.209055	-0.089755	0.066422
H216	H	0.709055	0.410245	0.566422
N217	N	0.622943	0.009343	0.465999
N218	N	1.122943	0.509343	0.965999
H219	H	0.620390	0.011901	0.386256
H220	H	1.120390	0.511901	0.886256
H221	H	0.656600	0.015241	0.485587
H222	H	1.156600	0.515241	0.985587
N223	N	0.066041	-0.074039	0.000190
N224	N	0.566041	0.425961	0.500190
H225	H	0.046276	-0.102200	0.000202
H226	H	0.546276	0.397800	0.500202
H227	H	0.089304	-0.077838	-0.066036
H228	H	0.589304	0.422162	0.433964
H229	H	0.562170	-0.399581	0.274162
H230	H	1.062170	0.100419	0.774162
H231	H	0.579693	-0.090409	-0.176536
H232	H	1.079693	0.409591	0.323464
N233	N	0.579502	-0.189334	-0.202294
N234	N	1.079502	0.310666	0.297706
H235	H	0.581693	-0.167651	-0.263970
H236	H	1.081693	0.332349	0.236030
H237	H	0.609403	-0.214525	-0.206512
H238	H	1.109403	0.285475	0.293488
N239	N	-0.171968	-0.032328	0.000160
N240	N	0.328032	0.467672	0.500160
H241	H	-0.148697	-0.036171	-0.066061
H242	H	0.351303	0.463829	0.433939
H243	H	-0.152893	-0.031971	0.066426
H244	H	0.347107	0.468029	0.566426
H245	H	0.527290	0.105216	0.519331
H246	H	1.027290	0.605216	1.019331
H247	H	-0.293806	0.138280	0.000105
H248	H	0.206194	0.638280	0.500105
N249	N	0.112508	-0.073573	0.000207
N250	N	0.612508	0.426427	0.500207
H251	H	0.126029	-0.094847	-0.066001
H252	H	0.626029	0.405153	0.433999
H253	H	0.121873	-0.090619	0.066486
H254	H	0.621873	0.409381	0.566486
N255	N	0.417766	0.157178	0.000027
N256	N	0.917766	0.657178	0.500027
H257	H	0.404248	0.178448	0.066242
H258	H	0.904248	0.678448	0.566242
H259	H	0.454451	0.150817	-0.000021
H260	H	0.954451	0.650817	0.499979
N261	N	0.312986	0.156118	0.000090
N262	N	0.812986	0.656118	0.500090
H263	H	0.332751	0.184278	0.000080
H264	H	0.832751	0.684278	0.500080
H265	H	0.293878	0.155748	-0.066124
H266	H	0.793878	0.655748	0.433876
H267	H	0.563094	-0.308129	0.274165
H268	H	1.063094	0.191871	0.774165
H269	H	0.174713	0.187187	0.000055
H270	H	0.674713	0.687187	0.500055
H271	H	0.083265	0.186258	0.000075
H272	H	0.583265	0.686258	0.500075
H273	H	-0.202341	0.139214	0.000097
H274	H	0.297659	0.639214	0.500097
H275	H	-0.271688	-0.021670	0.000149
H276	H	0.228312	0.478330	0.500149
H277	H	0.343359	-0.015423	0.000106
H278	H	0.843359	0.484577	0.500106
H279	H	0.568565	-0.079294	0.176812
H280	H	1.068565	0.420706	0.676812
N281	N	0.443096	-0.026074	0.000111
N282	N	0.943096	0.473926	0.500111
H283	H	0.477932	-0.019018	0.000109
H284	H	0.977932	0.480982	0.500109
H285	H	0.434864	-0.043322	0.066347
H286	H	0.934864	0.456678	0.566347
N287	N	0.028531	0.197368	0.000067
N288	N	0.528531	0.697368	0.500067
H289	H	0.001048	0.225048	0.000057
H290	H	0.501048	0.725048	0.500057
H291	H	0.047102	0.201595	0.066286
H292	H	0.547102	0.701595	0.566286
N293	N	-0.076255	0.196300	0.000086
N294	N	0.423745	0.696300	0.500086
H295	H	-0.111091	0.189243	0.000094
H296	H	0.388909	0.689243	0.500094
H297	H	-0.072186	0.217728	0.066303
H298	H	0.427814	0.717728	0.566303
H299	H	0.579438	-0.416822	-0.273959
H300	H	1.079438	0.083178	0.226041
N301	N	0.581256	-0.319520	-0.299684
N302	N	1.081256	0.180480	0.200316
H303	H	0.582955	-0.345083	-0.361365
H304	H	1.082955	0.154917	0.138635
H305	H	0.551625	-0.294593	-0.303936
H306	H	1.051625	0.205407	0.196064
H307	H	0.573398	-0.705459	-0.176615
H308	H	1.073398	-0.205459	0.323385
H309	H	0.572460	-0.796923	-0.176614
H310	H	1.072460	-0.296923	0.323386
H311	H	0.561341	-0.785804	0.176736
H312	H	1.061341	-0.285804	0.676736
H313	H	0.578826	-0.476610	-0.273966
H314	H	1.078826	0.023390	0.226034
H315	H	0.562268	-0.694353	0.176751
H316	H	1.062268	-0.194353	0.676751
H317	H	0.567628	-0.170760	0.176811
H318	H	1.067628	0.329240	0.676811
H319	H	0.577888	-0.568070	-0.273964
H320	H	1.077888	-0.068070	0.226036
N321	N	0.559753	-0.556683	0.299865
N322	N	1.059753	-0.056683	0.799865
H323	H	0.558052	-0.531121	0.361550
H324	H	1.058052	-0.031121	0.861550
H325	H	0.529426	-0.573318	0.304098
H326	H	1.029426	-0.073318	0.804098
N327	N	0.560826	-0.451906	0.299875
N328	N	1.060826	0.048094	0.799875
H329	H	0.558644	-0.473590	0.361552
H330	H	1.058644	0.026410	0.861552
H331	H	0.590886	-0.435004	0.304126
H332	H	1.090886	0.064996	0.804126
