data_functionalizedCrystal
_audit_creation_method	'MofGen! by Chris Wilmer'
_symmetry_space_group_name_H-M	'P1'
_symmetry_Int_Tables_number	1
_symmetry_cell_setting	triclinic
loop_
_symmetry_equiv_pos_as_xyz
  x,y,z
_cell_length_a	6.817900
_cell_length_b	14.858565
_cell_length_c	12.200875
_cell_angle_alpha	93.921261
_cell_angle_beta	107.143593
_cell_angle_gamma	104.523916
loop_
_atom_site_label
_atom_site_type_symbol
_atom_site_fract_x
_atom_site_fract_y
_atom_site_fract_z
V1	V	-4.073571	-0.128881	-0.357981
V2	V	-3.823571	0.121119	-0.107981
V3	V	-3.573571	0.371119	0.142019
V4	V	-3.323571	0.621119	0.392019
O5	O	-4.054796	0.005976	-0.350838
O6	O	-3.804796	0.255976	-0.100838
O7	O	-3.554796	0.505976	0.149162
O8	O	-3.304796	0.755976	0.399162
O9	O	-4.029959	-0.255341	-0.355850
O10	O	-3.779959	-0.005341	-0.105850
O11	O	-3.529959	0.244659	0.144150
O12	O	-3.279959	0.494659	0.394150
O13	O	-4.043217	-0.126994	-0.513965
O14	O	-3.793217	0.123006	-0.263965
O15	O	-3.543217	0.373006	-0.013965
O16	O	-3.293217	0.623006	0.236035
O17	O	-4.041446	-0.123259	-0.191628
O18	O	-3.791446	0.126741	0.058372
O19	O	-3.541446	0.376741	0.308372
O20	O	-3.291446	0.626741	0.558372
V21	V	-4.554240	-0.112740	-0.338046
V22	V	-4.304240	0.137260	-0.088046
V23	V	-4.054240	0.387260	0.161954
V24	V	-3.804240	0.637260	0.411954
O25	O	-4.341090	-0.164290	-0.401712
O26	O	-4.091090	0.085710	-0.151712
O27	O	-3.841090	0.335710	0.098288
O28	O	-3.591090	0.585710	0.348288
O29	O	-4.736919	-0.077331	-0.294315
O30	O	-4.486919	0.172669	-0.044315
O31	O	-4.236919	0.422669	0.205685
O32	O	-3.986919	0.672669	0.455685
O33	O	-4.374646	0.013720	-0.340177
O34	O	-4.124646	0.263720	-0.090177
O35	O	-3.874646	0.513720	0.159823
O36	O	-3.624646	0.763720	0.409823
O37	O	-4.690413	-0.247597	-0.345189
O38	O	-4.440413	0.002403	-0.095189
O39	O	-4.190413	0.252403	0.154811
O40	O	-3.940413	0.502403	0.404811
O41	O	-4.703762	-0.118362	-0.504399
O42	O	-4.453762	0.131638	-0.254399
O43	O	-4.203762	0.381638	-0.004399
O44	O	-3.953762	0.631638	0.245601
O45	O	-4.361388	-0.114627	-0.182062
O46	O	-4.111388	0.135373	0.067938
O47	O	-3.861388	0.385373	0.317938
O48	O	-3.611388	0.635373	0.567938
C49	C	-3.875541	-0.286166	-0.350284
C50	C	-3.625541	-0.036166	-0.100284
C51	C	-3.375541	0.213834	0.149716
C52	C	-3.125541	0.463834	0.399716
C53	C	-3.921290	-0.389549	-0.349581
C54	C	-3.671290	-0.139549	-0.099581
C55	C	-3.421290	0.110451	0.150419
C56	C	-3.171290	0.360451	0.400419
C57	C	-3.892452	-0.122446	-0.551974
C58	C	-3.642452	0.127554	-0.301974
C59	C	-3.392452	0.377554	-0.051974
C60	C	-3.142452	0.627554	0.198026
C61	C	-3.948949	-0.121740	-0.679494
C62	C	-3.698949	0.128260	-0.429494
C63	C	-3.448949	0.378260	-0.179494
C64	C	-3.198949	0.628260	0.070506
C65	C	-4.052348	-0.120448	-0.912965
C66	C	-3.802348	0.129552	-0.662965
C67	C	-3.552348	0.379552	-0.412965
C68	C	-3.302348	0.629552	-0.162965
C69	C	-3.994801	-0.121167	-0.783045
C70	C	-3.744801	0.128833	-0.533045
C71	C	-3.494801	0.378833	-0.283045
C72	C	-3.244801	0.628833	-0.033045
C73	C	-4.088740	-0.768119	-0.347022
C74	C	-3.838740	-0.518119	-0.097022
C75	C	-3.588740	-0.268119	0.152978
C76	C	-3.338740	-0.018119	0.402978
C77	C	-4.042142	-0.662789	-0.347733
C78	C	-3.792142	-0.412789	-0.097733
C79	C	-3.542142	-0.162789	0.152267
C80	C	-3.292142	0.087211	0.402267
C81	C	-4.005016	-0.578837	-0.348300
C82	C	-3.755016	-0.328837	-0.098300
C83	C	-3.505016	-0.078837	0.151700
C84	C	-3.255016	0.171163	0.401700
C85	C	-3.958416	-0.473501	-0.349014
C86	C	-3.708416	-0.223501	-0.099014
C87	C	-3.458416	0.026499	0.150986
C88	C	-3.208416	0.276499	0.400986
C89	C	-4.192406	0.044540	-0.345740
C90	C	-3.942406	0.294540	-0.095740
C91	C	-3.692406	0.544540	0.154260
C92	C	-3.442406	0.794540	0.404260
C93	C	-4.125896	0.147922	-0.346451
C94	C	-3.875896	0.397922	-0.096451
C95	C	-3.625896	0.647922	0.153549
C96	C	-3.375896	0.897922	0.403549
C97	C	-4.175495	-0.119178	-0.144047
C98	C	-3.925495	0.130822	0.105953
C99	C	-3.675495	0.380822	0.355953
C100	C	-3.425495	0.630822	0.605953
C101	C	-4.098235	-0.119879	-0.016526
C102	C	-3.848235	0.130121	0.233474
C103	C	-3.598235	0.380121	0.483474
C104	C	-3.348235	0.630121	0.733474
