data_functionalizedCrystal
_audit_creation_method	'MofGen! by Chris Wilmer'
_symmetry_space_group_name_H-M	'P1'
_symmetry_Int_Tables_number	1
_symmetry_cell_setting	triclinic
loop_
_symmetry_equiv_pos_as_xyz
  x,y,z
_cell_length_a	16.625547
_cell_length_b	19.805406
_cell_length_c	19.805399
_cell_angle_alpha	89.985648
_cell_angle_beta	89.977137
_cell_angle_gamma	89.999905
loop_
_atom_site_label
_atom_site_type_symbol
_atom_site_fract_x
_atom_site_fract_y
_atom_site_fract_z
Zn1	Zn	1.232791	-0.269480	-0.382841
Zn2	Zn	1.566124	0.063853	-0.049508
Zn3	Zn	1.899458	0.397187	0.283825
Zn4	Zn	1.232752	-0.382668	-0.269679
Zn5	Zn	1.566085	-0.049335	0.063654
Zn6	Zn	1.899418	0.283998	0.396987
Zn7	Zn	1.097957	-0.269498	-0.269659
Zn8	Zn	1.431291	0.063835	0.063674
Zn9	Zn	1.764624	0.397168	0.397007
Zn10	Zn	1.097976	-0.382632	-0.382819
Zn11	Zn	1.431310	-0.049299	-0.049486
Zn12	Zn	1.764643	0.284035	0.283847
O13	O	1.165369	-0.326070	-0.326250
O14	O	1.498702	0.007264	0.007083
O15	O	1.832036	0.340597	0.340417
O16	O	1.345618	-0.284502	-0.367848
O17	O	1.678952	0.048831	-0.034514
O18	O	2.012285	0.382165	0.298819
O19	O	1.214847	-0.367679	-0.174960
O20	O	1.548180	-0.034346	0.158373
O21	O	1.881513	0.298988	0.491707
O22	O	1.115852	-0.174779	-0.284674
O23	O	1.449185	0.158554	0.048659
O24	O	1.782519	0.491887	0.381993
O25	O	1.345589	-0.367661	-0.284708
O26	O	1.678923	-0.034328	0.048625
O27	O	2.012256	0.299006	0.381959
O28	O	1.214914	-0.174766	-0.367828
O29	O	1.548247	0.158568	-0.034495
O30	O	1.881580	0.491901	0.298838
O31	O	1.115814	-0.284534	-0.174945
O32	O	1.449147	0.048800	0.158388
O33	O	1.782481	0.382133	0.491721
O34	O	0.985128	-0.284499	-0.284653
O35	O	1.318461	0.048835	0.048680
O36	O	1.651794	0.382168	0.382014
O37	O	1.115884	-0.367599	-0.477539
O38	O	1.449217	-0.034266	-0.144206
O39	O	1.782551	0.299067	0.189128
O40	O	0.985141	-0.367617	-0.367791
O41	O	1.318475	-0.034284	-0.034458
O42	O	1.651808	0.299049	0.298876
O43	O	1.214932	-0.284467	-0.477555
O44	O	1.548265	0.048866	-0.144222
O45	O	1.881598	0.382200	0.189112
O46	O	1.214865	-0.477380	-0.284687
O47	O	1.548198	-0.144047	0.048647
O48	O	1.881532	0.189287	0.381980
O49	O	1.115846	-0.477353	-0.367810
O50	O	1.449179	-0.144020	-0.034477
O51	O	1.782513	0.189313	0.298856
C52	C	0.955878	-0.326057	-0.326218
C53	C	1.289212	0.007277	0.007115
C54	C	1.622545	0.340610	0.340449
C55	C	0.866257	-0.326067	-0.326220
C56	C	1.199590	0.007266	0.007113
C57	C	1.532924	0.340599	0.340446
C58	C	0.793475	-0.326069	-0.326229
C59	C	1.126808	0.007265	0.007105
C60	C	1.460141	0.340598	0.340438
C61	C	0.702166	-0.326072	-0.326246
C62	C	1.035500	0.007261	0.007088
C63	C	1.368833	0.340595	0.340421
C64	C	0.629390	-0.326078	-0.326263
C65	C	0.962723	0.007255	0.007071
C66	C	1.296056	0.340588	0.340404
C67	C	0.538076	-0.326083	-0.326279
C68	C	0.871409	0.007250	0.007054
C69	C	1.204742	0.340584	0.340388
C70	C	1.165375	-0.501926	-0.326263
C71	C	1.498708	-0.168592	0.007070
C72	C	1.832042	0.164741	0.340404
C73	C	1.165451	-0.577158	-0.326291
C74	C	1.498785	-0.243824	0.007042
C75	C	1.832118	0.089509	0.340375
C76	C	1.165414	-0.326027	-0.502793
C77	C	1.498748	0.007306	-0.169459
C78	C	1.832081	0.340640	0.163874
C79	C	1.165434	-0.326009	-0.578025
C80	C	1.498767	0.007324	-0.244691
C81	C	1.832100	0.340658	0.088642
C82	C	1.375678	-0.326083	-0.326282
C83	C	1.709011	0.007250	0.007051
C84	C	2.042345	0.340583	0.340384
C85	C	1.465299	-0.326089	-0.326296
C86	C	1.798632	0.007244	0.007037
C87	C	2.131966	0.340577	0.340370
C88	C	1.165385	-0.149527	-0.326251
C89	C	1.498718	0.183806	0.007082
C90	C	1.832052	0.517140	0.340415
C91	C	1.165392	-0.074295	-0.326252
C92	C	1.498725	0.259038	0.007081
C93	C	1.832059	0.592372	0.340415
C94	C	1.113822	-0.038957	-0.282960
C95	C	1.447155	0.294376	0.050373
C96	C	1.780489	0.627710	0.383707
C97	C	1.113827	0.031732	-0.282967
C98	C	1.447161	0.365065	0.050366
C99	C	1.780494	0.698398	0.383699
C100	C	1.165407	0.067081	-0.326264
C101	C	1.498740	0.400414	0.007069
C102	C	1.832073	0.733747	0.340403
C103	C	1.216979	0.031738	-0.369561
C104	C	1.550312	0.365071	-0.036228
C105	C	1.883645	0.698404	0.297106
C106	C	1.216969	-0.038950	-0.369557
C107	C	1.550302	0.294384	-0.036223
C108	C	1.883636	0.627717	0.297110
C109	C	1.217018	0.316811	-0.369581
C110	C	1.550352	0.650144	-0.036248
C111	C	1.883685	0.983477	0.297086
C112	C	1.217026	0.387503	-0.369581
C113	C	1.550359	0.720836	-0.036247
C114	C	1.883692	1.054170	0.297086
C115	C	1.113877	0.387492	-0.282992
C116	C	1.447210	0.720825	0.050342
C117	C	1.780543	1.054159	0.383675
C118	C	1.113867	0.316805	-0.282987
C119	C	1.447200	0.650138	0.050346
C120	C	1.780534	0.983472	0.383680
C121	C	1.165435	0.281468	-0.326286
C122	C	1.498769	0.614801	0.007047
C123	C	1.832102	0.948135	0.340380
C124	C	1.165428	0.204820	-0.326279
C125	C	1.498762	0.538153	0.007055
C126	C	1.832095	0.871486	0.340388
C127	C	1.165419	0.143728	-0.326269
C128	C	1.498752	0.477061	0.007064
C129	C	1.832085	0.810394	0.340398
C130	C	1.217009	-0.282720	-0.613378
C131	C	1.550342	0.050614	-0.280045
C132	C	1.883676	0.383947	0.053288
C133	C	1.217017	-0.282700	-0.684067
C134	C	1.550351	0.050633	-0.350733
C135	C	1.883684	0.383967	-0.017400
C136	C	1.165454	-0.325974	-0.719400
C137	C	1.498787	0.007360	-0.386067
C138	C	1.832120	0.340693	-0.052734
C139	C	1.113872	-0.369265	-0.684042
C140	C	1.447206	-0.035931	-0.350708
C141	C	1.780539	0.297402	-0.017375
C142	C	1.113861	-0.369280	-0.613355
C143	C	1.447194	-0.035947	-0.280021
C144	C	1.780527	0.297386	0.053312
C145	C	1.113918	-0.369202	-0.969115
C146	C	1.447251	-0.035868	-0.635782
C147	C	1.780585	0.297465	-0.302449
C148	C	1.113935	-0.369184	-1.039807
C149	C	1.447269	-0.035851	-0.706474
C150	C	1.780602	0.297483	-0.373141
C151	C	1.217074	-0.282621	-1.039827
C152	C	1.550408	0.050712	-0.706494
C153	C	1.883741	0.384045	-0.373161
C154	C	1.217063	-0.282637	-0.969140
C155	C	1.550396	0.050696	-0.635807
C156	C	1.883729	0.384030	-0.302474
C157	C	1.165479	-0.325925	-0.933788
C158	C	1.498812	0.007408	-0.600454
C159	C	1.832146	0.340741	-0.267121
C160	C	1.165470	-0.325945	-0.857139
C161	C	1.498803	0.007388	-0.523806
C162	C	1.832136	0.340722	-0.190473
C163	C	1.165466	-0.325958	-0.796047
C164	C	1.498800	0.007376	-0.462714
C165	C	1.832133	0.340709	-0.129381
C166	C	1.165370	-0.326063	-0.150394
C167	C	1.498704	0.007270	0.182939
C168	C	1.832037	0.340603	0.516273
C169	C	1.165507	-0.325891	-0.075162
C170	C	1.498841	0.007443	0.258171
C171	C	1.832174	0.340776	0.591504
H172	H	1.071835	0.060504	-0.247716
H173	H	1.405168	0.393837	0.085617
H174	H	1.738501	0.727170	0.418951
C175	C	1.273760	0.426389	-0.417211
C176	C	1.607094	0.759722	-0.083878
C177	C	1.940427	1.093056	0.249456
H178	H	1.266385	0.473548	-0.411005
H179	H	1.599718	0.806882	-0.077672
H180	H	1.933051	1.140215	0.255661
H181	H	1.261967	0.414818	-0.462686
H182	H	1.595300	0.748152	-0.129353
H183	H	1.928634	1.081485	0.203981
H184	H	1.327936	0.414798	-0.407314
H185	H	1.661269	0.748131	-0.073980
H186	H	1.994603	1.081464	0.259353
C187	C	1.273747	0.277949	-0.417203
C188	C	1.607080	0.611282	-0.083870
C189	C	1.940414	0.944616	0.249464
H190	H	1.304472	0.309127	-0.442983
H191	H	1.637805	0.642461	-0.109649
H192	H	1.971138	0.975794	0.223684
H193	H	1.242910	0.250383	-0.446690
H194	H	1.576243	0.583716	-0.113357
H195	H	1.909576	0.917050	0.219977
H196	H	1.308872	0.250366	-0.391312
H197	H	1.642206	0.583699	-0.057979
H198	H	1.975539	0.917033	0.275354
C199	C	1.273716	0.070619	-0.417185
C200	C	1.607050	0.403953	-0.083852
C201	C	1.940383	0.737286	0.249481
H202	H	1.266344	0.117780	-0.410983
H203	H	1.599677	0.451113	-0.077650
H204	H	1.933010	0.784446	0.255684
H205	H	1.261929	0.059047	-0.462661
H206	H	1.595262	0.392380	-0.129327
H207	H	1.928595	0.725713	0.204006
H208	H	1.327890	0.059026	-0.407281
H209	H	1.661223	0.392359	-0.073948
H210	H	1.994556	0.725692	0.259385
H211	H	1.071868	0.288027	-0.247728
H212	H	1.405202	0.621361	0.085605
H213	H	1.738535	0.954694	0.418938
H214	H	1.071886	-0.404496	-0.712816
H215	H	1.405219	-0.071163	-0.379483
H216	H	1.738552	0.262170	-0.046149
C217	C	1.057130	-0.416897	-0.574462
C218	C	1.390463	-0.083564	-0.241129
C219	C	1.723797	0.249769	0.092204
H220	H	1.064501	-0.410705	-0.527304
H221	H	1.397835	-0.077371	-0.193970
H222	H	1.731168	0.255962	0.139363
H223	H	1.068924	-0.462374	-0.586046
H224	H	1.402257	-0.129040	-0.252713
H225	H	1.735590	0.204293	0.080620
H226	H	1.002956	-0.406979	-0.586037
H227	H	1.336289	-0.073645	-0.252704
H228	H	1.669622	0.259688	0.080630
H229	H	1.259054	-0.247401	-0.940375
H230	H	1.592387	0.085932	-0.607042
H231	H	1.925721	0.419265	-0.273708
C232	C	1.273700	-0.077822	-0.417174
C233	C	1.607033	0.255512	-0.083841
C234	C	1.940367	0.588845	0.249493
H235	H	1.304427	-0.046646	-0.442956
H236	H	1.637760	0.286687	-0.109623
H237	H	1.971093	0.620020	0.223711
H238	H	1.242862	-0.105389	-0.446659
H239	H	1.576195	0.227944	-0.113325
H240	H	1.909529	0.561277	0.220008
H241	H	1.308824	-0.105403	-0.391281
H242	H	1.642157	0.227930	-0.057947
H243	H	1.975491	0.561263	0.275386
H244	H	1.259001	-0.247483	-0.584615
H245	H	1.592334	0.085850	-0.251281
H246	H	1.925667	0.419183	0.082052
H247	H	1.071943	-0.404424	-1.068574
H248	H	1.405276	-0.071090	-0.735241
H249	H	1.738609	0.262243	-0.401907
C250	C	1.057162	-0.416803	-0.930236
C251	C	1.390495	-0.083469	-0.596903
C252	C	1.723829	0.249864	-0.263570
H253	H	1.026456	-0.442571	-0.961406
H254	H	1.359789	-0.109238	-0.628072
H255	H	1.693123	0.224096	-0.294739
H256	H	1.022033	-0.390900	-0.902665
H257	H	1.355366	-0.057566	-0.569331
H258	H	1.688700	0.275767	-0.235998
H259	H	1.087981	-0.446312	-0.902658
H260	H	1.421314	-0.112978	-0.569324
H261	H	1.754648	0.220355	-0.235991
C262	C	1.273811	-0.234999	-1.078717
C263	C	1.607144	0.098334	-0.745383
C264	C	1.940478	0.431667	-0.412050
H265	H	1.266430	-0.241180	-1.125876
H266	H	1.599763	0.092153	-0.792543
H267	H	1.933097	0.425486	-0.459209
H268	H	1.327982	-0.244914	-1.067143
H269	H	1.661315	0.088419	-0.733810
H270	H	1.994649	0.421753	-0.400477
H271	H	1.262011	-0.189522	-1.067129
H272	H	1.595344	0.143812	-0.733795
H273	H	1.928677	0.477145	-0.400462
H274	H	1.071884	0.416271	-0.247737
H275	H	1.405217	0.749604	0.085596
H276	H	1.738550	1.082938	0.418930
C277	C	1.057082	-0.077835	-0.235335
C278	C	1.390415	0.255499	0.097999
C279	C	1.723748	0.588832	0.431332
H280	H	1.026364	-0.046662	-0.209558
H281	H	1.359697	0.286672	0.123775
H282	H	1.693031	0.620005	0.457109
H283	H	1.087910	-0.105420	-0.205845
H284	H	1.421243	0.227913	0.127488
H285	H	1.754576	0.561247	0.460821
H286	H	1.021950	-0.105399	-0.261225
H287	H	1.355283	0.227934	0.072108
H288	H	1.688617	0.561268	0.405441
H289	H	1.259017	-0.247451	-0.712849
H290	H	1.592350	0.085882	-0.379515
H291	H	1.925684	0.419215	-0.046182
