data_functionalizedCrystal
_audit_creation_method	'MofGen! by Chris Wilmer'
_symmetry_space_group_name_H-M	'P1'
_symmetry_Int_Tables_number	1
_symmetry_cell_setting	triclinic
loop_
_symmetry_equiv_pos_as_xyz
  x,y,z
_cell_length_a	14.853567
_cell_length_b	14.853567
_cell_length_c	18.366186
_cell_angle_alpha	89.997562
_cell_angle_beta	89.993927
_cell_angle_gamma	83.634930
loop_
_atom_site_label
_atom_site_type_symbol
_atom_site_fract_x
_atom_site_fract_y
_atom_site_fract_z
O1	O	1.196371	0.117705	-0.060493
O2	O	0.933911	0.131727	-0.060505
O3	O	1.072151	-0.006514	-0.060501
O4	O	1.058130	0.255946	-0.060497
O5	O	1.072128	-0.006520	0.060598
O6	O	0.933887	0.131720	0.060594
O7	O	1.196347	0.117699	0.060606
Zn8	Zn	1.065114	0.124708	0.079827
Zn9	Zn	1.065145	0.124717	-0.079726
O10	O	1.058107	0.255939	0.060602
C11	C	0.900311	0.131088	0.000043
C12	C	0.800227	0.129184	0.000038
C13	C	0.387693	0.039019	0.000053
C14	C	0.366412	0.203251	0.000055
C15	C	0.460446	0.205041	0.000053
C16	C	0.518108	0.123819	0.000050
C17	C	0.481736	0.040806	0.000049
C18	C	0.496825	0.288053	0.000046
C19	C	0.590864	0.289846	0.000043
C20	C	0.648528	0.208623	0.000045
C21	C	0.612150	0.125607	0.000045
C22	C	0.669812	0.044384	0.000042
C23	C	0.633437	-0.038633	0.000047
C24	C	0.539399	-0.040417	0.000051
C25	C	0.742565	0.210407	0.000042
C26	C	0.763855	0.046172	0.000038
C27	C	1.071504	-0.040106	0.000047
C28	C	1.069601	-0.140189	0.000040
C29	C	0.979435	-0.552723	0.000050
C30	C	1.143668	-0.574004	0.000057
C31	C	1.145458	-0.479971	0.000053
C32	C	1.064235	-0.422309	0.000048
C33	C	0.981223	-0.458680	0.000048
C34	C	1.228469	-0.443591	0.000061
C35	C	1.230262	-0.349552	0.000058
C36	C	1.149039	-0.291889	0.000048
C37	C	1.066023	-0.328266	0.000046
C38	C	0.984800	-0.270604	0.000042
C39	C	0.901783	-0.306979	0.000035
C40	C	0.899999	-0.401017	0.000038
C41	C	1.150823	-0.197851	0.000045
C42	C	0.986588	-0.176561	0.000040
C43	C	1.229947	0.118337	0.000057
C44	C	1.330031	0.120241	0.000057
C45	C	1.058754	0.289531	0.000053
C46	C	1.060657	0.389615	0.000055
N47	N	1.065099	0.124701	0.188719
N48	N	1.065166	0.124717	-0.188617
C49	C	1.126332	0.063519	0.226821
C50	C	1.126338	0.063515	0.303049
C51	C	1.065119	0.124709	0.341171
C52	C	1.003874	0.185896	0.303060
C53	C	1.003864	0.185893	0.226834
C54	C	1.053410	0.206801	0.461933
C55	C	1.053426	0.206806	0.538157
C56	C	1.065145	0.124720	0.576279
C57	C	1.076866	0.042626	0.538166
C58	C	1.076856	0.042622	0.461940
C59	C	1.065123	0.124719	0.423826
C60	C	1.126387	0.063528	0.697036
C61	C	1.126387	0.063523	0.773265
C62	C	1.003928	0.185912	0.773275
C63	C	1.003924	0.185910	0.697047
C64	C	1.065158	0.124719	0.658932
H65	H	0.319459	0.269379	0.000051
H66	H	0.449870	0.354180	0.000041
Cl67	Cl	0.636585	0.394208	0.000039
Cl68	Cl	0.875076	-0.598450	0.000035
Cl69	Cl	1.038698	0.310009	0.586063
H70	H	0.772178	0.277998	0.000039
Cl71	Cl	1.330570	-0.516083	0.000083
Cl72	Cl	0.926910	0.262823	0.350984
Cl73	Cl	1.245770	-0.646493	0.000075
H74	H	1.297860	-0.319944	0.000062
Cl75	Cl	1.091579	-0.060576	0.414029
H76	H	0.920445	-0.129618	0.000033
Cl77	Cl	0.799679	-0.234480	0.000036
Cl78	Cl	1.255178	-0.152125	0.000067
Cl79	Cl	0.795645	-0.446752	0.000028
Cl80	Cl	1.203306	-0.013410	0.178905
Cl81	Cl	0.926946	0.262834	0.649143
Cl82	Cl	1.203324	-0.013407	0.350957
Cl83	Cl	1.091605	-0.060575	0.586081
H84	H	0.358072	-0.028572	0.000061
H85	H	1.043852	0.273650	0.430900
H86	H	1.176245	0.013700	0.666001
Cl87	Cl	0.926881	0.262815	0.178931
Cl88	Cl	0.926960	0.262836	0.821196
Cl89	Cl	0.836337	-0.055943	0.000039
Cl90	Cl	0.705937	-0.140737	0.000038
Cl91	Cl	1.203366	-0.013404	0.821168
H92	H	0.509774	-0.108005	0.000073
