data_functionalizedCrystal
_audit_creation_method	'MofGen! by Chris Wilmer'
_symmetry_space_group_name_H-M	'P1'
_symmetry_Int_Tables_number	1
_symmetry_cell_setting	triclinic
loop_
_symmetry_equiv_pos_as_xyz
  x,y,z
_cell_length_a	10.685901
_cell_length_b	13.897447
_cell_length_c	10.686551
_cell_angle_alpha	94.405975
_cell_angle_beta	90.348291
_cell_angle_gamma	85.656047
loop_
_atom_site_label
_atom_site_type_symbol
_atom_site_fract_x
_atom_site_fract_y
_atom_site_fract_z
Zn1	Zn	1.972171	-0.466434	0.561872
Zn2	Zn	2.305504	-0.133100	0.895205
Zn3	Zn	2.638838	0.200233	1.228538
Zn4	Zn	1.955924	-0.639118	0.352116
Zn5	Zn	2.289258	-0.305784	0.685450
Zn6	Zn	2.622591	0.027549	1.018783
Zn7	Zn	1.746297	-0.464622	0.368248
Zn8	Zn	2.079631	-0.131288	0.701581
Zn9	Zn	2.412964	0.202045	1.034914
Zn10	Zn	1.762364	-0.614465	0.577944
Zn11	Zn	2.095697	-0.281131	0.911277
Zn12	Zn	2.429030	0.052202	1.244611
O13	O	1.859189	-0.546159	0.465045
O14	O	2.192522	-0.212826	0.798378
O15	O	2.525856	0.120507	1.131712
O16	O	2.145551	-0.500416	0.520570
O17	O	2.478884	-0.167083	0.853903
O18	O	2.812217	0.166250	1.187236
O19	O	1.914594	-0.625529	0.178714
O20	O	2.247927	-0.292196	0.512047
O21	O	2.581260	0.041137	0.845381
O22	O	1.776336	-0.329883	0.393957
O23	O	2.109669	0.003450	0.727290
O24	O	2.443002	0.336783	1.060624
O25	O	2.133614	-0.627286	0.366463
O26	O	2.466947	-0.293953	0.699797
O27	O	2.800281	0.039380	1.033130
O28	O	1.942284	-0.331215	0.536212
O29	O	2.275617	0.002119	0.869545
O30	O	2.608951	0.335452	1.202878
O31	O	1.760582	-0.497328	0.190566
O32	O	2.093915	-0.163995	0.523899
O33	O	2.427248	0.169339	0.857232
O34	O	1.572894	-0.473423	0.409542
O35	O	1.906227	-0.140090	0.742875
O36	O	2.239561	0.193244	1.076209
O37	O	1.803718	-0.585269	0.751354
O38	O	2.137051	-0.251936	1.084687
O39	O	2.470385	0.081398	1.418021
O40	O	1.584698	-0.583512	0.563605
O41	O	1.918031	-0.250179	0.896938
O42	O	2.251364	0.083155	1.230272
O43	O	1.957863	-0.476511	0.739546
O44	O	2.291196	-0.143178	1.072879
O45	O	2.624529	0.190155	1.406212
O46	O	1.930172	-0.770826	0.382048
O47	O	2.263506	-0.437493	0.715381
O48	O	2.596839	-0.104159	1.048715
O49	O	1.787964	-0.752714	0.547963
O50	O	2.121298	-0.419380	0.881296
O51	O	2.454631	-0.086047	1.214629
C52	C	1.533282	-0.525596	0.490069
C53	C	1.866615	-0.192263	0.823402
C54	C	2.199948	0.141070	1.156735
C55	C	1.393859	-0.516821	0.500804
C56	C	1.727193	-0.183488	0.834137
C57	C	2.060526	0.149846	1.167470
C58	C	1.859085	-0.796769	0.465024
C59	C	2.192418	-0.463436	0.798357
C60	C	2.525752	-0.130102	1.131690
C61	C	1.859158	-0.903986	0.465048
C62	C	2.192492	-0.570652	0.798381
C63	C	2.525825	-0.237319	1.131714
C64	C	1.859221	-0.991058	0.465072
C65	C	2.192554	-0.657724	0.798405
C66	C	2.525888	-0.324391	1.131738
C67	C	1.859312	-1.100294	0.465097
C68	C	2.192645	-0.766961	0.798431
C69	C	2.525978	-0.433627	1.131764
C70	C	2.186369	-0.566803	0.439924
C71	C	2.519702	-0.233470	0.773257
C72	C	2.853036	0.099863	1.106591
C73	C	2.325794	-0.575601	0.429219
C74	C	2.659127	-0.242267	0.762553
C75	C	2.992460	0.091066	1.095886
C76	C	1.884395	-0.528342	0.792239
C77	C	2.217728	-0.195009	1.125572
C78	C	2.551061	0.138324	1.458905
C79	C	1.895136	-0.520750	0.931669
C80	C	2.228469	-0.187417	1.265003
C81	C	2.561803	0.145917	1.598336
C82	C	1.859330	-0.294572	0.465091
C83	C	2.192663	0.038761	0.798424
C84	C	2.525997	0.372095	1.131758
C85	C	1.859390	-0.187360	0.465111
C86	C	2.192723	0.145973	0.798444
C87	C	2.526057	0.479306	1.131777
C88	C	1.834154	-0.563842	0.139118
C89	C	2.167487	-0.230509	0.472452
C90	C	2.500820	0.102825	0.805785
C91	C	1.823655	-0.571178	-0.000330
C92	C	2.156989	-0.237845	0.333003
C93	C	2.490322	0.095489	0.666337
H94	H	1.345465	-0.459786	0.570310
H95	H	1.678799	-0.126452	0.903643
H96	H	2.012132	0.206881	1.236976
C97	C	1.391154	-0.652650	0.335331
C98	C	1.724488	-0.319317	0.668664
C99	C	2.057821	0.014016	1.001998
H100	H	1.479430	-0.648632	0.340185
H101	H	1.812763	-0.315299	0.673518
H102	H	2.146096	0.018034	1.006852
H103	H	1.371135	-0.715159	0.355169
H104	H	1.704468	-0.381826	0.688502
H105	H	2.037801	-0.048492	1.021836
H106	H	1.363239	-0.641680	0.252704
H107	H	1.696573	-0.308347	0.586037
H108	H	2.029906	0.024986	0.919370
C109	C	1.729876	-0.637348	0.934226
C110	C	2.063210	-0.304015	1.267560
C111	C	2.396543	0.029319	1.600893
H112	H	1.734709	-0.633936	0.845956
H113	H	2.068042	-0.300603	1.179290
H114	H	2.401375	0.032730	1.512623
H115	H	1.749823	-0.702163	0.954217
H116	H	2.083156	-0.368829	1.287550
H117	H	2.416489	-0.035496	1.620884
H118	H	1.647230	-0.616752	0.962113
H119	H	1.980563	-0.283418	1.295447
H120	H	2.313896	0.049915	1.628780
H121	H	1.964561	-0.471769	0.980125
H122	H	2.297894	-0.138435	1.313458
H123	H	2.631227	0.194898	1.646792
