data_functionalizedCrystal
_audit_creation_method	'MofGen! by Chris Wilmer'
_symmetry_space_group_name_H-M	'P1'
_symmetry_Int_Tables_number	1
_symmetry_cell_setting	triclinic
loop_
_symmetry_equiv_pos_as_xyz
  x,y,z
_cell_length_a	11.169417
_cell_length_b	12.759400
_cell_length_c	11.169417
_cell_angle_alpha	90.008381
_cell_angle_beta	90.000863
_cell_angle_gamma	90.015523
loop_
_atom_site_label
_atom_site_type_symbol
_atom_site_fract_x
_atom_site_fract_y
_atom_site_fract_z
Zn1	Zn	1.834702	-0.418413	0.678536
Zn2	Zn	1.834643	-0.594063	0.477850
Zn3	Zn	1.634054	-0.418401	0.477870
Zn4	Zn	1.633980	-0.594053	0.678495
O5	O	1.734345	-0.506233	0.578188
O6	O	2.002644	-0.441722	0.651923
O7	O	1.808040	-0.570760	0.309903
O8	O	1.660726	-0.271382	0.504515
O9	O	2.002600	-0.570772	0.504480
O10	O	1.808141	-0.271390	0.651943
O11	O	1.660669	-0.441702	0.309918
O12	O	1.466095	-0.441693	0.504475
O13	O	1.660600	-0.570755	0.846450
O14	O	1.466040	-0.570744	0.651873
O15	O	1.808069	-0.441713	0.846480
O16	O	1.807968	-0.741083	0.504440
O17	O	1.660543	-0.741075	0.651853
C18	C	1.422520	-0.506217	0.578172
C19	C	1.289120	-0.506235	0.578194
C20	C	1.734274	-0.779200	0.578166
C21	C	1.734353	-0.895977	0.578197
C22	C	1.811079	-0.950753	0.655028
C23	C	1.811146	-1.060477	0.655061
C24	C	1.657759	-1.060638	0.501421
C25	C	1.657686	-0.950916	0.501396
C26	C	1.854009	-1.210352	0.796676
C27	C	1.930753	-1.265132	0.873497
C28	C	2.047821	-1.229429	0.892014
C29	C	2.088169	-1.138947	0.833694
C30	C	2.011431	-1.084172	0.756864
C31	C	1.894346	-1.119874	0.738370
C32	C	1.614836	-0.801039	0.359779
C33	C	1.538103	-0.746263	0.282942
C34	C	1.421033	-0.781964	0.264413
C35	C	1.380689	-0.872450	0.322712
C36	C	1.457422	-0.927227	0.399548
C37	C	1.574491	-0.891518	0.418080
C38	C	2.047387	-0.506249	0.578204
C39	C	2.180787	-0.506256	0.578211
C40	C	1.734333	-0.506234	0.891230
C41	C	1.734328	-0.506235	1.024630
C42	C	1.734449	-0.232199	0.578235
C43	C	1.734493	-0.115423	0.578256
C44	C	1.734342	-0.506250	1.266363
C45	C	1.734331	-0.506236	1.132963
H46	H	2.044283	-1.010505	0.709379
O47	O	1.728622	-0.766423	0.377579
C48	C	1.919163	-0.725565	0.287792
C49	C	1.790344	-0.764802	0.267478
H50	H	1.969095	-0.724220	0.198788
H51	H	1.967153	-0.780260	0.352663
H52	H	1.916578	-0.643087	0.326966
H53	H	1.792820	-0.847263	0.228264
H54	H	1.742405	-0.710034	0.202650
O55	O	1.885410	-0.897429	0.729812
C56	C	1.943508	-0.863802	0.934008
C57	C	1.859239	-0.924234	0.849446
H58	H	1.922397	-0.885467	1.030748
H59	H	1.930274	-0.775958	0.920897
H60	H	2.040310	-0.885296	0.912964
H61	H	1.762405	-0.902828	0.870438
H62	H	1.872577	-1.012063	0.862572
O63	O	1.266913	-0.906968	0.304626
C64	C	1.078962	-0.878541	0.203832
C65	C	1.207775	-0.839322	0.224236
H66	H	1.031120	-0.823880	0.138817
H67	H	1.028878	-0.879779	0.292755
H68	H	1.081558	-0.961054	0.164755
H69	H	1.205289	-0.756797	0.263274
H70	H	1.257807	-0.838160	0.135284
O71	O	1.583411	-1.114171	0.426849
C72	C	1.515500	-1.283275	0.358838
C73	C	1.599777	-1.222783	0.443337
H74	H	1.528685	-1.371098	0.372157
H75	H	1.536647	-1.261790	0.262050
H76	H	1.418705	-1.261707	0.379811
H77	H	1.696601	-1.244319	0.422472
H78	H	1.578527	-1.244273	0.540100
H79	H	1.758678	-1.239424	0.781618
H80	H	1.424564	-1.000905	0.447019
O81	O	1.346633	-0.728606	0.189769
C82	C	1.322910	-0.580807	0.057613
C83	C	1.407284	-0.641115	0.142128
H84	H	1.371921	-0.510070	0.019052
H85	H	1.240919	-0.553205	0.109576
H86	H	1.293443	-0.634552	-0.018427
H87	H	1.436842	-0.587432	0.218185
H88	H	1.489213	-0.668731	0.090080
H89	H	2.110307	-1.274039	0.954564
O90	O	2.201917	-1.104389	0.851847
C91	C	2.389923	-1.132892	0.952510
C92	C	2.261125	-1.172134	0.932077
H93	H	2.437838	-1.187657	1.017356
H94	H	2.387439	-1.050417	0.991704
H95	H	2.439873	-1.131585	0.863515
H96	H	2.211100	-1.173509	1.021024
H97	H	2.263695	-1.254586	0.892828
H98	H	1.897890	-1.338803	0.920981
H99	H	1.570964	-0.672588	0.235466
