data_functionalizedCrystal
_audit_creation_method	'MofGen! by Chris Wilmer'
_symmetry_space_group_name_H-M	'P1'
_symmetry_Int_Tables_number	1
_symmetry_cell_setting	triclinic
loop_
_symmetry_equiv_pos_as_xyz
  x,y,z
_cell_length_a	23.196402
_cell_length_b	14.560438
_cell_length_c	23.196401
_cell_angle_alpha	90.014604
_cell_angle_beta	60.008822
_cell_angle_gamma	60.000805
loop_
_atom_site_label
_atom_site_type_symbol
_atom_site_fract_x
_atom_site_fract_y
_atom_site_fract_z
Zr1	Zr	0.630989	0.884767	-0.075609
O2	O	0.751257	0.738089	-0.167659
O3	O	0.510722	0.929728	-0.047395
O4	O	0.630989	0.929688	-0.167660
O5	O	0.630988	0.738165	0.047478
O6	O	0.630988	1.080829	-0.167657
O7	O	0.630990	0.738129	-0.047393
O8	O	0.415852	1.080901	0.047476
O9	O	0.846124	0.738093	-0.167655
O10	O	0.560187	1.061703	-0.035355
O11	O	0.560188	0.948935	0.035444
O12	O	0.701787	0.948887	-0.106153
O13	O	0.701787	0.836120	-0.035353
Zr14	Zr	0.630983	1.125877	0.075705
Zr15	Zr	0.630986	1.125820	-0.075604
Zr16	Zr	0.630986	0.884825	0.075700
Zr17	Zr	0.782291	0.884774	-0.075603
Zr18	Zr	0.479681	1.125871	0.075698
O19	O	0.751250	1.080916	0.047490
O20	O	0.751253	1.080834	-0.167652
O21	O	0.751254	0.738171	0.047483
O22	O	0.510715	1.272556	0.167754
O23	O	0.510718	1.272474	-0.047388
O24	O	0.510719	0.929810	0.167747
O25	O	0.630984	1.272479	-0.047382
O26	O	0.630982	1.080957	0.167755
O27	O	0.630984	0.929816	0.167752
O28	O	0.630982	1.272515	0.047489
O29	O	0.846122	0.929697	-0.167651
O30	O	0.415850	1.080947	0.167746
O31	O	0.415848	1.272552	0.167750
O32	O	0.415849	1.272506	0.047480
O33	O	0.846122	0.738139	-0.047384
O34	O	0.846120	0.929743	-0.047380
O35	O	0.560185	1.061757	0.106248
O36	O	0.560185	1.174525	0.035449
O37	O	0.701784	1.061709	-0.035349
O38	O	0.701784	0.948941	0.035450
C39	C	0.441730	1.005314	0.000040
C40	C	0.377498	1.005311	0.000037
C41	C	0.347327	1.064167	-0.036922
C42	C	0.286966	1.064178	-0.036916
C43	C	0.256790	1.005311	0.000039
C44	C	0.286964	0.946452	0.037006
C45	C	0.347318	0.946453	0.037005
C46	C	0.194762	0.906687	-0.005238
C47	C	0.134412	0.906684	-0.005242
C48	C	0.070635	1.005312	0.000046
C49	C	0.067222	1.103943	0.005323
C50	C	0.127576	1.103943	0.005323
C51	C	0.191345	1.005305	0.000044
C52	C	-0.024987	1.064185	-0.036909
C53	C	-0.085353	1.064199	-0.036898
C54	C	-0.085348	0.946463	0.037020
C55	C	-0.024989	0.946460	0.037014
C56	C	0.005191	1.005319	0.000046
C57	C	0.630989	0.703803	0.000042
C58	C	0.630991	0.601469	0.000039
C59	C	0.630993	0.553366	-0.052225
C60	C	0.630985	0.457220	-0.052215
C61	C	0.630977	0.457287	0.052326
C62	C	0.630978	0.553436	0.052318
C63	C	0.631001	0.553324	-0.112582
C64	C	0.630994	0.457178	-0.112573
C65	C	0.820242	1.005331	0.000056
C66	C	0.884474	1.005333	0.000059
C67	C	0.630989	1.005250	-0.189217
C68	C	0.630990	1.005226	-0.253451
C69	C	0.630982	1.306842	0.000054
C70	C	0.630981	1.409175	0.000056
C71	C	0.704901	0.946343	-0.320580
C72	C	0.704902	0.946371	-0.380935
C73	C	0.630988	1.005268	-0.374157
C74	C	0.557067	1.064163	-0.307017
C75	C	0.557068	1.064143	-0.246664
C76	C	0.574360	0.996901	-0.441477
C77	C	0.574362	0.996914	-0.501831
C78	C	0.630982	1.005339	-0.560305
C79	C	0.687613	1.013727	-0.558425
C80	C	0.687614	1.013707	-0.498072
C81	C	0.630978	1.005297	-0.439596
C82	C	0.704899	0.946484	-0.692881
C83	C	0.704897	0.946520	-0.753235
C84	C	0.557060	1.064305	-0.679315
C85	C	0.557064	1.064276	-0.618962
C86	C	0.630986	1.005359	-0.625750
C87	C	0.630983	1.005394	0.189312
C88	C	0.630982	1.005419	0.253547
C89	C	0.441726	1.306834	0.000046
C90	C	0.377493	1.409164	0.000045
C91	C	0.441727	1.005386	0.189304
C92	C	0.377494	1.005408	0.253536
C93	C	0.441723	1.306906	0.189310
C94	C	0.377489	1.409261	0.253544
C95	C	0.820249	0.703739	-0.189215
C96	C	0.884483	0.601384	-0.253449
C97	C	0.820246	0.703811	0.000050
C98	C	0.884479	0.601481	0.000050
C99	C	0.820245	1.005258	-0.189208
C100	C	0.884478	1.005237	-0.253440
C101	C	0.347330	1.398328	-0.036920
C102	C	0.286984	1.494468	-0.036935
C103	C	0.256799	1.601445	0.000020
C104	C	0.286968	1.612279	0.036987
C105	C	0.347317	1.516139	0.036997
C106	C	0.347328	1.064310	0.320665
C107	C	0.286983	1.064326	0.381023
C108	C	0.256801	1.005446	0.374251
C109	C	0.286972	0.946537	0.307115
C110	C	0.347320	0.946515	0.246758
C111	C	0.347324	1.516201	0.246753
C112	C	0.286978	1.612384	0.307102
C113	C	0.256794	1.601623	0.374241
C114	C	0.286965	1.494671	0.381031
C115	C	0.347314	1.398491	0.320683
C116	C	0.914655	0.494443	-0.246657
C117	C	0.975020	0.398261	-0.307006
C118	C	1.005208	0.409022	-0.374146
C119	C	0.975033	0.515974	-0.380936
C120	C	0.914673	0.612153	-0.320588
C121	C	0.914648	0.612317	0.037010
C122	C	0.975010	0.516176	0.037008
C123	C	1.005198	0.409200	0.000050
C124	C	0.975026	0.398366	-0.036914
C125	C	0.914669	0.494505	-0.036915
C126	C	0.914641	1.064128	-0.246645
C127	C	0.974987	1.064130	-0.306992
C128	C	1.005172	1.005233	-0.374133
C129	C	0.975003	0.946340	-0.380927
C130	C	0.914654	0.946345	-0.320581
H131	H	0.262390	0.898524	0.067096
F132	F	0.882563	0.725965	-0.327827
H133	H	0.999589	0.898387	-0.435601
H134	H	0.528253	0.990077	-0.503357
F135	F	0.254832	1.483236	0.452492
F136	F	1.007088	1.126809	-0.299747
F137	F	0.379441	1.527679	0.175303
F138	F	0.747877	1.022694	-0.620656
H139	H	0.371884	0.898522	0.067102
H140	H	0.630966	0.418168	0.094890
F141	F	0.783571	0.883699	-0.452389
H142	H	0.371896	1.112096	-0.067022
H143	H	0.371867	1.311419	0.326223
H144	H	0.371868	1.524978	0.067103
F145	F	0.379415	0.883825	0.175316
F146	F	1.069403	1.005234	-0.438354
H147	H	0.262383	1.699392	0.067074
H148	H	0.765094	0.898373	-0.326113
H149	H	0.687739	0.385856	-0.164115
F150	F	0.254841	0.883877	0.299918
H151	H	0.890074	0.699414	0.067109
F152	F	0.379437	1.126986	0.327889
F153	F	0.556837	0.646508	-0.105794
H154	H	0.528254	0.990033	-0.393869
H155	H	0.262419	1.699460	0.301560
H156	H	0.207653	1.679948	0.423375
F157	F	0.254881	1.127031	0.452468
H158	H	-0.000421	0.898528	0.067107
F159	F	0.882562	0.482955	-0.076250
F160	F	0.882537	0.482965	-0.175208
F161	F	1.007108	0.527730	0.076354
H162	H	0.207661	1.005473	0.423403
F163	F	1.007122	0.284446	-0.299765
F164	F	1.069448	0.306647	-0.438368
H165	H	1.054344	0.330926	0.000057
H166	H	0.890074	1.112089	-0.191981
H167	H	0.890102	0.898384	-0.326123
H168	H	0.999619	0.524722	-0.435608
H169	H	0.262397	1.112107	-0.067014
F170	F	0.123941	1.208911	0.010942
H171	H	0.689547	0.536489	-0.160586
H172	H	0.015287	1.184259	0.009638
H173	H	0.246699	0.826361	-0.009558
H174	H	-0.000416	1.112116	-0.067008
F175	F	-0.117460	1.126842	-0.076239
H176	H	-0.109917	0.898533	0.067110
F177	F	0.192569	1.703757	0.000004
F178	F	0.138052	0.801712	-0.010862
H179	H	0.630966	0.592609	0.094881
F180	F	0.554464	0.479158	-0.098782
H181	H	0.999613	0.311253	-0.067003
H182	H	0.733724	1.020540	-0.496544
H183	H	0.765091	0.898511	-0.698408
H184	H	0.496877	1.112261	-0.673795
F185	F	0.783568	0.883851	-0.824683
H186	H	0.496877	1.112220	-0.564302
H187	H	0.496885	1.112119	-0.301502
H188	H	0.371906	1.311231	-0.067022
F189	F	0.478398	1.126811	-0.175215
H190	H	0.262428	1.485625	-0.067037
