data_functionalizedCrystal
_audit_creation_method	'MofGen! by Chris Wilmer'
_symmetry_space_group_name_H-M	'P1'
_symmetry_Int_Tables_number	1
_symmetry_cell_setting	triclinic
loop_
_symmetry_equiv_pos_as_xyz
  x,y,z
_cell_length_a	14.908571
_cell_length_b	12.594516
_cell_length_c	14.908308
_cell_angle_alpha	86.728502
_cell_angle_beta	89.824947
_cell_angle_gamma	86.712497
loop_
_atom_site_label
_atom_site_type_symbol
_atom_site_fract_x
_atom_site_fract_y
_atom_site_fract_z
Zn1	Zn	1.345329	-0.555460	0.587618
Zn2	Zn	1.353920	-0.723816	0.437269
Zn3	Zn	1.203643	-0.535016	0.428614
Zn4	Zn	1.194948	-0.722551	0.578920
O5	O	1.274460	-0.634211	0.508105
O6	O	1.472295	-0.586878	0.574935
O7	O	1.341220	-0.690745	0.310295
O8	O	1.222482	-0.388787	0.449724
O9	O	1.478607	-0.710568	0.464475
O10	O	1.326578	-0.403807	0.566543
O11	O	1.230812	-0.552034	0.303937
O12	O	1.076663	-0.550808	0.441291
O13	O	1.207662	-0.708413	0.705899
O14	O	1.070275	-0.688589	0.551720
O15	O	1.318147	-0.585652	0.712289
O16	O	1.332788	-0.872590	0.456041
O17	O	1.215992	-0.871661	0.560112
C18	C	1.040844	-0.617344	0.494623
C19	C	0.940900	-0.610155	0.488877
C20	C	0.746501	-0.740319	0.592914
C21	C	0.652595	-0.733568	0.587518
C22	C	0.659180	-0.589898	0.472693
C23	C	0.753086	-0.596649	0.478089
C24	C	0.796743	-0.671863	0.538201
C25	C	0.890651	-0.678619	0.543592
C26	C	0.897235	-0.534943	0.428772
C27	C	0.803329	-0.528192	0.423376
C28	C	1.274402	-0.910747	0.508093
C29	C	1.274457	-1.029058	0.508123
C30	C	1.210928	-1.097842	0.564684
C31	C	1.193759	-1.161862	0.481377
C32	C	1.291708	-1.175844	0.591449
C33	C	1.257247	-1.091515	0.424769
C34	C	1.355231	-1.105496	0.534899
C35	C	1.338096	-1.169483	0.451537
C36	C	1.508989	-0.651145	0.521641
C37	C	1.608931	-0.658361	0.527409
C38	C	1.260976	-0.649172	0.742631
C39	C	1.255230	-0.655547	0.842572
C40	C	1.274542	-0.356598	0.508138
C41	C	1.274577	-0.238296	0.508153
C42	C	1.287944	-0.619235	0.274494
C43	C	1.293864	-0.612572	0.174564
C44	C	1.359477	-0.539672	1.037028
C45	C	1.354081	-0.545658	1.130932
C46	C	1.239037	-0.673502	1.124285
C47	C	1.244433	-0.667515	1.030381
C48	C	1.304656	-0.600599	0.986756
C49	C	1.310057	-0.594618	0.892851
C50	C	1.195009	-0.722455	0.886206
C51	C	1.189612	-0.728442	0.980110
H52	H	0.926195	-0.739864	0.592536
H53	H	0.623618	-0.528655	0.423759
O54	O	1.309017	-1.219937	0.675453
C55	C	1.309671	-1.331827	0.674141
H56	H	1.268902	-1.354541	0.614299
H57	H	1.278808	-1.365604	0.738970
H58	H	1.381831	-1.365815	0.668092
H59	H	0.611690	-0.789311	0.632073
H60	H	1.190006	-0.727981	1.159821
H61	H	1.359094	-0.540133	0.857333
O62	O	1.239826	-1.047926	0.340624
C63	C	1.227690	-1.129686	0.281786
H64	H	1.262590	-1.207082	0.310487
H65	H	1.257814	-1.107142	0.213431
H66	H	1.152854	-1.140946	0.273863
O67	O	0.946140	-0.468590	0.375580
C68	C	1.003762	-0.529282	0.320525
H69	H	1.016015	-0.613026	0.352937
H70	H	1.070487	-0.489889	0.312322
H71	H	0.971380	-0.534006	0.251798
H72	H	0.767770	-0.466952	0.374438
O73	O	0.788770	-0.813410	0.651376
C74	C	0.724288	-0.872409	0.698492
H75	H	0.657170	-0.824211	0.697821
H76	H	0.747366	-0.890362	0.770879
H77	H	0.716187	-0.950359	0.664876
H78	H	1.408518	-0.485191	1.001508
H79	H	1.157117	-1.066391	0.612437
H80	H	1.391875	-1.200727	0.403659
H81	H	1.125505	-1.186887	0.458752
O82	O	1.436598	-1.075694	0.562088
C83	C	1.454470	-1.118841	0.649991
H84	H	1.388505	-1.136660	0.685055
H85	H	1.490891	-1.059126	0.689120
H86	H	1.498463	-1.195624	0.646881
O87	O	1.407428	-0.486440	1.179632
C88	C	1.461719	-0.426076	1.120985
H89	H	1.468668	-0.465629	1.054223
H90	H	1.531007	-0.421561	1.152204
H91	H	1.429384	-0.342229	1.109106
H92	H	1.140579	-0.782921	1.015642
O93	O	1.141879	-0.781700	0.837283
C94	C	1.196174	-0.850698	0.785933
H95	H	1.265133	-0.817178	0.775795
H96	H	1.163339	-0.858117	0.717788
H97	H	1.203955	-0.932590	0.822692
