data_functionalizedCrystal
_audit_creation_method	'MofGen! by Chris Wilmer'
_symmetry_space_group_name_H-M	'P1'
_symmetry_Int_Tables_number	1
_symmetry_cell_setting	triclinic
loop_
_symmetry_equiv_pos_as_xyz
  x,y,z
_cell_length_a	14.044220
_cell_length_b	14.044191
_cell_length_c	9.198806
_cell_angle_alpha	89.997762
_cell_angle_beta	90.001345
_cell_angle_gamma	86.809673
loop_
_atom_site_label
_atom_site_type_symbol
_atom_site_fract_x
_atom_site_fract_y
_atom_site_fract_z
O1	O	-0.230197	1.277173	-0.120815
O2	O	0.269803	1.777173	0.379185
O3	O	-0.221884	1.000500	-0.120834
O4	O	0.278116	1.500500	0.379166
O5	O	-0.087705	1.134684	-0.120819
O6	O	0.412295	1.634684	0.379181
O7	O	-0.364376	1.142989	-0.120831
O8	O	0.135624	1.642989	0.379169
O9	O	-0.087705	1.134670	0.120966
O10	O	0.412295	1.634670	0.620966
O11	O	-0.221885	1.000487	0.120951
O12	O	0.278115	1.500487	0.620951
O13	O	-0.230197	1.277159	0.120970
O14	O	0.269803	1.777159	0.620970
Cu15	Cu	-0.226041	1.138822	0.143037
Cu16	Cu	0.273959	1.638822	0.643037
Cu17	Cu	-0.226041	1.138838	-0.142902
Cu18	Cu	0.273959	1.638838	0.357098
O19	O	-0.364377	1.142976	0.120954
O20	O	0.135623	1.642976	0.620954
C21	C	-0.218248	0.964872	0.000056
C22	C	0.281752	1.464872	0.500056
C23	C	-0.207401	0.858728	0.000049
C24	C	0.292599	1.358728	0.500049
C25	C	-0.264501	0.613270	0.000061
C26	C	0.235499	1.113270	0.500061
C27	C	-0.187585	0.664395	0.000062
C28	C	0.312415	1.164395	0.500062
C29	C	-0.198613	0.772532	0.000055
C30	C	0.301387	1.272532	0.500055
C31	C	-0.253474	0.505123	0.000068
C32	C	0.246526	1.005123	0.500068
C33	C	-0.399998	1.146618	0.000060
C34	C	0.100002	1.646618	0.500060
C35	C	-0.506142	1.157463	0.000056
C36	C	-0.006142	1.657463	0.500056
C37	C	-0.700480	1.177289	0.000063
C38	C	-0.200480	1.677289	0.500063
C39	C	-0.751608	1.100375	0.000059
C40	C	-0.251608	1.600375	0.500059
C41	C	-0.859744	1.111406	0.000064
C42	C	-0.359744	1.611406	0.500064
C43	C	-0.592333	1.166259	0.000059
C44	C	-0.092333	1.666259	0.500059
C45	C	-0.052083	1.131041	0.000072
C46	C	0.447917	1.631041	0.500072
C47	C	0.054060	1.120197	0.000067
C48	C	0.554060	1.620197	0.500067
C49	C	-0.233834	1.312788	0.000076
C50	C	0.266166	1.812788	0.500076
C51	C	-0.244681	1.418931	0.000074
C52	C	0.255319	1.918931	0.500074
N53	N	-0.226041	1.138818	0.344151
N54	N	0.273959	1.638818	0.844151
C55	C	-0.169435	1.195136	0.416355
C56	C	0.330565	1.695136	0.916355
C57	C	-0.169434	1.195150	0.583767
C58	C	0.330566	1.695150	1.083767
N59	N	-0.226040	1.138842	0.655984
N60	N	0.273960	1.638842	1.155984
H61	H	-0.338628	0.650711	0.000053
H62	H	0.161372	1.150711	0.500053
C63	C	-0.103959	1.260291	0.667648
C64	C	0.396041	1.760291	1.167648
N65	N	-0.054641	1.309355	0.730831
N66	N	0.445359	1.809355	1.230831
H67	H	-0.714167	1.026241	0.000055
H68	H	-0.214167	1.526241	0.500055
C69	C	-0.751059	1.277434	0.000094
C70	C	-0.251059	1.777434	0.500094
N71	N	-0.789166	1.352863	0.000128
N72	N	-0.289166	1.852863	0.500128
H73	H	-0.120968	1.243340	0.354234
H74	H	0.379032	1.743340	0.854234
H75	H	-0.274510	1.090626	0.593902
H76	H	0.225490	1.590626	1.093902
H77	H	-0.274500	1.090607	0.406274
H78	H	0.225500	1.590607	0.906274
H79	H	-0.113452	0.626952	-0.000037
H80	H	0.386548	1.126952	0.499963
