data_functionalizedCrystal
_audit_creation_method	'MofGen! by Chris Wilmer'
_symmetry_space_group_name_H-M	'P1'
_symmetry_Int_Tables_number	1
_symmetry_cell_setting	triclinic
loop_
_symmetry_equiv_pos_as_xyz
  x,y,z
_cell_length_a	17.000373
_cell_length_b	15.500373
_cell_length_c	16.109301
_cell_angle_alpha	86.826937
_cell_angle_beta	100.469750
_cell_angle_gamma	93.353116
loop_
_atom_site_label
_atom_site_type_symbol
_atom_site_fract_x
_atom_site_fract_y
_atom_site_fract_z
O1	O	-1.052802	0.071972	0.026748
O2	O	-0.821062	0.071968	0.056924
O3	O	-0.943299	0.071962	-0.079659
O4	O	-0.930566	0.071979	0.163330
O5	O	-0.949871	-0.071923	-0.073246
O6	O	-0.827634	-0.071916	0.063336
O7	O	-1.059375	-0.071912	0.033160
Cu8	Cu	-0.944104	-0.085052	0.048834
Cu9	Cu	-0.936332	0.085108	0.041250
O10	O	-0.937138	-0.071905	0.169743
C11	C	-0.794694	0.000026	0.061751
C12	C	-0.706334	0.000024	0.066571
N13	N	-0.949577	-0.204733	0.054167
C14	C	-0.674328	0.000016	-0.007596
C15	C	-0.591304	0.000021	-0.003062
C16	C	-0.540287	0.000027	0.075639
C17	C	-0.572298	0.000037	0.149810
C18	C	-0.655321	0.000039	0.145276
C19	C	-0.289136	0.000028	0.093153
C20	C	-0.206109	0.000023	0.097682
C21	C	-0.225120	0.000009	-0.055191
C22	C	-0.308144	0.000005	-0.059718
C23	C	-0.340147	0.000020	0.014453
C24	C	-0.455423	0.000029	0.080274
C25	C	-0.425010	0.000024	0.009816
C26	C	-0.903404	-0.250039	0.009258
C27	C	-0.907562	-0.340610	0.013299
C28	C	-0.957898	-0.385872	0.062246
C29	C	-1.004072	-0.340560	0.107160
C30	C	-0.999909	-0.249991	0.103123
C31	C	-0.972877	-0.659330	0.076787
C32	C	-0.977038	-0.749904	0.080819
C33	C	-0.880527	-0.749948	-0.013041
C34	C	-0.876372	-0.659378	-0.017078
C35	C	-0.922543	-0.614073	0.027840
C36	C	-0.962151	-0.478449	0.066376
C37	C	-0.918285	-0.521498	0.023714
C38	C	-0.085743	0.000026	0.028334
C39	C	-0.174103	0.000016	0.023516
C40	C	-0.946069	0.000019	-0.107390
C41	C	-0.944523	0.000018	-0.199572
N42	N	-0.930866	0.204790	0.035910
C43	C	-1.013460	0.000033	-0.426866
C44	C	-1.012000	0.000040	-0.513480
C45	C	-0.866971	0.000034	-0.483044
C46	C	-0.868431	0.000033	-0.396431
C47	C	-0.941678	0.000028	-0.368345
C48	C	-0.938758	0.000036	-0.541572
C49	C	-0.937176	0.000044	-0.635483
C50	C	-0.943261	0.000022	-0.274428
C51	C	-0.934367	0.000039	0.197473
C52	C	-0.935913	0.000046	0.289656
H53	H	-0.565249	0.000015	-0.063456
C54	C	-0.789318	-0.073933	-0.278070
C55	C	-0.789524	0.000029	-0.332094
H56	H	-0.740609	-0.073927	-0.238348
H57	H	-0.794047	-0.124100	-0.310256
H58	H	-0.833154	-0.073922	-0.248955
H59	H	-0.745691	0.000015	-0.361214
H60	H	-0.784787	0.050210	-0.299904
H61	H	-1.073102	0.000030	-0.404001
H62	H	-0.715861	0.000007	-0.071682
C63	C	-0.806564	-0.419684	0.021745
C64	C	-0.862957	-0.471747	-0.030086
H65	H	-0.772412	-0.388962	-0.011474
H66	H	-0.775561	-0.455025	0.063934
H67	H	-0.833477	-0.379746	0.047914
H68	H	-0.836044	-0.511689	-0.056250
H69	H	-0.893964	-0.436403	-0.072290
C70	C	-0.808419	-0.259189	-0.083104
C71	C	-0.848071	-0.200291	-0.044544
H72	H	-0.774254	-0.228476	-0.116313
H73	H	-0.846681	-0.294502	-0.118254
H74	H	-0.777421	-0.294523	-0.040891
H75	H	-0.879075	-0.164961	-0.086758
H76	H	-0.809804	-0.164963	-0.009391
C77	C	-1.068702	-0.668397	0.169955
C78	C	-1.023638	-0.609539	0.126150
H79	H	-1.100046	-0.637653	0.200424
H80	H	-1.033688	-0.703727	0.208254
H81	H	-1.102946	-0.703717	0.130889
H82	H	-0.989390	-0.574222	0.165216
H83	H	-1.058656	-0.574193	0.087847
H84	H	-0.164572	0.000024	0.161774
C85	C	-0.746284	-0.073932	-0.480470
C86	C	-0.786459	0.000033	-0.513915
H87	H	-0.696576	-0.073929	-0.499523
H88	H	-0.778130	-0.124097	-0.498691
H89	H	-0.736889	-0.073923	-0.420511
H90	H	-0.795859	0.000020	-0.573874
H91	H	-0.754606	0.050211	-0.495699
C92	C	-0.781385	-0.668522	-0.109440
C93	C	-0.821037	-0.609628	-0.070876
H94	H	-0.747221	-0.637806	-0.142650
H95	H	-0.819646	-0.703836	-0.144590
H96	H	-0.750383	-0.703855	-0.067229
H97	H	-0.852044	-0.574298	-0.113088
H98	H	-0.782771	-0.574299	-0.035724
H99	H	-0.349677	-0.000004	-0.123804
H100	H	-1.070452	0.000045	-0.561126
H101	H	-0.466551	0.000024	-0.054261
C102	C	-0.106294	0.000008	-0.116122
C103	C	-0.189939	0.000005	-0.136717
H104	H	-0.084577	0.000014	-0.166457
H105	H	-0.091079	-0.050164	-0.081747
H106	H	-0.086500	0.050188	-0.086207
H107	H	-0.209734	-0.050179	-0.166627
H108	H	-0.205161	0.050182	-0.171106
C109	C	-0.261994	0.000027	0.244715
C110	C	-0.324308	0.000031	0.174682
H111	H	-0.283713	0.000022	0.295049
H112	H	-0.227718	0.050199	0.241069
H113	H	-0.232300	-0.050153	0.245528
H114	H	-0.353999	0.050214	0.173866
H115	H	-0.358598	-0.050146	0.178330
H116	H	-1.018028	-0.786755	0.120680
C117	C	-0.464520	0.074004	0.240296
C118	C	-0.516219	0.000043	0.236319
H119	H	-0.429898	0.074001	0.293702
H120	H	-0.495010	0.124172	0.233119
H121	H	-0.433581	0.073989	0.196768
H122	H	-0.547163	0.000061	0.279843
H123	H	-0.485726	-0.050138	0.243505
C124	C	-0.628195	0.000044	0.296839
C125	C	-0.690505	0.000043	0.226802
H126	H	-0.649918	0.000044	0.347170
H127	H	-0.593919	0.050215	0.293191
H128	H	-0.598501	-0.050137	0.297659
H129	H	-0.720196	0.050227	0.225978
H130	H	-0.724795	-0.050133	0.230450
H131	H	-0.413876	0.000033	0.144353
C132	C	-1.115801	-0.442367	0.109130
C133	C	-1.059404	-0.390310	0.160962
H134	H	-1.149965	-0.473074	0.142345
H135	H	-1.088897	-0.482309	0.082970
H136	H	-1.146798	-0.407017	0.066931
H137	H	-1.028403	-0.425661	0.203157
H138	H	-1.086310	-0.350363	0.187136
C139	C	-1.095729	-0.259040	0.196297
C140	C	-1.050666	-0.200187	0.152485
H141	H	-1.127066	-0.228291	0.226770
H142	H	-1.060715	-0.294372	0.234594
H143	H	-1.129979	-0.294359	0.157235
H144	H	-1.016412	-0.164872	0.191548
H145	H	-1.085685	-0.164840	0.114185
H146	H	-0.869964	-0.377494	-0.023271
H147	H	-0.842936	-0.786844	-0.049609
H148	H	-1.003137	-0.515312	0.106225
