data_functionalizedCrystal
_audit_creation_method	'MofGen! by Chris Wilmer'
_symmetry_space_group_name_H-M	'P1'
_symmetry_Int_Tables_number	1
_symmetry_cell_setting	triclinic
loop_
_symmetry_equiv_pos_as_xyz
  x,y,z
_cell_length_a	15.944493
_cell_length_b	15.944551
_cell_length_c	13.596369
_cell_angle_alpha	89.999164
_cell_angle_beta	90.011468
_cell_angle_gamma	96.513108
loop_
_atom_site_label
_atom_site_type_symbol
_atom_site_fract_x
_atom_site_fract_y
_atom_site_fract_z
O1	O	-0.108336	1.114502	-0.081701
O2	O	-0.121693	0.869950	-0.081727
O3	O	0.007263	0.998930	-0.081693
O4	O	-0.237293	0.985523	-0.081735
O5	O	0.007270	0.998917	0.081890
O6	O	-0.121686	0.869937	0.081856
O7	O	-0.108330	1.114490	0.081882
Zn8	Zn	-0.115007	0.992211	0.107841
Zn9	Zn	-0.115016	0.992228	-0.107686
O10	O	-0.237286	0.985510	0.081848
C11	C	-0.121135	0.838650	0.000061
C12	C	-0.119473	0.745404	0.000052
C13	C	-0.035566	0.530565	0.000086
C14	C	-0.074533	0.469543	-0.080576
C15	C	-0.116465	0.574679	0.000065
C16	C	-0.074545	0.469553	0.080704
C17	C	-0.113555	0.409767	0.000081
C18	C	-0.155454	0.514885	-0.080664
C19	C	-0.155456	0.514901	0.080689
C20	C	-0.194481	0.453897	0.000007
C21	C	-0.118140	0.669681	0.000055
C22	C	-0.111886	0.314766	0.000084
C23	C	-0.268584	0.986064	0.000051
C24	C	-0.361833	0.987707	0.000036
C25	C	-0.597593	0.911787	0.000060
C26	C	-0.648174	0.952734	-0.080586
C27	C	-0.532554	0.990751	0.000059
C28	C	-0.648124	0.952740	0.080694
C29	C	-0.697463	0.993686	0.000086
C30	C	-0.581907	1.031677	-0.080654
C31	C	-0.581854	1.031671	0.080699
C32	C	-0.632402	1.072677	0.000033
C33	C	-0.437554	0.989058	0.000043
C34	C	-0.792461	0.995385	0.000095
C35	C	0.038562	0.998375	0.000101
C36	C	0.131810	0.996733	0.000110
C37	C	-0.108888	1.145790	0.000091
C38	C	-0.110550	1.239036	0.000094
N39	N	-0.115000	0.992206	0.254933
N40	N	-0.115016	0.992240	-0.254778
C41	C	-0.115017	0.992227	0.656224
C42	C	-0.115015	0.992219	0.544573
C43	C	-0.115009	0.992217	0.455582
C44	C	-0.115006	0.992208	0.343924
H45	H	-0.261690	0.420724	-0.000049
O46	O	-0.196115	0.538891	0.162131
C47	C	-0.199463	0.543225	0.339230
C48	C	-0.153333	0.516025	0.247070
H49	H	-0.164903	0.524733	0.407927
H50	H	-0.200842	0.614549	0.338118
H51	H	-0.266841	0.510474	0.339867
H52	H	-0.085935	0.548717	0.246373
H53	H	-0.152022	0.444693	0.248218
H54	H	-0.040310	0.449468	0.148895
H55	H	-0.677041	0.919371	0.148877
H56	H	-0.553098	1.065008	-0.148914
H57	H	-0.189649	0.534871	-0.148931
O58	O	-0.578977	0.830633	-0.000219
C59	C	-0.591821	0.697333	-0.085548
C60	C	-0.612949	0.789219	-0.085358
H61	H	-0.619293	0.663818	-0.154365
H62	H	-0.520388	0.696771	-0.084916
H63	H	-0.620191	0.663367	-0.017454
H64	H	-0.584634	0.823240	-0.153440
H65	H	-0.684389	0.789721	-0.085939
H66	H	-0.677129	0.919392	-0.148777
O67	O	-0.650954	1.153850	-0.000134
C68	C	-0.719776	1.259991	-0.084557
C69	C	-0.698848	1.168038	-0.084472
H70	H	-0.758485	1.271496	-0.152748
H71	H	-0.757616	1.271907	-0.015824
H72	H	-0.658658	1.304666	-0.085191
H73	H	-0.759923	1.123304	-0.083873
H74	H	-0.660973	1.156191	-0.153200
O75	O	0.044553	0.570292	-0.000170
C76	C	0.177692	0.592347	-0.085462
C77	C	0.086979	0.547314	-0.085299
H78	H	0.212025	0.573773	-0.154271
H79	H	0.175722	0.663595	-0.084826
H80	H	0.212504	0.572966	-0.017361
H81	H	0.052114	0.566627	-0.153389
H82	H	0.089010	0.476076	-0.085884
O83	O	-0.033798	0.445657	-0.162020
C84	C	-0.029542	0.442688	-0.339133
C85	C	-0.075749	0.469792	-0.246984
H86	H	-0.063450	0.462174	-0.407849
H87	H	0.038191	0.474529	-0.339097
H88	H	-0.029188	0.371231	-0.338666
H89	H	-0.076168	0.541239	-0.247391
H90	H	-0.143458	0.437890	-0.247055
H91	H	-0.552883	1.064984	0.148893
