data_functionalizedCrystal
_audit_creation_method	'MofGen! by Chris Wilmer'
_symmetry_space_group_name_H-M	'P1'
_symmetry_Int_Tables_number	1
_symmetry_cell_setting	triclinic
loop_
_symmetry_equiv_pos_as_xyz
  x,y,z
_cell_length_a	12.759401
_cell_length_b	16.625546
_cell_length_c	12.759393
_cell_angle_alpha	90.036194
_cell_angle_beta	90.018496
_cell_angle_gamma	90.022629
loop_
_atom_site_label
_atom_site_type_symbol
_atom_site_fract_x
_atom_site_fract_y
_atom_site_fract_z
Zn1	Zn	1.606199	-0.320951	0.593948
Zn2	Zn	1.606069	-0.455807	0.418253
Zn3	Zn	1.430501	-0.320993	0.418287
Zn4	Zn	1.430465	-0.455745	0.593895
O5	O	1.518308	-0.388374	0.506096
O6	O	1.753203	-0.338848	0.570649
O7	O	1.582740	-0.437968	0.271237
O8	O	1.453876	-0.208155	0.441625
O9	O	1.753107	-0.437927	0.441568
O10	O	1.582961	-0.208124	0.570682
O11	O	1.453751	-0.338920	0.271261
O12	O	1.283475	-0.338860	0.441574
O13	O	1.453816	-0.437821	0.740923
O14	O	1.283449	-0.437862	0.570592
O15	O	1.582927	-0.338788	0.740962
O16	O	1.582706	-0.568632	0.441517
O17	O	1.453691	-0.568586	0.570560
C18	C	1.245341	-0.388359	0.506081
C19	C	1.128564	-0.388372	0.506100
C20	C	1.073717	-0.440005	0.573169
C21	C	0.963992	-0.440015	0.573180
C22	C	0.963974	-0.336758	0.439045
C23	C	1.073696	-0.336744	0.439040
C24	C	1.128585	-0.491634	0.640229
C25	C	1.073737	-0.543271	0.707303
C26	C	0.964013	-0.543282	0.707314
C27	C	0.909137	-0.491654	0.640252
C28	C	1.518209	-0.597865	0.506052
C29	C	1.518263	-0.687486	0.506068
C30	C	1.518446	-1.015662	0.506177
C31	C	1.518392	-0.924353	0.506150
C32	C	1.518353	-0.851577	0.506122
C33	C	1.518301	-0.760262	0.506096
C34	C	1.792342	-0.388390	0.506111
C35	C	1.909118	-0.388396	0.506117
C36	C	1.518382	-0.388293	0.780129
C37	C	1.518413	-0.388258	0.896906
C38	C	1.518437	-0.178065	0.506163
C39	C	1.518492	-0.088444	0.506191
C40	C	1.518296	-0.388397	0.233128
C41	C	1.518468	-0.388204	0.116352
C42	C	1.585650	-0.336687	0.951790
C43	C	1.585675	-0.336657	1.061514
C44	C	1.451223	-0.439778	1.061461
C45	C	1.451194	-0.439803	0.951739
C46	C	1.652870	-0.285142	0.896957
C47	C	1.720113	-0.233567	0.951841
C48	C	1.720138	-0.233538	1.061565
C49	C	1.652920	-0.285084	1.116405
H50	H	1.118424	-0.585299	0.761909
C51	C	1.436600	-0.548211	1.184797
C52	C	1.377350	-0.496444	1.121736
H53	H	1.390994	-0.583199	1.222001
H54	H	1.476636	-0.517492	1.233184
H55	H	1.482341	-0.579060	1.141967
H56	H	1.331615	-0.465590	1.164567
H57	H	1.337296	-0.527166	1.073343
C58	C	1.771419	-0.096999	1.095391
C59	C	1.794047	-0.176844	1.121890
H60	H	1.817057	-0.062000	1.132627
H61	H	1.700852	-0.085191	1.113380
H62	H	1.781021	-0.089653	1.022194
H63	H	1.784438	-0.184191	1.195087
H64	H	1.864632	-0.188655	1.103908
H65	H	1.774833	-0.191595	0.907183
C66	C	0.795826	-0.589143	0.766897
C67	C	0.903720	-0.600035	0.781043
H68	H	0.758608	-0.624180	0.812419
H69	H	0.777816	-0.600881	0.696289
H70	H	0.777880	-0.534982	0.782407
H71	H	0.921668	-0.654195	0.765526
H72	H	0.921738	-0.588302	0.851668
H73	H	1.396427	-0.481784	0.907051
H74	H	1.118354	-0.294694	0.384435
C75	C	0.930195	-0.200182	0.388191
C76	C	0.903652	-0.280019	0.365328
H77	H	0.892948	-0.165157	0.342681
H78	H	1.003381	-0.192786	0.378582
H79	H	0.912237	-0.188458	0.458812
H80	H	0.921617	-0.291745	0.294709
H81	H	0.830450	-0.287419	0.374928
C82	C	1.285711	-0.512079	0.540220
C83	C	1.249194	-0.491625	0.640219
H84	H	1.360169	-0.512078	0.540215
H85	H	1.260885	-0.473942	0.490697
H86	H	1.260854	-0.564097	0.521939
H87	H	1.274044	-0.439604	0.658497
H88	H	1.274030	-0.529763	0.689757
C89	C	1.726035	-0.229038	0.739806
C90	C	1.652840	-0.285170	0.776348
H91	H	1.726011	-0.229054	0.665348
H92	H	1.793819	-0.242987	0.764624
H93	H	1.707904	-0.176999	0.764653
H94	H	1.670977	-0.337209	0.751507
H95	H	1.585042	-0.271225	0.751519
H96	H	0.819792	-0.491660	0.640276
C97	C	1.726163	-0.228904	1.273614
C98	C	1.652951	-0.285056	1.237017
H99	H	1.726190	-0.228894	1.348072
H100	H	1.708015	-0.176883	1.248821
H101	H	1.793941	-0.242863	1.248780
H102	H	1.585172	-0.271093	1.261845
H103	H	1.671094	-0.337088	1.261821
