data_functionalizedCrystal
_audit_creation_method	'MofGen! by Chris Wilmer'
_symmetry_space_group_name_H-M	'P1'
_symmetry_Int_Tables_number	1
_symmetry_cell_setting	triclinic
loop_
_symmetry_equiv_pos_as_xyz
  x,y,z
_cell_length_a	21.395364
_cell_length_b	13.897447
_cell_length_c	21.395355
_cell_angle_alpha	89.985644
_cell_angle_beta	89.975448
_cell_angle_gamma	90.034481
loop_
_atom_site_label
_atom_site_type_symbol
_atom_site_fract_x
_atom_site_fract_y
_atom_site_fract_z
Zn1	Zn	0.957908	-0.383742	-0.354280
Zn2	Zn	0.957831	-0.545021	-0.249510
Zn3	Zn	0.853123	-0.383784	-0.249516
Zn4	Zn	0.853112	-0.545039	-0.354250
O5	O	0.905493	-0.464396	-0.301889
O6	O	1.045576	-0.405111	-0.340391
O7	O	0.943913	-0.523643	-0.161833
O8	O	0.867059	-0.248797	-0.263429
O9	O	1.045519	-0.523602	-0.263417
O10	O	0.944044	-0.248766	-0.340398
O11	O	0.866985	-0.405183	-0.161838
O12	O	0.765444	-0.405200	-0.263400
O13	O	0.867042	-0.523632	-0.441932
O14	O	0.765436	-0.523673	-0.340347
O15	O	0.944034	-0.405128	-0.441954
O16	O	0.943903	-0.680005	-0.263389
O17	O	0.866967	-0.680018	-0.340341
C18	C	0.742706	-0.464443	-0.301871
C19	C	0.673065	-0.464487	-0.301879
C20	C	0.640403	-0.402889	-0.342021
C21	C	0.574968	-0.402864	-0.342023
C22	C	0.542196	-0.464453	-0.301890
C23	C	0.574865	-0.526054	-0.261740
C24	C	0.640300	-0.526071	-0.261734
C25	C	0.438483	-0.551319	-0.296857
C26	C	0.373050	-0.551304	-0.296867
C27	C	0.340376	-0.464400	-0.301904
C28	C	0.373142	-0.377508	-0.306944
C29	C	0.438576	-0.377525	-0.306939
C30	C	0.471244	-0.464441	-0.301891
C31	C	0.236762	-0.402769	-0.342051
C32	C	0.171325	-0.402742	-0.342049
C33	C	0.171224	-0.525941	-0.261769
C34	C	0.236659	-0.525960	-0.261768
C35	C	0.269424	-0.464375	-0.301912
C36	C	0.905443	-0.715011	-0.301874
C37	C	0.905478	-0.822225	-0.301889
C38	C	0.905508	-0.909294	-0.301903
C39	C	0.905552	-1.018527	-0.301919
C40	C	1.068917	-0.464350	-0.301907
C41	C	1.138558	-0.464330	-0.301915
C42	C	0.905545	-0.464377	-0.465312
C43	C	0.905568	-0.464369	-0.534954
C44	C	0.905562	-0.212803	-0.301917
C45	C	0.905591	-0.105590	-0.301929
C46	C	0.945656	-0.402661	-0.567679
C47	C	0.945655	-0.402619	-0.633114
C48	C	0.905573	-0.464303	-0.665822
C49	C	0.865476	-0.526015	-0.633089
C50	C	0.865474	-0.526048	-0.567654
C51	C	0.900608	-0.551157	-0.769492
C52	C	0.900614	-0.551126	-0.834925
C53	C	0.905576	-0.464201	-0.867643
C54	C	0.910545	-0.377304	-0.834920
C55	C	0.910542	-0.377337	-0.769486
C56	C	0.905570	-0.464274	-0.736774
C57	C	0.945666	-0.402443	-0.971321
C58	C	0.945661	-0.402400	-1.036757
C59	C	0.865485	-0.525804	-1.036730
C60	C	0.865487	-0.525838	-0.971295
C61	C	0.905581	-0.464159	-0.938594
C62	C	0.905478	-0.464346	-0.139101
C63	C	0.905577	-0.464083	-0.069460
H64	H	0.465252	-0.306775	-0.311041
C65	C	0.337013	-0.646885	-0.291315
N66	N	0.309872	-0.718879	-0.287130
H67	H	0.465081	-0.622092	-0.292754
C68	C	0.272805	-0.335016	-0.386204
N69	N	0.299952	-0.283983	-0.419460
H70	H	0.914586	-0.306522	-0.861558
C71	C	0.821382	-0.593863	-0.669068
N72	N	0.788167	-0.644964	-0.696168
H73	H	0.832847	-0.576093	-0.944649
H74	H	0.144542	-0.576088	-0.229091
H75	H	0.978309	-0.352215	-0.944694
C76	C	0.135398	-0.334975	-0.386211
N77	N	0.108337	-0.283933	-0.419475
C78	C	0.538815	-0.593803	-0.217594
N79	N	0.511662	-0.644832	-0.184340
C80	C	0.676228	-0.593841	-0.217575
N81	N	0.703290	-0.644888	-0.184316
H82	H	0.978303	-0.352436	-0.541058
H83	H	0.346540	-0.306742	-0.311046
C84	C	0.272588	-0.593731	-0.217612
N85	N	0.299649	-0.644778	-0.184352
H86	H	0.832826	-0.576296	-0.541010
C87	C	0.989761	-0.334739	-0.669120
N88	N	1.022983	-0.283614	-0.696237
H89	H	0.914586	-0.306583	-0.742846
H90	H	0.978305	-0.352145	-1.063401
H91	H	0.832843	-0.576018	-1.063360
H92	H	0.896573	-0.621882	-0.861562
C93	C	0.676441	-0.335132	-0.386173
N94	N	0.703586	-0.284092	-0.419426
H95	H	0.548370	-0.352699	-0.374711
C96	C	0.895161	-0.646790	-0.733508
N97	N	0.891063	-0.718818	-0.706406
