data_functionalizedCrystal
_audit_creation_method	'MofGen! by Chris Wilmer'
_symmetry_space_group_name_H-M	'P1'
_symmetry_Int_Tables_number	1
_symmetry_cell_setting	triclinic
loop_
_symmetry_equiv_pos_as_xyz
  x,y,z
_cell_length_a	19.077269
_cell_length_b	10.685194
_cell_length_c	19.076919
_cell_angle_alpha	87.724484
_cell_angle_beta	94.669058
_cell_angle_gamma	92.258685
loop_
_atom_site_label
_atom_site_type_symbol
_atom_site_fract_x
_atom_site_fract_y
_atom_site_fract_z
Zn1	Zn	1.037055	-0.600926	-0.330568
Zn2	Zn	1.537055	-0.100926	0.169432
Zn3	Zn	1.033453	-0.802615	-0.204396
Zn4	Zn	1.533453	-0.302615	0.295604
Zn5	Zn	0.924574	-0.584760	-0.218100
Zn6	Zn	1.424574	-0.084760	0.281900
Zn7	Zn	0.910887	-0.802552	-0.326982
Zn8	Zn	1.410887	-0.302552	0.173018
O9	O	0.976492	-0.697713	-0.270012
O10	O	1.476492	-0.197713	0.229988
O11	O	1.134946	-0.634472	-0.309597
O12	O	1.634946	-0.134472	0.190403
O13	O	1.023231	-0.766977	-0.107844
O14	O	1.523231	-0.266977	0.392156
O15	O	0.946730	-0.411349	-0.240255
O16	O	1.446730	0.088651	0.259745
O17	O	1.132299	-0.782653	-0.216899
O18	O	1.632299	-0.282653	0.283101
O19	O	1.029370	-0.423226	-0.322885
O20	O	1.529370	0.076774	0.177115
O21	O	0.943238	-0.606920	-0.117912
O22	O	1.443238	-0.106920	0.382088
O23	O	0.824390	-0.606858	-0.236778
O24	O	1.324390	-0.106858	0.263222
O25	O	0.923403	-0.782545	-0.425828
O26	O	1.423403	-0.282545	0.074172
O27	O	0.814334	-0.766870	-0.316773
O28	O	1.314334	-0.266870	0.183227
O29	O	1.016098	-0.634411	-0.428463
O30	O	1.516098	-0.134411	0.071537
O31	O	1.009959	-0.978162	-0.213422
O32	O	1.509959	-0.478162	0.286578
O33	O	0.919910	-0.978115	-0.303485
O34	O	1.419910	-0.478115	0.196515
C35	C	0.793856	-0.685104	-0.277873
C36	C	1.293856	-0.185104	0.222127
C37	C	0.715722	-0.679741	-0.281252
C38	C	1.215722	-0.179741	0.218748
C39	C	0.963077	-1.023660	-0.256592
C40	C	1.463077	-0.523660	0.243408
C41	C	0.957401	-1.163108	-0.250871
C42	C	1.457401	-0.663108	0.249129
C43	C	0.677642	-0.754236	-0.234515
C44	C	1.177642	-0.254236	0.265485
C45	C	0.604226	-0.749198	-0.237699
C46	C	1.104226	-0.249198	0.262301
C47	C	0.568892	-0.669657	-0.287617
C48	C	1.068892	-0.169657	0.212383
C49	C	0.606977	-0.595160	-0.334359
C50	C	1.106977	-0.095160	0.165641
C51	C	0.680391	-0.600205	-0.331178
C52	C	1.180391	-0.100205	0.168822
C53	C	0.349473	-0.646315	-0.302317
C54	C	0.849473	-0.146315	0.197683
C55	C	0.276054	-0.641272	-0.305493
C56	C	0.776054	-0.141272	0.194507
C57	C	0.273308	-0.795313	-0.208834
C58	C	0.773308	-0.295313	0.291166
C59	C	0.346724	-0.800346	-0.205654
C60	C	0.846724	-0.300346	0.294346
C61	C	0.384802	-0.725853	-0.252398
C62	C	0.884802	-0.225853	0.247602
N63	N	0.493849	-0.664503	-0.290872
N64	N	0.993849	-0.164503	0.209128
N65	N	0.459843	-0.731015	-0.249147
N66	N	0.959843	-0.231015	0.250853
C67	C	1.159841	-0.710373	-0.262119
C68	C	1.659841	-0.210373	0.237881
C69	C	1.237974	-0.715767	-0.258756
C70	C	1.737974	-0.215767	0.241244
C71	C	0.968625	-0.710274	-0.453365
C72	C	1.468625	-0.210274	0.046635
C73	C	0.965273	-0.715627	-0.531499
C74	C	1.465273	-0.215627	-0.031499
C75	C	0.989979	-0.370496	-0.283498
C76	C	1.489979	0.129504	0.216502
C77	C	0.995726	-0.231055	-0.289246
C78	C	1.495726	0.268945	0.210754
C79	C	1.011957	-0.641020	-0.569580
C80	C	1.511957	-0.141020	-0.069580
C81	C	1.008798	-0.646044	-0.642996
C82	C	1.508798	-0.146044	-0.142996
C83	C	0.958959	-0.725683	-0.678330
C84	C	1.458959	-0.225683	-0.178330
C85	C	0.912270	-0.800293	-0.640244
C86	C	1.412270	-0.300293	-0.140244
C87	C	0.915425	-0.795261	-0.566830
C88	C	1.415425	-0.295261	-0.066830
C89	C	0.944343	-0.748995	-0.897748
C90	C	1.444343	-0.248995	-0.397748
C91	C	0.941192	-0.754024	-0.971168
C92	C	1.441192	-0.254024	-0.471168
C93	C	1.037720	-0.599772	-0.973914
C94	C	1.537720	-0.099772	-0.473914
C95	C	1.040874	-0.594753	-0.900498
C96	C	1.540874	-0.094753	-0.400498
C97	C	0.994183	-0.669359	-0.862419
C98	C	1.494183	-0.169359	-0.362419
N99	N	0.955731	-0.730823	-0.753373
N100	N	1.455731	-0.230823	-0.253373
N101	N	0.997408	-0.664211	-0.787378
N102	N	1.497408	-0.164211	-0.287378
C103	C	0.984373	-0.685113	-0.087373
C104	C	1.484373	-0.185113	0.412627
C105	C	0.987876	-0.679416	-0.009248
C106	C	1.487876	-0.179416	0.490752
H107	H	0.706406	-0.819002	-0.193864
H108	H	1.206406	-0.319002	0.306136
H109	H	1.075733	-0.539031	-1.004926
H110	H	1.575733	-0.039031	-0.504926
O111	O	1.054165	-0.573749	-0.680061
O112	O	1.554165	-0.073749	-0.180061
C113	C	1.094806	-0.651210	-0.717627
C114	C	1.594806	-0.151210	-0.217627
H115	H	1.065627	-0.745328	-0.725768
H116	H	1.565627	-0.245328	-0.225768
H117	H	1.104102	-0.604294	-0.770956
H118	H	1.604102	-0.104294	-0.270956
H119	H	1.147553	-0.666645	-0.686536
H120	H	1.647553	-0.166645	-0.186536
O121	O	0.913023	-1.221114	-0.206546
O122	O	1.413023	-0.721114	0.293454
C123	C	0.862807	-1.296534	-0.245414
C124	C	1.362807	-0.796534	0.254586
H125	H	0.884487	-1.321329	-0.296853
H126	H	1.384487	-0.821329	0.203147
H127	H	0.850922	-1.386158	-0.213438
H128	H	1.350922	-0.886158	0.286562
H129	H	0.812407	-1.243105	-0.257380
H130	H	1.312407	-0.743105	0.242620
H131	H	0.380468	-0.585659	-0.340380
H132	H	0.880468	-0.085659	0.159620
H133	H	1.052544	-0.576173	-0.540816
H134	H	1.552544	-0.076173	-0.040816
O135	O	0.717489	-0.527961	-0.376544
O136	O	1.217489	-0.027961	0.123456
C137	C	0.789864	-0.549449	-0.363023
C138	C	1.289864	-0.049449	0.136977
H139	H	0.796896	-0.645306	-0.335493
H140	H	1.296896	-0.145306	0.164507
H141	H	0.815865	-0.546616	-0.414821
H142	H	1.315865	-0.046616	0.085179
H143	H	0.815356	-0.473802	-0.327824
H144	H	1.315356	0.026198	0.172176
H145	H	0.877404	-0.856002	-0.535826
H146	H	1.377404	-0.356002	-0.035826
H147	H	1.032880	-1.182548	-0.326479
H148	H	1.532880	-0.682548	0.173521
O149	O	1.089309	-0.517278	-0.866290
O150	O	1.589309	-0.017278	-0.366290
C151	C	1.129850	-0.452526	-0.915643
C152	C	1.629850	0.047474	-0.415643
H153	H	1.098988	-0.449777	-0.969392
H154	H	1.598988	0.050223	-0.469392
H155	H	1.142335	-0.352749	-0.898182
H156	H	1.642335	0.147251	-0.398182
H157	H	1.181007	-0.502690	-0.919263
H158	H	1.681007	-0.002690	-0.419263
O159	O	0.892804	-0.831552	-1.005410
O160	O	1.392804	-0.331552	-0.505410
C161	C	0.903784	-0.956427	-0.981673
C162	C	1.403784	-0.456427	-0.481673
H163	H	0.932982	-0.957254	-0.927097
H164	H	1.432982	-0.457254	-0.427097
H165	H	0.850838	-1.008996	-0.979034
H166	H	1.350838	-0.508996	-0.479034
H167	H	0.936411	-1.004008	-1.019693
H168	H	1.436411	-0.504008	-0.519693
O169	O	0.567345	-0.821599	-0.192223
O170	O	1.067345	-0.321599	0.307777
C171	C	0.614273	-0.892899	-0.147490
C172	C	1.114273	-0.392899	0.352510
H173	H	0.668820	-0.844937	-0.144955
H174	H	1.168820	-0.344937	0.355045
H175	H	0.594879	-0.900864	-0.092466
H176	H	1.094879	-0.400864	0.407534
H177	H	0.617068	-0.990549	-0.168874
H178	H	1.117068	-0.490549	0.331126
O179	O	0.899086	-0.821536	-0.860688
O180	O	1.399086	-0.321536	-0.360688
C181	C	0.937579	-0.902451	-0.813171
C182	C	1.437579	-0.402451	-0.313171
H183	H	0.993146	-0.861136	-0.801691
H184	H	1.493146	-0.361136	-0.301691
H185	H	0.910459	-0.913758	-0.762091
H186	H	1.410459	-0.413758	-0.262091
H187	H	0.940259	-0.997886	-0.837305
H188	H	1.440259	-0.497886	-0.337305
O189	O	0.863886	-0.877825	-0.674480
O190	O	1.363886	-0.377825	-0.174480
C191	C	0.874876	-1.002694	-0.650737
C192	C	1.374876	-0.502694	-0.150737
H193	H	0.904081	-1.003506	-0.596164
H194	H	1.404081	-0.503506	-0.096164
H195	H	0.821934	-1.055271	-0.648088
H196	H	1.321934	-0.555271	-0.148088
H197	H	0.907500	-1.050276	-0.688759
H198	H	1.407500	-0.550276	-0.188759
O199	O	0.241710	-0.563861	-0.353896
O200	O	0.741710	-0.063861	0.146104
C201	C	0.204273	-0.477080	-0.319131
C202	C	0.704273	0.022920	0.180869
H203	H	0.229084	-0.466898	-0.263142
H204	H	0.729084	0.033102	0.236858
H205	H	0.206319	-0.382298	-0.348656
H206	H	0.706319	0.117702	0.151344
H207	H	0.147143	-0.511867	-0.317483
H208	H	0.647143	-0.011867	0.182517
H209	H	0.375488	-0.865115	-0.165005
H210	H	0.875488	-0.365115	0.334995
H211	H	0.578202	-0.530402	-0.375006
H212	H	1.078202	-0.030402	0.124994
O213	O	0.236276	-0.867818	-0.163530
O214	O	0.736276	-0.367818	0.336470
C215	C	0.188760	-0.948754	-0.201979
C216	C	0.688760	-0.448754	0.298021
H217	H	0.208200	-0.961965	-0.256053
H218	H	0.708200	-0.461965	0.243947
H219	H	0.185048	-1.043426	-0.172532
H220	H	0.685048	-0.543426	0.327468
H221	H	0.134610	-0.906319	-0.208442
H222	H	0.634610	-0.406319	0.291558
