data_functionalizedCrystal
_audit_creation_method	'MofGen! by Chris Wilmer'
_symmetry_space_group_name_H-M	'P1'
_symmetry_Int_Tables_number	1
_symmetry_cell_setting	triclinic
loop_
_symmetry_equiv_pos_as_xyz
  x,y,z
_cell_length_a	17.699083
_cell_length_b	17.699083
_cell_length_c	16.776229
_cell_angle_alpha	90.000683
_cell_angle_beta	89.992455
_cell_angle_gamma	96.716985
loop_
_atom_site_label
_atom_site_type_symbol
_atom_site_fract_x
_atom_site_fract_y
_atom_site_fract_z
O1	O	0.095713	-1.004078	-0.066170
O2	O	0.595713	-0.504078	0.433830
O3	O	0.108165	-0.783700	-0.066198
O4	O	0.608165	-0.283700	0.433802
O5	O	-0.008250	-0.900116	-0.066176
O6	O	0.491750	-0.400116	0.433824
O7	O	0.212128	-0.887663	-0.066192
O8	O	0.712128	-0.387663	0.433808
O9	O	-0.008257	-0.900100	0.066400
O10	O	0.491743	-0.400100	0.566400
O11	O	0.108158	-0.783685	0.066378
O12	O	0.608158	-0.283685	0.566378
O13	O	0.095706	-1.004063	0.066406
O14	O	0.595706	-0.504063	0.566406
Zn15	Zn	0.101931	-0.893871	0.087442
Zn16	Zn	0.601931	-0.393871	0.587442
Zn17	Zn	0.101940	-0.893892	-0.087233
Zn18	Zn	0.601940	-0.393892	0.412767
O19	O	0.212121	-0.887648	0.066385
O20	O	0.712121	-0.387648	0.566385
C21	C	0.107716	-0.755495	0.000087
C22	C	0.607716	-0.255495	0.500087
C23	C	0.106377	-0.671477	0.000076
C24	C	0.606377	-0.171477	0.500076
C25	C	0.174710	-0.622856	0.000071
C26	C	0.674710	-0.122856	0.500071
C27	C	0.173448	-0.543913	0.000081
C28	C	0.673448	-0.043913	0.500081
C29	C	0.103852	-0.513592	0.000090
C30	C	0.603852	-0.013592	0.500090
C31	C	0.035513	-0.562219	0.000097
C32	C	0.535513	-0.062219	0.500097
C33	C	0.036776	-0.641161	0.000093
C34	C	0.536776	-0.141161	0.500093
C35	C	0.030418	-0.243856	0.000115
C36	C	0.530418	0.256144	0.500115
C37	C	0.029160	-0.164908	0.000117
C38	C	0.529160	0.335092	0.500117
C39	C	0.167090	-0.146608	0.000103
C40	C	0.667090	0.353392	0.500103
C41	C	0.168353	-0.225550	0.000098
C42	C	0.668353	0.274450	0.500098
C43	C	0.100015	-0.274170	0.000110
C44	C	0.600015	0.225830	0.500110
C45	C	0.101384	-0.359769	0.000101
C46	C	0.601384	0.140231	0.500101
C47	C	0.102481	-0.427995	0.000093
C48	C	0.602481	0.072005	0.500093
C49	C	-0.036451	-0.899662	0.000112
C50	C	0.463549	-0.399662	0.500112
C51	C	-0.120469	-0.898323	0.000112
C52	C	0.379531	-0.398323	0.500112
C53	C	-0.169090	-0.966656	0.000122
C54	C	0.330910	-0.466656	0.500122
C55	C	-0.248033	-0.965394	0.000115
C56	C	0.251967	-0.465394	0.500115
C57	C	-0.278354	-0.895798	0.000103
C58	C	0.221646	-0.395798	0.500103
C59	C	-0.229727	-0.827459	0.000091
C60	C	0.270273	-0.327459	0.500091
C61	C	-0.150785	-0.828722	0.000093
C62	C	0.349215	-0.328722	0.500093
C63	C	-0.548090	-0.822364	0.000084
C64	C	-0.048090	-0.322364	0.500084
C65	C	-0.627038	-0.821106	0.000085
C66	C	-0.127038	-0.321106	0.500085
C67	C	-0.645338	-0.959036	0.000106
C68	C	-0.145338	-0.459036	0.500106
C69	C	-0.566396	-0.960299	0.000108
C70	C	-0.066396	-0.460299	0.500108
C71	C	-0.517776	-0.891961	0.000091
C72	C	-0.017776	-0.391961	0.500091
C73	C	-0.432177	-0.893330	0.000098
C74	C	0.067823	-0.393330	0.500098
C75	C	-0.363951	-0.894427	0.000103
C76	C	0.136049	-0.394427	0.500103
C77	C	0.240322	-0.888102	0.000095
C78	C	0.740322	-0.388102	0.500095
C79	C	0.324340	-0.889440	0.000089
C80	C	0.824340	-0.389440	0.500089
N81	N	0.101924	-0.893863	0.206653
N82	N	0.601924	-0.393863	0.706653
C83	C	0.096156	-0.032268	0.000118
C84	C	0.596156	0.467732	0.500118
C85	C	0.097494	-0.116286	0.000117
C86	C	0.597494	0.383714	0.500117
N87	N	0.101941	-0.893906	-0.206445
N88	N	0.601941	-0.393906	0.293555
C89	C	0.050396	-0.945428	0.248380
C90	C	0.550396	-0.445428	0.748380
C91	C	0.050396	-0.945432	0.331832
C92	C	0.550396	-0.445432	0.831832
C93	C	0.101927	-0.893875	0.373556
C94	C	0.601927	-0.393875	0.873556
C95	C	0.153457	-0.842305	0.331823
C96	C	0.653457	-0.342305	0.831823
C97	C	0.153454	-0.842297	0.248373
C98	C	0.653454	-0.342297	0.748373
C99	C	0.153472	-0.842332	0.668370
C100	C	0.653472	-0.342332	1.168370
C101	C	0.153473	-0.842345	0.751827
C102	C	0.653473	-0.342345	1.251827
C103	C	0.050414	-0.945466	0.751830
C104	C	0.550414	-0.445466	1.251830
C105	C	0.050411	-0.945459	0.668379
C106	C	0.550411	-0.445459	1.168379
C107	C	0.101938	-0.893887	0.626654
C108	C	0.601938	-0.393887	1.126654
C109	C	0.101937	-0.893882	0.536165
C110	C	0.601937	-0.393882	1.036165
C111	C	0.101932	-0.893882	0.464043
C112	C	0.601932	-0.393882	0.964043
H113	H	0.229092	-0.504328	0.000076
H114	H	0.729092	-0.004328	0.500076
O115	O	0.209020	-0.786668	0.203367
O116	O	0.709020	-0.286668	0.703367
H117	H	0.200351	-0.795314	0.138330
H118	H	0.700351	-0.295314	0.638330
O119	O	-0.697780	-1.032746	0.000123
O120	O	-0.197780	-0.532746	0.500123
H121	H	-0.687006	-1.066074	-0.053901
H122	H	-0.187006	-0.566074	0.446099
O123	O	-0.039555	-0.529522	0.000114
O124	O	0.460445	-0.029522	0.500114
H125	H	-0.043434	-0.493997	-0.053923
H126	H	0.456566	0.006003	0.446077
H127	H	0.225025	-0.250232	0.000087
H128	H	0.725025	0.249768	0.500087
H129	H	0.008452	-0.987444	0.634410
H130	H	0.508452	-0.487444	1.134410
H131	H	0.222734	-0.107012	0.000097
H132	H	0.722734	0.392988	0.500097
H133	H	-0.651721	-0.764429	0.000077
H134	H	-0.151721	-0.264429	0.500077
H135	H	-0.018868	-0.680748	0.000097
H136	H	0.481132	-0.180748	0.500097
H137	H	0.231384	-0.647537	0.000063
H138	H	0.731384	-0.147537	0.500063
O139	O	-0.005172	-1.001063	0.376831
O140	O	0.494828	-0.501063	0.876831
H141	H	-0.064166	-0.991547	0.360819
H142	H	0.435834	-0.491547	0.860819
O143	O	-0.300478	-1.039096	0.000124
O144	O	0.199522	-0.539096	0.500124
H145	H	-0.336895	-1.041806	0.054155
H146	H	0.163105	-0.541806	0.554155
O147	O	-0.495653	-0.748660	0.000087
O148	O	0.004347	-0.248660	0.500087
H149	H	-0.530002	-0.700056	0.000093
H150	H	-0.030002	-0.200056	0.500093
O151	O	-0.045908	-0.132201	0.000140
O152	O	0.454092	0.367799	0.500140
H153	H	-0.093216	-0.179271	0.000158
H154	H	0.406784	0.320729	0.500158
H155	H	-0.144409	-1.023330	0.000136
H156	H	0.355591	-0.523330	0.500136
H157	H	-0.254420	-0.770792	0.000077
H158	H	0.245580	-0.270792	0.500077
O159	O	0.209045	-0.786702	0.376823
O160	O	0.709045	-0.286702	0.876823
H161	H	0.199476	-0.727718	0.360824
H162	H	0.699476	-0.227718	0.860824
H163	H	0.008456	-0.987457	0.785811
H164	H	0.508456	-0.487457	1.285811
O165	O	-0.533697	-1.035366	0.000108
O166	O	-0.033697	-0.535366	0.500108
H167	H	-0.553247	-1.068197	0.054141
H168	H	-0.053247	-0.568197	0.554141
O169	O	-0.043286	-0.296293	0.000127
O170	O	0.456714	0.203707	0.500127
H171	H	-0.091890	-0.261944	0.000127
H172	H	0.408110	0.238056	0.500127
H173	H	0.195437	-0.800358	0.785797
H174	H	0.695437	-0.300358	1.285797
O175	O	-0.098338	-0.755021	0.000091
O176	O	0.401662	-0.255021	0.500091
H177	H	-0.132682	-0.706413	0.000092
H178	H	0.367318	-0.206413	0.500092
O179	O	-0.005187	-1.001033	0.203378
O180	O	0.494813	-0.501033	0.703378
H181	H	-0.041023	-1.036883	0.246417
H182	H	0.458977	-0.536883	0.746417
H183	H	0.195428	-0.800342	0.634404
H184	H	0.695428	-0.300342	1.134404
