data_functionalizedCrystal
_audit_creation_method	'MofGen! by Chris Wilmer'
_symmetry_space_group_name_H-M	'P1'
_symmetry_Int_Tables_number	1
_symmetry_cell_setting	triclinic
loop_
_symmetry_equiv_pos_as_xyz
  x,y,z
_cell_length_a	14.519710
_cell_length_b	12.837942
_cell_length_c	11.892095
_cell_angle_alpha	85.697431
_cell_angle_beta	86.094705
_cell_angle_gamma	90.745458
loop_
_atom_site_label
_atom_site_type_symbol
_atom_site_fract_x
_atom_site_fract_y
_atom_site_fract_z
O1	O	1.240925	-0.129293	-0.093978
O2	O	1.740925	0.370707	0.406022
O3	O	0.973832	-0.145298	-0.093985
O4	O	1.473832	0.354702	0.406015
O5	O	1.101456	0.013618	-0.093975
O6	O	1.601456	0.513618	0.406025
O7	O	1.113301	-0.288209	-0.093988
O8	O	1.613301	0.211791	0.406012
O9	O	1.090813	0.000388	0.094032
O10	O	1.590813	0.500388	0.594032
O11	O	0.963189	-0.158527	0.094021
O12	O	1.463189	0.341473	0.594021
O13	O	1.230282	-0.142523	0.094029
O14	O	1.730282	0.357477	0.594029
Zn15	Zn	1.095046	-0.152625	0.123875
Zn16	Zn	1.595046	0.347375	0.623875
Zn17	Zn	1.109068	-0.135195	-0.123832
Zn18	Zn	1.609068	0.364805	0.376168
O19	O	1.102659	-0.301438	0.094018
O20	O	1.602659	0.198562	0.594018
C21	C	1.092133	0.045631	0.000028
C22	C	1.592133	0.545631	0.500028
C23	C	1.080199	0.160731	0.000026
C24	C	1.580199	0.660731	0.500026
C25	C	0.934086	-0.151166	0.000017
C26	C	1.434086	0.348834	0.500017
C27	C	0.831512	-0.148931	0.000014
C28	C	1.331512	0.351069	0.500014
C29	C	1.270028	-0.136654	0.000024
C30	C	1.770028	0.363346	0.500024
C31	C	1.372603	-0.138888	0.000019
C32	C	1.872603	0.361112	0.500019
C33	C	1.748210	-0.147117	0.000018
C34	C	2.248210	0.352883	0.500018
C35	C	1.643704	-0.144832	0.000018
C36	C	2.143704	0.355168	0.500018
C37	C	1.560410	-0.143003	0.000018
C38	C	2.060410	0.356997	0.500018
C39	C	1.455898	-0.140718	0.000020
C40	C	1.955898	0.359282	0.500020
C41	C	1.111982	-0.333451	0.000013
C42	C	1.611982	0.166549	0.500013
C43	C	1.123916	-0.448550	0.000008
C44	C	1.623916	0.051450	0.500008
N45	N	1.085483	-0.164521	0.292928
N46	N	1.585483	0.335479	0.792928
C47	C	1.223670	0.401424	0.000006
C48	C	1.723670	0.901424	0.500006
C49	C	1.212462	0.509571	0.000004
C50	C	1.712462	1.009571	0.500004
C51	C	1.046574	0.485174	0.000011
C52	C	1.546574	0.985174	0.500011
C53	C	1.057783	0.377027	0.000013
C54	C	1.557783	0.877027	0.500013
C55	C	1.146334	0.335156	0.000012
C56	C	1.646334	0.835156	0.500012
C57	C	1.157541	0.227007	0.000023
C58	C	1.657541	0.727007	0.500023
C59	C	0.991654	0.202612	0.000022
C60	C	1.491654	0.702612	0.500022
C61	C	0.980446	0.310759	0.000019
C62	C	1.480446	0.810759	0.500019
N63	N	1.118638	-0.123291	-0.292885
N64	N	1.618638	0.376709	0.207115
C65	C	1.185178	-0.040459	0.529585
C66	C	1.685178	0.459541	1.029585
C67	C	1.178501	-0.048781	0.647926
C68	C	1.678501	0.451219	1.147926
C69	C	1.065447	-0.189482	0.647955
C70	C	1.565447	0.310518	1.147955
C71	C	1.072124	-0.181160	0.529613
C72	C	1.572124	0.318840	1.029613
C73	C	1.131993	-0.106647	0.470432
C74	C	1.631993	0.393353	0.970432
C75	C	1.138674	-0.098330	0.352089
C76	C	1.638674	0.401670	0.852089
C77	C	1.025616	-0.239025	0.352120
C78	C	1.525616	0.260975	0.852120
C79	C	1.018938	-0.247348	0.470461
C80	C	1.518938	0.252652	0.970461
H81	H	1.229644	0.192918	0.000026
H82	H	1.729644	0.692918	0.500026
F83	F	1.202394	-0.019030	0.289107
F84	F	1.702394	0.480970	0.789107
H85	H	1.233932	0.020206	0.481399
H86	H	1.733932	0.520206	0.981399
H87	H	0.928681	0.148644	0.000036
H88	H	1.428681	0.648644	0.500036
F89	F	1.294775	0.580096	-0.000006
F90	F	1.794775	1.080096	0.499994
H91	H	1.221809	0.005117	0.696084
H92	H	1.721809	0.505117	1.196084
F93	F	1.001725	-0.268770	0.710952
F94	F	1.501725	0.231230	1.210952
H95	H	0.970192	-0.308012	0.518660
H96	H	1.470192	0.191988	1.018660
H97	H	0.982311	-0.292923	0.303945
H98	H	1.482311	0.207077	0.803945
F99	F	1.317910	0.356859	0.000029
F100	F	1.817910	0.856859	0.500029
H101	H	0.908350	0.344865	0.000016
H102	H	1.408350	0.844865	0.500016
F103	F	0.952340	0.529756	-0.000016
F104	F	1.452340	1.029756	0.499984
