data_functionalizedCrystal
_audit_creation_method	'MofGen! by Chris Wilmer'
_symmetry_space_group_name_H-M	'P1'
_symmetry_Int_Tables_number	1
_symmetry_cell_setting	triclinic
loop_
_symmetry_equiv_pos_as_xyz
  x,y,z
_cell_length_a	10.723023
_cell_length_b	19.188924
_cell_length_c	9.198806
_cell_angle_alpha	89.994752
_cell_angle_beta	89.996191
_cell_angle_gamma	83.804756
loop_
_atom_site_label
_atom_site_type_symbol
_atom_site_fract_x
_atom_site_fract_y
_atom_site_fract_z
O1	O	1.655151	0.097920	-0.120896
O2	O	2.155151	0.597920	0.379104
O3	O	1.291804	0.107293	-0.120900
O4	O	1.791804	0.607293	0.379100
O5	O	1.483968	0.001019	-0.120881
O6	O	1.983968	0.501019	0.379119
O7	O	1.462988	0.204194	-0.120915
O8	O	1.962988	0.704194	0.379085
O9	O	1.483952	0.001018	0.120904
O10	O	1.983952	0.501018	0.620904
O11	O	1.291789	0.107293	0.120885
O12	O	1.791789	0.607293	0.620885
O13	O	1.655136	0.097919	0.120889
O14	O	2.155136	0.597919	0.620889
Cu15	Cu	1.473461	0.102606	0.142964
Cu16	Cu	1.973461	0.602606	0.642964
Cu17	Cu	1.473479	0.102607	-0.142975
Cu18	Cu	1.973479	0.602607	0.357025
O19	O	1.462973	0.204194	0.120870
O20	O	1.962973	0.704194	0.620870
C21	C	1.245311	0.106611	-0.000008
C22	C	1.745311	0.606611	0.499992
C23	C	1.106799	0.104571	-0.000009
C24	C	1.606799	0.604571	0.499991
C25	C	0.901886	0.101552	0.125238
C26	C	1.401886	0.601552	0.625238
C27	C	1.045045	0.103661	0.125242
C28	C	1.545045	0.603661	0.625242
C29	C	1.483282	-0.024997	0.000013
C30	C	1.983282	0.475003	0.500013
C31	C	1.481247	-0.102515	0.000017
C32	C	1.981247	0.397485	0.500017
C33	C	1.480305	-0.138920	-0.131780
C34	C	1.980305	0.361080	0.368220
C35	C	1.478375	-0.211755	-0.131792
C36	C	1.978375	0.288245	0.368208
C37	C	1.477412	-0.248184	0.000002
C38	C	1.977412	0.251816	0.500002
C39	C	1.478347	-0.211770	0.131817
C40	C	1.978347	0.288230	0.631817
C41	C	1.480264	-0.138936	0.131824
C42	C	1.980264	0.361064	0.631824
N43	N	1.545403	-0.367406	0.098094
N44	N	2.045403	0.132594	0.598094
N45	N	1.543584	-0.436596	0.098078
N46	N	2.043584	0.063404	0.598078
C47	C	1.471632	-0.467631	-0.000012
C48	C	1.971632	0.032369	0.499988
N49	N	1.401584	-0.426863	-0.098108
N50	N	1.901584	0.073137	0.401892
N51	N	1.403408	-0.357667	-0.098096
N52	N	1.903408	0.142333	0.401904
C53	C	1.475332	-0.327161	0.000009
C54	C	1.975332	0.172839	0.500009
C55	C	1.468596	-0.583012	-0.131830
C56	C	1.968596	-0.083012	0.368170
C57	C	1.466659	-0.655848	-0.131836
C58	C	1.966659	-0.155848	0.368164
C59	C	1.466643	-0.655863	0.131777
C60	C	1.966643	-0.155863	0.631777
C61	C	1.468568	-0.583027	0.131778
C62	C	1.968568	-0.083027	0.631778
C63	C	1.469550	-0.546607	-0.000029
C64	C	1.969550	-0.046607	0.499971
C65	C	1.701629	0.098602	-0.000006
C66	C	2.201629	0.598602	0.499994
C67	C	1.840141	0.100642	-0.000015
C68	C	2.340141	0.600642	0.499985
C69	C	1.463658	0.230210	-0.000027
C70	C	1.963658	0.730210	0.499973
C71	C	1.465693	0.307728	-0.000041
C72	C	1.965693	0.807728	0.499959
N73	N	1.473458	0.102606	0.344078
N74	N	1.973458	0.602606	0.844078
N75	N	1.473492	0.102602	-0.344089
N76	N	1.973492	0.602602	0.155911
C77	C	1.554146	0.057787	0.416283
C78	C	2.054146	0.557787	0.916283
C79	C	1.554165	0.057785	0.583695
C80	C	2.054165	0.557785	1.083695
H81	H	0.848762	0.100773	0.232468
H82	H	1.348762	0.600773	0.732468
H83	H	0.893263	0.101429	-0.107245
H84	H	1.393263	0.601429	0.392755
H85	H	1.404413	0.140977	0.593827
H86	H	1.904413	0.640977	1.093827
Br87	Br	1.465367	-0.705256	-0.310720
Br88	Br	1.965367	-0.205256	0.189280
Br89	Br	1.477093	-0.261173	-0.310672
Br90	Br	1.977093	0.238827	0.189328
H91	H	1.404387	0.140972	0.406199
H92	H	1.904387	0.640972	0.906199
H93	H	1.098145	0.104440	0.232475
H94	H	1.598145	0.604440	0.732475
H95	H	1.053708	0.103787	-0.107248
H96	H	1.553708	0.603787	0.392752
Br97	Br	1.465323	-0.705294	0.310644
Br98	Br	1.965323	-0.205294	0.810644
H99	H	1.481026	-0.109295	0.239153
H100	H	1.981026	0.390705	0.739153
H101	H	1.477559	-0.241435	0.239124
H102	H	1.977559	0.258565	0.739124
Br103	Br	1.469923	-0.533580	-0.310706
Br104	Br	1.969923	-0.033580	0.189294
Br105	Br	1.481633	-0.089495	-0.310661
Br106	Br	1.981633	0.410505	0.189339
H107	H	1.469345	-0.553387	0.239102
H108	H	1.969345	-0.053387	0.739102
Br109	Br	1.668952	-0.006344	0.312757
Br110	Br	2.168952	0.493656	0.812757
H111	H	1.623250	0.019416	0.645789
H112	H	2.123250	0.519416	1.145789
