data_functionalizedCrystal
_audit_creation_method	'MofGen! by Chris Wilmer'
_symmetry_space_group_name_H-M	'P1'
_symmetry_Int_Tables_number	1
_symmetry_cell_setting	triclinic
loop_
_symmetry_equiv_pos_as_xyz
  x,y,z
_cell_length_a	17.038272
_cell_length_b	15.944545
_cell_length_c	14.421503
_cell_angle_alpha	89.995153
_cell_angle_beta	89.989101
_cell_angle_gamma	92.696136
loop_
_atom_site_label
_atom_site_type_symbol
_atom_site_fract_x
_atom_site_fract_y
_atom_site_fract_z
O1	O	-0.100803	1.121730	-0.077039
O2	O	0.232530	1.455063	0.256295
O3	O	0.565863	1.788396	0.589628
O4	O	-0.113241	0.878067	-0.077052
O5	O	0.220093	1.211401	0.256281
O6	O	0.553426	1.544734	0.589615
O7	O	0.006794	0.998450	-0.077054
O8	O	0.340127	1.331784	0.256280
O9	O	0.673460	1.665117	0.589613
O10	O	-0.220838	1.001347	-0.077037
O11	O	0.112496	1.334680	0.256296
O12	O	0.445829	1.668013	0.589629
O13	O	0.006776	0.998430	0.077170
O14	O	0.340109	1.331764	0.410503
O15	O	0.673443	1.665097	0.743837
O16	O	-0.113258	0.878047	0.077171
O17	O	0.220075	1.211381	0.410505
O18	O	0.553408	1.544714	0.743838
O19	O	-0.100821	1.121710	0.077185
O20	O	0.232512	1.455043	0.410518
O21	O	0.565846	1.788376	0.743851
Cu22	Cu	-0.107041	0.999877	0.091260
Cu23	Cu	0.226292	1.333210	0.424593
Cu24	Cu	0.559625	1.666543	0.757927
Cu25	Cu	-0.107020	0.999900	-0.091127
Cu26	Cu	0.226313	1.333234	0.242206
Cu27	Cu	0.559646	1.666567	0.575539
O28	O	-0.220856	1.001327	0.077186
O29	O	0.112478	1.334660	0.410520
O30	O	0.445811	1.667993	0.743853
C31	C	-0.112734	0.846727	0.000058
C32	C	0.220599	1.180060	0.333391
C33	C	0.553933	1.513393	0.666724
C34	C	-0.111189	0.753370	0.000052
C35	C	0.222145	1.086703	0.333385
C36	C	0.555478	1.420037	0.666719
C37	C	-0.032168	0.477095	0.000056
C38	C	0.301165	0.810429	0.333389
C39	C	0.634498	1.143762	0.666723
C40	C	-0.070274	0.530387	0.076101
C41	C	0.263059	0.863720	0.409435
C42	C	0.596392	1.197054	0.742768
C43	C	-0.105678	0.417333	0.000067
C44	C	0.227656	0.750666	0.333401
C45	C	0.560989	1.083999	0.666734
C46	C	-0.070276	0.530389	-0.075951
C47	C	0.263057	0.863722	0.257382
C48	C	0.596390	1.197055	0.590716
C49	C	-0.108381	0.582439	0.000058
C50	C	0.224952	0.915772	0.333392
C51	C	0.558285	1.249106	0.666725
C52	C	-0.143764	0.469395	0.076175
C53	C	0.189569	0.802728	0.409509
C54	C	0.522902	1.136061	0.742842
C55	C	-0.143756	0.469392	-0.075945
C56	C	0.189578	0.802726	0.257388
C57	C	0.522911	1.136059	0.590722
C58	C	-0.181916	0.522655	0.000119
C59	C	0.151418	0.855989	0.333452
C60	C	0.484751	1.189322	0.666785
C61	C	-0.104118	0.322219	0.000073
C62	C	0.229215	0.655552	0.333407
C63	C	0.562549	0.988886	0.666740
C64	C	-0.109947	0.677550	0.000059
C65	C	0.223386	1.010884	0.333392
C66	C	0.556720	1.344217	0.666725
C67	C	-0.249976	1.003971	0.000077
C68	C	0.083358	1.337304	0.333410
C69	C	0.416691	1.670638	0.666743
C70	C	-0.336771	1.011830	0.000083
C71	C	-0.003437	1.345164	0.333416
C72	C	0.329896	1.678497	0.666750
C73	C	-0.386865	0.939673	0.000079
C74	C	-0.053532	1.273006	0.333412
C75	C	0.279802	1.606339	0.666745
C76	C	-0.468418	0.947062	0.000068
C77	C	-0.135084	1.280396	0.333401
C78	C	0.198249	1.613729	0.666734
C79	C	-0.499874	1.026610	0.000067
C80	C	-0.166541	1.359944	0.333401
C81	C	0.166792	1.693277	0.666734
C82	C	-0.449774	1.098773	0.000069
C83	C	-0.116440	1.432107	0.333402
C84	C	0.216893	1.765440	0.666736
C85	C	-0.368223	1.091383	0.000074
C86	C	-0.034889	1.424716	0.333407
C87	C	0.298444	1.758050	0.666740
C88	C	-0.745639	1.052719	0.000048
C89	C	-0.412306	1.386053	0.333381
C90	C	-0.078973	1.719386	0.666714
C91	C	-0.827197	1.060104	0.000046
C92	C	-0.493863	1.393438	0.333379
C93	C	-0.160530	1.726771	0.666713
C94	C	-0.845835	0.908393	0.000043
C95	C	-0.512502	1.241726	0.333376
C96	C	-0.179169	1.575059	0.666709
C97	C	-0.764282	0.901009	0.000053
C98	C	-0.430948	1.234342	0.333386
C99	C	-0.097615	1.567676	0.666720
C100	C	-0.714188	0.973172	0.000050
C101	C	-0.380855	1.306505	0.333383
C102	C	-0.047522	1.639839	0.666716
C103	C	-0.583234	1.034166	0.000059
C104	C	-0.249901	1.367499	0.333392
C105	C	0.083433	1.700832	0.666726
C106	C	-0.630830	0.965616	0.000051
C107	C	-0.297497	1.298949	0.333385
C108	C	0.035836	1.632283	0.666718
C109	C	0.035914	0.995806	0.000054
C110	C	0.369247	1.329139	0.333387
C111	C	0.702581	1.662473	0.666721
C112	C	0.122709	0.987947	0.000041
C113	C	0.456042	1.321280	0.333375
C114	C	0.789376	1.654613	0.666708
C115	C	-0.101328	1.153051	0.000073
C116	C	0.232006	1.486384	0.333406
C117	C	0.565339	1.819717	0.666740
C118	C	-0.102873	1.246407	0.000073
C119	C	0.230460	1.579741	0.333406
C120	C	0.563794	1.913074	0.666739
N121	N	-0.107056	0.999866	0.219541
N122	N	0.226278	1.333199	0.552874
N123	N	0.559611	1.666533	0.886208
N124	N	-0.107000	0.999917	-0.219408
N125	N	0.226334	1.333251	0.113925
N126	N	0.559667	1.666584	0.447258
C127	C	-0.162535	0.944189	0.469195
C128	C	0.170799	1.277522	0.802529
C129	C	0.504132	1.610855	1.135862
C130	C	-0.177712	1.021173	0.531004
C131	C	0.155621	1.354506	0.864337
C132	C	0.488954	1.687839	1.197671
C133	C	-0.107037	0.999885	0.408703
C134	C	0.226296	1.333218	0.742036
C135	C	0.559630	1.666552	1.075369
C136	C	-0.091878	0.922922	0.530988
C137	C	0.241455	1.256255	0.864321
C138	C	0.574789	1.589589	1.197655
C139	C	-0.107021	0.999897	0.591424
C140	C	0.226312	1.333230	0.924757
C141	C	0.559646	1.666564	1.258091
C142	C	-0.122250	1.076910	0.469150
C143	C	0.211083	1.410243	0.802483
C144	C	0.544417	1.743577	1.135817
C145	C	-0.036385	0.978607	0.469129
C146	C	0.296949	1.311941	0.802462
C147	C	0.630282	1.645274	1.135796
C148	C	-0.051532	1.055644	0.530909
C149	C	0.281801	1.388977	0.864243
C150	C	0.615134	1.722311	1.197576
C151	C	-0.107049	0.999877	0.303441
C152	C	0.226285	1.333211	0.636775
C153	C	0.559618	1.666544	0.970108
C154	C	-0.107009	0.999913	0.696683
C155	C	0.226324	1.333247	1.030016
C156	C	0.559658	1.666580	1.363350
H157	H	-0.039237	0.557093	0.140387
H158	H	0.294097	0.890426	0.473720
H159	H	0.627430	1.223760	0.807053
H160	H	-0.361260	0.874896	0.000090
H161	H	-0.027927	1.208229	0.333423
H162	H	0.305407	1.541563	0.666756
F163	F	-0.139090	1.162016	0.433799
F164	F	0.194243	1.495349	0.767133
F165	F	0.527576	1.828682	1.100466
F166	F	-0.255798	1.044712	0.566528
F167	F	0.077535	1.378045	0.899862
F168	F	0.410868	1.711378	1.233195
H169	H	-0.004590	1.102805	0.557837
H170	H	0.328743	1.436138	0.891170
H171	H	0.662077	1.769471	1.224503
F172	F	-0.029674	0.565300	-0.159977
F173	F	0.303660	0.898633	0.173356
F174	F	0.636993	1.231967	0.506689
F175	F	-0.483254	1.183435	0.000062
F176	F	-0.149921	1.516768	0.333395
F177	F	0.183412	1.850102	0.666728
H178	H	0.023338	0.960577	0.441930
H179	H	0.356672	1.293910	0.775263
H180	H	0.690005	1.627244	1.108596
H181	H	-0.079064	0.857831	0.558153
H182	H	0.254270	1.191164	0.891487
H183	H	0.587603	1.524498	1.224820
H184	H	0.031139	0.456922	0.000125
H185	H	0.364472	0.790255	0.333459
H186	H	0.697805	1.123588	0.666792
H187	H	-0.209505	0.897142	0.442098
H188	H	0.123828	1.230475	0.775432
H189	H	0.457162	1.563809	1.108765
H190	H	-0.327436	1.150142	0.000073
H191	H	0.005898	1.483475	0.333406
H192	H	0.339231	1.816808	0.666740
H193	H	-0.886630	0.849642	0.000044
H194	H	-0.553296	1.182975	0.333378
H195	H	-0.219963	1.516308	0.666711
H196	H	-0.509202	0.888304	0.000061
H197	H	-0.175868	1.221637	0.333394
H198	H	0.157465	1.554970	0.666728
H199	H	-0.174766	0.442669	-0.140233
H200	H	0.158567	0.776002	0.193100
H201	H	0.491901	1.109336	0.526434
H202	H	-0.605215	0.900848	0.000047
H203	H	-0.271881	1.234182	0.333380
H204	H	0.061452	1.567515	0.666713
H205	H	-0.174793	0.442792	0.140534
H206	H	0.158540	0.776125	0.473868
H207	H	0.491873	1.109458	0.807201
H208	H	-0.245272	0.542671	0.000168
H209	H	0.088062	0.876004	0.333501
H210	H	0.421395	1.209337	0.666834
F211	F	-0.860673	1.144774	0.000066
F212	F	-0.527339	1.478108	0.333399
F213	F	-0.194006	1.811441	0.666732
H214	H	-0.738676	0.836233	0.000042
H215	H	-0.405343	1.169566	0.333376
H216	H	-0.072010	1.502899	0.666709
F217	F	-0.616720	1.118825	0.000060
F218	F	-0.283386	1.452158	0.333393
F219	F	0.049947	1.785491	0.666727
H220	H	-0.704862	1.111480	0.000051
H221	H	-0.371529	1.444814	0.333384
H222	H	-0.038196	1.778147	0.666717
