data_functionalizedCrystal
_audit_creation_method	'MofGen! by Chris Wilmer'
_symmetry_space_group_name_H-M	'P1'
_symmetry_Int_Tables_number	1
_symmetry_cell_setting	triclinic
loop_
_symmetry_equiv_pos_as_xyz
  x,y,z
_cell_length_a	14.971506
_cell_length_b	10.654549
_cell_length_c	14.048226
_cell_angle_alpha	89.994687
_cell_angle_beta	89.993237
_cell_angle_gamma	84.054653
loop_
_atom_site_label
_atom_site_type_symbol
_atom_site_fract_x
_atom_site_fract_y
_atom_site_fract_z
O1	O	1.187829	0.163780	-0.079165
O2	O	0.927538	0.183352	-0.079165
O3	O	1.063666	-0.009237	-0.079161
O4	O	1.051701	0.356368	-0.079169
O5	O	1.063649	-0.009248	0.079160
O6	O	0.927522	0.183340	0.079156
O7	O	1.187813	0.163768	0.079156
Zn8	Zn	1.057664	0.173552	0.104293
Zn9	Zn	1.057686	0.173567	-0.104302
O10	O	1.051685	0.356357	0.079153
C11	C	0.894201	0.182466	-0.000005
C12	C	0.794890	0.179829	-0.000005
C13	C	1.062778	-0.056031	-0.000002
C14	C	1.060147	-0.195446	-0.000005
C15	C	0.357170	0.282910	-0.000016
C16	C	0.450484	0.285377	-0.000021
C17	C	0.507086	0.172224	-0.000014
C18	C	0.470371	0.056596	-0.000013
C19	C	0.377059	0.054130	-0.000016
C20	C	0.664862	0.061744	-0.000005
C21	C	0.758181	0.064210	-0.000001
C22	C	0.738287	0.292992	-0.000010
C23	C	0.644975	0.290526	-0.000013
C24	C	0.608266	0.174897	-0.000010
C25	C	1.217985	-0.487108	-0.000000
C26	C	1.300613	-0.436449	0.000002
C27	C	1.303088	-0.305457	0.000001
C28	C	1.222927	-0.225120	0.000000
C29	C	1.140300	-0.275779	-0.000002
C30	C	1.137833	-0.406775	-0.000003
C31	C	0.977520	-0.246105	-0.000007
C32	C	0.975042	-0.377097	-0.000013
C33	C	0.897358	-0.165768	-0.000007
C34	C	0.814729	-0.216427	-0.000016
C35	C	0.812257	-0.347427	-0.000016
C36	C	0.892415	-0.427756	-0.000015
C37	C	1.221150	0.164654	-0.000006
C38	C	1.320461	0.167290	-0.000013
C39	C	1.052572	0.403151	-0.000009
C40	C	1.055204	0.542566	-0.000012
N41	N	1.057656	0.173541	0.246654
N42	N	1.057702	0.173568	-0.246663
C43	C	1.117953	0.088298	0.296474
C44	C	1.117959	0.088298	0.396131
C45	C	1.057672	0.173547	0.445967
C46	C	0.997369	0.258794	0.396141
C47	C	0.997359	0.258788	0.296485
C48	C	0.997394	0.258803	0.603855
C49	C	0.997405	0.258811	0.703518
C50	C	1.117994	0.088313	0.703501
C51	C	1.117985	0.088307	0.603845
C52	C	1.057682	0.173556	0.554026
H53	H	0.311089	0.375053	-0.000015
Cl54	Cl	0.921573	0.365961	0.458790
H55	H	0.899380	-0.059109	-0.000003
H56	H	0.948287	0.328218	0.563295
Cl57	Cl	0.713967	-0.115428	-0.000010
H58	H	1.167094	0.018901	0.744070
Cl59	Cl	1.214880	-0.651786	0.000030
H60	H	1.224950	-0.118461	0.000011
Cl61	Cl	0.708376	-0.411100	-0.000011
Cl62	Cl	0.330910	-0.091226	-0.000011
H63	H	0.890410	-0.534418	-0.000020
Cl64	Cl	1.406964	-0.241768	0.000016
Cl65	Cl	0.829338	-0.078042	-0.000001
H66	H	1.365878	-0.501874	0.000005
Cl67	Cl	0.784434	0.438353	-0.000003
H68	H	0.948312	0.328229	0.744089
H69	H	1.167049	0.018884	0.255904
H70	H	1.167056	0.018886	0.436694
H71	H	0.948258	0.328199	0.255922
Cl72	Cl	0.496628	0.430734	-0.000031
Cl73	Cl	0.573818	0.432777	-0.000016
H74	H	0.634978	-0.032413	-0.000008
Cl75	Cl	0.541529	-0.085655	-0.000007
Cl76	Cl	1.193779	-0.018856	0.541192
