data_functionalizedCrystal
_audit_creation_method	'MofGen! by Chris Wilmer'
_symmetry_space_group_name_H-M	'P1'
_symmetry_Int_Tables_number	1
_symmetry_cell_setting	triclinic
loop_
_symmetry_equiv_pos_as_xyz
  x,y,z
_cell_length_a	20.016444
_cell_length_b	14.560438
_cell_length_c	14.560438
_cell_angle_alpha	59.999539
_cell_angle_beta	89.998706
_cell_angle_gamma	60.004284
loop_
_atom_site_label
_atom_site_type_symbol
_atom_site_fract_x
_atom_site_fract_y
_atom_site_fract_z
Zr1	Zr	-0.087558	1.005187	0.884806
O2	O	-0.194216	1.196779	0.738168
O3	O	-0.054876	0.813600	0.929754
O4	O	-0.194234	1.005192	0.929764
O5	O	0.055087	1.005181	0.738156
O6	O	-0.194233	1.005191	1.080904
O7	O	-0.054857	1.005187	0.738158
O8	O	0.055054	0.662467	1.080886
O9	O	-0.194200	1.347905	0.738174
O10	O	-0.040919	0.892400	1.061724
O11	O	0.041130	0.892397	0.948928
O12	O	-0.122946	1.117972	0.948940
O13	O	-0.040897	1.117968	0.836144
Zr14	Zr	0.087794	1.005176	1.125855
Zr15	Zr	-0.087555	1.005185	1.125858
Zr16	Zr	0.087791	1.005178	0.884803
Zr17	Zr	-0.087532	1.246215	0.884816
Zr18	Zr	0.087768	0.764148	1.125845
O19	O	0.055111	1.196763	1.080907
O20	O	-0.194212	1.196776	1.080912
O21	O	0.055108	1.196766	0.738163
O22	O	0.194451	0.813584	1.272493
O23	O	-0.054872	0.813597	1.272498
O24	O	0.194448	0.813587	0.929749
O25	O	-0.054852	1.005182	1.272505
O26	O	0.194470	1.005170	1.080897
O27	O	0.194468	1.005172	0.929757
O28	O	0.055093	1.005176	1.272503
O29	O	-0.194198	1.347903	0.929777
O30	O	0.194433	0.662460	1.080883
O31	O	0.194435	0.662458	1.272487
O32	O	0.055056	0.662466	1.272490
O33	O	-0.054821	1.347897	0.738171
O34	O	-0.054819	1.347895	0.929775
O35	O	0.123182	0.892391	1.061721
O36	O	0.041133	0.892394	1.174517
O37	O	-0.040895	1.117966	1.061733
O38	O	0.041154	1.117963	0.948937
C39	C	0.000086	0.703693	1.005318
C40	C	0.000075	0.601370	1.005314
C41	C	-0.060464	0.636501	0.922058
C42	C	-0.060423	0.540312	0.922076
C43	C	0.060703	0.373862	1.088612
C44	C	0.060658	0.470051	1.088597
C45	C	-0.130394	0.732598	0.825906
C46	C	-0.130353	0.636409	0.825924
C47	C	-0.219217	1.005193	1.005334
C48	C	-0.293657	1.005197	1.005336
C49	C	-0.464912	1.005180	1.088599
C50	C	-0.534852	1.005171	1.088600
C51	C	-0.534846	1.005179	0.922057
C52	C	-0.464904	1.005178	0.922062
C53	C	-0.429941	1.005185	1.005333
C54	C	-0.569823	1.005177	1.005328
C55	C	-0.645655	1.005168	1.005328
C56	C	-0.354103	1.005192	1.005334
C57	C	0.219453	1.005170	1.005327
C58	C	0.293893	1.005166	1.005325
C59	C	0.000115	1.005184	0.703812
C60	C	0.000114	1.005185	0.601479
C61	C	0.000150	1.306670	1.005342
C62	C	0.000161	1.408993	1.005347
C63	C	-0.060449	1.005179	0.457252
C64	C	-0.060456	1.005187	0.553399
C65	C	0.060688	1.005188	0.553401
C66	C	0.060690	1.005189	0.457250
C67	C	-0.130389	1.005173	0.457254
C68	C	-0.130395	1.005181	0.553402
C69	C	0.000121	1.005178	1.306849
C70	C	0.000122	1.005177	1.409181
C71	C	0.000089	0.703690	1.306837
C72	C	0.000079	0.601366	1.409165
C73	C	0.219420	0.703681	1.005315
C74	C	0.293850	0.601354	1.005309
C75	C	0.219424	0.703678	1.306833
C76	C	0.293854	0.601350	1.409160
C77	C	-0.219188	1.306685	0.703828
C78	C	-0.293618	1.409012	0.601501
C79	C	0.000147	1.306673	0.703824
C80	C	0.000157	1.408997	0.601496
C81	C	-0.219185	1.306682	1.005346
C82	C	-0.293614	1.409008	1.005352
C83	C	0.371640	0.553298	1.064183
C84	C	0.441581	0.457165	1.064174
C85	C	0.433730	0.409083	1.005296
C86	C	0.355931	0.457149	0.946415
C87	C	0.285992	0.553287	0.946418
C88	C	0.285978	0.553298	1.516102
C89	C	0.355907	0.457164	1.612259
C90	C	0.433710	0.409077	1.601471
C91	C	0.441584	0.457139	1.494517
C92	C	0.371656	0.553278	1.398363
C93	C	-0.285743	1.457076	0.494558
C94	C	-0.355671	1.553240	0.398402
C95	C	-0.433475	1.601332	0.409190
C96	C	-0.441349	1.553264	0.516144
C97	C	-0.371421	1.457108	0.612298
C98	C	-0.285737	1.457059	1.064241
C99	C	-0.355664	1.553193	1.064268
C100	C	-0.433469	1.601281	1.005399
C101	C	-0.441344	1.553220	0.946508
C102	C	-0.371417	1.457082	0.946488
C103	C	-0.042753	0.553293	1.398366
C104	C	-0.042765	0.457157	1.494518
C105	C	0.042894	0.457171	1.612266
C106	C	0.042901	0.553312	1.516115
C107	C	-0.092205	0.553281	1.330386
C108	C	-0.092217	0.457145	1.426538
H109	H	-0.185970	0.636378	0.842724
C110	C	-0.380090	1.404197	0.729931
H111	H	-0.327305	1.340036	0.785661
H112	H	-0.409161	1.366712	0.738312
H113	H	-0.409146	1.473202	0.738396
H114	H	0.378048	0.592435	1.112129
H115	H	-0.124309	0.647224	0.743812
H116	H	0.222655	0.592402	0.898480
C117	C	-0.426448	1.005170	1.180200
H118	H	-0.457291	1.005153	1.229797
H119	H	-0.426555	1.080495	1.146010
H120	H	-0.371769	0.929831	1.221327
C121	C	-0.526933	1.606156	0.528002
H122	H	-0.521616	1.563769	0.605464
H123	H	-0.555990	1.590401	0.492925
H124	H	-0.555988	1.696932	0.492945
H125	H	0.110028	0.266933	1.156417
H126	H	-0.155539	0.493281	1.435266
C127	C	0.527168	0.404239	1.482659
H128	H	0.521852	0.446627	1.405197
H129	H	0.556221	0.313467	1.517729
H130	H	0.556228	0.420008	1.517723
H131	H	-0.157687	0.643288	1.278191
C132	C	0.089993	0.606222	1.527991
H133	H	0.083855	0.670377	1.455411
H134	H	0.146337	0.537221	1.567944
H135	H	0.068822	0.643743	1.567933
H136	H	-0.222398	1.417925	0.485753
H137	H	0.490686	0.330802	1.005303
H138	H	-0.504702	1.592388	0.898578
C139	C	-0.048122	0.504482	1.261596
H140	H	-0.049612	0.572671	1.197411
H141	H	-0.074701	0.477281	1.238148
H142	H	0.007158	0.433393	1.306794
C143	C	-0.113894	0.879188	0.479949
H144	H	-0.106555	0.823087	0.556590
H145	H	-0.065885	0.837326	0.464158
H146	H	-0.159080	0.899432	0.433110
H147	H	-0.349244	1.592361	0.311325
H148	H	-0.349236	1.592314	1.112222
H149	H	-0.222391	1.417921	1.112179
C150	C	-0.055044	0.335526	1.426552
H151	H	-0.039742	0.350742	1.361315
H152	H	-0.094319	0.317023	1.426555
H153	H	-0.008122	0.263781	1.491797
C154	C	-0.211067	1.127289	0.360940
H155	H	-0.244245	1.177518	0.386573
H156	H	-0.239223	1.102185	0.337246
H157	H	-0.199498	1.177514	0.299584
C158	C	0.380330	0.606111	1.280733
H159	H	0.436683	0.563687	1.288090
H160	H	0.354838	0.696882	1.240759
H161	H	0.354832	0.590330	1.240786
C162	C	-0.510388	1.707083	0.303414
H163	H	-0.494547	1.728801	0.238182
H164	H	-0.542032	1.782110	0.303391
H165	H	-0.542027	1.675558	0.303403
H166	H	-0.563321	1.005176	0.854259
C167	C	0.127246	0.431405	1.180185
H168	H	0.163336	0.339421	1.229778
H169	H	0.102343	0.465453	1.221302
H170	H	0.157154	0.465482	1.145975
H171	H	0.222633	0.592436	1.524908
C172	C	-0.573320	1.005172	1.180189
H173	H	-0.542481	1.005186	1.229774
H174	H	-0.573211	0.929845	1.221315
H175	H	-0.628000	1.080509	1.145980
H176	H	-0.436427	1.005179	0.854256
H177	H	0.110006	1.005204	0.418104
C178	C	-0.510381	1.707041	1.005419
H179	H	-0.494539	1.728774	1.048916
H180	H	-0.542032	1.675545	1.036941
H181	H	-0.542012	1.782068	0.930405
C182	C	0.127311	1.005190	0.606284
H183	H	0.118639	1.005183	0.670436
H184	H	0.124810	1.080513	0.552864
H185	H	0.179594	0.929850	0.628198
C186	C	0.090000	0.404300	1.729908
H187	H	0.083866	0.340151	1.785628
H188	H	0.068857	0.473323	1.738342
H189	H	0.146348	0.366782	1.738338
C190	C	-0.211094	0.817668	0.837106
H191	H	-0.244251	0.787373	0.841733
H192	H	-0.239263	0.905166	0.773293
H193	H	-0.199550	0.812920	0.903226
C194	C	-0.113901	0.813228	0.722599
H195	H	-0.106529	0.782578	0.676601
H196	H	-0.065909	0.804930	0.746732
H197	H	-0.159101	0.901926	0.680717
H198	H	-0.186026	1.098442	0.536592
H199	H	-0.124339	0.914755	0.624710
H200	H	0.504921	0.418041	1.112126
C201	C	0.347301	0.404250	0.881659
H202	H	0.290956	0.446639	0.846585
H203	H	0.372807	0.313478	0.932486
H204	H	0.372809	0.420016	0.825941
C205	C	0.347235	0.404271	1.729895
H206	H	0.400021	0.340128	1.785624
H207	H	0.318175	0.366766	1.738295
H208	H	0.318169	0.473288	1.738344
C209	C	-0.380093	1.404251	0.881690
H210	H	-0.436446	1.446676	0.846627
H211	H	-0.354602	1.313480	0.932486
H212	H	-0.354596	1.420033	0.825960
H213	H	0.490643	0.330795	1.679775
