data_functionalizedCrystal
_audit_creation_method	'MofGen! by Chris Wilmer'
_symmetry_space_group_name_H-M	'P1'
_symmetry_Int_Tables_number	1
_symmetry_cell_setting	triclinic
loop_
_symmetry_equiv_pos_as_xyz
  x,y,z
_cell_length_a	14.853567
_cell_length_b	14.853567
_cell_length_c	13.930277
_cell_angle_alpha	90.000757
_cell_angle_beta	89.995755
_cell_angle_gamma	96.365070
loop_
_atom_site_label
_atom_site_type_symbol
_atom_site_fract_x
_atom_site_fract_y
_atom_site_fract_z
O1	O	1.196368	-0.117704	-0.079756
O2	O	1.696368	0.382296	0.420244
O3	O	0.933909	-0.131725	-0.079772
O4	O	1.433909	0.368275	0.420228
O5	O	1.072149	0.006516	-0.079767
O6	O	1.572149	0.506516	0.420233
O7	O	1.058128	-0.255944	-0.079762
O8	O	1.558128	0.244056	0.420238
O9	O	1.072130	0.006519	0.079895
O10	O	1.572130	0.506519	0.579895
O11	O	0.933890	-0.131722	0.079890
O12	O	1.433890	0.368278	0.579890
O13	O	1.196349	-0.117701	0.079905
O14	O	1.696349	0.382299	0.579905
Zn15	Zn	1.065116	-0.124711	0.105247
Zn16	Zn	1.565116	0.375289	0.605247
Zn17	Zn	1.065142	-0.124715	-0.105114
Zn18	Zn	1.565142	0.375285	0.394886
O19	O	1.058109	-0.255941	0.079900
O20	O	1.558109	0.244059	0.579900
C21	C	0.900311	-0.131088	0.000057
C22	C	1.400311	0.368912	0.500057
C23	C	0.800227	-0.129184	0.000051
C24	C	1.300227	0.370816	0.500051
C25	C	0.387693	-0.039019	0.000070
C26	C	0.887693	0.460981	0.500070
C27	C	0.366412	-0.203251	0.000073
C28	C	0.866412	0.296749	0.500073
C29	C	0.460446	-0.205042	0.000070
C30	C	0.960446	0.294958	0.500070
C31	C	0.518108	-0.123819	0.000066
C32	C	1.018108	0.376181	0.500066
C33	C	0.481736	-0.040806	0.000065
C34	C	0.981736	0.459194	0.500065
C35	C	0.496825	-0.288053	0.000061
C36	C	0.996825	0.211947	0.500061
C37	C	0.590864	-0.289846	0.000057
C38	C	1.090864	0.210154	0.500057
C39	C	0.648528	-0.208623	0.000060
C40	C	1.148528	0.291377	0.500060
C41	C	0.612150	-0.125607	0.000060
C42	C	1.112150	0.374393	0.500060
C43	C	0.669812	-0.044384	0.000056
C44	C	1.169812	0.455616	0.500056
C45	C	0.633437	0.038633	0.000063
C46	C	1.133437	0.538633	0.500063
C47	C	0.539399	0.040417	0.000067
C48	C	1.039399	0.540417	0.500067
C49	C	0.742565	-0.210407	0.000055
C50	C	1.242565	0.289593	0.500055
C51	C	0.763855	-0.046172	0.000050
C52	C	1.263855	0.453828	0.500050
C53	C	1.071504	0.040106	0.000061
C54	C	1.571504	0.540106	0.500061
C55	C	1.069601	0.140189	0.000053
C56	C	1.569601	0.640189	0.500053
C57	C	1.229947	-0.118337	0.000075
C58	C	1.729947	0.381663	0.500075
C59	C	1.330031	-0.120241	0.000075
C60	C	1.830031	0.379759	0.500075
C61	C	1.058754	-0.289531	0.000070
C62	C	1.558754	0.210469	0.500070
C63	C	1.060657	-0.389615	0.000072
C64	C	1.560657	0.110385	0.500072
N65	N	1.065106	-0.124708	0.248814
N66	N	1.565106	0.375292	0.748814
C67	C	0.979435	0.552723	0.000066
C68	C	1.479435	1.052723	0.500066
C69	C	1.143668	0.574004	0.000076
C70	C	1.643668	1.074004	0.500076
C71	C	1.145458	0.479971	0.000070
C72	C	1.645458	0.979971	0.500070
C73	C	1.064235	0.422309	0.000064
C74	C	1.564235	0.922309	0.500064
C75	C	0.981223	0.458680	0.000063
C76	C	1.481223	0.958680	0.500063
C77	C	1.228469	0.443591	0.000080
C78	C	1.728469	0.943591	0.500080
C79	C	1.230262	0.349552	0.000076
C80	C	1.730262	0.849552	0.500076
C81	C	1.149039	0.291889	0.000063
C82	C	1.649039	0.791889	0.500063
C83	C	1.066023	0.328266	0.000061
C84	C	1.566023	0.828266	0.500061
C85	C	0.984800	0.270604	0.000055
C86	C	1.484800	0.770604	0.500055
C87	C	0.901783	0.306979	0.000047
C88	C	1.401783	0.806979	0.500047
C89	C	0.899999	0.401017	0.000050
C90	C	1.399999	0.901017	0.500050
C91	C	1.150823	0.197851	0.000059
C92	C	1.650823	0.697851	0.500059
C93	C	0.986588	0.176561	0.000052
C94	C	1.486588	0.676561	0.500052
N95	N	1.065160	-0.124711	-0.248680
N96	N	1.565160	0.375289	0.251320
C97	C	1.003926	-0.185904	0.701081
C98	C	1.503926	0.314096	1.201081
C99	C	1.126382	-0.063519	0.701055
C100	C	1.626382	0.436481	1.201055
C101	C	1.126371	-0.063516	0.600559
C102	C	1.626371	0.436484	1.100559
C103	C	1.065138	-0.124709	0.550319
C104	C	1.565138	0.375291	1.050319
C105	C	1.003916	-0.185904	0.600576
C106	C	1.503916	0.314096	1.100576
C107	C	1.187598	-0.002328	0.550295
C108	C	1.687598	0.497672	1.050295
C109	C	1.187591	-0.002323	0.449793
C110	C	1.687591	0.497677	0.949793
C111	C	1.126353	-0.063512	0.399552
C112	C	1.626353	0.436488	0.899552
C113	C	1.065127	-0.124710	0.449814
C114	C	1.565127	0.375290	0.949814
C115	C	1.003894	-0.185902	0.399575
C116	C	1.503894	0.314098	0.899575
C117	C	0.942664	-0.247096	0.449835
C118	C	1.442664	0.252904	0.949835
C119	C	0.942677	-0.247094	0.550334
C120	C	1.442677	0.252906	1.050334
C121	C	1.126339	-0.063515	0.299053
C122	C	1.626339	0.436485	0.799053
C123	C	1.003883	-0.185903	0.299070
C124	C	1.503883	0.314097	0.799070
H125	H	0.319459	-0.269379	0.000068
H126	H	0.819459	0.230621	0.500068
H127	H	1.294596	0.490546	0.000094
H128	H	1.794596	0.990546	0.500094
H129	H	0.509774	0.108005	0.000096
H130	H	1.009774	0.608005	0.500096
O131	O	0.695639	0.126233	0.000063
O132	O	1.195639	0.626233	0.500063
H133	H	0.682703	0.165954	-0.065013
H134	H	1.182703	0.665954	0.434987
O135	O	0.781796	-0.299938	0.000046
O136	O	1.281796	0.200062	0.500046
H137	H	0.856873	-0.287537	0.000038
H138	H	1.356873	0.212463	0.500038
O139	O	0.898982	0.114368	0.000054
O140	O	1.398982	0.614368	0.500054
H141	H	0.840961	0.155463	0.000058
H142	H	1.340961	0.655463	0.500058
O143	O	1.253642	0.063669	0.604476
O144	O	1.753642	0.563669	1.104476
H145	H	1.243354	0.053395	0.682803
H146	H	1.743354	0.553395	1.182803
O147	O	0.814180	0.244782	0.000052
O148	O	1.314180	0.744782	0.500052
H149	H	0.774461	0.257722	-0.065022
H150	H	1.274461	0.757722	0.434978
H151	H	1.297860	0.319944	0.000082
H152	H	1.797860	0.819944	0.500082
O153	O	0.630089	-0.379384	0.000072
O154	O	1.130089	0.120616	0.500072
H155	H	0.606936	-0.418429	-0.064994
H156	H	1.106936	0.081571	0.435006
H157	H	0.832411	0.430643	0.000044
H158	H	1.332411	0.930643	0.500044
H159	H	0.911844	0.582344	0.000055
H160	H	1.411844	1.082344	0.500055
H161	H	0.810798	0.019971	0.000050
H162	H	1.310798	0.519971	0.500050
H163	H	0.358072	0.028572	0.000080
H164	H	0.858072	0.528572	0.500080
H165	H	1.209795	0.620958	0.000088
H166	H	1.709795	1.120958	0.500088
H167	H	0.449870	-0.354180	0.000054
H168	H	0.949870	0.145820	0.500054
H169	H	1.218414	0.168238	0.000072
H170	H	1.718414	0.668238	0.500072
O171	O	0.937841	-0.251907	0.244882
O172	O	1.437841	0.248093	0.744882
H173	H	0.895274	-0.294459	0.296718
H174	H	1.395274	0.205541	0.796718
O175	O	0.876612	-0.313080	0.395634
O176	O	1.376612	0.186920	0.895634
H177	H	0.914604	-0.356963	0.349829
H178	H	1.414604	0.143037	0.849829
O179	O	1.253616	0.063689	0.395590
O180	O	1.753616	0.563689	0.895590
H181	H	1.297479	0.025668	0.349790
H182	H	1.797479	0.525668	0.849790
H183	H	0.892827	-0.296916	0.591263
H184	H	1.392827	0.203084	1.091263
H185	H	0.954071	-0.235724	0.742005
H186	H	1.454071	0.264276	1.242005
O187	O	1.192368	0.002480	0.244840
O188	O	1.692368	0.502480	0.744840
H189	H	1.234947	0.045032	0.296659
H190	H	1.734947	0.545032	0.796659
O191	O	1.192425	0.002479	0.755234
O192	O	1.692425	0.502479	1.255234
H193	H	1.182145	-0.007799	0.833561
H194	H	1.682145	0.492201	1.333561
