data_functionalizedCrystal
_audit_creation_method	'MofGen! by Chris Wilmer'
_symmetry_space_group_name_H-M	'P1'
_symmetry_Int_Tables_number	1
_symmetry_cell_setting	triclinic
loop_
_symmetry_equiv_pos_as_xyz
  x,y,z
_cell_length_a	16.120530
_cell_length_b	10.686285
_cell_length_c	10.686551
_cell_angle_alpha	99.084519
_cell_angle_beta	82.496591
_cell_angle_gamma	97.480717
loop_
_atom_site_label
_atom_site_type_symbol
_atom_site_fract_x
_atom_site_fract_y
_atom_site_fract_z
Zn1	Zn	1.341629	0.545926	-0.774571
Zn2	Zn	1.341561	0.774501	-0.546064
Zn3	Zn	1.191183	0.551541	-0.551616
Zn4	Zn	1.211200	0.748813	-0.748982
O5	O	1.271394	0.655195	-0.655308
O6	O	1.459139	0.584647	-0.752644
O7	O	1.313208	0.758025	-0.368571
O8	O	1.202791	0.372578	-0.594225
O9	O	1.459089	0.752580	-0.584761
O10	O	1.313323	0.368452	-0.758028
O11	O	1.202726	0.594218	-0.372651
O12	O	1.076320	0.569310	-0.569412
O13	O	1.236908	0.708800	-0.930605
O14	O	1.091026	0.714245	-0.714415
O15	O	1.332733	0.559739	-0.949405
O16	O	1.332618	0.949312	-0.559948
O17	O	1.236842	0.930440	-0.709031
C18	C	1.286919	0.986085	-0.631140
C19	C	1.293639	1.127644	-0.620848
C20	C	1.053202	0.639600	-0.639740
C21	C	0.959862	0.632956	-0.633108
C22	C	1.287061	0.630778	-0.987510
C23	C	1.293737	0.620372	-1.129075
C24	C	0.788967	0.620797	-0.621013
C25	C	0.754669	0.689681	-0.689689
C26	C	0.659578	0.682916	-0.682960
C27	C	0.884067	0.627561	-0.627741
C28	C	1.490437	0.670853	-0.670937
C29	C	1.583781	0.677525	-0.677598
C30	C	1.255832	0.323013	-0.679600
C31	C	1.249201	0.181457	-0.689952
C32	C	1.255831	0.679430	-0.324409
C33	C	1.249300	0.689488	-0.182882
H34	H	0.796721	0.753735	-0.753541
O35	O	1.197830	0.769477	-1.108460
C36	C	1.144087	0.853224	-0.894762
C37	C	1.202395	0.762564	-0.978905
H38	H	1.147772	0.847686	-0.790000
H39	H	1.076516	0.824128	-0.917547
H40	H	1.164854	0.955056	-0.914460
H41	H	1.181704	0.660705	-0.959254
H42	H	1.269954	0.791769	-0.956105
O43	O	0.738844	0.544200	-0.544987
C44	C	0.698750	0.330123	-0.497392
C45	C	0.755561	0.416711	-0.583607
H46	H	0.712257	0.227034	-0.528567
H47	H	0.629872	0.338107	-0.505481
H48	H	0.712104	0.361153	-0.394230
H49	H	0.742281	0.385739	-0.686804
H50	H	0.824421	0.408717	-0.575408
H51	H	1.206015	1.119233	-0.756991
H52	H	1.336822	1.189876	-0.553797
H53	H	1.336896	0.553240	-1.191316
