data_functionalizedCrystal
_audit_creation_method	'MofGen! by Chris Wilmer'
_symmetry_space_group_name_H-M	'P1'
_symmetry_Int_Tables_number	1
_symmetry_cell_setting	triclinic
loop_
_symmetry_equiv_pos_as_xyz
  x,y,z
_cell_length_a	6.817900
_cell_length_b	7.190334
_cell_length_c	10.992421
_cell_angle_alpha	92.141001
_cell_angle_beta	108.764763
_cell_angle_gamma	60.611776
loop_
_atom_site_label
_atom_site_type_symbol
_atom_site_fract_x
_atom_site_fract_y
_atom_site_fract_z
V1	V	-4.249573	0.664971	-0.175712
O2	O	-4.205131	0.652344	0.010552
O3	O	-4.226220	0.660394	-0.350435
O4	O	-4.286188	0.955002	-0.172084
O5	O	-4.144749	0.355696	-0.169033
V6	V	-4.718940	0.627983	-0.153542
O7	O	-4.541885	0.746108	-0.224343
O8	O	-4.876825	0.546847	-0.104910
O9	O	-4.519086	0.632560	0.021181
O10	O	-4.880778	0.640611	-0.339806
O11	O	-4.941161	0.937258	-0.160220
O12	O	-4.459118	0.337953	-0.157170
C13	C	-4.074564	0.649896	-0.393057
C14	C	-4.137324	0.648087	-0.535890
C15	C	-4.151068	1.025695	-0.165547
C16	C	-4.264546	1.267252	-0.163700
C17	C	-4.002019	0.633502	-0.731222
C18	C	-3.936149	0.634538	-0.582574
C19	C	-4.167456	0.449188	-0.575138
C20	C	-4.231263	0.447081	-0.723688
C21	C	-4.445744	0.854814	-0.761013
C22	C	-4.377568	0.859129	-0.612486
C23	C	-4.334084	0.643052	0.063797
C24	C	-4.250566	0.644875	0.206628
H25	H	-3.907947	0.776659	-0.556372
H26	H	-4.313554	0.451481	-0.544895
H27	H	-3.995071	0.292947	-0.521382
H28	H	-4.531870	0.881343	-0.582210
C29	C	-4.855180	1.058338	-0.905297
C30	C	-4.691411	0.868916	-0.816463
H31	H	-5.006837	1.067038	-0.939525
H32	H	-4.798561	1.056751	-0.974004
H33	H	-4.871233	1.179692	-0.862597
H34	H	-4.675344	0.747560	-0.859165
H35	H	-4.748042	0.870484	-0.747745
C36	C	-3.628746	0.300174	-0.642291
C37	C	-3.804063	0.429115	-0.759575
H38	H	-3.506528	0.174000	-0.659795
H39	H	-3.700090	0.260363	-0.594808
H40	H	-3.560693	0.378709	-0.592740
H41	H	-3.872128	0.350585	-0.809123
H42	H	-3.732709	0.468923	-0.807079
H43	H	-4.088324	0.289160	-0.741689
C44	C	-3.960300	0.946017	-0.697529
C45	C	-4.005957	0.824172	-0.793300
H46	H	-3.962756	1.063742	-0.735865
H47	H	-3.807079	0.857717	-0.633155
H48	H	-4.080131	0.999256	-0.658633
H49	H	-3.886115	0.770919	-0.832190
H50	H	-4.159198	0.912487	-0.857697
H51	H	-3.756631	0.483012	-0.530599
H52	H	-4.407410	0.446768	-0.764572
H53	H	-4.470033	1.005316	-0.810066
H54	H	-4.358515	1.006284	-0.588136
