data_functionalizedCrystal
_audit_creation_method	'MofGen! by Chris Wilmer'
_symmetry_space_group_name_H-M	'P1'
_symmetry_Int_Tables_number	1
_symmetry_cell_setting	triclinic
loop_
_symmetry_equiv_pos_as_xyz
  x,y,z
_cell_length_a	8.559649
_cell_length_b	14.519709
_cell_length_c	7.088929
_cell_angle_alpha	83.763835
_cell_angle_beta	95.325015
_cell_angle_gamma	76.729405
loop_
_atom_site_label
_atom_site_type_symbol
_atom_site_fract_x
_atom_site_fract_y
_atom_site_fract_z
O1	O	2.103670	-0.020642	-0.158956
O2	O	2.603670	0.479358	0.341044
O3	O	1.638600	0.026977	-0.158968
O4	O	2.138600	0.526977	0.341032
O5	O	1.883467	-0.131957	-0.158944
O6	O	2.383467	0.368043	0.341056
O7	O	1.858803	0.138292	-0.158979
O8	O	2.358803	0.638292	0.341021
O9	O	1.916191	-0.153240	0.159034
O10	O	2.416191	0.346760	0.659034
O11	O	1.671324	0.005694	0.159010
O12	O	2.171324	0.505694	0.659010
O13	O	2.136393	-0.041925	0.159023
O14	O	2.636393	0.458075	0.659023
Cu15	Cu	1.906847	-0.020059	0.188050
Cu16	Cu	2.406847	0.479941	0.688050
Cu17	Cu	1.868147	0.005111	-0.187996
Cu18	Cu	2.368147	0.505111	0.312004
O19	O	1.891526	0.117009	0.158999
O20	O	2.391526	0.617009	0.658999
C21	C	1.595443	0.019944	0.000020
C22	C	2.095443	0.519944	0.500020
C23	C	1.418093	0.030686	0.000015
C24	C	1.918093	0.530686	0.500015
C25	C	1.898680	-0.176876	0.000045
C26	C	2.398680	0.323124	0.500045
C27	C	1.895236	-0.279010	0.000046
C28	C	2.395236	0.220990	0.500046
C29	C	1.882552	-0.652993	-0.000004
C30	C	2.382552	-0.152993	0.499996
C31	C	1.886074	-0.548938	0.000011
C32	C	2.386074	-0.048938	0.500011
C33	C	1.888894	-0.466005	0.000023
C34	C	2.388894	0.033995	0.500023
C35	C	1.892417	-0.361944	0.000034
C36	C	2.392417	0.138056	0.500034
C37	C	2.179551	-0.034892	0.000031
C38	C	2.679551	0.465108	0.500031
C39	C	2.356899	-0.045633	0.000022
C40	C	2.856899	0.454367	0.500022
C41	C	1.876313	0.161928	0.000005
C42	C	2.376313	0.661928	0.500005
C43	C	1.879756	0.264063	-0.000008
C44	C	2.379756	0.764063	0.499992
N45	N	1.934078	-0.037763	0.452541
N46	N	2.434078	0.462237	0.952541
N47	N	1.840929	0.022807	-0.452487
N48	N	2.340929	0.522807	0.047513
H49	H	1.334795	0.104249	-0.000005
H50	H	1.834795	0.604249	0.499995
H51	H	2.030634	-0.100529	0.534206
H52	H	2.530634	0.399471	1.034206
O53	O	1.456486	-0.133327	0.000118
O54	O	1.956486	0.366673	0.500118
C55	C	1.617326	-0.124889	0.000069
C56	C	2.117326	0.375111	0.500069
H57	H	1.629961	-0.056922	0.060261
H58	H	2.129961	0.443078	0.560261
H59	H	1.649805	-0.121552	-0.152480
H60	H	2.149805	0.378448	0.347520
C61	C	1.716560	-0.295469	0.050849
C62	C	2.216560	0.204531	0.550849
C63	C	1.732081	-0.211995	0.124793
C64	C	2.232081	0.288005	0.624793
H65	H	1.787349	-0.349201	0.127777
H66	H	2.287349	0.150799	0.627777
H67	H	1.608199	-0.301154	0.050875
H68	H	2.108199	0.198846	0.550875
H69	H	1.743623	-0.292675	-0.076274
H70	H	2.243623	0.207325	0.423726
H71	H	1.704999	-0.214784	0.251904
H72	H	2.204999	0.285216	0.751904
H73	H	1.840441	-0.206312	0.124791
H74	H	2.340441	0.293688	0.624791
O75	O	1.725948	0.097725	0.449902
O76	O	2.225948	0.597725	0.949902
C77	C	1.799970	0.156197	0.334129
C78	C	2.299970	0.656197	0.834129
H79	H	1.921751	0.112552	0.304319
H80	H	2.421751	0.612552	0.804319
H81	H	1.819055	0.218430	0.411148
H82	H	2.319055	0.718430	0.911148
C83	C	1.540967	0.248565	0.180504
C84	C	2.040967	0.748565	0.680504
C85	C	1.690535	0.194957	0.143878
C86	C	2.190535	0.694957	0.643878
H87	H	1.473461	0.272478	0.063152
H88	H	1.973461	0.772478	0.563152
H89	H	1.491096	0.209174	0.258508
H90	H	1.991096	0.709174	0.758508
H91	H	1.556893	0.300419	0.244692
H92	H	2.056893	0.800419	0.744692
H93	H	1.674610	0.143098	0.079713
H94	H	2.174610	0.643098	0.579713
H95	H	1.740402	0.234340	0.065859
H96	H	2.240402	0.734340	0.565859
