data_functionalizedCrystal
_audit_creation_method	'MofGen! by Chris Wilmer'
_symmetry_space_group_name_H-M	'P1'
_symmetry_Int_Tables_number	1
_symmetry_cell_setting	triclinic
loop_
_symmetry_equiv_pos_as_xyz
  x,y,z
_cell_length_a	23.532407
_cell_length_b	23.532357
_cell_length_c	22.610064
_cell_angle_alpha	89.998517
_cell_angle_beta	89.994501
_cell_angle_gamma	82.838519
loop_
_atom_site_label
_atom_site_type_symbol
_atom_site_fract_x
_atom_site_fract_y
_atom_site_fract_z
O1	O	0.755251	0.069129	-0.049154
O2	O	0.589386	0.079133	-0.049165
O3	O	0.677335	-0.008803	-0.049147
O4	O	0.667302	0.157065	-0.049172
O5	O	0.677319	-0.008790	0.049222
O6	O	0.589370	0.079145	0.049205
O7	O	0.755236	0.069142	0.049215
Zn8	Zn	0.672300	0.074146	0.064828
Zn9	Zn	0.672321	0.074129	-0.064778
O10	O	0.667286	0.157077	0.049197
C11	C	0.568162	0.078884	0.000019
C12	C	0.504945	0.078118	0.000015
C13	C	0.238788	0.022922	0.000040
C14	C	0.298188	0.023633	0.000040
O15	O	0.334940	-0.020154	0.000067
N16	N	0.320805	0.075911	0.000028
C17	C	0.284018	0.127480	0.000022
O18	O	0.308710	0.172012	0.000012
C19	C	0.224619	0.126768	0.000027
C20	C	0.202006	0.074487	0.000032
C21	C	0.216174	-0.029355	0.000046
C22	C	0.156778	-0.030066	0.000045
C23	C	0.119996	0.021499	0.000038
C24	C	0.142610	0.073776	0.000032
C25	C	0.187833	0.178337	0.000025
C26	C	0.128431	0.177620	0.000030
C27	C	0.105818	0.125339	0.000036
C28	C	0.046431	0.124630	0.000023
N29	N	0.023815	0.072353	0.000035
C30	C	0.060597	0.020787	0.000043
C31	C	0.408760	0.128971	0.000014
C32	C	0.468158	0.129684	0.000005
C33	C	0.482324	0.025837	0.000023
C34	C	0.422925	0.025125	0.000028
C35	C	0.386143	0.076694	0.000026
C36	C	-0.064140	0.019297	0.000040
C37	C	-0.123542	0.018591	0.000037
C38	C	-0.137702	0.122438	0.000022
C39	C	-0.078306	0.123145	0.000022
C40	C	-0.041525	0.071570	0.000033
O41	O	0.009644	0.168394	-0.000001
O42	O	0.035897	-0.023737	0.000060
C43	C	0.677076	-0.030013	0.000039
C44	C	0.676322	-0.093232	0.000045
C45	C	0.671593	-0.485250	-0.053608
C46	C	0.670876	-0.544649	-0.053612
O47	O	0.670493	-0.575372	-0.099214
N48	N	0.670512	-0.574354	0.000009
C49	C	0.670859	-0.544654	0.053636
O50	O	0.670483	-0.575374	0.099244
C51	C	0.671573	-0.485255	0.053639
C52	C	0.671942	-0.455555	0.000015
C53	C	0.671963	-0.455549	-0.107228
C54	C	0.672681	-0.396154	-0.107224
C55	C	0.673030	-0.366459	-0.053601
C56	C	0.672661	-0.396160	0.000018
C57	C	0.671916	-0.455557	0.107265
C58	C	0.672629	-0.396154	0.107263
C59	C	0.672998	-0.366454	0.053640
C60	C	0.673728	-0.307070	0.053645
N61	N	0.674092	-0.277366	0.000025
C62	C	0.673743	-0.307061	-0.053598
C63	C	0.669361	-0.669396	0.053626
C64	C	0.668652	-0.728794	0.053624
C65	C	0.668668	-0.728785	-0.053624
C66	C	0.669381	-0.669386	-0.053621
C67	C	0.669725	-0.639692	0.000005
C68	C	0.675252	-0.182326	-0.053587
C69	C	0.675973	-0.122926	-0.053578
C70	C	0.675954	-0.122940	0.053669
C71	C	0.675236	-0.182336	0.053661
C72	C	0.674883	-0.212027	0.000028
O73	O	0.674109	-0.276310	0.099224
O74	O	0.674112	-0.276332	-0.099199
C75	C	0.776459	0.069390	0.000030
C76	C	0.839676	0.070156	0.000030
C77	C	0.667545	0.178288	0.000010
C78	C	0.668300	0.241506	0.000000
N79	N	0.672291	0.074157	0.153280
N80	N	0.672335	0.074113	-0.153230
C81	C	0.711266	0.035197	0.561930
C82	C	0.711269	0.035193	0.623850
O83	O	0.744384	0.002076	0.655875
N84	N	0.672321	0.074117	0.654818
C85	C	0.633362	0.113044	0.623862
O86	O	0.600233	0.146151	0.655889
C87	C	0.633357	0.113045	0.561944
C88	C	0.672312	0.074122	0.530979
C89	C	0.750218	-0.003723	0.530965
C90	C	0.750216	-0.003718	0.469049
C91	C	0.711262	0.035207	0.438098
C92	C	0.672310	0.074127	0.469063
C93	C	0.594397	0.151969	0.530990
C94	C	0.594395	0.151966	0.469067
C95	C	0.633350	0.113043	0.438102
C96	C	0.633354	0.113057	0.376197
N97	N	0.672303	0.074133	0.345229
C98	C	0.711257	0.035208	0.376180
C99	C	0.633376	0.113038	0.753896
C100	C	0.633383	0.113041	0.815814
C101	C	0.711289	0.035188	0.815797
C102	C	0.711284	0.035189	0.753878
C103	C	0.672324	0.074114	0.722928
C104	C	0.711249	0.035222	0.246152
C105	C	0.711245	0.035232	0.184231
C106	C	0.633336	0.113082	0.184254
C107	C	0.633342	0.113074	0.246169
C108	C	0.672301	0.074139	0.277117
O109	O	0.600255	0.146155	0.344132
O110	O	0.744375	0.002101	0.344146
H111	H	0.404518	-0.017447	0.000033
H112	H	0.781939	-0.035423	0.556159
H113	H	0.601668	0.144741	0.841021
H114	H	-0.167661	0.164421	0.000013
H115	H	0.742969	0.003536	0.159021
H116	H	0.486564	0.172256	-0.000008
H117	H	0.742972	0.003517	0.271343
H118	H	0.668359	-0.752973	0.097289
H119	H	0.671615	-0.479729	0.150931
H120	H	0.672980	-0.371977	-0.150890
H121	H	0.781935	-0.035414	0.443841
H122	H	0.512283	-0.016151	0.000030
H123	H	0.743005	0.003495	0.728670
H124	H	0.669643	-0.645223	0.097298
H125	H	0.601627	0.144774	0.271381
H126	H	0.672900	-0.371979	0.150934
H127	H	0.601622	0.144776	0.159044
H128	H	0.674940	-0.206520	0.097326
H129	H	-0.034199	-0.022700	0.000049
H130	H	0.562676	0.183663	0.556193
H131	H	-0.141950	-0.023984	0.000040
H132	H	0.743007	0.003493	0.841008
H133	H	0.676241	-0.098753	0.097328
H134	H	0.138372	-0.072639	0.000053
H135	H	0.378815	0.170968	0.000007
H136	H	0.246117	-0.071348	0.000054
H137	H	0.206234	0.220910	0.000018
H138	H	0.601651	0.144740	0.728700
H139	H	0.562667	0.183663	0.443870
H140	H	0.676275	-0.098747	-0.097247
H141	H	-0.059893	0.165716	0.000016
H142	H	0.098485	0.219615	0.000031
H143	H	0.671676	-0.479720	-0.150897
H144	H	0.674962	-0.206494	-0.097259
H145	H	0.669681	-0.645208	-0.097287
H146	H	0.668381	-0.752973	-0.097287
