data_functionalizedCrystal
_audit_creation_method	'MofGen! by Chris Wilmer'
_symmetry_space_group_name_H-M	'P1'
_symmetry_Int_Tables_number	1
_symmetry_cell_setting	triclinic
loop_
_symmetry_equiv_pos_as_xyz
  x,y,z
_cell_length_a	15.944493
_cell_length_b	15.944551
_cell_length_c	14.421503
_cell_angle_alpha	90.003340
_cell_angle_beta	89.992936
_cell_angle_gamma	83.486891
loop_
_atom_site_label
_atom_site_type_symbol
_atom_site_fract_x
_atom_site_fract_y
_atom_site_fract_z
O1	O	1.114560	0.108089	-0.077101
O2	O	0.870003	0.121496	-0.077106
O3	O	0.998960	-0.007484	-0.077095
O4	O	0.985603	0.237068	-0.077112
O5	O	0.998938	-0.007465	0.077128
O6	O	0.869982	0.121515	0.077117
O7	O	1.114538	0.108108	0.077122
Cu8	Cu	0.992258	0.114813	0.091201
Cu9	Cu	0.992283	0.114790	-0.091186
O10	O	0.985582	0.237087	0.077111
C11	C	0.838698	0.120957	0.000005
C12	C	0.745449	0.119314	0.000003
C13	C	0.509689	0.195235	-0.000002
C14	C	0.459120	0.154303	0.076045
C15	C	0.574728	0.116270	0.000005
C16	C	0.459146	0.154266	-0.076008
C17	C	0.409819	0.113336	0.000003
C18	C	0.525388	0.075360	0.076115
C19	C	0.525417	0.075334	-0.076005
C20	C	0.474880	0.034345	0.000060
C21	C	0.669728	0.117963	0.000007
C22	C	0.314821	0.111637	0.000008
C23	C	0.998395	-0.038768	0.000017
C24	C	0.996732	-0.132014	0.000017
C25	C	0.912826	-0.346853	0.000003
C26	C	0.951779	-0.407869	0.076045
C27	C	0.993725	-0.302739	0.000010
C28	C	0.951819	-0.407872	-0.076007
C29	C	0.990814	-0.467651	-0.000001
C30	C	1.032700	-0.362527	0.076115
C31	C	1.032729	-0.362523	-0.076006
C32	C	1.071741	-0.423521	0.000055
C33	C	0.995399	-0.207737	0.000017
C34	C	0.989146	-0.562652	-0.000002
C35	C	1.145844	0.108646	0.000009
C36	C	1.239092	0.110289	0.000004
C37	C	0.986147	0.268372	-0.000003
C38	C	0.987809	0.361617	-0.000009
N39	N	0.992246	0.114828	0.219483
N40	N	0.992302	0.114768	-0.219467
C41	C	0.932607	0.174442	0.469131
C42	C	1.008509	0.190733	0.530934
C43	C	0.992267	0.114808	0.408644
C44	C	0.916384	0.098537	0.530935
C45	C	0.992280	0.114791	0.591366
C46	C	1.068207	0.131138	0.469086
C47	C	0.976033	0.038908	0.469082
C48	C	1.051990	0.055167	0.530857
C49	C	0.992258	0.114821	0.303383
C50	C	0.992297	0.114778	0.696625
H51	H	0.430174	0.187659	0.140331
H52	H	0.554206	0.042040	0.140471
H53	H	0.845675	-0.313532	0.000077
O54	O	1.144792	0.147775	0.436957
C55	C	1.161884	0.227557	0.469247
H56	H	1.123331	0.244580	0.534518
H57	H	1.231979	0.225546	0.485880
H58	H	1.144164	0.277058	0.413455
H59	H	0.917552	-0.427962	0.140331
H60	H	1.066879	-0.342536	0.140473
O61	O	0.910991	-0.431977	-0.152633
C62	C	0.910677	-0.520367	-0.152020
H63	H	0.918999	-0.544745	-0.077903
H64	H	0.848085	-0.537048	-0.180824
H65	H	0.964692	-0.550781	-0.196836
O66	O	0.839753	0.082220	0.563233
C67	C	0.777046	0.145269	0.531801
H68	H	0.800236	0.176040	0.466716
H69	H	0.717007	0.115658	0.515146
H70	H	0.763187	0.195093	0.588121
H71	H	1.102504	0.004726	0.557789
H72	H	0.962267	-0.025251	0.441892
H73	H	0.554372	0.042003	-0.140295
O74	O	0.528302	0.276389	0.000240
C75	C	0.494357	0.317738	0.080554
H76	H	0.485049	0.268970	0.136316
H77	H	0.539604	0.362755	0.107086
H78	H	0.430971	0.354923	0.063205
H79	H	0.459415	-0.033726	0.000109
H80	H	0.430217	0.187622	-0.140290
H81	H	1.066926	-0.342408	-0.140295
O82	O	1.151931	-0.463066	0.000268
C83	C	1.194252	-0.439934	0.080534
H84	H	1.146020	-0.418012	0.136316
H85	H	1.237591	-0.496630	0.107075
H86	H	1.233366	-0.386457	0.063119
H87	H	0.882205	0.224912	0.442029
O88	O	1.024763	0.267355	0.563311
C89	C	0.961723	0.330059	0.531850
H90	H	0.902124	0.299950	0.514509
H91	H	0.947097	0.379495	0.588427
H92	H	0.984970	0.361437	0.467175
