data_functionalizedCrystal
_audit_creation_method	'MofGen! by Chris Wilmer'
_symmetry_space_group_name_H-M	'P1'
_symmetry_Int_Tables_number	1
_symmetry_cell_setting	triclinic
loop_
_symmetry_equiv_pos_as_xyz
  x,y,z
_cell_length_a	16.109301
_cell_length_b	27.732048
_cell_length_c	14.586319
_cell_angle_alpha	89.991275
_cell_angle_beta	89.999213
_cell_angle_gamma	83.052068
loop_
_atom_site_label
_atom_site_type_symbol
_atom_site_fract_x
_atom_site_fract_y
_atom_site_fract_z
O1	O	1.102362	0.062130	-0.076193
O2	O	0.860204	0.069862	-0.076208
O3	O	0.988804	-0.004369	-0.076183
O4	O	0.973762	0.136361	-0.076218
O5	O	0.988795	-0.004370	0.076298
O6	O	0.860195	0.069861	0.076272
O7	O	1.102353	0.062129	0.076288
Cu8	Cu	0.981273	0.065995	0.090203
Cu9	Cu	0.981283	0.065996	-0.090123
O10	O	0.973753	0.136360	0.076262
C11	C	0.829228	0.069548	0.000030
C12	C	0.736945	0.068609	0.000025
C13	C	0.514154	0.110473	0.000025
C14	C	0.427445	0.109587	0.000031
C15	C	0.448409	0.021514	0.000050
C16	C	0.535117	0.022401	0.000050
C17	C	0.567987	0.066882	0.000033
C18	C	0.394570	0.065109	0.000039
C19	C	0.300556	0.064148	0.000045
C20	C	0.662007	0.067843	0.000028
C21	C	0.988483	-0.022378	0.000060
C22	C	0.987533	-0.076037	0.000068
C23	C	1.057541	-0.414559	0.000025
C24	C	1.054013	-0.616233	0.000012
O25	O	1.118031	-0.647221	-0.000024
N26	N	0.977759	-0.635676	0.000008
C27	C	0.902381	-0.604697	0.000001
O28	O	0.837441	-0.625862	-0.000012
C29	C	0.905910	-0.403024	0.000008
C30	C	0.982169	-0.383584	0.000021
C31	C	1.133794	-0.395119	0.000038
C32	C	1.134675	-0.344703	0.000046
C33	C	1.059303	-0.313728	0.000042
C34	C	0.983050	-0.333168	0.000029
C35	C	0.830533	-0.372045	-0.000006
C36	C	0.831422	-0.321624	-0.000006
C37	C	0.907681	-0.302184	0.000007
C38	C	0.908559	-0.251777	0.000034
N39	N	0.984814	-0.232334	0.000038
C40	C	1.060186	-0.263310	0.000042
C41	C	0.900534	-0.710579	-0.000000
C42	C	0.899652	-0.760997	-0.000000
C43	C	1.051284	-0.772530	0.000009
C44	C	1.052166	-0.722111	0.000016
C45	C	0.976789	-0.691136	0.000004
C46	C	1.062030	-0.157433	0.000060
C47	C	1.062905	-0.107012	0.000072
C48	C	0.911273	-0.095484	0.000058
C49	C	0.910398	-0.145900	0.000051
C50	C	0.985783	-0.176874	0.000049
O51	O	0.844576	-0.220761	0.000059
O52	O	1.125116	-0.242135	0.000035
C53	C	1.056660	-0.464975	0.000017
C54	C	0.980407	-0.484415	0.000005
C55	C	0.905035	-0.453440	0.000001
C56	C	0.979525	-0.534833	0.000005
C57	C	1.054897	-0.565808	0.000009
C58	C	1.131151	-0.546365	0.000013
C59	C	1.132032	-0.495950	0.000021
C60	C	0.828781	-0.472883	-0.000004
C61	C	0.827906	-0.523299	-0.000011
C62	C	0.903278	-0.554274	-0.000007
C63	C	1.133328	0.062443	0.000048
C64	C	1.225612	0.063382	0.000047
C65	C	0.974073	0.154369	0.000017
C66	C	0.975024	0.208028	0.000004
N67	N	0.981272	0.065994	0.217035
N68	N	0.981291	0.065994	-0.216955
C69	C	1.038234	0.033135	0.452053
C70	C	1.038237	0.033134	0.548034
C71	C	0.924323	0.098854	0.548020
C72	C	0.924317	0.098852	0.452041
C73	C	0.981278	0.065993	0.404060
C74	C	0.981286	0.065994	0.596020
C75	C	0.981288	0.065993	0.700087
C76	C	0.981275	0.065994	0.299986
H77	H	1.123416	-0.182646	0.000055
C78	C	1.100883	-0.003012	0.399273
C79	C	1.164221	0.015881	0.333279
C80	C	1.226869	-0.020268	0.280502
C81	C	1.226179	-0.075312	0.293719
C82	C	1.162839	-0.094208	0.359716
C83	C	1.100190	-0.058058	0.412493
H84	H	1.164734	0.056630	0.323492
H85	H	1.273758	-0.006280	0.231647
H86	H	1.272555	-0.102072	0.254651
H87	H	1.162326	-0.134957	0.369503
H88	H	1.053301	-0.072047	0.461348
H89	H	0.540913	0.146692	0.000018
H90	H	0.578951	-0.013099	0.000059
H91	H	1.114263	-0.706287	0.000026
C92	C	0.861674	0.135001	0.600801
C93	C	0.861721	0.135033	0.706374
C94	C	0.799073	0.171183	0.759151
C95	C	0.736378	0.207300	0.706354
C96	C	0.736329	0.207269	0.600774
C97	C	0.798977	0.171120	0.547998
H98	H	0.908134	0.108296	0.745463
H99	H	0.799110	0.171206	0.837308
H100	H	0.690002	0.234061	0.745422
H101	H	0.689916	0.234007	0.561686
H102	H	0.798940	0.171097	0.469840
C103	C	0.412248	-0.027412	0.000058
C104	C	0.355516	-0.040135	0.079235
C105	C	0.319356	-0.089062	0.079240
C106	C	0.339929	-0.125267	0.000068
C107	C	0.396664	-0.112545	-0.079115
C108	C	0.432824	-0.063618	-0.079120
H109	H	0.340284	-0.013333	0.137849
H110	H	0.277357	-0.098480	0.137857
H111	H	0.313161	-0.161486	0.000072
H112	H	0.411896	-0.139347	-0.137728
H113	H	0.474823	-0.054201	-0.137737
H114	H	1.125007	-0.091187	0.000085
C115	C	1.218564	-0.323325	0.000043
C116	C	1.280994	-0.335030	0.079215
C117	C	1.364889	-0.313657	0.079205
C118	C	1.386354	-0.280581	0.000022
C119	C	1.323922	-0.268875	-0.079157
C120	C	1.240028	-0.290247	-0.079147
H121	H	1.265106	-0.359517	0.137837
H122	H	1.411105	-0.322323	0.137818
H123	H	1.448458	-0.264759	0.000014
H124	H	1.339810	-0.244388	-0.137779
H125	H	1.193812	-0.281581	-0.137760
H126	H	0.383617	0.145084	0.000026
C127	C	1.216713	-0.429186	0.000047
C128	C	1.279366	-0.427007	0.079238
C129	C	1.362291	-0.461071	0.079256
C130	C	1.382564	-0.497312	0.000083
C131	C	1.319910	-0.499492	-0.079114
C132	C	1.236984	-0.465429	-0.079132
H133	H	1.264360	-0.400178	0.137852
H134	H	1.408672	-0.459457	0.137884
H135	H	1.443950	-0.522528	0.000097
H136	H	1.334916	-0.526322	-0.137727
H137	H	1.190604	-0.467043	-0.137759
C138	C	0.828365	-0.061406	0.000046
C139	C	0.765681	-0.063580	0.079211
C140	C	0.682772	-0.029501	0.079189
C141	C	0.662548	0.006751	0.000003
C142	C	0.725234	0.008926	-0.079167
C143	C	0.808143	-0.025152	-0.079146
H144	H	0.780650	-0.090417	0.137834
H145	H	0.636368	-0.031112	0.137797
H146	H	0.601174	0.031978	-0.000012
H147	H	0.710264	0.035764	-0.137791
H148	H	0.854547	-0.023542	-0.137753
H149	H	1.112655	-0.797759	0.000013
C150	C	0.817611	-0.676511	-0.000001
C151	C	0.754941	-0.678685	-0.079176
C152	C	0.672017	-0.644621	-0.079170
C153	C	0.651763	-0.608382	0.000012
C154	C	0.714434	-0.606207	0.079194
C155	C	0.797358	-0.640271	0.079187
H156	H	0.769933	-0.705512	-0.137797
H157	H	0.625623	-0.646231	-0.137786
H158	H	0.590377	-0.583166	0.000017
H159	H	0.699442	-0.579380	0.137814
H160	H	0.843752	-0.638661	0.137803
H161	H	0.837554	-0.776820	0.000005
H162	H	1.192521	-0.571594	0.000020
C163	C	0.746642	-0.393417	-0.000026
C164	C	0.684205	-0.381723	0.079139
C165	C	0.600307	-0.403091	0.079117
C166	C	0.578845	-0.436153	-0.000070
C167	C	0.641282	-0.447849	-0.079242
C168	C	0.725181	-0.426481	-0.079220
H169	H	0.700091	-0.357247	0.137764
H170	H	0.554086	-0.394433	0.137725
H171	H	0.516738	-0.451971	-0.000087
H172	H	0.625396	-0.472325	-0.137867
H173	H	0.771401	-0.435139	-0.137828
C174	C	0.748503	-0.287552	-0.000016
C175	C	0.685844	-0.289721	-0.079204
C176	C	0.602927	-0.255650	-0.079212
C177	C	0.582670	-0.219410	-0.000032
C178	C	0.645331	-0.217240	0.079161
C179	C	0.728247	-0.251312	0.079169
H180	H	0.700839	-0.316548	-0.137823
H181	H	0.556542	-0.257256	-0.137837
H182	H	0.521290	-0.194189	-0.000038
H183	H	0.630336	-0.190413	0.137780
H184	H	0.774633	-0.249705	0.137794
H185	H	0.848301	-0.161728	0.000065
H186	H	1.194130	-0.480127	0.000032
H187	H	0.877932	0.125610	0.412962
H188	H	0.765802	-0.539121	-0.000014
H189	H	1.084615	0.006377	0.587107
H190	H	0.767402	-0.447667	-0.000009
