data_functionalizedCrystal
_audit_creation_method	'MofGen! by Chris Wilmer'
_symmetry_space_group_name_H-M	'P1'
_symmetry_Int_Tables_number	1
_symmetry_cell_setting	triclinic
loop_
_symmetry_equiv_pos_as_xyz
  x,y,z
_cell_length_a	18.215407
_cell_length_b	18.215405
_cell_length_c	18.215399
_cell_angle_alpha	89.969030
_cell_angle_beta	89.980650
_cell_angle_gamma	90.025333
loop_
_atom_site_label
_atom_site_type_symbol
_atom_site_fract_x
_atom_site_fract_y
_atom_site_fract_z
Zn1	Zn	1.125068	-0.292980	-0.416103
Zn2	Zn	1.124978	-0.416052	-0.293031
Zn3	Zn	1.002002	-0.293005	-0.293050
Zn4	Zn	1.001967	-0.416010	-0.416056
O5	O	1.063504	-0.354512	-0.354560
O6	O	1.228041	-0.309313	-0.399788
O7	O	1.108642	-0.399758	-0.190049
O8	O	1.018380	-0.190017	-0.309401
O9	O	1.227974	-0.399733	-0.309368
O10	O	1.108796	-0.189999	-0.399807
O11	O	1.018292	-0.309355	-0.190063
O12	O	0.899013	-0.309315	-0.309355
O13	O	1.018320	-0.399662	-0.519046
O14	O	0.898987	-0.399686	-0.399727
O15	O	1.108762	-0.309272	-0.519081
O16	O	1.108608	-0.519031	-0.309322
O17	O	1.018232	-0.519000	-0.399708
C18	C	0.872298	-0.354499	-0.354539
C19	C	0.790499	-0.354512	-0.354547
C20	C	0.602311	-0.401642	-0.401544
C21	C	0.525452	-0.401644	-0.401554
C22	C	0.525449	-0.307395	-0.307591
C23	C	0.602306	-0.307390	-0.307586
C24	C	0.640735	-0.354517	-0.354562
C25	C	0.487019	-0.354525	-0.354576
C26	C	0.403685	-0.354527	-0.354585
C27	C	0.724074	-0.354514	-0.354553
C28	C	1.063426	-0.545718	-0.354524
C29	C	1.063460	-0.627517	-0.354534
C30	C	1.110629	-0.815702	-0.307556
C31	C	1.110662	-0.892561	-0.307574
C32	C	1.016473	-0.892569	-0.401616
C33	C	1.016444	-0.815712	-0.401601
C34	C	1.063521	-0.777280	-0.354567
C35	C	1.063583	-0.930997	-0.354600
C36	C	1.063618	-1.014330	-0.354619
C37	C	1.063487	-0.693942	-0.354548
C38	C	1.255457	-0.354525	-0.354581
C39	C	1.337256	-0.354531	-0.354591
C40	C	1.063547	-0.354460	-0.546513
C41	C	1.063565	-0.354437	-0.628312
C42	C	1.063602	-0.162559	-0.354611
C43	C	1.063644	-0.080760	-0.354633
C44	C	1.110686	-0.307308	-0.893389
C45	C	1.110677	-0.307328	-0.816530
C46	C	1.016505	-0.401460	-0.816483
C47	C	1.016518	-0.401444	-0.893341
C48	C	1.063607	-0.354363	-0.931791
C49	C	1.063586	-0.354400	-0.778075
C50	C	1.063576	-0.354422	-0.694742
C51	C	1.063618	-0.354342	-1.015130
C52	C	1.063503	-0.354511	-0.163353
C53	C	1.063627	-0.354326	-0.081555
H54	H	0.494170	-0.440017	-0.439813
C55	C	0.964702	-0.453239	-0.774181
N56	N	0.925680	-0.492237	-0.742319
C57	C	0.964634	-0.773445	-0.453335
N58	N	0.925618	-0.741610	-0.492305
H59	H	1.149014	-0.269012	-0.785265
C60	C	0.964724	-0.453209	-0.935587
N61	N	0.925715	-0.492199	-0.967406
C62	C	1.162491	-0.255524	-0.935681
N63	N	1.201515	-0.216522	-0.967534
H64	H	0.494151	-0.269026	-0.269344
H65	H	0.633597	-0.440015	-0.439797
C66	C	0.644576	-0.255546	-0.255898
N67	N	0.676414	-0.216498	-0.216970
H68	H	1.149023	-0.923841	-0.269294
C69	C	0.964682	-0.934851	-0.453342
N70	N	0.925669	-0.966697	-0.492300
C71	C	1.162420	-0.773431	-0.255822
N72	N	1.201432	-0.741594	-0.216856
