data_functionalizedCrystal
_audit_creation_method	'MofGen! by Chris Wilmer'
_symmetry_space_group_name_H-M	'P1'
_symmetry_Int_Tables_number	1
_symmetry_cell_setting	triclinic
loop_
_symmetry_equiv_pos_as_xyz
  x,y,z
_cell_length_a	21.295418
_cell_length_b	12.759400
_cell_length_c	12.759393
_cell_angle_alpha	89.968436
_cell_angle_beta	90.040879
_cell_angle_gamma	89.969501
loop_
_atom_site_label
_atom_site_type_symbol
_atom_site_fract_x
_atom_site_fract_y
_atom_site_fract_z
Zn1	Zn	0.962407	0.417761	0.594609
Zn2	Zn	0.962344	0.593480	0.418929
Zn3	Zn	0.857136	0.417864	0.418880
Zn4	Zn	0.857129	0.593447	0.594502
O5	O	0.909754	0.505638	0.506730
O6	O	1.050488	0.441041	0.571370
O7	O	0.948364	0.570241	0.271901
O8	O	0.871129	0.270829	0.442215
O9	O	1.050442	0.570141	0.442299
O10	O	0.948472	0.270753	0.571322
O11	O	0.871068	0.441216	0.271865
O12	O	0.769045	0.441185	0.442111
O13	O	0.871118	0.570085	0.741537
O14	O	0.769040	0.570185	0.571140
O15	O	0.948465	0.441009	0.741616
O16	O	0.948358	0.740496	0.442195
O17	O	0.871057	0.740472	0.571188
C18	C	0.746202	0.505693	0.506609
C19	C	0.676234	0.505742	0.506582
C20	C	0.909717	0.778605	0.506708
C21	C	0.909758	0.895382	0.506734
C22	C	0.909798	0.505532	0.780764
C23	C	0.909817	0.505486	0.897540
C24	C	0.643381	0.573001	0.573667
C25	C	0.577639	0.572975	0.573714
C26	C	0.544752	0.505701	0.506658
C27	C	0.577612	0.438429	0.439568
C28	C	0.643354	0.438449	0.439530
N29	N	0.441477	0.497506	0.414766
N30	N	0.379026	0.497493	0.414805
C31	C	0.346677	0.505634	0.506769
N32	N	0.379139	0.513810	0.598696
N33	N	0.441596	0.513828	0.598656
C34	C	0.473466	0.505671	0.506692
C35	C	0.242539	0.572869	0.573911
C36	C	0.176795	0.572836	0.573960
C37	C	0.176770	0.438295	0.439804
C38	C	0.242512	0.438322	0.439765
C39	C	0.275393	0.505615	0.506817
C40	C	1.073944	0.505583	0.506852
C41	C	1.143912	0.505560	0.506904
C42	C	0.909809	0.231604	0.506775
C43	C	0.909832	0.114828	0.506794
C44	C	0.950053	0.950221	0.439642
C45	C	0.950092	1.059945	0.439674
C46	C	0.869535	1.059980	0.573894
C47	C	0.869500	0.950258	0.573866
C48	C	0.996561	0.950202	0.362148
C49	C	0.996599	1.059926	0.362180
C50	C	0.909746	0.505667	0.233763
C51	C	0.909849	0.505417	0.116987
C52	C	0.950097	0.438270	0.952445
C53	C	0.950112	0.438232	1.062169
C54	C	0.869565	0.572636	1.062074
C55	C	0.869547	0.572668	0.952352
C56	C	0.996603	0.360677	0.952501
C57	C	0.996618	0.360639	1.062225
H58	H	0.670149	0.627795	0.628268
C59	C	0.156555	0.260334	0.388931
C60	C	0.140617	0.364356	0.366096
H61	H	0.134226	0.214690	0.343430
H62	H	0.200402	0.250715	0.379290
H63	H	0.145833	0.245047	0.459558
H64	H	0.151343	0.379646	0.295471
H65	H	0.096759	0.373980	0.375728
C66	C	1.062440	0.389957	1.212221
C67	C	1.062432	0.390015	1.102480
H68	H	1.103072	0.408082	1.237071
H69	H	1.032703	0.439595	1.236998
H70	H	1.051560	0.322148	1.237020
H71	H	1.073308	0.457827	1.077681
H72	H	1.092179	0.340375	1.077693
H73	H	0.550831	0.383652	0.384972
C74	C	0.789919	0.705492	0.963284
C75	C	0.825259	0.646537	0.892000
H76	H	0.762577	0.751098	0.926023
H77	H	0.765867	0.659704	1.006077
H78	H	0.817346	0.745672	1.006086
H79	H	0.797832	0.606351	0.849203
H80	H	0.849313	0.692331	0.849189
C81	C	0.584261	0.705972	0.706311
C82	C	0.541517	0.646908	0.647463
H83	H	0.561960	0.751616	0.751836
H84	H	0.609947	0.660255	0.746561
H85	H	0.609856	0.746115	0.660442
H86	H	0.515925	0.606759	0.693331
H87	H	0.515820	0.692631	0.607210
C88	C	0.919119	0.224091	0.948848
C89	C	0.978989	0.250855	0.912306
H90	H	0.908244	0.156297	0.924027
H91	H	0.919135	0.224068	1.023289
H92	H	0.889373	0.273751	0.923993
H93	H	1.008736	0.201199	0.937168
H94	H	0.978978	0.250870	0.837850
H95	H	1.042901	0.389824	0.918495
H96	H	1.045299	0.920322	0.384031
C97	C	0.919854	0.274711	1.169884
C98	C	0.973070	0.256287	1.108175
H99	H	0.905312	0.210290	1.198244
H100	H	0.930359	0.321173	1.225318
H101	H	0.887796	0.305150	1.127931
H102	H	1.005129	0.225855	1.150129
H103	H	0.962566	0.209807	1.052733
H104	H	0.983575	1.089794	0.280791
H105	H	0.269261	0.383558	0.385132
C106	C	0.636724	0.305464	0.306926
C107	C	0.679469	0.364521	0.365776
H108	H	0.659022	0.259831	0.261387
H109	H	0.611133	0.265318	0.352784
H110	H	0.611032	0.351193	0.266680
H111	H	0.705158	0.318792	0.406028
H112	H	0.705070	0.404670	0.319911
H113	H	0.836694	0.905609	0.628507
H114	H	0.269312	0.627657	0.628514
H115	H	0.150047	0.627604	0.628595
C116	C	0.833820	1.228193	0.633536
C117	C	0.825281	1.120305	0.647677
H118	H	0.806495	1.265431	0.679083
H119	H	0.876111	1.246078	0.649007
H120	H	0.824634	1.246240	0.562928
H121	H	0.834471	1.102257	0.718283
H122	H	0.782980	1.102412	0.632213
H123	H	1.042917	1.093849	0.391422
C124	C	0.957579	0.986187	0.189207
C125	C	0.973011	0.904374	0.257745
H126	H	0.943044	0.957892	0.124752
H127	H	0.925529	1.028111	0.219557
H128	H	0.993704	1.028034	0.176818
H129	H	0.936885	0.862532	0.270140
H130	H	1.005064	0.862433	0.227389
H131	H	0.836777	0.627330	1.106715
