data_functionalizedCrystal
_audit_creation_method	'MofGen! by Chris Wilmer'
_symmetry_space_group_name_H-M	'P1'
_symmetry_Int_Tables_number	1
_symmetry_cell_setting	triclinic
loop_
_symmetry_equiv_pos_as_xyz
  x,y,z
_cell_length_a	11.792254
_cell_length_b	14.044220
_cell_length_c	12.503572
_cell_angle_alpha	86.156832
_cell_angle_beta	93.542595
_cell_angle_gamma	88.693738
loop_
_atom_site_label
_atom_site_type_symbol
_atom_site_fract_x
_atom_site_fract_y
_atom_site_fract_z
O1	O	1.525101	0.124591	0.089323
O2	O	2.025101	0.624591	0.589323
O3	O	1.196019	0.137975	0.089326
O4	O	1.696019	0.637975	0.589326
O5	O	1.355620	-0.006726	0.089314
O6	O	1.855620	0.493274	0.589314
O7	O	1.365500	0.269293	0.089335
O8	O	1.865500	0.769293	0.589335
O9	O	1.343619	0.004174	-0.089327
O10	O	1.843619	0.504174	0.410673
O11	O	1.184018	0.148876	-0.089316
O12	O	1.684018	0.648876	0.410684
O13	O	1.513100	0.135492	-0.089318
O14	O	2.013100	0.635492	0.410682
Cu15	Cu	1.347463	0.143179	-0.105628
Cu16	Cu	1.847463	0.643179	0.394372
Cu17	Cu	1.361656	0.130288	0.105636
Cu18	Cu	1.861656	0.630288	0.605636
O19	O	1.353499	0.280193	-0.089306
O20	O	1.853499	0.780193	0.410694
C21	C	1.147648	0.142582	0.000005
C22	C	1.647648	0.642582	0.500005
C23	C	1.021398	0.140059	0.000006
C24	C	1.521398	0.640059	0.500006
C25	C	0.918870	0.138008	0.000010
C26	C	1.418870	0.638008	0.500010
C27	C	0.790242	0.135444	0.000011
C28	C	1.290242	0.635444	0.500011
C29	C	1.345295	-0.036613	-0.000007
C30	C	1.845295	0.463387	0.499993
C31	C	1.332396	-0.141905	-0.000009
C32	C	1.832396	0.358095	0.499991
C33	C	1.308815	-0.334690	0.000007
C34	C	1.808815	0.165310	0.500007
C35	C	1.400300	-0.391849	0.000010
C36	C	1.900300	0.108151	0.500010
C37	C	1.387179	-0.499121	0.000018
C38	C	1.887179	0.000879	0.500018
C39	C	1.321934	-0.227408	-0.000002
C40	C	1.821934	0.272592	0.499998
C41	C	1.561471	0.130885	0.000004
C42	C	2.061471	0.630885	0.500004
C43	C	1.687721	0.133408	0.000011
C44	C	2.187721	0.633408	0.500011
C45	C	1.363824	0.310080	0.000017
C46	C	1.863824	0.810080	0.500017
C47	C	1.376724	0.415372	0.000025
C48	C	1.876724	0.915372	0.500025
N49	N	1.337489	0.152245	-0.254220
N50	N	1.837489	0.652245	0.245780
C51	C	1.322817	0.165591	-0.473334
C52	C	1.822817	0.665591	0.026666
C53	C	1.386306	0.107872	-0.526666
C54	C	1.886306	0.607872	-0.026666
C55	C	1.378143	0.115298	-0.648588
C56	C	1.878143	0.615298	-0.148588
C57	C	1.330979	0.158166	-0.351400
C58	C	1.830979	0.658166	0.148600
N59	N	1.371638	0.121214	0.254227
N60	N	1.871638	0.621214	0.754227
H61	H	1.488481	-0.360226	0.000081
H62	H	1.988481	0.139774	0.500081
H63	H	1.220645	-0.366316	0.000010
H64	H	1.720645	0.133684	0.500010
H65	H	1.446793	0.052882	-0.480757
H66	H	1.946793	0.552882	0.019243
H67	H	1.262336	0.220578	-0.519237
H68	H	1.762336	0.720578	-0.019237
