data_functionalizedCrystal
_audit_creation_method	'MofGen! by Chris Wilmer'
_symmetry_space_group_name_H-M	'P1'
_symmetry_Int_Tables_number	1
_symmetry_cell_setting	triclinic
loop_
_symmetry_equiv_pos_as_xyz
  x,y,z
_cell_length_a	10.654541
_cell_length_b	16.992694
_cell_length_c	16.053802
_cell_angle_alpha	92.750953
_cell_angle_beta	92.590712
_cell_angle_gamma	92.423924
loop_
_atom_site_label
_atom_site_type_symbol
_atom_site_fract_x
_atom_site_fract_y
_atom_site_fract_z
O1	O	0.261481	-1.045115	-0.069324
O2	O	0.761481	-0.545115	0.430676
O3	O	0.258557	-0.816815	-0.069348
O4	O	0.758557	-0.316815	0.430652
O5	O	0.077733	-0.936214	-0.069330
O6	O	0.577733	-0.436214	0.430670
O7	O	0.442304	-0.925715	-0.069342
O8	O	0.942304	-0.425715	0.430658
O9	O	0.087643	-0.929642	0.069527
O10	O	0.587643	-0.429642	0.569527
O11	O	0.268466	-0.810242	0.069510
O12	O	0.768466	-0.310242	0.569510
O13	O	0.271391	-1.038542	0.069534
O14	O	0.771391	-0.538542	0.569534
Zn15	Zn	0.271501	-0.923349	0.091569
Zn16	Zn	0.771501	-0.423349	0.591569
Zn17	Zn	0.258446	-0.932008	-0.091383
Zn18	Zn	0.758446	-0.432008	0.408617
O19	O	0.452214	-0.919143	0.069516
O20	O	0.952214	-0.419143	0.569516
C21	C	0.259751	-0.784296	0.000077
C22	C	0.759751	-0.284296	0.500077
C23	C	0.248531	-0.697191	0.000068
C24	C	0.748531	-0.197191	0.500068
C25	C	0.035823	-0.932158	0.000098
C26	C	0.535823	-0.432158	0.500098
C27	C	-0.103819	-0.929852	0.000096
C28	C	0.396181	-0.429852	0.500096
C29	C	0.270196	-1.071061	0.000106
C30	C	0.770196	-0.571061	0.500106
C31	C	0.281416	-1.158166	0.000110
C32	C	0.781416	-0.658166	0.500110
C33	C	-0.119450	-1.072627	0.000122
C34	C	0.380550	-0.572627	0.500122
C35	C	-0.192868	-1.142928	0.000137
C36	C	0.307132	-0.642928	0.500137
C37	C	-0.324074	-1.140757	0.000134
C38	C	0.175926	-0.640757	0.500134
C39	C	-0.381864	-1.068278	0.000114
C40	C	0.118136	-0.568278	0.500114
C41	C	-0.308446	-0.997977	0.000100
C42	C	0.191554	-0.497977	0.500100
C43	C	-0.177238	-1.000155	0.000105
C44	C	0.322762	-0.500155	0.500105
C45	C	-0.292816	-0.855204	0.000068
C46	C	0.207184	-0.355204	0.500068
C47	C	-0.161610	-0.857373	0.000076
C48	C	0.338390	-0.357373	0.500076
C49	C	-0.350606	-0.782725	0.000048
C50	C	0.149394	-0.282725	0.500048
C51	C	-0.277188	-0.712422	0.000039
C52	C	0.222812	-0.212422	0.500039
C53	C	-0.145974	-0.714596	0.000043
C54	C	0.354026	-0.214596	0.500043
C55	C	-0.088192	-0.787072	0.000062
C56	C	0.411808	-0.287072	0.500062
C57	C	0.494124	-0.923199	0.000086
C58	C	0.994124	-0.423199	0.500086
C59	C	0.633766	-0.925505	0.000082
C60	C	1.133766	-0.425505	0.500082
N61	N	0.280412	-0.917445	0.216428
N62	N	0.780412	-0.417445	0.716428
C63	C	0.356781	-0.647539	0.000065
C64	C	0.856781	-0.147539	0.500065
C65	C	0.346233	-0.565694	0.000077
C66	C	0.846233	-0.065694	0.500077
C67	C	0.227433	-0.533504	0.000086
C68	C	0.727433	-0.033504	0.500086
C69	C	0.119174	-0.583162	0.000091
C70	C	0.619174	-0.083162	0.500091
C71	C	0.129724	-0.665005	0.000085
C72	C	0.629724	-0.165005	0.500085
C73	C	0.183707	-0.289668	0.000110
C74	C	0.683707	0.210332	0.500110
C75	C	0.173165	-0.207819	0.000113
C76	C	0.673165	0.292181	0.500113
C77	C	0.400226	-0.190356	0.000101
C78	C	0.900226	0.309644	0.500101
C79	C	0.410765	-0.272201	0.000090
C80	C	0.910765	0.227799	0.500090
C81	C	0.302506	-0.321852	0.000099
C82	C	0.802506	0.178148	0.500099
N83	N	0.216647	-0.449846	0.000095
N84	N	0.716647	0.050154	0.500095
N85	N	0.313293	-0.405508	0.000096
N86	N	0.813293	0.094492	0.500096
N87	N	0.249526	-0.937918	-0.216242
N88	N	0.749526	-0.437918	0.283758
C89	C	0.203502	-0.968268	0.260130
C90	C	0.703502	-0.468268	0.760130
C91	C	0.209748	-0.964146	0.347536
C92	C	0.709748	-0.464146	0.847536
C93	C	0.292910	-0.909203	0.391239
C94	C	0.792910	-0.409203	0.891239
C95	C	0.369822	-0.858374	0.347531
C96	C	0.869822	-0.358374	0.847531
C97	C	0.363569	-0.862493	0.260126
C98	C	0.863569	-0.362493	0.760126
C99	C	0.320186	-0.891209	0.652646
C100	C	0.820186	-0.391209	1.152646
C101	C	0.326436	-0.887095	0.740056
C102	C	0.826436	-0.387095	1.240056
C103	C	0.166359	-0.992866	0.740055
C104	C	0.666359	-0.492866	1.240055
C105	C	0.160119	-0.996984	0.652649
C106	C	0.660119	-0.496984	1.152649
C107	C	0.237026	-0.946152	0.608949
C108	C	0.737026	-0.446152	1.108949
N109	N	0.299298	-0.904989	0.480582
N110	N	0.799298	-0.404989	0.980582
N111	N	0.230631	-0.950363	0.519607
N112	N	0.730631	-0.450363	1.019607
H113	H	-0.012615	-1.074401	0.000136
H114	H	0.487385	-0.574401	0.500136
H115	H	0.095555	-0.330084	0.000118
H116	H	0.595555	0.169916	0.500118
H117	H	0.394161	-0.842351	0.775635
H118	H	0.894161	-0.342351	1.275635
Cl119	Cl	0.098956	-1.037347	0.205198
Cl120	Cl	0.598956	-0.537347	0.705198
Cl121	Cl	0.460256	-0.798594	0.205188
Cl122	Cl	0.960256	-0.298594	0.705188
H123	H	-0.145800	-1.201939	0.000160
H124	H	0.354200	-0.701939	0.500160
Cl125	Cl	-0.053688	-0.626212	0.000018
Cl126	Cl	0.446312	-0.126212	0.500018
Cl127	Cl	0.023806	-0.167352	0.000143
Cl128	Cl	0.523806	0.332648	0.500143
Cl129	Cl	-0.006369	-0.727426	0.000092
Cl130	Cl	0.493631	-0.227426	0.500092
Cl131	Cl	0.113059	-1.028039	0.402476
Cl132	Cl	0.613059	-0.528039	0.902476
Cl133	Cl	-0.416375	-1.229136	0.000145
Cl134	Cl	0.083625	-0.729136	0.500145
H135	H	0.382810	-0.849821	0.617072
H136	H	0.882810	-0.349821	1.117072
H137	H	0.022444	-0.556946	0.000110
H138	H	0.522444	-0.056946	0.500110
H139	H	-0.488700	-1.066517	0.000101
H140	H	0.011300	-0.566517	0.500101
H141	H	0.434383	-0.525270	0.000074
H142	H	0.934383	-0.025270	0.500074
H143	H	0.092402	-1.041723	0.617067
H144	H	0.592402	-0.541723	1.117067
Cl145	Cl	0.069675	-1.056762	0.794996
Cl146	Cl	0.569675	-0.556762	1.294996
H147	H	-0.457442	-0.780962	0.000040
H148	H	0.042558	-0.280962	0.500040
Cl149	Cl	-0.349845	-0.621316	0.000004
Cl150	Cl	0.150155	-0.121316	0.500004
Cl151	Cl	0.560120	-0.312663	0.000073
Cl152	Cl	1.060120	0.187337	0.500073
Cl153	Cl	0.076753	-0.789811	0.000072
Cl154	Cl	0.576753	-0.289811	0.500072
H155	H	0.437530	-0.813634	0.383119
H156	H	0.937530	-0.313634	0.883119
Cl157	Cl	0.506138	-0.687998	0.000049
Cl158	Cl	1.006138	-0.187998	0.500049
Cl159	Cl	0.536313	-0.127933	0.000092
Cl160	Cl	1.036313	0.372067	0.500092
