data_functionalizedCrystal
_audit_creation_method	'MofGen! by Chris Wilmer'
_symmetry_space_group_name_H-M	'P1'
_symmetry_Int_Tables_number	1
_symmetry_cell_setting	triclinic
loop_
_symmetry_equiv_pos_as_xyz
  x,y,z
_cell_length_a	14.446369
_cell_length_b	17.917603
_cell_length_c	17.917603
_cell_angle_alpha	60.138055
_cell_angle_beta	90.003104
_cell_angle_gamma	63.032965
loop_
_atom_site_label
_atom_site_type_symbol
_atom_site_fract_x
_atom_site_fract_y
_atom_site_fract_z
Zr1	Zr	0.944586	0.806818	-0.129031
O2	O	0.811760	0.951856	-0.249571
O3	O	0.978956	0.654589	-0.087379
O4	O	0.995726	0.796440	-0.242787
O5	O	0.788982	0.820699	0.023078
O6	O	1.148063	0.796434	-0.242782
O7	O	0.794990	0.810005	-0.094163
O8	O	1.118064	0.542687	0.035214
O9	O	0.818981	1.074445	-0.254918
O10	O	1.114971	0.719861	-0.075290
O11	O	0.996800	0.727847	0.012202
O12	O	1.016545	0.894858	-0.170771
O13	O	0.898374	0.902844	-0.083278
Zr14	Zr	1.177962	0.823863	0.057963
Zr15	Zr	1.187545	0.806808	-0.129024
Zr16	Zr	0.935003	0.823873	0.057955
Zr17	Zr	0.956102	1.002333	-0.137559
Zr18	Zr	1.166446	0.628348	0.066491
O19	O	1.143592	0.976092	0.016310
O20	O	1.157217	0.951842	-0.249561
O21	O	0.798135	0.976107	0.016300
O22	O	1.310788	0.678825	0.178503
O23	O	1.324413	0.654574	-0.087368
O24	O	0.965331	0.678839	0.178492
O25	O	1.333566	0.809982	-0.094147
O26	O	1.126821	0.834241	0.171718
O27	O	0.974485	0.834247	0.171714
O28	O	1.327558	0.820676	0.023095
O29	O	1.012101	1.074437	-0.254912
O30	O	1.110447	0.556244	0.183844
O31	O	1.303567	0.556236	0.183850
O32	O	1.311184	0.542679	0.035220
O33	O	0.811364	1.088002	-0.106289
O34	O	1.004484	1.087994	-0.106283
O35	O	1.106003	0.735823	0.099702
O36	O	1.224174	0.727837	0.012209
O37	O	1.125748	0.902834	-0.083271
O38	O	1.007577	0.910820	0.004222
C39	C	1.046869	0.570781	-0.024867
C40	C	1.041980	0.487780	-0.021247
C41	C	1.033048	0.335814	-0.014636
C42	C	1.089497	0.294862	-0.056431
C43	C	1.084527	0.210303	-0.052752
C44	C	1.038017	0.420381	-0.018313
C45	C	0.757369	0.815353	-0.035544
C46	C	0.654227	0.815357	-0.035547
C47	C	0.445468	0.925741	-0.095487
C48	C	0.552721	0.925791	-0.095800
C49	C	0.649589	0.754364	-0.073298
C50	C	0.541884	0.755060	-0.073733
C51	C	0.536144	0.765077	0.062255
C52	C	0.642249	0.767239	0.062010
C53	C	1.365179	0.815328	-0.035525
C54	C	1.468321	0.815324	-0.035522
C55	C	1.073260	0.794007	-0.269426
C56	C	1.077328	0.786767	-0.348807
C57	C	1.075679	1.059900	-0.046201
C58	C	1.080568	1.142901	-0.049822
C59	C	1.084782	0.773541	-0.494162
C60	C	1.037768	0.857136	-0.576909
C61	C	1.041916	0.849777	-0.657790
C62	C	1.080636	0.780898	-0.413272
C63	C	1.049288	0.836674	0.198358
C64	C	1.045220	0.843915	0.277738
C65	C	1.350774	0.570769	-0.024858
C66	C	1.449028	0.487763	-0.021235
C67	C	1.034883	0.592115	0.209025
C68	C	1.025926	0.516354	0.292026
C69	C	1.338788	0.592102	0.209034
C70	C	1.432974	0.516337	0.292038
C71	C	0.783760	1.038579	-0.280102
C72	C	0.689574	1.114344	-0.363107
C73	C	0.771774	1.059912	-0.046211
C74	C	0.673520	1.142918	-0.049834
C75	C	1.087665	1.038566	-0.280093
C76	C	1.096622	1.114327	-0.363094
C77	C	1.438166	0.444619	-0.065215
C78	C	1.530478	0.366636	-0.061828
C79	C	1.633650	0.331794	-0.014456
C80	C	1.644510	0.374946	0.029526
C81	C	1.552199	0.452932	0.026133
C82	C	1.078722	0.484940	0.376685
C83	C	1.070303	0.413767	0.454680
C84	C	1.009092	0.374003	0.448014
C85	C	0.956289	0.405424	0.363345
C86	C	0.964704	0.476602	0.285352
C87	C	1.538898	0.476589	0.285347
C88	C	1.627406	0.405410	0.363331
C89	C	1.609986	0.373975	0.448005
C90	C	1.504051	0.413731	0.454693
C91	C	1.415546	0.484914	0.376710
C92	C	0.583650	1.154101	-0.356416
C93	C	0.495144	1.225305	-0.434401
C94	C	0.512564	1.256744	-0.519075
C95	C	0.618499	1.216983	-0.525763
C96	C	0.707003	1.145786	-0.447780
C97	C	0.684383	1.186069	-0.005862
C98	C	0.592073	1.264072	-0.009270
C99	C	0.488902	1.298917	-0.056646
C100	C	0.478041	1.255762	-0.100623
C101	C	0.570351	1.177765	-0.097220
C102	C	1.157841	1.154068	-0.356399
C103	C	1.166278	1.225244	-0.434379
C104	C	1.113489	1.256682	-0.519055
C105	C	1.052267	1.216933	-0.525749
C106	C	1.043837	1.145753	-0.447769
H107	H	0.392804	0.973493	-0.070600
O108	O	1.144740	0.527826	0.383887
H109	H	1.180021	0.494024	0.455865
H110	H	0.413746	1.362428	-0.059410
O111	O	1.122581	1.333460	-0.603159
H112	H	1.040416	1.400935	-0.645647
H113	H	0.657626	0.787849	-0.144429
O114	O	0.980315	0.959259	-0.590293
H115	H	0.893645	1.001785	-0.628488
O116	O	0.964071	0.298154	0.036398
H117	H	0.923478	0.341198	0.066449
H118	H	1.141556	0.323310	-0.094976
O119	O	1.000030	0.297229	0.532144
H120	H	0.948593	0.274854	0.513293
O121	O	1.142228	0.671426	-0.480784
H122	H	1.176041	0.611317	-0.407689
O123	O	0.552269	0.988624	-0.062639
H124	H	0.475264	1.019253	-0.046239
O125	O	0.995320	1.250854	-0.617080
H126	H	1.011461	1.307037	-0.670172
O127	O	0.380935	0.977020	-0.190573
H128	H	0.365065	0.924205	-0.195309
H129	H	1.354167	0.472985	-0.103802
H130	H	0.408895	1.257666	-0.428938
H131	H	0.556538	0.964635	-0.168004
H132	H	0.486573	0.805077	0.094270
O133	O	0.483113	0.800567	-0.168886
H134	H	0.531733	0.821875	-0.214159
H135	H	0.906452	0.373038	0.357930
H136	H	1.708806	0.268290	-0.011699
H137	H	1.561058	0.488051	0.061953
H138	H	1.553102	0.502172	0.216409
O139	O	0.977790	1.102904	-0.454995
H140	H	0.942493	1.136737	-0.526979
H141	H	0.768382	1.157706	0.032722
H142	H	1.200830	1.128483	-0.287459
H143	H	0.561632	0.673785	-0.032617
O144	O	1.741657	0.362526	0.356108
H145	H	1.738891	0.396332	0.284127
H146	H	0.394027	1.284144	-0.139195
H147	H	0.440488	1.314717	-0.582567
O148	O	0.907930	0.510335	0.194046
H149	H	0.864026	0.470664	0.202526
O150	O	0.744064	0.646507	-0.017955
H151	H	0.712982	0.594674	0.011108
H152	H	0.642652	0.811777	0.090257
O153	O	1.518753	0.320094	-0.109259
H154	H	1.431499	0.357415	-0.142752
O155	O	1.232307	1.268112	-0.427151
H156	H	1.267579	1.234301	-0.355169
O157	O	0.558618	1.131222	-0.144643
H158	H	0.603384	1.141582	-0.195786
O159	O	0.603804	1.310597	0.038176
H160	H	0.559012	1.300245	0.089301
O161	O	1.127277	0.379867	0.545996
H162	H	1.171272	0.419462	0.537522
O163	O	1.755789	0.337354	0.080628
H164	H	1.818143	0.275868	0.075603
H165	H	0.714172	0.687043	0.110055
H166	H	0.556468	0.683798	0.107085
O167	O	1.705449	0.297187	0.532114
H168	H	1.782028	0.274824	0.513227
O169	O	1.485269	0.379818	0.546022
H170	H	1.435734	0.344978	0.555158
O171	O	1.301300	0.527757	0.383941
H172	H	1.291677	0.566578	0.418620
O173	O	0.564849	1.120206	-0.265095
H174	H	0.476319	1.159833	-0.273559
H175	H	0.632670	1.242590	-0.594714
H176	H	0.793250	1.113415	-0.453237
