data_functionalizedCrystal
_audit_creation_method	'MofGen! by Chris Wilmer'
_symmetry_space_group_name_H-M	'P1'
_symmetry_Int_Tables_number	1
_symmetry_cell_setting	triclinic
loop_
_symmetry_equiv_pos_as_xyz
  x,y,z
_cell_length_a	15.995292
_cell_length_b	15.995292
_cell_length_c	15.072220
_cell_angle_alpha	89.997939
_cell_angle_beta	90.013670
_cell_angle_gamma	83.468616
loop_
_atom_site_label
_atom_site_type_symbol
_atom_site_fract_x
_atom_site_fract_y
_atom_site_fract_z
O1	O	1.111004	0.107692	0.073800
O2	O	0.867219	0.121071	0.073796
O3	O	0.995801	-0.007511	0.073799
O4	O	0.982422	0.236274	0.073797
O5	O	0.995769	-0.007504	-0.073766
O6	O	0.867187	0.121078	-0.073769
O7	O	1.110972	0.107699	-0.073765
Zn8	Zn	0.989075	0.114390	-0.097196
Zn9	Zn	0.989116	0.114380	0.097227
O10	O	0.982390	0.236281	-0.073769
C11	C	0.836008	0.120530	0.000013
C12	C	0.743055	0.118898	0.000012
C13	C	0.405318	0.112896	0.000022
C14	C	0.428611	0.205703	0.000350
C15	C	0.525286	0.207467	0.000014
C16	C	0.572873	0.115874	0.000017
C17	C	0.543763	0.069479	-0.084246
C18	C	0.446973	0.068362	-0.084313
C19	C	0.447154	0.066459	0.083496
C20	C	0.543646	0.069898	0.084606
C21	C	0.667569	0.117552	0.000012
C22	C	0.310622	0.111215	0.000021
C23	C	0.995240	-0.038703	0.000019
C24	C	0.993608	-0.131655	0.000026
C25	C	0.987607	-0.469393	0.000018
C26	C	1.080413	-0.446100	-0.000310
C27	C	1.082177	-0.349424	0.000025
C28	C	0.990584	-0.301837	0.000021
C29	C	0.944204	-0.330933	0.084284
C30	C	0.943086	-0.427723	0.084352
C31	C	0.941155	-0.427572	-0.083457
C32	C	0.944594	-0.331080	-0.084568
C33	C	0.992263	-0.207141	0.000026
C34	C	0.985926	-0.564088	0.000019
C35	C	1.142183	0.108240	0.000020
C36	C	1.235136	0.109873	0.000027
C37	C	0.982951	0.267473	0.000014
C38	C	0.984583	0.360426	0.000013
N39	N	0.989052	0.114396	-0.229885
C40	C	0.989115	0.114377	-0.589087
C41	C	0.920082	0.182948	-0.551482
C42	C	0.920240	0.183198	-0.448656
C43	C	0.989083	0.114386	-0.410883
C44	C	1.076446	0.133450	-0.448173
C45	C	1.076059	0.133938	-0.551030
C46	C	0.971563	0.026539	-0.551186
C47	C	0.969558	0.027125	-0.448323
C48	C	0.989070	0.114390	-0.310169
C49	C	0.989133	0.114375	-0.689800
N50	N	0.989146	0.114368	0.229916
H51	H	0.575645	0.002079	-0.087377
C52	C	0.853156	-0.287860	0.088524
H53	H	0.842597	-0.251660	0.038825
H54	H	0.815208	-0.329423	0.087740
H55	H	0.845500	-0.255906	0.141620
C56	C	0.550992	0.256642	0.081547
H57	H	0.610242	0.257814	0.081434
H58	H	0.523736	0.312558	0.079375
H59	H	0.534862	0.229909	0.134121
C60	C	0.987673	-0.303746	0.169004
H61	H	1.034089	-0.274686	0.153204
H62	H	0.948713	-0.267673	0.203012
H63	H	1.007031	-0.352083	0.203055
H64	H	1.021905	-0.024489	-0.575503
H65	H	0.909242	0.008203	-0.577177
C66	C	0.389389	0.253771	-0.080824
H67	H	0.403765	0.309784	-0.080113
H68	H	0.410273	0.226432	-0.133595
H69	H	0.329922	0.254763	-0.078832
H70	H	1.016573	-0.026291	-0.422613
H71	H	0.418834	0.095464	0.147363
C72	C	0.427324	-0.023556	-0.089493
H73	H	0.368092	-0.024860	-0.089566
H74	H	0.450572	-0.048645	-0.142439
H75	H	0.451179	-0.053865	-0.039661
H76	H	0.931446	0.248382	-0.424042
H77	H	0.872842	-0.441548	-0.084028
H78	H	1.129032	0.085962	-0.575904
C79	C	0.390789	0.254033	0.081975
H80	H	0.360448	0.218049	0.116585
H81	H	0.434751	0.272504	0.116674
H82	H	0.353813	0.301359	0.063020
C83	C	0.935010	0.270512	-0.586378
H84	H	0.983132	0.265463	-0.623763
H85	H	0.887207	0.293835	-0.619126
H86	H	0.943919	0.306255	-0.537767
C87	C	0.588242	-0.020397	0.091526
H88	H	0.569407	-0.046632	0.143211
H89	H	0.575528	-0.051563	0.040586
H90	H	0.647324	-0.018696	0.095073
C91	C	1.131577	-0.324565	0.081763
H92	H	1.132835	-0.265329	0.082242
H93	H	1.104919	-0.341157	0.134182
H94	H	1.187467	-0.351867	0.079281
H95	H	1.116000	-0.475128	0.059781
C96	C	0.570821	0.113013	-0.168966
H97	H	0.599850	0.159455	-0.153166
H98	H	0.606881	0.074115	-0.203059
H99	H	0.522416	0.132345	-0.202932
C100	C	0.980410	-0.465744	-0.169739
H101	H	1.025501	-0.507548	-0.155657
H102	H	0.938937	-0.490496	-0.202644
H103	H	1.001029	-0.422735	-0.204137
H104	H	0.562222	0.103678	0.146943
C105	C	0.428267	-0.025822	0.084276
H106	H	0.395051	-0.036034	0.034008
H107	H	0.479620	-0.062008	0.082428
H108	H	0.398456	-0.036346	0.136870
H109	H	0.855301	0.171843	-0.423446
H110	H	0.543669	0.244027	-0.060494
H111	H	0.420135	0.100499	-0.147304
H112	H	1.118503	-0.330404	-0.060376
C113	C	1.128723	-0.483918	-0.081947
H114	H	1.092732	-0.514260	-0.116561
H115	H	1.147179	-0.439951	-0.116636
H116	H	1.176058	-0.520891	-0.063009
H117	H	0.975234	-0.454549	0.147343
C118	C	0.851169	-0.447366	0.089540
H119	H	0.814675	-0.396211	0.091603
H120	H	0.838435	-0.478704	0.038732
H121	H	0.843688	-0.479289	0.141509
C122	C	0.990207	-0.305998	-0.168783
H123	H	1.037081	-0.277818	-0.152470
H124	H	1.009125	-0.355066	-0.201872
H125	H	0.952554	-0.269616	-0.203954
H126	H	0.877739	-0.298096	-0.089660
H127	H	1.091529	0.197997	-0.575012
C128	C	0.832070	0.167873	-0.584942
H129	H	0.836633	0.119629	-0.622150
H130	H	0.796984	0.159129	-0.535746
H131	H	0.808300	0.215561	-0.617594
C132	C	1.147503	0.067784	-0.415112
H133	H	1.124465	0.028065	-0.378182
H134	H	1.174733	0.039588	-0.464485
H135	H	1.187141	0.095190	-0.382255
C136	C	1.097845	0.219003	-0.413371
H137	H	1.053658	0.243213	-0.376127
H138	H	1.148808	0.211102	-0.380494
H139	H	1.104254	0.255485	-0.462030
H140	H	0.905293	0.012657	-0.423952
