data_functionalizedCrystal
_audit_creation_method	'MofGen! by Chris Wilmer'
_symmetry_space_group_name_H-M	'P1'
_symmetry_Int_Tables_number	1
_symmetry_cell_setting	triclinic
loop_
_symmetry_equiv_pos_as_xyz
  x,y,z
_cell_length_a	14.853567
_cell_length_b	16.992695
_cell_length_c	16.053802
_cell_angle_alpha	87.258926
_cell_angle_beta	92.581881
_cell_angle_gamma	87.151577
loop_
_atom_site_label
_atom_site_type_symbol
_atom_site_fract_x
_atom_site_fract_y
_atom_site_fract_z
O1	O	-1.207156	-0.099085	-0.069372
O2	O	-0.707156	0.400915	0.430628
O3	O	-0.945559	-0.111280	-0.069386
O4	O	-0.445559	0.388720	0.430614
O5	O	-1.075308	0.008961	-0.069373
O6	O	-0.575308	0.508961	0.430627
O7	O	-1.077407	-0.219326	-0.069386
O8	O	-0.577407	0.280674	0.430614
O9	O	-1.068165	0.002370	0.069485
O10	O	-0.568165	0.502370	0.569485
O11	O	-0.938415	-0.117871	0.069472
O12	O	-0.438415	0.382129	0.569472
O13	O	-1.200013	-0.105676	0.069486
O14	O	-0.700013	0.394324	0.569486
Zn15	Zn	-1.068080	-0.112820	0.091526
Zn16	Zn	-0.568080	0.387180	0.591526
Zn17	Zn	-1.077492	-0.104136	-0.091426
Zn18	Zn	-0.577492	0.395864	0.408574
O19	O	-1.070263	-0.225917	0.069472
O20	O	-0.570263	0.274083	0.569472
C21	C	-0.908359	-0.114023	0.000041
C22	C	-0.408359	0.385977	0.500041
C23	C	-0.808159	-0.112366	0.000036
C24	C	-0.308159	0.387634	0.500036
C25	C	-1.069038	0.034881	0.000056
C26	C	-0.569038	0.534881	0.500056
C27	C	-1.060988	0.121934	0.000055
C28	C	-0.560988	0.621934	0.500055
C29	C	-1.237212	-0.102933	0.000057
C30	C	-0.737212	0.397067	0.500057
C31	C	-1.337413	-0.104589	0.000057
C32	C	-0.837413	0.395411	0.500057
C33	C	-0.390086	-0.033941	0.000059
C34	C	0.109914	0.466059	0.500059
C35	C	-0.378892	-0.176791	0.000050
C36	C	0.121108	0.323209	0.500050
C37	C	-0.473036	-0.178348	0.000047
C38	C	0.026964	0.321652	0.500047
C39	C	-0.525709	-0.107700	0.000049
C40	C	-0.025709	0.392300	0.500049
C41	C	-0.484239	-0.035496	0.000053
C42	C	0.015761	0.464504	0.500053
C43	C	-0.514514	-0.250550	0.000034
C44	C	-0.014514	0.249450	0.500034
C45	C	-0.608663	-0.252110	0.000030
C46	C	-0.108663	0.247890	0.500030
C47	C	-0.661338	-0.181462	0.000038
C48	C	-0.161338	0.318538	0.500038
C49	C	-0.619862	-0.109255	0.000044
C50	C	-0.119862	0.390745	0.500044
C51	C	-0.672536	-0.038607	0.000045
C52	C	-0.172536	0.461393	0.500045
C53	C	-0.631061	0.033600	0.000057
C54	C	-0.131061	0.533600	0.500057
C55	C	-0.536914	0.035152	0.000061
C56	C	-0.036914	0.535152	0.500061
C57	C	-0.755485	-0.183014	0.000034
C58	C	-0.255485	0.316986	0.500034
C59	C	-0.766689	-0.040162	0.000040
C60	C	-0.266689	0.459838	0.500040
C61	C	-1.076533	-0.251837	0.000042
C62	C	-0.576533	0.248163	0.500042
C63	C	-1.084584	-0.338889	0.000037
C64	C	-0.584584	0.161111	0.500037
N65	N	-1.061662	-0.118746	0.216385
N66	N	-0.561662	0.381254	0.716385
C67	C	-1.138663	0.172090	0.000061
C68	C	-0.638663	0.672090	0.500061
C69	C	-1.131094	0.253885	0.000052
C70	C	-0.631094	0.753885	0.500052
C71	C	-1.045849	0.285523	0.000045
C72	C	-0.545849	0.785523	0.500045
C73	C	-0.968168	0.235361	0.000037
C74	C	-0.468168	0.735361	0.500037
C75	C	-0.975738	0.153568	0.000039
C76	C	-0.475738	0.653568	0.500039
C77	C	-1.014473	0.529155	0.000032
C78	C	-0.514473	1.029155	0.500032
C79	C	-1.006908	0.610955	0.000032
C80	C	-0.506908	1.110955	0.500032
C81	C	-1.169836	0.629474	0.000045
C82	C	-0.669836	1.129474	0.500045
C83	C	-1.177398	0.547678	0.000053
C84	C	-0.677398	1.047678	0.500053
C85	C	-1.099717	0.497523	0.000041
C86	C	-0.599717	0.997523	0.500041
N87	N	-1.038110	0.369130	0.000039
N88	N	-0.538110	0.869130	0.500039
N89	N	-1.107458	0.413918	0.000041
N90	N	-0.607458	0.913918	0.500041
N91	N	-1.083915	-0.098203	-0.216286
N92	N	-0.583915	0.401797	0.283714
C93	C	-1.116894	-0.067601	0.260085
C94	C	-0.616894	0.432399	0.760085
C95	C	-1.112414	-0.071754	0.347491
C96	C	-0.612414	0.428246	0.847491
C97	C	-1.052707	-0.127056	0.391196
C98	C	-0.552707	0.372944	0.891196
C99	C	-0.997469	-0.178203	0.347490
C100	C	-0.497469	0.321797	0.847490
C101	C	-1.001945	-0.174045	0.260086
C102	C	-0.501945	0.325955	0.760086
C103	C	-1.033154	-0.145193	0.652604
C104	C	-0.533154	0.354807	1.152604
C105	C	-1.028684	-0.149348	0.740015
C106	C	-0.528684	0.350652	1.240015
C107	C	-1.143628	-0.042898	0.740010
C108	C	-0.643628	0.457102	1.240010
C109	C	-1.148103	-0.038749	0.652603
C110	C	-0.648103	0.461251	1.152603
C111	C	-1.092862	-0.089893	0.608905
C112	C	-0.592862	0.410107	1.108905
N113	N	-1.048128	-0.131304	0.480539
N114	N	-0.548128	0.368696	0.980539
N115	N	-1.097436	-0.085640	0.519563
N116	N	-0.597436	0.414360	1.019563
H117	H	-0.809569	0.017369	0.000045
H118	H	-0.309569	0.517369	0.500045
Cl119	Cl	-0.312674	-0.265599	0.000036
Cl120	Cl	0.187326	0.234401	0.500036
H121	H	-0.898759	0.261127	0.000026
H122	H	-0.398759	0.761127	0.500026
Cl123	Cl	-1.191964	0.001921	0.205151
Cl124	Cl	-0.691964	0.501921	0.705151
Cl125	Cl	-0.697291	0.122411	0.000053
Cl126	Cl	-0.197291	0.622411	0.500053
H127	H	-0.471621	-0.308067	0.000024
H128	H	0.028379	0.191933	0.500024
H129	H	-1.194346	0.294719	0.000058
H130	H	-0.694346	0.794719	0.500058
H131	H	-0.503136	0.093939	0.000091
H132	H	-0.003136	0.593939	0.500091
H133	H	-0.937487	0.636710	0.000039
H134	H	-0.437487	1.136710	0.500039
Cl135	Cl	-0.953617	-0.218878	0.794952
Cl136	Cl	-0.453617	0.281122	1.294952
Cl137	Cl	-1.284570	0.507912	0.000035
Cl138	Cl	-0.784570	1.007912	0.500035
Cl139	Cl	-1.213066	0.021397	0.794948
Cl140	Cl	-0.713066	0.521397	1.294948
H141	H	-1.157387	-0.030108	0.383071
H142	H	-0.657387	0.469892	0.883071
Cl143	Cl	-0.916816	0.466115	0.000014
Cl144	Cl	-0.416816	0.966115	0.500014
Cl145	Cl	-1.245834	0.132325	0.000079
Cl146	Cl	-0.745834	0.632325	0.500079
Cl147	Cl	-0.337950	0.056829	0.000077
Cl148	Cl	0.162050	0.556829	0.500077
Cl149	Cl	-0.878085	0.090514	0.000030
Cl150	Cl	-0.378085	0.590514	0.500030
H151	H	-1.196721	0.006282	0.617020
H152	H	-0.696721	0.506282	1.117020
H153	H	-0.988176	-0.186838	0.617031
H154	H	-0.488176	0.313162	1.117031
Cl155	Cl	-0.922403	-0.247722	0.402432
Cl156	Cl	-0.422403	0.252278	0.902432
Cl157	Cl	-0.932504	-0.238342	0.205150
Cl158	Cl	-0.432504	0.261658	0.705150
H159	H	-0.789250	-0.241804	0.000026
H160	H	-0.289250	0.258196	0.500026
Cl161	Cl	-0.660794	-0.342883	0.000018
Cl162	Cl	-0.160794	0.157117	0.500018
H163	H	-1.233078	0.670318	0.000054
H164	H	-0.733078	1.170318	0.500054
