data_functionalizedCrystal
_audit_creation_method	'MofGen! by Chris Wilmer'
_symmetry_space_group_name_H-M	'P1'
_symmetry_Int_Tables_number	1
_symmetry_cell_setting	triclinic
loop_
_symmetry_equiv_pos_as_xyz
  x,y,z
_cell_length_a	14.519709
_cell_length_b	12.837943
_cell_length_c	11.892095
_cell_angle_alpha	85.689438
_cell_angle_beta	86.104571
_cell_angle_gamma	90.745458
loop_
_atom_site_label
_atom_site_type_symbol
_atom_site_fract_x
_atom_site_fract_y
_atom_site_fract_z
O1	O	0.234472	-1.382515	0.093988
O2	O	0.222627	-1.080688	0.093995
O3	O	0.095003	-1.239604	0.093981
O4	O	0.362096	-1.223600	0.094002
O5	O	0.105626	-1.226354	-0.094025
O6	O	0.233250	-1.067438	-0.094012
O7	O	0.245095	-1.369265	-0.094018
Zn8	Zn	0.240859	-1.216248	-0.123865
Zn9	Zn	0.226863	-1.233706	0.123842
O10	O	0.372719	-1.210350	-0.094005
C11	C	0.223937	-1.035435	-0.000008
C12	C	0.212002	-0.920336	-0.000006
C13	C	0.065890	-1.232233	-0.000022
C14	C	-0.036684	-1.229998	-0.000023
C15	C	0.243785	-1.414519	-0.000013
C16	C	0.255719	-1.529618	-0.000008
C17	C	-0.412293	-1.221771	0.000007
C18	C	-0.307787	-1.224055	-0.000002
C19	C	-0.224492	-1.225884	-0.000009
C20	C	-0.119979	-1.228169	-0.000016
C21	C	0.401831	-1.217721	0.000001
C22	C	0.504405	-1.219957	0.000009
N23	N	0.250411	-1.204341	-0.292918
C24	C	0.355473	-0.679644	-0.000011
C25	C	0.344264	-0.571497	-0.000010
C26	C	0.178377	-0.595894	-0.000010
C27	C	0.189586	-0.704041	-0.000012
C28	C	0.278137	-0.745911	-0.000010
C29	C	0.289344	-0.854060	-0.000003
C30	C	0.123458	-0.878455	-0.000012
C31	C	0.112249	-0.770308	-0.000011
C32	C	0.150784	-1.328473	-0.529576
C33	C	0.157468	-1.320158	-0.647918
C34	C	0.270458	-1.179391	-0.647944
C35	C	0.263774	-1.187707	-0.529603
C36	C	0.203936	-1.262251	-0.470423
C37	C	0.197257	-1.270570	-0.352080
C38	C	0.310242	-1.129800	-0.352108
C39	C	0.316926	-1.121484	-0.470449
N40	N	0.217304	-1.245621	0.292895
H41	H	0.361447	-0.888149	-0.000004
H42	H	0.427575	-0.713735	-0.000008
H43	H	0.407240	-0.517545	-0.000013
H44	H	0.106288	-0.561777	-0.000105
H45	H	0.060485	-0.932423	-0.000004
H46	H	0.040154	-0.736201	-0.000025
C47	C	0.086235	-1.408866	-0.363945
C48	C	0.131481	-1.352503	-0.287026
H49	H	0.045621	-1.459442	-0.323783
H50	H	0.130529	-1.442989	-0.410088
H51	H	0.051856	-1.362390	-0.410117
H52	H	0.165865	-1.398979	-0.240860
H53	H	0.087180	-1.318379	-0.240864
H54	H	0.102068	-1.389177	-0.481392
H55	H	0.319170	-1.118692	-0.696143
C56	C	0.045113	-1.460134	-0.636000
C57	C	0.099043	-1.392953	-0.712940
H58	H	0.009046	-1.505078	-0.676145
H59	H	0.005519	-1.420158	-0.589856
H60	H	0.084205	-1.500741	-0.589830
H61	H	0.059951	-1.352340	-0.759104
H62	H	0.138642	-1.432933	-0.759103
C63	C	0.377347	-1.046238	-0.651871
C64	C	0.382702	-1.039553	-0.535506
H65	H	0.417962	-0.995661	-0.692029
H66	H	0.315896	-1.033492	-0.671263
H67	H	0.394567	-1.114092	-0.671237
H68	H	0.365474	-0.971701	-0.516138
H69	H	0.444166	-1.052291	-0.516105
C70	C	0.426278	-1.116893	-0.219035
C71	C	0.368677	-1.057005	-0.287086
H72	H	0.462352	-1.071955	-0.178891
H73	H	0.465866	-1.156859	-0.265197
H74	H	0.389676	-1.162468	-0.166852
H75	H	0.405280	-1.011434	-0.339275
H76	H	0.329085	-1.017021	-0.240920
