data_functionalizedCrystal
_audit_creation_method	'MofGen! by Chris Wilmer'
_symmetry_space_group_name_H-M	'P1'
_symmetry_Int_Tables_number	1
_symmetry_cell_setting	triclinic
loop_
_symmetry_equiv_pos_as_xyz
  x,y,z
_cell_length_a	16.625539
_cell_length_b	16.959455
_cell_length_c	16.959454
_cell_angle_alpha	89.981743
_cell_angle_beta	89.975083
_cell_angle_gamma	90.024184
loop_
_atom_site_label
_atom_site_type_symbol
_atom_site_fract_x
_atom_site_fract_y
_atom_site_fract_z
Zn1	Zn	-0.456006	-1.208424	-0.314718
Zn2	Zn	-0.122673	-0.875091	0.018615
Zn3	Zn	0.210661	-0.541757	0.351948
Zn4	Zn	-0.321181	-1.208335	-0.446907
Zn5	Zn	0.012152	-0.875001	-0.113573
Zn6	Zn	0.345485	-0.541668	0.219760
Zn7	Zn	-0.321178	-1.076240	-0.314742
Zn8	Zn	0.012155	-0.742907	0.018591
Zn9	Zn	0.345489	-0.409574	0.351925
Zn10	Zn	-0.455963	-1.076217	-0.446855
Zn11	Zn	-0.122629	-0.742884	-0.113521
Zn12	Zn	0.210704	-0.409550	0.219812
O13	O	-0.388582	-1.142304	-0.380805
O14	O	-0.055249	-0.808971	-0.047472
O15	O	0.278085	-0.475637	0.285861
O16	O	-0.438141	-1.319023	-0.332265
O17	O	-0.104807	-0.985690	0.001068
O18	O	0.228526	-0.652356	0.334401
O19	O	-0.208348	-1.190784	-0.429406
O20	O	0.124985	-0.857451	-0.096073
O21	O	0.458318	-0.524118	0.237260
O22	O	-0.339080	-1.093822	-0.204128
O23	O	-0.005747	-0.760489	0.129205
O24	O	0.327586	-0.427155	0.462539
O25	O	-0.339086	-1.318957	-0.429384
O26	O	-0.005752	-0.985624	-0.096050
O27	O	0.327581	-0.652291	0.237283
O28	O	-0.438138	-1.190937	-0.204111
O29	O	-0.104804	-0.857603	0.129223
O30	O	0.228529	-0.524270	0.462556
O31	O	-0.208346	-1.093735	-0.332305
O32	O	0.124987	-0.760402	0.001028
O33	O	0.458321	-0.427069	0.334361
O34	O	-0.339038	-0.965627	-0.332255
O35	O	-0.005705	-0.632293	0.001078
O36	O	0.327629	-0.298960	0.334412
O37	O	-0.568801	-1.093782	-0.429295
O38	O	-0.235468	-0.760449	-0.095962
O39	O	0.097866	-0.427115	0.237372
O40	O	-0.438064	-0.965609	-0.429318
O41	O	-0.104730	-0.632276	-0.095984
O42	O	0.228603	-0.298943	0.237349
O43	O	-0.568833	-1.190914	-0.332215
O44	O	-0.235499	-0.857581	0.001118
O45	O	0.097834	-0.524247	0.334452
O46	O	-0.339043	-1.190762	-0.557511
O47	O	-0.005710	-0.857428	-0.224177
O48	O	0.327623	-0.524095	0.109156
O49	O	-0.438067	-1.093695	-0.557472
O50	O	-0.104733	-0.760362	-0.224139
O51	O	0.228600	-0.427029	0.109194
C52	C	-0.388546	-0.936938	-0.380784
C53	C	-0.055213	-0.603604	-0.047450
C54	C	0.278120	-0.270271	0.285883
C55	C	-0.388550	-0.849081	-0.380794
C56	C	-0.055217	-0.515748	-0.047460
C57	C	0.278117	-0.182414	0.285873
C58	C	-0.337073	-0.807793	-0.330185
C59	C	-0.003740	-0.474459	0.003149
C60	C	0.329594	-0.141126	0.336482
C61	C	-0.440036	-0.807816	-0.431407
C62	C	-0.106702	-0.474483	-0.098074
C63	C	0.226631	-0.141149	0.235260
C64	C	-0.440044	-0.725270	-0.431415
C65	C	-0.106711	-0.391937	-0.098082
C66	C	0.226622	-0.058604	0.235252
C67	C	-0.388567	-0.683982	-0.380806
C68	C	-0.055234	-0.350648	-0.047473
C69	C	0.278100	-0.017315	0.285860
C70	C	-0.337081	-0.725239	-0.330190
C71	C	-0.003748	-0.391906	0.003144
C72	C	0.329585	-0.058572	0.336477
C73	C	-0.491535	-0.684007	-0.482025
C74	C	-0.158201	-0.350673	-0.148692
C75	C	0.175132	-0.017340	0.184641
C76	C	-0.491546	-0.601456	-0.482035
C77	C	-0.158212	-0.268122	-0.148701
C78	C	0.175121	0.065211	0.184632
C79	C	-0.440064	-0.560166	-0.431429
C80	C	-0.106731	-0.226832	-0.098096
C81	C	0.226603	0.106501	0.235237
C82	C	-0.388576	-0.601428	-0.380811
C83	C	-0.055242	-0.268095	-0.047478
C84	C	0.278091	0.065238	0.285856
C85	C	-0.337098	-0.560140	-0.330202
C86	C	-0.003765	-0.226806	0.003131
C87	C	0.329568	0.106527	0.336464
C88	C	-0.285605	-0.601401	-0.279588
C89	C	0.047728	-0.268067	0.053746
C90	C	0.381061	0.065266	0.387079
C91	C	-0.285600	-0.683949	-0.279584
C92	C	0.047734	-0.350616	0.053749
C93	C	0.381067	-0.017282	0.387083
C94	C	-0.440070	-0.477617	-0.431433
C95	C	-0.106736	-0.144284	-0.098099
C96	C	0.226597	0.189049	0.235234
C97	C	-0.337107	-0.477586	-0.330207
C98	C	-0.003774	-0.144253	0.003126
C99	C	0.329560	0.189081	0.336460
C100	C	-0.598891	-1.142355	-0.380747
C101	C	-0.265558	-0.809022	-0.047413
C102	C	0.067776	-0.475689	0.285920
C103	C	-0.688512	-1.142377	-0.380721
C104	C	-0.355179	-0.809044	-0.047388
C105	C	-0.021846	-0.475711	0.285945
C106	C	-1.016688	-1.142414	-0.380633
C107	C	-0.683355	-0.809080	-0.047300
C108	C	-0.350021	-0.475747	0.286034
C109	C	-0.925380	-1.142401	-0.380660
C110	C	-0.592046	-0.809068	-0.047327
C111	C	-0.258713	-0.475735	0.286007
C112	C	-0.852603	-1.142396	-0.380678
C113	C	-0.519270	-0.809063	-0.047344
C114	C	-0.185936	-0.475729	0.285989
C115	C	-0.761289	-1.142383	-0.380704
C116	C	-0.427955	-0.809049	-0.047370
C117	C	-0.094622	-0.475716	0.285963
C118	C	-0.179091	-1.142298	-0.380807
C119	C	0.154242	-0.808965	-0.047474
C120	C	0.487575	-0.475632	0.285860
C121	C	-0.089471	-1.142430	-0.380609
C122	C	0.243863	-0.809096	-0.047276
C123	C	0.577196	-0.475763	0.286057
C124	C	-0.388568	-1.142238	-0.586172
C125	C	-0.055235	-0.808904	-0.252838
C126	C	0.278098	-0.475571	0.080495
C127	C	-0.388589	-1.142282	-0.674028
C128	C	-0.055256	-0.808948	-0.340695
C129	C	0.278077	-0.475615	-0.007362
C130	C	-0.388608	-0.348472	-0.380824
C131	C	-0.055275	-0.015139	-0.047491
C132	C	0.278059	0.318194	0.285842
C133	C	-0.388593	-0.436329	-0.380824
C134	C	-0.055259	-0.102995	-0.047491
C135	C	0.278074	0.230338	0.285843
C136	C	-0.440138	-1.091835	-1.045514
C137	C	-0.106805	-0.758502	-0.712181
C138	C	0.226529	-0.425168	-0.378847
C139	C	-0.337108	-1.192993	-1.045494
C140	C	-0.003775	-0.859660	-0.712160
C141	C	0.329558	-0.526327	-0.378827
C142	C	-0.337101	-1.192966	-0.962948
C143	C	-0.003767	-0.859632	-0.629615
C144	C	0.329566	-0.526299	-0.296281
C145	C	-0.388612	-1.142371	-0.921681
C146	C	-0.055279	-0.809038	-0.588348
C147	C	0.278055	-0.475704	-0.255015
C148	C	-0.440130	-1.091804	-0.962960
C149	C	-0.106797	-0.758471	-0.629627
C150	C	0.226536	-0.425137	-0.296294
C151	C	-0.285578	-1.243526	-0.921663
C152	C	0.047756	-0.910193	-0.588329
C153	C	0.381089	-0.576859	-0.254996
C154	C	-0.285567	-1.243500	-0.839112
C155	C	0.047766	-0.910166	-0.505778
C156	C	0.381099	-0.576833	-0.172445
C157	C	-0.337083	-1.192909	-0.797843
C158	C	-0.003750	-0.859575	-0.464510
C159	C	0.329583	-0.526242	-0.131177
C160	C	-0.388604	-1.142340	-0.839128
C161	C	-0.055271	-0.809007	-0.505794
C162	C	0.278062	-0.475674	-0.172461
C163	C	-0.440115	-1.091746	-0.797861
C164	C	-0.106782	-0.758412	-0.464528
C165	C	0.226551	-0.425079	-0.131194
C166	C	-0.491641	-1.041181	-0.839144
C167	C	-0.158308	-0.707847	-0.505810
C168	C	0.175025	-0.374514	-0.172477
C169	C	-0.491646	-1.041213	-0.921692
C170	C	-0.158313	-0.707880	-0.588359
C171	C	0.175021	-0.374546	-0.255025
C172	C	-0.337078	-1.192876	-0.715295
C173	C	-0.003745	-0.859543	-0.381962
C174	C	0.329588	-0.526210	-0.048628
C175	C	-0.440108	-1.091715	-0.715307
C176	C	-0.106775	-0.758381	-0.381974
C177	C	0.226559	-0.425048	-0.048641
C178	C	-0.388613	-1.142392	-0.174637
C179	C	-0.055280	-0.809059	0.158696
C180	C	0.278053	-0.475725	0.492029
C181	C	-0.388627	-1.142430	-0.086781
C182	C	-0.055294	-0.809096	0.246553
C183	C	0.278040	-0.475763	0.579886
H184	H	-0.533473	-0.567868	-0.523249
H185	H	-0.200140	-0.234535	-0.189916
H186	H	0.133193	0.098799	0.143417
H187	H	-0.482091	-1.050668	-1.079130
H188	H	-0.148758	-0.717335	-0.745797
H189	H	0.184575	-0.384002	-0.412463
F190	F	-0.282289	-1.246836	-1.089415
F191	F	0.051044	-0.913502	-0.756081
F192	F	0.384377	-0.580169	-0.422748
H193	H	-0.533578	-0.999983	-0.805535
H194	H	-0.200245	-0.666649	-0.472202
H195	H	0.133088	-0.333316	-0.138868
H196	H	-0.481950	-0.841438	-0.472607
H197	H	-0.148616	-0.508105	-0.139274
H198	H	0.184717	-0.174771	0.194060
H199	H	-0.243634	-1.284711	-0.955268
H200	H	0.089699	-0.951378	-0.621935
H201	H	0.423033	-0.618045	-0.288601
H202	H	-0.243613	-1.284673	-0.805504
H203	H	0.089720	-0.951339	-0.472171
H204	H	0.423053	-0.618006	-0.138838
H205	H	-0.295186	-0.443975	-0.288996
H206	H	0.038147	-0.110642	0.044338
H207	H	0.371480	0.222692	0.377671
F208	F	-0.230827	-0.557449	-0.225723
F209	F	0.102506	-0.224116	0.107611
F210	F	0.435840	0.109218	0.440944
H211	H	-0.533447	-0.717630	-0.523226
H212	H	-0.200114	-0.384296	-0.189892
H213	H	0.133220	-0.050963	0.143441
F214	F	-0.546478	-0.987402	-0.965633
F215	F	-0.213144	-0.654069	-0.632300
F216	F	0.120189	-0.320736	-0.298967
F217	F	-0.282237	-1.246680	-0.671363
F218	F	0.051096	-0.913346	-0.338029
F219	F	0.384429	-0.580013	-0.004696
H220	H	-0.482000	-0.444026	-0.472637
H221	H	-0.148666	-0.110693	-0.139304
H222	H	0.184667	0.222640	0.194029
H223	H	-0.243677	-0.717551	-0.238376
H224	H	0.089656	-0.384218	0.094958
H225	H	0.422989	-0.050885	0.428291
H226	H	-0.295146	-0.841391	-0.288978
H227	H	0.038187	-0.508058	0.044356
H228	H	0.371520	-0.174724	0.377689
F229	F	-0.494938	-1.037868	-0.671395
F230	F	-0.161605	-0.704535	-0.338061
F231	F	0.171728	-0.371201	-0.004728
