data_functionalizedCrystal
_audit_creation_method	'MofGen! by Chris Wilmer'
_symmetry_space_group_name_H-M	'P1'
_symmetry_Int_Tables_number	1
_symmetry_cell_setting	triclinic
loop_
_symmetry_equiv_pos_as_xyz
  x,y,z
_cell_length_a	12.645331
_cell_length_b	12.645330
_cell_length_c	13.032268
_cell_angle_alpha	97.151313
_cell_angle_beta	97.166696
_cell_angle_gamma	90.018103
loop_
_atom_site_label
_atom_site_type_symbol
_atom_site_fract_x
_atom_site_fract_y
_atom_site_fract_z
Zn1	Zn	1.544561	-0.498099	-0.590770
Zn2	Zn	2.044561	0.001901	-0.090770
Zn3	Zn	1.566972	-0.652885	-0.416038
Zn4	Zn	2.066972	-0.152885	0.083962
Zn5	Zn	1.389802	-0.475640	-0.416056
Zn6	Zn	1.889802	0.024360	0.083944
Zn7	Zn	1.367261	-0.675318	-0.590741
Zn8	Zn	1.867261	-0.175318	-0.090741
O9	O	1.467149	-0.575486	-0.503401
O10	O	1.967149	-0.075486	-0.003401
O11	O	1.695881	-0.518643	-0.567596
O12	O	2.195881	-0.018643	-0.067596
O13	O	1.562282	-0.610585	-0.269807
O14	O	2.062282	-0.110585	0.230193
O15	O	1.410386	-0.330274	-0.439252
O16	O	1.910386	0.169726	0.060748
O17	O	1.712345	-0.632363	-0.439221
O18	O	2.212345	-0.132363	0.060779
O19	O	1.524087	-0.346775	-0.567614
O20	O	2.024087	0.153225	-0.067614
O21	O	1.432117	-0.480364	-0.269821
O22	O	1.932117	0.019636	0.230179
O23	O	1.238465	-0.502117	-0.439224
O24	O	1.738465	-0.002117	0.060776
O25	O	1.371968	-0.670598	-0.736977
O26	O	1.871968	-0.170598	-0.236977
O27	O	1.221905	-0.648820	-0.567564
O28	O	1.721905	-0.148820	-0.067564
O29	O	1.502229	-0.540396	-0.736999
O30	O	2.002229	-0.040396	-0.236999
O31	O	1.540425	-0.804205	-0.439192
O32	O	2.040425	-0.304205	0.060808
O33	O	1.393699	-0.820687	-0.567546
O34	O	1.893699	-0.320687	-0.067546
C35	C	1.191720	-0.575466	-0.503393
C36	C	1.691720	-0.075466	-0.003393
C37	C	1.073888	-0.575487	-0.503414
C38	C	1.573888	-0.075487	-0.003414
C39	C	1.018638	-0.667902	-0.584035
C40	C	1.518638	-0.167902	-0.084035
C41	C	0.896109	-0.668208	-0.583796
C42	C	1.396109	-0.168208	-0.083796
C43	C	0.920150	-0.591126	-0.393152
C44	C	1.420150	-0.091126	0.106848
C45	C	1.042688	-0.591765	-0.393619
C46	C	1.542688	-0.091765	0.106381
C47	C	1.025044	-0.467134	-0.532092
C48	C	1.525044	0.032866	-0.032092
C49	C	0.902126	-0.468066	-0.534520
C50	C	1.402126	0.031934	-0.034520
C51	C	1.467074	-0.850913	-0.503387
C52	C	1.967074	-0.350913	-0.003387
C53	C	1.467134	-0.968747	-0.503415
C54	C	1.967134	-0.468747	-0.003415
C55	C	1.375134	-1.146756	-0.584411
C56	C	1.875134	-0.646756	-0.084411
C57	C	1.374750	-1.024163	-0.584151
C58	C	1.874750	-0.524163	-0.084151
C59	C	1.451088	-0.999159	-0.393288
C60	C	1.951088	-0.499159	0.106712
C61	C	1.450526	-1.121821	-0.393780
C62	C	1.950526	-0.621821	0.106220
C63	C	1.575794	-1.139472	-0.531653
C64	C	2.075794	-0.639472	-0.031653
C65	C	1.574796	-1.017175	-0.534061
C66	C	2.074796	-0.517175	-0.034061
C67	C	1.743653	-0.575506	-0.503410
C68	C	2.243653	-0.075506	-0.003410
C69	C	1.861483	-0.575514	-0.503414
C70	C	2.361483	-0.075514	-0.003414
C71	C	1.432085	-0.610504	-0.775965
C72	C	1.932085	-0.110504	-0.275965
C73	C	1.417142	-0.625427	-0.892115
C74	C	1.917142	-0.125427	-0.392115
C75	C	1.467251	-0.298985	-0.503439
C76	C	1.967251	0.201015	-0.003439
C77	C	1.467294	-0.181157	-0.503455
C78	C	1.967294	0.318843	-0.003455
C79	C	1.474931	-0.567659	-0.943909
C80	C	1.974931	-0.067659	-0.443909
C81	C	1.459489	-0.583081	-1.063957
C82	C	1.959489	-0.083081	-0.563957
C83	C	1.502138	-0.540526	-0.231898
C84	C	2.002138	-0.040526	0.268102
C85	C	1.517286	-0.525305	-0.115748
C86	C	2.017286	-0.025305	0.384252
H87	H	1.037584	-0.660080	-0.666033
H88	H	1.537584	-0.160080	-0.166033
H89	H	1.045807	-0.450075	-0.611139
H90	H	1.545807	0.049925	-0.111139
H91	H	1.051839	-0.748036	-0.565240
H92	H	1.551839	-0.248036	-0.065240
O93	O	0.883656	-0.694205	-0.360483
O94	O	1.383656	-0.194205	0.139517
H95	H	0.902114	-0.761885	-0.417950
H96	H	1.402114	-0.261885	0.082050
H97	H	1.398570	-0.643954	-1.108484
H98	H	1.898570	-0.143954	-0.608484
H99	H	1.294027	-0.992523	-0.565470
H100	H	1.794027	-0.492523	-0.065470
H101	H	0.862615	-0.456027	-0.615666
H102	H	1.362615	0.043973	-0.115666
O103	O	1.268846	-1.184534	-0.559994
O104	O	1.768846	-0.684534	-0.059994
H105	H	1.217431	-1.114805	-0.544014
H106	H	1.717431	-0.614805	-0.044014
O107	O	0.860457	-0.774938	-0.558570
O108	O	1.360457	-0.274938	-0.058570
H109	H	0.930768	-0.826532	-0.546486
H110	H	1.430768	-0.326532	-0.046486
H111	H	1.578192	-0.464419	-1.071222
H112	H	2.078192	0.035581	-0.571222
H113	H	0.898965	-0.525262	-0.331434
H114	H	1.398965	-0.025262	0.168566
O115	O	1.669036	-0.967251	-0.461644
O116	O	2.169036	-0.467251	0.038356
H117	H	1.743666	-1.003211	-0.485465
H118	H	2.243666	-0.503211	0.014535
H119	H	1.644282	-1.160866	-0.472688
H120	H	2.144282	-0.660866	0.027312
O121	O	1.555622	-0.487025	-0.884938
O122	O	2.055622	0.012975	-0.384938
H123	H	1.555097	-0.487574	-0.799902
H124	H	2.055097	0.012426	-0.299902
H125	H	1.356228	-0.686295	-0.936647
H126	H	1.856228	-0.186295	-0.436647
O127	O	1.073525	-0.376161	-0.454345
O128	O	1.573525	0.123839	0.045655
H129	H	1.038644	-0.299952	-0.475119
H130	H	1.538644	0.200048	0.024881
O131	O	0.842327	-0.657510	-0.692068
O132	O	1.342327	-0.157510	-0.192068
H133	H	0.903802	-0.652076	-0.745073
H134	H	1.403802	-0.152076	-0.245073
O135	O	1.084678	-0.696101	-0.361522
O136	O	1.584678	-0.196101	0.138478
H137	H	1.017442	-0.745628	-0.345819
H138	H	1.517442	-0.245628	0.154181
O139	O	1.346025	-1.155767	-0.362147
O140	O	1.846025	-0.655767	0.137853
H141	H	1.296364	-1.084592	-0.346649
H142	H	1.796364	-0.584592	0.153351
H143	H	0.878514	-0.396718	-0.480127
H144	H	1.378514	0.103282	0.019873
H145	H	1.383145	-1.004525	-0.665810
H146	H	1.883145	-0.504525	-0.165810
O147	O	1.092619	-0.505436	-0.311300
O148	O	1.592619	-0.005436	0.188700
H149	H	1.029217	-0.463422	-0.271328
H150	H	1.529217	0.036578	0.228672
H151	H	1.515508	-1.143445	-0.331404
H152	H	2.015508	-0.643445	0.168596
O153	O	1.385920	-1.200196	-0.692766
O154	O	1.885920	-0.700196	-0.192766
H155	H	1.463553	-1.176984	-0.715522
H156	H	1.963553	-0.676984	-0.215522
O157	O	1.538005	-0.949966	-0.311194
O158	O	2.038005	-0.449966	0.188806
H159	H	1.593692	-0.903202	-0.348102
H160	H	2.093692	-0.403202	0.151898
O161	O	1.347790	-0.954470	-0.361071
O162	O	1.847790	-0.454470	0.138929
H163	H	1.337341	-0.976498	-0.283084
H164	H	1.837341	-0.476498	0.216916
H165	H	1.593206	-1.180481	-0.610592
H166	H	2.093206	-0.680481	-0.110592
H167	H	1.587155	-0.998462	-0.615108
H168	H	2.087155	-0.498462	-0.115108
