data_functionalizedCrystal
_audit_creation_method	'MofGen! by Chris Wilmer'
_symmetry_space_group_name_H-M	'P1'
_symmetry_Int_Tables_number	1
_symmetry_cell_setting	triclinic
loop_
_symmetry_equiv_pos_as_xyz
  x,y,z
_cell_length_a	14.908782
_cell_length_b	29.839131
_cell_length_c	14.908308
_cell_angle_alpha	86.738717
_cell_angle_beta	83.240320
_cell_angle_gamma	86.748562
loop_
_atom_site_label
_atom_site_type_symbol
_atom_site_fract_x
_atom_site_fract_y
_atom_site_fract_z
Zn1	Zn	1.354052	-0.230135	0.431769
Zn2	Zn	1.362637	-0.301165	0.280407
Zn3	Zn	1.211433	-0.221960	0.289175
Zn4	Zn	1.202610	-0.301140	0.440468
O5	O	1.282683	-0.263600	0.360455
O6	O	1.481849	-0.242989	0.404381
O7	O	1.349865	-0.287247	0.154908
O8	O	1.230451	-0.160181	0.308120
O9	O	1.488156	-0.295175	0.293176
O10	O	1.335232	-0.166187	0.412883
O11	O	1.238776	-0.229056	0.161350
O12	O	1.083604	-0.229032	0.316554
O13	O	1.215414	-0.295132	0.565976
O14	O	1.077122	-0.287205	0.427708
O15	O	1.326677	-0.242965	0.559585
O16	O	1.341310	-0.364025	0.301611
O17	O	1.223739	-0.364007	0.419207
C18	C	1.047522	-0.257229	0.374027
C19	C	0.946918	-0.254515	0.379855
C20	C	0.764450	-0.303671	0.274831
C21	C	0.669924	-0.301122	0.280304
C22	C	0.663338	-0.246871	0.396277
C23	C	0.757864	-0.249419	0.390805
C24	C	0.808417	-0.277820	0.330079
C25	C	0.902945	-0.280366	0.324602
C26	C	0.896357	-0.226117	0.440579
C27	C	0.801831	-0.223569	0.446052
C28	C	1.282522	-0.380317	0.360420
C29	C	1.282534	-0.430252	0.360430
C30	C	1.344002	-0.739903	0.299301
C31	C	1.344112	-0.927580	0.299330
O32	O	1.396247	-0.951846	0.247329
N33	N	1.282867	-0.951049	0.360512
C34	C	1.221593	-0.927597	0.421696
O35	O	1.169509	-0.951866	0.473742
C36	C	1.221489	-0.739921	0.421671
C37	C	1.282732	-0.716453	0.360478
C38	C	1.405242	-0.716435	0.238115
C39	C	1.405210	-0.669518	0.238105
C40	C	1.343940	-0.646069	0.299282
C41	C	1.282701	-0.669537	0.360468
C42	C	1.160220	-0.716470	0.482858
C43	C	1.160201	-0.669548	0.482848
C44	C	1.221445	-0.646080	0.421655
C45	C	1.221399	-0.599171	0.421636
N46	N	1.282645	-0.575701	0.360453
C47	C	1.343915	-0.599151	0.299276
C48	C	1.221651	-1.026129	0.421704
C49	C	1.221676	-1.073048	0.421709
C50	C	1.344197	-1.073028	0.299344
C51	C	1.344167	-1.026108	0.299335
C52	C	1.282897	-1.002660	0.360521
C53	C	1.343844	-0.500622	0.299260
C54	C	1.343805	-0.453701	0.299253
C55	C	1.221288	-0.453726	0.421621
C56	C	1.221324	-0.500643	0.421625
C57	C	1.282609	-0.524090	0.360441
O58	O	1.169298	-0.574876	0.473616
O59	O	1.396005	-0.574874	0.247251
C60	C	1.344034	-0.786819	0.299311
C61	C	1.282795	-0.810287	0.360498
C62	C	1.221524	-0.786838	0.421675
C63	C	1.282820	-0.857205	0.360503
C64	C	1.344090	-0.880654	0.299326
C65	C	1.405336	-0.857185	0.238144
C66	C	1.405304	-0.810268	0.238134
C67	C	1.160279	-0.810307	0.482857
C68	C	1.160314	-0.857224	0.482861
C69	C	1.221585	-0.880673	0.421685
C70	C	1.518762	-0.269997	0.346830
C71	C	1.619364	-0.272722	0.341024
C72	C	1.269104	-0.269958	0.596541
C73	C	1.263317	-0.272667	0.697147
C74	C	1.282868	-0.146429	0.360509
C75	C	1.282947	-0.096497	0.360532
C76	C	1.296261	-0.257236	0.125284
C77	C	1.302224	-0.254405	0.024669
C78	C	1.368299	-0.223426	0.879543
C79	C	1.362865	-0.225970	0.974071
C80	C	1.247010	-0.280297	0.980733
C81	C	1.252445	-0.277753	0.886205
C82	C	1.313092	-0.249317	0.835613
C83	C	1.318530	-0.246775	0.741083
C84	C	1.202672	-0.301099	0.747747
C85	C	1.197237	-0.303644	0.842275
H86	H	0.634129	-0.322174	0.235318
F87	F	1.095063	-0.785357	0.547975
H88	H	1.394086	-1.092128	0.249531
H89	H	0.760658	-0.200447	0.495495
H90	H	1.110345	-0.735569	0.532683
F91	F	1.383078	-0.216513	0.687241
H92	H	0.944104	-0.303491	0.275154
F93	F	1.182465	-0.310555	1.034591
F94	F	1.421623	-0.198413	1.020821
H95	H	1.171400	-0.434626	0.471428
H96	H	0.622161	-0.223752	0.445725
F97	F	0.943157	-0.198599	0.499374
H98	H	1.147859	-0.326794	0.883479
F99	F	1.143920	-0.328660	0.700987
F100	F	1.470404	-0.644549	0.172984
H101	H	0.805611	-0.326793	0.225380
F102	F	1.408991	-0.428728	0.234120
H103	H	1.393750	-0.519707	0.249440
H104	H	1.455140	-0.735522	0.188296
H105	H	1.394037	-1.007003	0.249507
H106	H	1.417685	-0.200275	0.838350
F107	F	1.156483	-1.098018	0.486829
F108	F	1.094989	-0.644596	0.547974
F109	F	1.156434	-1.001180	0.486830
F110	F	1.156127	-0.525618	0.486736
H111	H	1.455174	-0.791164	0.188306
H112	H	1.110435	-0.876327	0.532691
F113	F	1.470542	-0.882149	0.173032
