data_functionalizedCrystal
_audit_creation_method	'MofGen! by Chris Wilmer'
_symmetry_space_group_name_H-M	'P1'
_symmetry_Int_Tables_number	1
_symmetry_cell_setting	triclinic
loop_
_symmetry_equiv_pos_as_xyz
  x,y,z
_cell_length_a	10.723024
_cell_length_b	19.288865
_cell_length_c	18.366186
_cell_angle_alpha	90.011479
_cell_angle_beta	89.991271
_cell_angle_gamma	96.197942
loop_
_atom_site_label
_atom_site_type_symbol
_atom_site_fract_x
_atom_site_fract_y
_atom_site_fract_z
O1	O	1.655151	-0.097418	-0.060554
O2	O	1.291802	-0.106743	-0.060558
O3	O	1.483976	-0.001018	-0.060541
O4	O	1.462978	-0.203142	-0.060570
O5	O	1.483943	-0.001013	0.060558
O6	O	1.291770	-0.106737	0.060542
O7	O	1.655118	-0.097413	0.060545
Zn8	Zn	1.473439	-0.102074	0.079771
Zn9	Zn	1.473482	-0.102081	-0.079783
O10	O	1.462945	-0.203137	0.060529
C11	C	1.483284	0.024865	0.000010
C12	C	1.481256	0.101982	0.000017
C13	C	1.245301	-0.106061	-0.000008
C14	C	1.106789	-0.104031	-0.000009
N15	N	1.473419	-0.102069	0.188662
C16	C	1.030564	-0.163189	-0.000018
C17	C	0.887405	-0.161092	-0.000018
C18	C	1.701620	-0.098094	-0.000006
C19	C	1.840131	-0.100124	-0.000010
C20	C	1.463637	-0.229020	-0.000025
C21	C	1.465665	-0.306137	-0.000036
C22	C	1.594014	0.145945	0.000021
C23	C	1.592109	0.218404	0.000010
C24	C	1.477438	0.246898	0.000008
C25	C	1.364665	0.202925	-0.000000
C26	C	1.366574	0.130468	0.000004
C27	C	1.387282	0.355774	0.042426
C28	C	1.385379	0.428230	0.042426
C29	C	1.471547	0.470382	-0.000008
C30	C	1.559640	0.440069	-0.042433
C31	C	1.561548	0.367611	-0.042429
C32	C	1.475356	0.325465	0.000003
C33	C	1.582247	0.592914	-0.000017
C34	C	1.580336	0.665374	-0.000033
C35	C	1.352890	0.649894	-0.000036
C36	C	1.354803	0.577435	-0.000027
C37	C	1.469485	0.548949	-0.000014
N38	N	1.473512	-0.102081	-0.188674
C39	C	1.558541	-0.055277	0.226769
C40	C	1.558549	-0.055274	0.302997
C41	C	1.473446	-0.102075	0.341114
C42	C	1.388308	-0.148870	0.302998
C43	C	1.388295	-0.148867	0.226771
C44	C	1.456743	-0.165254	0.461866
C45	C	1.456765	-0.165258	0.538091
C46	C	1.473482	-0.102084	0.576222
C47	C	1.490202	-0.038903	0.538119
C48	C	1.490188	-0.038900	0.461893
C49	C	1.473451	-0.102083	0.423769
C50	C	1.558617	-0.055285	0.696984
C51	C	1.558616	-0.055281	0.773214
C52	C	1.388382	-0.148882	0.773213
C53	C	1.388377	-0.148880	0.696985
C54	C	1.473501	-0.102082	0.658875
H55	H	1.071290	-0.215388	-0.000021
H56	H	1.675628	0.569720	-0.000010
H57	H	0.821909	-0.211735	-0.000029
H58	H	1.443159	-0.216703	0.569108
H59	H	1.313643	0.452905	0.076967
C60	C	0.928603	-0.031701	0.000002
N61	N	0.995250	0.019835	0.000013
H62	H	1.066063	-0.051832	-0.000020
C63	C	1.294769	-0.200364	0.815137
N64	N	1.224256	-0.239141	0.846719
H65	H	1.319015	-0.186974	0.334037
C66	C	1.652205	-0.003805	0.344924
N67	N	1.722753	0.034959	0.376501
H68	H	1.633274	0.342933	-0.076974
C69	C	1.438353	-0.234755	0.419929
N70	N	1.424502	-0.287102	0.388343
H71	H	1.687397	0.122757	0.000029
H72	H	1.683933	0.254205	0.000011
C73	C	1.654428	0.486430	-0.089118
N74	N	1.725821	0.521352	-0.124279
H75	H	1.503799	0.012544	0.430872
C76	C	1.226750	0.681233	-0.000040
N77	N	1.131739	0.704840	-0.000045
C78	C	1.652241	-0.003792	0.815132
N79	N	1.722756	0.034994	0.846705
H80	H	1.672162	0.701169	-0.000033
H81	H	1.262983	0.541639	-0.000027
C82	C	1.294704	-0.200373	0.184852
N83	N	1.224230	-0.239181	0.153277
C84	C	1.242525	0.082106	0.000001
N85	N	1.149089	0.045680	0.000000
H86	H	1.317111	0.321459	0.076985
H87	H	1.319068	-0.186985	0.665956
C88	C	1.238527	0.234270	0.000003
N89	N	1.143516	0.257878	0.000006
C90	C	1.652168	-0.003791	0.184853
N91	N	1.722685	0.034990	0.153281
C92	C	1.508588	0.030595	0.580058
N93	N	1.522438	0.082938	0.611649
H94	H	1.627927	-0.017177	0.665954
