data_functionalizedCrystal
_audit_creation_method	'MofGen! by Chris Wilmer'
_symmetry_space_group_name_H-M	'P1'
_symmetry_Int_Tables_number	1
_symmetry_cell_setting	triclinic
loop_
_symmetry_equiv_pos_as_xyz
  x,y,z
_cell_length_a	11.169417
_cell_length_b	16.625546
_cell_length_c	11.169409
_cell_angle_alpha	89.961577
_cell_angle_beta	89.980176
_cell_angle_gamma	90.023347
loop_
_atom_site_label
_atom_site_type_symbol
_atom_site_fract_x
_atom_site_fract_y
_atom_site_fract_z
Zn1	Zn	1.834861	-0.320917	-0.678492
Zn2	Zn	2.334861	0.179083	-0.178492
Zn3	Zn	1.834708	-0.455779	-0.477788
Zn4	Zn	2.334708	0.044221	0.022212
Zn5	Zn	1.634147	-0.320967	-0.477826
Zn6	Zn	2.134147	0.179033	0.022174
Zn7	Zn	1.634112	-0.455714	-0.678432
Zn8	Zn	2.134112	0.044286	-0.178432
O9	O	1.734457	-0.388344	-0.578135
O10	O	2.234457	0.111656	-0.078135
O11	O	2.002791	-0.338814	-0.651877
O12	O	2.502791	0.161186	-0.151877
O13	O	1.808054	-0.437944	-0.309843
O14	O	2.308054	0.062056	0.190157
O15	O	1.660851	-0.208128	-0.504486
O16	O	2.160851	0.291872	-0.004486
O17	O	2.002678	-0.437897	-0.504420
O18	O	2.502678	0.062103	-0.004420
O19	O	1.808315	-0.208092	-0.651914
O20	O	2.308315	0.291908	-0.151914
O21	O	1.660702	-0.338898	-0.309871
O22	O	2.160702	0.161102	0.190129
O23	O	1.466193	-0.338834	-0.504428
O24	O	1.966193	0.161166	-0.004428
O25	O	1.660791	-0.437785	-0.846390
O26	O	2.160791	0.062215	-0.346390
O27	O	1.466167	-0.437832	-0.651813
O28	O	1.966167	0.062168	-0.151813
O29	O	1.808281	-0.338750	-0.846434
O30	O	2.308281	0.161250	-0.346434
O31	O	1.808020	-0.568603	-0.504362
O32	O	2.308020	-0.068603	-0.004362
O33	O	1.660643	-0.568555	-0.651775
O34	O	2.160643	-0.068555	-0.151775
C35	C	1.422632	-0.388332	-0.578119
C36	C	1.922632	0.111668	-0.078119
C37	C	1.289232	-0.388346	-0.578141
C38	C	1.789232	0.111654	-0.078141
C39	C	1.734344	-0.597835	-0.578084
C40	C	2.234344	-0.097835	-0.078084
C41	C	1.734405	-0.687456	-0.578103
C42	C	2.234405	-0.187456	-0.078103
C43	C	1.734614	-1.015632	-0.578228
C44	C	2.234614	-0.515632	-0.078228
C45	C	1.734552	-0.924323	-0.578197
C46	C	2.234552	-0.424323	-0.078197
C47	C	1.734508	-0.851547	-0.578165
C48	C	2.234508	-0.351547	-0.078165
C49	C	1.734448	-0.760233	-0.578135
C50	C	2.234448	-0.260233	-0.078135
C51	C	2.047499	-0.388357	-0.578151
C52	C	2.547499	0.111643	-0.078151
C53	C	2.180899	-0.388363	-0.578158
C54	C	2.680899	0.111637	-0.078158
C55	C	1.734549	-0.388255	-0.891177
C56	C	2.234549	0.111745	-0.391177
C57	C	1.734589	-0.388217	-1.024577
C58	C	2.234589	0.111783	-0.524577
C59	C	1.734604	-0.178035	-0.578211
C60	C	2.234604	0.321965	-0.078211
C61	C	1.734666	-0.088414	-0.578244
C62	C	2.234666	0.411586	-0.078244
C63	C	1.734434	-0.388375	-0.266310
C64	C	2.234434	0.111625	0.233690
C65	C	1.734628	-0.388186	-0.132910
C66	C	2.234628	0.111814	0.367090
