data_functionalizedCrystal
_audit_creation_method	'MofGen! by Chris Wilmer'
_symmetry_space_group_name_H-M	'P1'
_symmetry_Int_Tables_number	1
_symmetry_cell_setting	triclinic
loop_
_symmetry_equiv_pos_as_xyz
  x,y,z
_cell_length_a	16.625547
_cell_length_b	25.639240
_cell_length_c	16.625539
_cell_angle_alpha	89.961562
_cell_angle_beta	89.975178
_cell_angle_gamma	90.032694
loop_
_atom_site_label
_atom_site_type_symbol
_atom_site_fract_x
_atom_site_fract_y
_atom_site_fract_z
Zn1	Zn	1.232623	-0.208151	-0.455944
Zn2	Zn	1.565956	0.125183	-0.122611
Zn3	Zn	1.899290	0.458516	0.210723
Zn4	Zn	1.232502	-0.295589	-0.321087
Zn5	Zn	1.565835	0.037745	0.012246
Zn6	Zn	1.899168	0.371078	0.345579
Zn7	Zn	1.097785	-0.208169	-0.321115
Zn8	Zn	1.431118	0.125164	0.012219
Zn9	Zn	1.764451	0.458498	0.345552
Zn10	Zn	1.097731	-0.295557	-0.455867
Zn11	Zn	1.431064	0.037776	-0.122534
Zn12	Zn	1.764398	0.371110	0.210799
O13	O	1.165160	-0.251866	-0.388503
O14	O	1.498493	0.081467	-0.055170
O15	O	1.831827	0.414800	0.278163
O16	O	1.345439	-0.219755	-0.438076
O17	O	1.678772	0.113578	-0.104742
O18	O	2.012106	0.446911	0.228591
O19	O	1.214603	-0.284013	-0.208259
O20	O	1.547937	0.049320	0.125075
O21	O	1.881270	0.382654	0.458408
O22	O	1.115744	-0.135001	-0.339043
O23	O	1.449078	0.198332	-0.005710
O24	O	1.782411	0.531665	0.327623
O25	O	1.345350	-0.283995	-0.338997
O26	O	1.678684	0.049338	-0.005664
O27	O	2.012017	0.382671	0.327669
O28	O	1.214809	-0.134988	-0.438102
O29	O	1.548143	0.198345	-0.104769
O30	O	1.881476	0.531679	0.228565
O31	O	1.115627	-0.219786	-0.208279
O32	O	1.448960	0.113547	0.125055
O33	O	1.782294	0.446880	0.458388
O34	O	0.984945	-0.219755	-0.338969
O35	O	1.318278	0.113578	-0.005636
O36	O	1.651612	0.446911	0.327698
O37	O	1.115653	-0.283941	-0.568710
O38	O	1.448986	0.049392	-0.235377
O39	O	1.782319	0.382725	0.097957
O40	O	0.984906	-0.283959	-0.437971
O41	O	1.318239	0.049374	-0.104638
O42	O	1.651572	0.382708	0.228695
O43	O	1.214757	-0.219724	-0.568766
O44	O	1.548091	0.113609	-0.235433
O45	O	1.881424	0.446942	0.097900
O46	O	1.214551	-0.368750	-0.338923
O47	O	1.547884	-0.035416	-0.005589
O48	O	1.881218	0.297917	0.327744
O49	O	1.115535	-0.368726	-0.437945
O50	O	1.448869	-0.035393	-0.104612
O51	O	1.782202	0.297940	0.228722
C52	C	0.955669	-0.251856	-0.388465
C53	C	1.289003	0.081477	-0.055132
C54	C	1.622336	0.414811	0.278201
C55	C	0.866048	-0.251864	-0.388468
C56	C	1.199381	0.081469	-0.055135
C57	C	1.532715	0.414802	0.278199
C58	C	0.793266	-0.251865	-0.388478
C59	C	1.126599	0.081468	-0.055145
C60	C	1.459932	0.414801	0.278189
C61	C	0.701957	-0.251868	-0.388498
C62	C	1.035291	0.081465	-0.055165
C63	C	1.368624	0.414799	0.278168
C64	C	0.629181	-0.251873	-0.388519
C65	C	0.962514	0.081460	-0.055185
C66	C	1.295847	0.414794	0.278148
C67	C	0.537866	-0.251877	-0.388538
C68	C	0.871200	0.081457	-0.055205
C69	C	1.204533	0.414790	0.278129
C70	C	1.165046	-0.387709	-0.388440
C71	C	1.498379	-0.054376	-0.055107
C72	C	1.831713	0.278958	0.278227
C73	C	1.165071	-0.445823	-0.388440
C74	C	1.498404	-0.112490	-0.055107
C75	C	1.831738	0.220844	0.278227
C76	C	1.216769	-0.806140	-0.440176
C77	C	1.550102	-0.472807	-0.106843
C78	C	1.883435	-0.139474	0.226490
C79	C	1.216793	-0.860745	-0.440193
C80	C	1.550126	-0.527411	-0.106859
C81	C	1.883459	-0.194078	0.226474
O82	O	1.260612	-0.888943	-0.484116
O83	O	1.593946	-0.555610	-0.150782
O84	O	1.927279	-0.222276	0.182551
N85	N	1.165272	-0.888105	-0.388581
N86	N	1.498605	-0.554772	-0.055248
N87	N	1.831939	-0.221439	0.278085
C88	C	1.113718	-0.860859	-0.336956
C89	C	1.447052	-0.527525	-0.003623
C90	C	1.780385	-0.194192	0.329711
O91	O	1.069898	-0.889145	-0.293059
O92	O	1.403231	-0.555812	0.040275
O93	O	1.736564	-0.222478	0.373608
C94	C	1.113691	-0.806255	-0.336944
C95	C	1.447024	-0.472922	-0.003611
C96	C	1.780358	-0.139589	0.329722
C97	C	1.165221	-0.778898	-0.388553
C98	C	1.498554	-0.445564	-0.055220
C99	C	1.831888	-0.112231	0.278113
C100	C	1.268294	-0.778783	-0.491782
C101	C	1.601627	-0.445449	-0.158448
C102	C	1.934960	-0.112116	0.174885
C103	C	1.268271	-0.724182	-0.491764
C104	C	1.601604	-0.390849	-0.158431
C105	C	1.934938	-0.057516	0.174903
C106	C	1.216723	-0.696939	-0.440141
C107	C	1.550056	-0.363606	-0.106808
C108	C	1.883390	-0.030273	0.226526
C109	C	1.165198	-0.724297	-0.388536
C110	C	1.498531	-0.390964	-0.055202
C111	C	1.831865	-0.057630	0.278131
C112	C	1.062134	-0.779010	-0.285324
C113	C	1.395467	-0.445676	0.048010
C114	C	1.728801	-0.112343	0.381343
C115	C	1.062111	-0.724403	-0.285317
C116	C	1.395444	-0.391069	0.048017
C117	C	1.728777	-0.057736	0.381350
C118	C	1.113641	-0.697045	-0.336926
C119	C	1.446974	-0.363712	-0.003592
C120	C	1.780307	-0.030378	0.329741
C121	C	1.113627	-0.642454	-0.336895
C122	C	1.446960	-0.309120	-0.003562
C123	C	1.780294	0.024213	0.329772
N124	N	1.165148	-0.615093	-0.388506
N125	N	1.498481	-0.281760	-0.055173
N126	N	1.831814	0.051573	0.278160
C127	C	1.216696	-0.642336	-0.440129
C128	C	1.550029	-0.309003	-0.106796
C129	C	1.883362	0.024331	0.226537
C130	C	1.113778	-0.975529	-0.336986
C131	C	1.447112	-0.642196	-0.003652
C132	C	1.780445	-0.308863	0.329681
C133	C	1.113809	-1.030132	-0.336993
C134	C	1.447143	-0.696798	-0.003659
C135	C	1.780476	-0.363465	0.329674
C136	C	1.216883	-1.030014	-0.440230
C137	C	1.550216	-0.696681	-0.106897
C138	C	1.883549	-0.363347	0.226436
C139	C	1.216855	-0.975411	-0.440219
C140	C	1.550189	-0.642077	-0.106885
C141	C	1.883522	-0.308744	0.226448
C142	C	1.165299	-0.948169	-0.388597
C143	C	1.498632	-0.614835	-0.055264
C144	C	1.831966	-0.281502	0.278070
C145	C	1.216644	-0.527671	-0.440088
C146	C	1.549978	-0.194338	-0.106754
C147	C	1.883311	0.138996	0.226579
C148	C	1.216619	-0.473066	-0.440063
C149	C	1.549952	-0.139732	-0.106730
C150	C	1.883286	0.193601	0.226604
C151	C	1.113543	-0.473188	-0.336829
C152	C	1.446876	-0.139855	-0.003495
C153	C	1.780210	0.193479	0.329838
C154	C	1.113571	-0.527789	-0.336850
C155	C	1.446904	-0.194455	-0.003516
C156	C	1.780237	0.138878	0.329817
C157	C	1.165124	-0.555029	-0.388486
C158	C	1.498457	-0.221695	-0.055153
C159	C	1.831791	0.111638	0.278181
O160	O	1.069827	-0.614221	-0.292997
O161	O	1.403161	-0.280888	0.040337
O162	O	1.736494	0.052446	0.373670
O163	O	1.260502	-0.614043	-0.484027
O164	O	1.593835	-0.280710	-0.150693
O165	O	1.927168	0.052623	0.182640
C166	C	1.375469	-0.251877	-0.388542
C167	C	1.708802	0.081457	-0.055209
C168	C	2.042136	0.414790	0.278125
C169	C	1.465090	-0.251881	-0.388559
C170	C	1.798423	0.081452	-0.055225
C171	C	2.131757	0.414785	0.278108
C172	C	1.165212	-0.251827	-0.598812
C173	C	1.498546	0.081506	-0.265479
C174	C	1.831879	0.414839	0.067854
C175	C	1.165235	-0.251811	-0.688434
C176	C	1.498568	0.081523	-0.355100
C177	C	1.831901	0.414856	-0.021767
C178	C	1.165296	-0.115493	-0.388584
C179	C	1.498630	0.217840	-0.055251
C180	C	1.831963	0.551173	0.278082
C181	C	1.165354	-0.057379	-0.388619
C182	C	1.498688	0.275954	-0.055286
C183	C	1.832021	0.609288	0.278048
C184	C	1.165272	-0.251752	-1.016609
C185	C	1.498605	0.081581	-0.683276
C186	C	1.831939	0.414915	-0.349943
C187	C	1.165259	-0.251770	-0.925301
C188	C	1.498593	0.081563	-0.591968
C189	C	1.831926	0.414897	-0.258634
C190	C	1.165254	-0.251782	-0.852524
C191	C	1.498587	0.081551	-0.519191
C192	C	1.831921	0.414885	-0.185858
C193	C	1.165240	-0.251799	-0.761210
C194	C	1.498574	0.081534	-0.427877
C195	C	1.831907	0.414868	-0.094543
C196	C	1.165154	-0.251867	-0.179013
C197	C	1.498488	0.081466	0.154321
C198	C	1.831821	0.414799	0.487654
C199	C	1.165288	-0.251737	-0.089392
C200	C	1.498621	0.081597	0.243941
C201	C	1.831955	0.414930	0.577275
H202	H	1.258584	-0.450793	-0.482089
H203	H	1.591917	-0.117459	-0.148756
H204	H	1.925250	0.215874	0.184577
Cl205	Cl	1.048743	-0.438930	-0.271935
Cl206	Cl	1.382076	-0.105597	0.061399
Cl207	Cl	1.715410	0.227737	0.394732
H208	H	1.258854	-1.052205	-0.482266
H209	H	1.592188	-0.718872	-0.148933
H210	H	1.925521	-0.385538	0.184400
H211	H	1.258618	-0.549843	-0.482140
H212	H	1.591952	-0.216510	-0.148807
H213	H	1.925285	0.116823	0.184526
Cl214	Cl	1.333048	-0.689798	-0.556654
Cl215	Cl	1.666382	-0.356464	-0.223321
Cl216	Cl	1.999715	-0.023131	0.110012
H217	H	1.310270	-0.800958	-0.533824
H218	H	1.643604	-0.467625	-0.200491
H219	H	1.976937	-0.134291	0.132843
H220	H	1.258815	-0.953139	-0.482244
H221	H	1.592148	-0.619806	-0.148910
H222	H	1.925482	-0.286472	0.184423
H223	H	1.020173	-0.801275	-0.243298
H224	H	1.353506	-0.467942	0.090036
H225	H	1.686840	-0.134608	0.423369
H226	H	1.071857	-1.052402	-0.294959
H227	H	1.405190	-0.719068	0.038375
H228	H	1.738524	-0.385735	0.371708
Cl229	Cl	1.048964	-0.941288	-0.272077
Cl230	Cl	1.382297	-0.607955	0.061257
Cl231	Cl	1.715631	-0.274621	0.394590
Cl232	Cl	0.997293	-0.690159	-0.220416
Cl233	Cl	1.330627	-0.356826	0.112917
Cl234	Cl	1.663960	-0.023493	0.446251
Cl235	Cl	1.048800	-0.562182	-0.271959
Cl236	Cl	1.382133	-0.228849	0.061374
Cl237	Cl	1.715467	0.104484	0.394708
