data_functionalizedCrystal
_audit_creation_method	'MofGen! by Chris Wilmer'
_symmetry_space_group_name_H-M	'P1'
_symmetry_Int_Tables_number	1
_symmetry_cell_setting	triclinic
loop_
_symmetry_equiv_pos_as_xyz
  x,y,z
_cell_length_a	27.732064
_cell_length_b	27.732048
_cell_length_c	12.996460
_cell_angle_alpha	89.988908
_cell_angle_beta	90.002042
_cell_angle_gamma	82.646040
loop_
_atom_site_label
_atom_site_type_symbol
_atom_site_fract_x
_atom_site_fract_y
_atom_site_fract_z
O1	O	0.640923	0.057556	-0.085394
O2	O	1.140923	0.557556	0.414606
O3	O	0.500130	0.066293	-0.085438
O4	O	1.000130	0.566293	0.414562
O5	O	0.574899	-0.008472	-0.085395
O6	O	1.074899	0.491528	0.414605
O7	O	0.566154	0.132321	-0.085437
O8	O	1.066154	0.632321	0.414563
O9	O	0.574891	-0.008476	0.085739
O10	O	1.074891	0.491524	0.585739
O11	O	0.500123	0.066289	0.085696
O12	O	1.000123	0.566289	0.585696
O13	O	0.640915	0.057552	0.085740
O14	O	1.140915	0.557552	0.585740
Cu15	Cu	0.570518	0.061920	0.101344
Cu16	Cu	1.070518	0.561920	0.601344
Cu17	Cu	0.570527	0.061925	-0.101042
Cu18	Cu	1.070527	0.561925	0.398958
O19	O	0.566146	0.132317	0.085697
O20	O	1.066146	0.632317	0.585697
C21	C	0.482120	0.066106	0.000123
C22	C	0.982120	0.566106	0.500123
C23	C	0.428465	0.065551	0.000108
C24	C	0.928465	0.565551	0.500108
C25	C	0.051392	0.017583	0.000180
C26	C	0.551392	0.517583	0.500180
C27	C	0.253053	0.019630	0.000153
C28	C	0.753053	0.519630	0.500153
O29	O	0.284305	-0.017591	0.000203
O30	O	0.784305	0.482409	0.500203
N31	N	0.272180	0.063964	0.000135
N32	N	0.772180	0.563964	0.500135
C33	C	0.240889	0.107790	0.000131
C34	C	0.740889	0.607790	0.500131
O35	O	0.261785	0.145546	0.000126
O36	O	0.761785	0.645546	0.500126
C37	C	0.039230	0.105743	0.000166
C38	C	0.539230	0.605743	0.500166
C39	C	0.020105	0.061406	0.000173
C40	C	0.520105	0.561406	0.500173
C41	C	0.032267	-0.026750	0.000189
C42	C	0.532267	0.473250	0.500189
C43	C	-0.018145	-0.027261	0.000190
C44	C	0.481855	0.472739	0.500190
C45	C	-0.049432	0.016561	0.000183
C46	C	0.450568	0.516561	0.500183
C47	C	-0.030307	0.060895	0.000174
C48	C	0.469693	0.560895	0.500174
C49	C	0.007940	0.149568	0.000169
C50	C	0.507940	0.649568	0.500169
C51	C	-0.042478	0.149053	0.000180
C52	C	0.457522	0.649053	0.500180
C53	C	-0.061602	0.104716	0.000188
C54	C	0.438398	0.604716	0.500188
C55	C	-0.112006	0.104206	0.000168
C56	C	0.387994	0.604206	0.500168
N57	N	-0.131134	0.059872	0.000186
N58	N	0.368866	0.559872	0.500186
C59	C	-0.099846	0.016049	0.000193
C60	C	0.400154	0.516049	0.500193
C61	C	0.346763	0.108861	0.000111
C62	C	0.846763	0.608861	0.500111
C63	C	0.397178	0.109373	0.000100
C64	C	0.897178	0.609373	0.500100
C65	C	0.409338	0.021213	0.000124
C66	C	0.909338	0.521213	0.500124
C67	C	0.358923	0.020701	0.000127
C68	C	0.858923	0.520701	0.500127
C69	C	0.327636	0.064527	0.000129
C70	C	0.827636	0.564527	0.500129
C71	C	-0.205716	0.014979	0.000195
C72	C	0.294284	0.514979	0.500195
C73	C	-0.256133	0.014472	0.000192
C74	C	0.243867	0.514472	0.500192
C75	C	-0.268289	0.102632	0.000174
C76	C	0.231711	0.602632	0.500174
C77	C	-0.217876	0.103140	0.000171
C78	C	0.282124	0.603140	0.500171
C79	C	-0.186590	0.059309	0.000185
C80	C	0.313410	0.559309	0.500185
O81	O	-0.143287	0.141407	0.000131
O82	O	0.356713	0.641407	0.500131
O83	O	-0.120752	-0.021701	0.000221
O84	O	0.379248	0.478299	0.500221
C85	C	0.101805	0.018094	0.000179
C86	C	0.601805	0.518094	0.500179
C87	C	0.120930	0.062428	0.000171
C88	C	0.620930	0.562428	0.500171
C89	C	0.089642	0.106250	0.000163
C90	C	0.589642	0.606250	0.500163
C91	C	0.171344	0.062940	0.000160
C92	C	0.671344	0.562940	0.500160
C93	C	0.202631	0.019117	0.000167
C94	C	0.702631	0.519117	0.500167
C95	C	0.183504	-0.025217	0.000185
C96	C	0.683504	0.474783	0.500185
C97	C	0.133092	-0.025728	0.000186
C98	C	0.633092	0.474272	0.500186
C99	C	0.108770	0.150585	0.000146
C100	C	0.608770	0.650585	0.500146
C101	C	0.159183	0.151092	0.000143
C102	C	0.659183	0.651092	0.500143
C103	C	0.190470	0.107270	0.000151
C104	C	0.690470	0.607270	0.500151
C105	C	0.574712	-0.026481	0.000174
C106	C	1.074712	0.473519	0.500174
C107	C	0.574159	-0.080136	0.000183
C108	C	1.074159	0.419864	0.500183
C109	C	0.614862	-0.418948	0.000143
C110	C	1.114862	0.081052	0.500143
C111	C	0.612811	-0.620608	0.000128
C112	C	1.112811	-0.120608	0.500128
O113	O	0.650032	-0.651862	0.000094
O114	O	1.150032	-0.151862	0.500094
N115	N	0.568476	-0.639735	0.000115
N116	N	1.068476	-0.139735	0.500115
C117	C	0.524651	-0.608442	0.000099
C118	C	1.024651	-0.108442	0.500099
O119	O	0.486895	-0.629338	0.000077
O120	O	0.986895	-0.129338	0.500077
C121	C	0.526703	-0.406784	0.000107
C122	C	1.026703	0.093216	0.500107
C123	C	0.571040	-0.387660	0.000130
C124	C	1.071040	0.112340	0.500130
C125	C	0.659196	-0.399824	0.000165
C126	C	1.159196	0.100176	0.500165
C127	C	0.659709	-0.349412	0.000174
C128	C	1.159709	0.150588	0.500174
C129	C	0.615887	-0.318124	0.000161
C130	C	1.115887	0.181876	0.500161
C131	C	0.571553	-0.337248	0.000139
C132	C	1.071553	0.162752	0.500139
C133	C	0.482878	-0.375493	0.000083
C134	C	0.982878	0.124507	0.500083
C135	C	0.483395	-0.325075	0.000083
C136	C	0.983395	0.174925	0.500083
C137	C	0.527733	-0.305952	0.000106
C138	C	1.027733	0.194048	0.500106
C139	C	0.528243	-0.255548	0.000136
C140	C	1.028243	0.244452	0.500136
N141	N	0.572578	-0.236422	0.000149
N142	N	1.072578	0.263578	0.500149
C143	C	0.616400	-0.267710	0.000161
C144	C	1.116400	0.232290	0.500161
C145	C	0.523577	-0.714317	0.000097
C146	C	1.023577	-0.214317	0.500097
C147	C	0.523064	-0.764731	0.000097
C148	C	1.023064	-0.264731	0.500097
C149	C	0.611225	-0.776893	0.000124
C150	C	1.111225	-0.276893	0.500124
C151	C	0.611737	-0.726478	0.000131
C152	C	1.111737	-0.226478	0.500131
C153	C	0.567912	-0.695190	0.000110
C154	C	1.067912	-0.195190	0.500110
C155	C	0.617472	-0.161841	0.000182
C156	C	1.117472	0.338159	0.500182
C157	C	0.617981	-0.111424	0.000196
C158	C	1.117981	0.388576	0.500196
C159	C	0.529821	-0.099266	0.000163
C160	C	1.029821	0.400734	0.500163
C161	C	0.529312	-0.149679	0.000155
C162	C	1.029312	0.350321	0.500155
C163	C	0.573142	-0.180965	0.000161
C164	C	1.073142	0.319035	0.500161
O165	O	0.491043	-0.224267	0.000158
O166	O	0.991043	0.275733	0.500158
O167	O	0.654151	-0.246805	0.000160
O168	O	1.154151	0.253195	0.500160
C169	C	0.614350	-0.469360	0.000133
C170	C	1.114350	0.030640	0.500133
C171	C	0.570016	-0.488484	0.000111
C172	C	1.070016	0.011516	0.500111
C173	C	0.526194	-0.457196	0.000098
C174	C	1.026194	0.042804	0.500098
C175	C	0.569503	-0.538899	0.000111
C176	C	1.069503	-0.038899	0.500111
C177	C	0.613325	-0.570187	0.000124
C178	C	1.113325	-0.070187	0.500124
C179	C	0.657660	-0.551060	0.000137
C180	C	1.157660	-0.051060	0.500137
C181	C	0.658172	-0.500648	0.000146
C182	C	1.158172	-0.000648	0.500146
C183	C	0.481859	-0.476323	0.000085
C184	C	0.981859	0.023677	0.500085
C185	C	0.481351	-0.526735	0.000077
C186	C	0.981351	-0.026735	0.500077
C187	C	0.525172	-0.558023	0.000090
C188	C	1.025172	-0.058023	0.500090
C189	C	0.658925	0.057739	0.000176
C190	C	1.158925	0.557739	0.500176
C191	C	0.712580	0.058295	0.000185
C192	C	1.212580	0.558295	0.500185
C193	C	0.566333	0.150326	0.000125
C194	C	1.066333	0.650326	0.500125
C195	C	0.566886	0.203981	0.000110
C196	C	1.066886	0.703981	0.500110
N197	N	0.570515	0.061916	0.243691
N198	N	1.070515	0.561916	0.743691
N199	N	0.570534	0.061925	-0.243389
N200	N	1.070534	0.561925	0.256611
C201	C	0.570526	0.061925	0.663505
C202	C	1.070526	0.561925	1.163505
C203	C	0.570522	0.061925	0.546700
C204	C	1.070522	0.561925	1.046700
C205	C	0.570521	0.061921	0.453601
C206	C	1.070521	0.561921	0.953601
C207	C	0.570516	0.061920	0.336789
C208	C	1.070516	0.561920	0.836789
H209	H	0.117526	-0.061832	0.000193
H210	H	0.617526	0.438168	0.500193
C211	C	0.045024	0.201163	0.088099
C212	C	0.545024	0.701163	0.588099
C213	C	0.074383	0.198758	0.000128
C214	C	0.574383	0.698758	0.500128
H215	H	0.023798	0.230907	0.088083
H216	H	0.523798	0.730907	0.588083
H217	H	0.026416	0.174693	0.088102
H218	H	0.526416	0.674693	0.588102
H219	H	0.064949	0.199528	0.147772
H220	H	0.564949	0.699528	0.647772
H221	H	0.054458	0.200390	-0.059546
H222	H	0.554458	0.700390	0.440454
H223	H	0.092993	0.225236	0.000116
H224	H	0.592993	0.725236	0.500116
H225	H	0.447706	-0.299603	0.000064
H226	H	0.947706	0.200397	0.500064
C227	C	0.477598	-0.199308	-0.087844
C228	C	0.977598	0.300692	0.412156
C229	C	0.480578	-0.170705	0.000139
C230	C	0.980578	0.329295	0.500139
H231	H	0.447512	-0.212289	-0.087855
H232	H	0.947512	0.287711	0.412145
H233	H	0.479630	-0.179883	-0.147503
H234	H	0.979630	0.320117	0.352497
H235	H	0.503626	-0.225156	-0.087831
H236	H	1.003626	0.274844	0.412169
H237	H	0.454551	-0.144855	0.000123
H238	H	0.954551	0.355145	0.500123
H239	H	0.478541	-0.190131	0.059813
H240	H	0.978541	0.309869	0.559813
H241	H	0.208987	-0.060899	0.000185
H242	H	0.708987	0.439101	0.500185
C243	C	0.096005	-0.077320	-0.087792
C244	C	0.596005	0.422680	0.412208
C245	C	0.066654	-0.074925	0.000190
C246	C	0.566654	0.425075	0.500190
H247	H	0.117233	-0.107063	-0.087792
H248	H	0.617233	0.392937	0.412208
H249	H	0.076079	-0.075680	-0.147452
H250	H	0.576079	0.424320	0.352548
H251	H	0.114615	-0.050846	-0.087787
H252	H	0.614615	0.449154	0.412213
H253	H	0.048041	-0.101398	0.000182
H254	H	0.548041	0.398602	0.500182
H255	H	0.086583	-0.076571	0.059865
H256	H	0.586583	0.423429	0.559865
H257	H	0.486960	-0.780296	0.000096
H258	H	0.986960	-0.280296	0.500096
C259	C	0.142086	0.238185	0.000139
C260	C	0.642086	0.738185	0.500139
C261	C	0.180200	0.199833	0.000138
C262	C	0.680200	0.699833	0.500138
H263	H	0.155061	0.268274	0.000149
H264	H	0.655061	0.768274	0.500149
H265	H	0.122677	0.236156	-0.059538
H266	H	0.622677	0.736156	0.440462
H267	H	0.122675	0.236140	0.059819
H268	H	0.622675	0.736140	0.559819
H269	H	0.199609	0.201876	-0.059545
H270	H	0.699609	0.701876	0.440455
H271	H	0.199617	0.201863	0.059822
H272	H	0.699617	0.701863	0.559822
C273	C	0.395791	-0.358386	0.000026
C274	C	0.895791	0.141614	0.500026
C275	C	0.434140	-0.396504	0.000048
C276	C	0.934140	0.103496	0.500048
H277	H	0.365700	-0.371357	-0.000003
H278	H	0.865700	0.128643	0.499997
H279	H	0.397821	-0.338984	0.059705
H280	H	0.897821	0.161016	0.559705
H281	H	0.397839	-0.338969	-0.059651
H282	H	0.897839	0.161031	0.440349
H283	H	0.432093	-0.415919	0.059730
H284	H	0.932093	0.084081	0.559730
H285	H	0.432108	-0.415913	-0.059637
H286	H	0.932108	0.084087	0.440363
H287	H	0.694883	-0.425295	0.000171
H288	H	1.194883	0.074705	0.500171
C289	C	0.394258	-0.509636	0.000032
C290	C	0.894258	-0.009636	0.500032
C291	C	0.432610	-0.547751	0.000048
C292	C	0.932610	-0.047751	0.500048
H293	H	0.364169	-0.522611	0.000001
H294	H	0.864169	-0.022611	0.500001
H295	H	0.396287	-0.490237	0.059715
H296	H	0.896287	0.009763	0.559715
H297	H	0.396304	-0.490217	-0.059642
H298	H	0.896304	0.009783	0.440358
H299	H	0.430565	-0.567169	0.059727
H300	H	0.930565	-0.067169	0.559727
H301	H	0.430579	-0.567159	-0.059640
H302	H	0.930579	-0.067159	0.440360
H303	H	-0.067950	0.184742	0.000186
H304	H	0.432050	0.684742	0.500186
C305	C	0.668044	-0.225597	0.088163
C306	C	1.168044	0.274403	0.588163
C307	C	0.665649	-0.196227	0.000194
C308	C	1.165649	0.303773	0.500194
H309	H	0.697785	-0.246827	0.088170
H310	H	1.197785	0.253173	0.588170
H311	H	0.666406	-0.205683	0.147831
H312	H	1.166406	0.294317	0.647831
H313	H	0.641568	-0.244205	0.088137
H314	H	1.141568	0.255795	0.588137
H315	H	0.692124	-0.177617	0.000225
H316	H	1.192124	0.322383	0.500225
H317	H	0.667292	-0.216144	-0.059489
H318	H	1.167292	0.283856	0.440511
H319	H	0.343355	-0.015402	0.000134
H320	H	0.843355	0.484598	0.500134
H321	H	0.654087	-0.095857	0.000217
H322	H	1.154087	0.404143	0.500217
H323	H	0.694276	-0.485083	0.000165
H324	H	1.194276	0.014917	0.500165
H325	H	0.434821	-0.014469	0.000126
H326	H	0.934821	0.485531	0.500126
H327	H	0.695813	-0.333847	0.000189
H328	H	1.195813	0.166153	0.500189
H329	H	0.412744	0.145477	0.000080
H330	H	0.912744	0.645477	0.500080
C331	C	0.479270	-0.035504	-0.087834
C332	C	0.979270	0.464496	0.412166
C333	C	0.481653	-0.064868	0.000142
C334	C	0.981653	0.435132	0.500142
H335	H	0.449531	-0.014269	-0.087854
H336	H	0.949531	0.485731	0.412146
H337	H	0.505747	-0.016905	-0.087810
H338	H	1.005747	0.483095	0.412190
H339	H	0.480906	-0.055424	-0.147504
H340	H	0.980906	0.444576	0.352496
H341	H	0.480021	-0.044947	0.059812
H342	H	0.980021	0.455053	0.559812
H343	H	0.455168	-0.083468	0.000127
H344	H	0.955168	0.416532	0.500127
C345	C	-0.328012	-0.025465	0.000192
C346	C	0.171988	0.474535	0.500192
C347	C	-0.277154	-0.034266	0.000199
C348	C	0.222846	0.465734	0.500199
H349	H	-0.340987	-0.055554	0.000190
H350	H	0.159013	0.444446	0.500190
H351	H	-0.338770	-0.007445	0.059863
H352	H	0.161230	0.492555	0.559863
H353	H	-0.338770	-0.007434	-0.059493
H354	H	0.161230	0.492566	0.440507
H355	H	-0.266396	-0.052294	0.059889
H356	H	0.233604	0.447706	0.559889
H357	H	-0.266392	-0.052294	-0.059478
H358	H	0.233608	0.447706	0.440522
H359	H	0.647841	-0.710911	0.000149
H360	H	1.147841	-0.210911	0.500149
H361	H	0.646906	-0.802377	0.000135
H362	H	1.146906	-0.302377	0.500135
H363	H	0.321293	0.144551	0.000110
H364	H	0.821293	0.644551	0.500110
H365	H	0.693341	-0.576544	0.000152
H366	H	1.193341	-0.076544	0.500152
H367	H	0.487888	-0.688846	0.000080
H368	H	0.987888	-0.188846	0.500080
H369	H	-0.033711	-0.063365	0.000200
H370	H	0.466289	0.436635	0.500200
C371	C	-0.198774	-0.072215	0.000197
C372	C	0.301226	0.427785	0.500197
C373	C	-0.171332	-0.033199	0.000197
C374	C	0.328668	0.466801	0.500197
H375	H	-0.177546	-0.101958	0.000185
H376	H	0.322454	0.398042	0.500185
H377	H	-0.218685	-0.070584	0.059875
H378	H	0.281315	0.429416	0.559875
H379	H	-0.218696	-0.070567	-0.059481
H380	H	0.281304	0.429433	0.440519
H381	H	-0.151412	-0.034845	0.059879
H382	H	0.348588	0.465155	0.559879
H383	H	-0.151412	-0.034831	-0.059488
H384	H	0.348588	0.465169	0.440512
C385	C	-0.234962	0.190231	0.000147
C386	C	0.265038	0.690231	0.500147
C387	C	-0.196851	0.151875	0.000156
C388	C	0.303149	0.651875	0.500156
H389	H	-0.221984	0.220318	0.000150
H390	H	0.278016	0.720318	0.500150
H391	H	-0.254371	0.188200	-0.059531
H392	H	0.245629	0.688200	0.440469
H393	H	-0.254374	0.188190	0.059826
H394	H	0.245626	0.688190	0.559826
H395	H	-0.177442	0.153913	-0.059527
H396	H	0.322558	0.653913	0.440473
H397	H	-0.177435	0.153906	0.059840
H398	H	0.322565	0.653906	0.559840
H399	H	0.446173	-0.450852	0.000073
H400	H	0.946173	0.049148	0.500073
H401	H	0.023502	0.185672	0.000158
H402	H	0.523502	0.685672	0.500158
H403	H	-0.293772	0.138311	0.000163
H404	H	0.206228	0.638311	0.500163
