data_functionalizedCrystal
_audit_creation_method	'MofGen! by Chris Wilmer'
_symmetry_space_group_name_H-M	'P1'
_symmetry_Int_Tables_number	1
_symmetry_cell_setting	triclinic
loop_
_symmetry_equiv_pos_as_xyz
  x,y,z
_cell_length_a	14.853567
_cell_length_b	14.853576
_cell_length_c	13.930277
_cell_angle_alpha	90.003493
_cell_angle_beta	90.004245
_cell_angle_gamma	83.636707
loop_
_atom_site_label
_atom_site_type_symbol
_atom_site_fract_x
_atom_site_fract_y
_atom_site_fract_z
O1	O	1.196372	0.117703	0.079762
O2	O	0.933913	0.131724	0.079779
O3	O	1.072149	-0.006516	0.079766
O4	O	1.058136	0.255943	0.079775
O5	O	1.072130	-0.006518	-0.079896
O6	O	0.933894	0.131721	-0.079883
O7	O	1.196353	0.117700	-0.079899
Zn8	Zn	1.065120	0.124710	-0.105241
Zn9	Zn	1.065146	0.124714	0.105120
O10	O	1.058117	0.255940	-0.079887
C11	C	0.900315	0.131088	-0.000050
C12	C	0.800231	0.129184	-0.000044
C13	C	1.071503	-0.040106	-0.000064
C14	C	1.069596	-0.140189	-0.000060
C15	C	1.068709	-0.187202	0.086976
C16	C	1.068699	-0.187219	-0.087094
C17	C	1.066912	-0.281253	-0.087094
C18	C	1.066025	-0.328266	-0.000058
C19	C	1.066925	-0.281245	0.086979
C20	C	1.066021	-0.328282	-0.174128
C21	C	1.064235	-0.422322	-0.174132
C22	C	1.063342	-0.469336	-0.087095
C23	C	1.064241	-0.422309	-0.000055
C24	C	1.063354	-0.469323	0.086981
C25	C	1.064246	-0.422297	0.174022
C26	C	1.066032	-0.328260	0.174016
C27	C	1.061557	-0.563373	-0.087088
C28	C	1.061570	-0.563366	0.086984
C29	C	0.387694	0.039018	-0.000068
C30	C	0.366418	0.203251	-0.000062
C31	C	0.460452	0.205041	-0.000059
C32	C	0.518111	0.123818	-0.000059
C33	C	0.481737	0.040806	-0.000062
C34	C	0.496834	0.288052	-0.000046
C35	C	0.590873	0.289845	-0.000042
C36	C	0.648534	0.208622	-0.000049
C37	C	0.612154	0.125606	-0.000053
C38	C	0.669814	0.044384	-0.000053
C39	C	0.633436	-0.038633	-0.000064
C40	C	0.539398	-0.040417	-0.000069
C41	C	0.742572	0.210406	-0.000044
C42	C	0.763856	0.046171	-0.000047
C43	C	1.229951	0.118337	-0.000069
C44	C	1.330035	0.120241	-0.000068
C45	C	1.058763	0.289530	-0.000055
C46	C	1.060670	0.389613	-0.000052
N47	N	1.065110	0.124707	-0.248807
C48	C	1.003932	0.185903	-0.701071
C49	C	1.126384	0.063519	-0.701051
C50	C	1.126373	0.063516	-0.600556
C51	C	1.065142	0.124708	-0.550313
C52	C	1.003921	0.185904	-0.600566
C53	C	1.187598	0.002328	-0.550295
C54	C	1.187591	0.002323	-0.449793
C55	C	1.126355	0.063512	-0.399549
C56	C	1.065131	0.124709	-0.449808
C57	C	1.003900	0.185902	-0.399565
C58	C	0.942671	0.247095	-0.449823
C59	C	0.942685	0.247093	-0.550322
C60	C	1.126341	0.063515	-0.299050
C61	C	1.003889	0.185902	-0.299060
N62	N	1.065163	0.124710	0.248686
H63	H	1.063530	-0.460588	0.244887
O64	O	0.352318	-0.041597	0.000092
C65	C	0.298539	-0.047537	0.082764
H66	H	0.320836	-0.000398	0.140565
H67	H	0.224411	-0.026833	0.064061
C68	C	0.282422	-0.203566	0.049261
C69	C	0.309813	-0.145675	0.120257
H70	H	0.289372	-0.264102	0.072387
H71	H	0.318651	-0.199564	-0.006438
H72	H	0.220651	-0.186302	0.033682
H73	H	0.371586	-0.162933	0.135826
H74	H	0.273594	-0.149682	0.175960
O75	O	1.069423	-0.141627	-0.171691
C76	C	0.990944	-0.154481	-0.224611
H77	H	0.963652	-0.219396	-0.199869
H78	H	0.937316	-0.094485	-0.212519
C79	C	1.048047	-0.082147	-0.362561
C80	C	1.014531	-0.161882	-0.332178
H81	H	1.062594	-0.086709	-0.428914
H82	H	1.100918	-0.073484	-0.326908
H83	H	1.003352	-0.032158	-0.352477
H84	H	1.059230	-0.211867	-0.342251
H85	H	0.961667	-0.170554	-0.367836
H86	H	0.620483	0.357442	-0.000033
H87	H	0.772186	0.277997	-0.000037
H88	H	1.066762	-0.289963	0.244879
H89	H	0.892820	0.296922	-0.408904
H90	H	0.319467	0.269378	-0.000054
O91	O	0.689321	-0.117614	-0.000019
C92	C	0.637057	-0.191271	-0.000055
H93	H	0.566899	-0.168481	0.030161
H94	H	0.630337	-0.216713	-0.076656
C95	C	0.769982	-0.296140	0.025450
C96	C	0.683816	-0.268150	0.062570
H97	H	0.798826	-0.343565	0.064077
H98	H	0.805195	-0.246517	0.025472
H99	H	0.764371	-0.317336	-0.038383
H100	H	0.689429	-0.246945	0.126397
H101	H	0.648605	-0.317772	0.062561
H102	H	0.449881	0.354178	-0.000036
H103	H	1.060841	-0.601637	0.157860
O104	O	0.883181	0.306411	-0.599250
C105	C	0.827503	0.258025	-0.657385
H106	H	0.863322	0.187542	-0.672432
H107	H	0.760859	0.251782	-0.618676
C108	C	0.764328	0.395384	-0.734374
C109	C	0.808325	0.308818	-0.752861
H110	H	0.752494	0.426716	-0.793266
H111	H	0.801836	0.427983	-0.695205
H112	H	0.708796	0.390169	-0.702114
H113	H	0.863860	0.314034	-0.785110
H114	H	0.770825	0.276221	-0.792038
H115	H	0.509770	-0.108005	-0.000101
O116	O	0.944497	0.245472	-0.250302
C117	C	0.959246	0.334744	-0.274876
H118	H	1.031425	0.335317	-0.302491
H119	H	0.909316	0.361126	-0.333220
C120	C	0.856652	0.395141	-0.151684
C121	C	0.945306	0.395847	-0.185594
H122	H	0.848050	0.432834	-0.096613
H123	H	0.846713	0.334997	-0.135130
H124	H	0.815054	0.417124	-0.200313
H125	H	0.986902	0.373853	-0.136970
H126	H	0.955253	0.455988	-0.202138
H127	H	0.954078	0.235723	-0.741993
O128	O	0.819827	-0.032754	0.000124
C129	C	0.803300	-0.083157	0.082796
H130	H	0.771222	-0.035602	0.140591
H131	H	0.755350	-0.135396	0.064090
C132	C	0.932754	-0.190296	0.049314
C133	C	0.893361	-0.131887	0.120302
H134	H	0.988306	-0.220359	0.072448
H135	H	0.943886	-0.156341	-0.006386
H136	H	0.892786	-0.233820	0.033732
H137	H	0.933324	-0.088357	0.135873
H138	H	0.882237	-0.165835	0.176006
O139	O	1.246945	-0.057198	-0.599150
C140	C	1.198590	-0.112885	-0.657308
H141	H	1.127496	-0.114539	-0.627019
H142	H	1.193892	-0.084671	-0.733470
C143	C	1.335470	-0.207561	-0.696070
C144	C	1.248154	-0.209599	-0.658864
H145	H	1.366044	-0.267218	-0.697034
H146	H	1.368048	-0.170042	-0.656891
H147	H	1.331543	-0.184045	-0.759535
H148	H	1.252082	-0.233103	-0.595396
H149	H	1.215577	-0.247124	-0.698033
O150	O	1.247094	-0.057209	-0.401127
C151	C	1.301155	-0.111201	-0.467024
H152	H	1.264204	-0.112282	-0.538673
H153	H	1.368162	-0.081806	-0.477692
C154	C	1.364992	-0.207099	-0.339810
C155	C	1.319604	-0.208433	-0.427809
H156	H	1.376377	-0.267075	-0.315620
H157	H	1.328573	-0.170722	-0.295413
H158	H	1.420827	-0.182599	-0.348712
H159	H	1.263767	-0.232922	-0.418904
H160	H	1.356015	-0.244817	-0.472204
H161	H	1.176241	0.013702	-0.741962
O162	O	1.185697	0.004061	-0.250113
C163	C	1.137365	-0.051670	-0.191999
H164	H	1.066853	-0.015916	-0.176967
H165	H	1.131193	-0.118327	-0.230719
C166	C	1.274762	-0.114715	-0.114981
C167	C	1.188160	-0.070798	-0.096512
H168	H	1.306096	-0.126518	-0.056082
H169	H	1.307325	-0.077170	-0.154136
H170	H	1.269606	-0.170258	-0.147250
H171	H	1.193318	-0.015251	-0.064254
H172	H	1.155599	-0.108333	-0.057349
O173	O	1.066737	-0.282683	-0.258722
C174	C	0.988259	-0.295545	-0.311639
H175	H	0.960981	-0.360470	-0.286904
H176	H	0.934622	-0.235559	-0.299538
C177	C	1.045339	-0.223183	-0.449583
C178	C	1.011841	-0.302929	-0.419209
H179	H	1.059884	-0.227734	-0.515938
H180	H	1.098210	-0.214514	-0.413931
H181	H	1.000637	-0.173202	-0.439490
H182	H	1.056547	-0.352906	-0.429291
H183	H	0.958978	-0.311607	-0.454865
H184	H	1.063508	-0.460602	-0.245005
H185	H	1.069433	-0.148909	0.157842
H186	H	1.060833	-0.601658	-0.157955
