data_functionalizedCrystal
_audit_creation_method	'MofGen! by Chris Wilmer'
_symmetry_space_group_name_H-M	'P1'
_symmetry_Int_Tables_number	1
_symmetry_cell_setting	triclinic
loop_
_symmetry_equiv_pos_as_xyz
  x,y,z
_cell_length_a	11.792254
_cell_length_b	10.868271
_cell_length_c	10.654536
_cell_angle_alpha	89.987889
_cell_angle_beta	95.659710
_cell_angle_gamma	90.004308
loop_
_atom_site_label
_atom_site_type_symbol
_atom_site_fract_x
_atom_site_fract_y
_atom_site_fract_z
O1	O	1.507294	0.102353	-0.172206
O2	O	1.176996	0.102359	-0.189930
O3	O	1.349743	0.102314	0.001693
O4	O	1.334547	0.102398	-0.363829
O5	O	1.349728	-0.102331	0.001687
O6	O	1.176980	-0.102286	-0.189936
O7	O	1.507279	-0.102292	-0.172212
Zn8	Zn	1.342127	-0.134781	-0.181075
Zn9	Zn	1.342148	0.134848	-0.181067
O10	O	1.334531	-0.102247	-0.363835
C11	C	1.134695	0.000037	-0.188816
C12	C	1.008674	0.000037	-0.185474
C13	C	0.906331	0.000041	-0.182759
C14	C	0.777937	0.000041	-0.179364
N15	N	1.342121	-0.318795	-0.181080
C16	C	1.342130	-0.430132	-0.181080
C17	C	1.342145	-0.569810	-0.181068
C18	C	1.549580	0.000033	-0.173325
C19	C	1.675600	0.000041	-0.176667
C20	C	1.348622	-0.000016	0.048485
C21	C	1.345288	-0.000040	0.187920
N22	N	1.342162	0.318862	-0.181052
C23	C	1.551852	-0.000063	0.216465
C24	C	1.653563	-0.000089	0.296242
C25	C	1.650424	-0.000109	0.427251
C26	C	1.545563	-0.000100	0.478485
C27	C	1.443852	-0.000074	0.398708
C28	C	1.447002	-0.000057	0.267697
C29	C	1.237290	-0.000043	0.370164
C30	C	1.240427	-0.000031	0.239154
C31	C	1.132429	-0.000034	0.421398
C32	C	1.030715	-0.000017	0.341620
C33	C	1.033859	0.000003	0.210604
C34	C	1.138716	-0.000005	0.159377
C35	C	1.335657	0.000039	0.589374
C36	C	1.339002	-0.000069	0.449941
H37	H	1.738939	-0.000107	0.254512
C38	C	0.853660	-0.105188	0.357640
C39	C	0.915460	-0.000001	0.397933
H40	H	0.782502	-0.105172	0.392403
H41	H	0.895568	-0.176546	0.384991
H42	H	0.840982	-0.105169	0.268198
H43	H	0.928145	-0.000025	0.487375
H44	H	0.873542	0.071375	0.370589
H45	H	1.141285	0.000003	0.052704
H46	H	1.733246	-0.000121	0.492207
C47	C	1.597320	0.105079	0.673911
C48	C	1.542116	-0.000111	0.622494
H49	H	1.595196	0.105067	0.762816
H50	H	1.559889	0.176435	0.638998
H51	H	1.674321	0.105060	0.654803
H52	H	1.465113	-0.000088	0.641594
H53	H	1.579545	-0.071485	0.657419
H54	H	1.129880	-0.000043	0.528074
C55	C	0.858776	0.105239	0.145944
C56	C	0.922051	0.000033	0.122918
H57	H	0.789747	0.105252	0.091818
H58	H	0.901742	0.176584	0.130323
H59	H	0.841912	0.105218	0.231306
H60	H	0.938922	0.000059	0.037558
H61	H	0.879076	-0.071330	0.138529
H62	H	1.554418	-0.000063	0.109791
