data_functionalizedCrystal
_audit_creation_method	'MofGen! by Chris Wilmer'
_symmetry_space_group_name_H-M	'P1'
_symmetry_Int_Tables_number	1
_symmetry_cell_setting	triclinic
loop_
_symmetry_equiv_pos_as_xyz
  x,y,z
_cell_length_a	12.759395
_cell_length_b	12.645330
_cell_length_c	12.759387
_cell_angle_alpha	89.970586
_cell_angle_beta	89.979491
_cell_angle_gamma	90.019229
loop_
_atom_site_label
_atom_site_type_symbol
_atom_site_fract_x
_atom_site_fract_y
_atom_site_fract_z
Zn1	Zn	1.606247	-0.421940	-0.594015
Zn2	Zn	1.606128	-0.599242	-0.418340
Zn3	Zn	1.430545	-0.421998	-0.418352
Zn4	Zn	1.430528	-0.599167	-0.593979
O5	O	1.518362	-0.510587	-0.506172
O6	O	1.753252	-0.445467	-0.570722
O7	O	1.582794	-0.575786	-0.271320
O8	O	1.453909	-0.273643	-0.441674
O9	O	1.753165	-0.575730	-0.441654
O10	O	1.582996	-0.273600	-0.570733
O11	O	1.453794	-0.445565	-0.271329
O12	O	1.283522	-0.445492	-0.441639
O13	O	1.453880	-0.575601	-0.741005
O14	O	1.283509	-0.575657	-0.570672
O15	O	1.582980	-0.445394	-0.741032
O16	O	1.582778	-0.747579	-0.441619
O17	O	1.453765	-0.747524	-0.570660
C18	C	1.245395	-0.510574	-0.506153
C19	C	1.128618	-0.510594	-0.506171
C20	C	1.518285	-0.786016	-0.506157
C21	C	1.518349	-0.903846	-0.506186
C22	C	1.128644	-0.646354	-0.640315
C23	C	1.073796	-0.714242	-0.707390
C24	C	0.964074	-0.714255	-0.707403
C25	C	0.909198	-0.646370	-0.640335
C26	C	0.964046	-0.578482	-0.573260
C27	C	1.073770	-0.578478	-0.573253
C28	C	0.964020	-0.442718	-0.439123
C29	C	1.073742	-0.442709	-0.439103
C30	C	0.909144	-0.374833	-0.372056
C31	C	0.963992	-0.306948	-0.304974
C32	C	1.073720	-0.306939	-0.304963
C33	C	1.128590	-0.374820	-0.372028
C34	C	1.437522	-1.071420	-0.587616
C35	C	1.437108	-0.948860	-0.587354
C36	C	1.488373	-0.948450	-0.395464
C37	C	1.487880	-1.071049	-0.395958
C38	C	1.629646	-1.070930	-0.534579
C39	C	1.628964	-0.948323	-0.537001
C40	C	1.792395	-0.510600	-0.506190
C41	C	1.909172	-0.510606	-0.506198
C42	C	1.518441	-0.510483	-0.780205
C43	C	1.518475	-0.510438	-0.896982
C44	C	1.518468	-0.234081	-0.506209
C45	C	1.518513	-0.116251	-0.506225
C46	C	1.652916	-0.374862	-0.897029
C47	C	1.720151	-0.307058	-0.951914
C48	C	1.720176	-0.307019	-1.061636
C49	C	1.652958	-0.374790	-1.116475
C50	C	1.585723	-0.442594	-1.061591
C51	C	1.585707	-0.442627	-0.951867
C52	C	1.451278	-0.578163	-1.061543
C53	C	1.451256	-0.578209	-0.951822
C54	C	1.384059	-0.645934	-1.116383
C55	C	1.316828	-0.713745	-1.061498
C56	C	1.316806	-0.713781	-0.951770
C57	C	1.384021	-0.646013	-0.896937
C58	C	1.518344	-0.510614	-0.233204
C59	C	1.518513	-0.510359	-0.116428
H60	H	1.217985	-0.646358	-0.640303
H61	H	1.118488	-0.769511	-0.761996
C62	C	1.794133	-0.232436	-1.122015
C63	C	1.794154	-0.232399	-1.242705
C64	C	1.868109	-0.157816	-1.303085
C65	C	1.942044	-0.083269	-1.242775
C66	C	1.942026	-0.083303	-1.122078
C67	C	1.868071	-0.157886	-1.061698
H68	H	1.739420	-0.287586	-1.287357
H69	H	1.868122	-0.157791	-1.392433
H70	H	1.996791	-0.028058	-1.287472
H71	H	1.996760	-0.028116	-1.077427
H72	H	1.868058	-0.157911	-0.972350
H73	H	1.544310	-1.100709	-0.333248
H74	H	1.456104	-1.100824	-0.669985
C75	C	1.462376	-0.908105	-0.698278
C76	C	1.483079	-0.987114	-0.787717
C77	C	1.508313	-0.946365	-0.898654
C78	C	1.512845	-0.826609	-0.920153
C79	C	1.492143	-0.747593	-0.830711
C80	C	1.466908	-0.788341	-0.719774
H81	H	1.479724	-1.075772	-0.771806
H82	H	1.523639	-1.004859	-0.964865
H83	H	1.531525	-0.796444	-1.002275
H84	H	1.495497	-0.658935	-0.846623
H85	H	1.451583	-0.729848	-0.653564
H86	H	1.384081	-0.645893	-1.205724
C87	C	1.242844	-0.788368	-0.891401
C88	C	1.168913	-0.862906	-0.951726
C89	C	1.094950	-0.937494	-0.891361
C90	C	1.094918	-0.937545	-0.770671
C91	C	1.168852	-0.863005	-0.710339
C92	C	1.242816	-0.788416	-0.770704
H93	H	1.168934	-0.862871	-1.041074
H94	H	1.040219	-0.992674	-0.936024
H95	H	1.040166	-0.992760	-0.725986
H96	H	1.168831	-0.863040	-0.620991
H97	H	1.297547	-0.733237	-0.726041
H98	H	1.262098	-0.768912	-1.106157
H99	H	0.919417	-0.769531	-0.762026
H100	H	1.545493	-0.919295	-0.333165
C101	C	1.134049	-0.232256	-0.231180
C102	C	1.073684	-0.157591	-0.157417
C103	C	1.134008	-0.082906	-0.083633
C104	C	1.254698	-0.082887	-0.083612
C105	C	1.315070	-0.157556	-0.157378
C106	C	1.254746	-0.232240	-0.231162
H107	H	0.984336	-0.157602	-0.157430
H108	H	1.089316	-0.027632	-0.029027
H109	H	1.299354	-0.027601	-0.028993
H110	H	1.404418	-0.157544	-0.157365
H111	H	1.299438	-0.287515	-0.285768
H112	H	0.819857	-0.646378	-0.640361
H113	H	0.819803	-0.374843	-0.372076
H114	H	0.919303	-0.251676	-0.250379
H115	H	1.217931	-0.374822	-0.372023
C116	C	1.326911	-1.113167	-0.562574
C117	C	1.309882	-1.187715	-0.468623
C118	C	1.199274	-1.229467	-0.443581
C119	C	1.105695	-1.196671	-0.512488
C120	C	1.122722	-1.122118	-0.606445
C121	C	1.233330	-1.080366	-0.631488
H122	H	1.379157	-1.211996	-0.417608
H123	H	1.186671	-1.284656	-0.374028
H124	H	1.023816	-1.227578	-0.493950
H125	H	1.053446	-1.097837	-0.657460
H126	H	1.245933	-1.025177	-0.701041
H127	H	1.651570	-0.919166	-0.618486
C128	C	1.325809	-0.909360	-0.561973
C129	C	1.237028	-0.989370	-0.541873
C130	C	1.125724	-0.949870	-0.516489
C131	C	1.103200	-0.830360	-0.511204
C132	C	1.191983	-0.750342	-0.531305
C133	C	1.303288	-0.789842	-0.556689
H134	H	1.253700	-1.077846	-0.545784
H135	H	1.060001	-1.009106	-0.501609
H136	H	1.020806	-0.801120	-0.492413
H137	H	1.175312	-0.661867	-0.527394
H138	H	1.369010	-0.730607	-0.571569
H139	H	1.406640	-1.099744	-0.371938
H140	H	1.407980	-0.917843	-0.371009
C141	C	1.714768	-0.907007	-0.462689
C142	C	1.685766	-0.831818	-0.372325
C143	C	1.771560	-0.790542	-0.297975
C144	C	1.886357	-0.824454	-0.313989
C145	C	1.915364	-0.899648	-0.404357
C146	C	1.829570	-0.940924	-0.478707
H147	H	1.600782	-0.806711	-0.360467
H148	H	1.750086	-0.734879	-0.231078
H149	H	1.949867	-0.793899	-0.258950
H150	H	2.000348	-0.924755	-0.416215
H151	H	1.851044	-0.996587	-0.545604
H152	H	1.652975	-0.374743	-1.205816
H153	H	1.656990	-1.101767	-0.613945
H154	H	1.652912	-0.374897	-0.807688
H155	H	1.689986	-1.099922	-0.475299
H156	H	1.774877	-0.251879	-0.907251
H157	H	1.384014	-0.646041	-0.807596
