data_functionalizedCrystal
_audit_creation_method	'MofGen! by Chris Wilmer'
_symmetry_space_group_name_H-M	'P1'
_symmetry_Int_Tables_number	1
_symmetry_cell_setting	triclinic
loop_
_symmetry_equiv_pos_as_xyz
  x,y,z
_cell_length_a	18.101395
_cell_length_b	19.077142
_cell_length_c	19.076919
_cell_angle_alpha	90.074357
_cell_angle_beta	87.727683
_cell_angle_gamma	92.273342
loop_
_atom_site_label
_atom_site_type_symbol
_atom_site_fract_x
_atom_site_fract_y
_atom_site_fract_z
Zn1	Zn	-0.358289	-1.058229	0.440456
Zn2	Zn	-0.477362	-1.062856	0.322951
Zn3	Zn	-0.348367	-0.945448	0.318246
Zn4	Zn	-0.476913	-0.940678	0.435699
O5	O	-0.415233	-1.001803	0.379338
O6	O	-0.378425	-1.157174	0.428829
O7	O	-0.456285	-1.051214	0.223995
O8	O	-0.246053	-0.960469	0.334479
O9	O	-0.465907	-1.160573	0.342498
O10	O	-0.253343	-1.043329	0.424266
O11	O	-0.361513	-0.964955	0.220539
O12	O	-0.361078	-0.846484	0.329866
O13	O	-0.465142	-0.952339	0.534661
O14	O	-0.455521	-0.842980	0.416159
O15	O	-0.377990	-1.038703	0.538156
O16	O	-0.580932	-1.046589	0.337885
O17	O	-0.580602	-0.956825	0.420721
C18	C	-0.607638	-1.001710	0.379313
C19	C	-0.689954	-1.001733	0.379329
C20	C	-0.407175	-0.819236	0.371986
C21	C	-0.403746	-0.741132	0.368858
C22	C	-0.422623	-0.994473	0.562618
C23	C	-0.425772	-0.991349	0.640721
C24	C	-0.989053	-1.001886	0.379373
C25	C	-0.957562	-0.945529	0.431631
C26	C	-0.871926	-0.945279	0.431450
C27	C	-0.840667	-1.001810	0.379352
C28	C	-0.867928	-0.984740	0.304491
C29	C	-0.953571	-0.984378	0.304802
C30	C	-0.961442	-1.075457	0.401329
C31	C	-0.875838	-1.074955	0.402936
C32	C	-0.756805	-1.001769	0.379335
C33	C	-1.072915	-1.001926	0.379385
C34	C	-0.222077	-1.001915	0.379379
C35	C	-0.139766	-1.001963	0.379396
C36	C	-0.451375	-0.702635	0.412245
C37	C	-0.448143	-0.629248	0.409309
C38	C	-0.397286	-0.594360	0.362982
C39	C	-0.349652	-0.632862	0.319592
C40	C	-0.352881	-0.706247	0.322532
C41	C	-0.382348	-0.375075	0.349382
C42	C	-0.379125	-0.301684	0.346443
C43	C	-0.477615	-0.298076	0.436161
C44	C	-0.480842	-0.371463	0.439094
C45	C	-0.433205	-0.409958	0.395708
N46	N	-0.393984	-0.519347	0.359978
N47	N	-0.436505	-0.484970	0.398716
C48	C	-0.423318	-0.185083	0.386710
C49	C	-0.426753	-0.263187	0.389831
C50	C	-0.407820	-1.009145	0.196773
C51	C	-0.404468	-1.012405	0.118675
C52	C	-0.381878	-1.034844	0.679235
C53	C	-0.384834	-1.031901	0.752620
C54	C	-0.431688	-0.985465	0.787491
C55	C	-0.475584	-0.941964	0.748972
C56	C	-0.472624	-0.944905	0.675588
C57	C	-0.445403	-0.971845	1.006772
C58	C	-0.448362	-0.968909	1.080162
C59	C	-0.357610	-1.058845	1.083805
C60	C	-0.354658	-1.061785	1.010419
C61	C	-0.398550	-1.018282	0.971906
N62	N	-0.434712	-0.982456	0.862503
N63	N	-0.395522	-1.021287	0.896895
H64	H	-0.853645	-0.955614	0.486866
Cl65	Cl	-0.500584	-0.917156	0.958365
H66	H	-0.522257	-0.399864	0.476818
H67	H	-0.858354	-1.087881	0.458044
Cl68	Cl	-0.537498	-0.249677	0.490700
Cl69	Cl	-0.830235	-0.902749	0.275900
Cl70	Cl	-0.507265	-0.910524	1.123998
Cl71	Cl	-0.534484	-0.883585	0.792810
Cl72	Cl	-0.527805	-0.890220	0.627170
Cl73	Cl	-0.285712	-0.589002	0.261356
Cl74	Cl	-0.293000	-0.754644	0.267987
Cl75	Cl	-0.508023	-0.580855	0.463856
Cl76	Cl	-0.992981	-1.140229	0.342633
Cl77	Cl	-0.993587	-0.961277	0.517458
H78	H	-0.316506	-1.099600	0.982032
H79	H	-0.848565	-0.890686	0.416671
Cl80	Cl	-0.986403	-0.861751	0.409094
H81	H	-0.974248	-1.023806	0.264378
Cl82	Cl	-0.979815	-0.901482	0.276624
Cl83	Cl	-0.836467	-1.046321	0.242532
Cl84	Cl	-0.999279	-1.100382	0.484417
H85	H	-0.854805	-1.118925	0.367885
Cl86	Cl	-0.515316	-0.746488	0.470486
H87	H	-0.337702	-0.273280	0.308722
Cl88	Cl	-0.302432	-1.113528	1.132224
Cl89	Cl	-0.322459	-0.423459	0.294840
Cl90	Cl	-0.322976	-1.093228	0.635404
Cl91	Cl	-0.329684	-1.086615	0.801036
