data_functionalizedCrystal
_audit_creation_method	'MofGen! by Chris Wilmer'
_symmetry_space_group_name_H-M	'P1'
_symmetry_Int_Tables_number	1
_symmetry_cell_setting	triclinic
loop_
_symmetry_equiv_pos_as_xyz
  x,y,z
_cell_length_a	19.288835
_cell_length_b	18.366186
_cell_length_c	19.288865
_cell_angle_alpha	89.987206
_cell_angle_beta	83.130103
_cell_angle_gamma	89.992441
loop_
_atom_site_label
_atom_site_type_symbol
_atom_site_fract_x
_atom_site_fract_y
_atom_site_fract_z
O1	O	-0.921356	0.060701	-0.086552
O2	O	-0.719092	0.060672	-0.098262
O3	O	-0.826068	0.060673	0.008724
O4	O	-0.814379	0.060700	-0.193538
O5	O	-0.826071	-0.060427	0.008734
O6	O	-0.719095	-0.060427	-0.098252
O7	O	-0.921358	-0.060399	-0.086541
Zn8	Zn	-0.820227	-0.079640	-0.092395
Zn9	Zn	-0.820224	0.079913	-0.092409
O10	O	-0.814382	-0.060399	-0.193528
C11	C	-0.693217	0.000118	-0.097884
C12	C	-0.616112	0.000107	-0.096763
C13	C	-0.579907	0.066119	-0.096230
C14	C	-0.507460	0.066126	-0.095170
C15	C	-0.471222	0.000117	-0.094628
C16	C	-0.507436	-0.065904	-0.095165
C17	C	-0.579880	-0.065909	-0.096232
C18	C	-0.361895	-0.050452	-0.052248
C19	C	-0.289453	-0.050444	-0.051176
C20	C	-0.247778	0.000131	-0.091338
C21	C	-0.278557	0.050710	-0.132563
C22	C	-0.351001	0.050705	-0.133631
C23	C	-0.392668	0.000116	-0.093470
C24	C	-0.133018	0.066155	-0.089656
C25	C	-0.060569	0.066159	-0.088599
C26	C	-0.060547	-0.065872	-0.088587
C27	C	-0.132993	-0.065875	-0.089651
C28	C	-0.169225	0.000141	-0.090182
C29	C	-0.825694	0.000121	0.034606
C30	C	-0.824565	0.000114	0.111709
C31	C	0.052767	0.000151	-0.086924
C32	C	-0.024336	0.000150	-0.088059
N33	N	-0.820222	0.188805	-0.092413
N34	N	-0.820234	-0.188531	-0.092385
C35	C	-0.867675	0.226905	-0.045131
C36	C	-0.867681	0.303133	-0.045130
C37	C	-0.820222	0.341257	-0.092403
C38	C	-0.772765	0.303147	-0.139694
C39	C	-0.772765	0.226921	-0.139698
C40	C	-0.756934	0.462016	-0.101555
C41	C	-0.756933	0.538241	-0.101546
C42	C	-0.820222	0.576365	-0.092393
C43	C	-0.883515	0.538254	-0.083235
C44	C	-0.883515	0.462028	-0.083240
C45	C	-0.820217	0.423912	-0.092404
C46	C	-0.867686	0.697121	-0.045107
C47	C	-0.867693	0.773350	-0.045111
C48	C	-0.772771	0.773362	-0.139671
C49	C	-0.772770	0.697135	-0.139671
C50	C	-0.820227	0.659018	-0.092385
C51	C	-0.814757	0.000154	-0.219409
C52	C	-0.815886	0.000165	-0.296513
C53	C	-0.887333	0.000120	0.156412
C54	C	-0.886273	0.000131	0.228859
C55	C	-0.822440	0.000122	0.256600
C56	C	-0.759662	0.000121	0.211887
C57	C	-0.760725	0.000117	0.139441
C58	C	-0.772260	-0.042303	0.364885
C59	C	-0.771200	-0.042304	0.437330
C60	C	-0.819160	0.000138	0.480045
C61	C	-0.868191	0.042571	0.450308
C62	C	-0.869254	0.042567	0.377863
C63	C	-0.821280	0.000127	0.335154
C64	C	-0.880783	0.000157	0.603304
C65	C	-0.879720	0.000173	0.675752
C66	C	-0.753108	0.000156	0.658778
C67	C	-0.754173	0.000147	0.586332
C68	C	-0.818012	0.000144	0.558599
H69	H	-0.162518	0.119909	-0.090095
H70	H	-0.907244	0.077132	0.485086
H71	H	-0.395822	-0.091640	-0.019541
H72	H	-0.734122	0.195899	-0.178201
H73	H	-0.906330	0.666085	-0.006606
O74	O	-0.615142	-0.129990	-0.096652
C75	C	-0.665097	-0.133958	-0.037113
H76	H	-0.678647	-0.076645	-0.017227
H77	H	-0.642817	-0.166538	0.005414
C78	C	-0.714816	-0.242093	-0.080813
C79	C	-0.731462	-0.171700	-0.056391
H80	H	-0.755752	-0.265377	-0.092703
H81	H	-0.681159	-0.239422	-0.120924
H82	H	-0.696248	-0.269233	-0.045369
H83	H	-0.750022	-0.144558	-0.091838
H84	H	-0.765124	-0.174367	-0.016286
H85	H	-0.932765	0.000158	0.580723
O86	O	-0.726601	0.660232	-0.185622
C87	C	-0.684724	0.710224	-0.227360
H88	H	-0.684084	0.764553	-0.198873
H89	H	-0.707010	0.718349	-0.278953
C90	C	-0.610527	0.613741	-0.276726
C91	C	-0.609736	0.680466	-0.241735
H92	H	-0.564271	0.595384	-0.285597
H93	H	-0.638741	0.580059	-0.248608
H94	H	-0.629102	0.620521	-0.319716
H95	H	-0.591170	0.673684	-0.198742
H96	H	-0.581517	0.714146	-0.269846
H97	H	-0.031091	0.119917	-0.088170
H98	H	-0.909175	0.077119	0.353655
H99	H	-0.939316	0.000120	0.133837
O100	O	-0.380854	0.099759	-0.173785
C101	C	-0.353639	0.090230	-0.244348
H102	H	-0.332583	0.032467	-0.252442
H103	H	-0.309593	0.130884	-0.258690
C104	C	-0.437714	0.173874	-0.281181
C105	C	-0.411858	0.102928	-0.291123
H106	H	-0.473624	0.181710	-0.310034
H107	H	-0.456048	0.180297	-0.233641
H108	H	-0.401003	0.207745	-0.293132
H109	H	-0.448567	0.069059	-0.279163
H110	H	-0.393531	0.096499	-0.338662
O111	O	-0.945007	0.575260	-0.074232
C112	C	-0.982021	0.556631	-0.009155
H113	H	-0.943946	0.535655	0.027101
H114	H	-1.021839	0.512405	-0.016905
C115	C	-1.066865	0.650124	-0.021107
C116	C	-1.020099	0.624366	0.023425
H117	H	-1.090356	0.691904	-0.001010
H118	H	-1.041930	0.662673	-0.064951
H119	H	-1.100040	0.613262	-0.027561
H120	H	-0.986920	0.661224	0.029872
H121	H	-1.045029	0.611825	0.067272
H122	H	-0.935051	0.431001	-0.075785
H123	H	-0.031042	-0.119618	-0.088150
O124	O	-0.940761	0.000146	0.719080
C125	C	-0.997330	0.000160	0.679064
H126	H	-0.979528	-0.022773	0.624941
H127	H	-1.016913	0.058257	0.673950
C128	C	-1.078585	-0.019160	0.781843
C129	C	-1.056721	-0.047332	0.715371
H130	H	-1.115222	-0.048452	0.804240
H131	H	-1.040474	-0.019166	0.808804
H132	H	-1.094899	0.029254	0.777573
H133	H	-1.040400	-0.095741	0.719642
H134	H	-1.094832	-0.047335	0.688411
H135	H	-0.244626	0.091890	-0.165270
H136	H	-0.162473	-0.119629	-0.090080
O137	O	-0.695392	0.575146	-0.110479
C138	C	-0.639531	0.525154	-0.118552
H139	H	-0.658641	0.470827	-0.137629
H140	H	-0.618661	0.517025	-0.066237
C141	C	-0.557415	0.621639	-0.148839
C142	C	-0.580885	0.554915	-0.172275
H143	H	-0.521238	0.639997	-0.181976
H144	H	-0.595049	0.655320	-0.143398
H145	H	-0.540029	0.614856	-0.105243
H146	H	-0.598279	0.561700	-0.215866
H147	H	-0.543253	0.521235	-0.177725
O148	O	-0.726765	0.810465	-0.185625
C149	C	-0.763740	0.854558	-0.228469
H150	H	-0.818217	0.865978	-0.200753
H151	H	-0.768201	0.825192	-0.279811
C152	C	-0.657605	0.912936	-0.277392
C153	C	-0.724513	0.926968	-0.243349
H154	H	-0.633407	0.957601	-0.286574
H155	H	-0.632694	0.883229	-0.248530
H156	H	-0.661332	0.888463	-0.320173
H157	H	-0.720786	0.951433	-0.200565
H158	H	-0.749423	0.956682	-0.272204
H159	H	-0.703059	0.000139	0.549933
O160	O	-0.695495	0.424899	-0.110342
C161	C	-0.690201	0.380805	-0.051362
H162	H	-0.744651	0.369397	-0.023578
H163	H	-0.657907	0.410162	-0.014198
C164	C	-0.587610	0.322402	-0.108793
C165	C	-0.654487	0.308386	-0.074672
H166	H	-0.565577	0.277732	-0.123171
H167	H	-0.591175	0.352111	-0.148529
H168	H	-0.560707	0.346869	-0.077818
H169	H	-0.681391	0.283928	-0.105650
H170	H	-0.650926	0.278671	-0.034942
H171	H	-0.707689	0.000116	0.234478
H172	H	-0.701133	0.000152	0.681363
H173	H	-0.906339	0.804372	-0.006611
H174	H	-0.734124	0.334192	-0.178186
H175	H	-0.264399	-0.091625	-0.017604
O176	O	-0.947313	0.000102	0.272195
C177	C	-1.003886	0.000120	0.232182
H178	H	-0.986087	-0.022809	0.178058
H179	H	-1.023468	0.058218	0.227075
C180	C	-1.085134	-0.019208	0.334965
C181	C	-1.063275	-0.047375	0.268490
H182	H	-1.121770	-0.048501	0.357362
H183	H	-1.047021	-0.019217	0.361923
H184	H	-1.101449	0.029207	0.330700
H185	H	-1.046953	-0.095784	0.272757
H186	H	-1.101387	-0.047374	0.241533
O187	O	-0.472327	-0.130071	-0.094544
C188	C	-0.498079	-0.170232	-0.034650
H189	H	-0.553372	-0.151469	-0.015377
H190	H	-0.462959	-0.161084	0.008067
C191	C	-0.431049	-0.274854	-0.076633
C192	C	-0.498963	-0.251812	-0.052966
H193	H	-0.431592	-0.325176	-0.087930
H194	H	-0.413697	-0.247796	-0.116984
H195	H	-0.401789	-0.267224	-0.041032
H196	H	-0.528220	-0.259433	-0.088570
H197	H	-0.516320	-0.278873	-0.012622
H198	H	-0.731273	-0.076851	0.461535
O199	O	-0.913849	0.189993	0.000817
C200	C	-0.955725	0.239975	0.042559
H201	H	-0.956357	0.294322	0.014081
H202	H	-0.933444	0.248057	0.094157
C203	C	-1.029935	0.143488	0.091903
C204	C	-1.030716	0.210237	0.056922
H205	H	-1.076193	0.125144	0.100766
H206	H	-1.001722	0.109814	0.063783
H207	H	-1.011365	0.150233	0.134897
H208	H	-1.049278	0.203490	0.013925
H209	H	-1.058935	0.243910	0.085036
H210	H	-0.733204	-0.076868	0.330111
O211	O	-0.472392	0.130318	-0.094623
C212	C	-0.519902	0.188583	-0.095343
H213	H	-0.574490	0.169227	-0.074118
H214	H	-0.520138	0.208890	-0.151170
C215	C	-0.430699	0.274717	-0.075457
C216	C	-0.497743	0.250945	-0.049382
H217	H	-0.417029	0.313187	-0.047109
H218	H	-0.398689	0.235464	-0.074975
H219	H	-0.430904	0.291635	-0.121979
H220	H	-0.497536	0.234019	-0.002864
H221	H	-0.529753	0.290197	-0.049855
O222	O	-0.699703	0.000205	0.096084
C223	C	-0.660939	0.062930	0.108591
H224	H	-0.678166	0.083848	0.163597
H225	H	-0.670313	0.106844	0.068980
C226	C	-0.561503	0.018177	0.033897
C227	C	-0.582657	0.043866	0.101459
H228	H	-0.513215	0.006419	0.029494
H229	H	-0.587619	-0.024081	0.025468
H230	H	-0.569320	0.054776	0.000895
H231	H	-0.574848	0.007264	0.134458
H232	H	-0.556538	0.086117	0.109893
O233	O	-0.913699	0.340255	0.000799
C234	C	-0.876749	0.384342	0.043644
H235	H	-0.822256	0.395737	0.015957
H236	H	-0.872329	0.354984	0.095012
C237	C	-0.982900	0.442768	0.092462
C238	C	-0.915972	0.456770	0.058454
H239	H	-1.007095	0.487444	0.101601
H240	H	-1.007794	0.413065	0.063599
H241	H	-0.979207	0.418302	0.135265
H242	H	-0.919666	0.481228	0.015649
H243	H	-0.891079	0.486479	0.087311
H244	H	-0.609402	0.119874	-0.096663
