data_functionalizedCrystal
_audit_creation_method	'MofGen! by Chris Wilmer'
_symmetry_space_group_name_H-M	'P1'
_symmetry_Int_Tables_number	1
_symmetry_cell_setting	triclinic
loop_
_symmetry_equiv_pos_as_xyz
  x,y,z
_cell_length_a	11.792241
_cell_length_b	10.489741
_cell_length_c	10.868271
_cell_angle_alpha	89.995151
_cell_angle_beta	89.999893
_cell_angle_gamma	84.366295
loop_
_atom_site_label
_atom_site_type_symbol
_atom_site_fract_x
_atom_site_fract_y
_atom_site_fract_z
O1	O	1.507380	0.174832	-0.102202
O2	O	1.177088	0.192851	-0.102231
O3	O	1.349749	-0.001782	-0.102208
O4	O	1.334718	0.369465	-0.102224
O5	O	1.349735	-0.001790	0.102436
O6	O	1.177073	0.192843	0.102414
O7	O	1.507366	0.174825	0.102443
Zn8	Zn	1.342217	0.183833	0.134920
Zn9	Zn	1.342236	0.183843	-0.134708
O10	O	1.334704	0.369457	0.102420
C11	C	1.134786	0.191715	0.000088
C12	C	1.008764	0.188327	0.000077
C13	C	0.778035	0.182098	0.000113
C14	C	0.906429	0.185559	0.000093
C15	C	1.348607	-0.049314	0.000113
C16	C	1.345210	-0.190931	0.000111
C17	C	1.235351	-0.258697	0.000092
C18	C	1.287240	-0.351000	0.100997
C19	C	1.287281	-0.350967	-0.100767
C20	C	1.397145	-0.281369	0.101099
C21	C	1.397170	-0.281327	-0.100755
C22	C	1.449140	-0.373603	0.000174
C23	C	1.549667	0.175960	0.000121
C24	C	1.675690	0.179348	0.000124
C25	C	1.335846	0.416989	0.000096
C26	C	1.339243	0.558607	0.000091
N27	N	1.342213	0.183825	0.318934
N28	N	1.342250	0.183840	-0.318722
C29	C	1.342230	0.183840	0.569940
C30	C	1.342217	0.183835	0.430263
H31	H	1.145025	-0.208738	0.000186
O32	O	1.225670	-0.391870	0.213994
H33	H	1.150758	-0.441095	0.185573
O34	O	1.458653	-0.240761	0.214234
H35	H	1.460651	-0.135196	0.213379
O36	O	1.568886	-0.439501	0.000251
H37	H	1.614194	-0.411627	0.084093
H38	H	1.443621	-0.250437	-0.186060
O39	O	1.225704	-0.391792	-0.213771
H40	H	1.136987	-0.345322	-0.213557
