data_functionalizedCrystal
_audit_creation_method	'MofGen! by Chris Wilmer'
_symmetry_space_group_name_H-M	'P1'
_symmetry_Int_Tables_number	1
_symmetry_cell_setting	triclinic
loop_
_symmetry_equiv_pos_as_xyz
  x,y,z
_cell_length_a	10.654550
_cell_length_b	13.596369
_cell_length_c	10.654551
_cell_angle_alpha	90.003147
_cell_angle_beta	84.485132
_cell_angle_gamma	90.008835
loop_
_atom_site_label
_atom_site_type_symbol
_atom_site_fract_x
_atom_site_fract_y
_atom_site_fract_z
O1	O	1.667843	0.081866	0.176401
O2	O	1.302365	0.081849	0.193207
O3	O	1.493506	0.081858	0.002065
O4	O	1.476702	0.081857	0.367543
O5	O	1.493487	-0.081725	0.002054
O6	O	1.302346	-0.081734	0.193196
O7	O	1.667824	-0.081717	0.176390
Zn8	Zn	1.485082	-0.107698	0.184792
Zn9	Zn	1.485107	0.107830	0.184805
O10	O	1.476682	-0.081726	0.367533
C11	C	1.255557	0.000056	0.191968
C12	C	1.116114	0.000050	0.188276
N13	N	1.485074	-0.254790	0.184782
C14	C	1.036629	0.000064	0.300817
C15	C	0.905608	0.000081	0.297341
C16	C	0.933570	0.000074	0.068771
C17	C	1.064589	0.000050	0.072249
C18	C	1.088154	0.000063	0.416844
C19	C	1.008667	0.000078	0.529395
C20	C	0.877647	0.000095	0.525918
C21	C	0.826112	0.000097	0.409891
C22	C	1.485105	-0.656081	0.184807
C23	C	1.485093	-0.544429	0.184804
C24	C	1.485090	-0.455439	0.184795
C25	C	1.485076	-0.343780	0.184791
C26	C	1.714632	0.000078	0.177629
C27	C	1.854075	0.000091	0.181321
C28	C	1.492263	0.000069	-0.044739
C29	C	1.488570	0.000075	-0.184182
N30	N	1.485125	0.254922	0.184806
C31	C	1.486848	0.089243	-0.249688
C32	C	1.483368	0.089238	-0.380708
C33	C	1.483337	-0.089109	-0.380705
C34	C	1.486808	-0.089103	-0.249686
C35	C	1.488611	0.178422	-0.184184
C36	C	1.486890	0.267596	-0.249690
C37	C	1.483410	0.267591	-0.380711
C38	C	1.481650	0.178412	-0.446224
C39	C	1.477926	0.000065	0.414336
C40	C	1.481619	0.000065	0.553779
H41	H	1.050636	0.000068	0.623860
O42	O	1.481416	-0.175758	-0.444258
C43	C	1.373695	-0.230020	-0.398945
H44	H	1.298764	-0.177847	-0.353649
H45	H	1.400250	-0.285618	-0.325895
C46	C	1.413406	-0.348749	-0.564946
C47	C	1.321370	-0.284668	-0.509323
H48	H	1.381132	-0.382462	-0.633030
H49	H	1.485983	-0.312194	-0.595472
H50	H	1.435527	-0.395071	-0.504059
H51	H	1.299263	-0.238340	-0.570205
H52	H	1.248789	-0.321217	-0.478809
H53	H	0.891600	0.000092	-0.025693
O54	O	1.141628	0.000089	-0.037189
C55	C	1.068059	0.000081	-0.140343
H56	H	0.970579	0.031065	-0.109322
H57	H	1.058391	-0.078395	-0.175861
C58	C	1.252165	0.026172	-0.285048
C59	C	1.132440	0.064235	-0.246950
H60	H	1.291879	0.065741	-0.350812
H61	H	1.301731	0.026173	-0.215553
H62	H	1.244091	-0.039224	-0.314639
H63	H	1.140517	0.129624	-0.217346
H64	H	1.082877	0.064246	-0.316443
O65	O	1.488632	0.354132	-0.185866
C66	C	1.492029	0.335019	-0.056173
H67	H	1.532206	0.258393	-0.043130
H68	H	1.392432	0.339225	-0.006701
C69	C	1.526663	0.506082	-0.014971
C70	C	1.576019	0.411972	0.001048
H71	H	1.578467	0.553552	0.020329
H72	H	1.524370	0.518960	-0.102347
H73	H	1.443666	0.509574	0.026256
H74	H	1.659008	0.408478	-0.040192
H75	H	1.578329	0.399095	0.088419
O76	O	1.488257	-0.175688	-0.185951
C77	C	1.381698	-0.180994	-0.096868
H78	H	1.304776	-0.130397	-0.127091
H79	H	1.408877	-0.157016	-0.000579
C80	C	1.426969	-0.349671	-0.051685
C81	C	1.332488	-0.287533	-0.088811
H82	H	1.396616	-0.415390	-0.046709
H83	H	1.498763	-0.346096	-0.111698
H84	H	1.449610	-0.329678	0.028553
H85	H	1.309860	-0.307519	-0.169054
H86	H	1.260689	-0.291114	-0.028811
O87	O	0.800613	0.000148	0.635360
C88	C	0.874192	0.000116	0.738506
H89	H	0.971698	0.031071	0.707479
H90	H	0.883793	-0.078363	0.774017
C91	C	0.690122	0.026263	0.883229
C92	C	0.809877	0.064289	0.845123
H93	H	0.650448	0.065843	0.948999
H94	H	0.640548	0.026280	0.813739
H95	H	0.698139	-0.039136	0.912814
H96	H	0.801857	0.129681	0.815526
H97	H	0.859448	0.064283	0.914612
O98	O	1.481897	0.354147	-0.444502
C99	C	1.588481	0.359493	-0.533550
H100	H	1.624143	0.282070	-0.557609
H101	H	1.665861	0.403498	-0.492356
C102	C	1.508404	0.505565	-0.624418
C103	C	1.552199	0.410473	-0.653976
H104	H	1.486027	0.537016	-0.698701
H105	H	1.436598	0.501967	-0.564423
H106	H	1.572895	0.542224	-0.590088
H107	H	1.487703	0.373812	-0.688290
H108	H	1.623994	0.414066	-0.713980
H109	H	1.194836	0.000054	0.419687
H110	H	0.719425	0.000096	0.407069
H111	H	1.491448	0.178435	-0.077501
H112	H	1.478798	0.178416	-0.552908
