data_functionalizedCrystal
_audit_creation_method	'MofGen! by Chris Wilmer'
_symmetry_space_group_name_H-M	'P1'
_symmetry_Int_Tables_number	1
_symmetry_cell_setting	triclinic
loop_
_symmetry_equiv_pos_as_xyz
  x,y,z
_cell_length_a	29.839135
_cell_length_b	29.839131
_cell_length_c	29.839125
_cell_angle_alpha	90.017709
_cell_angle_beta	90.015488
_cell_angle_gamma	90.043950
loop_
_atom_site_label
_atom_site_type_symbol
_atom_site_fract_x
_atom_site_fract_y
_atom_site_fract_z
Zn1	Zn	0.686720	-0.178886	0.254047
Zn2	Zn	1.020053	0.154447	0.587381
Zn3	Zn	1.353386	0.487781	0.920714
Zn4	Zn	0.686652	-0.253998	0.178917
Zn5	Zn	1.019985	0.079335	0.512251
Zn6	Zn	1.353318	0.412669	0.845584
Zn7	Zn	0.611602	-0.178886	0.178925
Zn8	Zn	0.944936	0.154447	0.512259
Zn9	Zn	1.278269	0.487781	0.845592
Zn10	Zn	0.611550	-0.253993	0.254014
Zn11	Zn	0.944883	0.079340	0.587347
Zn12	Zn	1.278217	0.412674	0.920681
O13	O	0.649131	-0.216441	0.216476
O14	O	0.982464	0.116893	0.549809
O15	O	1.315798	0.450226	0.883143
O16	O	0.749578	-0.188852	0.244092
O17	O	1.082911	0.144482	0.577425
O18	O	1.416244	0.477815	0.910758
O19	O	0.676690	-0.244036	0.116051
O20	O	1.010023	0.089297	0.449384
O21	O	1.343356	0.422630	0.782718
O22	O	0.621617	-0.116019	0.188908
O23	O	0.954950	0.217314	0.522241
O24	O	1.288284	0.550648	0.855574
O25	O	0.749528	-0.244036	0.188894
O26	O	1.082861	0.089297	0.522227
O27	O	1.416195	0.422630	0.855560
O28	O	0.676805	-0.116019	0.244099
O29	O	1.010139	0.217314	0.577433
O30	O	1.343472	0.550648	0.910766
O31	O	0.621551	-0.188852	0.116057
O32	O	0.954885	0.144481	0.449390
O33	O	1.288218	0.477815	0.782724
O34	O	0.548728	-0.188847	0.188876
O35	O	0.882062	0.144486	0.522209
O36	O	1.215395	0.477819	0.855542
O37	O	0.621528	-0.244028	0.316886
O38	O	0.954861	0.089306	0.650219
O39	O	1.288195	0.422639	0.983552
O40	O	0.548690	-0.244028	0.244043
O41	O	0.882023	0.089305	0.577376
O42	O	1.215357	0.422639	0.910710
O43	O	0.676755	-0.188847	0.316910
O44	O	1.010088	0.144486	0.650243
O45	O	1.343421	0.477820	0.983577
O46	O	0.676639	-0.316865	0.188862
O47	O	1.009972	0.016469	0.522195
O48	O	1.343306	0.349802	0.855528
O49	O	0.621462	-0.316861	0.244035
O50	O	0.954796	0.016473	0.577368
O51	O	1.288129	0.349806	0.910702
C52	C	0.532408	-0.216437	0.216457
C53	C	0.865742	0.116896	0.549790
C54	C	1.199075	0.450229	0.883123
C55	C	0.482474	-0.216447	0.216459
C56	C	0.815807	0.116887	0.549793
C57	C	1.149141	0.450220	0.883126
C58	C	0.172854	-0.187750	0.245260
C59	C	0.506187	0.145584	0.578593
C60	C	0.839520	0.478917	0.911926
C61	C	-0.014819	-0.187753	0.245273
C62	C	0.318514	0.145580	0.578606
C63	C	0.651847	0.478914	0.911939
O64	O	-0.039065	-0.163344	0.269738
O65	O	0.294269	0.169990	0.603072
O66	O	0.627602	0.503323	0.936405
N67	N	-0.038311	-0.216441	0.216492
N68	N	0.295022	0.116892	0.549826
N69	N	0.628356	0.450225	0.883159
C70	C	-0.014882	-0.245129	0.187705
C71	C	0.318452	0.088204	0.521038
C72	C	0.651785	0.421538	0.854372
O73	O	-0.039169	-0.269527	0.163223
O74	O	0.294164	0.063806	0.496556
O75	O	0.627498	0.397140	0.829889
C76	C	0.172791	-0.245123	0.187690
C77	C	0.506124	0.088210	0.521024
C78	C	0.839457	0.421544	0.854357
C79	C	0.196280	-0.216436	0.216475
C80	C	0.529613	0.116897	0.549809
C81	C	0.862946	0.450231	0.883142
C82	C	0.196343	-0.159065	0.274042
C83	C	0.529676	0.174269	0.607376
C84	C	0.863009	0.507602	0.940709
C85	C	0.243258	-0.159066	0.274040
C86	C	0.576592	0.174267	0.607374
C87	C	0.909925	0.507601	0.940707
C88	C	0.266684	-0.187752	0.245256
C89	C	0.600018	0.145581	0.578590
C90	C	0.933351	0.478914	0.911923
C91	C	0.243195	-0.216437	0.216474
C92	C	0.576529	0.116896	0.549807
C93	C	0.909862	0.450229	0.883140
C94	C	0.196219	-0.273808	0.158901
C95	C	0.529553	0.059525	0.492234
C96	C	0.862886	0.392859	0.825568
C97	C	0.243140	-0.273803	0.158899
C98	C	0.576474	0.059530	0.492232
C99	C	0.909807	0.392863	0.825566
C100	C	0.266630	-0.245116	0.187684
C101	C	0.599963	0.088217	0.521018
C102	C	0.933296	0.421550	0.854351
C103	C	0.313537	-0.245125	0.187688
C104	C	0.646870	0.088208	0.521021
C105	C	0.980204	0.421542	0.854354
N106	N	0.337029	-0.216437	0.216468
N107	N	0.670362	0.116897	0.549801
N108	N	1.003695	0.450230	0.883134
C109	C	0.313602	-0.187750	0.245252
C110	C	0.646936	0.145583	0.578585
C111	C	0.980269	0.478916	0.911919
C112	C	-0.113412	-0.245130	0.187715
C113	C	0.219921	0.088203	0.521049
C114	C	0.553254	0.421536	0.854382
C115	C	-0.160330	-0.245133	0.187720
C116	C	0.173003	0.088201	0.521053
C117	C	0.506337	0.421534	0.854386
C118	C	-0.160265	-0.187756	0.245287
C119	C	0.173069	0.145578	0.578620
C120	C	0.506402	0.478911	0.911953
C121	C	-0.113346	-0.187756	0.245284
C122	C	0.219987	0.145577	0.578618
C123	C	0.553321	0.478910	0.911951
C124	C	-0.089921	-0.216442	0.216495
C125	C	0.243413	0.116891	0.549829
C126	C	0.576746	0.450225	0.883162
C127	C	0.412128	-0.187755	0.245246
C128	C	0.745462	0.145578	0.578580
C129	C	1.078795	0.478911	0.911913
C130	C	0.459048	-0.187760	0.245243
C131	C	0.792381	0.145573	0.578577
C132	C	1.125714	0.478906	0.911910
C133	C	0.458978	-0.245135	0.187675
C134	C	0.792312	0.088198	0.521008
C135	C	1.125645	0.421531	0.854342
C136	C	0.412063	-0.245132	0.187679
C137	C	0.745396	0.088201	0.521013
C138	C	1.078730	0.421535	0.854346
C139	C	0.388639	-0.216438	0.216467
C140	C	0.721972	0.116895	0.549800
C141	C	1.055306	0.450228	0.883133
O142	O	0.337811	-0.269518	0.163231
O143	O	0.671145	0.063815	0.496564
O144	O	1.004478	0.397149	0.829898
O145	O	0.337898	-0.163349	0.269724
O146	O	0.671231	0.169985	0.603057
O147	O	1.004564	0.503318	0.936390
C148	C	0.125938	-0.187749	0.245262
C149	C	0.459271	0.145585	0.578595
C150	C	0.792605	0.478918	0.911928
C151	C	0.102449	-0.216434	0.216479
C152	C	0.435782	0.116900	0.549812
C153	C	0.769116	0.450233	0.883146
C154	C	0.125875	-0.245120	0.187695
C155	C	0.459208	0.088213	0.521028
C156	C	0.792542	0.421547	0.854361
C157	C	0.055531	-0.216436	0.216483
C158	C	0.388864	0.116898	0.549817
C159	C	0.722198	0.450231	0.883150
C160	C	0.032105	-0.187749	0.245267
C161	C	0.365438	0.145584	0.578601
C162	C	0.698771	0.478917	0.911934
C163	C	0.055596	-0.159061	0.274048
C164	C	0.388930	0.174272	0.607381
C165	C	0.722263	0.507606	0.940714
C166	C	0.102512	-0.159062	0.274046
C167	C	0.435845	0.174271	0.607379
C168	C	0.769179	0.507604	0.940712
C169	C	0.102384	-0.273808	0.158915
C170	C	0.435717	0.059525	0.492248
C171	C	0.769050	0.392858	0.825581
C172	C	0.055468	-0.273805	0.158919
C173	C	0.388801	0.059528	0.492252
C174	C	0.722135	0.392862	0.825586
C175	C	0.032042	-0.245119	0.187703
C176	C	0.365375	0.088215	0.521037
C177	C	0.698708	0.421548	0.854370
C178	C	0.649050	-0.333163	0.216454
C179	C	0.982383	0.000170	0.549787
C180	C	1.315717	0.333503	0.883120
C181	C	0.649056	-0.383098	0.216459
C182	C	0.982390	-0.049764	0.549792
C183	C	1.315723	0.283569	0.883126
C184	C	0.677914	-0.692730	0.187789
C185	C	1.011247	-0.359397	0.521122
C186	C	1.344580	-0.026064	0.854456
C187	C	0.677969	-0.880403	0.187807
C188	C	1.011303	-0.547070	0.521140
C189	C	1.344636	-0.213737	0.854473
O190	O	0.702441	-0.904659	0.163413
O191	O	1.035774	-0.571326	0.496747
O192	O	1.369107	-0.237993	0.830080
N193	N	0.649224	-0.903883	0.216510
N194	N	0.982557	-0.570549	0.549843
N195	N	1.315891	-0.237216	0.883177
C196	C	0.620465	-0.880441	0.245213
C197	C	0.953799	-0.547108	0.578546
C198	C	1.287132	-0.213774	0.911880
O199	O	0.596020	-0.904718	0.269630
O200	O	0.929354	-0.571385	0.602964
O201	O	1.262687	-0.238051	0.936297
C202	C	0.620412	-0.692769	0.245197
C203	C	0.953746	-0.359436	0.578531
C204	C	1.287079	-0.026102	0.911864
C205	C	0.649156	-0.669292	0.216489
C206	C	0.982489	-0.335959	0.549822
C207	C	1.315823	-0.002625	0.883156
C208	C	0.706656	-0.669253	0.159084
C209	C	1.039989	-0.335920	0.492417
C210	C	1.373322	-0.002587	0.825750
C211	C	0.706640	-0.622338	0.159078
C212	C	1.039973	-0.289005	0.492411
C213	C	1.373306	0.044329	0.825744
C214	C	0.677882	-0.598900	0.187778
C215	C	1.011215	-0.265566	0.521111
C216	C	1.344549	0.067767	0.854444
C217	C	0.649140	-0.622377	0.216483
C218	C	0.982474	-0.289043	0.549817
C219	C	1.315807	0.044290	0.883150
C220	C	0.591656	-0.669328	0.273902
C221	C	0.924989	-0.335995	0.607236
C222	C	1.258323	-0.002661	0.940569
C223	C	0.591646	-0.622407	0.273897
C224	C	0.924979	-0.289074	0.607230
C225	C	1.258313	0.044260	0.940563
C226	C	0.620390	-0.598930	0.245188
C227	C	0.953723	-0.265597	0.578522
C228	C	1.287057	0.067737	0.911855
C229	C	0.620367	-0.552023	0.245177
C230	C	0.953700	-0.218689	0.578511
C231	C	1.287033	0.114644	0.911844
N232	N	0.649112	-0.528543	0.216474
N233	N	0.982445	-0.195210	0.549807
N234	N	1.315778	0.138123	0.883141
C235	C	0.677869	-0.551982	0.187774
C236	C	1.011203	-0.218648	0.521108
C237	C	1.344536	0.114685	0.854441
C238	C	0.620494	-0.978972	0.245218
C239	C	0.953828	-0.645638	0.578552
C240	C	1.287161	-0.312305	0.911885
C241	C	0.620507	-1.025889	0.245222
C242	C	0.953840	-0.692556	0.578555
C243	C	1.287174	-0.359223	0.911888
C244	C	0.678012	-1.025849	0.187816
C245	C	1.011345	-0.692515	0.521149
C246	C	1.344678	-0.359182	0.854483
C247	C	0.677997	-0.978930	0.187811
C248	C	1.011330	-0.645597	0.521144
C249	C	1.344663	-0.312263	0.854477
C250	C	0.649239	-0.955492	0.216515
C251	C	0.982573	-0.622159	0.549848
C252	C	1.315906	-0.288826	0.883182
C253	C	0.677834	-0.453456	0.187764
C254	C	1.011167	-0.120123	0.521097
C255	C	1.344500	0.213211	0.854431
C256	C	0.677814	-0.406536	0.187759
C257	C	1.011147	-0.073203	0.521093
C258	C	1.344481	0.260130	0.854426
C259	C	0.620311	-0.406581	0.245167
C260	C	0.953644	-0.073248	0.578500
C261	C	1.286978	0.260085	0.911833
C262	C	0.620329	-0.453497	0.245170
C263	C	0.953662	-0.120163	0.578503
C264	C	1.286996	0.213170	0.911836
C265	C	0.649094	-0.476933	0.216467
C266	C	0.982427	-0.143600	0.549800
C267	C	1.315761	0.189734	0.883133
O268	O	0.595912	-0.527738	0.269561
O269	O	0.929245	-0.194405	0.602895
O270	O	1.262578	0.138929	0.936228
O271	O	0.702318	-0.527697	0.163367
O272	O	1.035651	-0.194363	0.496701
O273	O	1.368984	0.138970	0.830034
C274	C	0.677930	-0.739646	0.187795
C275	C	1.011263	-0.406313	0.521128
C276	C	1.344596	-0.072979	0.854462
C277	C	0.649188	-0.763123	0.216501
C278	C	0.982521	-0.429790	0.549834
C279	C	1.315855	-0.096456	0.883167
C280	C	0.620430	-0.739684	0.245200
C281	C	0.953764	-0.406351	0.578534
C282	C	1.287097	-0.073018	0.911867
C283	C	0.649200	-0.810041	0.216504
C284	C	0.982534	-0.476707	0.549837
C285	C	1.315867	-0.143374	0.883171
C286	C	0.677958	-0.833479	0.187804
C287	C	1.011291	-0.500146	0.521137
C288	C	1.344625	-0.166813	0.854471
C289	C	0.706703	-0.810000	0.159101
C290	C	1.040037	-0.476666	0.492434
C291	C	1.373370	-0.143333	0.825768
C292	C	0.706687	-0.763084	0.159095
C293	C	1.040021	-0.429751	0.492428
C294	C	1.373354	-0.096418	0.825762
C295	C	0.591685	-0.763164	0.273904
C296	C	0.925018	-0.429830	0.607237
C297	C	1.258352	-0.096497	0.940570
C298	C	0.591703	-0.810079	0.273907
C299	C	0.925036	-0.476746	0.607240
C300	C	1.258370	-0.143413	0.940573
C301	C	0.620461	-0.833518	0.245207
C302	C	0.953794	-0.500184	0.578540
C303	C	1.287127	-0.166851	0.911874
C304	C	0.766309	-0.216445	0.216495
C305	C	1.099643	0.116889	0.549829
C306	C	1.432976	0.450222	0.883162
C307	C	0.816244	-0.216446	0.216504
C308	C	1.149577	0.116887	0.549837
C309	C	1.482910	0.450220	0.883170
C310	C	0.649143	-0.216437	0.333654
C311	C	0.982476	0.116897	0.666988
C312	C	1.315810	0.450230	1.000321
C313	C	0.649148	-0.216435	0.383589
C314	C	0.982482	0.116898	0.716922
C315	C	1.315815	0.450232	1.050255
C316	C	0.649225	-0.099262	0.216508
C317	C	0.982558	0.234071	0.549841
C318	C	1.315891	0.567404	0.883175
C319	C	0.649265	-0.049328	0.216522
C320	C	0.982598	0.284005	0.549855
C321	C	1.315931	0.617339	0.883189
C322	C	0.649145	-0.216412	0.099753
C323	C	0.982478	0.116921	0.433087
C324	C	1.315811	0.450254	0.766420
C325	C	0.649227	-0.216288	0.049819
C326	C	0.982560	0.117046	0.383153
C327	C	1.315893	0.450379	0.716486
C328	C	0.677935	-0.187627	0.693248
C329	C	1.011268	0.145706	1.026581
C330	C	1.344602	0.479040	1.359915
C331	C	0.677957	-0.187589	0.880921
C332	C	1.011291	0.145744	1.214254
C333	C	1.344624	0.479078	1.547588
O334	O	0.702400	-0.163138	0.905199
O335	O	1.035733	0.170195	1.238533
O336	O	1.369066	0.503529	1.571866
N337	N	0.649208	-0.216315	0.904374
N338	N	0.982541	0.117019	1.237707
N339	N	1.315875	0.450352	1.571041
C340	C	0.620449	-0.245050	0.880906
C341	C	0.953782	0.088283	1.214239
C342	C	1.287115	0.421617	1.547573
O343	O	0.595993	-0.269479	0.905160
O344	O	0.929326	0.063854	1.238494
O345	O	1.262659	0.397188	1.571827
C346	C	0.620425	-0.245086	0.693234
C347	C	0.953758	0.088247	1.026567
C348	C	1.287091	0.421581	1.359900
C349	C	0.649179	-0.216361	0.669783
C350	C	0.982512	0.116972	1.003116
C351	C	1.315846	0.450305	1.336450
C352	C	0.706687	-0.158905	0.669797
C353	C	1.040020	0.174429	1.003131
C354	C	1.373354	0.507762	1.336464
C355	C	0.706683	-0.158916	0.622882
C356	C	1.040016	0.174417	0.956215
C357	C	1.373350	0.507750	1.289549
C358	C	0.677927	-0.187650	0.599417
C359	C	1.011260	0.145683	0.932750
C360	C	1.344594	0.479016	1.266084
C361	C	0.649175	-0.216373	0.622868
C362	C	0.982508	0.116960	0.956201
C363	C	1.315842	0.450294	1.289534
C364	C	0.591663	-0.273819	0.669766
C365	C	0.924997	0.059515	1.003100
C366	C	1.258330	0.392848	1.336433
C367	C	0.591659	-0.273824	0.622845
C368	C	0.924992	0.059509	0.956179
C369	C	1.258326	0.392842	1.289512
C370	C	0.620414	-0.245100	0.599395
C371	C	0.953747	0.088234	0.932728
C372	C	1.287080	0.421567	1.266061
C373	C	0.620415	-0.245119	0.552487
C374	C	0.953748	0.088215	0.885821
C375	C	1.287081	0.421548	1.219154
N376	N	0.649164	-0.216393	0.529034
N377	N	0.982498	0.116941	0.862368
N378	N	1.315831	0.450274	1.195701
C379	C	0.677920	-0.187659	0.552499
C380	C	1.011254	0.145675	0.885833
C381	C	1.344587	0.479008	1.219166
C382	C	0.620464	-0.245030	0.979437
C383	C	0.953797	0.088303	1.312770
C384	C	1.287131	0.421637	1.646103
C385	C	0.620471	-0.245022	1.026354
C386	C	0.953804	0.088312	1.359688
C387	C	1.287137	0.421645	1.693021
C388	C	0.677979	-0.187560	1.026366
C389	C	1.011312	0.145774	1.359700
C390	C	1.344646	0.479107	1.693033
C391	C	0.677974	-0.187571	0.979448
C392	C	1.011308	0.145763	1.312781
C393	C	1.344641	0.479096	1.646114
C394	C	0.649214	-0.216304	0.955984
C395	C	0.982547	0.117029	1.289317
C396	C	1.315880	0.450363	1.622650
C397	C	0.677910	-0.187685	0.453973
C398	C	1.011243	0.145648	0.787307
C399	C	1.344576	0.478981	1.120640
C400	C	0.677904	-0.187701	0.407054
C401	C	1.011238	0.145632	0.740387
C402	C	1.344571	0.478966	1.073720
C403	C	0.620395	-0.245161	0.407046
C404	C	0.953728	0.088172	0.740379
C405	C	1.287061	0.421506	1.073712
C406	C	0.620402	-0.245147	0.453961
C407	C	0.953735	0.088186	0.787295
C408	C	1.287068	0.421519	1.120628
C409	C	0.649161	-0.216406	0.477424
C410	C	0.982494	0.116927	0.810757
C411	C	1.315827	0.450261	1.144091
O412	O	0.595982	-0.269553	0.528180
O413	O	0.929315	0.063780	0.861513
O414	O	1.262649	0.397113	1.194847
O415	O	0.702366	-0.163226	0.528237
O416	O	1.035699	0.170107	0.861570
O417	O	1.369032	0.503440	1.194903
C418	C	0.677939	-0.187616	0.740163
C419	C	1.011273	0.145718	1.073497
C420	C	1.344606	0.479051	1.406830
C421	C	0.649187	-0.216338	0.763614
C422	C	0.982521	0.116995	1.096947
C423	C	1.315854	0.450329	1.430281
C424	C	0.620431	-0.245072	0.740149
C425	C	0.953765	0.088261	1.073482
C426	C	1.287098	0.421594	1.406816
C427	C	0.649194	-0.216330	0.810532
C428	C	0.982527	0.117003	1.143865
C429	C	1.315861	0.450337	1.477199
C430	C	0.677950	-0.187596	0.833997
C431	C	1.011283	0.145738	1.167330
C432	C	1.344617	0.479071	1.500663
C433	C	0.706699	-0.158870	0.810544
C434	C	1.040033	0.174464	1.143877
C435	C	1.373366	0.507797	1.477210
C436	C	0.706695	-0.158881	0.763628
C437	C	1.040029	0.174452	1.096962
C438	C	1.373362	0.507785	1.430295
C439	C	0.591682	-0.273798	0.763602
C440	C	0.925015	0.059535	1.096935
C441	C	1.258349	0.392869	1.430269
C442	C	0.591689	-0.273785	0.810518
C443	C	0.925022	0.059549	1.143851
C444	C	1.258355	0.392882	1.477184
C445	C	0.620445	-0.245050	0.833983
C446	C	0.953778	0.088283	1.167316
C447	C	1.287111	0.421616	1.500649
H448	H	0.121633	-0.135702	0.297485
H449	H	0.454966	0.197631	0.630819
H450	H	0.788299	0.530965	0.964152
H451	H	0.036515	-0.135705	0.297486
H452	H	0.369848	0.197628	0.630819
H453	H	0.703181	0.530962	0.964153
O454	O	0.592527	-0.273093	0.384194
O455	O	0.925861	0.060240	0.717527
O456	O	1.259194	0.393573	1.050860
C457	C	0.618084	-0.302119	0.357064
C458	C	0.951417	0.031214	0.690397
C459	C	1.284751	0.364548	1.023731
H460	H	0.652144	-0.286277	0.350053
H461	H	0.985477	0.047056	0.683386
H462	H	1.318811	0.380389	1.016720
H463	H	0.599784	-0.308138	0.324062
H464	H	0.933117	0.025195	0.657395
H465	H	1.266450	0.358528	0.990729
H466	H	0.622990	-0.335412	0.375137
H467	H	0.956323	-0.002079	0.708471
H468	H	1.289656	0.331254	1.041804
O469	O	0.705974	-0.159693	1.049146
O470	O	1.039308	0.173641	1.382479
O471	O	1.372641	0.506974	1.715812
C472	C	0.750744	-0.169497	1.037684
C473	C	1.084077	0.163836	1.371018
C474	C	1.417410	0.497169	1.704351
H475	H	0.752991	-0.205388	1.024779
H476	H	1.086324	0.127945	1.358113
H477	H	1.419658	0.461279	1.691446
H478	H	0.772940	-0.165621	1.068547
H479	H	1.106273	0.167712	1.401881
H480	H	1.439606	0.501045	1.735214
H481	H	0.762503	-0.145412	1.010460
H482	H	1.095836	0.187922	1.343793
H483	H	1.429170	0.521255	1.677126
H484	H	0.597061	-0.268417	1.045444
H485	H	0.930394	0.064916	1.378777
H486	H	1.263727	0.398250	1.712111
H487	H	-0.179346	-0.164399	0.268724
H488	H	0.153987	0.168935	0.602057
H489	H	0.487320	0.502268	0.935391
O490	O	0.705716	-0.383781	0.159809
O491	O	1.039049	-0.050448	0.493142
O492	O	1.372383	0.282886	0.826476
C493	C	0.695926	-0.395269	0.115025
C494	C	1.029259	-0.061936	0.448359
C495	C	1.362593	0.271397	0.781692
H496	H	0.678666	-0.429353	0.114083
H497	H	1.012000	-0.096020	0.447416
H498	H	1.345333	0.237313	0.780750
H499	H	0.728364	-0.396850	0.094913
H500	H	1.061697	-0.063517	0.428247
H501	H	1.395031	0.269816	0.761580
H502	H	0.672832	-0.368895	0.099866
H503	H	1.006166	-0.035562	0.433200
H504	H	1.339499	0.297772	0.766533
H505	H	0.568229	-0.603326	0.297273
H506	H	0.901562	-0.269993	0.630606
H507	H	1.234896	0.063340	0.963939
O508	O	0.563764	-0.832812	0.301838
O509	O	0.897097	-0.499479	0.635172
O510	O	1.230431	-0.166146	0.968505
C511	C	0.538374	-0.802058	0.327159
C512	C	0.871707	-0.468725	0.660492
C513	C	1.205040	-0.135392	0.993825
H514	H	0.556764	-0.768593	0.328722
H515	H	0.890097	-0.435260	0.662055
H516	H	1.223431	-0.101926	0.995388
H517	H	0.533564	-0.815599	0.362554
H518	H	0.866897	-0.482266	0.695888
H519	H	1.200231	-0.148932	1.029221
H520	H	0.504262	-0.797114	0.310676
H521	H	0.837596	-0.463780	0.644009
H522	H	1.170929	-0.130447	0.977343
O523	O	0.705840	-0.159641	0.956621
O524	O	1.039173	0.173692	1.289955
O525	O	1.372507	0.507025	1.623288
C526	C	0.680281	-0.130618	0.929495
C527	C	1.013614	0.202715	1.262828
C528	C	1.346948	0.536048	1.596162
H529	H	0.646223	-0.146464	0.922455
H530	H	0.979556	0.186869	1.255788
H531	H	1.312890	0.520202	1.589122
H532	H	0.698582	-0.124597	0.896507
H533	H	1.031915	0.208736	1.229841
H534	H	1.365248	0.542069	1.563174
H535	H	0.675371	-0.097326	0.947586
H536	H	1.008704	0.236007	1.280919
H537	H	1.342037	0.569341	1.614253
O538	O	-0.090600	-0.159846	0.273259
O539	O	0.242733	0.173487	0.606592
O540	O	0.576067	0.506820	0.939926
C541	C	-0.121343	-0.134540	0.298673
C542	C	0.211990	0.198794	0.632007
C543	C	0.545323	0.532127	0.965340
H544	H	-0.154792	-0.132960	0.280276
H545	H	0.178541	0.200373	0.613609
H546	H	0.511874	0.533706	0.946942
H547	H	-0.107764	-0.099149	0.303531
H548	H	0.225570	0.234184	0.636865
H549	H	0.558903	0.567518	0.970198
H550	H	-0.126334	-0.151045	0.332762
H551	H	0.207000	0.182288	0.666096
H552	H	0.540333	0.515621	0.999429
O553	O	0.173660	-0.131183	0.302049
O554	O	0.506994	0.202150	0.635383
O555	O	0.840327	0.535483	0.968716
C556	C	0.204463	-0.105860	0.327440
C557	C	0.537796	0.227473	0.660773
C558	C	0.871129	0.560806	0.994106
H559	H	0.237893	-0.124267	0.328950
H560	H	0.571226	0.209067	0.662284
H561	H	0.904559	0.542400	0.995617
H562	H	0.190930	-0.101124	0.362849
H563	H	0.524264	0.232209	0.696182
H564	H	0.857597	0.565543	1.029516
H565	H	0.209472	-0.071714	0.311052
H566	H	0.542806	0.261619	0.644386
H567	H	0.876139	0.594952	0.977719
H568	H	0.478171	-0.164399	0.268685
H569	H	0.811504	0.168934	0.602019
H570	H	1.144837	0.502267	0.935352
O571	O	0.592392	-0.476235	0.273097
O572	O	0.925726	-0.142902	0.606430
O573	O	1.259059	0.190431	0.939764
C574	C	0.566998	-0.445485	0.298417
C575	C	0.900331	-0.112151	0.631750
C576	C	1.233664	0.221182	0.965084
H577	H	0.585384	-0.412018	0.299981
H578	H	0.918718	-0.078684	0.633315
H579	H	1.252051	0.254649	0.966648
H580	H	0.562188	-0.459027	0.333812
H581	H	0.895521	-0.125693	0.667146
H582	H	1.228855	0.207640	1.000479
H583	H	0.532886	-0.440543	0.281933
H584	H	0.866220	-0.107210	0.615267
H585	H	1.199553	0.226123	0.948600
O586	O	0.592444	-0.383786	0.273093
O587	O	0.925777	-0.050453	0.606427
O588	O	1.259110	0.282880	0.939760
C589	C	0.618001	-0.356601	0.302117
C590	C	0.951335	-0.023268	0.635451
C591	C	1.284668	0.310066	0.968784
H592	H	0.653384	-0.370707	0.304925
H593	H	0.986718	-0.037374	0.638258
H594	H	1.320051	0.295959	0.971592
H595	H	0.601733	-0.356065	0.336677
H596	H	0.935067	-0.022731	0.670011
H597	H	1.268400	0.310602	1.003344
H598	H	0.619552	-0.321049	0.288221
H599	H	0.952886	0.012285	0.621554
H600	H	1.286219	0.345618	0.954887
H601	H	0.262379	-0.135705	0.297480
H602	H	0.595712	0.197628	0.630813
H603	H	0.929046	0.530961	0.964146
H604	H	0.597044	-0.268431	0.960336
H605	H	0.930377	0.064902	1.293670
H606	H	1.263711	0.398235	1.627003
H607	H	0.730110	-0.135491	0.744539
H608	H	1.063443	0.197843	1.077872
H609	H	1.396777	0.531176	1.411206
H610	H	0.701321	-0.164310	0.387962
H611	H	1.034655	0.169024	0.721296
H612	H	1.367988	0.502357	1.054629
O613	O	0.563690	-0.692147	0.301729
O614	O	0.897024	-0.358814	0.635062
O615	O	1.230357	-0.025481	0.968396
C616	C	0.534701	-0.719339	0.276137
C617	C	0.868034	-0.386006	0.609471
C618	C	1.201367	-0.052673	0.942804
H619	H	0.531940	-0.705224	0.240748
H620	H	0.865273	-0.371890	0.574082
H621	H	1.198606	-0.038557	0.907415
H622	H	0.500119	-0.719897	0.292360
H623	H	0.833453	-0.386564	0.625693
H624	H	1.166786	-0.053231	0.959026
H625	H	0.548601	-0.754884	0.274610
H626	H	0.881934	-0.421551	0.607944
H627	H	1.215267	-0.088218	0.941277
H628	H	-0.179451	-0.268497	0.164285
H629	H	0.153882	0.064836	0.497618
H630	H	0.487216	0.398169	0.830951
H631	H	0.036347	-0.297170	0.135480
H632	H	0.369680	0.036163	0.468813
H633	H	0.703014	0.369497	0.802146
O634	O	0.563786	-0.301760	0.600001
O635	O	0.897119	0.031573	0.933334
O636	O	1.230452	0.364906	1.266668
C637	C	0.589339	-0.330791	0.572874
C638	C	0.922672	0.002542	0.906207
C639	C	1.256006	0.335875	1.239541
H640	H	0.623397	-0.314949	0.565854
H641	H	0.956730	0.018384	0.899187
H642	H	1.290064	0.351717	1.232520
H643	H	0.571033	-0.336819	0.539877
H644	H	0.904367	-0.003486	0.873210
H645	H	1.237700	0.329847	1.206543
H646	H	0.594249	-0.364080	0.590955
H647	H	0.927583	-0.030746	0.924288
H648	H	1.260916	0.302587	1.257621
H649	H	0.596991	-0.268541	0.473056
H650	H	0.930325	0.064792	0.806389
H651	H	1.263658	0.398125	1.139722
O652	O	0.481790	-0.273021	0.159777
O653	O	0.815123	0.060313	0.493111
O654	O	1.148456	0.393646	0.826444
C655	C	0.508908	-0.302082	0.185300
C656	C	0.842242	0.031251	0.518633
C657	C	1.175575	0.364585	0.851967
H658	H	0.515954	-0.286292	0.219377
H659	H	0.849288	0.047041	0.552710
H660	H	1.182621	0.380375	0.886043
H661	H	0.541893	-0.308068	0.166991
H662	H	0.875227	0.025266	0.500324
H663	H	1.208560	0.358599	0.833657
H664	H	0.490807	-0.335386	0.190170
H665	H	0.824141	-0.002052	0.523504
H666	H	1.157474	0.331281	0.856837
H667	H	0.730093	-0.743973	0.135718
H668	H	1.063427	-0.410640	0.469052
H669	H	1.396760	-0.077306	0.802385
H670	H	0.568248	-0.297209	0.688852
H671	H	0.901582	0.036124	1.022185
H672	H	1.234915	0.369457	1.355518
H673	H	-0.094343	-0.268491	0.164271
H674	H	0.238990	0.064842	0.497604
H675	H	0.572323	0.398175	0.830938
H676	H	0.730115	-0.135475	0.829657
H677	H	1.063448	0.197858	1.162990
H678	H	1.396782	0.531192	1.496324
H679	H	0.597076	-0.959892	0.268594
H680	H	0.930409	-0.626558	0.601927
H681	H	1.263742	-0.293225	0.935260
H682	H	0.568274	-0.297180	0.829607
H683	H	0.901607	0.036154	1.162940
H684	H	1.234941	0.369487	1.496274
O685	O	0.705890	-0.159754	0.476691
O686	O	1.039223	0.173580	0.810024
O687	O	1.372556	0.506913	1.143358
C688	C	0.731255	-0.134401	0.445924
C689	C	1.064588	0.198933	0.779258
C690	C	1.397922	0.532266	1.112591
H691	H	0.732786	-0.152813	0.412480
H692	H	1.066120	0.180520	0.745814
H693	H	1.399453	0.513853	1.079147
H694	H	0.766658	-0.129607	0.459481
H695	H	1.099992	0.203726	0.792815
H696	H	1.433325	0.537059	1.126148
H697	H	0.714832	-0.100281	0.440933
H698	H	1.048165	0.233053	0.774266
H699	H	1.381498	0.566386	1.107600
H700	H	0.568265	-0.297198	0.744502
H701	H	0.901599	0.036135	1.077835
H702	H	1.234932	0.369469	1.411168
O703	O	0.173479	-0.301687	0.130893
O704	O	0.506812	0.031647	0.464227
O705	O	0.840145	0.364980	0.797560
C706	C	0.204225	-0.327006	0.105496
C707	C	0.537559	0.006327	0.438829
C708	C	0.870892	0.339660	0.772163
H709	H	0.237682	-0.308599	0.103982
H710	H	0.571015	0.024735	0.437315
H711	H	0.904349	0.358068	0.770649
H712	H	0.190662	-0.331740	0.070088
H713	H	0.523995	0.001593	0.403422
H714	H	0.857328	0.334927	0.736755
H715	H	0.209195	-0.361153	0.121880
H716	H	0.542528	-0.027820	0.455213
H717	H	0.875862	0.305513	0.788546
H718	H	0.262211	-0.297163	0.135454
H719	H	0.595544	0.036171	0.468788
H720	H	0.928878	0.369504	0.802121
H721	H	0.730118	-0.829092	0.135731
H722	H	1.063451	-0.495758	0.469065
H723	H	1.396784	-0.162425	0.802398
H724	H	0.701402	-0.959818	0.164434
H725	H	1.034736	-0.626484	0.497767
H726	H	1.368069	-0.293151	0.831101
H727	H	0.597097	-1.045000	0.268595
H728	H	0.930430	-0.711667	0.601928
H729	H	1.263763	-0.378334	0.935261
H730	H	0.393062	-0.164389	0.268686
H731	H	0.726395	0.168944	0.602020
H732	H	1.059729	0.502278	0.935353
O733	O	0.125115	-0.301742	0.131001
O734	O	0.458449	0.031591	0.464335
O735	O	0.791782	0.364925	0.797668
C736	C	0.113604	-0.346529	0.140736
C737	C	0.446937	-0.013196	0.474069
C738	C	0.780270	0.320138	0.807402
H739	H	0.100719	-0.348846	0.176623
H740	H	0.434052	-0.015513	0.509957
H741	H	0.767385	0.317820	0.843290
H742	H	0.144436	-0.368724	0.136823
H743	H	0.477769	-0.035391	0.470156
H744	H	0.811103	0.297943	0.803489
H745	H	0.086349	-0.358233	0.116633
H746	H	0.419682	-0.024899	0.449966
H747	H	0.753015	0.308434	0.783300
O748	O	0.389312	-0.273016	0.159680
O749	O	0.722645	0.060317	0.493013
O750	O	1.055979	0.393650	0.826347
C751	C	0.420052	-0.298346	0.134285
C752	C	0.753386	0.034987	0.467619
C753	C	1.086719	0.368320	0.800952
H754	H	0.453511	-0.279944	0.132764
H755	H	0.786845	0.053389	0.466097
H756	H	1.120178	0.386723	0.799430
H757	H	0.406484	-0.303086	0.098880
H758	H	0.739817	0.030247	0.432214
H759	H	1.073151	0.363581	0.765547
H760	H	0.425019	-0.332491	0.150676
H761	H	0.758352	0.000843	0.484010
H762	H	1.091685	0.334176	0.817343
H763	H	0.730097	-0.135525	0.603793
H764	H	1.063430	0.197808	0.937126
H765	H	1.396764	0.531142	1.270459
H766	H	0.701258	-0.472532	0.164392
H767	H	1.034591	-0.139199	0.497726
H768	H	1.367924	0.194135	0.831059
H769	H	0.730047	-0.603226	0.135702
H770	H	1.063380	-0.269893	0.469036
H771	H	1.396713	0.063441	0.802369
H772	H	0.730076	-0.688332	0.135713
H773	H	1.063409	-0.354999	0.469046
H774	H	1.396743	-0.021665	0.802379
O775	O	0.705960	-1.048690	0.160006
O776	O	1.039293	-0.715357	0.493339
O777	O	1.372627	-0.382024	0.826673
C778	C	0.699810	-1.095134	0.166175
C779	C	1.033143	-0.761801	0.499508
C780	C	1.366476	-0.428468	0.832841
H781	H	0.685033	-1.101530	0.200816
H782	H	1.018366	-0.768197	0.534150
H783	H	1.351699	-0.434863	0.867483
H784	H	0.733478	-1.112921	0.163214
H785	H	1.066811	-0.779588	0.496547
H786	H	1.400144	-0.446255	0.829880
H787	H	0.675946	-1.108508	0.139483
H788	H	1.009280	-0.775175	0.472816
H789	H	1.342613	-0.441841	0.806149
O790	O	0.563811	-0.740380	0.301831
O791	O	0.897144	-0.407047	0.635164
O792	O	1.230477	-0.073713	0.968497
C793	C	0.589350	-0.713190	0.330866
C794	C	0.922684	-0.379857	0.664200
C795	C	1.256017	-0.046524	0.997533
H796	H	0.624738	-0.727284	0.333680
H797	H	0.958072	-0.393950	0.667013
H798	H	1.291405	-0.060617	1.000347
H799	H	0.573074	-0.712667	0.365422
H800	H	0.906407	-0.379334	0.698756
H801	H	1.239740	-0.046000	1.032089
H802	H	0.590891	-0.677635	0.316977
H803	H	0.924225	-0.344301	0.650310
H804	H	1.257558	-0.010968	0.983644
H805	H	0.730104	-0.135503	0.688898
H806	H	1.063437	0.197830	1.022231
H807	H	1.396770	0.531163	1.355564
