data_functionalizedCrystal
_audit_creation_method	'MofGen! by Chris Wilmer'
_symmetry_space_group_name_H-M	'P1'
_symmetry_Int_Tables_number	1
_symmetry_cell_setting	triclinic
loop_
_symmetry_equiv_pos_as_xyz
  x,y,z
_cell_length_a	17.077404
_cell_length_b	15.297327
_cell_length_c	17.077396
_cell_angle_alpha	99.647268
_cell_angle_beta	89.981638
_cell_angle_gamma	99.704720
loop_
_atom_site_label
_atom_site_type_symbol
_atom_site_fract_x
_atom_site_fract_y
_atom_site_fract_z
Zn1	Zn	1.145945	-0.359212	-0.497880
Zn2	Zn	1.123125	-0.510086	-0.389320
Zn3	Zn	1.014673	-0.359238	-0.366634
Zn4	Zn	0.991927	-0.510026	-0.520537
O5	O	1.068917	-0.434641	-0.443593
O6	O	1.252762	-0.379240	-0.483491
O7	O	1.108708	-0.490111	-0.276469
O8	O	1.051156	-0.232988	-0.365068
O9	O	1.235997	-0.490086	-0.403732
O10	O	1.147601	-0.232970	-0.461493
O11	O	1.029028	-0.379284	-0.259802
O12	O	0.901811	-0.379226	-0.387038
O13	O	1.012388	-0.489985	-0.627373
O14	O	0.885099	-0.490010	-0.500110
O15	O	1.125545	-0.379183	-0.610727
O16	O	1.086652	-0.636324	-0.425702
O17	O	0.990261	-0.636281	-0.522107
C18	C	0.864973	-0.434615	-0.443571
C19	C	0.777722	-0.434626	-0.443584
C20	C	0.745447	-0.377011	-0.485206
C21	C	0.663466	-0.377017	-0.485211
C22	C	0.613760	-0.434643	-0.443597
C23	C	0.646040	-0.492260	-0.401970
C24	C	0.728021	-0.492249	-0.401961
C25	C	0.475167	-0.492281	-0.401992
C26	C	0.393181	-0.492293	-0.402002
C27	C	0.410612	-0.377048	-0.485242
C28	C	0.492592	-0.377037	-0.485233
C29	C	0.524867	-0.434656	-0.443607
C30	C	1.033533	-0.669037	-0.478842
C31	C	1.018468	-0.769312	-0.493948
C32	C	1.176917	-1.051938	-0.335895
C33	C	1.191071	-0.957724	-0.321698
C34	C	1.147922	-0.910617	-0.364759
C35	C	1.090615	-0.957732	-0.422020
C36	C	1.076455	-1.051955	-0.436214
C37	C	1.047460	-0.910634	-0.465079
C38	C	0.990153	-0.957749	-0.522339
C39	C	0.975996	-1.051963	-0.536531
C40	C	1.019145	-1.099071	-0.493470
C41	C	1.061620	-0.816411	-0.450885
C42	C	0.961158	-0.816428	-0.551204
C43	C	0.947004	-0.910642	-0.565401
C44	C	1.273658	-0.434667	-0.443615
C45	C	1.360906	-0.434678	-0.443624
C46	C	1.068975	-0.434574	-0.648327
C47	C	1.068999	-0.434546	-0.735573
C48	C	1.104461	-0.199329	-0.408223
C49	C	1.119607	-0.099054	-0.393150
C50	C	1.127922	-0.376846	-0.767896
C51	C	1.127936	-0.376816	-0.849872
C52	C	1.069030	-0.434491	-0.899524
C53	C	1.010101	-0.492193	-0.867196
C54	C	1.010084	-0.492218	-0.785220
C55	C	1.010141	-0.492139	-1.038058
C56	C	1.010158	-0.492116	-1.120039
C57	C	1.127993	-0.376737	-1.102709
C58	C	1.127976	-0.376762	-1.020734
C59	C	1.069048	-0.434466	-0.988411
C60	C	1.068915	-0.434642	-0.239645
C61	C	1.069081	-0.434416	-0.152362
H62	H	0.754298	-0.539165	-0.368067
H63	H	0.785912	-0.330088	-0.519095
H64	H	1.175919	-0.329834	-0.876185
H65	H	1.108280	-0.778058	-0.404262
Br66	Br	0.930163	-0.570448	-0.994191
H67	H	0.962190	-0.539077	-1.160464
H68	H	0.605564	-0.539176	-0.368083
H69	H	0.926021	-0.778073	-0.586267
H70	H	1.159449	-0.833903	-0.353196
Br71	Br	0.619667	-0.298822	-0.541701
Br72	Br	1.268848	-0.893788	-0.243997
Br73	Br	0.930110	-0.570522	-0.741352
H74	H	1.175973	-0.329751	-1.129029
Br75	Br	1.235466	-1.115873	-0.277457
Br76	Br	0.366812	-0.298851	-0.541735
H77	H	1.175893	-0.329884	-0.727474
Br78	Br	0.898217	-1.115905	-0.614237
Br79	Br	0.560049	-0.298840	-0.541720
H80	H	1.007626	-1.175788	-0.505028
Br81	Br	0.930151	-0.570462	-0.934579
H82	H	0.352712	-0.539218	-0.368117
Br83	Br	0.869234	-0.974595	-0.643111
H84	H	1.175947	-0.329803	-0.980309
H85	H	0.501442	-0.539198	-0.368093
