data_functionalizedCrystal
_audit_creation_method	'MofGen! by Chris Wilmer'
_symmetry_space_group_name_H-M	'P1'
_symmetry_Int_Tables_number	1
_symmetry_cell_setting	triclinic
loop_
_symmetry_equiv_pos_as_xyz
  x,y,z
_cell_length_a	18.215407
_cell_length_b	16.959454
_cell_length_c	16.959447
_cell_angle_alpha	89.974537
_cell_angle_beta	89.983226
_cell_angle_gamma	90.017519
loop_
_atom_site_label
_atom_site_type_symbol
_atom_site_fract_x
_atom_site_fract_y
_atom_site_fract_z
Zn1	Zn	1.125092	-0.314730	-0.446903
Zn2	Zn	1.625092	0.185270	0.053097
Zn3	Zn	1.125012	-0.446919	-0.314733
Zn4	Zn	1.625012	0.053081	0.185267
Zn5	Zn	1.002026	-0.314753	-0.314743
Zn6	Zn	1.502026	0.185247	0.185257
Zn7	Zn	1.002001	-0.446864	-0.446874
Zn8	Zn	1.502001	0.053136	0.053126
O9	O	1.063533	-0.380817	-0.380813
O10	O	1.563533	0.119183	0.119187
O11	O	1.228066	-0.332278	-0.429378
O12	O	1.728066	0.167722	0.070622
O13	O	1.108675	-0.429420	-0.204123
O14	O	1.608675	0.070580	0.295877
O15	O	1.018395	-0.204139	-0.332291
O16	O	1.518395	0.295861	0.167709
O17	O	1.228007	-0.429397	-0.332273
O18	O	1.728007	0.070603	0.167727
O19	O	1.108811	-0.204122	-0.429388
O20	O	1.608811	0.295878	0.070612
O21	O	1.018317	-0.332318	-0.204131
O22	O	1.518317	0.167682	0.295869
O23	O	0.899038	-0.332264	-0.332263
O24	O	1.399038	0.167736	0.167737
O25	O	1.018352	-0.429304	-0.557489
O26	O	1.518352	0.070696	-0.057489
O27	O	0.899020	-0.429326	-0.429339
O28	O	1.399020	0.070674	0.070661
O29	O	1.108787	-0.332225	-0.557510
O30	O	1.608787	0.167775	-0.057510
O31	O	1.108651	-0.557523	-0.332245
O32	O	1.608651	-0.057523	0.167755
O33	O	1.018275	-0.557482	-0.429329
O34	O	1.518275	-0.057482	0.070671
C35	C	0.872327	-0.380792	-0.380800
C36	C	1.372327	0.119208	0.119200
C37	C	0.790528	-0.380801	-0.380812
C38	C	1.290528	0.119199	0.119188
C39	C	0.602363	-0.330335	-0.431455
C40	C	1.102363	0.169665	0.068545
C41	C	0.525505	-0.330342	-0.431457
C42	C	1.025505	0.169658	0.068543
C43	C	0.525454	-0.431320	-0.330186
C44	C	1.025454	0.068680	0.169814
C45	C	0.602312	-0.431309	-0.330180
C46	C	1.102312	0.068691	0.169820
C47	C	0.640764	-0.380817	-0.380819
C48	C	1.140764	0.119183	0.119181
C49	C	0.487048	-0.380836	-0.380828
C50	C	0.987048	0.119164	0.119172
C51	C	0.403714	-0.380843	-0.380830
C52	C	0.903714	0.119157	0.119170
C53	C	0.724103	-0.380808	-0.380815
C54	C	1.224103	0.119192	0.119185
C55	C	1.063471	-0.586183	-0.380800
C56	C	1.563471	-0.086183	0.119200
C57	C	1.063512	-0.674039	-0.380821
C58	C	1.563512	-0.174039	0.119179
C59	C	1.016542	-1.045524	-0.431359
C60	C	1.516542	-0.545524	0.068641
C61	C	1.110728	-1.045506	-0.330348
C62	C	1.610728	-0.545506	0.169652
C63	C	1.110703	-0.962960	-0.330341
C64	C	1.610703	-0.462960	0.169659
C65	C	1.063595	-0.921692	-0.380843
C66	C	1.563595	-0.421692	0.119157
C67	C	1.016514	-0.962970	-0.431352
C68	C	1.516514	-0.462970	0.068648
C69	C	1.157778	-0.921676	-0.279826
C70	C	1.657778	-0.421676	0.220174
C71	C	1.157754	-0.839125	-0.279817
C72	C	1.657754	-0.339125	0.220183
C73	C	1.110649	-0.797856	-0.330323
C74	C	1.610649	-0.297856	0.169677
C75	C	1.063567	-0.839139	-0.380835
C76	C	1.563567	-0.339139	0.119165
C77	C	1.016459	-0.797871	-0.431337
C78	C	1.516459	-0.297871	0.068663
C79	C	0.969380	-0.839153	-0.481854
C80	C	1.469380	-0.339153	0.018146
C81	C	0.969410	-0.921701	-0.481859
C82	C	1.469410	-0.421701	0.018141
C83	C	1.110619	-0.715307	-0.330319
C84	C	1.610619	-0.215307	0.169681
C85	C	1.016431	-0.715317	-0.431330
C86	C	1.516431	-0.215317	0.068670
C87	C	1.255486	-0.380842	-0.380828
C88	C	1.755486	0.119158	0.119172
C89	C	1.337285	-0.380852	-0.380834
C90	C	1.837285	0.119148	0.119166
C91	C	1.063576	-0.380756	-0.586982
C92	C	1.563576	0.119244	-0.086982
C93	C	1.063594	-0.380730	-0.674838
C94	C	1.563594	0.119270	-0.174838
C95	C	1.063615	-0.174648	-0.380844
C96	C	1.563615	0.325352	0.119156
C97	C	1.063650	-0.086792	-0.380857
C98	C	1.563650	0.413208	0.119143
C99	C	1.110648	-0.431273	-0.716110
C100	C	1.610648	0.068727	-0.216110
C101	C	1.016552	-0.330166	-0.716120
C102	C	1.516552	0.169834	-0.216120
C103	C	1.016565	-0.330143	-0.798666
C104	C	1.516565	0.169857	-0.298666
C105	C	1.063619	-0.380687	-0.839938
C106	C	1.563619	0.119313	-0.339938
C107	C	1.110661	-0.431253	-0.798664
C108	C	1.610661	0.068747	-0.298664
C109	C	0.969519	-0.279583	-0.839947
C110	C	1.469519	0.220417	-0.339947
C111	C	0.969529	-0.279559	-0.922498
C112	C	1.469529	0.220441	-0.422498
C113	C	1.016588	-0.330099	-0.963771
C114	C	1.516588	0.169901	-0.463771
C115	C	1.063632	-0.380667	-0.922491
C116	C	1.563632	0.119333	-0.422491
C117	C	1.110686	-0.431210	-0.963763
C118	C	1.610686	0.068790	-0.463763
C119	C	1.157734	-0.481775	-0.922485
C120	C	1.657734	0.018225	-0.422485
C121	C	1.157719	-0.481793	-0.839937
C122	C	1.657719	0.018207	-0.339937
C123	C	1.016603	-0.330080	-1.046319
C124	C	1.516603	0.169920	-0.546319
C125	C	1.110699	-0.431190	-1.046317
C126	C	1.610699	0.068810	-0.546317
C127	C	1.063533	-0.380820	-0.175447
C128	C	1.563533	0.119180	0.324553
C129	C	1.063657	-0.380623	-0.087591
C130	C	1.563657	0.119377	0.412409
H131	H	0.978073	-0.681722	-0.472458
H132	H	1.478073	-0.181722	0.027542
N133	N	0.643836	-0.275879	-0.486072
N134	N	1.143836	0.224121	0.013928
H135	H	0.698353	-0.283535	-0.478391
H136	H	1.198353	0.216465	0.021609
H137	H	0.630412	-0.288262	-0.542500
H138	H	1.130412	0.211738	-0.042500
N139	N	0.484086	-0.275884	-0.486063
N140	N	0.984086	0.224116	0.013937
H141	H	0.520110	-0.243896	-0.518136
H142	H	1.020110	0.256104	-0.018136
H143	H	0.452198	-0.308101	-0.522592
H144	H	0.952198	0.191899	-0.022592
H145	H	0.931205	-0.238439	-0.806337
H146	H	1.431205	0.261561	-0.306337
H147	H	0.931079	-0.955320	-0.522986
H148	H	1.431079	-0.455320	-0.022986
H149	H	0.978213	-1.079139	-0.472491
H150	H	1.478213	-0.579139	0.027509
N151	N	0.483981	-0.485774	-0.275568
N152	N	0.983981	0.014226	0.224432
H153	H	0.429464	-0.478123	-0.283255
H154	H	0.929464	0.021877	0.216745
H155	H	0.497410	-0.542240	-0.287773
H156	H	0.997410	-0.042240	0.212227
N157	N	1.208540	-0.794606	-0.225344
N158	N	1.708540	-0.294606	0.274656
H159	H	1.201378	-0.736049	-0.233004
H160	H	1.701378	-0.236049	0.266996
H161	H	1.197125	-0.809069	-0.168881
H162	H	1.697125	-0.309069	0.331119
H163	H	0.931021	-0.805543	-0.522970
H164	H	1.431021	-0.305543	-0.022970
N165	N	0.918798	-0.225017	-0.967020
N166	N	1.418798	0.274983	-0.467020
H167	H	0.884688	-0.257125	-1.001262
H168	H	1.384688	0.242875	-0.501262
H169	H	0.889037	-0.193010	-0.928301
H170	H	1.389037	0.306990	-0.428301
N171	N	0.643737	-0.485754	-0.275557
N172	N	1.143737	0.014246	0.224443
H173	H	0.607716	-0.517745	-0.243482
H174	H	1.107716	-0.017745	0.256518
H175	H	0.675633	-0.522368	-0.307666
H176	H	1.175633	-0.022368	0.192334
H177	H	0.978239	-0.289021	-0.682512
H178	H	1.478239	0.210979	-0.182512
N179	N	1.161522	-1.090011	-0.275867
N180	N	1.661522	-0.590011	0.224133
H181	H	1.154392	-1.148570	-0.283532
H182	H	1.654392	-0.648570	0.216468
H183	H	1.214073	-1.075545	-0.288212
H184	H	1.714073	-0.575545	0.211788
H185	H	1.196043	-0.522930	-0.956099
H186	H	1.696043	-0.022930	-0.456099
H187	H	1.196125	-0.955282	-0.238705
H188	H	1.696125	-0.455282	0.261295
N189	N	1.161388	-0.670776	-0.275841
N190	N	1.661388	-0.170776	0.224159
H191	H	1.149990	-0.685178	-0.219356
H192	H	1.649990	-0.185178	0.280644
H193	H	1.213949	-0.685115	-0.288231
H194	H	1.713949	-0.185115	0.211769
H195	H	1.149019	-0.472346	-1.079914
H196	H	1.649019	0.027654	-0.579914
H197	H	1.196023	-0.522961	-0.806321
H198	H	1.696023	-0.022961	-0.306321
H199	H	0.978295	-0.288912	-1.079924
H200	H	1.478295	0.211088	-0.579924
H201	H	1.148956	-0.472439	-0.682498
H202	H	1.648956	0.027561	-0.182498
