data_functionalizedCrystal
_audit_creation_method	'MofGen! by Chris Wilmer'
_symmetry_space_group_name_H-M	'P1'
_symmetry_Int_Tables_number	1
_symmetry_cell_setting	triclinic
loop_
_symmetry_equiv_pos_as_xyz
  x,y,z
_cell_length_a	10.489746
_cell_length_b	9.565339
_cell_length_c	10.540553
_cell_angle_alpha	89.988248
_cell_angle_beta	95.463672
_cell_angle_gamma	90.000667
loop_
_atom_site_label
_atom_site_type_symbol
_atom_site_fract_x
_atom_site_fract_y
_atom_site_fract_z
O1	O	1.694037	0.116207	-0.179124
O2	O	1.322841	0.116235	-0.195929
O3	O	1.516898	0.116169	-0.002822
O4	O	1.499980	0.116274	-0.372230
O5	O	1.516882	-0.116351	-0.002834
O6	O	1.322825	-0.116285	-0.195941
O7	O	1.694021	-0.116313	-0.179136
Zn8	Zn	1.508421	-0.153217	-0.187540
Zn9	Zn	1.508441	0.153139	-0.187524
O10	O	1.499964	-0.116247	-0.372242
C11	C	1.275302	-0.000023	-0.194664
C12	C	1.133673	-0.000015	-0.190862
N13	N	1.508416	-0.362296	-0.187550
C14	C	0.980824	-0.000070	-0.065744
C15	C	1.058205	-0.114693	-0.128304
C16	C	1.058176	0.114554	-0.128322
C17	C	0.958706	-0.114768	-0.246713
C18	C	0.958671	0.114581	-0.246713
C19	C	1.036004	-0.000070	-0.309360
C20	C	1.418644	-0.453469	-0.276826
C21	C	1.534139	-0.546647	-0.302514
C22	C	1.392971	-0.546672	-0.161872
C23	C	1.623970	-0.453423	-0.213296
C24	C	1.482726	-0.453440	-0.072604
C25	C	1.598304	-0.546577	-0.098244
C26	C	1.741561	-0.000052	-0.180401
C27	C	1.883189	-0.000051	-0.184202
C28	C	1.515618	-0.000102	0.044475
C29	C	1.511810	-0.000132	0.185423
N30	N	1.508456	0.362218	-0.187504
C31	C	1.370113	-0.000121	0.222112
C32	C	1.366106	0.000402	0.368712
C33	C	1.576486	0.132375	0.394744
C34	C	1.579511	0.132491	0.247979
C35	C	1.581555	-0.131937	0.248103
C36	C	1.574991	-0.133684	0.394449
C37	C	1.501228	-0.000025	0.580459
C38	C	1.504984	-0.000138	0.439505
H39	H	0.956110	-0.000215	0.037259
Br40	Br	1.130659	-0.276267	-0.044972
H41	H	1.316621	0.094777	0.178660
H42	H	1.101629	0.211462	-0.078288
Br43	Br	1.786762	-0.385451	-0.249649
Br44	Br	1.499060	0.298237	0.181023
Br45	Br	1.724999	-0.614298	0.027629
Br46	Br	1.446408	-0.385142	0.089334
H47	H	1.342796	-0.412588	-0.352393
Br48	Br	0.886564	-0.276473	-0.330015
Br49	Br	1.570406	-0.614885	-0.464497
Br50	Br	1.076785	-0.000111	-0.481168
Br51	Br	0.886167	0.276157	-0.329981
H52	H	1.295325	-0.587636	-0.140174
H53	H	1.310176	-0.094560	0.398059
Br54	Br	1.507854	-0.299389	0.177355
Br55	Br	1.743977	-0.147660	0.476075
Br56	Br	1.755316	-0.134087	0.211103
H57	H	1.315697	-0.095124	0.180153
Br58	Br	1.273389	0.159667	0.416155
Br59	Br	1.752642	0.141840	0.209560
Br60	Br	1.746920	0.139949	0.473640
Br61	Br	1.494751	0.297380	0.446253
Br62	Br	1.488268	-0.297088	0.442135
