data_functionalizedCrystal
_audit_creation_method	'MofGen! by Chris Wilmer'
_symmetry_space_group_name_H-M	'P1'
_symmetry_Int_Tables_number	1
_symmetry_cell_setting	triclinic
loop_
_symmetry_equiv_pos_as_xyz
  x,y,z
_cell_length_a	27.732048
_cell_length_b	27.731993
_cell_length_c	7.681481
_cell_angle_alpha	95.685796
_cell_angle_beta	95.686563
_cell_angle_gamma	97.368478
loop_
_atom_site_label
_atom_site_type_symbol
_atom_site_fract_x
_atom_site_fract_y
_atom_site_fract_z
O1	O	-0.061987	0.636355	-0.145929
O2	O	-0.070764	0.495555	-0.146032
O3	O	0.004022	0.570327	-0.146001
O4	O	-0.136772	0.561583	-0.145961
O5	O	0.013247	0.579531	0.146861
O6	O	-0.061538	0.504758	0.146829
O7	O	-0.052762	0.645559	0.146932
Zn8	Zn	-0.055685	0.576620	0.193379
Zn9	Zn	-0.067840	0.564494	-0.192479
O10	O	-0.127547	0.570786	0.146901
C11	C	-0.065971	0.482149	0.000385
C12	C	-0.065430	0.428491	0.000344
C13	C	-0.066526	0.040317	-0.159211
C14	C	-0.068594	0.241973	-0.159258
O15	O	-0.073119	0.263779	-0.295028
N16	N	-0.063824	0.272210	0.000377
C17	C	-0.058533	0.252030	0.160036
O18	O	-0.054519	0.282377	0.295814
C19	C	-0.056461	0.050376	0.160081
C20	C	-0.061237	0.020140	0.000435
C21	C	-0.071300	0.010082	-0.318844
C22	C	-0.070786	-0.040329	-0.318830
C23	C	-0.065497	-0.060506	-0.159184
C24	C	-0.060722	-0.030271	0.000449
C25	C	-0.051167	0.030198	0.319738
C26	C	-0.050648	-0.020219	0.319735
C27	C	-0.055424	-0.050455	0.160089
C28	C	-0.054919	-0.100858	0.160108
N29	N	-0.059689	-0.131095	0.000473
C30	C	-0.064978	-0.110919	-0.159173
C31	C	-0.059622	0.357901	0.160001
C32	C	-0.060141	0.408315	0.159990
C33	C	-0.070201	0.398254	-0.159305
C34	C	-0.069686	0.347839	-0.159292
C35	C	-0.064393	0.327664	0.000366
C36	C	-0.063897	-0.216786	-0.159133
C37	C	-0.063384	-0.267202	-0.159105
C38	C	-0.053322	-0.257136	0.160188
C39	C	-0.053838	-0.206725	0.160162
C40	C	-0.059124	-0.186552	0.000487
O41	O	-0.050391	-0.122697	0.295807
O42	O	-0.068981	-0.141272	-0.294931
C43	C	-0.067040	0.090728	-0.159224
C44	C	-0.062266	0.120963	0.000409
C45	C	-0.056977	0.100787	0.160055
C46	C	-0.062785	0.171376	0.000398
C47	C	-0.068074	0.191553	-0.159248
C48	C	-0.072844	0.161316	-0.318884
C49	C	-0.072329	0.110904	-0.318870
C50	C	-0.052207	0.131024	0.319690
C51	C	-0.052722	0.181434	0.319664
C52	C	-0.058011	0.201611	0.160017
C53	C	-0.150166	0.566368	0.000476
C54	C	-0.203820	0.566922	0.000494
C55	C	-0.542647	0.526213	0.000379
C56	C	-0.744307	0.528264	0.000360
O57	O	-0.775573	0.491039	0.000255
N58	N	-0.763421	0.572601	0.000395
C59	C	-0.732117	0.616429	0.000423
O60	O	-0.753002	0.654187	0.000434
C61	C	-0.530458	0.614377	0.000430
C62	C	-0.511347	0.570038	0.000413
C63	C	-0.523535	0.481877	0.000360
C64	C	-0.473123	0.481365	0.000374
C65	C	-0.441823	0.525190	0.000408
C66	C	-0.460935	0.569526	0.000427
C67	C	-0.499156	0.658204	0.000446
C68	C	-0.448738	0.657687	0.000443
C69	C	-0.429627	0.613347	0.000426
C70	C	-0.379222	0.612838	0.000475
N71	N	-0.360108	0.568501	0.000440
C72	C	-0.391408	0.524676	0.000407
C73	C	-0.837991	0.617503	0.000423
C74	C	-0.888405	0.618016	0.000424
C75	C	-0.900592	0.529850	0.000358
C76	C	-0.850176	0.529338	0.000369
C77	C	-0.818877	0.573165	0.000388
C78	C	-0.285538	0.523605	0.000439
C79	C	-0.235121	0.523097	0.000460
C80	C	-0.222939	0.611262	0.000518
C81	C	-0.273351	0.611770	0.000505
C82	C	-0.304651	0.567938	0.000460
O83	O	-0.347928	0.650043	0.000560
O84	O	-0.370515	0.486923	0.000356
C85	C	-0.593059	0.526725	0.000365
C86	C	-0.612171	0.571061	0.000384
C87	C	-0.580871	0.614886	0.000417
C88	C	-0.662586	0.571574	0.000385
C89	C	-0.693886	0.527750	0.000352
C90	C	-0.674772	0.483412	0.000317
C91	C	-0.624360	0.482901	0.000331
C92	C	-0.599985	0.659223	0.000453
C93	C	-0.650398	0.659732	0.000440
C94	C	-0.681698	0.615907	0.000406
C95	C	0.026641	0.574745	0.000420
C96	C	0.080295	0.574191	0.000391
C97	C	-0.057554	0.658965	0.000511
C98	C	-0.058096	0.712622	0.000541
N99	N	-0.047389	0.584899	0.456717
N100	N	-0.076132	0.556219	-0.455817
H101	H	-0.075606	0.026504	-0.448854
O102	O	-0.012328	0.619804	0.546246
C103	C	0.034046	0.610826	0.501344
H104	H	0.029645	0.588011	0.367439
H105	H	0.052027	0.590088	0.605060
C106	C	0.071767	0.687873	0.657539
C107	C	0.066361	0.659855	0.493068
H108	H	0.091701	0.718116	0.652442
H109	H	0.040524	0.693921	0.687797
H110	H	0.086749	0.670586	0.743952
H111	H	0.051374	0.677139	0.406664
H112	H	0.097602	0.653810	0.462796
O113	O	-0.907045	0.661048	0.000535
C114	C	-0.958255	0.652109	0.000480
H115	H	-0.968638	0.616038	0.055904
H116	H	-0.976694	0.649928	-0.140021
C117	C	-0.962509	0.738317	0.047273
C118	C	-0.975262	0.694017	0.115360
H119	H	-0.973000	0.764169	0.118129
H120	H	-0.928008	0.744340	0.047303
H121	H	-0.977876	0.736493	-0.069811
H122	H	-0.959890	0.695839	0.232432
H123	H	-1.009761	0.687995	0.115352
O124	O	-0.049114	-0.177359	0.315280
C125	C	-0.004054	-0.180842	0.412400
H126	H	0.022413	-0.193600	0.318978
H127	H	-0.010089	-0.208277	0.511956
C128	C	-0.014939	-0.114682	0.624942
C129	C	0.017569	-0.130348	0.510198
H130	H	-0.001602	-0.083535	0.685275
H131	H	-0.045298	-0.112336	0.559515
H132	H	-0.019966	-0.137549	0.707890
H133	H	0.022590	-0.107484	0.427239
H134	H	0.047930	-0.132689	0.575613
O135	O	-0.111157	0.521349	0.454278
C136	C	-0.144093	0.543732	0.347684
H137	H	-0.125380	0.580824	0.320243
H138	H	-0.177569	0.549012	0.418642
C139	C	-0.183113	0.465385	0.206163
C140	C	-0.160128	0.510941	0.172448
H141	H	-0.193006	0.445158	0.098072
H142	H	-0.160925	0.450305	0.277982
H143	H	-0.211007	0.469792	0.265298
H144	H	-0.132232	0.506534	0.113333
H145	H	-0.182312	0.526020	0.100614
O146	O	-0.068091	-0.296531	-0.314305
C147	C	-0.113162	-0.293069	-0.411393
H148	H	-0.126068	-0.256966	-0.365995
H149	H	-0.141501	-0.324801	-0.389253
C150	C	-0.090829	-0.339534	-0.664439
C151	C	-0.106678	-0.295190	-0.608690
H152	H	-0.086831	-0.340844	-0.786142
H153	H	-0.060465	-0.341868	-0.599028
H154	H	-0.114448	-0.365972	-0.645974
H155	H	-0.083057	-0.268753	-0.627135
H156	H	-0.137039	-0.292851	-0.674109
H157	H	-0.574505	0.694911	0.000478
O158	O	-0.078043	0.180968	-0.473853
C159	C	-0.120528	0.204028	-0.483407
H160	H	-0.130202	0.214010	-0.344792
H161	H	-0.152137	0.178066	-0.562192
C162	C	-0.099287	0.238547	-0.744908
C163	C	-0.111166	0.250810	-0.574659
H164	H	-0.093514	0.267403	-0.801204
H165	H	-0.070665	0.223010	-0.738477
H166	H	-0.125631	0.216911	-0.810541
H167	H	-0.084821	0.272440	-0.509023
H168	H	-0.139784	0.266352	-0.581081
H169	H	-0.049018	-0.273573	0.290168
H170	H	-0.812510	0.653194	0.000441
H171	H	-0.074672	-0.064943	-0.448830
O172	O	-0.069098	-0.197146	-0.314125
C173	C	-0.111585	-0.174089	-0.323692
H174	H	-0.121253	-0.164095	-0.185079
H175	H	-0.143195	-0.200059	-0.402437
C176	C	-0.090359	-0.139598	-0.585259
C177	C	-0.102232	-0.127319	-0.415011
H178	H	-0.084591	-0.110749	-0.641596
H179	H	-0.061735	-0.155133	-0.578819
H180	H	-0.116703	-0.161240	-0.650857
H181	H	-0.075885	-0.105682	-0.349410
H182	H	-0.130851	-0.111779	-0.421443
H183	H	-0.665953	0.695841	0.000468
O184	O	-0.216640	0.479978	0.000359
C185	C	-0.255080	0.441410	0.000364
H186	H	-0.290974	0.452959	-0.055080
H187	H	-0.257897	0.432325	0.140852
C188	C	-0.200693	0.381768	-0.046417
C189	C	-0.244778	0.395951	-0.114528
H190	H	-0.194338	0.353726	-0.117280
H191	H	-0.174795	0.407752	-0.046413
H192	H	-0.203046	0.374201	0.070656
H193	H	-0.242422	0.403524	-0.231589
H194	H	-0.270676	0.369968	-0.114554
O195	O	-0.315979	0.481066	0.000637
C196	C	-0.340724	0.483483	0.152329
H197	H	-0.341401	0.523422	0.202913
H198	H	-0.320955	0.464875	0.258531
C199	C	-0.392711	0.408256	0.044108
C200	C	-0.393547	0.457309	0.106227
H201	H	-0.425294	0.392109	0.015675
H202	H	-0.376039	0.406626	-0.058087
H203	H	-0.376235	0.392756	0.132621
H204	H	-0.410017	0.472810	0.017708
H205	H	-0.410223	0.458941	0.208407
H206	H	-0.074509	0.414689	-0.289295
O207	O	-0.055481	0.437615	0.315227
C208	C	-0.050713	0.408988	0.456125
H209	H	-0.036510	0.373696	0.409309
H210	H	-0.087905	0.399805	0.505228
C211	C	-0.031892	0.481143	0.664444
C212	C	-0.014445	0.437798	0.606947
H213	H	-0.009523	0.498914	0.757482
H214	H	-0.035106	0.500430	0.569520
H215	H	-0.062886	0.473484	0.705351
H216	H	0.016545	0.445457	0.566020
H217	H	-0.011225	0.418513	0.701868
H218	H	-0.073574	0.323224	-0.289290
H219	H	-0.055310	0.341481	0.290020
H220	H	-0.046342	-0.036643	0.449750
O221	O	-0.553865	0.439260	0.000411
C222	C	-0.526176	0.400023	0.000347
H223	H	-0.486708	0.414332	0.055788
H224	H	-0.527110	0.381997	-0.140160
C225	C	-0.596459	0.344609	0.047092
C226	C	-0.547984	0.362184	0.115200
H227	H	-0.609912	0.321266	0.117932
H228	H	-0.615114	0.371043	0.047129
H229	H	-0.597231	0.329590	-0.069996
H230	H	-0.547213	0.377207	0.232277
H231	H	-0.529329	0.335751	0.115186
O232	O	-0.831697	0.486221	0.000258
C233	C	-0.870138	0.447656	0.000279
H234	H	-0.906032	0.459207	-0.055147
H235	H	-0.872951	0.438572	0.140770
C236	C	-0.815758	0.388010	-0.046533
C237	C	-0.859843	0.402196	-0.114622
H238	H	-0.809407	0.359966	-0.117402
H239	H	-0.789858	0.413992	-0.046541
H240	H	-0.818107	0.380443	0.070542
H241	H	-0.857491	0.409768	-0.231686
H242	H	-0.885742	0.376214	-0.114637
O243	O	-0.931073	0.487320	0.000234
C244	C	-0.979665	0.497288	0.000281
H245	H	-0.983050	0.533505	-0.055113
H246	H	-0.989841	0.499754	0.140776
C247	C	-1.010267	0.411440	-0.046591
C248	C	-1.014426	0.455920	-0.114641
H249	H	-1.031710	0.385921	-0.117472
H250	H	-0.977530	0.404723	-0.046616
H251	H	-1.018747	0.413502	0.070487
H252	H	-1.005940	0.453859	-0.231707
H253	H	-1.047162	0.462635	-0.114638
H254	H	-0.047277	0.054808	0.449739
H255	H	-0.076218	0.086291	-0.448871
H256	H	-0.457568	0.445259	0.000345
H257	H	-0.048837	0.206048	0.449676
O258	O	-0.517634	0.701317	0.000378
C259	C	-0.479187	0.739882	0.000442
H260	H	-0.446785	0.724842	-0.055000
H261	H	-0.467528	0.757799	0.140948
C262	C	-0.536507	0.796593	-0.046304
C263	C	-0.496711	0.778121	-0.114413
H264	H	-0.547316	0.820182	-0.117144
H265	H	-0.562410	0.770611	-0.046340
H266	H	-0.526786	0.811521	0.070783
H267	H	-0.506434	0.763188	-0.231489
H268	H	-0.470810	0.804101	-0.114399
O269	O	-0.418325	0.700240	0.000155
C270	C	-0.393560	0.697810	-0.151490
H271	H	-0.415545	0.669616	-0.257520
H272	H	-0.355909	0.686660	-0.117195
C273	C	-0.360670	0.782935	-0.090009
C274	C	-0.387674	0.748308	-0.220243
H275	H	-0.357037	0.814084	-0.132416
H276	H	-0.377353	0.784572	0.012161
H277	H	-0.329297	0.773637	-0.061442
H278	H	-0.419049	0.757604	-0.248792
H279	H	-0.370997	0.746674	-0.322419
H280	H	-0.047897	0.114602	0.449696
H281	H	-0.288912	0.647876	0.000545
O282	O	-0.192463	0.653784	0.000471
C283	C	-0.143868	0.643820	0.000515
H284	H	-0.143970	0.604121	-0.054943
H285	H	-0.124850	0.650181	0.141017
C286	C	-0.116212	0.726729	-0.046206
C287	C	-0.116337	0.677971	-0.114334
H288	H	-0.099228	0.747795	-0.117042
H289	H	-0.148950	0.733443	-0.046229
H290	H	-0.100364	0.732023	0.070878
H291	H	-0.132189	0.672676	-0.231407
H292	H	-0.083600	0.671257	-0.114333
H293	H	-0.608804	0.446795	0.000318
H294	H	-0.700265	0.447729	0.000300
