data_functionalizedCrystal
_audit_creation_method	'MofGen! by Chris Wilmer'
_symmetry_space_group_name_H-M	'P1'
_symmetry_Int_Tables_number	1
_symmetry_cell_setting	triclinic
loop_
_symmetry_equiv_pos_as_xyz
  x,y,z
_cell_length_a	14.560438
_cell_length_b	14.560438
_cell_length_c	14.560438
_cell_angle_alpha	60.000084
_cell_angle_beta	90.000907
_cell_angle_gamma	59.999939
loop_
_atom_site_label
_atom_site_type_symbol
_atom_site_fract_x
_atom_site_fract_y
_atom_site_fract_z
Zr1	Zr	0.884770	1.005260	-0.120478
O2	O	0.738122	1.196866	-0.267128
O3	O	0.929726	0.813658	-0.075525
O4	O	0.929726	1.005262	-0.267125
O5	O	0.738122	1.005260	0.075614
O6	O	1.080867	1.005259	-0.267120
O7	O	0.738122	1.005262	-0.075527
O8	O	1.080866	0.662515	0.075618
O9	O	0.738122	1.348004	-0.267125
O10	O	1.061694	0.892463	-0.056346
O11	O	0.948899	0.892463	0.056445
O12	O	0.948899	1.118052	-0.169140
O13	O	0.836105	1.118053	-0.056349
Zr14	Zr	1.125823	1.005252	0.120582
Zr15	Zr	1.125823	1.005256	-0.120470
Zr16	Zr	0.884771	1.005256	0.120574
Zr17	Zr	0.884771	1.246308	-0.120474
Zr18	Zr	1.125822	0.764204	0.120577
O19	O	1.080868	1.196854	0.075628
O20	O	1.080867	1.196860	-0.267117
O21	O	0.738122	1.196860	0.075617
O22	O	1.272471	0.813646	0.267232
O23	O	1.272471	0.813651	-0.075513
O24	O	0.929726	0.813652	0.267221
O25	O	1.272471	1.005252	-0.075510
O26	O	1.080867	1.005250	0.267229
O27	O	0.929726	1.005253	0.267224
O28	O	1.272472	1.005250	0.075631
O29	O	0.929727	1.348001	-0.267119
O30	O	1.080867	0.662511	0.267223
O31	O	1.272471	0.662508	0.267229
O32	O	1.272471	0.662511	0.075625
O33	O	0.738122	1.348001	-0.075521
O34	O	0.929727	1.347997	-0.075515
O35	O	1.061694	0.892459	0.169244
O36	O	1.174489	0.892459	0.056453
O37	O	1.061694	1.118048	-0.056342
O38	O	0.948899	1.118049	0.056449
C39	C	1.005296	0.703742	0.000046
C40	C	1.005296	0.601411	0.000044
C41	C	1.064171	0.553335	-0.058832
C42	C	1.064176	0.457176	-0.058821
C43	C	0.946420	0.457181	0.058943
C44	C	0.946423	0.553332	0.058938
C45	C	0.703777	1.005262	0.000042
C46	C	0.601444	1.005263	0.000039
C47	C	0.553360	1.005267	-0.083224
C48	C	0.457215	1.005255	-0.083209
C49	C	0.457242	1.005241	0.083336
C50	C	0.553390	1.005244	0.083325
C51	C	0.553341	1.005281	-0.179381
C52	C	0.457196	1.005268	-0.179366
C53	C	1.306816	1.005250	0.000062
C54	C	1.409149	1.005248	0.000065
C55	C	1.005296	1.005261	-0.301468
C56	C	1.005296	1.005263	-0.403801
C57	C	1.005297	1.306770	0.000058
C58	C	1.005297	1.409101	0.000059
C59	C	0.946414	1.123016	-0.510754
C60	C	0.946417	1.123010	-0.606903
C61	C	1.064186	0.887487	-0.489131
C62	C	1.064189	0.887494	-0.392984
C63	C	0.878417	1.258993	-0.578750
C64	C	0.878420	1.258987	-0.674899
C65	C	1.005297	1.005251	0.301571
C66	C	1.005297	1.005249	0.403904
C67	C	1.306816	0.703736	0.000056
C68	C	1.409149	0.601403	0.000058
C69	C	1.005296	0.703737	0.301566
C70	C	1.005296	0.601404	0.403897
C71	C	1.306816	0.703731	0.301576
C72	C	1.409149	0.601397	0.403910
C73	C	0.703777	1.306781	-0.301472
C74	C	0.601444	1.409115	-0.403806
C75	C	0.703777	1.306775	0.000048
C76	C	0.601445	1.409108	0.000046
C77	C	1.005297	1.306775	-0.301462
C78	C	1.005297	1.409108	-0.403793
C79	C	1.398350	0.553327	-0.058819
C80	C	1.494506	0.457182	-0.058821
C81	C	1.612257	0.457195	0.058938
C82	C	1.516102	0.553345	0.058933
C83	C	1.064173	0.553324	0.510852
C84	C	1.064160	0.457180	0.606999
C85	C	0.946392	0.457202	0.489222
C86	C	0.946399	0.553350	0.393078
C87	C	1.516103	0.553317	0.393114
C88	C	1.612252	0.457171	0.489272
C89	C	1.494479	0.457189	0.607018
C90	C	1.398333	0.553340	0.510862
H91	H	0.898479	0.592474	0.106887
C92	C	1.128935	0.606214	-0.123601
H93	H	1.120499	0.670373	-0.115181
H94	H	1.206396	0.537186	-0.094523
H95	H	1.099850	0.643728	-0.201066
C96	C	1.128938	0.606199	0.522752
H97	H	1.163989	0.563801	0.600224
H98	H	1.184659	0.590443	0.487698
H99	H	1.078106	0.696981	0.487693
H100	H	0.624635	0.914874	-0.171090
H101	H	1.112119	0.418033	-0.106761
H102	H	0.898487	0.418024	0.106891
C103	C	0.760824	1.316013	-0.566958
H104	H	0.764836	1.314073	-0.500826
H105	H	0.710193	1.403199	-0.630705
H106	H	0.734905	1.265926	-0.562049
H107	H	1.311240	0.592490	0.519660
H108	H	1.311268	0.592465	-0.106771
C109	C	1.128930	0.404291	0.724645
H110	H	1.164012	0.446676	0.717313
H111	H	1.078111	0.420053	0.764601
H112	H	1.184646	0.313507	0.764598
H113	H	0.385891	1.095673	-0.261480
H114	H	0.923281	1.301178	-0.725820
C115	C	1.482589	0.404310	0.724662
H116	H	1.555168	0.340150	0.780385
H117	H	1.442637	0.473335	0.733098
H118	H	1.442638	0.366797	0.733088
C119	C	1.528000	0.606186	0.275473
H120	H	1.605472	0.563786	0.282820
H121	H	1.492944	0.590427	0.235513
H122	H	1.492942	0.696969	0.235517
C123	C	0.606287	1.005225	0.174921
H124	H	0.563890	1.005223	0.224516
H125	H	0.681463	0.929892	0.216038
H126	H	0.606121	1.080567	0.140715
C127	C	0.530629	1.131281	-0.282687
H128	H	0.453982	1.187386	-0.328687
H129	H	0.546425	1.173142	-0.258549
H130	H	0.577460	1.111044	-0.324572
C131	C	0.479898	0.879267	-0.156664
H132	H	0.412593	0.883551	-0.157415
H133	H	0.505016	0.869300	-0.213335
H134	H	0.536082	0.807210	-0.085213
H135	H	1.112150	0.791609	-0.305901
C136	C	0.756810	1.329455	-0.745393
H137	H	0.706795	1.358433	-0.709134
H138	H	0.738287	1.401951	-0.817895
H139	H	0.750325	1.271425	-0.752612
H140	H	0.418107	1.005224	0.151146
C141	C	1.128955	0.757953	-0.477241
H142	H	1.120516	0.774811	-0.549820
H143	H	1.206416	0.709566	-0.437289
H144	H	1.099870	0.709573	-0.437290
H145	H	0.916233	1.311208	-0.578770
H146	H	1.485704	0.418044	-0.106766
C147	C	1.527973	0.606248	0.123688
H148	H	1.455388	0.670407	0.115238
H149	H	1.567924	0.537236	0.201152
H150	H	1.567917	0.643770	0.094594
H151	H	0.898442	0.418063	0.480427
H152	H	1.699348	0.418052	0.106874
H153	H	0.898449	0.592501	0.305984
H154	H	1.699336	0.418029	0.480474
