data_functionalizedCrystal
_audit_creation_method	'MofGen! by Chris Wilmer'
_symmetry_space_group_name_H-M	'P1'
_symmetry_Int_Tables_number	1
_symmetry_cell_setting	triclinic
loop_
_symmetry_equiv_pos_as_xyz
  x,y,z
_cell_length_a	16.959455
_cell_length_b	16.120484
_cell_length_c	16.959447
_cell_angle_alpha	87.133462
_cell_angle_beta	90.016723
_cell_angle_gamma	92.924574
loop_
_atom_site_label
_atom_site_type_symbol
_atom_site_fract_x
_atom_site_fract_y
_atom_site_fract_z
Zn1	Zn	1.192396	-0.331913	0.462899
Zn2	Zn	1.185602	-0.471342	0.337416
Zn3	Zn	1.060223	-0.331944	0.330732
Zn4	Zn	1.053476	-0.471284	0.469547
O5	O	1.122924	-0.401621	0.400149
O6	O	1.302105	-0.350420	0.446269
O7	O	1.168951	-0.452888	0.225920
O8	O	1.083423	-0.215275	0.342685
O9	O	1.297114	-0.452857	0.354077
O10	O	1.180530	-0.215252	0.439788
O11	O	1.076835	-0.350473	0.221010
O12	O	0.948718	-0.350417	0.349131
O13	O	1.071923	-0.452760	0.579274
O14	O	0.943761	-0.452790	0.451117
O15	O	1.173987	-0.350364	0.574390
O16	O	1.162409	-0.588000	0.360523
O17	O	1.065336	-0.587958	0.457598
C18	C	0.917559	-0.401601	0.400121
C19	C	0.829702	-0.401613	0.400129
C20	C	1.112424	-0.618229	0.410524
C21	C	1.108005	-0.710894	0.414990
C22	C	0.790989	-0.348236	0.347107
C23	C	0.785861	-0.454996	0.453163
C24	C	0.703315	-0.455005	0.453175
C25	C	0.664602	-0.401628	0.400153
C26	C	0.708435	-0.348242	0.347119
C27	C	0.659475	-0.508385	0.506214
C28	C	0.576924	-0.508396	0.506228
C29	C	0.538209	-0.455022	0.453202
C30	C	0.582048	-0.401635	0.400165
C31	C	0.543335	-0.348258	0.347143
C32	C	0.587172	-0.294874	0.294101
C33	C	0.669721	-0.294869	0.294092
C34	C	0.455661	-0.455027	0.453211
C35	C	0.460781	-0.348264	0.347155
C36	C	1.099940	-0.880556	0.423158
C37	C	1.146050	-0.921846	0.377152
C38	C	1.141563	-1.016251	0.381697
C39	C	1.104426	-0.786142	0.418614
C40	C	1.329092	-0.401642	0.400177
C41	C	1.416948	-0.401650	0.400189
C42	C	1.122961	-0.401552	0.606314
C43	C	1.122976	-0.401523	0.694169
C44	C	1.133487	-0.184168	0.389749
C45	C	1.137988	-0.091502	0.385318
C46	C	1.122937	-0.401630	0.194783
C47	C	1.123086	-0.401424	0.106917
C48	C	1.069935	-0.454747	1.068186
C49	C	1.176215	-0.348122	1.063095
C50	C	1.176193	-0.348140	0.980550
C51	C	1.123042	-0.401463	0.941819
C52	C	1.069913	-0.454768	0.985633
C53	C	1.229326	-0.294842	0.936730
C54	C	1.229307	-0.294858	0.854180
C55	C	1.176152	-0.348177	0.815447
C56	C	1.123020	-0.401484	0.859266
C57	C	1.069869	-0.454807	0.820535
C58	C	1.016732	-0.508110	0.864353
C59	C	1.016757	-0.508088	0.946900
C60	C	1.176127	-0.348200	0.732900
C61	C	1.069847	-0.454828	0.737983
H62	H	0.429267	-0.304799	0.303976
C63	C	0.884340	-0.336520	0.240224
C64	C	0.839174	-0.289559	0.288807
H65	H	0.914091	-0.300294	0.204236
H66	H	0.850363	-0.372799	0.211681
H67	H	0.919206	-0.368306	0.271807
H68	H	0.804303	-0.257778	0.257224
H69	H	0.873154	-0.253265	0.317352
H70	H	1.188895	-0.886295	0.334350
C71	C	1.048791	-1.014128	0.474296
C72	C	1.042096	-0.928541	0.480929
H73	H	1.013074	-1.043758	0.509955
H74	H	1.101225	-1.028284	0.486591
H75	H	1.036600	-1.028388	0.421844
H76	H	1.054292	-0.914280	0.533380
H77	H	0.989650	-0.914379	0.468639
H78	H	1.272604	-0.251434	0.968271
H79	H	1.026557	-0.498243	0.706454
C80	C	0.878175	-0.466697	0.560011
C81	C	0.828416	-0.513663	0.511441
H82	H	0.904452	-0.502920	0.595986
H83	H	0.847738	-0.430426	0.588568
H84	H	0.916090	-0.434903	0.528416
H85	H	0.790496	-0.545453	0.543036
H86	H	0.858855	-0.549949	0.482882
C87	C	1.192538	-0.236088	0.634710
C88	C	1.234529	-0.289619	0.684733
H89	H	1.228596	-0.199925	0.604971
H90	H	1.159670	-0.204184	0.665390
H91	H	1.160879	-0.267854	0.599835
H92	H	1.266184	-0.257853	0.719612
H93	H	1.267411	-0.321526	0.654050
C94	C	0.763088	-0.283150	0.187223
C95	C	0.717913	-0.236191	0.235800
H96	H	0.792846	-0.246922	0.151242
H97	H	0.729117	-0.319427	0.158673
H98	H	0.797948	-0.314937	0.218812
H99	H	0.683048	-0.204408	0.204211
H100	H	0.751888	-0.199899	0.264353
H101	H	0.973460	-0.551529	0.832808
H102	H	0.691002	-0.551838	0.549384
H103	H	0.973499	-0.551487	0.982584
H104	H	1.026670	-0.498143	1.103865
C105	C	1.223440	-0.300755	1.187375
C106	C	1.234639	-0.289515	1.105666
H107	H	1.259508	-0.264568	1.213656
H108	H	1.232293	-0.356763	1.203569
H109	H	1.170926	-0.288544	1.200312
H110	H	1.287151	-0.301732	1.092728
H111	H	1.225793	-0.233494	1.089466
C112	C	0.580155	-0.613933	0.611054
C113	C	0.528742	-0.567083	0.564521
H114	H	0.550407	-0.650170	0.647035
H115	H	0.614115	-0.577644	0.639604
H116	H	0.610803	-0.645770	0.578079
H117	H	0.498098	-0.535242	0.597495
H118	H	0.494768	-0.603377	0.535968
C119	C	1.245687	-0.182720	0.756017
C120	C	1.287699	-0.236247	0.806025
H121	H	1.281733	-0.146534	0.726287
H122	H	1.212806	-0.150840	0.786707
H123	H	1.214040	-0.214488	0.721133
H124	H	1.319341	-0.204480	0.840913
H125	H	1.320594	-0.268130	0.775332
C126	C	0.462901	-0.247491	0.247034
C127	C	0.544613	-0.236207	0.235816
H128	H	0.436626	-0.211277	0.211048
H129	H	0.449994	-0.235349	0.299575
H130	H	0.446666	-0.303498	0.238074
H131	H	0.560848	-0.180201	0.244783
H132	H	0.557526	-0.248343	0.183263
H133	H	0.419972	-0.498486	0.496401
