data_functionalizedCrystal
_audit_creation_method	'MofGen! by Chris Wilmer'
_symmetry_space_group_name_H-M	'P1'
_symmetry_Int_Tables_number	1
_symmetry_cell_setting	triclinic
loop_
_symmetry_equiv_pos_as_xyz
  x,y,z
_cell_length_a	13.032831
_cell_length_b	12.759400
_cell_length_c	12.759393
_cell_angle_alpha	89.969553
_cell_angle_beta	82.806329
_cell_angle_gamma	82.818273
loop_
_atom_site_label
_atom_site_type_symbol
_atom_site_fract_x
_atom_site_fract_y
_atom_site_fract_z
Zn1	Zn	1.597765	-0.622493	-0.797728
Zn2	Zn	1.597665	-0.798199	-0.622039
Zn3	Zn	1.422997	-0.600202	-0.599782
Zn4	Zn	1.422991	-0.775784	-0.775407
O5	O	1.510355	-0.699170	-0.698739
O6	O	1.743995	-0.664511	-0.793079
O7	O	1.574456	-0.771986	-0.472060
O8	O	1.446225	-0.456144	-0.626067
O9	O	1.743921	-0.793601	-0.664001
O10	O	1.574627	-0.472521	-0.771497
O11	O	1.446128	-0.626519	-0.455708
O12	O	1.276753	-0.604784	-0.604423
O13	O	1.446214	-0.755398	-0.925394
O14	O	1.276749	-0.733783	-0.733454
O15	O	1.574620	-0.642776	-0.941793
O16	O	1.574449	-0.942241	-0.642357
O17	O	1.446117	-0.925773	-0.755035
C18	C	1.238832	-0.664433	-0.664102
C19	C	1.122673	-0.649598	-0.649308
C20	C	1.070911	-0.706912	-0.706460
C21	C	0.950855	-0.691581	-0.691172
C22	C	1.510300	-0.972130	-0.698715
C23	C	1.510372	-1.088916	-0.698753
C24	C	1.577197	-1.152222	-0.774529
C25	C	1.577246	-1.261952	-0.774561
C26	C	1.443641	-1.245061	-0.623031
C27	C	1.443588	-1.135332	-0.623004
C28	C	1.643981	-1.105806	-0.850277
C29	C	1.710812	-1.169112	-0.926059
C30	C	1.710861	-1.278842	-0.926091
C31	C	1.644078	-1.325266	-0.850341
C32	C	1.782938	-0.734043	-0.733512
C33	C	1.899096	-0.748904	-0.748331
C34	C	1.510428	-0.699073	-0.972782
C35	C	1.510459	-0.699032	-1.089562
C36	C	1.510438	-0.425147	-0.698789
C37	C	1.510474	-0.308375	-0.698811
C38	C	1.577329	-0.640384	-1.152967
C39	C	1.577354	-0.640349	-1.262694
C40	C	1.443635	-0.757619	-1.245603
C41	C	1.443606	-0.757647	-1.135877
C42	C	1.644182	-0.581769	-1.106652
C43	C	1.711059	-0.523118	-1.170057
C44	C	1.711084	-0.523083	-1.279784
C45	C	1.644232	-0.581700	-1.326107
C46	C	1.510342	-0.699198	-0.425770
C47	C	1.510513	-0.698969	-0.309016
H48	H	0.943656	-0.809322	-0.808589
C49	C	1.716949	-0.517969	-0.958773
C50	C	1.644153	-0.581802	-0.986039
H51	H	1.716924	-0.517988	-0.884311
H52	H	1.784377	-0.544767	-0.992190
H53	H	1.698902	-0.447856	-0.981311
H54	H	1.662204	-0.651918	-0.963507
H55	H	1.576710	-0.555008	-0.952608
C56	C	0.955233	-0.568653	-0.568549
C57	C	1.062522	-0.568045	-0.567958
H58	H	0.918103	-0.518312	-0.518316
H59	H	0.937432	-0.551085	-0.636902
H60	H	0.937401	-0.636973	-0.550812
H61	H	1.080356	-0.499727	-0.585703
H62	H	1.080330	-0.585607	-0.499590
C63	C	1.392840	-1.272509	-0.438614
C64	C	1.370243	-1.296086	-0.539764
H65	H	1.347522	-1.304004	-0.387208
H66	H	1.463065	-1.299434	-0.432265
H67	H	1.383240	-1.198096	-0.427767
H68	H	1.379850	-1.370499	-0.550614
H69	H	1.300000	-1.269166	-0.546116
C70	C	1.761700	-1.318949	-1.110528
C71	C	1.784317	-1.348428	-1.009390
H72	H	1.807058	-1.361905	-1.161952
H73	H	1.691494	-1.327999	-1.116892
H74	H	1.771228	-1.246954	-1.121335
H75	H	1.774781	-1.420422	-0.998580
H76	H	1.854540	-1.339388	-1.003023
H77	H	1.115477	-0.767328	-0.766710
C78	C	1.384321	-0.809656	-1.406221
C79	C	1.370168	-0.822060	-1.296521
H80	H	1.338971	-0.849449	-1.437653
H81	H	1.369047	-0.737116	-1.422267
H82	H	1.454543	-0.834009	-1.433141
H83	H	1.299947	-0.797700	-1.269599
H84	H	1.385434	-0.894615	-1.280466
H85	H	1.765480	-0.475387	-1.132333
C86	C	1.266639	-1.079084	-0.549115
C87	C	1.370132	-1.065735	-0.539714
H88	H	1.221288	-1.036120	-0.497693
H89	H	1.251313	-1.059105	-0.617729
H90	H	1.257125	-1.151079	-0.538280
H91	H	1.379648	-0.993741	-0.550556
H92	H	1.385463	-1.085707	-0.471083
C93	C	1.762065	-0.351691	-1.320093
C94	C	1.784590	-0.458609	-1.349475
H95	H	1.807454	-0.311891	-1.363112
H96	H	1.691868	-0.327330	-1.329129
H97	H	1.771614	-0.343340	-1.248112
H98	H	1.775033	-0.466961	-1.421454
H99	H	1.854803	-0.482977	-1.340447
H100	H	1.644245	-0.581653	-1.415453
H101	H	1.643951	-1.016459	-0.850258
H102	H	1.644111	-1.414615	-0.850384
C103	C	1.311478	-0.873610	-1.130002
C104	C	1.370130	-0.822145	-1.066179
H105	H	1.266127	-0.913439	-1.086972
H106	H	1.271507	-0.822719	-1.167694
H107	H	1.357027	-0.919591	-1.178614
H108	H	1.324581	-0.776158	-1.017572
H109	H	1.410104	-0.873043	-1.028468
H110	H	1.765179	-1.131307	-0.987738
H111	H	0.906294	-0.631153	-0.630924
