data_functionalizedCrystal
_audit_creation_method	'MofGen! by Chris Wilmer'
_symmetry_space_group_name_H-M	'P1'
_symmetry_Int_Tables_number	1
_symmetry_cell_setting	triclinic
loop_
_symmetry_equiv_pos_as_xyz
  x,y,z
_cell_length_a	19.121102
_cell_length_b	19.121063
_cell_length_c	19.121175
_cell_angle_alpha	94.951770
_cell_angle_beta	85.212968
_cell_angle_gamma	90.126902
loop_
_atom_site_label
_atom_site_type_symbol
_atom_site_fract_x
_atom_site_fract_y
_atom_site_fract_z
Zn1	Zn	1.078480	-0.345237	-0.457776
Zn2	Zn	1.068784	-0.457452	-0.344694
Zn3	Zn	0.956233	-0.334783	-0.334686
Zn4	Zn	0.956186	-0.457406	-0.457304
O5	O	1.014921	-0.398719	-0.398615
O6	O	1.175477	-0.364516	-0.447161
O7	O	1.049816	-0.436824	-0.244725
O8	O	0.976527	-0.237889	-0.347024
O9	O	1.168354	-0.446961	-0.364080
O10	O	1.066341	-0.245569	-0.437457
O11	O	0.967125	-0.346700	-0.237373
O12	O	0.857943	-0.346655	-0.346566
O13	O	0.976446	-0.446882	-0.556008
O14	O	0.857908	-0.436746	-0.436653
O15	O	1.066295	-0.364472	-0.556354
O16	O	1.049770	-0.555727	-0.363622
O17	O	0.967044	-0.555693	-0.446357
C18	C	0.832442	-0.390561	-0.390473
C19	C	0.754377	-0.387089	-0.387007
C20	C	0.717696	-0.432428	-0.432214
C21	C	0.644346	-0.429156	-0.428961
C22	C	0.607678	-0.380548	-0.380496
C23	C	0.644364	-0.335205	-0.335287
C24	C	0.717713	-0.338474	-0.338545
C25	C	0.386212	-0.368326	-0.368321
C26	C	0.312858	-0.365061	-0.365066
C27	C	0.312845	-0.459012	-0.458740
C28	C	0.386195	-0.462279	-0.461990
C29	C	0.422875	-0.416933	-0.416784
C30	C	0.532702	-0.377205	-0.377168
C31	C	0.497850	-0.420275	-0.420116
C32	C	1.007370	-0.581194	-0.406040
C33	C	1.004204	-0.659262	-0.409244
C34	C	1.045825	-0.695936	-0.367712
C35	C	1.042852	-0.769289	-0.370729
C36	C	0.998255	-0.805966	-0.415274
C37	C	0.956634	-0.769287	-0.456810
C38	C	0.959610	-0.695936	-0.453797
C39	C	0.987115	-1.027440	-0.426530
C40	C	0.984139	-1.100797	-0.429539
C41	C	1.070359	-1.100793	-0.343458
C42	C	1.073329	-1.027440	-0.340445
C43	C	1.031710	-0.990768	-0.381984
C44	C	0.995214	-0.880945	-0.418357
C45	C	1.034755	-0.915791	-0.378904
C46	C	1.198112	-0.406910	-0.406789
C47	C	1.276177	-0.410400	-0.410273
C48	C	1.022447	-0.406838	-0.582473
C49	C	1.025654	-0.410297	-0.660822
C50	C	1.022521	-0.215534	-0.391177
C51	C	1.025760	-0.137471	-0.388007
C52	C	0.984110	-0.365001	-0.693802
C53	C	0.987121	-0.368257	-0.767419
C54	C	1.031680	-0.416807	-0.808055
C55	C	1.073225	-0.462109	-0.775070
C56	C	1.070210	-0.458855	-0.701454
C57	C	1.042933	-0.428981	-1.030520
C58	C	1.045947	-0.432229	-1.104141
C59	C	0.959841	-0.338378	-1.096485
C60	C	0.956833	-0.335126	-1.022868
C61	C	0.998376	-0.380430	-0.989889
C62	C	1.034760	-0.420135	-0.883304
C63	C	0.995292	-0.377105	-0.914642
C64	C	1.007466	-0.390584	-0.215472
C65	C	1.004403	-0.386933	-0.137122
H66	H	0.282973	-0.495929	-0.495546
Br67	Br	1.133692	-0.528005	-0.830218
H68	H	0.416067	-0.331407	-0.331506
H69	H	0.527708	-0.459848	-0.459579
H70	H	1.076752	-0.465878	-1.003678
H71	H	1.109643	-0.997579	-0.304173
H72	H	1.104244	-1.130660	-0.309640
Br73	Br	0.923599	-1.150572	-0.489984
Br74	Br	0.903128	-0.646164	-0.510168
H75	H	0.502838	-0.337630	-0.337707
H76	H	1.076743	-0.799145	-0.336909
H77	H	0.283005	-0.325472	-0.325604
H78	H	1.082235	-0.471766	-1.137226
H79	H	1.071039	-0.459665	-0.916398
Br80	Br	1.126588	-0.520337	-0.656694
H81	H	0.947830	-0.325462	-0.660721
Br82	Br	0.896362	-0.269231	-0.967724
H83	H	0.959010	-0.337578	-0.881553
H84	H	0.747546	-0.472011	-0.471677
H85	H	0.614484	-0.466076	-0.465772
Br86	Br	0.930632	-0.977680	-0.482905
H87	H	0.926019	-0.301495	-1.123345
Br88	Br	0.896115	-0.819064	-0.517272
H89	H	0.416046	-0.501862	-0.501454
Br90	Br	1.095282	-0.866014	-0.318456
Br91	Br	1.106345	-0.646166	-0.307248
H92	H	0.953289	-0.331374	-0.794268
Br93	Br	0.594601	-0.269230	-0.269520
H94	H	0.747577	-0.301551	-0.301736
H95	H	0.958902	-0.910816	-0.454624
