data_functionalizedCrystal
_audit_creation_method	'MofGen! by Chris Wilmer'
_symmetry_space_group_name_H-M	'P1'
_symmetry_Int_Tables_number	1
_symmetry_cell_setting	triclinic
loop_
_symmetry_equiv_pos_as_xyz
  x,y,z
_cell_length_a	16.120490
_cell_length_b	12.594516
_cell_length_c	16.120297
_cell_angle_alpha	87.123691
_cell_angle_beta	89.870317
_cell_angle_gamma	87.104371
loop_
_atom_site_label
_atom_site_type_symbol
_atom_site_fract_x
_atom_site_fract_y
_atom_site_fract_z
Zn1	Zn	1.247532	-0.539337	0.534562
Zn2	Zn	1.497532	-0.289337	0.784562
Zn3	Zn	1.747532	-0.039337	1.034562
Zn4	Zn	1.997532	0.210663	1.284562
Zn5	Zn	1.254509	-0.708781	0.395513
Zn6	Zn	1.504509	-0.458781	0.645513
Zn7	Zn	1.754509	-0.208781	0.895513
Zn8	Zn	2.004509	0.041219	1.145513
Zn9	Zn	1.115519	-0.521341	0.388482
Zn10	Zn	1.365519	-0.271341	0.638482
Zn11	Zn	1.615519	-0.021341	0.888482
Zn12	Zn	1.865519	0.228659	1.138482
Zn13	Zn	1.108465	-0.707790	0.527485
Zn14	Zn	1.358465	-0.457790	0.777485
Zn15	Zn	1.608465	-0.207790	1.027485
Zn16	Zn	1.858465	0.042210	1.277485
O17	O	1.181506	-0.619312	0.461510
O18	O	1.431506	-0.369312	0.711510
O19	O	1.681506	-0.119312	0.961510
O20	O	1.931506	0.130688	1.211510
O21	O	1.364825	-0.569759	0.522020
O22	O	1.614825	-0.319759	0.772020
O23	O	1.864825	-0.069759	1.022020
O24	O	2.114825	0.180241	1.272020
O25	O	1.241944	-0.676800	0.278214
O26	O	1.491944	-0.426800	0.528214
O27	O	1.741944	-0.176800	0.778214
O28	O	1.991944	0.073200	1.028214
O29	O	1.133062	-0.374786	0.407879
O30	O	1.383062	-0.124786	0.657879
O31	O	1.633062	0.125214	0.907879
O32	O	1.883062	0.375214	1.157879
O33	O	1.369952	-0.694249	0.419862
O34	O	1.619952	-0.444249	0.669862
O35	O	1.869952	-0.194249	0.919862
O36	O	2.119952	0.055751	1.169862
O37	O	1.230052	-0.388007	0.515203
O38	O	1.480052	-0.138007	0.765203
O39	O	1.730052	0.111993	1.015203
O40	O	1.980052	0.361993	1.265203
O41	O	1.139828	-0.539089	0.273049
O42	O	1.389828	-0.289089	0.523049
O43	O	1.639828	-0.039089	0.773049
O44	O	1.889828	0.210911	1.023049
O45	O	0.998215	-0.538129	0.401017
O46	O	1.248215	-0.288129	0.651017
O47	O	1.498215	-0.038129	0.901017
O48	O	1.748215	0.211871	1.151017
O49	O	1.121040	-0.692561	0.644790
O50	O	1.371040	-0.442561	0.894790
O51	O	1.621040	-0.192561	1.144790
O52	O	1.871040	0.057439	1.394790
O53	O	0.993032	-0.675112	0.503142
O54	O	1.243032	-0.425112	0.753142
O55	O	1.493032	-0.175112	1.003142
O56	O	1.743032	0.074888	1.253142
O57	O	1.223212	-0.568799	0.649989
O58	O	1.473212	-0.318799	0.899989
O59	O	1.723212	-0.068799	1.149989
O60	O	1.973212	0.181201	1.399989
O61	O	1.235104	-0.857592	0.413000
O62	O	1.485104	-0.607592	0.663000
O63	O	1.735104	-0.357592	0.913000
O64	O	1.985104	-0.107592	1.163000
O65	O	1.127806	-0.856864	0.509960
O66	O	1.377806	-0.606864	0.759960
O67	O	1.627806	-0.356864	1.009960
O68	O	1.877806	-0.106864	1.259960
C69	C	0.965450	-0.604561	0.450550
C70	C	1.215450	-0.354561	0.700550
C71	C	1.465450	-0.104561	0.950550
C72	C	1.715450	0.145439	1.200550
C73	C	0.873020	-0.598277	0.445880
C74	C	1.123020	-0.348277	0.695880
C75	C	1.373020	-0.098277	0.945880
C76	C	1.623020	0.151723	1.195880
C77	C	0.660066	-0.651900	0.485733
C78	C	0.910066	-0.401900	0.735733
C79	C	1.160066	-0.151900	0.985733
C80	C	1.410066	0.098100	1.235733
C81	C	0.703793	-0.586814	0.437354
C82	C	0.953793	-0.336814	0.687354
C83	C	1.203793	-0.086814	0.937354
C84	C	1.453793	0.163186	1.187354
C85	C	0.797960	-0.593194	0.442099
C86	C	1.047960	-0.343194	0.692099
C87	C	1.297960	-0.093194	0.942099
C88	C	1.547960	0.156806	1.192099
C89	C	0.565891	-0.645521	0.480988
C90	C	0.815891	-0.395521	0.730988
C91	C	1.065891	-0.145521	0.980988
C92	C	1.315891	0.104479	1.230988
C93	C	1.181468	-0.895850	0.461494
C94	C	1.431468	-0.645850	0.711494
C95	C	1.681468	-0.395850	0.961494
C96	C	1.931468	-0.145850	1.211494
C97	C	1.181527	-1.014161	0.461519
C98	C	1.431527	-0.764161	0.711519
C99	C	1.681527	-0.514161	0.961519
C100	C	1.931527	-0.264161	1.211519
C101	C	1.239948	-1.083779	0.408845
C102	C	1.489948	-0.833779	0.658845
C103	C	1.739948	-0.583779	0.908845
C104	C	1.989948	-0.333779	1.158845
C105	C	1.256420	-1.160534	0.485772
C106	C	1.506420	-0.910534	0.735772
C107	C	1.756420	-0.660534	0.985772
C108	C	2.006420	-0.410534	1.235772
C109	C	1.165156	-1.148214	0.384645
C110	C	1.415156	-0.898214	0.634645
C111	C	1.665156	-0.648214	0.884645
C112	C	1.915156	-0.398214	1.134645
C113	C	1.198036	-1.089362	0.538487
C114	C	1.448036	-0.839362	0.788487
C115	C	1.698036	-0.589362	1.038487
C116	C	1.948036	-0.339362	1.288487
C117	C	1.106739	-1.077031	0.437308
C118	C	1.356739	-0.827031	0.687308
C119	C	1.606739	-0.577031	0.937308
C120	C	1.856739	-0.327031	1.187308
C121	C	1.123180	-1.153756	0.514286
C122	C	1.373180	-0.903756	0.764286
C123	C	1.623180	-0.653756	1.014286
C124	C	1.873180	-0.403756	1.264286
C125	C	1.398405	-0.634122	0.472515
C126	C	1.648405	-0.384122	0.722515
C127	C	1.898405	-0.134122	0.972515
C128	C	2.148405	0.115878	1.222515
C129	C	1.490835	-0.640433	0.477204
C130	C	1.740835	-0.390433	0.727204
C131	C	1.990835	-0.140433	0.977204
C132	C	2.240835	0.109567	1.227204
C133	C	1.170561	-0.632577	0.678406
C134	C	1.420561	-0.382577	0.928406
C135	C	1.670561	-0.132577	1.178406
C136	C	1.920561	0.117423	1.428406
C137	C	1.165897	-0.638230	0.770833
C138	C	1.415897	-0.388230	1.020833
C139	C	1.665897	-0.138230	1.270833
C140	C	1.915897	0.111770	1.520833
C141	C	1.181566	-0.341698	0.461546
C142	C	1.431566	-0.091698	0.711546
C143	C	1.681566	0.158302	0.961546
C144	C	1.931566	0.408302	1.211546
C145	C	1.181591	-0.223395	0.461562
C146	C	1.431591	0.026605	0.711562
C147	C	1.681591	0.276605	0.961562
C148	C	1.931591	0.526605	1.211562
C149	C	1.192456	-0.606026	0.245462
C150	C	1.442456	-0.356026	0.495462
C151	C	1.692456	-0.106026	0.745462
C152	C	1.942456	0.143974	0.995462
C153	C	1.197282	-0.600084	0.153042
C154	C	1.447282	-0.350084	0.403042
C155	C	1.697282	-0.100084	0.653042
C156	C	1.947282	0.149916	0.903042
C157	C	1.157351	-0.648524	0.940059
C158	C	1.407351	-0.398524	1.190059
C159	C	1.657351	-0.148524	1.440059
C160	C	1.907351	0.101476	1.690059
C161	C	1.205825	-0.589793	0.983822
C162	C	1.455825	-0.339793	1.233822
C163	C	1.705825	-0.089793	1.483822
C164	C	1.955825	0.160207	1.733822
C165	C	1.201070	-0.595520	1.077985
C166	C	1.451070	-0.345520	1.327985
C167	C	1.701070	-0.095520	1.577985
C168	C	1.951070	0.154480	1.827985
C169	C	1.162105	-0.642798	0.845887
C170	C	1.412105	-0.392798	1.095887
C171	C	1.662105	-0.142798	1.345887
C172	C	1.912105	0.107202	1.595887
H173	H	0.670508	-0.526301	0.392372
H174	H	0.920508	-0.276301	0.642372
H175	H	1.170508	-0.026301	0.892372
H176	H	1.420508	0.223699	1.142372
H177	H	1.043486	-1.040538	0.416786
H178	H	1.293486	-0.790538	0.666786
H179	H	1.543486	-0.540538	0.916786
H180	H	1.793486	-0.290538	1.166786
H181	H	0.693350	-0.712409	0.530711
H182	H	0.943350	-0.462409	0.780711
H183	H	1.193350	-0.212409	1.030711
H184	H	1.443350	0.037591	1.280711
N185	N	1.305389	-1.043064	0.349893
N186	N	1.555389	-0.793064	0.599893
N187	N	1.805389	-0.543064	0.849893
N188	N	2.055389	-0.293064	1.099893
H189	H	1.361886	-1.073621	0.368310
H190	H	1.611886	-0.823621	0.618310
H191	H	1.861886	-0.573621	0.868310
H192	H	2.111886	-0.323621	1.118310
H193	H	1.304473	-0.962825	0.349923
H194	H	1.554473	-0.712825	0.599923
H195	H	1.804473	-0.462825	0.849923
H196	H	2.054473	-0.212825	1.099923
H197	H	1.319693	-1.197004	0.506272
H198	H	1.569693	-0.947004	0.756272
H199	H	1.819693	-0.697004	1.006272
H200	H	2.069693	-0.447004	1.256272
H201	H	1.151283	-1.174266	0.319617
H202	H	1.401283	-0.924266	0.569617
H203	H	1.651283	-0.674266	0.819617
H204	H	1.901283	-0.424266	1.069617
H205	H	1.250896	-0.535208	0.950571
H206	H	1.500896	-0.285208	1.200571
H207	H	1.750896	-0.035208	1.450571
H208	H	2.000896	0.214792	1.700571
H209	H	1.112283	-0.703105	0.973308
H210	H	1.362283	-0.453105	1.223308
H211	H	1.612283	-0.203105	1.473308
H212	H	1.862283	0.046895	1.723308
N213	N	1.216508	-1.055050	0.624658
N214	N	1.466508	-0.805050	0.874658
N215	N	1.716508	-0.555050	1.124658
N216	N	1.966508	-0.305050	1.374658
H217	H	1.216393	-0.974817	0.624105
H218	H	1.466393	-0.724817	0.874105
H219	H	1.716393	-0.474817	1.124105
H220	H	1.966393	-0.224817	1.374105
H221	H	1.272820	-1.086294	0.643027
H222	H	1.522820	-0.836294	0.893027
H223	H	1.772820	-0.586294	1.143027
H224	H	2.022820	-0.336294	1.393027
N225	N	1.057757	-1.194201	0.573375
N226	N	1.307757	-0.944201	0.823375
N227	N	1.557757	-0.694201	1.073375
N228	N	1.807757	-0.444201	1.323375
H229	H	1.070253	-1.172812	0.631413
H230	H	1.320253	-0.922812	0.881413
H231	H	1.570253	-0.672812	1.131413
H232	H	1.820253	-0.422812	1.381413
H233	H	1.057829	-1.274344	0.572650
H234	H	1.307829	-1.024344	0.822650
H235	H	1.557829	-0.774344	1.072650
H236	H	1.807829	-0.524344	1.322650
