data_functionalizedCrystal
_audit_creation_method	'MofGen! by Chris Wilmer'
_symmetry_space_group_name_H-M	'P1'
_symmetry_Int_Tables_number	1
_symmetry_cell_setting	triclinic
loop_
_symmetry_equiv_pos_as_xyz
  x,y,z
_cell_length_a	19.288859
_cell_length_b	8.965430
_cell_length_c	19.288865
_cell_angle_alpha	89.994113
_cell_angle_beta	96.865014
_cell_angle_gamma	89.997947
loop_
_atom_site_label
_atom_site_type_symbol
_atom_site_fract_x
_atom_site_fract_y
_atom_site_fract_z
O1	O	0.921344	0.124086	-0.086624
O2	O	1.421344	0.624086	0.413376
O3	O	0.719083	0.124085	-0.098317
O4	O	1.219083	0.624085	0.401683
O5	O	0.826058	0.124056	0.008660
O6	O	1.326058	0.624056	0.508660
O7	O	0.814369	0.124115	-0.193601
O8	O	1.314369	0.624115	0.306399
O9	O	0.826063	-0.124023	0.008657
O10	O	1.326063	0.375977	0.508657
O11	O	0.719088	-0.123994	-0.098320
O12	O	1.219088	0.376006	0.401680
O13	O	0.921349	-0.123993	-0.086627
O14	O	1.421349	0.376007	0.413373
Cu15	Cu	0.820219	-0.146645	-0.092474
Cu16	Cu	1.320219	0.353355	0.407526
Cu17	Cu	0.820213	0.146737	-0.092470
Cu18	Cu	1.320213	0.646737	0.407530
O19	O	0.814374	-0.123964	-0.193604
O20	O	1.314374	0.376036	0.306396
C21	C	0.693209	0.000045	-0.097943
C22	C	1.193209	0.500045	0.402057
C23	C	0.616105	0.000043	-0.096816
C24	C	1.116105	0.500043	0.403184
N25	N	0.820228	-0.352994	-0.092476
N26	N	1.320228	0.147006	0.407524
C27	C	0.052064	0.000061	-0.151959
C28	C	0.552064	0.500061	0.348041
C29	C	0.124511	0.000069	-0.153025
C30	C	0.624511	0.500069	0.346975
C31	C	0.169217	0.000048	-0.090255
C32	C	0.669217	0.500048	0.409745
C33	C	0.141472	0.000057	-0.026416
C34	C	0.641472	0.500057	0.473584
C35	C	0.069027	0.000064	-0.025353
C36	C	0.569027	0.500064	0.474647
C37	C	0.290489	-0.086884	-0.043443
C38	C	0.790489	0.413116	0.456557
C39	C	0.362933	-0.086900	-0.044510
C40	C	0.862933	0.413100	0.455490
C41	C	0.392663	0.000034	-0.093533
C42	C	0.892663	0.500034	0.406467
C43	C	0.349939	0.086964	-0.141502
C44	C	0.849939	0.586964	0.358498
C45	C	0.277494	0.086971	-0.140438
C46	C	0.777494	0.586971	0.359562
C47	C	0.247773	0.000042	-0.091401
C48	C	0.747773	0.500042	0.408599
C49	C	0.498955	0.000044	-0.158523
C50	C	0.998955	0.500044	0.341477
C51	C	0.571403	0.000061	-0.159586
C52	C	1.071403	0.500061	0.340414
C53	C	0.588364	0.000034	-0.032976
C54	C	1.088364	0.500034	0.467024
C55	C	0.515917	0.000032	-0.031915
C56	C	1.015917	0.500032	0.468085
C57	C	0.471216	0.000030	-0.094691
C58	C	0.971216	0.500030	0.405309
C59	C	0.869716	-0.450274	-0.043006
C60	C	1.369716	0.049726	0.456994
C61	C	0.806992	-0.549684	-0.029713
C62	C	1.306992	-0.049684	0.470287
C63	C	0.882928	-0.549712	-0.105725
C64	C	1.382928	-0.049712	0.394275
C65	C	0.757472	-0.450215	-0.079152
C66	C	1.257472	0.049785	0.420848
C67	C	0.833449	-0.450235	-0.155191
C68	C	1.333449	0.049765	0.344809
C69	C	0.770680	-0.549600	-0.141925
C70	C	1.270680	-0.049600	0.358075
C71	C	0.947223	0.000050	-0.087001
C72	C	1.447223	0.500050	0.412999
C73	C	1.024327	0.000062	-0.088128
C74	C	1.524327	0.500062	0.411872
C75	C	0.825684	0.000012	0.034535
C76	C	1.325684	0.500012	0.534535
C77	C	0.824555	-0.000001	0.111638
C78	C	1.324555	0.499999	0.611638
N79	N	0.820209	0.353086	-0.092462
N80	N	1.320209	0.853086	0.407538
C81	C	0.814747	0.000083	-0.219479
C82	C	1.314747	0.500083	0.280521
C83	C	0.815876	0.000106	-0.296583
C84	C	1.315876	0.500106	0.203417
C85	C	0.887323	-0.000008	0.156336
C86	C	1.387323	0.499992	0.656336
C87	C	0.886262	0.000015	0.228783
C88	C	1.386262	0.500015	0.728783
C89	C	0.822430	0.000016	0.256529
C90	C	1.322430	0.500016	0.756529
C91	C	0.759654	0.000031	0.211822
C92	C	1.259654	0.500031	0.711822
C93	C	0.760716	0.000023	0.139376
C94	C	1.260716	0.500023	0.639376
C95	C	0.772252	-0.086881	0.364814
C96	C	1.272252	0.413119	0.864814
C97	C	0.771192	-0.086882	0.437259
C98	C	1.271192	0.413118	0.937259
C99	C	0.819150	0.000049	0.479975
C100	C	1.319150	0.500049	0.979975
C101	C	0.868180	0.086961	0.450239
C102	C	1.368180	0.586961	0.950239
C103	C	0.869243	0.086953	0.377793
C104	C	1.369243	0.586953	0.877793
C105	C	0.821271	0.000026	0.335083
C106	C	1.321271	0.500026	0.835083
C107	C	0.880773	0.000070	0.603228
C108	C	1.380773	0.500070	1.103228
C109	C	0.879709	0.000103	0.675676
C110	C	1.379709	0.500103	1.175676
C111	C	0.753099	0.000104	0.658713
C112	C	1.253099	0.500104	1.158713
C113	C	0.754164	0.000086	0.586267
C114	C	1.254164	0.500086	1.086267
C115	C	0.818003	0.000062	0.558529
C116	C	1.318003	0.500062	1.058529
H117	H	0.015673	0.000067	-0.203077
H118	H	0.515673	0.500067	0.296923
O119	O	0.949624	0.000062	0.573305
O120	O	1.449624	0.500062	1.073305
H121	H	0.953129	0.101162	0.540690
H122	H	1.453129	0.601162	1.040690
O123	O	0.636571	0.000005	0.034729
O124	O	1.136571	0.500005	0.534729
H125	H	0.691608	-0.000009	0.023268
H126	H	1.191608	0.499991	0.523268
H127	H	0.266290	-0.157679	-0.003519
H128	H	0.766290	0.342321	0.496481
H129	H	0.703051	0.000083	0.549873
H130	H	1.203051	0.500083	1.049873
H131	H	0.911527	-0.406660	-0.001150
H132	H	1.411527	0.093340	0.498850
O133	O	0.848300	-0.392323	-0.225431
O134	O	1.348300	0.107677	0.274569
H135	H	0.847663	-0.268534	-0.224938
H136	H	1.347663	0.231466	0.275062
H137	H	0.937377	0.000016	0.265183
H138	H	1.437377	0.500016	0.765183
O139	O	0.693012	0.000002	0.091163
O140	O	1.193012	0.500002	0.591163
H141	H	0.662445	0.101109	0.100992
H142	H	1.162445	0.601109	0.600992
O143	O	0.792162	-0.607580	0.040541
O144	O	1.292162	-0.107580	0.540541
H145	H	0.833319	-0.567819	0.081513
H146	H	1.333319	-0.067819	0.581513
H147	H	0.593984	0.000073	-0.211567
H148	H	1.093984	0.500073	0.288433
O149	O	0.684251	0.000103	0.688633
O150	O	1.184251	0.500103	1.188633
H151	H	0.640781	0.000107	0.645377
H152	H	1.140781	0.500107	1.145377
H153	H	0.147099	0.000055	-0.205005
H154	H	0.647099	0.500055	0.294995
O155	O	0.687215	-0.392560	-0.064210
O156	O	1.187215	0.107440	0.435790
H157	H	0.646148	-0.433257	-0.105046
H158	H	1.146148	0.066743	0.394954
O159	O	0.485993	0.000017	0.036932
O160	O	0.985993	0.500017	0.536932
H161	H	0.453388	-0.101089	0.040440
H162	H	0.953388	0.398911	0.540440
O163	O	0.715179	-0.607048	-0.197330
O164	O	1.215179	-0.107048	0.302670
H165	H	0.663209	-0.566991	-0.186156
H166	H	1.163209	-0.066991	0.313844
O167	O	0.953172	-0.607595	-0.120589
O168	O	1.453172	-0.107595	0.379411
H169	H	0.994163	-0.567794	-0.079461
H170	H	1.494163	-0.067794	0.420539
H171	H	0.397713	-0.157692	-0.005454
H172	H	0.897713	0.342308	0.494546
O173	O	0.956174	0.000008	0.126416
O174	O	1.456174	0.500008	0.626416
H175	H	0.999643	0.000028	0.169674
H176	H	1.499643	0.500028	0.669674
H177	H	0.374143	0.157750	-0.181423
H178	H	0.874143	0.657750	0.318577
O179	O	0.039108	0.000037	0.043498
O180	O	0.539108	0.500037	0.543498
H181	H	0.057079	0.101135	0.073654
H182	H	0.557079	0.601135	0.573654
H183	H	0.462558	0.000045	-0.209639
H184	H	0.962558	0.500045	0.290361
O185	O	0.922109	0.180709	0.345716
O186	O	1.422109	0.680709	0.845716
H187	H	0.955277	0.241175	0.387583
H188	H	1.455277	0.741175	0.887583
O189	O	0.919921	0.180702	0.496305
O190	O	1.419921	0.680702	0.996305
H191	H	0.954198	0.241113	0.463459
H192	H	1.454198	0.741113	0.963459
O193	O	0.189686	0.000018	0.041288
O194	O	0.689686	0.500018	0.541288
H195	H	0.244722	-0.000007	0.029825
H196	H	0.744722	0.499993	0.529825
O197	O	0.947412	0.000083	0.723892
O198	O	1.447412	0.500083	1.223892
H199	H	0.991978	0.000046	0.692430
H200	H	1.491978	0.500046	1.192430
H201	H	0.731266	-0.157642	0.461463
H202	H	1.231266	0.342358	0.961463
H203	H	0.242711	0.157756	-0.179495
H204	H	0.742711	0.657756	0.320505
O205	O	0.720526	-0.180655	0.318743
O206	O	1.220526	0.319345	0.818743
H207	H	0.686264	-0.241108	0.351590
H208	H	1.186264	0.258892	0.851590
O209	O	0.690803	0.000015	0.241741
O210	O	1.190803	0.500015	0.741741
H211	H	0.700609	-0.000001	0.299627
H212	H	1.200609	0.499999	0.799627
