data_functionalizedCrystal
_audit_creation_method	'MofGen! by Chris Wilmer'
_symmetry_space_group_name_H-M	'P1'
_symmetry_Int_Tables_number	1
_symmetry_cell_setting	triclinic
loop_
_symmetry_equiv_pos_as_xyz
  x,y,z
_cell_length_a	18.760487
_cell_length_b	17.052862
_cell_length_c	17.052862
_cell_angle_alpha	61.493325
_cell_angle_beta	90.033923
_cell_angle_gamma	70.288255
loop_
_atom_site_label
_atom_site_type_symbol
_atom_site_fract_x
_atom_site_fract_y
_atom_site_fract_z
Zr1	Zr	0.826075	0.816831	-0.199988
O2	O	0.747361	0.944711	-0.328161
O3	O	0.832875	0.666110	-0.145793
O4	O	0.871068	0.783920	-0.306584
O5	O	0.698753	0.860826	-0.057488
O6	O	0.988365	0.783941	-0.306516
O7	O	0.709167	0.826901	-0.167370
O8	O	0.920043	0.573201	-0.018891
O9	O	0.767075	1.071566	-0.345113
O10	O	0.944250	0.736578	-0.140634
O11	O	0.848941	0.761881	-0.058681
O12	O	0.893909	0.900587	-0.247992
O13	O	0.798600	0.925889	-0.166039
Zr14	Zr	0.996540	0.870970	-0.024631
Zr15	Zr	1.013149	0.816864	-0.199880
Zr16	Zr	0.809466	0.870937	-0.024739
Zr17	Zr	0.857517	1.019150	-0.227026
Zr18	Zr	0.965099	0.668650	0.002407
O19	O	0.989741	1.021690	-0.078826
O20	O	1.013357	0.944758	-0.328007
O21	O	0.723745	1.021644	-0.078980
O22	O	1.075254	0.743090	0.103542
O23	O	1.098870	0.666157	-0.145639
O24	O	0.809259	0.743043	0.103388
O25	O	1.123862	0.826974	-0.167131
O26	O	0.951547	0.903881	0.081965
O27	O	0.834251	0.903860	0.081897
O28	O	1.113448	0.860899	-0.057249
O29	O	0.915774	1.071593	-0.345028
O30	O	0.906841	0.616208	0.120409
O31	O	1.055540	0.616234	0.120495
O32	O	1.068742	0.573227	-0.018805
O33	O	0.753873	1.114574	-0.205814
O34	O	0.902572	1.114600	-0.205728
O35	O	0.928706	0.787214	0.023373
O36	O	1.024015	0.761912	-0.058580
O37	O	0.973674	0.925920	-0.165938
O38	O	0.878366	0.951222	-0.083985
C39	C	0.871979	0.590829	-0.078489
C40	C	0.858631	0.504939	-0.067011
C41	C	0.677306	0.843859	-0.112444
C42	C	0.597888	0.843845	-0.112490
C43	C	1.020006	0.210004	-0.205783
C44	C	1.032546	0.290704	-0.216573
C45	C	0.989069	0.344267	-0.179184
C46	C	0.933049	0.317121	-0.131002
C47	C	0.920504	0.236417	-0.120216
C48	C	0.889566	0.370680	-0.093617
C49	C	0.833547	0.343534	-0.045435
C50	C	0.821005	0.262837	-0.034651
C51	C	0.864482	0.209275	-0.072041
C52	C	0.902111	0.451384	-0.104402
C53	C	0.802609	0.477797	-0.018836
C54	C	0.790070	0.397096	-0.008046
C55	C	0.235764	0.929559	-0.168207
C56	C	0.288325	0.758331	-0.056124
C57	C	0.362953	0.758308	-0.056194
C58	C	0.373990	0.843911	-0.112273
C59	C	0.310399	0.929538	-0.168281
C60	C	0.426551	0.672681	-0.000194
C61	C	0.501185	0.672654	-0.000262
C62	C	0.512222	0.758260	-0.056337
C63	C	0.448625	0.843890	-0.112346
C64	C	0.459662	0.929493	-0.168425
C65	C	0.396065	1.015126	-0.224430
C66	C	0.321436	1.015143	-0.224355
C67	C	0.586851	0.758242	-0.056412
C68	C	0.534297	0.929472	-0.168498
C69	C	1.145309	0.843942	-0.112175
C70	C	1.224727	0.843956	-0.112129
C71	C	0.932083	0.776221	-0.331519
C72	C	0.939134	0.753252	-0.405917
C73	C	0.950636	1.096972	-0.146130
C74	C	0.963984	1.182862	-0.157608
C75	C	0.853889	1.030955	-0.839795
C76	C	0.847259	1.052539	-0.769896
C77	C	0.870228	0.977719	-0.678899
C78	C	0.899826	0.881311	-0.657805
C79	C	0.906450	0.859725	-0.727710
C80	C	0.922789	0.806489	-0.566814
C81	C	0.952388	0.710081	-0.545720
C82	C	0.959011	0.688499	-0.615620
C83	C	0.936043	0.763319	-0.706617
C84	C	0.916165	0.828076	-0.496909
C85	C	0.968727	0.656846	-0.384824
C86	C	0.975356	0.635262	-0.454722
C87	C	0.890532	0.911579	0.106900
C88	C	0.883481	0.934549	0.181298
C89	C	1.105981	0.590870	-0.078354
C90	C	1.172051	0.504994	-0.066830
C91	C	0.851204	0.658508	0.140720
C92	C	0.830805	0.595588	0.226596
C93	C	1.085205	0.658549	0.140855
C94	C	1.144224	0.595643	0.226777
C95	C	0.737410	1.029251	-0.365474
C96	C	0.678391	1.092158	-0.451396
C97	C	0.716635	1.096930	-0.146264
C98	C	0.650565	1.182806	-0.157788
C99	C	0.971412	1.029293	-0.365339
C100	C	0.991810	1.092213	-0.451215
C101	C	1.161442	0.451440	-0.104257
C102	C	1.223518	0.370757	-0.093447
C103	C	1.296201	0.343625	-0.045204
C104	C	1.306809	0.397188	-0.007777
C105	C	1.244735	0.477874	-0.018593
C106	C	0.862861	0.579266	0.309763
C107	C	0.843692	0.520159	0.390458
C108	C	0.792471	0.477369	0.387984
C109	C	0.760411	0.493697	0.304808
C110	C	0.779576	0.552808	0.224115
C111	C	1.221699	0.552894	0.224348
C112	C	1.277163	0.493796	0.305072
C113	C	1.255151	0.477443	0.388225
C114	C	1.177669	0.520199	0.390652
C115	C	1.122207	0.579302	0.309927
C116	C	0.600918	1.134917	-0.448968
C117	C	0.545458	1.194040	-0.529696
C118	C	0.567471	1.210397	-0.612849
C119	C	0.644952	1.167635	-0.615275
C120	C	0.700411	1.108519	-0.534549
C121	C	0.661175	1.236367	-0.120370
C122	C	0.599105	1.317067	-0.131202
C123	C	0.526422	1.344200	-0.179448
C124	C	0.515813	1.290635	-0.216871
C125	C	0.577885	1.209941	-0.206044
C126	C	1.043034	1.134985	-0.448712
C127	C	1.062216	1.194097	-0.529393
C128	C	1.030169	1.210441	-0.612578
C129	C	0.978942	1.167661	-0.615078
C130	C	0.959765	1.108545	-0.534397
H131	H	0.947723	0.473479	-0.143633
C132	C	0.744318	0.570749	0.132635
H133	H	0.763060	0.612085	0.084924
H134	H	0.758462	0.510916	0.134276
H135	H	0.689673	0.600332	0.122263
H136	H	0.279333	0.688636	-0.010471
C137	C	1.386759	0.367328	0.045296
H138	H	1.422201	0.311596	0.046382
H139	H	1.404327	0.418726	0.016433
H140	H	1.383075	0.353216	0.105831
C141	C	0.669158	1.185621	-0.706743
H142	H	0.723242	1.151694	-0.696637
H143	H	0.642632	1.163424	-0.734030
H144	H	0.656542	1.252844	-0.745989
H145	H	1.340248	0.458987	0.303081
H146	H	1.059124	0.614101	0.311918
C147	C	1.051264	1.275470	-0.701322
H148	H	1.024848	1.279078	-0.751226
H149	H	1.036590	1.338426	-0.709746
H150	H	1.105375	1.249012	-0.697745
H151	H	0.918052	1.073726	-0.536448
C152	C	0.546431	1.023637	-0.230188
H153	H	0.497868	1.074632	-0.263533
H154	H	0.570854	1.039144	-0.193822
H155	H	0.578050	1.015228	-0.271280
C156	C	0.919194	0.626339	0.312500
H157	H	0.935525	0.608156	0.373593
H158	H	0.962801	0.605256	0.288809
H159	H	0.893996	0.694656	0.276801
C160	C	0.458147	1.432960	-0.191350
H161	H	0.413338	1.441458	-0.225447
H162	H	0.448872	1.423341	-0.133275
H163	H	0.470110	1.488847	-0.222686
H164	H	1.239636	0.566198	0.156649
H165	H	0.718705	0.458849	0.302808
H166	H	1.214866	0.327154	-0.123927
C167	C	0.728466	0.367217	0.044974
H168	H	0.704376	0.410660	0.065713
H169	H	0.690775	0.369015	0.006257
H170	H	0.752256	0.303536	0.095685
H171	H	0.952853	1.180978	-0.682818
C172	C	0.460236	1.241058	-0.527010
H173	H	0.455073	1.222831	-0.465921
H174	H	0.443475	1.309376	-0.562685
H175	H	0.429585	1.219954	-0.550752
H176	H	0.569234	1.166333	-0.236514
H177	H	0.869806	0.506873	0.458175
C178	C	1.316163	0.412421	0.477015
H179	H	1.365454	0.389299	0.463653
H180	H	1.317291	0.448626	0.505113
H181	H	1.303391	0.359207	0.517052
H182	H	0.582980	1.121602	-0.381267
C183	C	0.785627	1.061476	-0.537229
H184	H	0.790785	1.079681	-0.598315
H185	H	0.816292	1.082563	-0.513489
H186	H	0.802371	0.993156	-0.501549
H187	H	0.456628	1.312740	-0.256154
H188	H	0.823161	1.131035	-0.787077
H189	H	1.069135	1.121690	-0.380987
H190	H	0.776872	0.429239	0.453697
H191	H	0.767205	0.521410	0.011607
C192	C	0.165817	1.023751	-0.229808
H193	H	0.183082	1.074728	-0.263209
H194	H	0.139206	1.015370	-0.270837
H195	H	0.132015	1.039274	-0.193372
H196	H	0.854279	0.143557	-0.063253
H197	H	0.999282	0.409976	-0.187972
H198	H	1.103926	1.228924	-0.527340
H199	H	0.864828	0.995299	-0.621988
C200	C	0.414408	0.578526	0.061483
H201	H	0.360852	0.590807	0.053511
H202	H	0.441035	0.531390	0.045768
H203	H	0.433835	0.555300	0.123229
C204	C	0.610785	1.375967	-0.090023
H205	H	0.662959	1.348234	-0.059726
H206	H	0.598930	1.440747	-0.137158
H207	H	0.577678	1.375238	-0.047760
C208	C	0.506457	1.275411	-0.701638
H209	H	0.457164	1.298520	-0.688274
H210	H	0.519221	1.328620	-0.741689
H211	H	0.505333	1.239185	-0.729719
C212	C	0.741118	1.206534	-0.067297
H213	H	0.738538	1.250004	-0.046575
H214	H	0.756447	1.142858	-0.016586
H215	H	0.777686	1.208361	-0.105999
C216	C	1.153462	0.502207	0.482121
H217	H	1.099377	0.536134	0.472014
H218	H	1.166089	0.434986	0.521364
H219	H	1.179979	0.524416	0.509409
C220	C	1.094164	0.320558	-0.269565
H221	H	1.118266	0.277097	-0.290281
H222	H	1.070403	0.384236	-0.320276
H223	H	1.131852	0.318739	-0.230820
H224	H	1.055397	0.166393	-0.236227
C225	C	0.571132	0.578467	0.061348
H226	H	0.553868	0.527491	0.094760
H227	H	0.604946	0.562938	0.024928
H228	H	0.597729	0.586862	0.102382
C229	C	0.408209	1.109285	-0.286117
H230	H	0.359649	1.160287	-0.319466
H231	H	0.432635	1.124787	-0.249749
H232	H	0.439829	1.100870	-0.327207
C233	C	0.251486	1.109329	-0.285958
H234	H	0.268744	1.160313	-0.319360
H235	H	0.224881	1.100941	-0.326986
H236	H	0.217679	1.124850	-0.249523
C237	C	0.656800	0.664060	0.005190
H238	H	0.639538	0.613083	0.038602
H239	H	0.690613	0.648536	-0.031231
H240	H	0.683398	0.672454	0.046225
C241	C	0.759381	0.232979	0.018338
H242	H	0.758132	0.177252	0.019399
H243	H	0.771716	0.218885	0.078875
H244	H	0.710270	0.284383	-0.010584
C245	C	1.256411	0.536766	0.022593
H246	H	1.308587	0.509039	0.052880
H247	H	1.244546	0.601551	-0.024537
H248	H	1.223311	0.536022	0.064865
H249	H	0.999454	0.556765	-0.437559
C250	C	0.883615	0.934115	-0.520111
H251	H	0.882952	0.936260	-0.465451
H252	H	0.915241	0.965763	-0.554574
H253	H	0.832558	0.965741	-0.554615
C254	C	0.943321	0.739574	-0.783505
H255	H	0.964234	0.671442	-0.757912
H256	H	0.893771	0.766307	-0.820033
H257	H	0.976459	0.766313	-0.819997
C258	C	0.991560	0.582456	-0.592422
H259	H	0.992209	0.580316	-0.647085
H260	H	1.042612	0.550821	-0.557917
H261	H	0.959925	0.550811	-0.557963
H262	H	0.835187	1.091863	-0.913886
H263	H	0.987426	0.595921	-0.310730
C264	C	1.081498	0.481276	-0.157329
H265	H	1.046039	0.536995	-0.158411
H266	H	1.085185	0.495375	-0.217856
H267	H	1.063946	0.429860	-0.128450
C268	C	1.364473	0.254863	-0.033304
H269	H	1.347737	0.226853	-0.062498
H270	H	1.404520	0.274232	-0.059735
H271	H	1.383272	0.208732	0.029671
