data_functionalizedCrystal
_audit_creation_method	'MofGen! by Chris Wilmer'
_symmetry_space_group_name_H-M	'P1'
_symmetry_Int_Tables_number	1
_symmetry_cell_setting	triclinic
loop_
_symmetry_equiv_pos_as_xyz
  x,y,z
_cell_length_a	12.759401
_cell_length_b	16.959453
_cell_length_c	12.759393
_cell_angle_alpha	90.034523
_cell_angle_beta	90.019211
_cell_angle_gamma	90.020414
loop_
_atom_site_label
_atom_site_type_symbol
_atom_site_fract_x
_atom_site_fract_y
_atom_site_fract_z
Zn1	Zn	1.606223	-0.314630	0.593959
Zn2	Zn	2.106223	0.185370	1.093959
Zn3	Zn	1.606099	-0.446830	0.418269
Zn4	Zn	2.106099	0.053170	0.918269
Zn5	Zn	1.430523	-0.314671	0.418298
Zn6	Zn	1.930523	0.185329	0.918298
Zn7	Zn	1.430497	-0.446771	0.593910
Zn8	Zn	1.930497	0.053229	1.093910
O9	O	1.518336	-0.380726	0.506109
O10	O	2.018336	0.119274	1.006109
O11	O	1.753228	-0.332174	0.570662
O12	O	2.253228	0.167826	1.070662
O13	O	1.582768	-0.429341	0.271252
O14	O	2.082768	0.070659	0.771252
O15	O	1.453893	-0.204054	0.441633
O16	O	1.953893	0.295946	0.941633
O17	O	1.753137	-0.429301	0.441583
O18	O	2.253137	0.070699	0.941583
O19	O	1.582979	-0.204025	0.570691
O20	O	2.082979	0.295975	1.070691
O21	O	1.453773	-0.332244	0.271273
O22	O	1.953773	0.167756	0.771273
O23	O	1.283499	-0.332187	0.441585
O24	O	1.783499	0.167813	0.941585
O25	O	1.453849	-0.429201	0.740938
O26	O	1.953849	0.070799	1.240938
O27	O	1.283480	-0.429240	0.570606
O28	O	1.783480	0.070760	1.070606
O29	O	1.582954	-0.332117	0.740974
O30	O	2.082954	0.167883	1.240974
O31	O	1.582743	-0.557433	0.441535
O32	O	2.082743	-0.057433	0.941535
O33	O	1.453729	-0.557390	0.570578
O34	O	1.953729	-0.057390	1.070578
C35	C	1.245368	-0.380712	0.506094
C36	C	1.745368	0.119288	1.006094
C37	C	1.128592	-0.380725	0.506113
C38	C	1.628592	0.119275	1.006113
C39	C	1.073778	-0.330243	0.573428
C40	C	1.573778	0.169757	1.073428
C41	C	0.964054	-0.330251	0.573435
C42	C	1.464054	0.169749	1.073435
C43	C	0.963967	-0.431231	0.438809
C44	C	1.463967	0.068769	0.938809
C45	C	1.073689	-0.431218	0.438797
C46	C	1.573689	0.068782	0.938797
C47	C	1.518248	-0.586092	0.506071
C48	C	2.018248	-0.086092	1.006071
C49	C	1.518307	-0.673949	0.506089
C50	C	2.018307	-0.173949	1.006089
C51	C	1.585637	-1.045350	0.573436
C52	C	2.085637	-0.545350	1.073436
C53	C	1.451328	-1.045498	0.438938
C54	C	1.951328	-0.545498	0.938938
C55	C	1.451289	-0.962952	0.438914
C56	C	1.951289	-0.462952	0.938914
C57	C	1.518424	-0.921601	0.506153
C58	C	2.018424	-0.421601	1.006153
C59	C	1.585598	-0.962796	0.573416
C60	C	2.085598	-0.462796	1.073416
C61	C	1.384109	-0.921751	0.371660
C62	C	1.884109	-0.421751	0.871660
C63	C	1.384067	-0.839200	0.371634
C64	C	1.884067	-0.339200	0.871634
C65	C	1.451207	-0.797848	0.438868
C66	C	1.951207	-0.297848	0.938868
C67	C	1.518385	-0.839048	0.506133
C68	C	2.018385	-0.339048	1.006133
C69	C	1.585520	-0.797697	0.573372
C70	C	2.085520	-0.297697	1.073372
C71	C	1.652703	-0.838896	0.640633
C72	C	2.152703	-0.338896	1.140633
C73	C	1.652739	-0.921444	0.640651
C74	C	2.152739	-0.421444	1.140651
C75	C	1.451172	-0.715299	0.438850
C76	C	1.951172	-0.215299	0.938850
C77	C	1.585480	-0.715144	0.573353
C78	C	2.085480	-0.215144	1.073353
C79	C	1.792369	-0.380740	0.506125
C80	C	2.292369	0.119260	1.006125
C81	C	1.909146	-0.380746	0.506131
C82	C	2.409146	0.119254	1.006131
C83	C	1.518412	-0.380648	0.780143
C84	C	2.018412	0.119352	1.280143
C85	C	1.518445	-0.380615	0.896919
C86	C	2.018445	0.119385	1.396919
C87	C	1.518452	-0.174557	0.506171
C88	C	2.018452	0.325443	1.006171
C89	C	1.518502	-0.086701	0.506197
C90	C	2.018502	0.413299	1.006197
C91	C	1.518320	-0.380746	0.233142
C92	C	2.018320	0.119254	0.733142
C93	C	1.518491	-0.380557	0.116366
C94	C	2.018491	0.119443	0.616366
C95	C	1.585696	-0.330025	1.061533
C96	C	2.085696	0.169975	1.561533
C97	C	1.585676	-0.330056	0.951809
C98	C	2.085676	0.169944	1.451809
C99	C	1.451236	-0.431152	0.951760
C100	C	1.951236	0.068848	1.451760
C101	C	1.451263	-0.431124	1.061482
C102	C	1.951263	0.068876	1.561482
H103	H	0.919252	-0.472341	0.384004
H104	H	1.419252	0.027659	0.884004
C105	C	1.377279	-0.486766	0.891377
C106	C	1.877279	0.013234	1.391377
N107	N	1.321569	-0.528652	0.845898
N108	N	1.821569	-0.028652	1.345898
C109	C	1.726628	-0.966768	0.714637
C110	C	2.226628	-0.466768	1.214637
N111	N	1.782277	-1.000910	0.770365
N112	N	2.282277	-0.500910	1.270365
H113	H	0.919429	-0.289141	0.628248
H114	H	1.419429	0.210859	1.128248
C115	C	1.377326	-0.486715	1.121801
C116	C	1.877326	0.013285	1.621801
N117	N	1.321640	-0.528584	1.167234
N118	N	1.821640	-0.028584	1.667234
C119	C	1.133988	-0.486756	0.364741
C120	C	1.633988	0.013244	0.864741
N121	N	1.179405	-0.528583	0.308963
N122	N	1.679405	-0.028583	0.808963
H123	H	1.396467	-0.681759	0.384093
H124	H	1.896467	-0.181759	0.884093
C125	C	1.377566	-1.090987	0.364898
C126	C	1.877566	-0.590987	0.864898
N127	N	1.322037	-1.125252	0.309096
N128	N	1.822037	-0.625252	0.809096
C129	C	1.659340	-0.669664	0.647319
C130	C	2.159340	-0.169664	1.147319
N131	N	1.714971	-0.635410	0.703030
N132	N	2.214971	-0.135410	1.203030
C133	C	1.134166	-0.274692	0.647468
C134	C	1.634166	0.225308	1.147468
N135	N	1.179648	-0.232847	0.703233
N136	N	1.679648	0.267153	1.203233
H137	H	1.707360	-0.805218	0.695384
H138	H	2.207360	-0.305218	1.195384
H139	H	1.640339	-1.078897	0.628195
H140	H	2.140339	-0.578897	1.128195
C141	C	1.310390	-0.967242	0.297578
C142	C	1.810390	-0.467242	0.797578
N143	N	1.254910	-1.001509	0.241730
N144	N	1.754910	-0.501509	0.741730
C145	C	1.310155	-0.793889	0.297655
C146	C	1.810155	-0.293889	0.797655
N147	N	1.254482	-0.759760	0.241936
N148	N	1.754482	-0.259760	0.741936
C149	C	1.659657	-0.274406	1.121902
C150	C	2.159657	0.225594	1.621902
N151	N	1.715371	-0.232514	1.167368
N152	N	2.215371	0.267486	1.667368
H153	H	1.640402	-0.288909	0.907169
H154	H	2.140402	0.211091	1.407169
