data_functionalizedCrystal
_audit_creation_method	'MofGen! by Chris Wilmer'
_symmetry_space_group_name_H-M	'P1'
_symmetry_Int_Tables_number	1
_symmetry_cell_setting	triclinic
loop_
_symmetry_equiv_pos_as_xyz
  x,y,z
_cell_length_a	16.109302
_cell_length_b	19.188930
_cell_length_c	15.186229
_cell_angle_alpha	89.991143
_cell_angle_beta	89.994701
_cell_angle_gamma	83.303281
loop_
_atom_site_label
_atom_site_type_symbol
_atom_site_fract_x
_atom_site_fract_y
_atom_site_fract_z
O1	O	1.102833	0.089746	-0.073278
O2	O	1.602833	0.589746	0.426722
O3	O	0.860734	0.100914	-0.073273
O4	O	1.360734	0.600914	0.426727
O5	O	0.988770	-0.006309	-0.073258
O6	O	1.488770	0.493691	0.426742
O7	O	0.974797	0.196970	-0.073292
O8	O	1.474797	0.696970	0.426708
O9	O	0.988761	-0.006310	0.073199
O10	O	1.488761	0.493690	0.573199
O11	O	0.860725	0.100913	0.073185
O12	O	1.360725	0.600913	0.573185
O13	O	1.102824	0.089745	0.073179
O14	O	1.602824	0.589745	0.573179
Zn15	Zn	0.981774	0.095329	0.096435
Zn16	Zn	1.481774	0.595329	0.596435
Zn17	Zn	0.981785	0.095331	-0.096529
Zn18	Zn	1.481785	0.595331	0.403471
O19	O	0.974788	0.196968	0.073165
O20	O	1.474788	0.696968	0.573165
C21	C	0.829756	0.100461	-0.000043
C22	C	1.329756	0.600461	0.499957
C23	C	0.737466	0.099105	-0.000040
C24	C	1.237466	0.599105	0.499960
C25	C	0.525130	0.095967	0.079786
C26	C	1.025130	0.595967	0.579786
C27	C	0.438415	0.094685	0.079783
C28	C	0.938415	0.594685	0.579783
C29	C	0.438434	0.094690	-0.079893
C30	C	0.938434	0.594690	0.420107
C31	C	0.525149	0.095967	-0.079889
C32	C	1.025149	0.595967	0.420111
C33	C	0.568495	0.096609	-0.000047
C34	C	1.068495	0.596609	0.499953
C35	C	0.395064	0.094050	-0.000054
C36	C	0.895064	0.594050	0.499946
C37	C	0.301043	0.092660	-0.000058
C38	C	0.801043	0.592660	0.499942
C39	C	0.662522	0.097998	-0.000043
C40	C	1.162522	0.597998	0.499957
C41	C	0.988313	-0.032322	-0.000027
C42	C	1.488313	0.467678	0.499973
C43	C	0.986955	-0.109829	-0.000020
C44	C	1.486955	0.390171	0.499980
C45	C	1.062082	-0.154578	-0.000017
C46	C	1.562082	0.345422	0.499983
C47	C	1.060806	-0.227404	-0.000031
C48	C	1.560806	0.272596	0.499969
C49	C	0.984398	-0.255480	-0.000030
C50	C	1.484398	0.244520	0.499970
C51	C	0.909261	-0.210722	-0.000037
C52	C	1.409261	0.289278	0.499963
C53	C	0.910539	-0.137897	-0.000032
C54	C	1.410539	0.362103	0.499968
N55	N	0.925991	-0.363622	0.049814
N56	N	1.425991	0.136378	0.549814
N57	N	0.924782	-0.432803	0.049810
N58	N	1.424782	0.067197	0.549810
C59	C	0.980542	-0.474897	-0.000048
C60	C	1.480542	0.025103	0.499952
N61	N	1.037571	-0.445198	-0.049892
N62	N	1.537571	0.054802	0.450108
N63	N	1.038782	-0.376011	-0.049885
N64	N	1.538782	0.123989	0.450115
C65	C	0.983004	-0.334446	-0.000036
C66	C	1.483004	0.165554	0.499964
C67	C	1.054291	-0.598613	-0.000062
C68	C	1.554291	-0.098613	0.499938
C69	C	1.053012	-0.671441	-0.000081
C70	C	1.553012	-0.171441	0.499919
C71	C	0.901465	-0.654757	-0.000079
C72	C	1.401465	-0.154757	0.499921
C73	C	0.902746	-0.581931	-0.000068
C74	C	1.402746	-0.081931	0.499932
C75	C	0.979162	-0.553864	-0.000055
C76	C	1.479162	-0.053864	0.499945
C77	C	1.133802	0.090198	-0.000052
C78	C	1.633802	0.590198	0.499948
C79	C	1.226093	0.091555	-0.000061
C80	C	1.726093	0.591555	0.499939
N81	N	0.981772	0.095327	0.228128
N82	N	1.481772	0.595327	0.728128
C83	C	0.975245	0.222981	-0.000068
C84	C	1.475245	0.722981	0.499932
C85	C	0.976604	0.300489	-0.000082
C86	C	1.476604	0.800489	0.499918
N87	N	0.981793	0.095327	-0.228221
N88	N	1.481793	0.595327	0.271779
C89	C	1.038485	0.047864	0.453857
C90	C	1.538485	0.547864	0.953857
C91	C	1.038488	0.047863	0.546047
C92	C	1.538488	0.547863	1.046047
C93	C	0.925073	0.142792	0.546043
C94	C	1.425073	0.642792	1.046043
C95	C	0.925068	0.142789	0.453855
C96	C	1.425068	0.642789	0.953855
C97	C	0.981778	0.095327	0.407764
C98	C	1.481778	0.595327	0.907764
C99	C	0.981787	0.095327	0.592142
C100	C	1.481787	0.595327	1.092142
C101	C	0.981789	0.095326	0.692098
C102	C	1.481789	0.595326	1.192098
C103	C	0.981775	0.095327	0.307802
C104	C	1.481775	0.595327	0.807802
H105	H	1.124305	-0.131731	-0.000010
H106	H	1.624305	0.368269	0.499990
H107	H	1.121986	-0.263845	-0.000033
H108	H	1.621986	0.236155	0.499967
H109	H	0.847049	-0.233585	-0.000038
H110	H	1.347049	0.266415	0.499962
H111	H	0.841569	-0.545495	-0.000065
H112	H	1.341569	-0.045495	0.499935
C113	C	0.572857	0.096677	-0.167707
C114	C	1.072857	0.596677	0.332293
H115	H	0.630709	0.097523	-0.156268
H116	H	1.130709	0.597523	0.343732
H117	H	0.552162	0.137160	-0.200517
H118	H	1.052162	0.637160	0.299483
H119	H	0.565141	0.055773	-0.200507
H120	H	1.065141	0.555773	0.299493
H121	H	0.849360	-0.101462	-0.000034
H122	H	1.349360	0.398538	0.499966
H123	H	1.116513	-0.575760	-0.000056
H124	H	1.616513	-0.075760	0.499944
H125	H	1.114192	-0.707875	-0.000084
H126	H	1.614192	-0.207875	0.499916
H127	H	0.839252	-0.677615	-0.000082
H128	H	1.339252	-0.177615	0.499918
H129	H	1.084662	0.009216	0.416332
H130	H	1.584662	0.509216	0.916332
C131	C	1.100869	-0.004343	0.596745
C132	C	1.600869	0.495657	1.096745
H133	H	1.134644	-0.032605	0.556089
H134	H	1.634644	0.467395	1.056089
H135	H	1.071075	-0.033416	0.632719
H136	H	1.571075	0.466584	1.132719
H137	H	1.135388	0.020788	0.632695
H138	H	1.635388	0.520788	1.132695
C139	C	0.862705	0.195003	0.596746
C140	C	1.362705	0.695003	1.096746
H141	H	0.870835	0.188212	0.658251
H142	H	1.370835	0.688212	1.158251
H143	H	0.807245	0.187410	0.581651
H144	H	1.307245	0.687410	1.081651
H145	H	0.871570	0.241604	0.581622
H146	H	1.371570	0.741604	1.081622
C147	C	0.862694	0.195004	0.403146
C148	C	1.362694	0.695004	0.903146
H149	H	0.870810	0.188200	0.341641
H150	H	1.370810	0.688200	0.841641
H151	H	0.871555	0.241604	0.418241
H152	H	1.371555	0.741604	0.918241
H153	H	0.807233	0.187408	0.418262
H154	H	1.307233	0.687408	0.918262
C155	C	0.572811	0.096653	0.167607
C156	C	1.072811	0.596653	0.667607
H157	H	0.534564	0.096076	0.215152
H158	H	1.034564	0.596076	0.715152
H159	H	0.600156	0.137837	0.170937
H160	H	1.100156	0.637837	0.670937
H161	H	0.613122	0.056450	0.170920
H162	H	1.113122	0.556450	0.670920
C163	C	0.390751	0.093993	-0.167712
C164	C	0.890751	0.593993	0.332288
H165	H	0.332894	0.093149	-0.156282
H166	H	0.832894	0.593149	0.343718
H167	H	0.411452	0.053514	-0.200513
H168	H	0.911452	0.553514	0.299487
H169	H	0.398478	0.134901	-0.200514
H170	H	0.898478	0.634901	0.299486
C171	C	0.390717	0.093983	0.167599
C172	C	0.890717	0.593983	0.667599
H173	H	0.428953	0.094554	0.215147
H174	H	0.928953	0.594554	0.715147
H175	H	0.363378	0.052794	0.170927
H176	H	0.863378	0.552794	0.670927
H177	H	0.350399	0.134181	0.170908
H178	H	0.850399	0.634181	0.670908
