data_functionalizedCrystal
_audit_creation_method	'MofGen! by Chris Wilmer'
_symmetry_space_group_name_H-M	'P1'
_symmetry_Int_Tables_number	1
_symmetry_cell_setting	triclinic
loop_
_symmetry_equiv_pos_as_xyz
  x,y,z
_cell_length_a	14.971486
_cell_length_b	10.654550
_cell_length_c	13.448316
_cell_angle_alpha	89.994587
_cell_angle_beta	89.998199
_cell_angle_gamma	84.049516
loop_
_atom_site_label
_atom_site_type_symbol
_atom_site_fract_x
_atom_site_fract_y
_atom_site_fract_z
O1	O	1.187838	0.163659	-0.082575
O2	O	0.927544	0.183258	-0.082602
O3	O	1.063676	-0.009345	-0.082584
O4	O	1.051707	0.356262	-0.082593
O5	O	1.063659	-0.009357	0.082800
O6	O	0.927527	0.183246	0.082782
O7	O	1.187821	0.163647	0.082809
Cu8	Cu	1.057672	0.173445	0.097896
Cu9	Cu	1.057693	0.173460	-0.097689
O10	O	1.051689	0.356250	0.082791
C11	C	0.894206	0.182375	0.000087
C12	C	0.794895	0.179749	0.000077
C13	C	1.062788	-0.056139	0.000107
C14	C	1.060159	-0.195555	0.000103
C15	C	0.738285	0.292898	0.000075
C16	C	0.644972	0.290422	0.000090
C17	C	0.608271	0.174797	0.000099
C18	C	0.664888	0.061639	0.000104
C19	C	0.758199	0.064116	0.000096
C20	C	0.470397	0.056485	0.000117
C21	C	0.377080	0.054007	0.000123
C22	C	0.357171	0.282791	0.000112
C23	C	0.450482	0.285268	0.000104
C24	C	0.507092	0.172110	0.000106
C25	C	1.140311	-0.275900	0.000114
C26	C	1.137835	-0.406894	0.000107
C27	C	0.975048	-0.377185	0.000081
C28	C	0.977525	-0.246193	0.000082
C29	C	1.222945	-0.225262	0.000136
C30	C	1.303104	-0.305609	0.000148
C31	C	1.300628	-0.436603	0.000141
C32	C	1.217993	-0.487250	0.000121
C33	C	1.221159	0.164530	0.000118
C34	C	1.320470	0.167156	0.000122
C35	C	1.052577	0.403044	0.000098
C36	C	1.055206	0.542460	0.000096
N37	N	1.057664	0.173435	0.235461
N38	N	1.057708	0.173460	-0.235253
C39	C	1.117962	0.088185	0.287509
C40	C	1.117968	0.088184	0.391612
C41	C	1.057679	0.173440	0.443665
C42	C	0.997375	0.258693	0.391610
C43	C	0.997365	0.258687	0.287509
C44	C	0.997400	0.258702	0.608590
C45	C	0.997410	0.258710	0.712698
C46	C	1.118002	0.088199	0.712694
C47	C	1.117993	0.088193	0.608592
C48	C	1.057689	0.173448	0.556544
H49	H	0.768160	0.387053	0.000067
H50	H	0.804290	-0.028022	0.000096
H51	H	1.370382	-0.264362	0.000139
O52	O	0.938884	0.341675	0.236990
C53	C	0.954175	0.466031	0.262427
H54	H	1.025792	0.466816	0.291033
H55	H	0.944268	0.529028	0.193959
H56	H	0.904832	0.502805	0.322857
O57	O	1.215699	-0.614519	-0.000025
C58	C	1.259506	-0.666410	-0.085690
H59	H	1.308464	-0.599591	-0.114236
H60	H	1.297859	-0.761353	-0.066428
H61	H	1.207622	-0.680246	-0.145674
H62	H	0.598884	0.382560	0.000088
O63	O	1.378428	-0.514782	0.000278
C64	C	1.381864	-0.591435	0.085941
H65	H	1.310822	-0.598167	0.114486
H66	H	1.414573	-0.689832	0.066677
H67	H	1.422976	-0.548292	0.145928
O68	O	0.486023	0.397667	-0.000043
C69	C	0.457175	0.466635	-0.085713
H70	H	0.392256	0.432306	-0.114258
H71	H	0.444870	0.571197	-0.066457
H72	H	0.511068	0.452174	-0.145695
O73	O	0.938714	0.341382	0.763226
C74	C	0.850050	0.320753	0.737791
H75	H	0.849006	0.220206	0.709173
H76	H	0.805262	0.335067	0.806264
H77	H	0.824185	0.390303	0.677372
O78	O	0.341379	-0.058275	-0.000033
C79	C	0.287979	-0.066541	-0.085668
H80	H	0.310454	-0.000897	-0.145549
H81	H	0.295715	-0.167745	-0.114402
H82	H	0.214587	-0.037667	-0.066303
O83	O	0.629387	-0.050790	0.000153
C84	C	0.699365	-0.150128	0.000127
H85	H	0.762961	-0.114831	0.031437
H86	H	0.679369	-0.230853	0.048142
H87	H	0.712351	-0.185026	-0.079216
H88	H	0.907771	-0.418433	0.000067
O89	O	1.225470	-0.098038	0.000275
C90	C	1.270907	-0.062441	0.085955
H91	H	1.316997	-0.146611	0.114516
H92	H	1.312585	0.017893	0.066708
H93	H	1.219884	-0.029819	0.145924
H94	H	0.912258	-0.180773	0.000074
H95	H	0.516488	-0.035661	0.000121
O96	O	1.176562	0.005246	0.237103
C97	C	1.229797	-0.069977	0.305371
H98	H	1.193122	-0.071474	0.379583
H99	H	1.242821	-0.170241	0.275304
H100	H	1.296492	-0.029044	0.316429
H101	H	1.167067	0.018767	0.433989
H102	H	0.948291	0.328122	0.566216
O103	O	1.176545	0.005206	0.763135
C104	C	1.161232	-0.119152	0.737728
H105	H	1.126747	-0.119081	0.662150
H106	H	1.228087	-0.180831	0.734157
H107	H	1.116484	-0.158102	0.796329
H108	H	1.167089	0.018778	0.566211
H109	H	0.948282	0.328106	0.433998
H110	H	0.311074	0.374929	0.000114
