data_functionalizedCrystal
_audit_creation_method	'MofGen! by Chris Wilmer'
_symmetry_space_group_name_H-M	'P1'
_symmetry_Int_Tables_number	1
_symmetry_cell_setting	triclinic
loop_
_symmetry_equiv_pos_as_xyz
  x,y,z
_cell_length_a	11.792254
_cell_length_b	13.339070
_cell_length_c	12.376457
_cell_angle_alpha	104.410245
_cell_angle_beta	101.355083
_cell_angle_gamma	80.086054
loop_
_atom_site_label
_atom_site_type_symbol
_atom_site_fract_x
_atom_site_fract_y
_atom_site_fract_z
O1	O	0.554302	-1.364755	-0.094049
O2	O	0.479489	-1.069813	-0.094042
O3	O	0.353930	-1.224433	-0.094037
O4	O	0.679861	-1.210135	-0.094053
O5	O	0.385265	-1.185791	0.093974
O6	O	0.510824	-1.031171	0.093969
O7	O	0.585636	-1.326113	0.093962
Zn8	Zn	0.553205	-1.172507	0.123817
Zn9	Zn	0.511920	-1.223419	-0.123896
O10	O	0.711196	-1.171493	0.093958
C11	C	0.482519	-1.012733	-0.000035
C12	C	0.444851	-0.900222	-0.000032
C13	C	0.327029	-1.204211	-0.000032
C14	C	0.200185	-1.201515	-0.000033
C15	C	0.582606	-1.383194	-0.000047
C16	C	0.620273	-1.495706	-0.000057
C17	C	0.097173	-1.199325	-0.000037
C18	C	-0.032059	-1.196588	-0.000047
C19	C	0.738096	-1.191715	-0.000050
C20	C	0.864939	-1.194413	-0.000056
N21	N	0.581383	-1.137769	0.292874
C22	C	0.737741	-0.537054	-0.000064
C23	C	0.773136	-0.642764	-0.000071
C24	C	0.691068	-0.707134	-0.000061
C25	C	0.573599	-0.665784	-0.000045
C26	C	0.538199	-0.560066	-0.000048
C27	C	0.491525	-0.730145	-0.000044
C28	C	0.374056	-0.688795	-0.000029
C29	C	0.338663	-0.583087	-0.000030
C30	C	0.420731	-0.518717	-0.000040
C31	C	0.526925	-0.835863	-0.000041
C32	C	0.327383	-0.858874	-0.000025
C33	C	0.291988	-0.753164	-0.000019
N34	N	0.483736	-1.258166	-0.292953
C35	C	0.418305	-1.338805	0.647865
C36	C	0.398582	-1.363113	0.529526
C37	C	0.444280	-1.306779	0.470357
C38	C	0.509706	-1.226133	0.529539
C39	C	0.529439	-1.201828	0.647890
C40	C	0.555414	-1.169801	0.470382
C41	C	0.620840	-1.089156	0.529564
C42	C	0.640569	-1.064854	0.647903
C43	C	0.594870	-1.121189	0.707072
C44	C	0.535681	-1.194106	0.352031
C45	C	0.646814	-1.057129	0.352056
C46	C	0.666538	-1.032821	0.470395
H47	H	0.622570	-0.869518	-0.000049
N48	N	0.614989	-1.096332	0.827956
N49	N	0.580261	-1.007085	0.880773
H50	H	0.594456	-0.989527	0.966149
H51	H	0.482411	-1.259769	0.303856
H52	H	0.196341	-0.719484	-0.000015
N53	N	0.893117	-0.685011	-0.000062
N54	N	0.924710	-0.779397	-0.000055
H55	H	1.009453	-0.809235	-0.000044
H56	H	0.260555	-0.911285	-0.000022
N57	N	0.727197	-0.815115	-0.000066
N58	N	0.685237	-0.883732	-0.079306
H59	H	0.710756	-0.959998	-0.079305
H60	H	0.804547	-0.484638	-0.000082
H61	H	0.391918	-0.432638	-0.000035
N62	N	0.424132	-1.331625	0.349477
N63	N	0.365718	-1.403632	0.296650
H64	H	0.351484	-1.421183	0.211274
H65	H	0.719810	-0.967158	0.518596
N66	N	0.693502	-0.999597	0.291613
N67	N	0.675879	-1.021309	0.185949
H68	H	0.708854	-0.980684	0.143253
N69	N	0.707424	-0.982492	0.708340
N70	N	0.748227	-0.932204	0.655505
H71	H	0.795448	-0.874037	0.698186
N72	N	0.218665	-0.540868	-0.000037
N73	N	0.145399	-0.598347	-0.000033
H74	H	0.060648	-0.568533	-0.000040
N75	N	0.331901	-1.445590	0.469094
N76	N	0.291201	-1.495948	0.521931
H77	H	0.244158	-1.554240	0.479251
N78	N	0.371671	-1.396352	0.708320
N79	N	0.389318	-1.374652	0.813983
H80	H	0.356388	-1.415305	0.856683
