data_functionalizedCrystal
_audit_creation_method	'MofGen! by Chris Wilmer'
_symmetry_space_group_name_H-M	'P1'
_symmetry_Int_Tables_number	1
_symmetry_cell_setting	triclinic
loop_
_symmetry_equiv_pos_as_xyz
  x,y,z
_cell_length_a	12.827893
_cell_length_b	12.827892
_cell_length_c	12.827893
_cell_angle_alpha	90.007263
_cell_angle_beta	90.003786
_cell_angle_gamma	90.015362
loop_
_atom_site_label
_atom_site_type_symbol
_atom_site_fract_x
_atom_site_fract_y
_atom_site_fract_z
Zn1	Zn	1.597510	-0.416216	0.590848
Zn2	Zn	1.597451	-0.590924	0.416109
Zn3	Zn	1.422798	-0.416198	0.416122
Zn4	Zn	1.422737	-0.590915	0.590808
O5	O	1.510124	-0.503563	0.503472
O6	O	1.743738	-0.439402	0.567680
O7	O	1.574285	-0.567743	0.269874
O8	O	1.446025	-0.269964	0.439322
O9	O	1.743695	-0.567760	0.439299
O10	O	1.574384	-0.269977	0.567693
O11	O	1.445968	-0.439372	0.269884
O12	O	1.276554	-0.439363	0.439283
O13	O	1.445919	-0.567745	0.737050
O14	O	1.276509	-0.567727	0.567625
O15	O	1.574324	-0.439393	0.737079
O16	O	1.574224	-0.737159	0.439261
O17	O	1.445862	-0.737152	0.567612
C18	C	1.238614	-0.503543	0.503452
C19	C	1.122461	-0.503560	0.503468
C20	C	1.070681	-0.567177	0.566878
C21	C	0.950631	-0.567196	0.566896
C22	C	1.510059	-0.775073	0.503453
C23	C	1.510126	-0.891226	0.503480
C24	C	1.573719	-0.942980	0.440039
C25	C	1.573791	-1.063030	0.440065
C26	C	1.782694	-0.503584	0.503492
C27	C	1.898847	-0.503593	0.503501
C28	C	1.510121	-0.503570	0.776042
C29	C	1.510120	-0.503573	0.892195
C30	C	1.510218	-0.230993	0.503513
C31	C	1.510258	-0.114840	0.503531
C32	C	1.573652	-0.440069	0.943994
C33	C	1.573653	-0.440070	1.064045
C34	C	1.510119	-0.503580	1.231962
C35	C	1.510120	-0.503577	1.115809
H36	H	0.943370	-0.449128	0.449207
O37	O	1.129690	-0.639292	0.638781
H38	H	1.108798	-0.721309	0.620759
H39	H	1.455739	-0.935795	0.557819
O40	O	1.438131	-1.055892	0.575475
H41	H	1.356124	-1.076852	0.557491
H42	H	1.628116	-0.898413	0.385707
H43	H	1.628232	-1.107537	0.385748
O44	O	1.063457	-0.431447	0.431559
H45	H	1.013731	-0.378410	0.478464
H46	H	1.628040	-0.385696	0.899465
O47	O	1.645689	-0.368028	1.123037
H48	H	1.634371	-0.379320	1.208071
H49	H	1.455729	-0.557952	1.071270
H50	H	1.455722	-0.557935	0.936725
O51	O	0.891607	-0.639387	0.638729
H52	H	0.912485	-0.721375	0.620616
