data_functionalizedCrystal
_audit_creation_method	'MofGen! by Chris Wilmer'
_symmetry_space_group_name_H-M	'P1'
_symmetry_Int_Tables_number	1
_symmetry_cell_setting	triclinic
loop_
_symmetry_equiv_pos_as_xyz
  x,y,z
_cell_length_a	8.497371
_cell_length_b	19.077068
_cell_length_c	19.076919
_cell_angle_alpha	94.470751
_cell_angle_beta	92.306543
_cell_angle_gamma	92.304618
loop_
_atom_site_label
_atom_site_type_symbol
_atom_site_fract_x
_atom_site_fract_y
_atom_site_fract_z
Zn1	Zn	-2.348069	0.297058	0.409413
Zn2	Zn	-2.347873	0.410211	0.296258
Zn3	Zn	-2.095307	0.292302	0.291590
Zn4	Zn	-2.073134	0.414864	0.414152
O5	O	-2.216096	0.353609	0.352853
O6	O	-2.568804	0.312111	0.394373
O7	O	-2.323568	0.390632	0.196990
O8	O	-2.138197	0.194285	0.303283
O9	O	-2.568661	0.395244	0.311238
O10	O	-2.323900	0.197779	0.389847
O11	O	-2.138008	0.304005	0.193560
O12	O	-1.871604	0.308517	0.307878
O13	O	-2.100407	0.403174	0.512172
O14	O	-1.855314	0.398563	0.397924
O15	O	-2.302400	0.316623	0.508691
O16	O	-2.302068	0.509476	0.315834
O17	O	-2.100218	0.512895	0.402450
C18	C	-2.198757	0.536764	0.360178
C19	C	-2.191481	0.615120	0.363335
C20	C	-2.198952	0.360948	0.536725
C21	C	-2.191646	0.364076	0.615080
C22	C	-2.233544	0.169738	0.345515
C23	C	-2.240979	0.091384	0.342388
C24	C	-1.806217	0.353563	0.352882
C25	C	-1.627571	0.353645	0.352825
C26	C	-2.233268	0.346247	0.169695
C27	C	-2.240898	0.342921	0.091332
C28	C	-2.293230	0.650130	0.319759
C29	C	-2.286396	0.723754	0.322733
C30	C	-2.177804	0.762366	0.369279
C31	C	-2.076051	0.727351	0.412860
C32	C	-2.082893	0.653729	0.409890
C33	C	-2.146068	0.982747	0.382999
C34	C	-2.139230	1.056374	0.385964
C35	C	-2.349579	1.052772	0.295838
C36	C	-2.356405	0.979148	0.292868
C37	C	-2.254658	0.944139	0.336452
N38	N	-2.170813	0.837621	0.372318
N39	N	-2.261658	0.868886	0.333416
C40	C	-2.293376	0.320484	0.650080
C41	C	-2.286493	0.323420	0.723703
C42	C	-2.177886	0.369952	0.762325
C43	C	-2.076146	0.413545	0.727320
C44	C	-2.083023	0.410605	0.653699
C45	C	-2.146035	0.383574	0.982705
C46	C	-2.139169	0.386512	1.056332
C47	C	-2.349514	0.296386	1.052710
C48	C	-2.356388	0.293453	0.979087
C49	C	-2.254642	0.337044	0.944088
N50	N	-2.170851	0.372956	0.837580
N51	N	-2.261671	0.334036	0.868835
H52	H	-2.381651	0.618696	0.281853
H53	H	-2.000168	0.446095	0.625203
O54	O	-2.036297	0.945005	0.430001
H55	H	-2.106590	0.912871	0.464542
O56	O	-1.973128	0.615968	0.456883
H57	H	-1.993598	0.632282	0.512786
H58	H	-2.050723	0.424405	1.087776
O59	O	-1.958924	0.768991	0.463068
H60	H	-1.837577	0.754397	0.450383
H61	H	-2.369250	0.752255	0.287248
H62	H	-2.432418	1.081284	0.260355
H63	H	-2.369335	0.287925	0.752197
O64	O	-2.473534	0.243269	0.937430
H65	H	-2.543115	0.213447	0.974137
O66	O	-2.459245	0.249364	1.090451
H67	H	-2.438753	0.193471	1.074103
H68	H	-2.444830	0.947711	0.254966
O69	O	-2.036224	0.430551	0.944958
H70	H	-1.959532	0.463390	0.984185
H71	H	-2.381820	0.282595	0.618639
H72	H	-1.987710	0.451429	0.758772
O73	O	-2.022113	1.098025	0.436176
H74	H	-1.952521	1.061314	0.465989
