data_functionalizedCrystal
_audit_creation_method	'MofGen! by Chris Wilmer'
_symmetry_space_group_name_H-M	'P1'
_symmetry_Int_Tables_number	1
_symmetry_cell_setting	triclinic
loop_
_symmetry_equiv_pos_as_xyz
  x,y,z
_cell_length_a	9.065215
_cell_length_b	23.532409
_cell_length_c	8.140239
_cell_angle_alpha	89.999559
_cell_angle_beta	89.997810
_cell_angle_gamma	83.932129
loop_
_atom_site_label
_atom_site_type_symbol
_atom_site_fract_x
_atom_site_fract_y
_atom_site_fract_z
O1	O	1.956288	0.083489	-0.136582
O2	O	2.456288	0.583489	0.363418
O3	O	1.526665	0.090340	-0.136588
O4	O	2.026665	0.590340	0.363412
O5	O	1.754430	0.004078	-0.136587
O6	O	2.254430	0.504078	0.363413
O7	O	1.728523	0.169751	-0.136583
O8	O	2.228523	0.669751	0.363417
O9	O	1.754418	0.004077	0.136640
O10	O	2.254418	0.504077	0.636640
O11	O	1.526653	0.090339	0.136639
O12	O	2.026653	0.590339	0.636639
O13	O	1.956275	0.083488	0.136645
O14	O	2.456275	0.583488	0.636645
Zn15	Zn	1.741462	0.086913	0.180023
Zn16	Zn	2.241462	0.586913	0.680023
Zn17	Zn	1.741478	0.086915	-0.179965
Zn18	Zn	2.241478	0.586915	0.320035
O19	O	1.728510	0.169750	0.136644
O20	O	2.228510	0.669750	0.636644
C21	C	1.471705	0.089681	0.000025
C22	C	1.971705	0.589681	0.500025
C23	C	1.307958	0.087714	0.000022
C24	C	1.807958	0.587714	0.500022
C25	C	1.753764	-0.017143	0.000023
C26	C	2.253764	0.482857	0.500023
C27	C	1.751779	-0.080375	0.000011
C28	C	2.251779	0.419625	0.500011
C29	C	1.743344	-0.353681	-0.148933
C30	C	2.243344	0.146319	0.351067
C31	C	1.745187	-0.294267	-0.148933
C32	C	2.245187	0.205733	0.351067
O33	O	1.746198	-0.263535	-0.275593
O34	O	2.246198	0.236465	0.224407
N35	N	1.746093	-0.264559	0.000006
N36	N	2.246093	0.235441	0.500006
C37	C	1.745170	-0.294268	0.148954
C38	C	2.245170	0.205732	0.648954
O39	O	1.746111	-0.263544	0.275638
O40	O	2.246111	0.236456	0.775638
C41	C	1.743337	-0.353682	0.148953
C42	C	2.243337	0.146318	0.648953
C43	C	1.742417	-0.383386	0.000004
C44	C	2.242417	0.116614	0.500004
C45	C	1.742425	-0.383386	-0.297869
C46	C	2.242425	0.116614	0.202131
C47	C	1.740579	-0.442795	-0.297868
C48	C	2.240579	0.057205	0.202132
C49	C	1.739652	-0.472500	-0.148931
C50	C	2.239652	0.027500	0.351069
C51	C	1.740571	-0.442796	0.000005
C52	C	2.240571	0.057204	0.500005
C53	C	1.742425	-0.383390	0.297900
C54	C	2.242425	0.116610	0.797900
C55	C	1.740593	-0.442807	0.297885
C56	C	2.240593	0.057193	0.797885
C57	C	1.739673	-0.472512	0.148937
C58	C	2.239673	0.027488	0.648937
C59	C	1.737798	-0.531910	0.148943
C60	C	2.237798	-0.031910	0.648943
N61	N	1.736892	-0.561618	0.000005
N62	N	2.236892	-0.061618	0.500005
C63	C	1.737819	-0.531913	-0.148932
C64	C	2.237819	-0.031913	0.351068
C65	C	1.749021	-0.169497	0.148946
C66	C	2.249021	0.330503	0.648946
C67	C	1.750843	-0.110084	0.148949
C68	C	2.250843	0.389916	0.648949
C69	C	1.750863	-0.110088	-0.148939
C70	C	2.250863	0.389912	0.351061
C71	C	1.749031	-0.169501	-0.148940
C72	C	2.249031	0.330499	0.351060
C73	C	1.748116	-0.199205	0.000007
C74	C	2.248116	0.300795	0.500007
C75	C	1.733941	-0.656678	-0.148919
C76	C	2.233941	-0.156678	0.351081
C77	C	1.732089	-0.716092	-0.148905
C78	C	2.232089	-0.216092	0.351095
C79	C	1.732077	-0.716084	0.148982
C80	C	2.232077	-0.216084	0.648982
C81	C	1.733921	-0.656674	0.148969
C82	C	2.233921	-0.156674	0.648969
C83	C	1.734858	-0.626973	0.000005
C84	C	2.234858	-0.126973	0.500005
O85	O	1.736792	-0.562681	0.275538
O86	O	2.236792	-0.062681	0.775538
O87	O	1.736898	-0.562646	-0.275595
O88	O	2.236898	-0.062646	0.224405
C89	C	2.011236	0.084147	0.000029
C90	C	2.511236	0.584147	0.500029
C91	C	2.174982	0.086114	0.000021
C92	C	2.674982	0.586114	0.500021
C93	C	1.729177	0.190972	0.000031
C94	C	2.229177	0.690972	0.500031
C95	C	1.731162	0.254203	0.000032
C96	C	2.231162	0.754203	0.500032
N97	N	1.741462	0.086912	0.425706
N98	N	2.241462	0.586912	0.925706
N99	N	1.741491	0.086912	-0.425648
N100	N	2.241491	0.586912	0.074352
H101	H	1.734706	-0.632502	-0.270219
H102	H	2.234706	-0.132502	0.229781
O103	O	1.734992	-0.627767	0.293559
O104	O	2.234992	-0.127767	0.793559
C105	C	1.863854	-0.599200	0.302528
C106	C	2.363854	-0.099200	0.802528
H107	H	1.906748	-0.592218	0.173224
H108	H	2.406748	-0.092218	0.673224
H109	H	1.952604	-0.626155	0.376024
H110	H	2.452604	-0.126155	0.876024
C111	C	1.774105	-0.549588	0.546530
C112	C	2.274105	-0.049588	1.046530
C113	C	1.826781	-0.541009	0.387714
C114	C	2.326781	-0.041009	0.887714
H115	H	1.751241	-0.513694	0.599083
H116	H	2.251241	-0.013694	1.099083
H117	H	1.687290	-0.568836	0.540492
H118	H	2.187290	-0.068836	1.040492
H119	H	1.848072	-0.572052	0.607755
H120	H	2.348072	-0.072052	1.107755
H121	H	1.752807	-0.518551	0.326486
H122	H	2.252807	-0.018551	0.826486
H123	H	1.913583	-0.521755	0.393744
H124	H	2.413583	-0.021755	0.893744
O125	O	1.748337	-0.198421	-0.293529
O126	O	2.248337	0.301579	0.206471
C127	C	1.875071	-0.238558	-0.302492
C128	C	2.375071	0.261442	0.197508
H129	H	1.917396	-0.249397	-0.173185
H130	H	2.417396	0.250603	0.326815
H131	H	1.965250	-0.219701	-0.375980
H132	H	2.465250	0.280299	0.124020
C133	C	1.782532	-0.279917	-0.546502
C134	C	2.282532	0.220083	-0.046502
C135	C	1.834510	-0.293234	-0.387684
C136	C	2.334510	0.206766	0.112316
H137	H	1.757516	-0.313644	-0.599059
H138	H	2.257516	0.186356	-0.099059
H139	H	1.697151	-0.252875	-0.540468
H140	H	2.197151	0.247125	-0.040468
H141	H	1.857690	-0.264203	-0.607721
H142	H	2.357690	0.235797	-0.107721
H143	H	1.759346	-0.308942	-0.326462
H144	H	2.259346	0.191058	0.173538
H145	H	1.919877	-0.320280	-0.393709
H146	H	2.419877	0.179720	0.106291
H147	H	1.731334	-0.740275	-0.270202
H148	H	2.231334	-0.240275	0.229798
O149	O	1.751489	-0.081169	-0.293547
O150	O	2.251489	0.418831	0.206453
C151	C	1.624713	-0.041050	-0.302416
C152	C	2.124713	0.458950	0.197584
H153	H	1.582460	-0.030214	-0.173076
H154	H	2.082460	0.469786	0.326924
H155	H	1.534511	-0.059923	-0.375816
H156	H	2.034511	0.440077	0.124184
C157	C	1.717050	0.000320	-0.546525
C158	C	2.217050	0.500320	-0.046525
C159	C	1.665162	0.013633	-0.387666
C160	C	2.165162	0.513633	0.112334
H161	H	1.741997	0.034051	-0.599118
H162	H	2.241997	0.534051	-0.099118
H163	H	1.802459	-0.026710	-0.540554
H164	H	2.302459	0.473290	-0.040554
H165	H	1.641873	-0.015408	-0.607671
H166	H	2.141873	0.484592	-0.107671
H167	H	1.740344	0.029354	-0.326517
H168	H	2.240344	0.529354	0.173483
H169	H	1.579765	0.040667	-0.393629
H170	H	2.079765	0.540667	0.106371
H171	H	1.731316	-0.740280	0.270243
H172	H	2.231316	-0.240280	0.770243
H173	H	1.748263	-0.193678	0.270244
H174	H	2.248263	0.306322	0.770244
H175	H	1.739850	-0.466990	0.419179
H176	H	2.239850	0.033010	0.919179
H177	H	1.743185	-0.359207	-0.419158
H178	H	2.243185	0.140793	0.080842
H179	H	1.739840	-0.466976	-0.419157
H180	H	2.239840	0.033024	0.080843
H181	H	1.751565	-0.085903	0.270238
H182	H	2.251565	0.414097	0.770238
H183	H	1.743190	-0.359216	0.419190
H184	H	2.243190	0.140784	0.919190
