data_functionalizedCrystal
_audit_creation_method	'MofGen! by Chris Wilmer'
_symmetry_space_group_name_H-M	'P1'
_symmetry_Int_Tables_number	1
_symmetry_cell_setting	triclinic
loop_
_symmetry_equiv_pos_as_xyz
  x,y,z
_cell_length_a	19.121063
_cell_length_b	13.032891
_cell_length_c	13.032268
_cell_angle_alpha	89.113158
_cell_angle_beta	80.752502
_cell_angle_gamma	85.566332
loop_
_atom_site_label
_atom_site_type_symbol
_atom_site_fract_x
_atom_site_fract_y
_atom_site_fract_z
Zn1	Zn	-0.473646	1.465014	0.806576
Zn2	Zn	-0.578143	1.479375	0.640275
Zn3	Zn	-0.444348	1.316943	0.611225
Zn4	Zn	-0.574353	1.285892	0.790194
O5	O	-0.517623	1.386806	0.712067
O6	O	-0.501356	1.609861	0.803529
O7	O	-0.549720	1.476833	0.491924
O8	O	-0.350095	1.343570	0.631837
O9	O	-0.578129	1.620412	0.681349
O10	O	-0.371620	1.452357	0.775361
O11	O	-0.451422	1.357495	0.470581
O12	O	-0.447746	1.169882	0.615952
O13	O	-0.571669	1.290648	0.936864
O14	O	-0.543260	1.147070	0.747440
O15	O	-0.497680	1.422248	0.948900
O16	O	-0.675780	1.446725	0.665464
O17	O	-0.672996	1.304573	0.775608
C18	C	-0.491913	1.121413	0.676766
C19	C	-0.480933	1.007872	0.661690
C20	C	-0.512010	0.828647	0.704363
C21	C	-0.523362	0.945998	0.719944
C22	C	-0.699839	1.373863	0.721937
C23	C	-0.777803	1.368414	0.726206
C24	C	-0.815867	1.439909	0.670927
C25	C	-0.889124	1.434790	0.674949
C26	C	-0.924315	1.358171	0.734245
C27	C	-0.886247	1.286673	0.789531
C28	C	-0.812992	1.291798	0.785514
C29	C	-1.145425	1.338999	0.749244
C30	C	-1.218685	1.333878	0.753254
C31	C	-1.221557	1.481997	0.638673
C32	C	-1.148300	1.487110	0.634656
C33	C	-1.110239	1.415616	0.689947
C34	C	-0.999195	1.352935	0.738355
C35	C	-1.035361	1.420857	0.685842
C36	C	-0.334699	1.399825	0.702186
C37	C	-0.256748	1.405373	0.697975
C38	C	-0.537520	1.351383	0.981396
C39	C	-0.545999	1.336287	1.096168
C40	C	-0.543433	1.653236	0.747507
C41	C	-0.554432	1.766772	0.762609
C42	C	-0.497758	1.422154	0.443792
C43	C	-0.489101	1.437461	0.329036
C44	C	-0.513171	1.394670	1.153291
C45	C	-0.521933	1.379070	1.271914
H46	H	-0.787218	1.502296	0.622636
H47	H	-0.556523	1.317526	1.310823
H48	H	-0.478576	1.456200	1.114377
F49	F	-0.923703	1.205135	0.852645
H50	H	-0.782001	1.233580	0.830530
H51	H	-0.454501	1.498994	1.290127
F52	F	-0.997908	1.502401	0.622742
F53	F	-0.612887	0.811081	0.842871
H54	H	-0.920112	1.493008	0.629933
F55	F	-1.110855	1.568668	0.571558
H56	H	-0.568085	0.979897	0.781353
H57	H	-0.436204	0.973973	0.600289
F58	F	-1.262071	1.558085	0.579838
F59	F	-0.591211	1.255852	1.147024
F60	F	-1.256135	1.252317	0.816356
H61	H	-0.467284	0.794743	0.642966
F62	F	-1.104927	1.262906	0.808088
H63	H	-1.027855	1.290550	0.786631
