data_functionalizedCrystal
_audit_creation_method	'MofGen! by Chris Wilmer'
_symmetry_space_group_name_H-M	'P1'
_symmetry_Int_Tables_number	1
_symmetry_cell_setting	triclinic
loop_
_symmetry_equiv_pos_as_xyz
  x,y,z
_cell_length_a	16.625548
_cell_length_b	10.686285
_cell_length_c	10.685880
_cell_angle_alpha	89.638885
_cell_angle_beta	85.603426
_cell_angle_gamma	85.632645
loop_
_atom_site_label
_atom_site_type_symbol
_atom_site_fract_x
_atom_site_fract_y
_atom_site_fract_z
Zn1	Zn	1.292816	-0.553669	-0.671108
Zn2	Zn	1.291179	-0.747406	-0.445280
Zn3	Zn	1.146907	-0.537664	-0.461348
Zn4	Zn	1.167475	-0.763384	-0.654995
O5	O	1.224594	-0.650531	-0.558183
O6	O	1.405433	-0.579380	-0.641170
O7	O	1.262748	-0.706199	-0.271860
O8	O	1.158340	-0.364242	-0.502641
O9	O	1.404230	-0.721718	-0.475255
O10	O	1.265539	-0.376001	-0.656751
O11	O	1.156753	-0.552102	-0.283665
O12	O	1.036802	-0.567594	-0.487018
O13	O	1.193394	-0.748949	-0.832684
O14	O	1.051912	-0.733430	-0.629289
O15	O	1.285482	-0.594873	-0.844522
O16	O	1.282691	-0.925070	-0.459631
O17	O	1.191806	-0.936809	-0.613708
C18	C	1.239326	-0.976458	-0.533205
C19	C	1.245705	-1.115895	-0.522561
C20	C	1.015101	-0.650510	-0.558149
C21	C	0.925481	-0.650534	-0.558162
C22	C	0.597309	-0.650546	-0.558215
C23	C	0.688616	-0.650539	-0.558197
C24	C	0.761392	-0.650540	-0.558188
C25	C	0.852705	-0.650532	-0.558171
C26	C	1.434906	-0.650552	-0.558217
C27	C	1.524528	-0.650561	-0.558232
C28	C	1.241915	-0.675479	-0.885395
C29	C	1.249295	-0.686110	-1.024833
C30	C	1.209828	-0.323332	-0.583286
C31	C	1.203535	-0.183900	-0.593983
C32	C	1.207383	-0.625589	-0.232251
C33	C	1.200143	-0.614604	-0.092841
H34	H	1.162553	-1.135451	-0.663276
H35	H	1.286684	-1.164351	-0.453257
N36	N	1.309171	-0.773125	-1.085627
N37	N	1.315288	-0.781938	-1.202611
H38	H	1.357573	-0.843392	-1.245549
H39	H	1.152408	-0.545255	-1.044391
