data_functionalizedCrystal
_audit_creation_method	'MofGen! by Chris Wilmer'
_symmetry_space_group_name_H-M	'P1'
_symmetry_Int_Tables_number	1
_symmetry_cell_setting	triclinic
loop_
_symmetry_equiv_pos_as_xyz
  x,y,z
_cell_length_a	16.120530
_cell_length_b	16.120256
_cell_length_c	12.827892
_cell_angle_alpha	87.122182
_cell_angle_beta	92.888896
_cell_angle_gamma	90.128265
loop_
_atom_site_label
_atom_site_type_symbol
_atom_site_fract_x
_atom_site_fract_y
_atom_site_fract_z
Zn1	Zn	1.247498	-0.534592	0.529459
Zn2	Zn	1.747498	-0.034592	1.029459
Zn3	Zn	1.254468	-0.395542	0.695814
Zn4	Zn	1.754468	0.104458	1.195814
Zn5	Zn	1.115487	-0.388509	0.511794
Zn6	Zn	1.615487	0.111491	1.011794
Zn7	Zn	1.108424	-0.527512	0.694856
Zn8	Zn	1.608424	-0.027512	1.194856
O9	O	1.181469	-0.461539	0.607981
O10	O	1.681469	0.038461	1.107981
O11	O	1.364790	-0.522054	0.559319
O12	O	1.864790	-0.022054	1.059319
O13	O	1.241904	-0.278243	0.664411
O14	O	1.741904	0.221757	1.164411
O15	O	1.133038	-0.407907	0.367905
O16	O	1.633038	0.092093	0.867905
O17	O	1.369910	-0.419894	0.681540
O18	O	1.869910	0.080106	1.181540
O19	O	1.230026	-0.515234	0.380883
O20	O	1.730026	-0.015234	0.880883
O21	O	1.139796	-0.273076	0.529213
O22	O	1.639796	0.226924	1.029213
O23	O	0.998183	-0.401041	0.528284
O24	O	1.498183	0.098959	1.028284
O25	O	1.121000	-0.644818	0.679908
O26	O	1.621000	-0.144818	1.179908
O27	O	0.992994	-0.503166	0.662779
O28	O	1.492994	-0.003166	1.162779
O29	O	1.223177	-0.650019	0.558391
O30	O	1.723177	-0.150019	1.058391
O31	O	1.235055	-0.413029	0.841919
O32	O	1.735055	0.086971	1.341919
O33	O	1.127758	-0.509986	0.841216
O34	O	1.627758	-0.009986	1.341216
C35	C	0.965416	-0.450573	0.593512
C36	C	1.465416	0.049427	1.093512
C37	C	0.872986	-0.445901	0.587348
C38	C	1.372986	0.054099	1.087348
C39	C	0.703755	-0.437379	0.576072
C40	C	1.203755	0.062621	1.076072
C41	C	0.660021	-0.485759	0.639970
C42	C	1.160021	0.014241	1.139970
C43	C	0.565855	-0.481018	0.633696
C44	C	1.065855	0.018982	1.133696
C45	C	0.797929	-0.442120	0.582345
C46	C	1.297929	0.057880	1.082345
C47	C	1.170523	-0.678435	0.621013
C48	C	1.670523	-0.178435	1.121013
C49	C	1.165859	-0.770863	0.626567
C50	C	1.665859	-0.270863	1.126567
C51	C	1.205792	-0.983844	0.578992
C52	C	1.705792	-0.483844	1.078992
C53	C	1.157315	-0.940083	0.636661
C54	C	1.657315	-0.440083	1.136661
C55	C	1.162070	-0.845920	0.631043
C56	C	1.662070	-0.345920	1.131043
C57	C	1.201038	-1.078016	0.584609
C58	C	1.701038	-0.578016	1.084609
C59	C	1.398367	-0.472548	0.622507
C60	C	1.898367	0.027452	1.122507
C61	C	1.490795	-0.477240	0.628697
C62	C	1.990795	0.022760	1.128697
C63	C	1.181418	-0.461522	0.879486
C64	C	1.681418	0.038478	1.379486
C65	C	1.181471	-0.461546	0.995644
C66	C	1.681471	0.038454	1.495644
C67	C	1.192420	-0.245489	0.594927
C68	C	1.692420	0.254511	1.094927
C69	C	1.197246	-0.153070	0.589089
C70	C	1.697246	0.346930	1.089089
C71	C	1.181542	-0.461576	0.335417
C72	C	1.681542	0.038424	0.835417
C73	C	1.181574	-0.461591	0.219267
C74	C	1.681574	0.038409	0.719267
C75	C	1.234622	-0.413627	1.047750
C76	C	1.734622	0.086373	1.547750
C77	C	1.234678	-0.413651	1.167805
C78	C	1.734678	0.086349	1.667805
H79	H	0.670478	-0.392402	0.516660
H80	H	1.170478	0.107598	1.016660
H81	H	1.250864	-0.950593	0.525405
H82	H	1.750864	-0.450593	1.025405
H83	H	1.112236	-0.973337	0.690247
H84	H	1.612236	-0.473337	1.190247
H85	H	1.280090	-0.372587	1.003482
H86	H	1.780090	0.127413	1.503482
F87	F	1.294155	-0.360022	1.226369
F88	F	1.794155	0.139978	1.726369
F89	F	1.122048	-0.515198	1.053505
F90	F	1.622048	-0.015198	1.553505
F91	F	0.703516	-0.544558	0.717628
F92	F	1.203516	-0.044558	1.217628
F93	F	1.122087	-0.515213	1.160710
F94	F	1.622087	-0.015213	1.660710
