data_functionalizedCrystal
_audit_creation_method	'MofGen! by Chris Wilmer'
_symmetry_space_group_name_H-M	'P1'
_symmetry_Int_Tables_number	1
_symmetry_cell_setting	triclinic
loop_
_symmetry_equiv_pos_as_xyz
  x,y,z
_cell_length_a	18.100771
_cell_length_b	16.120530
_cell_length_c	16.120297
_cell_angle_alpha	90.128140
_cell_angle_beta	86.830971
_cell_angle_gamma	92.578108
loop_
_atom_site_label
_atom_site_type_symbol
_atom_site_fract_x
_atom_site_fract_y
_atom_site_fract_z
Zn1	Zn	0.375213	1.245212	-0.536747
Zn2	Zn	0.875213	1.745212	-0.036747
Zn3	Zn	0.493113	1.251462	-0.398375
Zn4	Zn	0.993113	1.751462	0.101625
Zn5	Zn	0.362698	1.113276	-0.390592
Zn6	Zn	0.862698	1.613276	0.109408
Zn7	Zn	0.492431	1.105422	-0.530340
Zn8	Zn	0.992431	1.605422	-0.030340
O9	O	0.430864	1.178843	-0.464013
O10	O	0.930864	1.678843	0.035987
O11	O	0.396376	1.362374	-0.524330
O12	O	0.896376	1.862374	-0.024330
O13	O	0.470861	1.239034	-0.280948
O14	O	0.970861	1.739034	0.219052
O15	O	0.260724	1.131449	-0.409404
O16	O	0.760724	1.631449	0.090596
O17	O	0.482996	1.366966	-0.422668
O18	O	0.982996	1.866966	0.077332
O19	O	0.269918	1.228381	-0.516783
O20	O	0.769918	1.728381	-0.016783
O21	O	0.375046	1.137510	-0.275230
O22	O	0.875046	1.637510	0.224770
O23	O	0.374385	0.995901	-0.403192
O24	O	0.874385	1.495901	0.096808
O25	O	0.481834	1.118063	-0.647584
O26	O	0.981834	1.618063	-0.147584
O27	O	0.469699	0.990131	-0.505864
O28	O	0.969699	1.490131	-0.005864
O29	O	0.395715	1.220766	-0.652291
O30	O	0.895715	1.720766	-0.152291
O31	O	0.596657	1.231418	-0.416456
O32	O	1.096657	1.731418	0.083544
O33	O	0.596156	1.124124	-0.513411
O34	O	1.096156	1.624124	-0.013411
C35	C	0.420610	0.962852	-0.452988
C36	C	0.920610	1.462852	0.047012
C37	C	0.416242	0.870449	-0.448292
C38	C	0.916242	1.370449	0.051708
C39	C	0.237698	1.180094	-0.462940
C40	C	0.737698	1.680094	0.037060
C41	C	0.155382	1.180627	-0.462482
C42	C	0.655382	1.680627	0.037518
C43	C	0.408251	0.701267	-0.439724
C44	C	0.908251	1.201267	0.060276
C45	C	0.453534	0.657256	-0.488364
C46	C	0.953534	1.157256	0.011636
C47	C	0.449088	0.563118	-0.483597
C48	C	0.949088	1.063118	0.016403
C49	C	0.412696	0.795414	-0.444490
C50	C	0.912696	1.295414	0.055510
C51	C	-0.143696	1.178328	-0.464555
C52	C	0.356304	1.678328	0.035445
C53	C	-0.106584	1.239324	-0.532103
C54	C	0.393416	1.739324	-0.032103
C55	C	-0.020970	1.240244	-0.531334
C56	C	0.479030	1.740244	-0.031334
C57	C	0.004680	1.179468	-0.463527
C58	C	0.504680	1.679468	0.036473
C59	C	-0.030169	1.207463	-0.377315
C60	C	0.469831	1.707463	0.122685
C61	C	-0.115773	1.207251	-0.378305
C62	C	0.384227	1.707251	0.121695
C63	C	-0.114187	1.089461	-0.482223
C64	C	0.385813	1.589461	0.017777
C65	C	-0.028421	1.090485	-0.483589
C66	C	0.471579	1.590485	0.016411
C67	C	0.088536	1.180112	-0.462941
C68	C	0.588536	1.680112	0.037059
C69	C	-0.227552	1.177687	-0.465135
C70	C	0.272448	1.677687	0.034865
C71	C	0.623280	1.177619	-0.465102
C72	C	1.123280	1.677619	0.034898
C73	C	0.705601	1.177170	-0.465599
C74	C	1.205601	1.677170	0.034401
C75	C	0.440094	1.167841	-0.680961
C76	C	0.940094	1.667841	-0.180961
C77	C	0.444028	1.163153	-0.773412
C78	C	0.944028	1.663153	-0.273412
C79	C	0.441158	1.395678	-0.475082
C80	C	0.941158	1.895678	0.024918
C81	C	0.445545	1.488080	-0.479799
C82	C	0.945545	1.988080	0.020201
C83	C	0.451191	1.154562	-0.942678
C84	C	0.951191	1.654562	-0.442678
C85	C	0.410323	1.203289	-0.986208
C86	C	0.910323	1.703289	-0.486208
C87	C	0.414308	1.198509	-1.080393
C88	C	0.914308	1.698509	-0.580393
C89	C	0.447206	1.159341	-0.848484
C90	C	0.947206	1.659341	-0.348484
C91	C	0.421618	1.189850	-0.247912
C92	C	0.921618	1.689850	0.252088
C93	C	0.417484	1.194701	-0.155469
C94	C	0.917484	1.694701	0.344531
H95	H	0.366146	0.668247	-0.394505
H96	H	0.866146	1.168247	0.105495
N97	N	0.506365	0.698664	-0.545100
N98	N	1.006365	1.198664	-0.045100
N99	N	0.504390	0.685210	-0.621357
N100	N	1.004390	1.185210	-0.121357
H101	H	0.541702	0.714457	-0.661423
H102	H	1.041702	1.214457	-0.161423
H103	H	0.372340	1.248594	-0.952740
H104	H	0.872340	1.748594	-0.452740
H105	H	0.002938	1.222180	-0.595405
H106	H	0.502938	1.722180	-0.095405
H107	H	0.489171	1.109261	-0.976144
H108	H	0.989171	1.609261	-0.476144
N109	N	-0.128769	1.216508	-0.613121
N110	N	0.371231	1.716508	-0.113121
N111	N	-0.172193	1.155028	-0.622027
N112	N	0.327807	1.655028	-0.122027
H113	H	-0.187866	1.138911	-0.679249
H114	H	0.312134	1.638911	-0.179249
H115	H	-0.126490	1.304712	-0.520929
H116	H	0.373510	1.804712	-0.020929
H117	H	-0.007399	1.272211	-0.361114
H118	H	0.492601	1.772211	0.138886
H119	H	0.001135	1.306334	-0.519707
H120	H	0.501135	1.806334	-0.019707
N121	N	-0.139114	1.288941	-0.358801
N122	N	0.360886	1.788941	0.141199
N123	N	-0.092189	1.345712	-0.344555
N124	N	0.407811	1.845712	0.155445
H125	H	-0.108668	1.403408	-0.330780
H126	H	0.391332	1.903408	0.169220
N127	N	-0.147137	1.154252	-0.313292
N128	N	0.352863	1.654252	0.186708
N129	N	-0.105789	1.117543	-0.267330
N130	N	0.394211	1.617543	0.232670
H131	H	-0.127936	1.080115	-0.221412
H132	H	0.372064	1.580115	0.278588
H133	H	-0.014094	1.164932	-0.325512
H134	H	0.485906	1.664932	0.174488
H135	H	-0.005349	1.069431	-0.547030
H136	H	0.494651	1.569431	-0.047030
N137	N	-0.138111	1.058085	-0.559811
N138	N	0.361889	1.558085	-0.059811
N139	N	-0.205722	1.048644	-0.571187
N140	N	0.294278	1.548644	-0.071187
H141	H	-0.222618	1.026490	-0.625987
H142	H	0.277382	1.526490	-0.125987
N143	N	-0.006808	1.030424	-0.425535
N144	N	0.493192	1.530424	0.074465
N145	N	-0.024110	1.038246	-0.349869
N146	N	0.475890	1.538246	0.150131
H147	H	-0.008847	0.995832	-0.308859
H148	H	0.491153	1.495832	0.191141
N149	N	-0.144942	1.032416	-0.420410
N150	N	0.355058	1.532416	0.079590
N151	N	-0.188408	1.056991	-0.363562
N152	N	0.311592	1.556991	0.136438
H153	H	-0.210133	1.016709	-0.319904
H154	H	0.289867	1.516709	0.180096
