data_functionalizedCrystal
_audit_creation_method	'MofGen! by Chris Wilmer'
_symmetry_space_group_name_H-M	'P1'
_symmetry_Int_Tables_number	1
_symmetry_cell_setting	triclinic
loop_
_symmetry_equiv_pos_as_xyz
  x,y,z
_cell_length_a	14.044220
_cell_length_b	8.559649
_cell_length_c	7.088929
_cell_angle_alpha	84.655815
_cell_angle_beta	96.777923
_cell_angle_gamma	81.483771
loop_
_atom_site_label
_atom_site_type_symbol
_atom_site_fract_x
_atom_site_fract_y
_atom_site_fract_z
O1	O	1.219153	0.396130	-0.158774
O2	O	1.719153	0.896130	0.341226
O3	O	0.944182	0.382376	-0.158823
O4	O	1.444182	0.882376	0.341177
O5	O	1.105893	0.160103	-0.158792
O6	O	1.605893	0.660103	0.341208
O7	O	1.057442	0.618403	-0.158805
O8	O	1.557442	1.118403	0.341195
O9	O	1.127509	0.130326	0.159187
O10	O	1.627509	0.630326	0.659187
O11	O	0.965798	0.352598	0.159156
O12	O	1.465798	0.852598	0.659156
O13	O	1.240769	0.366352	0.159205
O14	O	1.740769	0.866352	0.659205
Cu15	Cu	1.105257	0.356756	0.188215
Cu16	Cu	1.605257	0.856756	0.688215
Cu17	Cu	1.079694	0.391972	-0.187832
Cu18	Cu	1.579694	0.891972	0.312168
O19	O	1.079058	0.588625	0.159175
O20	O	1.579058	1.088625	0.659175
C21	C	0.920113	0.361466	0.000161
C22	C	1.420113	0.861466	0.500161
C23	C	0.816194	0.343504	0.000142
C24	C	1.316194	0.843504	0.500142
C25	C	1.120372	0.086208	0.000195
C26	C	1.620372	0.586208	0.500195
C27	C	1.131301	-0.089613	0.000186
C28	C	1.631301	0.410387	0.500186
C29	C	0.625926	0.310658	0.000181
C30	C	1.125926	0.810658	0.500181
C31	C	0.559019	0.438064	0.000185
C32	C	1.059019	0.938064	0.500185
C33	C	0.453147	0.419789	0.000207
C34	C	0.953147	0.919789	0.500207
C35	C	0.731808	0.328932	0.000159
C36	C	1.231808	0.828932	0.500159
C37	C	1.264837	0.387263	0.000218
C38	C	1.764837	0.887263	0.500218
C39	C	1.368756	0.405226	0.000224
C40	C	1.868756	0.905226	0.500224
C41	C	1.064578	0.662521	0.000184
C42	C	1.564578	1.162521	0.500184
C43	C	1.053649	0.838343	0.000180
C44	C	1.553649	1.338343	0.500180
N45	N	1.123245	0.331987	0.452706
N46	N	1.623245	0.831987	0.952706
N47	N	1.061715	0.416730	-0.452324
N48	N	1.561715	0.916730	0.047676
H49	H	0.978807	-0.088826	0.000173
H50	H	1.478807	0.411174	0.500173
H51	H	0.581249	0.560866	0.000173
H52	H	1.081249	1.060866	0.500173
H53	H	0.603696	0.187867	0.000194
H54	H	1.103696	0.687867	0.500194
H55	H	0.997947	0.504546	0.466018
H56	H	1.497947	1.004546	0.966018
H57	H	1.187023	0.244177	0.534374
H58	H	1.687023	0.744177	1.034374
H59	H	1.206150	-0.162454	0.000215
H60	H	1.706150	0.337546	0.500215
