data_functionalizedCrystal
_audit_creation_method	'MofGen! by Chris Wilmer'
_symmetry_space_group_name_H-M	'P1'
_symmetry_Int_Tables_number	1
_symmetry_cell_setting	triclinic
loop_
_symmetry_equiv_pos_as_xyz
  x,y,z
_cell_length_a	14.971486
_cell_length_b	14.048226
_cell_length_c	23.532409
_cell_angle_alpha	90.003987
_cell_angle_beta	96.768156
_cell_angle_gamma	90.003623
loop_
_atom_site_label
_atom_site_type_symbol
_atom_site_fract_x
_atom_site_fract_y
_atom_site_fract_z
O1	O	-1.186157	0.079044	0.074217
O2	O	-0.925663	0.079070	0.083105
O3	O	-1.063764	0.079058	-0.004237
O4	O	-1.048056	0.079057	0.161559
O5	O	-1.063761	-0.079264	-0.004244
O6	O	-0.925660	-0.079252	0.083098
O7	O	-1.186154	-0.079277	0.074210
Zn8	Zn	-1.055907	-0.104401	0.078653
Zn9	Zn	-1.055910	0.104194	0.078662
O10	O	-1.048053	-0.079265	0.161552
C11	C	-0.892341	-0.000088	0.082704
C12	C	-0.793057	-0.000078	0.081513
N13	N	-1.055914	0.246555	0.078665
C14	C	-1.219476	-0.000117	0.074611
C15	C	-1.318761	-0.000121	0.075802
C16	C	-1.063363	-0.000101	-0.025458
C17	C	-1.062159	-0.000094	-0.088680
C18	C	-0.735290	-0.000079	0.132824
C19	C	-0.642002	-0.000094	0.131701
C20	C	-0.606483	-0.000099	0.079267
C21	C	-0.664257	-0.000101	0.027952
C22	C	-0.757543	-0.000093	0.029075
C23	C	-0.469820	-0.000114	0.025615
C24	C	-0.376527	-0.000119	0.024491
C25	C	-0.354279	-0.000114	0.128241
C26	C	-0.447564	-0.000107	0.129364
C27	C	-0.505332	-0.000106	0.078049
N28	N	-1.055911	-0.246762	0.078646
C29	C	-1.117177	0.296367	0.040066
C30	C	-1.117181	0.396025	0.040064
C31	C	-1.055916	0.445868	0.078659
C32	C	-0.994649	0.396048	0.117261
C33	C	-0.994651	0.296393	0.117266
C34	C	-0.994650	0.603763	0.117249
C35	C	-0.994647	0.703425	0.117245
C36	C	-1.117180	0.703395	0.040048
C37	C	-1.117181	0.603739	0.040052
C38	C	-1.055913	0.553926	0.078654
C39	C	-1.057042	0.086212	-0.361943
C40	C	-1.058160	0.086212	-0.302538
O41	O	-1.058770	0.159605	-0.271808
N42	N	-1.058711	-0.000090	-0.272838
C43	C	-1.058155	-0.086399	-0.302546
O44	O	-1.058727	-0.159806	-0.271829
C45	C	-1.057043	-0.086398	-0.361951
C46	C	-1.056483	-0.000090	-0.391647
C47	C	-1.056482	0.172513	-0.391640
C48	C	-1.055363	0.172513	-0.451041
C49	C	-1.054804	0.086211	-0.480745
C50	C	-1.055363	-0.000090	-0.451048
C51	C	-1.056493	-0.172705	-0.391658
C52	C	-1.055382	-0.172697	-0.451067
C53	C	-1.054821	-0.086388	-0.480763
C54	C	-1.053684	-0.086392	-0.540153
N55	N	-1.053133	-0.000090	-0.569853
C56	C	-1.053692	0.086212	-0.540149
C57	C	-1.060490	-0.086394	-0.177793
C58	C	-1.061595	-0.086396	-0.118389
C59	C	-1.061601	0.086215	-0.118386
C60	C	-1.060490	0.086216	-0.177790
C61	C	-1.059938	-0.000091	-0.207493
C62	C	-1.051341	0.086204	-0.664895
C63	C	-1.050218	0.086196	-0.724301
C64	C	-1.050216	-0.086414	-0.724299
C65	C	-1.051334	-0.086406	-0.664899
C66	C	-1.051900	-0.000090	-0.635198
O67	O	-1.053077	-0.159747	-0.570921
O68	O	-1.053131	0.159607	-0.570875
C69	C	-1.048455	-0.000104	0.182773
C70	C	-1.049658	-0.000105	0.245995
H71	H	-0.764201	-0.000074	0.175521
H72	H	-0.594972	-0.000094	0.173484
H73	H	-0.944769	0.436637	0.148689
F74	F	-1.051927	-0.178264	-0.633292
H75	H	-1.051802	0.156492	-0.640720
F76	F	-0.819023	-0.000095	-0.025537
H77	H	-1.167067	0.436582	0.008634
F78	F	-1.049613	-0.178258	-0.755922
F79	F	-0.338728	-0.000150	-0.031315
F80	F	-1.059895	0.178076	-0.209390
H81	H	-0.476481	-0.000093	0.172060
H82	H	-0.944761	0.563208	0.148685
F83	F	-1.182380	0.550692	-0.001028
H84	H	-1.049758	0.156482	-0.748477
F85	F	-0.292797	-0.000117	0.182854
F86	F	-1.054774	0.264374	-0.482640
H87	H	-0.944765	0.255836	0.148697
H88	H	-1.056941	0.242794	-0.367462
H89	H	-1.062054	0.156487	-0.094190
H90	H	-1.062034	-0.156677	-0.094214
H91	H	-1.060032	-0.156680	-0.201973
F92	F	-1.054798	-0.264560	-0.482676
F93	F	-0.531299	-0.000116	-0.029001
F94	F	-0.626453	-0.000113	-0.027852
F95	F	-1.182384	0.756413	-0.001036
F96	F	-1.182381	0.243330	-0.001016
H97	H	-0.944760	0.744003	0.148673
H98	H	-1.056959	-0.242986	-0.367490
