data_functionalizedCrystal
_audit_creation_method	'MofGen! by Chris Wilmer'
_symmetry_space_group_name_H-M	'P1'
_symmetry_Int_Tables_number	1
_symmetry_cell_setting	triclinic
loop_
_symmetry_equiv_pos_as_xyz
  x,y,z
_cell_length_a	16.959455
_cell_length_b	16.625539
_cell_length_c	16.959454
_cell_angle_alpha	90.023052
_cell_angle_beta	89.982978
_cell_angle_gamma	89.984051
loop_
_atom_site_label
_atom_site_type_symbol
_atom_site_fract_x
_atom_site_fract_y
_atom_site_fract_z
Zn1	Zn	1.208396	-0.455904	0.314759
Zn2	Zn	1.208315	-0.321080	0.446943
Zn3	Zn	1.076221	-0.321088	0.314775
Zn4	Zn	1.076190	-0.455872	0.446892
O5	O	1.142281	-0.388486	0.380842
O6	O	1.318997	-0.438030	0.332308
O7	O	1.190772	-0.208248	0.429439
O8	O	1.093802	-0.338988	0.204162
O9	O	1.318937	-0.338975	0.429423
O10	O	1.190910	-0.438038	0.204150
O11	O	1.093723	-0.208254	0.332336
O12	O	0.965606	-0.338957	0.332287
O13	O	1.093748	-0.568709	0.429337
O14	O	0.965583	-0.437982	0.429352
O15	O	1.190880	-0.568733	0.332259
O16	O	1.190741	-0.338943	0.557547
O17	O	1.093669	-0.437975	0.557510
C18	C	0.936914	-0.388468	0.380816
C19	C	0.849058	-0.388479	0.380824
C20	C	0.477570	-0.337031	0.330259
C21	C	0.477594	-0.439987	0.431491
C22	C	0.560140	-0.439982	0.431480
C23	C	0.601405	-0.388500	0.380858
C24	C	0.560123	-0.337023	0.330248
C25	C	0.601428	-0.491453	0.482095
C26	C	0.683979	-0.491449	0.482086
C27	C	0.725245	-0.439970	0.431460
C28	C	0.683958	-0.388492	0.380847
C29	C	0.725223	-0.337010	0.330225
C30	C	0.683938	-0.285534	0.279607
C31	C	0.601389	-0.285544	0.279621
C32	C	0.807793	-0.439961	0.431446
C33	C	0.807776	-0.337001	0.330214
C34	C	1.142319	-0.598795	0.380790
C35	C	1.142336	-0.688416	0.380768
C36	C	1.142349	-0.761199	0.380751
C37	C	1.142367	-0.852507	0.380721
C38	C	1.142386	-0.925284	0.380693
C39	C	1.142405	-1.016598	0.380665
C40	C	1.348449	-0.388505	0.380869
C41	C	1.436305	-0.388513	0.380881
C42	C	1.142214	-0.388472	0.586209
C43	C	1.142258	-0.388493	0.674065
C44	C	1.142287	-0.178995	0.380837
C45	C	1.142424	-0.089374	0.380637
C46	C	1.142369	-0.388517	0.174674
C47	C	1.142406	-0.388531	0.086818
C48	C	1.091808	-0.440046	1.045551
C49	C	1.192973	-0.337008	1.045530
C50	C	1.192945	-0.337001	0.962984
C51	C	1.142348	-0.388516	0.921718
C52	C	1.091778	-0.440039	0.962998
C53	C	1.243509	-0.285473	0.921698
C54	C	1.243482	-0.285463	0.839148
C55	C	1.192888	-0.336983	0.797880
C56	C	1.142317	-0.388508	0.839165
C57	C	1.091719	-0.440024	0.797899
C58	C	1.041151	-0.491554	0.839182
C59	C	1.041183	-0.491559	0.921730
C60	C	1.192856	-0.336978	0.715331
C61	C	1.091688	-0.440016	0.715345
H62	H	0.841368	-0.295083	0.288986
N63	N	0.556913	-0.546976	0.536681
H64	H	0.571303	-0.604606	0.524476
H65	H	0.571270	-0.534290	0.593122
H66	H	1.050488	-0.481969	0.681751
N67	N	0.433044	-0.281502	0.275681
H68	H	0.398807	-0.314327	0.239094
H69	H	0.398826	-0.244102	0.307830
N70	N	0.728456	-0.230014	0.225010
H71	H	0.714111	-0.242639	0.168551
H72	H	0.714053	-0.172404	0.237276
H73	H	1.284697	-0.243526	0.955303
H74	H	1.234024	-0.295019	0.681722
H75	H	1.234162	-0.295062	1.079134
N76	N	0.556862	-0.230003	0.225056
H77	H	0.498307	-0.237811	0.232756
H78	H	0.571283	-0.172405	0.237308
H79	H	0.443992	-0.481897	0.472710
H80	H	1.284658	-0.243505	0.805540
H81	H	0.717586	-0.533364	0.523302
H82	H	0.841404	-0.481869	0.472660
N83	N	0.986571	-0.547108	0.794671
H84	H	0.994225	-0.539276	0.736113
H85	H	0.998842	-0.604709	0.809054
N86	N	0.986643	-0.547130	0.966256
H87	H	0.994338	-0.539312	1.024811
H88	H	0.930195	-0.534523	0.951867
N89	N	1.037271	-0.495625	1.090071
H90	H	1.044966	-0.487818	1.148628
H91	H	0.980822	-0.483020	1.075686
