data_functionalizedCrystal
_audit_creation_method	'MofGen! by Chris Wilmer'
_symmetry_space_group_name_H-M	'P1'
_symmetry_Int_Tables_number	1
_symmetry_cell_setting	triclinic
loop_
_symmetry_equiv_pos_as_xyz
  x,y,z
_cell_length_a	8.497374
_cell_length_b	10.686220
_cell_length_c	10.686285
_cell_angle_alpha	89.654569
_cell_angle_beta	85.626860
_cell_angle_gamma	85.634072
loop_
_atom_site_label
_atom_site_type_symbol
_atom_site_fract_x
_atom_site_fract_y
_atom_site_fract_z
Zn1	Zn	0.670936	1.956019	0.352260
Zn2	Zn	1.004270	2.289352	0.685593
Zn3	Zn	1.337603	2.622685	1.018926
Zn4	Zn	0.385530	1.972080	0.561976
Zn5	Zn	0.718863	2.305413	0.895309
Zn6	Zn	1.052196	2.638746	1.228643
Zn7	Zn	0.425706	1.746303	0.368352
Zn8	Zn	0.759039	2.079637	0.701686
Zn9	Zn	1.092372	2.412970	1.035019
Zn10	Zn	0.667804	1.762345	0.578080
Zn11	Zn	1.001137	2.095678	0.911414
Zn12	Zn	1.334471	2.429011	1.244747
O13	O	0.537494	1.859187	0.465167
O14	O	0.870827	2.192520	0.798500
O15	O	1.204161	2.525853	1.131834
O16	O	0.617574	2.133691	0.366604
O17	O	0.950907	2.467024	0.699938
O18	O	1.284240	2.800357	1.033271
O19	O	0.170096	1.942138	0.536286
O20	O	0.503430	2.275471	0.869620
O21	O	0.836763	2.608805	1.202953
O22	O	0.476361	1.760688	0.190679
O23	O	0.809694	2.094021	0.524012
O24	O	1.143027	2.427354	0.857345
O25	O	0.407887	2.145490	0.520682
O26	O	0.741220	2.478824	0.854015
O27	O	1.074553	2.812157	1.187349
O28	O	0.656531	1.914765	0.178855
O29	O	0.989864	2.248098	0.512189
O30	O	1.323197	2.581431	0.845522
O31	O	0.199614	1.776261	0.394032
O32	O	0.532947	2.109595	0.727365
O33	O	0.866280	2.442928	1.060699
O34	O	0.473323	1.572890	0.409648
O35	O	0.806657	1.906223	0.742981
O36	O	1.139990	2.239557	1.076314
O37	O	0.888982	1.788028	0.548130
O38	O	1.222315	2.121361	0.881463
O39	O	1.555649	2.454695	1.214796
O40	O	0.651192	1.584676	0.563734
O41	O	0.984525	1.918009	0.897067
O42	O	1.317858	2.251342	1.230401
O43	O	0.891283	1.930319	0.382220
O44	O	1.224617	2.263653	0.715553
O45	O	1.557950	2.596986	1.048887
O46	O	0.404849	1.957693	0.739651
O47	O	0.738183	2.291026	1.072984
O48	O	1.071516	2.624359	1.406318
O49	O	0.612235	1.803601	0.751483
O50	O	0.945568	2.136935	1.084816
O51	O	1.278902	2.470268	1.418150
C52	C	0.566278	1.533267	0.490185
C53	C	0.899611	1.866600	0.823519
C54	C	1.232945	2.199934	1.156852
C55	C	0.578626	1.393839	0.500919
C56	C	0.911960	1.727173	0.834252
C57	C	1.245293	2.060506	1.167585
C58	C	0.503874	1.884165	0.791080
C59	C	0.837207	2.217498	1.124413
C60	C	1.170541	2.550831	1.457746
C61	C	0.489534	1.894965	0.930498
C62	C	0.822867	2.228298	1.263831
C63	C	1.156201	2.561632	1.597164
C64	C	0.948975	1.859177	0.465170
C65	C	1.282308	2.192511	0.798503
C66	C	1.615641	2.525844	1.131836
C67	C	1.127617	1.859181	0.465183
C68	C	1.460951	2.192515	0.798516
C69	C	1.794284	2.525848	1.131849
C70	C	0.508598	2.186379	0.440052
C71	C	0.841931	2.519712	0.773385
C72	C	1.175265	2.853046	1.106718
C73	C	0.496284	2.325809	0.429349
C74	C	0.829618	2.659142	0.762683
C75	C	1.162951	2.992476	1.096016
C76	C	0.571276	1.834145	0.137979
C77	C	0.904610	2.167479	0.471312
C78	C	1.237943	2.500812	0.804646
C79	C	0.585673	1.823474	-0.001449
C80	C	0.919006	2.156807	0.331884
C81	C	1.252339	2.490141	0.665218
H82	H	0.416340	1.374232	0.359865
H83	H	0.749673	1.707565	0.693199
H84	H	1.083006	2.040898	1.026532
H85	H	0.678954	1.754006	0.950157
H86	H	1.012287	2.087339	1.283490
H87	H	1.345621	2.420673	1.616823
H88	H	0.396237	1.964429	0.978900
H89	H	0.729570	2.297762	1.312233
H90	H	1.062904	2.631096	1.645567
H91	H	0.658565	1.345411	0.570415
H92	H	0.991899	1.678745	0.903749
H93	H	1.325232	2.012078	1.237082
