data_functionalizedCrystal
_audit_creation_method	'MofGen! by Chris Wilmer'
_symmetry_space_group_name_H-M	'P1'
_symmetry_Int_Tables_number	1
_symmetry_cell_setting	triclinic
loop_
_symmetry_equiv_pos_as_xyz
  x,y,z
_cell_length_a	15.944557
_cell_length_b	14.421503
_cell_length_c	17.699083
_cell_angle_alpha	89.996606
_cell_angle_beta	96.607808
_cell_angle_gamma	89.994217
loop_
_atom_site_label
_atom_site_type_symbol
_atom_site_fract_x
_atom_site_fract_y
_atom_site_fract_z
O1	O	-1.114321	0.077074	0.097627
O2	O	-0.614321	0.577074	0.597627
O3	O	-0.869746	0.077084	0.109657
O4	O	-0.369746	0.577084	0.609657
O5	O	-0.998943	0.077071	-0.006536
O6	O	-0.498943	0.577071	0.493464
O7	O	-0.985124	0.077088	0.213819
O8	O	-0.485124	0.577088	0.713819
O9	O	-0.998922	-0.077153	-0.006518
O10	O	-0.498922	0.422847	0.493482
O11	O	-0.869725	-0.077139	0.109674
O12	O	-0.369725	0.422861	0.609674
O13	O	-1.114299	-0.077150	0.097644
O14	O	-0.614299	0.422850	0.597644
Cu15	Cu	-0.992010	-0.091226	0.103661
Cu16	Cu	-0.492010	0.408774	0.603661
Cu17	Cu	-0.992035	0.091161	0.103640
Cu18	Cu	-0.492035	0.591161	0.603640
O19	O	-0.985102	-0.077136	0.213836
O20	O	-0.485102	0.422864	0.713836
C21	C	-0.838443	-0.000026	0.109165
C22	C	-0.338443	0.499974	0.609165
C23	C	-0.745200	-0.000022	0.107665
C24	C	-0.245200	0.499978	0.607665
C25	C	-0.474730	-0.000043	0.031159
C26	C	0.025270	0.499957	0.531159
C27	C	-0.525223	-0.076081	0.068050
C28	C	-0.025223	0.423919	0.568050
C29	C	-0.409570	-0.000044	0.102316
C30	C	0.090430	0.499956	0.602316
C31	C	-0.525225	0.075971	0.068052
C32	C	-0.025225	0.575971	0.568052
C33	C	-0.574477	-0.000032	0.104941
C34	C	-0.074477	0.499968	0.604941
C35	C	-0.458835	-0.076146	0.139188
C36	C	0.041165	0.423854	0.639188
C37	C	-0.458833	0.075975	0.139179
C38	C	0.041167	0.575975	0.639179
C39	C	-0.509293	-0.000083	0.176121
C40	C	-0.009293	0.499917	0.676121
C41	C	-0.314571	-0.000052	0.100803
C42	C	0.185429	0.499948	0.600803
C43	C	-0.669472	-0.000031	0.106460
C44	C	-0.169472	0.499969	0.606460
N45	N	-0.991998	-0.219507	0.103674
N46	N	-0.491998	0.280493	0.603674
C47	C	-0.932247	-0.469155	0.157378
C48	C	-0.432247	0.030845	0.657378
C49	C	-1.008116	-0.530959	0.172073
C50	C	-0.508116	-0.030959	0.672073
C51	C	-0.992019	-0.408669	0.103656
C52	C	-0.492019	0.091331	0.603656
C53	C	-0.916170	-0.530958	0.088979
C54	C	-0.416170	-0.030958	0.588979
C55	C	-0.992032	-0.591390	0.103641
C56	C	-0.492032	-0.091390	0.603641
C57	C	-1.067926	-0.469113	0.118386
C58	C	-0.567926	0.030887	0.618386
C59	C	-0.975930	-0.469106	0.035262
C60	C	-0.475930	0.030894	0.535262
C61	C	-1.051853	-0.530883	0.049928
C62	C	-0.551853	-0.030883	0.549928
C63	C	-0.992010	-0.303408	0.103667
C64	C	-0.492010	0.196592	0.603667
C65	C	-0.992049	-0.696649	0.103629
C66	C	-0.492049	-0.196649	0.603629
C67	C	-0.145604	-0.000042	0.098125
C68	C	0.354396	0.499958	0.598125
C69	C	-0.238851	-0.000053	0.099594
C70	C	0.261149	0.499947	0.599594
C71	C	-0.998437	-0.000041	-0.034725
C72	C	-0.498437	0.499959	0.465275
C73	C	-0.996952	-0.000042	-0.118745
C74	C	-0.496952	0.499958	0.381255
N75	N	-0.992054	0.219442	0.103620
N76	N	-0.492054	0.719442	0.603620
C77	C	-1.072788	-0.000046	-0.167235
C78	C	-0.572788	0.499954	0.332765
C79	C	-1.071387	-0.000038	-0.246181
C80	C	-0.571387	0.499962	0.253819
C81	C	-0.994149	-0.000032	-0.276635
C82	C	-0.494149	0.499968	0.223365
C83	C	-0.918308	-0.000024	-0.228139
C84	C	-0.418308	0.499976	0.271861
C85	C	-0.919709	-0.000026	-0.149195
C86	C	-0.419709	0.499974	0.350805
C87	C	-0.912653	-0.000016	-0.546512
C88	C	-0.412653	0.499984	-0.046512
C89	C	-0.911257	-0.000018	-0.625462
C90	C	-0.411257	0.499982	-0.125462
C91	C	-1.064330	-0.000029	-0.643498
C92	C	-0.564330	0.499971	-0.143498
C93	C	-1.065732	-0.000030	-0.564554
C94	C	-0.565732	0.499970	-0.064554
C95	C	-0.989891	-0.000018	-0.516065
C96	C	-0.489891	0.499982	-0.016065
C97	C	-0.991411	-0.000025	-0.430463
C98	C	-0.491411	0.499975	0.069537
C99	C	-0.992628	-0.000031	-0.362236
C100	C	-0.492628	0.499969	0.137764
C101	C	-0.985608	-0.000022	0.242025
C102	C	-0.485608	0.499978	0.742025
C103	C	-0.987094	-0.000016	0.326046
C104	C	-0.487094	0.499984	0.826046
H105	H	-0.554214	0.140253	0.037981
H106	H	-0.054214	0.640253	0.537981
O107	O	-0.827943	-0.000005	-0.658307
O108	O	-0.327943	0.499995	-0.158307
H109	H	-0.823629	-0.062870	-0.693830
H110	H	-0.323629	0.437130	-0.193830
O111	O	-1.152923	-0.433291	0.134909
O112	O	-0.652923	0.066709	0.634909
H113	H	-1.166353	-0.458677	0.191487
H114	H	-0.666353	0.041323	0.691487
O115	O	-1.153180	-0.000058	-0.298484
O116	O	-0.653180	0.499942	0.201516
H117	H	-1.207123	-0.000080	-0.264044
H118	H	-0.707123	0.499920	0.235956
O119	O	-0.420410	0.161139	0.178934
O120	O	0.079590	0.661139	0.678934
H121	H	-0.434974	0.161732	0.238765
H122	H	0.065026	0.661732	0.738765
H123	H	-0.554208	-0.140371	0.038005
H124	H	-0.054208	0.359629	0.538005
H125	H	-0.962285	-0.441916	-0.022553
H126	H	-0.462285	0.058084	0.477447
O127	O	-1.149041	-0.000023	-0.531710
O128	O	-0.649041	0.499977	-0.031710
H129	H	-1.185475	-0.062876	-0.551188
H130	H	-0.685475	0.437124	-0.051188
O131	O	-0.837912	-0.000030	-0.096895
O132	O	-0.337912	0.499970	0.403105
H133	H	-0.834892	0.062832	-0.060504
H134	H	-0.334892	0.562832	0.439496
H135	H	-0.459206	-0.000122	-0.030125
H136	H	0.040794	0.499878	0.469875
O137	O	-0.529660	-0.000134	0.257357
O138	O	-0.029660	0.499866	0.757357
H139	H	-0.470078	-0.000767	0.296543
H140	H	0.029922	0.499233	0.796543
H141	H	-0.852020	-0.558126	0.076571
H142	H	-0.352020	-0.058126	0.576571
O143	O	-1.146136	-0.000034	-0.695796
O144	O	-0.646136	0.499966	-0.195796
H145	H	-1.132191	-0.000022	-0.755808
H146	H	-0.632191	0.499978	-0.255808
H147	H	-0.850898	-0.000007	-0.507041
H148	H	-0.350898	0.499993	-0.007041
O149	O	-0.420583	-0.161403	0.178958
O150	O	0.079417	0.338597	0.678958
H151	H	-0.374606	-0.140113	0.227756
H152	H	0.125394	0.359887	0.727756
H153	H	-1.021737	-0.558128	0.229906
H154	H	-0.521737	-0.058128	0.729906
H155	H	-0.881752	-0.442051	0.202844
H156	H	-0.381752	0.057949	0.702844
H157	H	-1.102461	-0.557816	0.004489
H158	H	-0.602461	-0.057816	0.504489
O159	O	-0.834997	-0.000027	-0.260980
O160	O	-0.334997	0.499973	0.239020
H161	H	-0.846761	-0.000040	-0.324022
H162	H	-0.346761	0.499960	0.175978
H163	H	-1.135684	-0.000057	-0.142446
H164	H	-0.635684	0.499943	0.357554
