data_functionalizedCrystal
_audit_creation_method	'MofGen! by Chris Wilmer'
_symmetry_space_group_name_H-M	'P1'
_symmetry_Int_Tables_number	1
_symmetry_cell_setting	triclinic
loop_
_symmetry_equiv_pos_as_xyz
  x,y,z
_cell_length_a	10.540539
_cell_length_b	11.792241
_cell_length_c	10.268362
_cell_angle_alpha	90.005428
_cell_angle_beta	90.002516
_cell_angle_gamma	84.359454
loop_
_atom_site_label
_atom_site_type_symbol
_atom_site_fract_x
_atom_site_fract_y
_atom_site_fract_z
O1	O	-1.685366	-0.159957	-0.108239
O2	O	-1.185366	0.340043	0.391761
O3	O	-1.315904	-0.175028	-0.108256
O4	O	-0.815904	0.324972	0.391744
O5	O	-1.509601	-0.002345	-0.108238
O6	O	-1.009601	0.497655	0.391762
O7	O	-1.491669	-0.332639	-0.108257
O8	O	-0.991669	0.167361	0.391743
O9	O	-1.509584	-0.002338	0.108363
O10	O	-1.009584	0.497662	0.608363
O11	O	-1.315887	-0.175021	0.108345
O12	O	-0.815887	0.324979	0.608345
O13	O	-1.685349	-0.159950	0.108361
O14	O	-1.185349	0.340050	0.608361
Cu15	Cu	-1.500617	-0.167484	0.128130
Cu16	Cu	-1.000617	0.332516	0.628130
Cu17	Cu	-1.500637	-0.167493	-0.128025
Cu18	Cu	-1.000637	0.332507	0.371975
O19	O	-1.491653	-0.332632	0.108344
O20	O	-0.991653	0.167368	0.608344
C21	C	-1.268596	-0.173894	0.000043
C22	C	-0.768596	0.326106	0.500043
C23	C	-1.127659	-0.170513	0.000037
C24	C	-0.627659	0.329487	0.500037
C25	C	-1.508466	0.039952	0.000062
C26	C	-1.008466	0.539952	0.500062
C27	C	-1.505095	0.165975	0.000060
C28	C	-1.005095	0.665975	0.500060
C29	C	-1.732657	-0.161083	0.000060
C30	C	-1.232657	0.338917	0.500060
C31	C	-1.873594	-0.164465	0.000057
C32	C	-1.373594	0.335535	0.500057
C33	C	-0.944655	-0.040941	0.000550
C34	C	-0.444655	0.459059	0.500550
C35	C	-1.091262	-0.044369	0.000048
C36	C	-0.591262	0.455631	0.500048
C37	C	-1.065799	-0.231222	-0.123651
C38	C	-0.565799	0.268778	0.376349
C39	C	-0.919268	-0.226917	-0.123741
C40	C	-0.419268	0.273083	0.376259
C41	C	-0.918752	-0.229475	0.122574
C42	C	-0.418752	0.270525	0.622574
C43	C	-1.065730	-0.230637	0.124195
C44	C	-0.565730	0.269363	0.624195
C45	C	-1.492787	-0.374930	0.000041
C46	C	-0.992787	0.125070	0.500041
C47	C	-1.496159	-0.500952	0.000034
C48	C	-0.996159	-0.000952	0.500034
N49	N	-1.500612	-0.167478	0.308296
N50	N	-1.000612	0.332522	0.808296
C51	C	-1.498896	0.396703	0.000038
C52	C	-0.998896	0.896703	0.500038
C53	C	-1.502340	0.268309	0.000050
C54	C	-1.002340	0.768309	0.500050
N55	N	-1.500652	-0.167491	-0.308191
N56	N	-1.000652	0.332509	0.191809
C57	C	-1.500630	-0.167491	0.573967
C58	C	-1.000630	0.332509	1.073967
C59	C	-1.500616	-0.167487	0.426129
C60	C	-1.000616	0.332513	0.926129
H61	H	-0.916225	0.008896	0.089254
H62	H	-0.416225	0.508896	0.589254
H63	H	-0.914616	0.008679	-0.087654
H64	H	-0.414616	0.508679	0.412346
H65	H	-0.891211	-0.182053	-0.216194
H66	H	-0.391211	0.317947	0.283806
N67	N	-1.144911	0.015553	0.111279
N68	N	-0.644911	0.515553	0.611279
N69	N	-1.111977	-0.016712	0.223298
N70	N	-0.611977	0.483288	0.723298
H71	H	-1.149861	0.025616	0.301856
H72	H	-0.649861	0.525616	0.801856
N73	N	-1.143827	0.015972	-0.111372
N74	N	-0.643827	0.515972	0.388628
N75	N	-1.072221	0.060742	-0.189011
N76	N	-0.572221	0.560742	0.310989
H77	H	-1.109343	0.103359	-0.267708
H78	H	-0.609343	0.603359	0.232292
H79	H	-0.871004	-0.317638	-0.129360
H80	H	-0.371004	0.182362	0.370640
N81	N	-1.093463	-0.347433	-0.129420
N82	N	-0.593463	0.152567	0.370580
N83	N	-1.159239	-0.386901	-0.042228
N84	N	-0.659239	0.113099	0.457772
H85	H	-1.178779	-0.468976	-0.046298
H86	H	-0.678779	0.031024	0.453702
H87	H	-1.108532	-0.189055	-0.215698
H88	H	-0.608532	0.310945	0.284302
N89	N	-0.879326	-0.178254	0.240180
N90	N	-0.379326	0.321746	0.740180
N91	N	-0.817457	-0.093203	0.235124
N92	N	-0.317457	0.406797	0.735124
H93	H	-0.789609	-0.057018	0.318177
H94	H	-0.289609	0.442982	0.818177
N95	N	-1.117273	-0.174976	0.238979
N96	N	-0.617273	0.325024	0.738979
N97	N	-1.199315	-0.091338	0.229481
N98	N	-0.699315	0.408662	0.729481
H99	H	-1.235725	-0.052024	0.310545
H100	H	-0.735725	0.447976	0.810545
H101	H	-1.089656	-0.322603	0.131658
H102	H	-0.589656	0.177397	0.631658
N103	N	-0.859132	-0.343772	0.123602
N104	N	-0.359132	0.156228	0.623602
N105	N	-0.783695	-0.377339	0.034592
N106	N	-0.283695	0.122661	0.534592
H107	H	-0.741582	-0.458058	0.035308
H108	H	-0.241582	0.041942	0.535308
