data_functionalizedCrystal
_audit_creation_method	'MofGen! by Chris Wilmer'
_symmetry_space_group_name_H-M	'P1'
_symmetry_Int_Tables_number	1
_symmetry_cell_setting	triclinic
loop_
_symmetry_equiv_pos_as_xyz
  x,y,z
_cell_length_a	17.640280
_cell_length_b	16.959455
_cell_length_c	16.959447
_cell_angle_alpha	89.976354
_cell_angle_beta	101.226742
_cell_angle_gamma	101.206231
loop_
_atom_site_label
_atom_site_type_symbol
_atom_site_fract_x
_atom_site_fract_y
_atom_site_fract_z
Zn1	Zn	-0.314762	-1.272067	0.383556
Zn2	Zn	-0.446950	-1.298734	0.224690
Zn3	Zn	-0.314782	-1.139900	0.251368
Zn4	Zn	-0.446886	-1.166592	0.356820
O5	O	-0.380845	-1.219323	0.304108
O6	O	-0.332315	-1.386219	0.362507
O7	O	-0.429453	-1.277654	0.117611
O8	O	-0.204172	-1.135101	0.291258
O9	O	-0.429433	-1.405811	0.245788
O10	O	-0.204157	-1.232204	0.388376
O11	O	-0.332349	-1.160959	0.137211
O12	O	-0.332288	-1.032826	0.265332
O13	O	-0.429324	-1.180594	0.470984
O14	O	-0.429344	-1.052437	0.342807
O15	O	-0.332253	-1.258086	0.490628
O16	O	-0.557549	-1.303536	0.219862
O17	O	-0.557502	-1.206452	0.316938
C18	C	-0.380812	-1.013950	0.304064
C19	C	-0.380817	-0.926095	0.304059
C20	C	-0.431341	-0.564801	0.243284
C21	C	-0.330368	-0.544452	0.364949
C22	C	-0.330358	-0.626996	0.364937
C23	C	-0.380841	-0.678447	0.304098
C24	C	-0.431334	-0.647353	0.243271
C25	C	-0.279871	-0.658097	0.425767
C26	C	-0.279859	-0.740646	0.425757
C27	C	-0.330339	-0.792097	0.364914
C28	C	-0.380834	-0.760999	0.304085
C29	C	-0.431317	-0.812449	0.243246
C30	C	-0.481808	-0.781352	0.182412
C31	C	-0.481813	-0.698804	0.182428
C32	C	-0.330334	-0.874644	0.364898
C33	C	-0.431310	-0.895001	0.243233
C34	C	-0.586205	-1.260806	0.262621
C35	C	-0.674058	-1.278625	0.244899
C36	C	-0.963014	-1.084280	0.439029
C37	C	-1.045566	-1.101025	0.422351
C38	C	-1.045550	-1.202182	0.321369
C39	C	-0.962996	-1.185448	0.338041
C40	C	-0.921735	-1.126496	0.396871
C41	C	-0.921716	-1.227664	0.295883
C42	C	-0.839170	-1.210928	0.312551
C43	C	-0.797903	-1.151977	0.371377
C44	C	-0.839188	-1.109760	0.413539
C45	C	-0.962979	-1.286612	0.237049
C46	C	-0.921699	-1.328827	0.194891
C47	C	-0.839151	-1.312096	0.211563
C48	C	-0.797884	-1.253145	0.270389
C49	C	-0.797866	-1.354313	0.169401
C50	C	-0.715320	-1.337577	0.186069
C51	C	-0.715338	-1.236409	0.287057
C52	C	-0.174683	-1.177700	0.345775
C53	C	-0.086829	-1.159963	0.363531
C54	C	-0.380779	-1.219343	0.510290
C55	C	-0.380752	-1.219351	0.598152
C56	C	-0.380870	-0.425497	0.304141
C57	C	-0.380858	-0.513351	0.304123
C58	C	-0.380853	-1.219338	0.098741
C59	C	-0.380658	-1.219437	0.010924
C60	C	-0.431209	-1.179082	0.959420
C61	C	-0.330128	-1.259776	0.979870
C62	C	-0.330144	-1.259758	0.897321
C63	C	-0.380695	-1.219403	0.845817
C64	C	-0.431229	-1.179065	0.876862
C65	C	-0.279617	-1.300101	0.866268
C66	C	-0.279632	-1.300086	0.783713
C67	C	-0.330180	-1.259726	0.732209
C68	C	-0.380715	-1.219386	0.763259
C69	C	-0.431265	-1.179031	0.711755
C70	C	-0.481797	-1.138686	0.742805
C71	C	-0.481776	-1.138705	0.825358
C72	C	-0.330201	-1.259706	0.649656
C73	C	-0.431285	-1.179014	0.629198
H74	H	-0.522920	-0.673477	0.132901
H75	H	-0.238746	-0.765958	0.475291
C76	C	-0.274801	-0.908856	0.431805
C77	C	-0.281366	-0.898892	0.520328
C78	C	-0.225829	-0.933104	0.587238
C79	C	-0.163726	-0.977279	0.565624
C80	C	-0.157158	-0.987245	0.477097
C81	C	-0.212696	-0.953034	0.410188
H82	H	-0.327340	-0.866189	0.536332
H83	H	-0.230691	-0.925726	0.652771
H84	H	-0.122614	-1.002605	0.615154
H85	H	-0.111184	-1.019949	0.461093
H86	H	-0.207833	-0.960412	0.344654
H87	H	-0.929418	-1.036281	0.486940
C88	C	-0.224337	-0.601511	0.492689
C89	C	-0.134475	-0.594707	0.504536
C90	C	-0.078934	-0.538119	0.571460
C91	C	-0.113254	-0.488337	0.626538
C92	C	-0.203120	-0.495140	0.614692
C93	C	-0.258661	-0.551727	0.547768
H94	H	-0.109065	-0.631560	0.463763
H95	H	-0.012409	-0.533084	0.580229
H96	H	-0.072139	-0.446447	0.676079
H97	H	-0.228530	-0.458286	0.655465
H98	H	-0.325186	-0.556763	0.538999
C99	C	-0.274624	-1.304081	0.615499
C100	C	-0.184765	-1.279498	0.645015
C101	C	-0.129183	-1.323874	0.610859
C102	C	-0.163461	-1.392833	0.547186
C103	C	-0.253324	-1.417419	0.517666
C104	C	-0.308906	-1.373043	0.551822
H105	H	-0.159386	-1.228448	0.692153
H106	H	-0.062660	-1.305673	0.632712
H107	H	-0.122316	-1.425683	0.521901
H108	H	-0.278703	-1.468470	0.470528
H109	H	-0.375429	-1.391244	0.529969
C110	C	-0.669939	-1.171561	0.351770
C111	C	-0.681347	-1.084020	0.342920
C112	C	-0.635946	-1.019174	0.407628
C113	C	-0.579137	-1.041869	0.481186
C114	C	-0.567727	-1.129415	0.490039
C115	C	-0.613128	-1.194261	0.425331
H116	H	-0.723402	-1.067216	0.288465
H117	H	-0.644393	-0.954367	0.401073
H118	H	-0.545529	-0.993866	0.529086
H119	H	-0.525672	-1.146219	0.544494
H120	H	-0.604681	-1.259068	0.431886
H121	H	-0.238466	-1.332962	0.908206
H122	H	-0.522915	-0.823254	0.132880
C123	C	-0.486844	-0.951594	0.176307
C124	C	-0.480282	-0.938867	0.087788
C125	C	-0.535815	-0.995459	0.020862
C126	C	-0.597910	-1.064779	0.042456
C127	C	-0.604475	-1.077510	0.130980
C128	C	-0.548941	-1.020917	0.197905
H129	H	-0.434313	-0.887549	0.071799
H130	H	-0.530955	-0.986035	-0.044668
H131	H	-0.639020	-1.106672	-0.007086
H132	H	-0.650444	-1.128827	0.146969
H133	H	-0.553801	-1.030341	0.263436
H134	H	-0.730688	-1.138346	0.384941
H135	H	-0.472447	-0.539477	0.193753
H136	H	-0.472348	-1.146232	0.984705
H137	H	-0.289271	-0.502558	0.414485
H138	H	-0.805592	-1.061761	0.461450
C139	C	-1.090943	-1.267029	0.256660
C140	C	-1.147746	-1.244339	0.183095
C141	C	-1.193138	-1.309188	0.118387
C142	C	-1.181726	-1.396727	0.127243
C143	C	-1.124920	-1.419421	0.200811
C144	C	-1.079528	-1.354572	0.265519
H145	H	-1.156196	-1.179533	0.176536
H146	H	-1.235190	-1.292388	0.063927
H147	H	-1.215328	-1.444733	0.079343
H148	H	-1.116470	-1.484227	0.207370
H149	H	-1.037476	-1.371372	0.319979
H150	H	-0.681709	-1.371953	0.151738
H151	H	-1.079173	-1.066653	0.456695
H152	H	-1.030194	-1.300238	0.223482
C153	C	-0.537403	-1.094299	0.686143
C154	C	-0.530938	-1.003137	0.698769
C155	C	-0.586542	-0.958754	0.642102
C156	C	-0.648612	-1.005533	0.572810
C157	C	-0.655080	-1.096701	0.560180
C158	C	-0.599475	-1.141084	0.616847
H159	H	-0.484988	-0.968504	0.750066
H160	H	-0.581754	-0.891266	0.651452
H161	H	-0.689773	-0.972678	0.530861
H162	H	-0.701030	-1.131334	0.508883
H163	H	-0.604263	-1.208572	0.607498
H164	H	-0.472443	-1.146143	0.587269
H165	H	-0.955305	-1.376824	0.146989
H166	H	-0.831473	-1.402306	0.121496
H167	H	-0.522919	-1.105861	0.850646
H168	H	-0.288976	-1.292636	1.021808
H169	H	-0.238486	-1.332937	0.758441
