data_functionalizedCrystal
_audit_creation_method	'MofGen! by Chris Wilmer'
_symmetry_space_group_name_H-M	'P1'
_symmetry_Int_Tables_number	1
_symmetry_cell_setting	triclinic
loop_
_symmetry_equiv_pos_as_xyz
  x,y,z
_cell_length_a	14.853567
_cell_length_b	10.723024
_cell_length_c	9.198806
_cell_angle_alpha	89.998000
_cell_angle_beta	89.999292
_cell_angle_gamma	84.051400
loop_
_atom_site_label
_atom_site_type_symbol
_atom_site_fract_x
_atom_site_fract_y
_atom_site_fract_z
O1	O	-1.197224	-0.162914	0.120788
O2	O	-0.934867	-0.182321	0.120813
O3	O	-1.072097	0.009020	0.120795
O4	O	-1.059994	-0.354255	0.120807
O5	O	-1.072087	0.009021	-0.120990
O6	O	-0.934857	-0.182320	-0.120972
O7	O	-1.197214	-0.162913	-0.120997
Cu8	Cu	-1.066034	-0.172617	-0.143061
Cu9	Cu	-1.066046	-0.172617	0.142877
O10	O	-1.059984	-0.354254	-0.120979
C11	C	-1.071211	0.055511	-0.000096
C12	C	-1.068576	0.194039	-0.000091
C13	C	-0.901269	-0.181441	-0.000077
C14	C	-0.801171	-0.178806	-0.000067
C15	C	-1.230812	-0.163793	-0.000104
C16	C	-1.330910	-0.166428	-0.000104
C17	C	-0.387978	-0.054006	-0.000104
C18	C	-0.367897	-0.281324	-0.000095
C19	C	-0.461944	-0.283802	-0.000090
C20	C	-0.519013	-0.171380	-0.000090
C21	C	-0.482034	-0.056481	-0.000095
C22	C	-0.498930	-0.398699	-0.000071
C23	C	-0.592982	-0.401181	-0.000064
C24	C	-0.650052	-0.288758	-0.000075
C25	C	-0.613068	-0.173854	-0.000081
C26	C	-0.670137	-0.061433	-0.000081
C27	C	-0.633155	0.053473	-0.000098
C28	C	-0.539104	0.055942	-0.000105
C29	C	-0.744103	-0.291228	-0.000067
C30	C	-0.764192	-0.063907	-0.000072
C31	C	-1.060870	-0.400745	-0.000085
C32	C	-1.063505	-0.539273	-0.000080
N33	N	-1.066032	-0.172616	-0.344175
C34	C	-1.145363	0.269798	-0.000096
C35	C	-1.142641	0.412974	-0.000090
C36	C	-1.013475	-0.100784	-0.416404
C37	C	-1.013487	-0.100779	-0.583816
N38	N	-1.066056	-0.172609	0.343991
H39	H	-0.810652	0.027642	-0.000077
F40	F	-1.233927	0.216036	-0.000096
F41	F	-0.977577	0.375651	-0.000085
F42	F	-0.632333	-0.523471	-0.000049
H43	H	-0.968467	-0.039294	-0.354302
F44	F	-0.348620	0.068278	-0.000128
H45	H	-0.774209	-0.384782	-0.000056
H46	H	-1.000821	0.235175	-0.000075
F47	F	-0.499738	0.178222	-0.000117
H48	H	-1.111057	-0.234106	-0.593903
H49	H	-1.208376	0.478071	-0.000101
F50	F	-1.124855	-0.253004	-0.425340
H51	H	-0.679632	0.145006	-0.000088
F52	F	-0.307160	-0.400963	-0.000077
H53	H	-0.452459	-0.490226	-0.000056
H54	H	-0.968493	-0.039278	-0.645931
