data_functionalizedCrystal
_audit_creation_method	'MofGen! by Chris Wilmer'
_symmetry_space_group_name_H-M	'P1'
_symmetry_Int_Tables_number	1
_symmetry_cell_setting	triclinic
loop_
_symmetry_equiv_pos_as_xyz
  x,y,z
_cell_length_a	14.044220
_cell_length_b	15.712078
_cell_length_c	14.185499
_cell_angle_alpha	107.179366
_cell_angle_beta	75.617986
_cell_angle_gamma	106.385013
loop_
_atom_site_label
_atom_site_type_symbol
_atom_site_fract_x
_atom_site_fract_y
_atom_site_fract_z
O1	O	-1.316846	-0.232518	-0.083304
O2	O	-1.038194	-0.224797	-0.083329
O3	O	-1.140450	-0.099971	-0.083315
O4	O	-1.214589	-0.357344	-0.083318
O5	O	-1.170658	-0.063103	0.083524
O6	O	-1.068401	-0.187929	0.083510
O7	O	-1.347054	-0.195649	0.083535
Cu8	Cu	-1.210486	-0.188423	0.098756
Cu9	Cu	-1.174762	-0.232024	-0.098550
O10	O	-1.244797	-0.320475	0.083521
C11	C	-1.016810	-0.202982	0.000087
C12	C	-0.908085	-0.192896	0.000077
C13	C	-1.143442	-0.048400	0.000103
C14	C	-1.107340	0.050337	0.000097
C15	C	-1.368437	-0.217466	0.000117
C16	C	-1.477161	-0.227553	0.000120
C17	C	-0.709033	-0.174448	0.000097
C18	C	-0.676206	-0.245997	0.000100
C19	C	-0.565446	-0.235732	0.000111
C20	C	-0.819802	-0.184711	0.000086
C21	C	-1.241805	-0.372047	0.000101
C22	C	-1.277906	-0.470786	0.000100
C23	C	-1.413851	0.393805	0.000115
C24	C	-1.379905	0.486583	0.000112
C25	C	-1.209813	0.479078	0.000096
C26	C	-1.243745	0.386298	0.000104
C27	C	-1.345765	0.343669	0.000112
C28	C	-1.175659	0.336162	0.000101
C29	C	-1.209588	0.243389	0.000103
C30	C	-1.311603	0.200752	0.000109
C31	C	-1.379693	0.250896	0.000115
C32	C	-1.073638	0.378792	0.000085
C33	C	-1.005552	0.328656	0.000083
C34	C	-1.039482	0.235883	0.000092
C35	C	-1.141497	0.193246	0.000097
C36	C	-0.971391	0.185739	0.000086
C37	C	-1.005320	0.092966	0.000089
C38	C	-1.175426	0.100473	0.000100
N39	N	-1.235619	-0.157756	0.237531
C40	C	-1.075768	-0.352758	0.605158
C41	C	-1.094815	-0.329534	0.710182
C42	C	-1.185406	-0.219048	0.710156
C43	C	-1.166363	-0.242259	0.605130
C44	C	-1.111544	-0.309115	0.552639
C45	C	-1.202138	-0.198616	0.552611
C46	C	-1.183101	-0.221829	0.447593
C47	C	-1.128287	-0.288684	0.395095
C48	C	-1.092506	-0.332328	0.447622
C49	C	-1.256963	-0.131765	0.605103
C50	C	-1.292739	-0.088122	0.552584
C51	C	-1.273695	-0.111330	0.447565
C52	C	-1.218881	-0.178185	0.395067
C53	C	-1.309475	-0.067687	0.395039
C54	C	-1.290438	-0.090899	0.290022
C55	C	-1.199843	-0.201398	0.290050
N56	N	-1.149626	-0.262694	0.762675
H57	H	-0.653959	-0.105490	0.000103
O58	O	-0.741778	-0.328329	0.000129
C59	C	-0.689436	-0.392845	0.000102
H60	H	-0.617507	-0.355752	0.031703
H61	H	-0.739318	-0.440816	0.048526
H62	H	-0.669160	-0.434135	-0.079942
H63	H	-1.258502	0.065764	0.000117
H64	H	-1.354118	-0.013258	0.437790
O65	O	-1.325220	-0.048388	0.239153
C66	C	-1.377705	0.015584	0.308001
H67	H	-1.350996	0.036238	0.382869
H68	H	-1.362475	0.078646	0.277648
H69	H	-1.462082	-0.016402	0.319159
H70	H	-1.126747	0.513799	0.000086
H71	H	-1.339226	0.125210	0.000111
H72	H	-1.462770	0.216187	0.000132
H73	H	-1.435356	0.527399	0.000108
O74	O	-1.512980	0.352517	0.000078
C75	C	-1.565811	0.416667	0.000110
H76	H	-1.510978	0.474723	-0.031474
H77	H	-1.626325	0.381779	-0.048326
H78	H	-1.602852	0.445370	0.080153
O79	O	-1.040769	0.468887	-0.000052
C80	C	-1.060423	0.482843	-0.086465
H81	H	-1.124428	0.425209	-0.115262
H82	H	-1.083048	0.551052	-0.067028
H83	H	-0.989687	0.483553	-0.146981
H84	H	-1.047859	-0.386762	0.404882
H85	H	-0.922486	0.363376	0.000072
O86	O	-0.872293	0.227226	-0.000062
C87	C	-0.831932	0.261539	-0.086490
H88	H	-0.895482	0.272323	-0.115291
H89	H	-0.775596	0.329486	-0.067069
H90	H	-0.792082	0.210558	-0.146995
O91	O	-0.939059	0.044402	0.000129
C92	C	-0.841735	0.101915	0.000097
H93	H	-0.848197	0.176129	0.031688
H94	H	-0.800825	0.083183	0.048526
H95	H	-0.797484	0.092939	-0.079947
H96	H	-1.155196	-0.255833	0.247310
O97	O	-1.109968	-0.311245	0.293081
C98	C	-1.202319	-0.344254	0.257977
H99	H	-1.264368	-0.317131	0.318481
H100	H	-1.195234	-0.320137	0.187710
H101	H	-1.222030	-0.422184	0.239352
O102	O	-1.022535	-0.417749	0.554315
C103	C	-0.995008	-0.451275	0.623186
H104	H	-1.048856	-0.438836	0.698043
H105	H	-0.999232	-0.527752	0.592845
H106	H	-0.914680	-0.414349	0.634360
H107	H	-1.065679	-0.365081	0.752938
O108	O	-1.238542	-0.153999	0.761043
C109	C	-1.187552	-0.070524	0.735399
H110	H	-1.136230	-0.084578	0.659152
H111	H	-1.244943	-0.033252	0.731799
H112	H	-1.140255	-0.026241	0.794507
O113	O	-1.275586	-0.109134	0.707118
C114	C	-1.331627	-0.040758	0.742186
H115	H	-1.373308	-0.043155	0.681654
H116	H	-1.388523	-0.053006	0.812437
H117	H	-1.278367	0.029176	0.760823
H118	H	-1.337376	-0.033689	0.595334
