data_functionalizedCrystal
_audit_creation_method	'MofGen! by Chris Wilmer'
_symmetry_space_group_name_H-M	'P1'
_symmetry_Int_Tables_number	1
_symmetry_cell_setting	triclinic
loop_
_symmetry_equiv_pos_as_xyz
  x,y,z
_cell_length_a	18.215407
_cell_length_b	18.101397
_cell_length_c	18.215399
_cell_angle_alpha	90.027938
_cell_angle_beta	90.017813
_cell_angle_gamma	90.014279
loop_
_atom_site_label
_atom_site_type_symbol
_atom_site_fract_x
_atom_site_fract_y
_atom_site_fract_z
Zn1	Zn	1.125098	-0.294946	0.416076
Zn2	Zn	1.625098	0.205054	0.916076
Zn3	Zn	1.125017	-0.418792	0.293010
Zn4	Zn	1.625017	0.081208	0.793010
Zn5	Zn	1.002031	-0.294957	0.293028
Zn6	Zn	1.502031	0.205043	0.793028
Zn7	Zn	1.002008	-0.418738	0.416039
Zn8	Zn	1.502008	0.081262	0.916039
O9	O	1.063538	-0.356858	0.354538
O10	O	1.563538	0.143142	0.854538
O11	O	1.228072	-0.311392	0.399759
O12	O	1.728072	0.188608	0.899759
O13	O	1.108679	-0.402392	0.190028
O14	O	1.608679	0.097608	0.690028
O15	O	1.018399	-0.191323	0.309374
O16	O	1.518399	0.308677	0.809374
O17	O	1.228012	-0.402381	0.309343
O18	O	1.728012	0.097619	0.809343
O19	O	1.108816	-0.191314	0.399777
O20	O	1.608816	0.308686	0.899777
O21	O	1.018321	-0.311411	0.190041
O22	O	1.518321	0.188589	0.690041
O23	O	0.899043	-0.311359	0.309338
O24	O	1.399043	0.188641	0.809338
O25	O	1.018360	-0.402289	0.519028
O26	O	1.518360	0.097711	1.019028
O27	O	0.899026	-0.402300	0.399714
O28	O	1.399026	0.097700	0.899714
O29	O	1.108794	-0.311340	0.519056
O30	O	1.608794	0.188660	1.019056
O31	O	1.108657	-0.522418	0.309307
O32	O	1.608657	-0.022418	0.809307
O33	O	1.018282	-0.522378	0.399696
O34	O	1.518282	-0.022378	0.899696
C35	C	0.872332	-0.356826	0.354524
C36	C	1.372332	0.143174	0.854524
C37	C	0.790533	-0.356829	0.354535
C38	C	1.290533	0.143171	0.854535
C39	C	0.525501	-0.309571	0.401693
C40	C	1.025501	0.190429	0.901693
C41	C	0.602360	-0.309559	0.401691
C42	C	1.102360	0.190441	0.901691
C43	C	0.602317	-0.404169	0.307400
C44	C	1.102317	0.095831	0.807400
C45	C	0.525460	-0.404184	0.307406
C46	C	1.025460	0.095816	0.807406
C47	C	0.487054	-0.356881	0.354552
C48	C	0.987054	0.143119	0.854552
C49	C	0.640770	-0.356854	0.354543
C50	C	1.140770	0.143146	0.854543
C51	C	0.724103	-0.356841	0.354540
C52	C	1.224103	0.143159	0.854540
C53	C	0.403715	-0.356895	0.354556
C54	C	0.903715	0.143105	0.854556
C55	C	1.063478	-0.549269	0.354512
C56	C	1.563478	-0.049269	0.854512
C57	C	1.063519	-0.631583	0.354525
C58	C	1.563519	-0.131583	0.854525
C59	C	1.063564	-0.782291	0.354550
C60	C	1.563564	-0.282291	0.854550
C61	C	1.120481	-0.813639	0.297735
C62	C	1.620481	-0.313639	0.797735
C63	C	1.120340	-0.899257	0.297526
C64	C	1.620340	-0.399257	0.797526
C65	C	1.063609	-0.930674	0.354574
C66	C	1.563609	-0.430674	0.854574
C67	C	0.985996	-0.899650	0.333701
C68	C	1.485996	-0.399650	0.833701
C69	C	0.986299	-0.814005	0.333275
C70	C	1.486299	-0.314005	0.833275
C71	C	1.083591	-0.813788	0.432386
C72	C	1.583591	-0.313788	0.932386
C73	C	1.085328	-0.899438	0.431986
C74	C	1.585328	-0.399438	0.931986
C75	C	1.063630	-1.014533	0.354590
C76	C	1.563630	-0.514533	0.854590
C77	C	1.063538	-0.698432	0.354533
C78	C	1.563538	-0.198432	0.854533
C79	C	1.255491	-0.356891	0.354553
C80	C	1.755491	0.143109	0.854553
C81	C	1.337290	-0.356906	0.354560
C82	C	1.837290	0.143094	0.854560
C83	C	1.063583	-0.356807	0.546491
C84	C	1.563583	0.143193	1.046491
C85	C	1.063602	-0.356785	0.628290
C86	C	1.563602	0.143215	1.128290
C87	C	1.063619	-0.163696	0.354581
C88	C	1.563619	0.336304	0.854581
C89	C	1.063654	-0.081382	0.354599
C90	C	1.563654	0.418618	0.854599
C91	C	1.063536	-0.356856	0.163332
C92	C	1.563536	0.143144	0.663332
C93	C	1.063660	-0.356669	0.081534
C94	C	1.563660	0.143331	0.581534
C95	C	1.110708	-0.309384	0.816500
C96	C	1.610708	0.190616	1.316500
C97	C	1.110717	-0.309362	0.893358
C98	C	1.610717	0.190638	1.393358
C99	C	1.016548	-0.404073	0.893319
C100	C	1.516548	0.095927	1.393319
C101	C	1.016537	-0.404090	0.816461
C102	C	1.516537	0.095910	1.316461
C103	C	1.063621	-0.356746	0.778054
C104	C	1.563621	0.143254	1.278054
C105	C	1.063641	-0.356708	0.931770
C106	C	1.563641	0.143292	1.431770
C107	C	1.063651	-0.356685	1.015104
C108	C	1.563651	0.143315	1.515104
C109	C	1.063611	-0.356768	0.694715
C110	C	1.563611	0.143232	1.194715
H111	H	0.633660	-0.271035	0.440079
H112	H	1.133660	0.228965	0.940079
H113	H	0.968769	-0.921152	0.277442
H114	H	1.468769	-0.421152	0.777442
C115	C	1.162489	-0.257299	0.774254
C116	C	1.662489	0.242701	1.274254
H117	H	1.190528	-0.229083	0.808161
H118	H	1.690528	0.270917	1.308161
H119	H	1.194542	-0.285633	0.744266
H120	H	1.694542	0.214367	1.244266
H121	H	1.134336	-0.225033	0.744279
H122	H	1.634336	0.274967	1.244279
C123	C	1.162520	-0.257272	0.935649
C124	C	1.662520	0.242728	1.435649
H125	H	1.155783	-0.264037	0.986924
H126	H	1.655783	0.235963	1.486924
H127	H	1.211959	-0.268127	0.923056
H128	H	1.711959	0.231873	1.423056
H129	H	1.151770	-0.207511	0.923065
H130	H	1.651770	0.292489	1.423065
H131	H	0.978216	-0.442620	0.924600
H132	H	1.478216	0.057380	1.424600
H133	H	0.978187	-0.442658	0.785158
H134	H	1.478187	0.057342	1.285158
C135	C	0.927155	-0.927139	0.387887
C136	C	1.427155	-0.427139	0.887887
H137	H	0.880660	-0.907725	0.374253
H138	H	1.380660	-0.407725	0.874253
H139	H	0.925345	-0.979575	0.386768
H140	H	1.425345	-0.479575	0.886768
H141	H	0.939157	-0.911063	0.436074
H142	H	1.439157	-0.411063	0.936074
H143	H	0.494233	-0.271054	0.440082
H144	H	0.994233	0.228946	0.940082
C145	C	0.927050	-0.785989	0.386761
C146	C	1.427050	-0.285989	0.886761
H147	H	0.902897	-0.826952	0.408649
H148	H	1.402897	-0.326952	0.908649
H149	H	0.949397	-0.756790	0.423912
H150	H	1.449397	-0.256790	0.923912
H151	H	0.892293	-0.756951	0.360711
H152	H	1.392293	-0.256951	0.860711
H153	H	0.633597	-0.442680	0.269014
H154	H	1.133597	0.057320	0.769014
H155	H	0.494155	-0.442714	0.269018
H156	H	0.994155	0.057286	0.769018
H157	H	1.107374	-0.792163	0.240390
H158	H	1.607374	-0.292163	0.740390
H159	H	1.177885	-0.920231	0.310563
H160	H	1.677885	-0.420231	0.810563
H161	H	1.178194	-0.793005	0.310621
H162	H	1.678194	-0.293005	0.810621
C163	C	0.963410	-0.787082	0.256423
C164	C	1.463410	-0.287082	0.756423
H165	H	0.963389	-0.734607	0.255486
H166	H	1.463389	-0.234607	0.755486
H167	H	0.997144	-0.805217	0.220977
H168	H	1.497144	-0.305217	0.720977
H169	H	0.915565	-0.804806	0.245398
H170	H	1.415565	-0.304806	0.745398
H171	H	1.139209	-0.792138	0.451411
H172	H	1.639209	-0.292138	0.951411
C173	C	1.102416	-0.927014	0.219630
C174	C	1.602416	-0.427014	0.719630
H175	H	1.102273	-0.979497	0.219235
H176	H	1.602273	-0.479497	0.719235
H177	H	1.055463	-0.909297	0.205321
H178	H	1.555463	-0.409297	0.705321
H179	H	1.138465	-0.909380	0.186276
H180	H	1.638465	-0.409380	0.686276
C181	C	1.162342	-0.927109	0.453412
C182	C	1.662342	-0.427109	0.953412
H183	H	1.181201	-0.957544	0.415330
H184	H	1.681201	-0.457544	0.915330
H185	H	1.194090	-0.886099	0.460613
H186	H	1.694090	-0.386099	0.960613
H187	H	1.159199	-0.954859	0.497553
H188	H	1.659199	-0.454859	0.997553
H189	H	1.046926	-0.920819	0.476576
H190	H	1.546926	-0.420819	0.976576
C191	C	1.027599	-0.786395	0.489572
C192	C	1.527599	-0.286395	0.989572
H193	H	0.992188	-0.755910	0.466167
H194	H	1.492188	-0.255910	0.966167
H195	H	1.003756	-0.827570	0.511393
H196	H	1.503756	-0.327570	1.011393
H197	H	1.052313	-0.758786	0.526429
H198	H	1.552313	-0.258786	1.026429
