data_functionalizedCrystal
_audit_creation_method	'MofGen! by Chris Wilmer'
_symmetry_space_group_name_H-M	'P1'
_symmetry_Int_Tables_number	1
_symmetry_cell_setting	triclinic
loop_
_symmetry_equiv_pos_as_xyz
  x,y,z
_cell_length_a	15.297327
_cell_length_b	12.759393
_cell_length_c	12.759401
_cell_angle_alpha	90.020938
_cell_angle_beta	99.708126
_cell_angle_gamma	80.357027
loop_
_atom_site_label
_atom_site_type_symbol
_atom_site_fract_x
_atom_site_fract_y
_atom_site_fract_z
Zn1	Zn	-0.359082	0.666329	1.533815
Zn2	Zn	0.140918	1.166329	2.033815
Zn3	Zn	-0.509967	0.521034	1.503263
Zn4	Zn	-0.009967	1.021034	2.003263
Zn5	Zn	-0.359130	0.490674	1.358104
Zn6	Zn	0.140870	0.990674	1.858104
Zn7	Zn	-0.509904	0.696658	1.327675
Zn8	Zn	-0.009904	1.196658	1.827675
O9	O	-0.434521	0.593674	1.430714
O10	O	0.065479	1.093674	1.930714
O11	O	-0.379103	0.647069	1.676782
O12	O	0.120897	1.147069	2.176782
O13	O	-0.490005	0.369995	1.483956
O14	O	0.009995	0.869995	1.983956
O15	O	-0.232878	0.488577	1.406934
O16	O	0.267122	0.988577	1.906934
O17	O	-0.489958	0.540320	1.654335
O18	O	0.010042	1.040320	2.154335
O19	O	-0.232842	0.617630	1.536028
O20	O	0.267158	1.117630	2.036028
O21	O	-0.379185	0.347690	1.377308
O22	O	0.120815	0.847690	1.877308
O23	O	-0.379124	0.517986	1.207048
O24	O	0.120876	1.017986	1.707048
O25	O	-0.489851	0.839647	1.355072
O26	O	0.010149	1.339647	1.855072
O27	O	-0.489898	0.669321	1.184692
O28	O	0.010102	1.169321	1.684692
O29	O	-0.379042	0.817364	1.506522
O30	O	0.120958	1.317364	2.006522
O31	O	-0.636205	0.569729	1.454449
O32	O	-0.136205	1.069729	1.954449
O33	O	-0.636159	0.698760	1.325446
O34	O	-0.136159	1.198760	1.825446
C35	C	-0.668916	0.640853	1.383359
C36	C	-0.168916	1.140853	1.883359
C37	C	-0.769191	0.661071	1.363196
C38	C	-0.269191	1.161071	1.863196
C39	C	-0.434510	0.593651	1.157749
C40	C	0.065490	1.093651	1.657749
C41	C	-0.434527	0.593670	1.040969
C42	C	0.065473	1.093670	1.540969
C43	C	-0.434434	0.867690	1.430810
C44	C	0.065566	1.367690	1.930810
C45	C	-0.434397	0.984459	1.430851
C46	C	0.065603	1.484459	1.930851
C47	C	-1.051821	0.449528	1.575254
C48	C	-0.551821	0.949528	2.075254
C49	C	-0.957608	0.430526	1.594198
C50	C	-0.457608	0.930526	2.094198
C51	C	-0.910499	0.488161	1.536449
C52	C	-0.410499	0.988161	2.036449
C53	C	-0.957613	0.564800	1.459753
C54	C	-0.457613	1.064800	1.959753
C55	C	-1.051836	0.583798	1.440802
C56	C	-0.551836	1.083798	1.940802
C57	C	-0.910513	0.622431	1.401997
C58	C	-0.410513	1.122431	1.901997
C59	C	-0.957627	0.699071	1.325301
C60	C	-0.457627	1.199071	1.825301
C61	C	-1.051841	0.718065	1.306354
C62	C	-0.551841	1.218065	1.806354
C63	C	-1.098950	0.660430	1.364103
C64	C	-0.598950	1.160430	1.864103
C65	C	-0.816291	0.603434	1.420948
C66	C	-0.316291	1.103434	1.920948
C67	C	-0.816305	0.737704	1.286496
C68	C	-0.316305	1.237704	1.786496
C69	C	-0.910519	0.756705	1.267553
C70	C	-0.410519	1.256705	1.767553
C71	C	-0.199211	0.546334	1.478284
C72	C	0.300789	1.046334	1.978284
C73	C	-0.098935	0.526160	1.498555
C74	C	0.401065	1.026160	1.998555
C75	C	-0.434542	0.320711	1.430692
C76	C	0.065458	0.820711	1.930692
C77	C	-0.434325	0.203891	1.430906
C78	C	0.065675	0.703891	1.930906
C79	C	-0.376690	1.027719	1.509719
C80	C	0.123310	1.527719	2.009719
C81	C	-0.376651	1.137435	1.509744
C82	C	0.123349	1.637435	2.009744
C83	C	-0.492035	1.160625	1.352031
C84	C	0.007965	1.660625	1.852031
C85	C	-0.492068	1.050909	1.352002
C86	C	0.007932	1.550909	1.852002
C87	C	-0.492294	0.672383	0.974476
C88	C	0.007706	1.172383	1.474476
C89	C	-0.492298	0.672404	0.864751
C90	C	0.007702	1.172404	1.364751
C91	C	-0.376764	0.514991	0.888023
C92	C	0.123236	1.014991	1.388023
C93	C	-0.376756	0.514975	0.997747
C94	C	0.123244	1.014975	1.497747
C95	C	-0.434533	0.593698	1.704745
C96	C	0.065467	1.093698	2.204745
C97	C	-0.434538	0.593708	1.821521
C98	C	0.065462	1.093708	2.321521
H99	H	-0.833786	0.472684	1.551877
H100	H	-0.333786	0.972684	2.051877
H101	H	-0.539060	1.015688	1.287772
H102	H	-0.039060	1.515688	1.787772
O103	O	-1.190471	0.679060	1.345801
O104	O	-0.690471	1.179060	1.845801
C105	C	-1.221856	0.786113	1.366396
C106	C	-0.721856	1.286113	1.866396
H107	H	-1.167490	0.818624	1.423097
H108	H	-0.667490	1.318624	1.923097
H109	H	-1.284849	0.791342	1.404123
H110	H	-0.784849	1.291342	1.904123
H111	H	-1.238608	0.834940	1.288624
H112	H	-0.738608	1.334940	1.788624
H113	H	-1.090199	0.780458	1.243891
H114	H	-0.590199	1.280458	1.743891
H115	H	-0.948892	0.819105	1.205106
H116	H	-0.448892	1.319105	1.705106
H117	H	-0.329730	0.450919	0.852817
H118	H	0.170270	0.950919	1.352817
H119	H	-0.777950	0.784633	1.239470
H120	H	-0.277950	1.284633	1.739470
H121	H	-0.538990	1.214741	1.287837
H122	H	-0.038990	1.714741	1.787837
H123	H	-0.329728	0.973617	1.573921
H124	H	0.170272	1.473617	2.073921
O125	O	-0.548432	0.748935	1.016297
O126	O	-0.048432	1.248935	1.516297
C127	C	-0.599434	0.818398	0.934071
C128	C	-0.099434	1.318398	1.434071
H129	H	-0.562489	0.814678	0.863323
H130	H	-0.062489	1.314678	1.363323
H131	H	-0.609137	0.903108	0.963852
H132	H	-0.109137	1.403108	1.463852
H133	H	-0.667914	0.793582	0.908549
H134	H	-0.167914	1.293582	1.408549
O135	O	-0.320568	1.179289	1.586463
O136	O	0.179432	1.679289	2.086463
C137	C	-0.269660	1.097104	1.656029
C138	C	0.230340	1.597104	2.156029
H139	H	-0.306639	1.026332	1.652174
H140	H	0.193361	1.526332	2.152174
H141	H	-0.260033	1.126884	1.740759
H142	H	0.239967	1.626884	2.240759
H143	H	-0.201143	1.071641	1.631409
H144	H	0.298857	1.571641	2.131409
H145	H	-0.539337	0.736501	0.810617
H146	H	-0.039337	1.236501	1.310617
H147	H	-1.090186	0.402604	1.622258
H148	H	-0.590186	0.902604	2.122258
H149	H	-0.329710	0.450877	1.051889
H150	H	0.170290	0.950877	1.551889
H151	H	-0.919251	0.368126	1.656642
H152	H	-0.419251	0.868126	2.156642
O153	O	-0.770629	0.528869	1.495377
O154	O	-0.270629	1.028869	1.995377
C155	C	-0.793721	0.428793	1.467804
C156	C	-0.293721	0.928793	1.967804
H157	H	-0.862158	0.440382	1.413650
H158	H	-0.362158	0.940382	1.913650
H159	H	-0.796924	0.382394	1.543007
H160	H	-0.296924	0.882394	2.043007
H161	H	-0.740755	0.382680	1.424461
H162	H	-0.240755	0.882680	1.924461
