data_functionalizedCrystal
_audit_creation_method	'MofGen! by Chris Wilmer'
_symmetry_space_group_name_H-M	'P1'
_symmetry_Int_Tables_number	1
_symmetry_cell_setting	triclinic
loop_
_symmetry_equiv_pos_as_xyz
  x,y,z
_cell_length_a	15.298068
_cell_length_b	15.297327
_cell_length_c	12.759393
_cell_angle_alpha	80.357027
_cell_angle_beta	99.711787
_cell_angle_gamma	110.796215
loop_
_atom_site_label
_atom_site_type_symbol
_atom_site_fract_x
_atom_site_fract_y
_atom_site_fract_z
Zn1	Zn	1.357855	-0.124402	0.893273
Zn2	Zn	1.330807	-0.279962	0.743457
Zn3	Zn	1.202301	-0.151334	0.691620
Zn4	Zn	1.175363	-0.306765	0.893102
O5	O	1.266582	-0.215616	0.805363
O6	O	1.484420	-0.122549	0.895166
O7	O	1.313715	-0.262954	0.589561
O8	O	1.245529	-0.017611	0.696747
O9	O	1.464548	-0.236838	0.785096
O10	O	1.359814	0.002176	0.844901
O11	O	1.219302	-0.168451	0.551477
O12	O	1.068574	-0.194441	0.696581
O13	O	1.199616	-0.282519	1.040144
O14	O	1.048783	-0.308635	0.844609
O15	O	1.333692	-0.148538	1.040270
O16	O	1.287594	-0.413668	0.784930
O17	O	1.173389	-0.433360	0.894873
C18	C	1.024931	-0.257369	0.764952
C19	C	0.921548	-0.275254	0.747692
C20	C	0.671452	-0.088023	0.928759
C21	C	0.768585	-0.071222	0.944982
C22	C	0.806831	-0.122228	0.895661
C23	C	0.747934	-0.190039	0.830115
C24	C	0.650790	-0.206847	0.813897
C25	C	0.786169	-0.241052	0.780799
C26	C	0.727272	-0.308863	0.715253
C27	C	0.630138	-0.325667	0.699038
C28	C	0.591893	-0.274661	0.748359
C29	C	0.883312	-0.224244	0.797016
C30	C	0.862651	-0.343068	0.682154
C31	C	0.765518	-0.359869	0.665931
C32	C	1.224659	-0.457256	0.845535
C33	C	1.206809	-0.560616	0.862770
C34	C	1.394540	-0.810801	0.682603
C35	C	1.411310	-0.713689	0.666404
C36	C	1.360186	-0.675416	0.715495
C37	C	1.292289	-0.734265	0.780786
C38	C	1.275512	-0.831387	0.796980
C39	C	1.241159	-0.696002	0.829871
C40	C	1.173262	-0.754851	0.895162
C41	C	1.156488	-0.851963	0.911354
C42	C	1.207612	-0.890236	0.862263
C43	C	1.257936	-0.598880	0.813678
C44	C	1.138908	-0.619466	0.928054
C45	C	1.122138	-0.716578	0.944253
C46	C	1.509175	-0.173699	0.845932
C47	C	1.612554	-0.155837	0.863221
C48	C	1.266667	-0.215514	1.079393
C49	C	1.266703	-0.215471	1.196168
C50	C	1.308694	0.026973	0.765061
C51	C	1.326639	0.130350	0.747887
C52	C	1.266562	-0.215640	0.532396
C53	C	1.266751	-0.215390	0.415608
C54	C	1.336522	-0.145697	1.251097
C55	C	1.336545	-0.145654	1.360817
C56	C	1.196925	-0.285168	1.360671
C57	C	1.196899	-0.285206	1.250952
C58	C	1.388855	-0.030173	1.498104
C59	C	1.458687	0.039596	1.553040
C60	C	1.551911	0.069542	1.530243
C61	C	1.575318	0.029709	1.452518
C62	C	1.505489	-0.040066	1.397590
C63	C	1.412256	-0.069996	1.420379
C64	C	1.144599	-0.400687	1.113665
C65	C	1.074773	-0.470467	1.058736
C66	C	0.981546	-0.500422	1.081532
C67	C	0.958140	-0.460605	1.159264
C68	C	1.027966	-0.390826	1.214193
C69	C	1.121192	-0.360869	1.191389
H70	H	0.717550	-0.415082	0.612564
H71	H	1.097277	-0.588306	0.968025
Cl72	Cl	1.343290	-0.524910	0.731600
Cl73	Cl	1.458798	-0.858921	0.620895
Cl74	Cl	0.893770	-0.588164	1.012494
H75	H	0.816532	-0.016013	0.998353
Cl76	Cl	1.271653	-0.067804	1.526756
Cl77	Cl	1.639698	0.157250	1.599309
Cl78	Cl	1.424272	-0.058027	1.182229
H79	H	1.439620	0.072027	1.616322
Cl80	Cl	1.496671	-0.639713	0.584340
H81	H	1.101191	-0.899878	0.964504
Cl82	Cl	0.840938	-0.498265	1.187928
H83	H	0.893789	-0.384606	0.641998
Cl84	Cl	0.957342	-0.138998	0.879412
Cl85	Cl	1.534907	-0.090141	1.299884
Cl86	Cl	1.186155	-1.012389	0.882135
H87	H	1.066855	-0.764506	0.997413
H88	H	1.140095	-0.341946	1.405290
H89	H	0.582185	-0.380891	0.645675
H90	H	1.008901	-0.358406	1.277486
H91	H	1.651232	0.054092	1.433972
Cl92	Cl	1.261796	-0.363004	1.084972
H93	H	0.885922	-0.108542	0.908869
H94	H	0.640301	-0.046507	0.968916
H95	H	0.512799	-0.288343	0.735162
H96	H	1.373844	-0.596342	0.702300
H97	H	1.093840	-0.502895	0.995453
