data_functionalizedCrystal
_audit_creation_method	'MofGen! by Chris Wilmer'
_symmetry_space_group_name_H-M	'P1'
_symmetry_Int_Tables_number	1
_symmetry_cell_setting	triclinic
loop_
_symmetry_equiv_pos_as_xyz
  x,y,z
_cell_length_a	16.120530
_cell_length_b	19.077068
_cell_length_c	19.076919
_cell_angle_alpha	85.529249
_cell_angle_beta	90.500157
_cell_angle_gamma	89.537851
loop_
_atom_site_label
_atom_site_type_symbol
_atom_site_fract_x
_atom_site_fract_y
_atom_site_fract_z
Zn1	Zn	1.235622	-0.351862	0.464893
Zn2	Zn	1.735622	0.148138	0.964893
Zn3	Zn	1.235519	-0.465010	0.351733
Zn4	Zn	1.735519	0.034990	0.851733
Zn5	Zn	1.102611	-0.341206	0.341097
Zn6	Zn	1.602611	0.158794	0.841097
Zn7	Zn	1.090943	-0.463251	0.463136
Zn8	Zn	1.590943	0.036749	0.963136
O9	O	1.166174	-0.405332	0.405215
O10	O	1.666174	0.094668	0.905215
O11	O	1.351779	-0.372067	0.455068
O12	O	1.851779	0.127933	0.955068
O13	O	1.222729	-0.444865	0.251890
O14	O	1.722729	0.055135	0.751890
O15	O	1.125182	-0.244190	0.353803
O16	O	1.625182	0.255810	0.853803
O17	O	1.351704	-0.455197	0.371930
O18	O	1.851704	0.044803	0.871930
O19	O	1.222904	-0.252019	0.444755
O20	O	1.722904	0.247981	0.944755
O21	O	1.125082	-0.353906	0.244077
O22	O	1.625082	0.146094	0.744077
O23	O	0.984893	-0.352200	0.352100
O24	O	1.484893	0.147800	0.852100
O25	O	1.105295	-0.452198	0.561800
O26	O	1.605295	0.047802	1.061800
O27	O	0.976320	-0.441866	0.441761
O28	O	1.476320	0.058134	0.941761
O29	O	1.211590	-0.370361	0.563091
O30	O	1.711590	0.129639	1.063091
O31	O	1.211415	-0.563206	0.370226
O32	O	1.711415	-0.063206	0.870226
O33	O	1.105196	-0.561914	0.452074
O34	O	1.605196	-0.061914	0.952074
C35	C	1.157050	-0.588083	0.412130
C36	C	1.657050	-0.088083	0.912130
C37	C	1.153221	-0.666269	0.415115
C38	C	1.653221	-0.166269	0.915115
C39	C	0.950485	-0.395686	0.395586
C40	C	1.450485	0.104314	0.895586
C41	C	0.858210	-0.391577	0.391484
C42	C	1.358210	0.108423	0.891484
C43	C	1.206765	-0.703654	0.373943
C44	C	1.706765	-0.203654	0.873943
C45	C	1.203168	-0.777118	0.376755
C46	C	1.703168	-0.277118	0.876755
C47	C	1.146024	-0.813196	0.420736
C48	C	1.646024	-0.313196	0.920736
C49	C	1.092478	-0.775806	0.461912
C50	C	1.592478	-0.275806	0.961912
C51	C	1.096079	-0.702343	0.459104
C52	C	1.596079	-0.202343	0.959104
C53	C	1.129324	-1.032836	0.433705
C54	C	1.629324	-0.532836	0.933705
C55	C	1.125725	-1.106304	0.436509
C56	C	1.625725	-0.606304	0.936509
C57	C	1.236417	-1.107611	0.351353
C58	C	1.736417	-0.607611	0.851353
C59	C	1.240009	-1.034146	0.348545
C60	C	1.740009	-0.534146	0.848545
C61	C	1.186467	-0.996763	0.389724
C62	C	1.686467	-0.496763	0.889724
N63	N	1.142345	-0.888288	0.423610
N64	N	1.642345	-0.388288	0.923610
N65	N	1.190150	-0.921673	0.386853
N66	N	1.690150	-0.421673	0.886853
C67	C	0.689263	-0.384058	0.384001
C68	C	1.189263	0.115942	0.884001
C69	C	0.643920	-0.426660	0.426481
C70	C	1.143920	0.073340	0.926481
C71	C	0.549913	-0.422477	0.422318
C72	C	1.049913	0.077523	0.922318
C73	C	0.783280	-0.388241	0.388164
C74	C	1.283280	0.111759	0.888164
C75	C	1.382706	-0.415017	0.414881
C76	C	1.882706	0.084983	0.914881
C77	C	1.474979	-0.419144	0.419000
C78	C	1.974979	0.080856	0.919000
C79	C	1.157153	-0.412272	0.588681
C80	C	1.657153	0.087728	1.088681
C81	C	1.153308	-0.415229	0.666864
C82	C	1.653308	0.084771	1.166864
C83	C	1.175356	-0.221869	0.398289
C84	C	1.675356	0.278131	0.898289
C85	C	1.179269	-0.143688	0.395338
C86	C	1.679269	0.356312	0.895338
C87	C	1.175211	-0.398371	0.222462
C88	C	1.675211	0.101629	0.722462
C89	C	1.179226	-0.395223	0.144279
C90	C	1.679226	0.104777	0.644279
C91	C	1.206841	-0.374012	0.704267
C92	C	1.706841	0.125988	1.204267
C93	C	1.203219	-0.376787	0.777728
C94	C	1.703219	0.123213	1.277728
C95	C	1.146067	-0.420784	0.813784
C96	C	1.646067	0.079216	1.313784
C97	C	1.092528	-0.462002	0.776375
C98	C	1.592528	0.037998	1.276375
C99	C	1.096147	-0.459223	0.702916
C100	C	1.596147	0.040777	1.202916
C101	C	1.129306	-0.433662	1.033411
C102	C	1.629306	0.066338	1.533411
C103	C	1.125693	-0.436440	1.106876
C104	C	1.625693	0.063560	1.606876
C105	C	1.236383	-0.351224	1.108223
C106	C	1.736383	0.148776	1.608223
C107	C	1.240000	-0.348451	1.034763
C108	C	1.740000	0.151549	1.534763
C109	C	1.186458	-0.389667	0.997360
C110	C	1.686458	0.110333	1.497360
N111	N	1.142365	-0.423623	0.888872
N112	N	1.642365	0.076377	1.388872
N113	N	1.190157	-0.386823	0.922273
N114	N	1.690157	0.113177	1.422273
H115	H	1.253294	-0.674284	0.338126
H116	H	1.753294	-0.174284	0.838126
O117	O	1.044238	-0.499373	0.666615
O118	O	1.544238	0.000627	1.166615
C119	C	0.999045	-0.616368	0.646875
C120	C	1.499045	-0.116368	1.146875
C121	C	1.057890	-0.570982	0.688023
C122	C	1.557890	-0.070982	1.188023
H123	H	1.010050	-0.674272	0.664179
H124	H	1.510050	-0.174272	1.164179
H125	H	1.011455	-0.606882	0.588174
H126	H	1.511455	-0.106882	1.088174
H127	H	0.932016	-0.601539	0.657844
H128	H	1.432016	-0.101539	1.157844
H129	H	1.124941	-0.585784	0.677113
H130	H	1.624941	-0.085784	1.177113
H131	H	1.045409	-0.580473	0.746711
H132	H	1.545409	-0.080473	1.246711
O133	O	0.651487	-0.336744	0.336861
O134	O	1.151487	0.163256	0.836861
C135	C	0.669201	-0.244426	0.244732
C136	C	1.169201	0.255574	0.744732
C137	C	0.712102	-0.297961	0.298097
C138	C	1.212102	0.202039	0.798097
H139	H	0.718188	-0.213065	0.213366
H140	H	1.218188	0.286935	0.713366
H141	H	0.628877	-0.207101	0.273895
H142	H	1.128877	0.292899	0.773895
H143	H	0.628768	-0.273519	0.207392
H144	H	1.128768	0.226481	0.707392
H145	H	0.752576	-0.268927	0.335451
H146	H	1.252576	0.231073	0.835451
H147	H	0.752376	-0.335283	0.268888
H148	H	1.252376	0.164717	0.768888
H149	H	0.675703	-0.466273	0.465978
H150	H	1.175703	0.033727	0.965978
H151	H	1.286541	-1.004773	0.312732
H152	H	1.786541	-0.504773	0.812732
H153	H	1.085726	-1.002404	0.467234
H154	H	1.585726	-0.502404	0.967234
H155	H	1.253383	-0.338187	0.674916
H156	H	1.753383	0.161813	1.174916
O157	O	1.070236	-0.479157	1.142012
O158	O	1.570236	0.020843	1.642012
C159	C	1.015566	-0.521156	1.254582
C160	C	1.515566	-0.021156	1.754582
C161	C	1.078420	-0.472768	1.214879
C162	C	1.578420	0.027232	1.714879
H163	H	1.022149	-0.515995	1.313500
H164	H	1.522149	-0.015995	1.813500
H165	H	1.027997	-0.578000	1.242987
H166	H	1.527997	-0.078000	1.742987
H167	H	0.949970	-0.505258	1.236639
H168	H	1.449970	-0.005258	1.736639
H169	H	1.144039	-0.488603	1.232799
H170	H	1.644039	0.011397	1.732799
H171	H	1.065916	-0.415936	1.226474
H172	H	1.565916	0.084064	1.726474
O173	O	1.037078	-0.810934	0.504678
O174	O	1.537078	-0.310934	1.004678
C175	C	1.017087	-0.896903	0.602329
C176	C	1.517087	-0.396903	1.102329
C177	C	1.079919	-0.857183	0.553938
C178	C	1.579919	-0.357183	1.053938
H179	H	1.051700	-0.934293	0.642177
H180	H	1.551700	-0.434293	1.142177
H181	H	0.973620	-0.928228	0.569425
H182	H	1.473620	-0.428228	1.069425
H183	H	0.979420	-0.857547	0.631241
H184	H	1.479420	-0.357547	1.131241
H185	H	1.117643	-0.896490	0.525016
H186	H	1.617643	-0.396490	1.025016
H187	H	1.123330	-0.825847	0.586879
H188	H	1.623330	-0.325847	1.086879
H189	H	1.246813	-0.343226	0.808179
H190	H	1.746813	0.156774	1.308179
O191	O	1.295540	-0.305649	0.999848
O192	O	1.795540	0.194351	1.499848
C193	C	1.404980	-0.221450	1.008942
C194	C	1.904980	0.278550	1.508942
C195	C	1.342105	-0.269878	1.048570
C196	C	1.842105	0.230122	1.548570
H197	H	1.442657	-0.192527	1.048317
H198	H	1.942657	0.307473	1.548317
H199	H	1.370443	-0.181621	0.971477
H200	H	1.870443	0.318379	1.471477
H201	H	1.448429	-0.254395	0.977689
H202	H	1.948429	0.245605	1.477689
H203	H	1.298639	-0.236991	1.079862
H204	H	1.798639	0.263009	1.579862
H205	H	1.376696	-0.309709	1.085993
H206	H	1.876696	0.190291	1.585993
H207	H	1.246769	-0.807554	0.343228
H208	H	1.746769	-0.307554	0.843228
O209	O	1.288300	-0.311208	1.144662
O210	O	1.788300	0.188792	1.644662
C211	C	1.331815	-0.277747	1.258430
C212	C	1.831815	0.222253	1.758430
C213	C	1.272959	-0.323095	1.217250
C214	C	1.772959	0.176905	1.717250
H215	H	1.319444	-0.287352	1.317125
H216	H	1.819444	0.212648	1.817125
H217	H	1.320780	-0.219819	1.241244
H218	H	1.820780	0.280181	1.741244
H219	H	1.398842	-0.292534	1.247402
H220	H	1.898842	0.207466	1.747402
H221	H	1.205910	-0.308369	1.228258
H222	H	1.705910	0.191631	1.728258
H223	H	1.284065	-0.381011	1.234442
H224	H	1.784065	0.118989	1.734442
O225	O	1.044033	-0.665944	0.498996
O226	O	1.544033	-0.165944	0.998996
C227	C	0.935508	-0.578457	0.500217
C228	C	1.435508	-0.078457	1.000217
C229	C	0.994415	-0.619615	0.454951
C230	C	1.494415	-0.119615	0.954951
H231	H	0.895363	-0.541000	0.464625
H232	H	1.395363	-0.041000	0.964625
H233	H	0.973424	-0.547066	0.537391
H234	H	1.473424	-0.047066	1.037391
H235	H	0.894084	-0.616877	0.532150
H236	H	1.394084	-0.116877	1.032150
H237	H	1.035851	-0.581244	0.422974
H238	H	1.535851	-0.081244	0.922974
H239	H	0.956448	-0.651016	0.417821
H240	H	1.456448	-0.151016	0.917821
O241	O	1.077370	-0.473801	0.997130
O242	O	1.577370	0.026199	1.497130
C243	C	1.032115	-0.590785	0.977414
C244	C	1.532115	-0.090785	1.477414
C245	C	1.091003	-0.545413	1.018538
C246	C	1.591003	-0.045413	1.518538
H247	H	1.043104	-0.648691	0.994717
H248	H	1.543104	-0.148691	1.494717
H249	H	1.044498	-0.581307	0.918708
H250	H	1.544498	-0.081307	1.418708
H251	H	0.965098	-0.575936	0.988406
H252	H	1.465098	-0.075936	1.488406
H253	H	1.158041	-0.560235	1.007604
H254	H	1.658041	-0.060235	1.507604
H255	H	1.078548	-0.554897	1.077231
H256	H	1.578548	-0.054897	1.577231
O257	O	1.288550	-1.143852	0.311395
O258	O	1.788550	-0.643852	0.811395
C259	C	1.430377	-1.171289	0.284546
C260	C	1.930377	-0.671289	0.784546
C261	C	1.371423	-1.130197	0.329832
C262	C	1.871423	-0.630197	0.829832
H263	H	1.497392	-1.160276	0.299446
H264	H	1.997392	-0.660276	0.799446
H265	H	1.419421	-1.154073	0.226610
H266	H	1.919421	-0.654073	0.726610
H267	H	1.417952	-1.229987	0.294091
H268	H	1.917952	-0.729987	0.794091
H269	H	1.383812	-1.071491	0.320348
H270	H	1.883812	-0.571491	0.820348
H271	H	1.382391	-1.147472	0.387753
H272	H	1.882391	-0.647472	0.887753
O273	O	1.070193	-1.141244	0.479301
O274	O	1.570193	-0.641244	0.979301
C275	C	0.960759	-1.132197	0.563448
C276	C	1.460759	-0.632197	1.063448
C277	C	1.023618	-1.092541	0.515034
C278	C	1.523618	-0.592541	1.015034
H279	H	0.923075	-1.092838	0.592340
H280	H	1.423075	-0.592838	1.092340
H281	H	0.995311	-1.169623	0.603306
H282	H	1.495311	-0.669623	1.103306
H283	H	0.917316	-1.163495	0.530498
H284	H	1.417316	-0.663495	1.030498
H285	H	1.067078	-1.061204	0.547926
H286	H	1.567078	-0.561204	1.047926
H287	H	0.989012	-1.055157	0.475174
H288	H	1.489012	-0.555157	0.975174
H289	H	1.045991	-0.497823	0.805737
H290	H	1.545991	0.002177	1.305737
