data_functionalizedCrystal
_audit_creation_method	'MofGen! by Chris Wilmer'
_symmetry_space_group_name_H-M	'P1'
_symmetry_Int_Tables_number	1
_symmetry_cell_setting	triclinic
loop_
_symmetry_equiv_pos_as_xyz
  x,y,z
_cell_length_a	19.805407
_cell_length_b	16.120484
_cell_length_c	16.120256
_cell_angle_alpha	84.383827
_cell_angle_beta	87.122650
_cell_angle_gamma	92.925608
loop_
_atom_site_label
_atom_site_type_symbol
_atom_site_fract_x
_atom_site_fract_y
_atom_site_fract_z
Zn1	Zn	0.999909	-0.356764	0.489479
Zn2	Zn	0.999824	-0.489450	0.356789
Zn3	Zn	0.892766	-0.349696	0.349722
Zn4	Zn	0.880647	-0.496495	0.496509
O5	O	0.943287	-0.423101	0.423125
O6	O	1.094613	-0.374375	0.471893
O7	O	0.990659	-0.465004	0.238889
O8	O	0.912086	-0.233668	0.362361
O9	O	1.094551	-0.471858	0.374406
O10	O	0.990804	-0.238861	0.465040
O11	O	0.912004	-0.362328	0.233697
O12	O	0.796443	-0.369159	0.369178
O13	O	0.891431	-0.483866	0.612539
O14	O	0.787539	-0.477012	0.477022
O15	O	0.979052	-0.381206	0.607374
O16	O	0.978907	-0.607350	0.381223
O17	O	0.891349	-0.612526	0.483875
C18	C	0.767432	-0.423084	0.423097
C19	C	0.692199	-0.423098	0.423106
C20	C	0.652237	-0.479333	0.479178
C21	C	0.581548	-0.479335	0.479190
C22	C	0.550823	-0.423105	0.423125
C23	C	0.590790	-0.366864	0.367050
C24	C	0.661478	-0.366859	0.367043
C25	C	0.305715	-0.366884	0.367079
C26	C	0.235022	-0.366895	0.367089
C27	C	0.225785	-0.479360	0.479225
C28	C	0.296473	-0.479355	0.479218
C29	C	0.336434	-0.423111	0.423147
C30	C	0.413083	-0.423108	0.423136
C31	C	0.474175	-0.423111	0.423131
C32	C	0.933821	-0.640267	0.434097
C33	C	0.929833	-0.733172	0.438818
C34	C	0.922554	-0.903273	0.447456
C35	C	0.964140	-0.942090	0.398807
C36	C	0.960090	-1.036740	0.403613
C37	C	0.926603	-0.808614	0.442651
C38	C	1.119827	-0.423119	0.423153
C39	C	1.195059	-0.423127	0.423165
C40	C	0.933900	-0.434111	0.641132
C41	C	0.929899	-0.438802	0.734033
C42	C	0.952806	-0.205089	0.412128
C43	C	0.956863	-0.112185	0.407442
C44	C	0.952679	-0.412074	0.205963
C45	C	0.956820	-0.407147	0.113050
C46	C	0.964147	-0.398614	0.942960
C47	C	0.922575	-0.447333	0.904118
C48	C	0.926651	-0.442585	0.809474
C49	C	0.960071	-0.403361	1.037612
H50	H	0.321485	-0.525145	0.524869
O51	O	1.015329	-0.891957	0.338853
H52	H	1.005888	-0.905388	0.274076
O53	O	0.871355	-0.953400	0.507392
H54	H	0.876163	-1.020950	0.501794
H55	H	0.883919	-0.492604	0.941944
O56	O	0.182680	-0.540072	0.539655
H57	H	0.215922	-0.579196	0.578611
H58	H	1.002797	-0.353342	0.905136
H59	H	0.677248	-0.525124	0.524830
O60	O	0.201873	-0.306247	0.306620
H61	H	0.217663	-0.241395	0.317755
O62	O	0.538510	-0.540141	0.539587
H63	H	0.549868	-0.529347	0.604524
O64	O	0.348813	-0.306249	0.306580
H65	H	0.315570	-0.267166	0.267584
H66	H	0.565768	-0.321077	0.321405
O67	O	0.704586	-0.306206	0.306566
H68	H	0.736996	-0.341398	0.265871
