data_functionalizedCrystal
_audit_creation_method	'MofGen! by Chris Wilmer'
_symmetry_space_group_name_H-M	'P1'
_symmetry_Int_Tables_number	1
_symmetry_cell_setting	triclinic
loop_
_symmetry_equiv_pos_as_xyz
  x,y,z
_cell_length_a	17.699083
_cell_length_b	16.053802
_cell_length_c	17.699092
_cell_angle_alpha	87.437934
_cell_angle_beta	83.284691
_cell_angle_gamma	92.569971
loop_
_atom_site_label
_atom_site_type_symbol
_atom_site_fract_x
_atom_site_fract_y
_atom_site_fract_z
O1	O	1.007272	0.069309	0.092524
O2	O	0.786895	0.069336	0.104975
O3	O	0.903306	0.069320	-0.011439
O4	O	0.890861	0.069325	0.208938
O5	O	0.896899	-0.069538	-0.005058
O6	O	0.780488	-0.069522	0.111356
O7	O	1.000864	-0.069549	0.098905
Zn8	Zn	0.889659	-0.091582	0.106144
Zn9	Zn	0.898101	0.091369	0.097736
O10	O	0.884453	-0.069533	0.215320
C11	C	0.755494	-0.000090	0.107719
C12	C	0.671477	-0.000079	0.106380
N13	N	0.883903	-0.216442	0.111882
C14	C	0.622858	-0.000078	0.174713
C15	C	0.543914	-0.000089	0.173452
C16	C	0.513591	-0.000095	0.103856
C17	C	0.562216	-0.000099	0.035518
C18	C	0.641158	-0.000094	0.036780
C19	C	0.243852	-0.000120	0.030423
C20	C	0.164904	-0.000122	0.029166
C21	C	0.146608	-0.000114	0.167094
C22	C	0.225550	-0.000110	0.168357
C23	C	0.274168	-0.000118	0.100020
C24	C	0.359767	-0.000108	0.101389
C25	C	0.427993	-0.000099	0.102486
C26	C	0.933454	-0.260143	0.062365
C27	C	0.929434	-0.347549	0.066385
C28	C	0.875867	-0.391253	0.119927
C29	C	0.826310	-0.347546	0.169446
C30	C	0.830327	-0.260141	0.165421
C31	C	0.858323	-0.652660	0.137487
C32	C	0.854312	-0.740071	0.141510
C33	C	0.957435	-0.740068	0.038447
C34	C	0.961450	-0.652661	0.034430
C35	C	0.911891	-0.608962	0.083947
N36	N	0.871759	-0.480596	0.124040
N37	N	0.915996	-0.519621	0.079830
C38	C	1.032265	-0.000122	0.096161
C39	C	1.116283	-0.000127	0.097500
C40	C	0.899656	-0.000108	-0.036445
C41	C	0.898315	-0.000104	-0.120463
N42	N	0.903863	0.216229	0.091993
C43	C	0.901179	0.075588	-0.163409
C44	C	0.899914	0.075590	-0.242352
C45	C	0.895790	-0.000103	-0.278349
C46	C	0.892923	-0.075801	-0.235397
C47	C	0.894183	-0.075801	-0.156454
C48	C	0.887843	-0.075802	-0.553762
C49	C	0.886586	-0.075795	-0.632710
C50	C	0.893574	0.075589	-0.639660
C51	C	0.894834	0.075589	-0.560717
C52	C	0.891963	-0.000109	-0.517772
C53	C	0.893333	-0.000109	-0.432173
C54	C	0.894426	-0.000103	-0.363947
C55	C	0.888104	-0.000104	0.240326
C56	C	0.889445	-0.000102	0.324343
H57	H	0.647540	-0.000072	0.231386
Br58	Br	0.906784	0.178320	-0.114566
H59	H	0.891840	-0.137438	-0.121487
H60	H	1.005069	-0.617080	-0.009168
H61	H	0.810688	-0.775650	0.185113
Br62	Br	0.309823	-0.000133	-0.062321
H63	H	0.537520	-0.000116	-0.021148
Br64	Br	0.266699	-0.000093	0.262812
Br65	Br	0.080622	-0.000104	0.259841
H66	H	0.680743	-0.000095	-0.018864
Br67	Br	0.123752	-0.000128	-0.065293
H68	H	0.504331	-0.000087	0.229095
H69	H	0.902250	0.137226	-0.277316
H70	H	0.977077	-0.224565	0.018769
Br71	Br	0.753604	-0.406855	0.242106
Br72	Br	0.996680	-0.406860	-0.000819
H73	H	0.997783	-0.775656	-0.001867
Br74	Br	0.791068	-0.593358	0.204687
H75	H	0.789976	-0.224561	0.205742
Br76	Br	0.897471	0.178325	-0.697947
H77	H	0.883226	-0.137437	-0.662015
H78	H	0.898196	0.137226	-0.531414
H79	H	0.885520	-0.137439	-0.518806
H80	H	0.889561	-0.137431	-0.264710
