data_functionalizedCrystal
_audit_creation_method	'MofGen! by Chris Wilmer'
_symmetry_space_group_name_H-M	'P1'
_symmetry_Int_Tables_number	1
_symmetry_cell_setting	triclinic
loop_
_symmetry_equiv_pos_as_xyz
  x,y,z
_cell_length_a	18.215405
_cell_length_b	12.759401
_cell_length_c	12.759393
_cell_angle_alpha	90.022088
_cell_angle_beta	89.962431
_cell_angle_gamma	89.977252
loop_
_atom_site_label
_atom_site_type_symbol
_atom_site_fract_x
_atom_site_fract_y
_atom_site_fract_z
Zn1	Zn	-0.292983	-1.606181	-0.594038
Zn2	Zn	-0.416069	-1.606044	-0.418340
Zn3	Zn	-0.293016	-1.430483	-0.418367
Zn4	Zn	-0.416008	-1.430440	-0.593970
O5	O	-0.354519	-1.518287	-0.506179
O6	O	-0.309322	-1.753184	-0.570749
O7	O	-0.399786	-1.582716	-0.271322
O8	O	-0.190028	-1.453865	-0.441709
O9	O	-0.399753	-1.753083	-0.441664
O10	O	-0.190003	-1.582949	-0.570774
O11	O	-0.309379	-1.453732	-0.271342
O12	O	-0.309320	-1.283456	-0.441644
O13	O	-0.399648	-1.453792	-0.741000
O14	O	-0.399681	-1.283425	-0.570659
O15	O	-0.309262	-1.582908	-0.741050
O16	O	-0.519045	-1.582675	-0.441598
O17	O	-0.519000	-1.453660	-0.570633
C18	C	-0.354498	-1.245320	-0.506147
C19	C	-0.354506	-1.128543	-0.506159
C20	C	-0.401517	-1.073632	-0.438850
C21	C	-0.401526	-0.963908	-0.438864
C22	C	-0.307509	-0.964015	-0.573497
C23	C	-0.307503	-1.073738	-0.573488
C24	C	-0.455795	-1.073570	-0.361117
C25	C	-0.455804	-0.963846	-0.361131
C26	C	-0.545725	-1.518176	-0.506128
C27	C	-0.627524	-1.518225	-0.506142
C28	C	-0.815717	-1.585561	-0.439077
C29	C	-0.892576	-1.585608	-0.439102
C30	C	-0.892569	-1.451148	-0.573356
C31	C	-0.815711	-1.451107	-0.573335
C32	C	-0.777288	-1.518312	-0.506190
C33	C	-0.931004	-1.518400	-0.506236
C34	C	-1.014337	-1.518450	-0.506264
C35	C	-0.693949	-1.518263	-0.506163
C36	C	-0.162566	-1.518427	-0.506252
C37	C	-0.080767	-1.518487	-0.506284
C38	C	-0.354445	-1.518361	-0.780212
C39	C	-0.354413	-1.518392	-0.896989
C40	C	-0.354534	-0.792320	-0.506200
C41	C	-0.354521	-0.909097	-0.506181
C42	C	-0.307345	-1.585632	-0.951879
C43	C	-0.307318	-1.585657	-1.061603
C44	C	-0.401435	-1.451199	-1.061538
C45	C	-0.401457	-1.451170	-0.951816
C46	C	-0.253010	-1.663263	-0.951917
C47	C	-0.252983	-1.663288	-1.061641
C48	C	-0.354540	-1.518274	-0.233211
C49	C	-0.354364	-1.518447	-0.116435
H50	H	-0.269241	-0.919379	-0.628315
C51	C	-0.216065	-1.813020	-1.162831
C52	C	-0.273589	-1.773130	-1.101846
H53	H	-0.228784	-1.880832	-1.187643
H54	H	-0.207571	-1.767844	-1.220727
H55	H	-0.172831	-1.817453	-1.121474
H56	H	-0.316822	-1.768690	-1.143206
H57	H	-0.282092	-1.818318	-1.043942
C58	C	-0.792136	-1.636836	-0.261216
C59	C	-0.773481	-1.659438	-0.365278
H60	H	-0.766066	-1.682452	-0.215658
H61	H	-0.779584	-1.566257	-0.245773
H62	H	-0.843412	-1.646487	-0.251639
H63	H	-0.722207	-1.649780	-0.374857
H64	H	-0.786029	-1.730034	-0.380726
C65	C	-0.214575	-1.062818	-0.706569
C66	C	-0.255831	-1.134096	-0.647479
H67	H	-0.182670	-1.100083	-0.752244
H68	H	-0.246677	-1.020030	-0.746672
H69	H	-0.186389	-1.020010	-0.660863
H70	H	-0.284021	-1.176899	-0.693185
H71	H	-0.223725	-1.176902	-0.607373
C72	C	-0.435115	-0.813849	-0.251379
C73	C	-0.435099	-0.923590	-0.251351
H74	H	-0.422336	-0.788999	-0.183607
H75	H	-0.400397	-0.789083	-0.301107
H76	H	-0.482629	-0.789040	-0.269427
H77	H	-0.387584	-0.948400	-0.233311
H78	H	-0.469819	-0.948366	-0.201607
C79	C	-0.483355	-1.181209	-0.211889
C80	C	-0.428149	-1.119488	-0.256846
H81	H	-0.466282	-1.209561	-0.147521
H82	H	-0.525545	-1.139276	-0.199296
H83	H	-0.495666	-1.236659	-0.258358
H84	H	-0.415841	-1.064033	-0.210380
H85	H	-0.385945	-1.161424	-0.269435
H86	H	-0.512809	-1.103329	-0.382756
C87	C	-0.916104	-1.763564	-0.388130
C88	C	-0.934789	-1.659561	-0.365328
H89	H	-0.942154	-1.809230	-0.342578
H90	H	-0.928662	-1.778892	-0.458728
H91	H	-0.864825	-1.773106	-0.378529
H92	H	-0.986068	-1.650018	-0.374936
H93	H	-0.922237	-1.644228	-0.294713
H94	H	-0.196016	-1.641509	-0.922168
C95	C	-0.576954	-0.999602	-0.425961
C96	C	-0.528934	-0.917880	-0.400269
H97	H	-0.622100	-0.971221	-0.450117
H98	H	-0.555702	-1.041530	-0.479514
H99	H	-0.585635	-1.041468	-0.365669
H100	H	-0.520249	-0.876018	-0.460563
H101	H	-0.550191	-0.875935	-0.346712
C102	C	-1.010383	-1.391497	-0.632991
C103	C	-0.934807	-1.377268	-0.647149
H104	H	-1.036456	-1.345878	-0.678543
H105	H	-1.022930	-1.462075	-0.648444
H106	H	-1.023019	-1.376170	-0.562384
H107	H	-0.922170	-1.392602	-0.717754
H108	H	-0.922256	-1.306673	-0.631703
H109	H	-0.784420	-1.396345	-0.627991
H110	H	-0.439782	-1.396413	-0.907129
C111	C	-0.225359	-1.812397	-0.844220
C112	C	-0.280587	-1.767567	-0.905955
H113	H	-0.242389	-1.876785	-0.815839
H114	H	-0.183153	-1.824931	-0.886150
H115	H	-0.213088	-1.765883	-0.788790
H116	H	-0.292854	-1.814079	-0.961390
H117	H	-0.322806	-1.755037	-0.864022
H118	H	-0.439734	-1.396467	-1.106191
C119	C	-0.131889	-1.598213	-1.025914
C120	C	-0.179876	-1.624025	-1.107624
H121	H	-0.086757	-1.573979	-1.054306
H122	H	-0.153189	-1.544688	-0.984002
H123	H	-0.123168	-1.658474	-0.984028
H124	H	-0.188602	-1.563762	-1.149506
H125	H	-0.158572	-1.677555	-1.149553
