data_functionalizedCrystal
_audit_creation_method	'MofGen! by Chris Wilmer'
_symmetry_space_group_name_H-M	'P1'
_symmetry_Int_Tables_number	1
_symmetry_cell_setting	triclinic
loop_
_symmetry_equiv_pos_as_xyz
  x,y,z
_cell_length_a	15.625020
_cell_length_b	19.188930
_cell_length_c	14.185569
_cell_angle_alpha	76.885558
_cell_angle_beta	85.694396
_cell_angle_gamma	83.713990
loop_
_atom_site_label
_atom_site_type_symbol
_atom_site_fract_x
_atom_site_fract_y
_atom_site_fract_z
O1	O	1.078875	0.181348	-0.475948
O2	O	0.837901	0.175594	-0.388281
O3	O	0.965346	0.077317	-0.434626
O4	O	0.951429	0.279626	-0.429603
O5	O	1.002995	0.048288	-0.281483
O6	O	0.875549	0.146566	-0.235137
O7	O	1.116523	0.152320	-0.322805
Cu8	Cu	0.999474	0.146792	-0.264988
Cu9	Cu	0.954950	0.181122	-0.446098
O10	O	0.989078	0.250597	-0.276459
C11	C	0.825895	0.158463	-0.300493
C12	C	0.734034	0.150655	-0.267072
C13	C	0.625078	0.123828	-0.136494
C14	C	0.711394	0.131166	-0.167908
C15	C	0.670360	0.162810	-0.334862
C16	C	0.584039	0.155470	-0.303462
C17	C	0.561406	0.135980	-0.204277
C18	C	0.520367	0.167623	-0.371246
C19	C	0.434054	0.160288	-0.339848
C20	C	0.411412	0.140800	-0.240667
C21	C	0.475092	0.128645	-0.172880
C22	C	0.543002	0.187118	-0.470430
C23	C	0.479329	0.199271	-0.538214
C24	C	0.393015	0.191931	-0.506817
C25	C	0.370374	0.172443	-0.407636
C26	C	0.329335	0.204086	-0.574604
C27	C	0.243022	0.196751	-0.543207
C28	C	0.284060	0.165108	-0.376238
C29	C	0.983721	0.036758	-0.357888
C30	C	0.982371	-0.040846	-0.357388
C31	C	1.057150	-0.080344	-0.384589
C32	C	1.055876	-0.153257	-0.384141
C33	C	0.979823	-0.186673	-0.356474
C34	C	0.905033	-0.147165	-0.329275
C35	C	0.906306	-0.074251	-0.329732
N36	N	0.934502	-0.308775	-0.283207
N37	N	0.933298	-0.378041	-0.282772
C38	C	0.975981	-0.406356	-0.355096
N39	N	1.019928	-0.362792	-0.427864
N40	N	1.021136	-0.293522	-0.428295
C41	C	0.978434	-0.265735	-0.355975
C42	C	1.049384	-0.524915	-0.381814
C43	C	1.048105	-0.597828	-0.381372
C44	C	0.897262	-0.591736	-0.326495
C45	C	0.898540	-0.518823	-0.326948
C46	C	0.974604	-0.485417	-0.354604
C47	C	1.128528	0.169452	-0.410595
C48	C	1.220388	0.177260	-0.444022
C49	C	0.970703	0.291156	-0.353199
C50	C	0.972051	0.368761	-0.353705
N51	N	1.030795	0.122647	-0.137607
N52	N	0.923635	0.205262	-0.573481
C53	C	0.831612	0.276172	0.302477
C54	C	0.855344	0.257887	0.398868
C55	C	0.968219	0.170899	0.357782
C56	C	0.944494	0.189174	0.261386
C57	C	0.876191	0.241812	0.233741
C58	C	0.989073	0.154814	0.192650
C59	C	0.965353	0.173091	0.096262
C60	C	0.897054	0.225728	0.068608
C61	C	0.852471	0.260088	0.137353
C62	C	1.057381	0.102181	0.220295
C63	C	1.101959	0.067821	0.151560
C64	C	1.078236	0.086093	0.055170
C65	C	1.009937	0.138730	0.027517
C66	C	1.122819	0.051733	-0.013574
C67	C	1.099099	0.070009	-0.109962
C68	C	0.986216	0.157007	-0.068871
H69	H	0.347776	0.219962	-0.655360
H70	H	0.688800	0.178682	-0.415619
Br71	Br	0.660142	0.197077	-0.513042
H72	H	0.819036	0.285873	0.454831
H73	H	0.845410	-0.042092	-0.307581
H74	H	1.178438	0.008880	0.008946
Br75	Br	0.294271	0.130851	-0.198052
H76	H	0.191177	0.206648	-0.598403
Br77	Br	0.797806	0.114674	-0.075904
H78	H	0.843109	-0.174376	-0.306750
H79	H	0.606648	0.107965	-0.055727
H80	H	0.456663	0.112783	-0.092113
Br81	Br	1.159605	0.023380	-0.203252
Br82	Br	0.510055	0.225721	-0.672818
H83	H	1.119086	-0.053149	-0.407112
Br84	Br	1.149598	-0.651433	-0.418300
H85	H	0.265630	0.149246	-0.295471
Br86	Br	0.893506	0.228435	-0.106389
H87	H	0.835337	-0.618942	-0.303972
H88	H	1.116771	-0.185422	-0.406296
Br89	Br	1.152613	-0.479576	-0.419337
Br90	Br	0.797048	-0.465215	-0.290030
H91	H	0.877745	0.240610	-0.009879
H92	H	0.796846	0.302946	0.114847
Br93	Br	0.738901	0.347600	0.264959
Br94	Br	1.060918	0.099468	0.395304
Br95	Br	1.194658	-0.003611	0.189082
H96	H	1.076693	0.087304	0.298781
