data_functionalizedCrystal
_audit_creation_method	'MofGen! by Chris Wilmer'
_symmetry_space_group_name_H-M	'P1'
_symmetry_Int_Tables_number	1
_symmetry_cell_setting	triclinic
loop_
_symmetry_equiv_pos_as_xyz
  x,y,z
_cell_length_a	25.639242
_cell_length_b	25.639239
_cell_length_c	14.908694
_cell_angle_alpha	93.266315
_cell_angle_beta	86.682682
_cell_angle_gamma	90.030990
loop_
_atom_site_label
_atom_site_type_symbol
_atom_site_fract_x
_atom_site_fract_y
_atom_site_fract_z
Zn1	Zn	0.816305	-0.225309	-0.510099
Zn2	Zn	0.811177	-0.307704	-0.359234
Zn3	Zn	0.723831	-0.220273	-0.359254
Zn4	Zn	0.728825	-0.312702	-0.510041
O5	O	0.770035	-0.266497	-0.434657
O6	O	0.888791	-0.236255	-0.490102
O7	O	0.795354	-0.291907	-0.232994
O8	O	0.736154	-0.147777	-0.379297
O9	O	0.885023	-0.296790	-0.379262
O10	O	0.804095	-0.151477	-0.490122
O11	O	0.731181	-0.227672	-0.233008
O12	O	0.651328	-0.232518	-0.379240
O13	O	0.744666	-0.305308	-0.636291
O14	O	0.654997	-0.300425	-0.490023
O15	O	0.808937	-0.241101	-0.636334
O16	O	0.800197	-0.381531	-0.379206
O17	O	0.739693	-0.385203	-0.490003
C18	C	0.634191	-0.266468	-0.434628
C19	C	0.576077	-0.266469	-0.434637
C20	C	0.326858	-0.235040	-0.492477
C21	C	0.381462	-0.235034	-0.492471
O22	O	0.411377	-0.208289	-0.541643
N23	N	0.406804	-0.266491	-0.434667
C24	C	0.377540	-0.297960	-0.376871
O25	O	0.404110	-0.324717	-0.327704
C26	C	0.322937	-0.297968	-0.376881
C27	C	0.297597	-0.266504	-0.434683
C28	C	0.301518	-0.203579	-0.550274
C29	C	0.246918	-0.203584	-0.550278
C30	C	0.217657	-0.235049	-0.492484
C31	C	0.242997	-0.266509	-0.434686
C32	C	0.293674	-0.329439	-0.319090
C33	C	0.239067	-0.329444	-0.319106
C34	C	0.213728	-0.297981	-0.376907
C35	C	0.159136	-0.297979	-0.376896
N36	N	0.133794	-0.266522	-0.434700
C37	C	0.163054	-0.235057	-0.492494
C38	C	0.492210	-0.297942	-0.376854
C39	C	0.546812	-0.297932	-0.376839
C40	C	0.550730	-0.235007	-0.492441
C41	C	0.496127	-0.235014	-0.492451
C42	C	0.466868	-0.266485	-0.434659
C43	C	0.048389	-0.235069	-0.492497
C44	C	-0.006216	-0.235075	-0.492493
C45	C	-0.010130	-0.298002	-0.376895
C46	C	0.044471	-0.297994	-0.376895
C47	C	0.073729	-0.266526	-0.434704
O48	O	0.129187	-0.324712	-0.327753
O49	O	0.136478	-0.208310	-0.541661
C50	C	0.769945	-0.402338	-0.434615
C51	C	0.769956	-0.460453	-0.434628
C52	C	0.801630	-0.818895	-0.377063
C53	C	0.801650	-0.873500	-0.377075
O54	O	0.828487	-0.900103	-0.328086
N55	N	0.770128	-0.902738	-0.434717
C56	C	0.738588	-0.877369	-0.492356
O57	O	0.711779	-0.907252	-0.541387
C58	C	0.738571	-0.822765	-0.492348
C59	C	0.770090	-0.793530	-0.434696
C60	C	0.833147	-0.789660	-0.319417
C61	C	0.833126	-0.735059	-0.319403
C62	C	0.801586	-0.709694	-0.377037
C63	C	0.770069	-0.738929	-0.434683
C64	C	0.707033	-0.797397	-0.549992
C65	C	0.707019	-0.742790	-0.549979
C66	C	0.738539	-0.713554	-0.492327
C67	C	0.738508	-0.658962	-0.492304
N68	N	0.770030	-0.629724	-0.434662
C69	C	0.801569	-0.655090	-0.377029
C70	C	0.738628	-0.992040	-0.492370
C71	C	0.738642	-1.046642	-0.492375
C72	C	0.801705	-1.042770	-0.377094
C73	C	0.801688	-0.988166	-0.377086
C74	C	0.770150	-0.962802	-0.434729
C75	C	0.801521	-0.540424	-0.377005
C76	C	0.801495	-0.485818	-0.376995
C77	C	0.738434	-0.489696	-0.492278
C78	C	0.738458	-0.544297	-0.492286
C79	C	0.770006	-0.569659	-0.434646
O80	O	0.711686	-0.632324	-0.541270
O81	O	0.828379	-0.625201	-0.328015
C82	C	0.906409	-0.266527	-0.434687
C83	C	0.964523	-0.266540	-0.434699
C84	C	0.777931	-0.274324	-0.669961
C85	C	0.781295	-0.277660	-0.770234
C86	C	0.770139	-0.130126	-0.434718
C87	C	0.770184	-0.072013	-0.434744
C88	C	0.720782	-0.217041	-0.958674
C89	C	0.723942	-0.220173	-1.052889
C90	C	0.790771	-0.287059	-1.052881
C91	C	0.787612	-0.283926	-0.958666
C92	C	0.752617	-0.248916	-0.911566
C93	C	0.749460	-0.245781	-0.817349
C94	C	0.816286	-0.312669	-0.817342
C95	C	0.819446	-0.315801	-0.911558
C96	C	0.762199	-0.258663	-0.200268
C97	C	0.758936	-0.255180	-0.099996
H98	H	0.475499	-0.209394	-0.539518
H99	H	0.325337	-0.177956	-0.597342
H100	H	-0.026845	-0.209451	-0.539562
C101	C	0.836363	-0.956012	-0.313668
N102	N	0.862483	-0.931797	-0.265900
H103	H	0.567438	-0.323546	-0.329761
H104	H	0.698020	-0.194217	-1.091241
C105	C	0.072345	-0.332603	-0.313307
N106	N	0.093336	-0.358675	-0.265418
H107	H	0.712970	-1.070441	-0.539312
H108	H	0.712941	-0.971391	-0.539307
H109	H	0.720967	-0.217272	-0.779001
C110	C	0.829020	-0.325808	-1.104706
N111	N	0.857743	-0.355080	-1.143741
H112	H	0.827211	-0.561068	-0.330072
C113	C	0.682290	-0.178527	-0.906861
N114	N	0.653297	-0.149518	-0.867838
C115	C	0.857822	-0.354427	-0.963378
N116	N	0.886686	-0.383562	-1.002408
H117	H	0.827388	-1.063433	-0.330169
C118	C	0.672360	-0.829544	-0.613417
N119	N	0.646243	-0.853757	-0.661195
H120	H	0.827162	-0.462016	-0.330044
H121	H	0.681337	-0.722141	-0.596922
H122	H	-0.033964	-0.323617	-0.329837
C123	C	0.867796	-0.702907	-0.255974
N124	N	0.893910	-0.678693	-0.208193
C125	C	0.080565	-0.200449	-0.556084
N126	N	0.104800	-0.174370	-0.603973
H127	H	0.574564	-0.209386	-0.539500
C128	C	0.851306	-0.347734	-0.765516
N129	N	0.877683	-0.374143	-0.726479
H130	H	0.226291	-0.177966	-0.597350
C131	C	0.460029	-0.332556	-0.313260
N132	N	0.435792	-0.358626	-0.265359
C133	C	0.321535	-0.364054	-0.255505
N134	N	0.342519	-0.390129	-0.207612
H135	H	0.215247	-0.355073	-0.272045
H136	H	0.712794	-0.568102	-0.539233
C137	C	0.867843	-0.817553	-0.256005
N138	N	0.893974	-0.838558	-0.208232
H139	H	0.712754	-0.469034	-0.539200
