data_functionalizedCrystal
_audit_creation_method	'MofGen! by Chris Wilmer'
_symmetry_space_group_name_H-M	'P1'
_symmetry_Int_Tables_number	1
_symmetry_cell_setting	triclinic
loop_
_symmetry_equiv_pos_as_xyz
  x,y,z
_cell_length_a	26.455835
_cell_length_b	26.455273
_cell_length_c	26.451828
_cell_angle_alpha	60.005170
_cell_angle_beta	60.010757
_cell_angle_gamma	59.993435
loop_
_atom_site_label
_atom_site_type_symbol
_atom_site_fract_x
_atom_site_fract_y
_atom_site_fract_z
O1	O	0.069940	-0.738516	0.617604
O2	O	0.569940	-0.238516	1.117604
O3	O	0.026299	-0.574986	0.497618
O4	O	0.526299	-0.074986	0.997618
O5	O	0.129847	-0.678463	0.497546
O6	O	0.629847	-0.178463	0.997546
O7	O	-0.033607	-0.635040	0.617676
O8	O	0.466393	-0.135040	1.117676
O9	O	0.164197	-0.644116	0.531822
O10	O	0.664197	-0.144116	1.031822
O11	O	0.060649	-0.540639	0.531894
O12	O	0.560649	-0.040639	1.031894
O13	O	0.104290	-0.704170	0.651880
O14	O	0.604290	-0.204170	1.151880
Cu15	Cu	0.085606	-0.619268	0.595016
Cu16	Cu	0.585606	-0.119268	1.095016
Cu17	Cu	0.044984	-0.659887	0.554481
Cu18	Cu	0.544984	-0.159887	1.054481
O19	O	0.000742	-0.600693	0.651952
O20	O	0.500742	-0.100693	1.151952
N21	N	0.114179	-0.590703	0.623530
N22	N	0.614179	-0.090703	1.123530
N23	N	0.016416	-0.688458	0.525968
N24	N	0.516416	-0.188458	1.025968
C25	C	0.157553	-0.547535	0.933368
C26	C	0.657553	-0.047535	1.433368
C27	C	0.424104	-0.547506	0.666656
C28	C	0.924104	-0.047506	1.166656
C29	C	0.157413	-0.547503	0.666729
C30	C	0.657413	-0.047503	1.166729
C31	C	0.157397	-0.280846	0.666749
C32	C	0.657397	0.219154	1.166749
C33	C	0.200330	-0.409550	0.709625
C34	C	0.700330	0.090450	1.209625
C35	C	0.200339	-0.504608	0.709615
C36	C	0.700339	-0.004608	1.209615
C37	C	0.224118	-0.480848	0.733375
C38	C	0.724118	0.019152	1.233375
C39	C	0.327800	-0.462984	0.678792
C40	C	0.827800	0.037016	1.178792
C41	C	0.392611	-0.484588	0.657175
C42	C	0.892611	0.015412	1.157175
C43	C	0.392630	-0.589450	0.697162
C44	C	0.892630	-0.089450	1.197162
C45	C	0.327821	-0.567844	0.718781
C46	C	0.827821	-0.067844	1.218781
C47	C	0.215955	-0.377135	0.645910
C48	C	0.715955	0.122865	1.145910
C49	C	0.194327	-0.312320	0.624323
C50	C	0.694327	0.187680	1.124323
C51	C	0.141457	-0.312339	0.730169
C52	C	0.641457	0.187661	1.230169
C53	C	0.163084	-0.377154	0.751756
C54	C	0.663084	0.122846	1.251756
C55	C	0.136618	-0.488954	0.725292
C56	C	0.636618	0.011046	1.225292
C57	C	0.115007	-0.510553	0.703686
C58	C	0.615007	-0.010553	1.203686
C59	C	0.220833	-0.563461	0.650740
C60	C	0.720833	-0.063461	1.150740
C61	C	0.242447	-0.541861	0.672339
C62	C	0.742447	-0.041861	1.172339
C63	C	0.136680	-0.488971	0.837094
C64	C	0.636680	0.011029	1.337094
C65	C	0.115112	-0.510589	0.901907
C66	C	0.615112	-0.010589	1.401907
C67	C	0.220969	-0.563508	0.901868
C68	C	0.720969	-0.063508	1.401868
C69	C	0.242535	-0.541892	0.837053
C70	C	0.742535	-0.041892	1.337053
C71	C	0.200389	-0.504622	0.804668
C72	C	0.700389	-0.004622	1.304668
C73	C	0.295409	-0.504610	0.709593
C74	C	0.795409	-0.004610	1.209593
C75	C	0.132990	-0.570876	1.004655
C76	C	0.632990	-0.070876	1.504655
C77	C	0.495389	-0.570440	0.642547
C78	C	0.995389	-0.070440	1.142547
C79	C	0.132802	-0.570856	0.643399
C80	C	0.632802	-0.070856	1.143399
C81	C	0.133212	-0.209553	0.643833
C82	C	0.633212	0.290447	1.143833
C83	C	-0.097217	-0.706972	0.506986
C84	C	0.402783	-0.206972	1.006986
C85	C	-0.002040	-0.707108	0.412067
C86	C	0.497960	-0.207108	0.912067
C87	C	-0.002230	-0.802124	0.507163
C88	C	0.497770	-0.302124	1.007163
C89	C	-0.002214	-0.707101	0.507221
C90	C	0.497786	-0.207101	1.007221
C91	C	-0.025925	-0.730827	0.483360
C92	C	0.474075	-0.230827	0.983360
N93	N	0.553723	-0.590712	0.623415
N94	N	1.053723	-0.090712	1.123415
O95	O	0.751638	-0.596429	0.475603
O96	O	1.251638	-0.096429	0.975603
O97	O	0.751819	-0.716773	0.638980
O98	O	1.251819	-0.216773	1.138980
O99	O	0.751753	-0.716500	0.535361
O100	O	1.251753	-0.216500	1.035361
O101	O	0.751705	-0.596703	0.579222
O102	O	1.251705	-0.096703	1.079222
O103	O	0.648791	-0.682239	0.569747
O104	O	1.148791	-0.182239	1.069747
O105	O	0.648858	-0.682512	0.673366
O106	O	1.148858	-0.182512	1.173366
O107	O	0.648676	-0.562169	0.509989
O108	O	1.148676	-0.062169	1.009989
Cu109	Cu	0.639366	-0.619212	0.594817
Cu110	Cu	1.139366	-0.119212	1.094817
Cu111	Cu	0.761130	-0.659729	0.554152
Cu112	Cu	1.261130	-0.159729	1.054152
O113	O	0.648743	-0.562442	0.613609
O114	O	1.148743	-0.062442	1.113609
N115	N	0.846773	-0.688230	0.525548
N116	N	1.346773	-0.188230	1.025548
N117	N	0.114157	-0.151217	0.623565
N118	N	0.614157	0.348783	1.123565
O119	O	-0.033591	0.046803	0.617717
O120	O	0.466409	0.546803	1.117717
O121	O	0.129795	0.046806	0.497390
O122	O	0.629795	0.546806	0.997390
O123	O	0.026157	0.046789	0.497680
O124	O	0.526157	0.546789	0.997680
O125	O	0.070046	0.046819	0.617427
O126	O	0.570046	0.546819	1.117427
O127	O	0.060509	-0.056181	0.532004
O128	O	0.560509	0.443819	1.032004
O129	O	0.164146	-0.056164	0.531714
O130	O	0.664146	0.443836	1.031714
O131	O	0.000760	-0.056167	0.652041
O132	O	0.500760	0.443833	1.152041
Cu133	Cu	0.085590	-0.065568	0.595012
Cu134	Cu	0.585590	0.434432	1.095012
Cu135	Cu	0.044965	0.056206	0.554419
Cu136	Cu	0.544965	0.556206	1.054419
O137	O	0.104397	-0.056151	0.651751
O138	O	0.604397	0.443849	1.151751
N139	N	0.016390	0.141855	0.525867
N140	N	0.516390	0.641855	1.025867
N141	N	0.114410	-0.590756	1.062992
N142	N	0.614410	-0.090756	1.562992
O143	O	0.108565	-0.738494	1.260998
O144	O	0.608565	-0.238494	1.760998
O145	O	-0.011747	-0.575059	1.261012
O146	O	0.488253	-0.075059	1.761012
O147	O	-0.011470	-0.678679	1.260970
O148	O	0.488530	-0.178679	1.760970
O149	O	0.108287	-0.634874	1.261040
O150	O	0.608287	-0.134874	1.761040
O151	O	0.022849	-0.644347	1.158004
O152	O	0.522849	-0.144347	1.658004
O153	O	0.022572	-0.540726	1.158046
O154	O	0.522572	-0.040726	1.658046
O155	O	0.142884	-0.704162	1.158033
O156	O	0.642884	-0.204162	1.658033
Cu157	Cu	0.085861	-0.619309	1.148638
Cu158	Cu	0.585861	-0.119309	1.648638
Cu159	Cu	0.045275	-0.659911	1.270406
Cu160	Cu	0.545275	-0.159911	1.770406
O161	O	0.142606	-0.600541	1.158074
O162	O	0.642606	-0.100541	1.658074
N163	N	0.016726	-0.688471	1.356052
N164	N	0.516726	-0.188471	1.856052
C165	C	0.039385	-0.537207	0.498225
C166	C	0.539385	-0.037207	0.998225
C167	C	0.167616	-0.665350	0.498136
C168	C	0.667616	-0.165350	0.998136
C169	C	0.091204	-0.741950	0.651272
C170	C	0.591204	-0.241950	1.151272
C171	C	-0.037027	-0.613806	0.651361
C172	C	0.462973	-0.113806	1.151361
C173	C	0.700360	-0.716215	0.676756
C174	C	1.200360	-0.216215	1.176756
C175	C	0.700279	-0.715877	0.548436
C176	C	1.200279	-0.215877	1.048436
C177	C	0.700133	-0.562725	0.472214
C178	C	1.200133	-0.062725	0.972214
C179	C	0.700218	-0.563065	0.600533
C180	C	1.200218	-0.063065	1.100533
C181	C	0.167511	-0.004552	0.497940
C182	C	0.667511	0.495448	0.997940
C183	C	0.039211	-0.004699	0.498341
C184	C	0.539211	0.495301	0.998341
C185	C	-0.036999	-0.004682	0.651449
C186	C	0.463001	0.495318	1.151449
C187	C	0.091344	-0.004663	0.651090
C188	C	0.591344	0.495337	1.151090
C189	C	-0.011156	-0.537302	1.209530
C190	C	0.488844	-0.037302	1.709530
C191	C	-0.010806	-0.665617	1.209458
C192	C	0.489194	-0.165617	1.709458
C193	C	0.142293	-0.741918	1.209514
C194	C	0.642293	-0.241918	1.709514
C195	C	0.141950	-0.613596	1.209563
C196	C	0.641950	-0.113596	1.709563
H197	H	0.102355	-0.458618	0.810728
H198	H	0.602355	0.041382	1.310728
H199	H	0.029814	-0.004702	0.460721
H200	H	0.529814	0.495298	0.960721
H201	H	0.700208	-0.525435	0.609919
H202	H	1.200208	-0.025435	1.109919
H203	H	0.214338	-0.004265	0.460069
H204	H	0.714338	0.495735	0.960069
H205	H	0.100526	-0.788925	0.688956
H206	H	0.600526	-0.288925	1.188956
H207	H	-0.048413	-0.674973	1.209396
H208	H	0.451587	-0.174973	1.709396
H209	H	0.100739	-0.004653	0.688708
H210	H	0.600739	0.495347	1.188708
C211	C	0.700428	-0.766125	0.535917
C212	C	1.200428	-0.266125	1.035917
C213	C	0.753443	-0.817913	0.542710
C214	C	1.253443	-0.317913	1.042710
C215	C	0.753604	-0.864210	0.531175
C216	C	1.253604	-0.364210	1.031175
H217	H	0.664589	-0.777502	0.564475
H218	H	1.164589	-0.277502	1.064475
H219	H	0.700425	-0.751026	0.494918
H220	H	1.200425	-0.251026	0.994918
H221	H	0.753440	-0.833011	0.583703
H222	H	1.253440	-0.333011	1.083703
H223	H	0.789290	-0.806557	0.514153
H224	H	1.289290	-0.306557	1.014153
H225	H	0.753602	-0.849111	0.490176
H226	H	1.253602	-0.349111	0.990176
H227	H	0.717763	-0.875581	0.559734
H228	H	1.217763	-0.375581	1.059734
H229	H	0.789577	-0.899351	0.535776
H230	H	1.289577	-0.399351	1.035776
C231	C	-0.099619	-0.004638	0.701729
C232	C	0.400381	0.495362	1.201729
C233	C	-0.137852	-0.004627	0.679545
C234	C	0.362148	0.495373	1.179545
C235	C	-0.195546	-0.004572	0.725841
C236	C	0.304454	0.495428	1.225841
H237	H	-0.094279	-0.040528	0.736945
H238	H	0.405721	0.459472	1.236945
H239	H	-0.118167	0.031293	0.712958
H240	H	0.381833	0.531293	1.212958
H241	H	-0.119308	-0.040554	0.668325
H242	H	0.380692	0.459446	1.168325
H243	H	-0.143210	0.031260	0.644335
H244	H	0.356790	0.531260	1.144335
H245	H	-0.214095	0.031358	0.737069
H246	H	0.285905	0.531358	1.237069
H247	H	-0.190199	-0.040463	0.761054
H248	H	0.309801	0.459537	1.261054
H249	H	-0.221496	-0.004560	0.710794
H250	H	0.278504	0.495440	1.210794
C251	C	-0.061456	-0.474686	1.209565
C252	C	0.438544	0.025314	1.709565
C253	C	-0.039279	-0.436485	1.209605
C254	C	0.460721	0.063515	1.709605
C255	C	-0.085600	-0.378801	1.209646
C256	C	0.414400	0.121199	1.709646
H257	H	-0.072736	-0.456078	1.173662
H258	H	0.427264	0.043922	1.673662
H259	H	-0.096641	-0.480078	1.245479
H260	H	0.403359	0.019922	1.745479
H261	H	-0.004105	-0.431091	1.173695
H262	H	0.495895	0.068909	1.673695
H263	H	-0.028003	-0.455073	1.245506
H264	H	0.471997	0.044927	1.745506
H265	H	-0.120784	-0.384194	1.245560
H266	H	0.379216	0.115806	1.745560
H267	H	-0.096877	-0.360200	1.173742
H268	H	0.403123	0.139800	1.673742
H269	H	-0.070561	-0.352877	1.209679
H270	H	0.429439	0.147123	1.709679
C271	C	0.192573	-0.804554	1.209538
C272	C	0.692573	-0.304554	1.709538
C273	C	0.170386	-0.842765	1.209526
C274	C	0.670386	-0.342765	1.709526
C275	C	0.216684	-0.900471	1.209554
C276	C	0.716684	-0.400471	1.709554
H277	H	0.227780	-0.799221	1.173648
H278	H	0.727780	-0.299221	1.673648
H279	H	0.203815	-0.823120	1.245465
H280	H	0.703815	-0.323120	1.745465
H281	H	0.159153	-0.824204	1.173602
H282	H	0.659153	-0.324204	1.673602
H283	H	0.135185	-0.848116	1.245413
H284	H	0.635185	-0.348116	1.745413
H285	H	0.227926	-0.919036	1.245482
H286	H	0.727926	-0.419036	1.745482
H287	H	0.251889	-0.895131	1.173664
H288	H	0.751889	-0.395131	1.673664
H289	H	0.201635	-0.926406	1.209552
H290	H	0.701635	-0.426406	1.709552
C291	C	0.292533	-0.394358	0.668945
C292	C	0.792533	0.105642	1.168945
C293	C	0.255336	-0.385670	0.726423
C294	C	0.755336	0.114330	1.226423
C295	C	0.222832	-0.322461	0.717376
C296	C	0.722832	0.177539	1.217376
H297	H	0.321039	-0.372595	0.647536
H298	H	0.821039	0.127405	1.147536
H299	H	0.267199	-0.379139	0.645232
H300	H	0.767199	0.120861	1.145232
H301	H	0.280669	-0.400882	0.750126
H302	H	0.780669	0.099118	1.250126
H303	H	0.226819	-0.407419	0.747841
H304	H	0.726819	0.092581	1.247841
H305	H	0.197498	-0.307242	0.693663
H306	H	0.697498	0.192758	1.193663
H307	H	0.251343	-0.300703	0.695966
H308	H	0.751343	0.199297	1.195966
H309	H	0.197587	-0.316559	0.756372
H310	H	0.697587	0.183441	1.256372
H311	H	0.179573	-0.604224	1.209577
H312	H	0.679573	-0.104224	1.709577
H313	H	0.063231	-0.497836	0.928300
H314	H	0.563231	0.002164	1.428300
H315	H	-0.083976	-0.604550	0.689083
H316	H	0.416024	-0.104550	1.189083
H317	H	0.700073	-0.524942	0.425295
H318	H	1.200073	-0.024942	0.925295
H319	H	0.294416	-0.554643	0.810656
H320	H	0.794416	-0.054643	1.310656
C321	C	0.266827	-0.603978	0.936912
C322	C	0.766827	-0.103978	1.436912
C323	C	0.327236	-0.613063	0.894639
C324	C	0.827236	-0.113063	1.394639
C325	C	0.369499	-0.650349	0.926900
C326	C	0.869499	-0.150349	1.426900
H327	H	0.260691	-0.584241	0.962199
H328	H	0.760691	-0.084241	1.462199
H329	H	0.260658	-0.642853	0.962179
H330	H	0.760658	-0.142853	1.462179
H331	H	0.333403	-0.574196	0.869383
H332	H	0.833403	-0.074196	1.369383
H333	H	0.333392	-0.632808	0.869351
H334	H	0.833392	-0.132808	1.369351
H335	H	0.363330	-0.689223	0.952166
H336	H	0.863330	-0.189223	1.452166
H337	H	0.363358	-0.630607	0.952185
H338	H	0.863358	-0.130607	1.452185
H339	H	0.410491	-0.656522	0.898222
H340	H	0.910491	-0.156522	1.398222
C341	C	0.045801	-0.493525	0.720802
C342	C	0.545801	0.006475	1.220802
C343	C	0.013548	-0.456295	0.758088
C344	C	0.513548	0.043705	1.258088
C345	C	-0.050205	-0.440606	0.773876
C346	C	0.449795	0.059394	1.273876
H347	H	0.035063	-0.471497	0.684215
H348	H	0.535063	0.028503	1.184215
H349	H	0.035169	-0.530170	0.742818
H350	H	0.535169	-0.030170	1.242818
H351	H	0.024176	-0.419656	0.736072
H352	H	0.524176	0.080344	1.236072
H353	H	0.024267	-0.478311	0.794683
H354	H	0.524267	0.021689	1.294683
H355	H	-0.060837	-0.477251	0.795892
H356	H	0.439163	0.022749	1.295892
H357	H	-0.060936	-0.418580	0.737286
H358	H	0.439064	0.081420	1.237286
H359	H	-0.072096	-0.415348	0.799181
H360	H	0.427904	0.084652	1.299181
H361	H	0.102328	-0.458621	0.755642
H362	H	0.602328	0.041379	1.255642
H363	H	0.255124	-0.593799	0.620395
H364	H	0.755124	-0.093799	1.120395
H365	H	0.294333	-0.554601	0.659567
H366	H	0.794333	-0.054601	1.159567
H367	H	0.301449	-0.601745	0.743862
H368	H	0.801449	-0.101745	1.243862
C369	C	0.230216	-0.677570	0.447806
C370	C	0.730216	-0.177570	0.947806
C371	C	0.257422	-0.635320	0.431290
C372	C	0.757422	-0.135320	0.931290
C373	C	0.315085	-0.646553	0.384922
C374	C	0.815085	-0.146553	0.884922
H375	H	0.256260	-0.718523	0.462757
H376	H	0.756260	-0.218523	0.962757
H377	H	0.224829	-0.672886	0.412599
H378	H	0.724829	-0.172886	0.912599
H379	H	0.262812	-0.640009	0.466490
H380	H	0.762812	-0.140009	0.966490
H381	H	0.231396	-0.594363	0.416329
H382	H	0.731396	-0.094363	0.916329
H383	H	0.309698	-0.641869	0.349715
H384	H	0.809698	-0.141869	0.849715
H385	H	0.341124	-0.687506	0.399877
H386	H	0.841124	-0.187506	0.899877
H387	H	0.333549	-0.617885	0.373706
H388	H	0.833549	-0.117885	0.873706
C389	C	0.427715	-0.658131	0.707214
C390	C	0.927715	-0.158131	1.207214
C391	C	0.385476	-0.689967	0.738829
C392	C	0.885476	-0.189967	1.238829
C393	C	0.417772	-0.753236	0.748106
C394	C	0.917772	-0.253236	1.248106
H395	H	0.452983	-0.664223	0.668309
H396	H	0.952983	-0.164223	1.168309
H397	H	0.453002	-0.673367	0.730981
H398	H	0.953002	-0.173367	1.230981
H399	H	0.360200	-0.674736	0.715062
H400	H	0.860200	-0.174736	1.215062
H401	H	0.360206	-0.683893	0.777740
H402	H	0.860206	-0.183893	1.277740
H403	H	0.443059	-0.768471	0.771873
H404	H	0.943059	-0.268471	1.271873
H405	H	0.443039	-0.759321	0.709198
H406	H	0.943039	-0.259321	1.209198
H407	H	0.389118	-0.774845	0.769562
H408	H	0.889118	-0.274845	1.269562
H409	H	0.700405	-0.753994	0.723681
H410	H	1.200405	-0.253994	1.223681
C411	C	0.027039	-0.474542	0.447992
C412	C	0.527039	0.025458	0.947992
C413	C	0.069236	-0.447279	0.431488
C414	C	0.569236	0.052721	0.931488
C415	C	0.057877	-0.389550	0.385222
C416	C	0.557877	0.110450	0.885222
H417	H	0.031680	-0.479832	0.412755
H418	H	0.531680	0.020168	0.912755
H419	H	-0.013933	-0.448579	0.463047
H420	H	0.486067	0.051421	0.963047
H421	H	0.110198	-0.473236	0.416432
H422	H	0.610198	0.026764	0.916432
H423	H	0.064603	-0.441974	0.466712
H424	H	0.564603	0.058026	0.966712
H425	H	0.016904	-0.363587	0.400277
H426	H	0.516904	0.136413	0.900277
H427	H	0.062517	-0.394845	0.349988
H428	H	0.562517	0.105155	0.849988
H429	H	0.086501	-0.371042	0.374022
H430	H	0.586501	0.128958	0.874022
H431	H	0.246280	-0.403511	0.611604
H432	H	0.746280	0.096489	1.111604
C433	C	0.427669	-0.439291	0.623718
C434	C	0.927669	0.060709	1.123718
C435	C	0.385411	-0.379287	0.620284
C436	C	0.885411	0.120713	1.120284
C437	C	0.417686	-0.337542	0.589460
C438	C	0.917686	0.162458	1.089460
H439	H	0.452969	-0.450053	0.645754
H440	H	0.952969	0.049947	1.145754
H441	H	0.452923	-0.440909	0.583094
H442	H	0.952923	0.059091	1.083094
H443	H	0.360168	-0.377671	0.660901
H444	H	0.860168	0.122329	1.160901
H445	H	0.360111	-0.368506	0.598244
H446	H	0.860111	0.131494	1.098244
H447	H	0.442940	-0.339160	0.548836
H448	H	0.942940	0.160840	1.048836
H449	H	0.442984	-0.348309	0.611499
H450	H	0.942984	0.151691	1.111499
H451	H	0.389019	-0.296824	0.587121
H452	H	0.889019	0.203176	1.087121
H453	H	0.111138	-0.285961	0.764475
H454	H	0.611138	0.214039	1.264475
C455	C	0.211256	-0.277200	0.555126
C456	C	0.711256	0.222800	1.055126
C457	C	0.189220	-0.292971	0.528455
C458	C	0.689220	0.207029	1.028455
C459	C	0.204811	-0.260638	0.464712
C460	C	0.704811	0.239362	0.964712
H461	H	0.193054	-0.233950	0.548218
H462	H	0.693054	0.266050	1.048218
H463	H	0.254987	-0.287830	0.536883
H464	H	0.754987	0.212170	1.036883
H465	H	0.145498	-0.282337	0.546692
H466	H	0.645498	0.217663	1.046692
H467	H	0.207419	-0.336216	0.535346
H468	H	0.707419	0.163784	1.035346
H469	H	0.248542	-0.271268	0.446470
H470	H	0.748542	0.228732	0.946470
H471	H	0.186608	-0.217389	0.457811
H472	H	0.686608	0.282611	0.957811
H473	H	0.189867	-0.271338	0.446607
H474	H	0.689867	0.228662	0.946607
C475	C	0.146080	-0.412240	0.820960
C476	C	0.646080	0.087760	1.320960
C477	C	0.108843	-0.369996	0.853236
C478	C	0.608843	0.130004	1.353236
C479	C	0.093173	-0.402293	0.916986
C480	C	0.593173	0.097707	1.416986
H481	H	0.124066	-0.437528	0.831671
H482	H	0.624066	0.062472	1.331671
H483	H	0.182729	-0.437510	0.831603
H484	H	0.682729	0.062490	1.331603
H485	H	0.072201	-0.344736	0.842598
H486	H	0.572201	0.155264	1.342598
H487	H	0.130846	-0.344706	0.842544
H488	H	0.630846	0.155294	1.342544
H489	H	0.129822	-0.427563	0.927628
H490	H	0.629822	0.072437	1.427628
H491	H	0.071161	-0.427580	0.927690
H492	H	0.571161	0.072420	1.427690
H493	H	0.067911	-0.373636	0.938893
H494	H	0.567911	0.126364	1.438893
