data_functionalizedCrystal
_audit_creation_method	'MofGen! by Chris Wilmer'
_symmetry_space_group_name_H-M	'P1'
_symmetry_Int_Tables_number	1
_symmetry_cell_setting	triclinic
loop_
_symmetry_equiv_pos_as_xyz
  x,y,z
_cell_length_a	12.759395
_cell_length_b	18.050590
_cell_length_c	12.759387
_cell_angle_alpha	89.964881
_cell_angle_beta	89.980569
_cell_angle_gamma	90.018398
loop_
_atom_site_label
_atom_site_type_symbol
_atom_site_fract_x
_atom_site_fract_y
_atom_site_fract_z
Zn1	Zn	1.606241	-0.295623	-0.593943
Zn2	Zn	1.606119	-0.419832	-0.418251
Zn3	Zn	1.430539	-0.295660	-0.418283
Zn4	Zn	1.430519	-0.419776	-0.593893
O5	O	1.518354	-0.357723	-0.506093
O6	O	1.753246	-0.312108	-0.570645
O7	O	1.582786	-0.403400	-0.271234
O8	O	1.453905	-0.191731	-0.441620
O9	O	1.753156	-0.403364	-0.441564
O10	O	1.582992	-0.191704	-0.570677
O11	O	1.453787	-0.312171	-0.271258
O12	O	1.283515	-0.312116	-0.441571
O13	O	1.453872	-0.403268	-0.740921
O14	O	1.283501	-0.403303	-0.570591
O15	O	1.582973	-0.312053	-0.740958
O16	O	1.582767	-0.523749	-0.441515
O17	O	1.453754	-0.523708	-0.570559
C18	C	1.245387	-0.357708	-0.506080
C19	C	1.128610	-0.357720	-0.506099
C20	C	1.128684	-0.262849	-0.640728
C21	C	1.073860	-0.215422	-0.708051
C22	C	0.964138	-0.215435	-0.708064
C23	C	0.909238	-0.262879	-0.640745
C24	C	0.964062	-0.310305	-0.573422
C25	C	1.073786	-0.310288	-0.573418
C26	C	0.963989	-0.405171	-0.438789
C27	C	1.073710	-0.405163	-0.438780
C28	C	0.909089	-0.452614	-0.371470
C29	C	0.963913	-0.500046	-0.304151
C30	C	1.073641	-0.500031	-0.304141
C31	C	1.128534	-0.452589	-0.371457
C32	C	1.518274	-0.550675	-0.506051
C33	C	1.518335	-0.633221	-0.506068
C34	C	1.588638	-0.832667	-0.435992
C35	C	1.614308	-0.881992	-0.531878
C36	C	1.518395	-0.784351	-0.506110
C37	C	1.492832	-0.882108	-0.410267
C38	C	1.518454	-0.930336	-0.506142
C39	C	1.544114	-0.832589	-0.602047
C40	C	1.422594	-0.832701	-0.480370
C41	C	1.448227	-0.882003	-0.576323
C42	C	1.518363	-0.700253	-0.506090
C43	C	1.518486	-1.014433	-0.506173
C44	C	1.792388	-0.357738	-0.506106
C45	C	1.909165	-0.357745	-0.506112
C46	C	1.518434	-0.357650	-0.780126
C47	C	1.518468	-0.357619	-0.896903
C48	C	1.518464	-0.164017	-0.506158
C49	C	1.518511	-0.081471	-0.506185
C50	C	1.652910	-0.262644	-0.896961
C51	C	1.720146	-0.215145	-0.951851
C52	C	1.720172	-0.215118	-1.061573
C53	C	1.652952	-0.262593	-1.116407
C54	C	1.585716	-0.310092	-1.061517
C55	C	1.585700	-0.310116	-0.951793
C56	C	1.451270	-0.405062	-1.061459
C57	C	1.451248	-0.405094	-0.951737
C58	C	1.384050	-0.452537	-1.116293
C59	C	1.316817	-0.500041	-1.061403
C60	C	1.316795	-0.500067	-0.951675
C61	C	1.384012	-0.452593	-0.896847
C62	C	1.518336	-0.357742	-0.233125
C63	C	1.518506	-0.357564	-0.116349
H64	H	1.118571	-0.176794	-0.762859
C65	C	0.752029	-0.243874	-0.540859
C66	C	0.788630	-0.262889	-0.640751
H67	H	0.677570	-0.243877	-0.540866
H68	H	0.776819	-0.278911	-0.491146
H69	H	0.776862	-0.195930	-0.522827
H70	H	0.763803	-0.310835	-0.658779
H71	H	0.763829	-0.227849	-0.690479
C72	C	1.664347	-0.760146	-0.704420
C73	C	1.573473	-0.803359	-0.711516
H74	H	1.682476	-0.742105	-0.772002
H75	H	1.652086	-0.719558	-0.658693
H76	H	1.720115	-0.789474	-0.677767
H77	H	1.517703	-0.774030	-0.738162
H78	H	1.585728	-0.843952	-0.757259
H79	H	1.384005	-0.452612	-0.807506
C80	C	1.395121	-0.885935	-0.756744
C81	C	1.368071	-0.911072	-0.656475
H82	H	1.345642	-0.903886	-0.806227
H83	H	1.395069	-0.833318	-0.757562
H84	H	1.462993	-0.903565	-0.774450
H85	H	1.300202	-0.893437	-0.638766
H86	H	1.368112	-0.963700	-0.655655
H87	H	1.695350	-0.903645	-0.553670
H88	H	1.648061	-0.811003	-0.376757
C89	C	1.286576	-0.828392	-0.350448
C90	C	1.313224	-0.803438	-0.450915
H91	H	1.219058	-0.810321	-0.332255
H92	H	1.285956	-0.881008	-0.349619
H93	H	1.336636	-0.810761	-0.301333
H94	H	1.263168	-0.821074	-0.500032
H95	H	1.313836	-0.750811	-0.451753
H96	H	1.471187	-0.903859	-0.329200
H97	H	0.919500	-0.176812	-0.762878
C98	C	0.751875	-0.504287	-0.298178
C99	C	0.788481	-0.452632	-0.371481
H100	H	0.677416	-0.504296	-0.298183
H101	H	0.776697	-0.552217	-0.316218
H102	H	0.776674	-0.491371	-0.230416
H103	H	0.763688	-0.465551	-0.439245
H104	H	0.763648	-0.404692	-0.353448
C105	C	1.679603	-0.333337	-0.739762
C106	C	1.652884	-0.262676	-0.776353
H107	H	1.679592	-0.333353	-0.665304
H108	H	1.629950	-0.368397	-0.764563
H109	H	1.747399	-0.346175	-0.764593
H110	H	1.585085	-0.249840	-0.751529
H111	H	1.702540	-0.227605	-0.751542
C112	C	1.779833	-0.173024	-0.783678
C113	C	1.794042	-0.162969	-0.891576
H114	H	1.825458	-0.140815	-0.746471
H115	H	1.709258	-0.162143	-0.765692
H116	H	1.795164	-0.222933	-0.765693
H117	H	1.778703	-0.113061	-0.909562
H118	H	1.864633	-0.173844	-0.909569
H119	H	1.218025	-0.262830	-0.640719
H120	H	0.919204	-0.538667	-0.249340
C121	C	1.285713	-0.523238	-0.398040
C122	C	1.249142	-0.452573	-0.371451
H123	H	1.360172	-0.523222	-0.398043
H124	H	1.260873	-0.558271	-0.348313
H125	H	1.260910	-0.536139	-0.465806
H126	H	1.273939	-0.439674	-0.303681
H127	H	1.273993	-0.417528	-0.421180
C128	C	1.257154	-0.542164	-1.229574
C129	C	1.242938	-0.552222	-1.121677
H130	H	1.211548	-0.574383	-1.266785
H131	H	1.241811	-0.492265	-1.247560
H132	H	1.327745	-0.553035	-1.247552
H133	H	1.172349	-0.541346	-1.103697
H134	H	1.258274	-0.602133	-1.103684
H135	H	1.774915	-0.176436	-1.106264
C136	C	1.726179	-0.210841	-1.273614
C137	C	1.652974	-0.262560	-1.237015
H138	H	1.726193	-0.210825	-1.348072
H139	H	1.708033	-0.162928	-1.248808
H140	H	1.793961	-0.223703	-1.248794
H141	H	1.585190	-0.249695	-1.261828
H142	H	1.671113	-0.310483	-1.261832
C143	C	1.183915	-0.593952	-0.962649
C144	C	1.242898	-0.552289	-0.891344
H145	H	1.138302	-0.626197	-0.925403
H146	H	1.143752	-0.561580	-1.005440
H147	H	1.229693	-0.622345	-1.005450
H148	H	1.197120	-0.523892	-0.848547
H149	H	1.283064	-0.584665	-0.848534
H150	H	1.118272	-0.538649	-0.249315
H151	H	1.384071	-0.452509	-1.205634
