data_functionalizedCrystal
_audit_creation_method	'MofGen! by Chris Wilmer'
_symmetry_space_group_name_H-M	'P1'
_symmetry_Int_Tables_number	1
_symmetry_cell_setting	triclinic
loop_
_symmetry_equiv_pos_as_xyz
  x,y,z
_cell_length_a	10.489741
_cell_length_b	15.538191
_cell_length_c	14.750779
_cell_angle_alpha	82.427828
_cell_angle_beta	77.226586
_cell_angle_gamma	114.094366
loop_
_atom_site_label
_atom_site_type_symbol
_atom_site_fract_x
_atom_site_fract_y
_atom_site_fract_z
O1	O	-0.375937	-1.226910	-0.079837
O2	O	-0.229122	-0.953648	-0.079837
O3	O	-0.491086	-1.096498	-0.079831
O4	O	-0.113973	-1.084059	-0.079843
O5	O	-0.565134	-1.136881	0.079820
O6	O	-0.303170	-0.994030	0.079815
O7	O	-0.449985	-1.267292	0.079814
Zn8	Zn	-0.388334	-1.137073	0.105163
Zn9	Zn	-0.290773	-1.083867	-0.105185
O10	O	-0.188021	-1.124442	0.079809
C11	C	-0.250786	-0.938847	-0.000011
C12	C	-0.205032	-0.834584	-0.000010
C13	C	-0.575195	-1.115750	-0.000006
C14	C	-0.715488	-1.112940	-0.000008
C15	C	-0.428320	-1.282092	-0.000014
C16	C	-0.474071	-1.386354	-0.000020
C17	C	-0.740411	-1.022047	-0.000014
C18	C	-0.889457	-1.084893	0.078702
C19	C	-0.816436	-1.045101	-0.078702
C20	C	-0.862716	-1.175840	0.078774
C21	C	-0.789647	-1.136017	-0.078701
C22	C	-0.938706	-1.198935	0.000035
C23	C	-0.103911	-1.105189	-0.000018
C24	C	0.036385	-1.107998	-0.000023
N25	N	-0.454921	-1.173391	0.248720
C26	C	-0.659589	-0.543710	-0.000011
C27	C	-0.616562	-0.445735	-0.000013
C28	C	-0.374552	-0.424932	-0.000021
C29	C	-0.417560	-0.522908	-0.000014
C30	C	-0.560080	-0.582289	-0.000010
C31	C	-0.318051	-0.561488	-0.000013
C32	C	-0.361054	-0.659454	-0.000011
C33	C	-0.503566	-0.718840	-0.000011
C34	C	-0.603083	-0.680255	-0.000009
C35	C	-0.175529	-0.502103	-0.000023
C36	C	-0.076020	-0.540683	-0.000022
C37	C	-0.119026	-0.638652	-0.000013
C38	C	-0.261538	-0.698039	-0.000013
C39	C	-0.019509	-0.677237	-0.000015
C40	C	-0.062512	-0.775203	-0.000014
C41	C	-0.304540	-0.796005	-0.000011
N42	N	-0.224199	-1.047557	-0.248742
C43	C	-0.038287	-0.946125	0.600530
C44	C	-0.084942	-0.971581	0.701030
C45	C	-0.316860	-1.098102	0.700997
C46	C	-0.270227	-1.072654	0.600495
C47	C	-0.130939	-0.996665	0.550269
C48	C	-0.362879	-1.123193	0.550235
C49	C	-0.316246	-1.097750	0.449741
C50	C	-0.176962	-1.021766	0.399508
C51	C	-0.084307	-0.971221	0.449776
C52	C	-0.502162	-1.199186	0.600462
C53	C	-0.594814	-1.249726	0.550202
C54	C	-0.548186	-1.224278	0.449707
C55	C	-0.408902	-1.148295	0.399474
C56	C	-0.640842	-1.274823	0.399439
C57	C	-0.594209	-1.249379	0.298946
C58	C	-0.362270	-1.122851	0.298980
H59	H	-0.655267	-0.947337	0.000065
Cl60	Cl	-0.722259	-1.169354	-0.181454
Cl61	Cl	0.090795	-0.875680	0.386631
H62	H	-0.933050	-1.063268	0.145251
H63	H	-0.881053	-1.231116	0.145397
H64	H	-0.775645	-0.592063	-0.000003
H65	H	-0.248853	-1.060966	0.258085
Cl66	Cl	-1.069952	-1.314429	0.000098
Cl67	Cl	0.062587	-0.823707	-0.000014
Cl68	Cl	-0.788381	-0.959714	-0.181443
H69	H	-0.540122	-1.219903	0.682290
Cl70	Cl	-0.769912	-1.345254	0.613349
H71	H	-0.697605	-0.414329	-0.000016
H72	H	0.075129	-0.884241	0.559634
Cl73	Cl	-0.782259	-0.754917	0.000008
H74	H	-0.430268	-1.159976	0.741903
H75	H	-0.420597	-0.844358	-0.000003
Cl76	Cl	-0.118334	-0.989783	0.273172
Cl77	Cl	-0.815932	-1.370358	0.462590
H78	H	-0.009480	-0.930420	0.741947
H79	H	-0.538570	-0.798607	-0.000022
H80	H	-0.258511	-0.376570	-0.000027
H81	H	-0.140520	-0.422333	-0.000027
Cl82	Cl	0.103143	-0.466023	-0.000032
H83	H	0.096534	-0.628872	-0.000028
Cl84	Cl	-0.710688	-1.312920	0.235760
