data_functionalizedCrystal
_audit_creation_method	'MofGen! by Chris Wilmer'
_symmetry_space_group_name_H-M	'P1'
_symmetry_Int_Tables_number	1
_symmetry_cell_setting	triclinic
loop_
_symmetry_equiv_pos_as_xyz
  x,y,z
_cell_length_a	29.839134
_cell_length_b	29.839131
_cell_length_c	29.839125
_cell_angle_alpha	90.017709
_cell_angle_beta	90.021980
_cell_angle_gamma	90.036281
loop_
_atom_site_label
_atom_site_type_symbol
_atom_site_fract_x
_atom_site_fract_y
_atom_site_fract_z
Zn1	Zn	0.686720	-0.178978	0.254125
Zn2	Zn	1.020053	0.154355	0.587458
Zn3	Zn	1.353386	0.487689	0.920792
Zn4	Zn	0.686652	-0.254090	0.178995
Zn5	Zn	1.019985	0.079243	0.512328
Zn6	Zn	1.353318	0.412577	0.845662
Zn7	Zn	0.611602	-0.178968	0.178995
Zn8	Zn	0.944936	0.154365	0.512328
Zn9	Zn	1.278269	0.487699	0.845661
Zn10	Zn	0.611550	-0.254075	0.254083
Zn11	Zn	0.944883	0.079258	0.587417
Zn12	Zn	1.278217	0.412592	0.920750
O13	O	0.649131	-0.216528	0.216549
O14	O	0.982464	0.116806	0.549883
O15	O	1.315798	0.450139	0.883216
O16	O	0.749578	-0.188952	0.244176
O17	O	1.082911	0.144381	0.577510
O18	O	1.416244	0.477715	0.910843
O19	O	0.676690	-0.244127	0.116128
O20	O	1.010023	0.089206	0.449461
O21	O	1.343356	0.422540	0.782794
O22	O	0.621617	-0.116102	0.188978
O23	O	0.954950	0.217231	0.522311
O24	O	1.288284	0.550564	0.855645
O25	O	0.749528	-0.244137	0.188979
O26	O	1.082861	0.089197	0.522312
O27	O	1.416195	0.422530	0.855645
O28	O	0.676805	-0.116109	0.244176
O29	O	1.010139	0.217224	0.577509
O30	O	1.343472	0.550557	0.910843
O31	O	0.621551	-0.188935	0.116127
O32	O	0.954885	0.144398	0.449461
O33	O	1.288218	0.477731	0.782794
O34	O	0.548728	-0.188921	0.188938
O35	O	0.882062	0.144413	0.522271
O36	O	1.215395	0.477746	0.855604
O37	O	0.621528	-0.244111	0.316956
O38	O	0.954861	0.089222	0.650289
O39	O	1.288195	0.422556	0.983623
O40	O	0.548690	-0.244101	0.244105
O41	O	0.882023	0.089232	0.577438
O42	O	1.215357	0.422565	0.910772
O43	O	0.676755	-0.188937	0.316987
O44	O	1.010088	0.144396	0.650320
O45	O	1.343421	0.477729	0.983653
O46	O	0.676639	-0.316955	0.188938
O47	O	1.009972	0.016378	0.522272
O48	O	1.343306	0.349712	0.855605
O49	O	0.621462	-0.316944	0.244105
O50	O	0.954796	0.016389	0.577439
O51	O	1.288129	0.349723	0.910772
C52	C	0.532408	-0.216509	0.216517
C53	C	0.865742	0.116825	0.549850
C54	C	1.199075	0.450158	0.883184
C55	C	0.482474	-0.216511	0.216514
C56	C	0.815807	0.116822	0.549847
C57	C	1.149141	0.450155	0.883181
C58	C	0.172820	-0.245303	0.245240
C59	C	0.506153	0.088031	0.578573
C60	C	0.839487	0.421364	0.911907
C61	C	-0.014853	-0.245315	0.245260
C62	C	0.318480	0.088018	0.578593
C63	C	0.651814	0.421351	0.911927
O64	O	-0.039127	-0.269774	0.269665
O65	O	0.294207	0.063560	0.602998
O66	O	0.627540	0.396893	0.936331
N67	N	-0.038311	-0.216544	0.216583
N68	N	0.295022	0.116789	0.549917
N69	N	0.628356	0.450123	0.883250
C70	C	-0.014848	-0.187766	0.187902
C71	C	0.318485	0.145568	0.521235
C72	C	0.651819	0.478901	0.854568
O73	O	-0.039107	-0.163291	0.163514
O74	O	0.294226	0.170042	0.496848
O75	O	0.627560	0.503376	0.830181
C76	C	0.172824	-0.187751	0.187884
C77	C	0.506157	0.145582	0.521218
C78	C	0.839491	0.478916	0.854551
C79	C	0.196280	-0.216527	0.216560
C80	C	0.529613	0.116806	0.549893
C81	C	0.862946	0.450139	0.883226
C82	C	0.196276	-0.274076	0.273913
C83	C	0.529609	0.059257	0.607247
C84	C	0.862942	0.392590	0.940580
C85	C	0.243191	-0.274075	0.273906
C86	C	0.576525	0.059259	0.607240
C87	C	0.909858	0.392592	0.940573
C88	C	0.266651	-0.245299	0.245226
C89	C	0.599984	0.088034	0.578559
C90	C	0.933318	0.421367	0.911893
C91	C	0.243195	-0.216526	0.216553
C92	C	0.576529	0.116808	0.549886
C93	C	0.909862	0.450141	0.883219
C94	C	0.196286	-0.158971	0.159205
C95	C	0.529620	0.174363	0.492539
C96	C	0.862953	0.507696	0.825872
C97	C	0.243207	-0.158969	0.159204
C98	C	0.576541	0.174365	0.492538
C99	C	0.909874	0.507698	0.825871
C100	C	0.266663	-0.187745	0.187880
C101	C	0.599996	0.145588	0.521213
C102	C	0.933330	0.478922	0.854546
C103	C	0.313570	-0.187749	0.187865
C104	C	0.646904	0.145585	0.521199
C105	C	0.980237	0.478918	0.854532
N106	N	0.337029	-0.216520	0.216542
N107	N	0.670362	0.116814	0.549875
N108	N	1.003695	0.450147	0.883209
C109	C	0.313569	-0.245295	0.245222
C110	C	0.646902	0.088038	0.578556
C111	C	0.980235	0.421372	0.911889
C112	C	-0.113379	-0.187776	0.187912
C113	C	0.219955	0.145557	0.521246
C114	C	0.553288	0.478891	0.854579
C115	C	-0.160297	-0.187780	0.187916
C116	C	0.173037	0.145553	0.521249
C117	C	0.506370	0.478887	0.854583
C118	C	-0.160298	-0.245329	0.245275
C119	C	0.173035	0.088004	0.578608
C120	C	0.506368	0.421337	0.911942
C121	C	-0.113380	-0.245327	0.245269
C122	C	0.219954	0.088006	0.578602
C123	C	0.553287	0.421339	0.911935
C124	C	-0.089921	-0.216547	0.216589
C125	C	0.243413	0.116786	0.549922
C126	C	0.576746	0.450119	0.883256
C127	C	0.412095	-0.245290	0.245205
C128	C	0.745428	0.088044	0.578538
C129	C	1.078761	0.421377	0.911872
C130	C	0.459014	-0.245287	0.245194
C131	C	0.792348	0.088047	0.578528
C132	C	1.125681	0.421380	0.911861
C133	C	0.459012	-0.187736	0.187837
C134	C	0.792345	0.145597	0.521170
C135	C	1.125678	0.478931	0.854504
C136	C	0.412096	-0.187740	0.187846
C137	C	0.745430	0.145593	0.521179
C138	C	1.078763	0.478926	0.854513
C139	C	0.388639	-0.216519	0.216534
C140	C	0.721972	0.116815	0.549867
C141	C	1.055306	0.450148	0.883200
O142	O	0.337873	-0.163299	0.163477
O143	O	0.671206	0.170034	0.496810
O144	O	1.004540	0.503367	0.830144
O145	O	0.337836	-0.269759	0.269613
O146	O	0.671169	0.063574	0.602946
O147	O	1.004502	0.396908	0.936280
C148	C	0.125905	-0.245304	0.245247
C149	C	0.459238	0.088029	0.578580
C150	C	0.792571	0.421362	0.911914
C151	C	0.102449	-0.216531	0.216574
C152	C	0.435782	0.116803	0.549907
C153	C	0.769116	0.450136	0.883240
C154	C	0.125909	-0.187755	0.187893
C155	C	0.459242	0.145578	0.521227
C156	C	0.792575	0.478911	0.854560
C157	C	0.055531	-0.216535	0.216577
C158	C	0.388864	0.116798	0.549911
C159	C	0.722198	0.450132	0.883244
C160	C	0.032071	-0.245310	0.245258
C161	C	0.365405	0.088023	0.578591
C162	C	0.698738	0.421356	0.911924
C163	C	0.055529	-0.274082	0.273934
C164	C	0.388863	0.059252	0.607268
C165	C	0.722196	0.392585	0.940601
C166	C	0.102445	-0.274080	0.273927
C167	C	0.435778	0.059253	0.607261
C168	C	0.769112	0.392587	0.940594
C169	C	0.102451	-0.158984	0.159217
C170	C	0.435784	0.174349	0.492550
C171	C	0.769117	0.507682	0.825883
C172	C	0.055535	-0.158989	0.159226
C173	C	0.388868	0.174345	0.492559
C174	C	0.722202	0.507678	0.825892
C175	C	0.032075	-0.187764	0.187906
C176	C	0.365409	0.145569	0.521239
C177	C	0.698742	0.478903	0.854573
C178	C	0.649050	-0.333250	0.216527
C179	C	0.982383	0.000083	0.549861
C180	C	1.315717	0.333416	0.883194
C181	C	0.649056	-0.383185	0.216533
C182	C	0.982390	-0.049851	0.549866
C183	C	1.315723	0.283482	0.883199
C184	C	0.677914	-0.692821	0.187866
C185	C	1.011247	-0.359488	0.521199
C186	C	1.344580	-0.026155	0.854533
C187	C	0.677969	-0.880494	0.187883
C188	C	1.011303	-0.547161	0.521217
C189	C	1.344636	-0.213828	0.854550
O190	O	0.702441	-0.904753	0.163493
O191	O	1.035774	-0.571420	0.496826
O192	O	1.369107	-0.238087	0.830159
N193	N	0.649224	-0.903970	0.216583
N194	N	0.982557	-0.570636	0.549917
N195	N	1.315891	-0.237303	0.883250
C196	C	0.620465	-0.880524	0.245283
C197	C	0.953799	-0.547191	0.578616
C198	C	1.287132	-0.213857	0.911950
O199	O	0.596020	-0.904798	0.269698
O200	O	0.929354	-0.571464	0.603031
O201	O	1.262687	-0.238131	0.936365
C202	C	0.620412	-0.692852	0.245268
C203	C	0.953746	-0.359519	0.578601
C204	C	1.287079	-0.026185	0.911934
C205	C	0.649156	-0.669379	0.216563
C206	C	0.982489	-0.336045	0.549896
C207	C	1.315823	-0.002712	0.883229
C208	C	0.706656	-0.669348	0.159164
C209	C	1.039989	-0.336015	0.492497
C210	C	1.373322	-0.002681	0.825830
C211	C	0.706640	-0.622433	0.159158
C212	C	1.039973	-0.289099	0.492491
C213	C	1.373306	0.044234	0.825824
C214	C	0.677882	-0.598990	0.187854
C215	C	1.011215	-0.265657	0.521188
C216	C	1.344549	0.067676	0.854521
C217	C	0.649140	-0.622463	0.216557
C218	C	0.982474	-0.289130	0.549890
C219	C	1.315807	0.044203	0.883223
C220	C	0.591656	-0.669407	0.273969
C221	C	0.924989	-0.336074	0.607303
C222	C	1.258323	-0.002740	0.940636
C223	C	0.591646	-0.622486	0.273964
C224	C	0.924979	-0.289153	0.607297
C225	C	1.258313	0.044181	0.940630
C226	C	0.620390	-0.599013	0.245259
C227	C	0.953723	-0.265680	0.578592
C228	C	1.287057	0.067654	0.911925
C229	C	0.620367	-0.552106	0.245248
C230	C	0.953700	-0.218772	0.578581
C231	C	1.287033	0.114561	0.911914
N232	N	0.649112	-0.528630	0.216548
N233	N	0.982445	-0.195297	0.549881
N234	N	1.315778	0.138037	0.883214
C235	C	0.677869	-0.552072	0.187851
C236	C	1.011203	-0.218739	0.521184
C237	C	1.344536	0.114594	0.854518
C238	C	0.620494	-0.979055	0.245289
C239	C	0.953828	-0.645721	0.578622
C240	C	1.287161	-0.312388	0.911955
C241	C	0.620507	-1.025973	0.245292
C242	C	0.953840	-0.692639	0.578625
C243	C	1.287174	-0.359306	0.911959
C244	C	0.678012	-1.025939	0.187893
C245	C	1.011345	-0.692606	0.521226
C246	C	1.344678	-0.359273	0.854559
C247	C	0.677996	-0.979021	0.187887
C248	C	1.011330	-0.645687	0.521221
C249	C	1.344663	-0.312354	0.854554
C250	C	0.649239	-0.955579	0.216589
C251	C	0.982573	-0.622246	0.549922
C252	C	1.315906	-0.288913	0.883255
C253	C	0.677834	-0.453547	0.187841
C254	C	1.011167	-0.120213	0.521174
C255	C	1.344500	0.213120	0.854507
C256	C	0.677814	-0.406627	0.187836
C257	C	1.011147	-0.073294	0.521169
C258	C	1.344481	0.260040	0.854503
C259	C	0.620311	-0.406664	0.245237
C260	C	0.953644	-0.073331	0.578570
C261	C	1.286978	0.260002	0.911903
C262	C	0.620329	-0.453580	0.245240
C263	C	0.953662	-0.120246	0.578573
C264	C	1.286996	0.213087	0.911907
C265	C	0.649094	-0.477020	0.216540
C266	C	0.982427	-0.143686	0.549874
C267	C	1.315761	0.189647	0.883207
O268	O	0.595912	-0.527818	0.269629
O269	O	0.929245	-0.194484	0.602962
O270	O	1.262578	0.138849	0.936296
O271	O	0.702318	-0.527791	0.163447
O272	O	1.035651	-0.194457	0.496780
O273	O	1.368984	0.138876	0.830114
C274	C	0.677930	-0.739737	0.187872
C275	C	1.011263	-0.406403	0.521205
C276	C	1.344596	-0.073070	0.854538
C277	C	0.649188	-0.763210	0.216574
C278	C	0.982521	-0.429876	0.549907
C279	C	1.315855	-0.096543	0.883241
C280	C	0.620430	-0.739767	0.245271
C281	C	0.953764	-0.406434	0.578604
C282	C	1.287097	-0.073101	0.911937
C283	C	0.649200	-0.810128	0.216578
C284	C	0.982534	-0.476794	0.549911
C285	C	1.315867	-0.143461	0.883244
C286	C	0.677958	-0.833570	0.187881
C287	C	1.011291	-0.500237	0.521214
C288	C	1.344625	-0.166903	0.854548
C289	C	0.706703	-0.810094	0.159181
C290	C	1.040037	-0.476761	0.492514
C291	C	1.373370	-0.143428	0.825848
C292	C	0.706687	-0.763179	0.159175
C293	C	1.040021	-0.429846	0.492508
C294	C	1.373354	-0.096512	0.825842
C295	C	0.591685	-0.763243	0.273971
C296	C	0.925018	-0.429910	0.607304
C297	C	1.258352	-0.096576	0.940637
C298	C	0.591703	-0.810158	0.273974
C299	C	0.925036	-0.476825	0.607307
C300	C	1.258370	-0.143492	0.940640
C301	C	0.620461	-0.833601	0.245277
C302	C	0.953794	-0.500267	0.578611
C303	C	1.287127	-0.166934	0.911944
C304	C	0.766309	-0.216547	0.216582
C305	C	1.099643	0.116786	0.549916
C306	C	1.432976	0.450120	0.883249
C307	C	0.816244	-0.216555	0.216596
C308	C	1.149577	0.116778	0.549930
C309	C	1.482910	0.450111	0.883263
C310	C	0.649143	-0.216524	0.333728
C311	C	0.982476	0.116810	0.667061
C312	C	1.315810	0.450143	1.000395
C313	C	0.649148	-0.216522	0.383662
C314	C	0.982482	0.116811	0.716996
C315	C	1.315815	0.450145	1.050329
C316	C	0.649225	-0.099349	0.216582
C317	C	0.982558	0.233984	0.549915
C318	C	1.315891	0.567317	0.883248
C319	C	0.649265	-0.049415	0.216595
C320	C	0.982598	0.283918	0.549929
C321	C	1.315931	0.617252	0.883262
C322	C	0.649145	-0.216499	0.099827
C323	C	0.982478	0.116834	0.433160
C324	C	1.315811	0.450167	0.766494
C325	C	0.649227	-0.216374	0.049893
C326	C	0.982560	0.116959	0.383226
C327	C	1.315893	0.450292	0.716560
C328	C	0.677935	-0.187718	0.693325
C329	C	1.011268	0.145615	1.026658
C330	C	1.344602	0.478949	1.359991
C331	C	0.677957	-0.187680	0.880998
C332	C	1.011291	0.145654	1.214331
C333	C	1.344624	0.478987	1.547665
O334	O	0.702399	-0.163232	0.905279
O335	O	1.035733	0.170101	1.238612
O336	O	1.369066	0.503435	1.571946
N337	N	0.649208	-0.216402	0.904448
N338	N	0.982541	0.116932	1.237781
N339	N	1.315875	0.450265	1.571114
C340	C	0.620449	-0.245133	0.880976
C341	C	0.953782	0.088200	1.214310
C342	C	1.287115	0.421533	1.547643
O343	O	0.595993	-0.269559	0.905228
O344	O	0.929326	0.063774	1.238561
O345	O	1.262659	0.397108	1.571895
C346	C	0.620424	-0.245169	0.693304
C347	C	0.953758	0.088164	1.026637
C348	C	1.287091	0.421498	1.359971
C349	C	0.649179	-0.216448	0.669857
C350	C	0.982512	0.116885	1.003190
C351	C	1.315846	0.450218	1.336523
C352	C	0.706687	-0.158999	0.669877
C353	C	1.040020	0.174334	1.003211
C354	C	1.373354	0.507667	1.336544
C355	C	0.706683	-0.159011	0.622962
C356	C	1.040016	0.174323	0.956295
C357	C	1.373349	0.507656	1.289629
C358	C	0.677927	-0.187741	0.599494
C359	C	1.011260	0.145592	0.932827
C360	C	1.344593	0.478926	1.266160
C361	C	0.649175	-0.216460	0.622941
C362	C	0.982508	0.116874	0.956274
C363	C	1.315842	0.450207	1.289608
C364	C	0.591663	-0.273898	0.669833
C365	C	0.924997	0.059435	1.003167
C366	C	1.258330	0.392769	1.336500
C367	C	0.591659	-0.273903	0.622912
C368	C	0.924992	0.059430	0.956246
C369	C	1.258326	0.392763	1.289579
C370	C	0.620414	-0.245183	0.599465
C371	C	0.953747	0.088151	0.932798
C372	C	1.287080	0.421484	1.266132
C373	C	0.620415	-0.245202	0.552558
C374	C	0.953748	0.088132	0.885891
C375	C	1.287081	0.421465	1.219224
N376	N	0.649164	-0.216480	0.529108
N377	N	0.982498	0.116854	0.862441
N378	N	1.315831	0.450187	1.195774
C379	C	0.677920	-0.187749	0.552576
C380	C	1.011254	0.145584	0.885909
C381	C	1.344587	0.478917	1.219243
C382	C	0.620464	-0.245113	0.979507
C383	C	0.953797	0.088220	1.312840
C384	C	1.287131	0.421554	1.646173
C385	C	0.620471	-0.245105	1.026425
C386	C	0.953804	0.088229	1.359758
C387	C	1.287137	0.421562	1.693091
C388	C	0.677979	-0.187650	1.026443
C389	C	1.011312	0.145683	1.359777
C390	C	1.344645	0.479016	1.693110
C391	C	0.677974	-0.187661	0.979524
C392	C	1.011308	0.145672	1.312858
C393	C	1.344641	0.479005	1.646191
C394	C	0.649214	-0.216391	0.956057
C395	C	0.982547	0.116942	1.289390
C396	C	1.315880	0.450276	1.622724
C397	C	0.677910	-0.187776	0.454050
C398	C	1.011243	0.145557	0.787383
C399	C	1.344576	0.478891	1.120717
C400	C	0.677904	-0.187792	0.407130
C401	C	1.011238	0.145542	0.740464
C402	C	1.344571	0.478875	1.073797
C403	C	0.620395	-0.245244	0.407116
C404	C	0.953728	0.088089	0.740449
C405	C	1.287061	0.421423	1.073783
C406	C	0.620401	-0.245230	0.454032
C407	C	0.953735	0.088103	0.787365
C408	C	1.287068	0.421436	1.120698
C409	C	0.649161	-0.216493	0.477497
C410	C	0.982494	0.116840	0.810831
C411	C	1.315827	0.450174	1.144164
O412	O	0.595982	-0.269633	0.528248
O413	O	0.929315	0.063700	0.861581
O414	O	1.262649	0.397034	1.194914
O415	O	0.702366	-0.163320	0.528316
O416	O	1.035699	0.170013	0.861650
O417	O	1.369032	0.503346	1.194983
C418	C	0.677939	-0.187706	0.740240
C419	C	1.011273	0.145627	1.073574
C420	C	1.344606	0.478960	1.406907
C421	C	0.649187	-0.216425	0.763688
C422	C	0.982521	0.116908	1.097021
C423	C	1.315854	0.450242	1.430354
C424	C	0.620431	-0.245155	0.740219
C425	C	0.953765	0.088178	1.073553
C426	C	1.287098	0.421511	1.406886
C427	C	0.649194	-0.216417	0.810605
C428	C	0.982527	0.116917	1.143939
C429	C	1.315861	0.450250	1.477272
C430	C	0.677950	-0.187686	0.834074
C431	C	1.011283	0.145647	1.167407
C432	C	1.344617	0.478980	1.500740
C433	C	0.706699	-0.158964	0.810624
C434	C	1.040033	0.174369	1.143957
C435	C	1.373366	0.507702	1.477291
C436	C	0.706695	-0.158976	0.763708
C437	C	1.040029	0.174357	1.097042
C438	C	1.373362	0.507691	1.430375
C439	C	0.591682	-0.273877	0.763669
C440	C	0.925015	0.059456	1.097002
C441	C	1.258349	0.392789	1.430336
C442	C	0.591689	-0.273864	0.810585
C443	C	0.925022	0.059470	1.143918
C444	C	1.258355	0.392803	1.477251
C445	C	0.620445	-0.245133	0.834053
C446	C	0.953778	0.088200	1.167386
C447	C	1.287111	0.421533	1.500719
H448	H	0.393001	-0.268723	0.268566
H449	H	0.726334	0.064611	0.601900
H450	H	1.059668	0.397944	0.935233
O451	O	0.709007	-0.953709	0.156932
O452	O	1.042340	-0.620375	0.490266
O453	O	1.375673	-0.287042	0.823599
H454	H	0.731843	-0.932307	0.177066
H455	H	1.065176	-0.598974	0.510400
H456	H	1.398509	-0.265640	0.843733
H457	H	0.392998	-0.164309	0.164496
H458	H	0.726331	0.169024	0.497829
H459	H	1.059664	0.502357	0.831162
H460	H	0.730115	-0.135573	0.829740
H461	H	1.063448	0.197761	1.163073
H462	H	1.396782	0.531094	1.496407
H463	H	0.262285	-0.297506	0.297258
H464	H	0.595618	0.035827	0.630591
H465	H	0.928951	0.369160	0.963924
H466	H	0.730076	-0.688430	0.135795
H467	H	1.063409	-0.355097	0.469129
H468	H	1.396743	-0.021763	0.802462
O469	O	0.030237	-0.127955	0.128291
O470	O	0.363570	0.205378	0.461624
O471	O	0.696903	0.538712	0.794957
H472	H	0.008882	-0.105131	0.148441
H473	H	0.342215	0.228202	0.481775
H474	H	0.675549	0.561535	0.815108
O475	O	0.589296	-0.381376	0.276190
O476	O	0.922630	-0.048043	0.609523
O477	O	1.255963	0.285290	0.942857
H478	H	0.594122	-0.344809	0.271365
H479	H	0.927455	-0.011475	0.604698
H480	H	1.260788	0.321858	0.938032
H481	H	0.568292	-0.829266	0.297349
H482	H	0.901626	-0.495933	0.630682
H483	H	1.234959	-0.162599	0.964015
O484	O	0.709032	-1.051234	0.156947
O485	O	1.042365	-0.717900	0.490280
O486	O	1.375698	-0.384567	0.823614
H487	H	0.701355	-1.042259	0.121675
H488	H	1.034688	-0.708926	0.455008
H489	H	1.368022	-0.375592	0.788342
H490	H	0.596984	-0.268637	0.388000
H491	H	0.930317	0.064696	0.721333
H492	H	1.263650	0.398030	1.054666
H493	H	0.701388	-0.164274	0.960437
H494	H	1.034721	0.169060	1.293770
H495	H	1.368055	0.502393	1.627103
H496	H	0.597097	-1.045080	0.268662
H497	H	0.930430	-0.711747	0.601996
H498	H	1.263763	-0.378414	0.935329
O499	O	0.589457	-0.276083	1.051711
O500	O	0.922790	0.057251	1.385044
O501	O	1.256123	0.390584	1.718378
H502	H	0.597128	-0.311345	1.042700
H503	H	0.930461	0.021988	1.376033
H504	H	1.263794	0.355322	1.709367
O505	O	0.708864	-0.478817	0.156887
O506	O	1.042197	-0.145484	0.490220
O507	O	1.375530	0.187849	0.823553
H508	H	0.731720	-0.500156	0.177021
H509	H	1.065053	-0.166823	0.510354
H510	H	1.398386	0.166510	0.843687
H511	H	0.730110	-0.135588	0.744622
H512	H	1.063443	0.197745	1.077955
H513	H	1.396777	0.531078	1.411288
H514	H	0.177180	-0.297509	0.297271
H515	H	0.510513	0.035824	0.630604
H516	H	0.843847	0.369158	0.963937
H517	H	0.478121	-0.164309	0.164485
H518	H	0.811455	0.169024	0.497818
H519	H	1.144788	0.502358	0.831152
H520	H	0.701393	-0.164257	1.045559
H521	H	1.034727	0.169076	1.378892
H522	H	1.368060	0.502409	1.712226
H523	H	0.597044	-0.268511	0.960404
H524	H	0.930377	0.064822	1.293737
H525	H	1.263711	0.398156	1.627071
H526	H	0.036420	-0.297513	0.297286
H527	H	0.369754	0.035820	0.630619
H528	H	0.703087	0.369154	0.963952
O529	O	0.708928	-0.156776	0.479349
O530	O	1.042261	0.176558	0.812682
O531	O	1.375595	0.509891	1.146015
H532	H	0.688842	-0.133904	0.500714
H533	H	1.022175	0.199430	0.834047
H534	H	1.355508	0.532763	1.167380
O535	O	0.560670	-0.304840	0.835873
O536	O	0.894004	0.028493	1.169206
O537	O	1.227337	0.361826	1.502540
H538	H	0.540672	-0.324814	0.811667
H539	H	0.874005	0.008519	1.145000
H540	H	1.207338	0.341852	1.478334
H541	H	0.596991	-0.268621	0.473123
H542	H	0.930325	0.064712	0.806457
H543	H	1.263658	0.398045	1.139790
H544	H	0.568265	-0.297274	0.744566
H545	H	0.901599	0.036059	1.077899
H546	H	1.234932	0.369393	1.411233
O547	O	0.127744	-0.127948	0.128274
O548	O	0.461077	0.205386	0.461607
O549	O	0.794410	0.538719	0.794941
H550	H	0.149142	-0.105112	0.148411
H551	H	0.482475	0.228222	0.481745
H552	H	0.815809	0.561555	0.815078
H553	H	0.568233	-0.297294	0.603808
H554	H	0.901567	0.036039	0.937141
H555	H	1.234900	0.369372	1.270474
H556	H	0.478110	-0.268721	0.268545
H557	H	0.811443	0.064612	0.601879
H558	H	1.144776	0.397945	0.935212
H559	H	-0.179407	-0.268759	0.268628
H560	H	0.153926	0.064574	0.601961
H561	H	0.487260	0.397907	0.935294
H562	H	0.597076	-0.959972	0.268661
H563	H	0.930409	-0.626638	0.601995
H564	H	1.263742	-0.293305	0.935328
O565	O	0.127741	-0.305113	0.304860
O566	O	0.461075	0.028221	0.638193
O567	O	0.794408	0.361554	0.971527
H568	H	0.103540	-0.325116	0.324805
H569	H	0.436873	0.008217	0.658138
H570	H	0.770206	0.341551	0.991472
H571	H	0.568229	-0.603402	0.297337
H572	H	0.901562	-0.270069	0.630670
H573	H	1.234896	0.063264	0.964004
H574	H	-0.094285	-0.268759	0.268619
H575	H	0.239048	0.064575	0.601953
H576	H	0.572382	0.397908	0.935286
O577	O	-0.185594	-0.156746	0.156986
O578	O	0.147739	0.176588	0.490319
O579	O	0.481073	0.509921	0.823652
H580	H	-0.161394	-0.136734	0.137047
H581	H	0.171939	0.196600	0.470380
H582	H	0.505273	0.529933	0.803714
O583	O	0.560643	-0.304870	0.695117
O584	O	0.893977	0.028464	1.028450
O585	O	1.227310	0.361797	1.361783
H586	H	0.540644	-0.324840	0.670908
H587	H	0.873977	0.008493	1.004241
H588	H	1.207311	0.341827	1.337575
H589	H	0.701220	-0.387517	0.164459
H590	H	1.034554	-0.054183	0.497793
H591	H	1.367887	0.279150	0.831126
H592	H	0.730047	-0.603324	0.135785
H593	H	1.063380	-0.269990	0.469118
H594	H	1.396713	0.063343	0.802452
O595	O	0.737727	-0.835388	0.128239
O596	O	1.071061	-0.502055	0.461572
O597	O	1.404394	-0.168722	0.794906
H598	H	0.717647	-0.856801	0.105366
H599	H	1.050980	-0.523467	0.438700
H600	H	1.384313	-0.190134	0.772033
H601	H	0.568248	-0.688511	0.297342
H602	H	0.901581	-0.355178	0.630675
H603	H	1.234914	-0.021844	0.964009
H604	H	-0.094283	-0.164339	0.164556
H605	H	0.239051	0.168994	0.497889
H606	H	0.572384	0.502327	0.831222
H607	H	0.177197	-0.135539	0.135854
H608	H	0.510530	0.197794	0.469187
H609	H	0.843863	0.531128	0.802520
H610	H	0.262305	-0.135529	0.135852
H611	H	0.595638	0.197804	0.469185
H612	H	0.928972	0.531137	0.802519
H613	H	0.730093	-0.744071	0.135801
H614	H	1.063427	-0.410737	0.469134
H615	H	1.396760	-0.077404	0.802468
O616	O	0.589327	-0.478902	0.276198
O617	O	0.922660	-0.145568	0.609531
O618	O	1.255994	0.187765	0.942865
H619	H	0.569329	-0.454716	0.296153
H620	H	0.902662	-0.121383	0.629486
H621	H	1.235996	0.211950	0.962819
H622	H	0.568268	-0.744160	0.297340
H623	H	0.901601	-0.410826	0.630673
H624	H	1.234934	-0.077493	0.964006
H625	H	0.701321	-0.164403	0.388042
H626	H	1.034655	0.168930	0.721375
H627	H	1.367988	0.502263	1.054708
O628	O	0.737694	-0.128031	0.597674
O629	O	1.071028	0.205302	0.931008
O630	O	1.404361	0.538635	1.264341
H631	H	0.757685	-0.108052	0.621882
H632	H	1.091019	0.225282	0.955215
H633	H	1.424352	0.558615	1.288549
H634	H	0.730104	-0.135601	0.688980
H635	H	1.063437	0.197732	1.022314
H636	H	1.396770	0.531066	1.355647
