data_functionalizedCrystal
_audit_creation_method	'MofGen! by Chris Wilmer'
_symmetry_space_group_name_H-M	'P1'
_symmetry_Int_Tables_number	1
_symmetry_cell_setting	triclinic
loop_
_symmetry_equiv_pos_as_xyz
  x,y,z
_cell_length_a	12.837932
_cell_length_b	12.837942
_cell_length_c	11.295483
_cell_angle_alpha	85.469583
_cell_angle_beta	85.460332
_cell_angle_gamma	85.170678
loop_
_atom_site_label
_atom_site_type_symbol
_atom_site_fract_x
_atom_site_fract_y
_atom_site_fract_z
O1	O	1.408693	-0.265796	-0.099027
O2	O	1.105559	-0.252351	-0.099029
O3	O	1.250404	-0.107507	-0.099021
O4	O	1.263848	-0.410640	-0.099035
O5	O	1.237680	-0.120208	0.099030
O6	O	1.092835	-0.265051	0.099021
O7	O	1.395969	-0.278497	0.099023
Cu8	Cu	1.243240	-0.272933	0.117106
Cu9	Cu	1.258288	-0.257914	-0.117111
O10	O	1.251124	-0.423340	0.099015
C11	C	1.060128	-0.254159	-0.000004
C12	C	0.943713	-0.240614	-0.000004
C13	C	0.782686	-0.127402	0.000003
C14	C	0.892069	-0.140122	0.000002
C15	C	0.885965	-0.328393	-0.000006
C16	C	0.776583	-0.315673	-0.000005
C17	C	0.724947	-0.215174	-0.000002
C18	C	0.615563	-0.202454	-0.000010
C19	C	0.609461	-0.390725	-0.000010
C20	C	0.718844	-0.403445	-0.000011
C21	C	1.239500	-0.074788	0.000004
C22	C	1.225956	0.041627	0.000002
C23	C	1.441400	-0.276688	-0.000004
C24	C	1.557816	-0.290233	-0.000012
C25	C	1.262027	-0.456059	-0.000012
C26	C	1.275572	-0.572474	-0.000018
N27	N	1.232664	-0.283497	0.281841
C28	C	1.388787	0.266502	-0.000022
C29	C	1.376066	0.375884	-0.000024
C30	C	1.187794	0.369778	-0.000013
C31	C	1.200515	0.260395	-0.000011
C32	C	1.301015	0.208761	-0.000014
C33	C	1.313735	0.099376	-0.000003
C34	C	1.125464	0.093271	-0.000000
C35	C	1.112743	0.202654	-0.000002
N36	N	1.268871	-0.247343	-0.281847
C37	C	1.344999	-0.171239	0.531137
C38	C	1.337015	-0.179230	0.655801
C39	C	1.208705	-0.307466	0.655833
C40	C	1.216690	-0.299474	0.531170
C41	C	1.284840	-0.231360	0.468826
C42	C	1.292830	-0.223374	0.344161
C43	C	1.164515	-0.351604	0.344196
C44	C	1.156531	-0.359595	0.468859
H45	H	0.760900	-0.485269	-0.000009
O46	O	1.401912	-0.114400	0.723013
H47	H	1.450648	-0.065704	0.658714
H48	H	1.030919	0.244710	-0.000005
O49	O	1.135205	-0.380928	0.723083
H50	H	1.139766	-0.376384	0.820237
H51	H	1.101041	-0.415050	0.519634
H52	H	0.928025	-0.410215	0.000002
O53	O	1.099615	-0.416450	0.276993
H54	H	1.116608	-0.399447	0.179832
O55	O	0.547188	-0.485405	-0.000009
H56	H	0.462451	-0.459680	-0.000000
H57	H	1.395566	0.057337	-0.000001
H58	H	1.053993	0.046246	0.000016
O59	O	1.497175	0.210799	-0.000027
H60	H	1.556074	0.269328	-0.000038
H61	H	0.740644	-0.045571	-0.000006
H62	H	1.447540	0.422893	-0.000035
O63	O	1.418476	-0.097749	0.463892
H64	H	1.413914	-0.102287	0.366737
H65	H	1.105972	0.411838	-0.000023
H66	H	0.573523	-0.120623	-0.000012
O67	O	0.954350	-0.045456	0.000005
H68	H	0.900064	0.026561	0.000000
O69	O	1.366313	-0.149900	0.276902
H70	H	1.447712	-0.172853	0.300802
