data_functionalizedCrystal
_audit_creation_method	'MofGen! by Chris Wilmer'
_symmetry_space_group_name_H-M	'P1'
_symmetry_Int_Tables_number	1
_symmetry_cell_setting	triclinic
loop_
_symmetry_equiv_pos_as_xyz
  x,y,z
_cell_length_a	10.540539
_cell_length_b	10.540539
_cell_length_c	16.776229
_cell_angle_alpha	89.995514
_cell_angle_beta	89.994937
_cell_angle_gamma	84.525492
loop_
_atom_site_label
_atom_site_type_symbol
_atom_site_fract_x
_atom_site_fract_y
_atom_site_fract_z
O1	O	1.685892	0.178903	-0.066247
O2	O	1.316479	0.195759	-0.066256
O3	O	1.509613	0.002625	-0.066250
O4	O	1.492757	0.372038	-0.066252
O5	O	1.509587	0.002613	0.066326
O6	O	1.316453	0.195747	0.066321
O7	O	1.685866	0.178891	0.066330
Zn8	Zn	1.501155	0.187317	0.087375
Zn9	Zn	1.501189	0.187333	-0.087301
O10	O	1.492731	0.372026	0.066324
C11	C	1.269163	0.194489	0.000031
C12	C	1.128215	0.190707	0.000027
C13	C	0.944788	0.045790	0.000338
C14	C	1.091406	0.049624	0.000031
C15	C	1.066557	0.258609	-0.075678
C16	C	0.920013	0.253794	-0.075733
C17	C	0.919494	0.256651	0.075031
C18	C	1.066476	0.257950	0.076024
C19	C	1.508336	-0.044684	0.000037
C20	C	1.504554	-0.185632	0.000032
C21	C	1.359637	-0.369059	-0.000269
C22	C	1.363471	-0.222441	0.000030
C23	C	1.572435	-0.247297	0.075742
C24	C	1.567620	-0.393841	0.075805
C25	C	1.570519	-0.394346	-0.074959
C26	C	1.571819	-0.247364	-0.075960
C27	C	1.733182	0.180161	0.000041
C28	C	1.874130	0.183943	0.000040
C29	C	1.494008	0.419335	0.000036
C30	C	1.497790	0.560283	0.000035
N31	N	1.501141	0.187306	0.206586
N32	N	1.501214	0.187335	-0.206512
C33	C	1.586688	0.101821	0.248306
C34	C	1.586695	0.101820	0.331758
C35	C	1.501160	0.187311	0.373489
C36	C	1.415605	0.272799	0.331763
C37	C	1.415592	0.272793	0.248313
C38	C	1.415651	0.272824	0.668310
C39	C	1.415672	0.272826	0.751767
C40	C	1.586753	0.101852	0.751756
C41	C	1.586741	0.101846	0.668305
C42	C	1.501181	0.187329	0.626587
C43	C	1.501173	0.187327	0.536098
C44	C	1.501174	0.187319	0.463976
H45	H	1.088910	0.362218	-0.078495
C46	C	1.680824	0.007803	0.622405
H47	H	1.731767	-0.043119	0.659205
H48	H	1.734073	0.053972	0.589838
H49	H	1.634665	-0.045487	0.589864
H50	H	0.916192	-0.009951	0.054630
H51	H	1.672423	-0.441572	-0.075465
H52	H	1.517431	-0.422046	0.132397
H53	H	1.656417	0.032243	0.785732
H54	H	1.345954	0.342403	0.365745
C55	C	1.680775	0.007779	0.202409
H56	H	1.731715	-0.043141	0.239211
H57	H	1.734026	0.053948	0.169843
H58	H	1.634620	-0.045514	0.169867
H59	H	0.887937	0.210987	0.132415
H60	H	1.109156	0.211450	-0.132019
H61	H	0.872267	0.358554	0.075542
C62	C	1.321577	0.366862	0.797674
H63	H	1.333851	0.354629	0.853348
H64	H	1.236731	0.352251	0.784013
H65	H	1.336123	0.451726	0.783989
H66	H	0.914591	-0.009705	-0.053652
C67	C	1.121785	0.190939	0.151686
H68	H	1.182256	0.122271	0.137031
H69	H	1.054948	0.159151	0.181420
H70	H	1.162307	0.250056	0.183278
C71	C	0.855205	0.390856	-0.080397
H72	H	0.918473	0.449230	-0.082255
H73	H	0.803024	0.407903	-0.034748
H74	H	0.804154	0.399995	-0.127086
C75	C	1.290786	-0.166024	0.073462
H76	H	1.292871	-0.076118	0.073891
H77	H	1.329816	-0.201271	0.120558
H78	H	1.204812	-0.185861	0.071233
C79	C	1.147822	-0.023031	-0.073411
H80	H	1.081118	-0.054997	-0.103179
H81	H	1.206277	-0.091968	-0.056533
H82	H	1.190861	0.033063	-0.105843
H83	H	0.891813	0.203619	-0.132323
C84	C	1.099195	0.396904	0.082201
H85	H	1.151159	0.415816	0.038314
H86	H	1.143784	0.408048	0.130519
H87	H	1.022818	0.452582	0.081563
H88	H	1.310058	-0.179833	-0.054242
H89	H	1.669085	-0.441810	0.079243
H90	H	1.676042	-0.224943	0.078559
H91	H	1.303917	-0.397654	-0.054562
H92	H	1.304122	-0.399271	0.053717
H93	H	1.345987	0.342430	0.634350
H94	H	1.525260	-0.204703	0.132080
C95	C	1.321497	0.366825	0.202417
H96	H	1.333731	0.354570	0.146741
H97	H	1.336043	0.451686	0.216083
H98	H	1.236652	0.352211	0.216106
C99	C	1.508848	-0.436952	-0.152479
H100	H	1.438159	-0.482813	-0.139830
H101	H	1.569615	-0.490178	-0.182039
H102	H	1.480689	-0.364135	-0.183384
H103	H	1.522151	-0.206500	-0.131967
C104	C	1.710778	-0.214654	-0.082134
H105	H	1.729678	-0.162697	-0.038248
H106	H	1.721945	-0.170062	-0.130453
H107	H	1.766449	-0.291036	-0.081489
H108	H	1.134009	-0.003804	0.054300
H109	H	1.656352	0.032212	0.365726
