data_functionalizedCrystal
_audit_creation_method	'MofGen! by Chris Wilmer'
_symmetry_space_group_name_H-M	'P1'
_symmetry_Int_Tables_number	1
_symmetry_cell_setting	triclinic
loop_
_symmetry_equiv_pos_as_xyz
  x,y,z
_cell_length_a	15.995350
_cell_length_b	19.188930
_cell_length_c	15.072220
_cell_angle_alpha	89.993728
_cell_angle_beta	89.991149
_cell_angle_gamma	83.318578
loop_
_atom_site_label
_atom_site_type_symbol
_atom_site_fract_x
_atom_site_fract_y
_atom_site_fract_z
O1	O	1.110666	0.089991	-0.073718
O2	O	1.610666	0.589991	0.426282
O3	O	0.866850	0.101105	-0.073737
O4	O	1.366850	0.601105	0.426263
O5	O	0.995794	-0.006090	-0.073709
O6	O	1.495794	0.493910	0.426291
O7	O	0.981722	0.197186	-0.073745
O8	O	1.481722	0.697186	0.426255
O9	O	0.995763	-0.006084	0.073856
O10	O	1.495763	0.493916	0.573856
O11	O	0.866819	0.101111	0.073828
O12	O	1.366819	0.601111	0.573828
O13	O	1.110634	0.089997	0.073848
O14	O	1.610634	0.589997	0.573848
Zn15	Zn	0.988721	0.095555	0.097267
Zn16	Zn	1.488721	0.595555	0.597267
Zn17	Zn	0.988763	0.095547	-0.097156
Zn18	Zn	1.488763	0.595547	0.402844
O19	O	0.981690	0.197192	0.073820
O20	O	1.481690	0.697192	0.573820
C21	C	0.835641	0.100648	0.000043
C22	C	1.335641	0.600648	0.500043
C23	C	0.742696	0.099271	0.000037
C24	C	1.242696	0.599271	0.500037
C25	C	0.404967	0.094324	0.000056
C26	C	0.904967	0.594324	0.500056
C27	C	0.452680	0.017982	0.000398
C28	C	0.952680	0.517982	0.500398
C29	C	0.549365	0.019360	0.000059
C30	C	1.049365	0.519360	0.500059
C31	C	0.572518	0.096778	0.000047
C32	C	1.072518	0.596778	0.500047
C33	C	0.531311	0.134429	-0.084223
C34	C	1.031311	0.634429	0.415777
C35	C	0.434683	0.132511	-0.084287
C36	C	0.934683	0.632511	0.415713
C37	C	0.434302	0.134095	0.083522
C38	C	0.934302	0.634095	0.583522
C39	C	0.531247	0.134077	0.084629
C40	C	1.031247	0.634077	0.584629
C41	C	0.667211	0.098169	0.000039
C42	C	1.167211	0.598169	0.500039
C43	C	0.310274	0.092936	0.000058
C44	C	0.810274	0.592936	0.500058
C45	C	0.995323	-0.032099	0.000076
C46	C	1.495323	0.467901	0.500076
C47	C	0.993955	-0.109607	0.000083
C48	C	1.493955	0.390393	0.500083
C49	C	1.069615	-0.154338	0.000093
C50	C	1.569615	0.345662	0.500093
C51	C	1.068330	-0.227165	0.000079
C52	C	1.568330	0.272835	0.500079
C53	C	0.991380	-0.255258	0.000072
C54	C	1.491380	0.244742	0.500072
C55	C	0.915710	-0.210517	0.000057
C56	C	1.415710	0.289483	0.500057
C57	C	0.916997	-0.137691	0.000062
C58	C	1.416997	0.362309	0.500062
N59	N	0.932550	-0.363410	0.050287
N60	N	1.432550	0.136590	0.550287
N61	N	0.931333	-0.432592	0.050284
N62	N	1.431333	0.067408	0.550284
C63	C	0.987497	-0.474676	0.000054
C64	C	1.487497	0.025324	0.500054
N65	N	1.044937	-0.444966	-0.050161
N66	N	1.544937	0.055034	0.449839
N67	N	1.046158	-0.375779	-0.050154
N68	N	1.546158	0.124221	0.449846
C69	C	0.989976	-0.334224	0.000066
C70	C	1.489976	0.165776	0.500066
C71	C	1.061769	-0.598375	0.000048
C72	C	1.561769	-0.098375	0.500048
C73	C	1.060480	-0.671204	0.000028
C74	C	1.560480	-0.171204	0.500028
C75	C	0.907859	-0.654553	0.000015
C76	C	1.407859	-0.154553	0.500015
C77	C	0.909149	-0.581727	0.000025
C78	C	1.409149	-0.081727	0.500025
C79	C	0.986106	-0.553643	0.000046
C80	C	1.486106	-0.053643	0.500046
C81	C	1.141843	0.090454	0.000065
C82	C	1.641843	0.590454	0.500065
C83	C	1.234789	0.091831	0.000066
C84	C	1.734789	0.591831	0.500066
C85	C	0.982162	0.223201	0.000033
C86	C	1.482162	0.723201	0.500033
C87	C	0.983530	0.300709	0.000019
C88	C	1.483530	0.800709	0.500019
N89	N	0.988699	0.095560	0.229956
N90	N	1.488699	0.595560	0.729956
N91	N	0.988792	0.095537	-0.229845
N92	N	1.488792	0.595537	0.270155
C93	C	0.988762	0.095544	0.589157
C94	C	1.488762	0.595544	1.089157
C95	C	0.919536	0.152710	0.551535
C96	C	1.419536	0.652710	1.051535
C97	C	0.919693	0.152918	0.448710
C98	C	1.419693	0.652918	0.948710
C99	C	0.988730	0.095552	0.410953
C100	C	1.488730	0.595552	0.910953
C101	C	1.076036	0.111464	0.448248
C102	C	1.576036	0.611464	0.948248
C103	C	1.075648	0.111870	0.551106
C104	C	1.575648	0.611870	1.051106
C105	C	0.971460	0.022298	0.551269
C106	C	1.471460	0.522298	1.051269
C107	C	0.969454	0.022787	0.448405
C108	C	1.469454	0.522787	0.948405
C109	C	0.988717	0.095555	0.310240
C110	C	1.488717	0.595555	0.810240
C111	C	0.988780	0.095543	0.689871
C112	C	1.488780	0.595543	1.189871
H113	H	0.545229	0.191306	-0.087366
H114	H	1.045229	0.691306	0.412634
H115	H	1.122095	-0.707624	0.000031
H116	H	1.622095	-0.207624	0.500031
N117	N	0.550267	0.204899	0.090997
N118	N	1.050267	0.704899	0.590997
N119	N	0.594743	0.229146	0.033038
N120	N	1.094743	0.729146	0.533038
H121	H	0.608176	0.279167	0.037529
H122	H	1.108176	0.779167	0.537529
N123	N	0.429616	-0.020269	0.076257
N124	N	0.929616	0.479731	0.576257
N125	N	0.377738	0.008284	0.130952
N126	N	0.877738	0.508284	0.630952
H127	H	0.361463	-0.018724	0.184546
H128	H	0.861463	0.481276	0.684546
N129	N	0.567018	0.101621	-0.162901
N130	N	1.067018	0.601621	0.337099
N131	N	0.542428	0.124051	-0.237430
N132	N	1.042428	0.624051	0.262570
H133	H	0.567643	0.100877	-0.292996
H134	H	1.067643	0.600877	0.207004
H135	H	0.577345	-0.010441	-0.060444
H136	H	1.077345	0.489559	0.439556
H137	H	1.128756	0.071875	0.575991
H138	H	1.628756	0.571875	1.075991
N139	N	1.140382	-0.569694	0.000071
N140	N	1.640382	-0.069694	0.500071
N141	N	1.207933	-0.609645	0.000075
N142	N	1.707933	-0.109645	0.500075
H143	H	1.263455	-0.589391	0.000093
H144	H	1.763455	-0.089391	0.500093
H145	H	0.416488	0.105049	-0.147272
H146	H	0.916488	0.605049	0.352728
H147	H	0.845205	-0.677425	0.000005
H148	H	1.345205	-0.177425	0.500005
H149	H	0.854420	0.143386	0.576294
H150	H	1.354420	0.643386	1.076294
H151	H	0.847538	-0.545305	0.000022
H152	H	1.347538	-0.045305	0.500022
N153	N	0.428236	-0.020133	-0.074968
N154	N	0.928236	0.479867	0.425032
N155	N	0.352875	-0.029684	-0.085317
N156	N	0.852875	0.470316	0.414683
H157	H	0.335605	-0.056600	-0.138546
H158	H	0.835605	0.443400	0.361454
H159	H	1.132280	-0.131477	0.000107
H160	H	1.632280	0.368523	0.500107
N161	N	1.145626	-0.272858	0.000089
N162	N	1.645626	0.227142	0.500089
N163	N	1.214329	-0.247773	0.000105
N164	N	1.714329	0.252227	0.500105
H165	H	1.268920	-0.280041	0.000113
H166	H	1.768920	0.219959	0.500113
N167	N	1.094821	0.178876	0.581206
N168	N	1.594821	0.678876	1.081206
N169	N	1.158079	0.183102	0.628715
N170	N	1.658079	0.683102	1.128715
H171	H	1.171618	0.230427	0.649972
H172	H	1.671618	0.730427	1.149972
N173	N	0.837115	-0.239220	0.000042
N174	N	1.337115	0.260780	0.500042
N175	N	0.835975	-0.304243	0.000038
N176	N	1.335975	0.195757	0.500038
H177	H	0.780465	-0.324516	0.000023
H178	H	1.280465	0.175484	0.500023
N179	N	0.838152	0.141366	0.417088
N180	N	1.338152	0.641366	0.917088
N181	N	0.780732	0.133084	0.470985
N182	N	1.280732	0.633084	0.970985
H183	H	0.723095	0.125056	0.448658
H184	H	1.223095	0.625056	0.948658
N185	N	0.933171	0.220510	0.583945
N186	N	1.433171	0.720510	1.083945
N187	N	0.993651	0.226912	0.634630
N188	N	1.493651	0.726912	1.134630
H189	H	1.003285	0.274796	0.657521
H190	H	1.503285	0.774796	1.157521
H191	H	0.413844	0.109140	0.147396
H192	H	0.913844	0.609140	0.647396
N193	N	0.933472	0.221119	0.417827
N194	N	1.433472	0.721119	0.917827
N195	N	0.943010	0.268709	0.472240
N196	N	1.443010	0.768709	0.972240
H197	H	0.952727	0.316883	0.450431
H198	H	1.452727	0.816883	0.950431
H199	H	0.402230	0.188560	-0.088121
H200	H	0.902230	0.688560	0.411879
N201	N	0.565614	0.099583	0.162832
N202	N	1.065614	0.599583	0.662832
N203	N	0.620302	0.047723	0.156367
N204	N	1.120302	0.547723	0.656367
H205	H	0.644579	0.023359	0.211597
H206	H	1.144579	0.523359	0.711597
N207	N	1.028627	-0.033089	0.416200
N208	N	1.528627	0.466911	0.916200
N209	N	1.022745	-0.094876	0.439377
N210	N	1.522745	0.405124	0.939377
H211	H	1.064545	-0.134339	0.416639
H212	H	1.564545	0.365661	0.916639
N213	N	0.888885	0.007646	0.417828
N214	N	1.388885	0.507646	0.917828
N215	N	0.845777	0.050250	0.368633
N216	N	1.345777	0.550250	0.868633
H217	H	0.788874	0.039559	0.347032
H218	H	1.288874	0.539559	0.847032
H219	H	0.855384	-0.101270	0.000054
H220	H	1.355384	0.398730	0.500054
N221	N	1.034796	-0.031063	0.581796
N222	N	1.534796	0.468937	1.081796
N223	N	1.092457	-0.015314	0.631239
N224	N	1.592457	0.484686	1.131239
H225	H	1.137190	-0.052996	0.652804
H226	H	1.637190	0.447004	1.152804
H227	H	1.128769	0.070935	0.423790
H228	H	1.628769	0.570935	0.923790
H229	H	1.091695	0.164273	0.422471
H230	H	1.591695	0.664273	0.922471
H231	H	0.402334	0.190382	0.084082
H232	H	0.902334	0.690382	0.584082
N233	N	0.893326	0.003127	0.583840
N234	N	1.393326	0.503127	1.083840
N235	N	0.849440	0.043220	0.635382
N236	N	1.349440	0.543220	1.135382
H237	H	0.794252	0.029690	0.658382
H238	H	1.294252	0.529690	1.158382
H239	H	0.577890	-0.010236	0.060468
H240	H	1.077890	0.489764	0.560468
