data_functionalizedCrystal
_audit_creation_method	'MofGen! by Chris Wilmer'
_symmetry_space_group_name_H-M	'P1'
_symmetry_Int_Tables_number	1
_symmetry_cell_setting	triclinic
loop_
_symmetry_equiv_pos_as_xyz
  x,y,z
_cell_length_a	10.654534
_cell_length_b	10.654549
_cell_length_c	9.730223
_cell_angle_alpha	90.003420
_cell_angle_beta	89.995923
_cell_angle_gamma	95.518409
loop_
_atom_site_label
_atom_site_type_symbol
_atom_site_fract_x
_atom_site_fract_y
_atom_site_fract_z
O1	O	-1.667850	0.176303	0.114313
O2	O	-1.167850	0.676303	0.614313
O3	O	-1.302369	0.193130	0.114309
O4	O	-0.802369	0.693130	0.614309
O5	O	-1.493513	0.001977	0.114305
O6	O	-0.993513	0.501977	0.614305
O7	O	-1.476707	0.367456	0.114317
O8	O	-0.976707	0.867456	0.614317
O9	O	-1.493501	0.001972	-0.114275
O10	O	-0.993501	0.501972	0.385725
O11	O	-1.302357	0.193125	-0.114270
O12	O	-0.802357	0.693125	0.385730
O13	O	-1.667838	0.176298	-0.114267
O14	O	-1.167838	0.676298	0.385733
Zn15	Zn	-1.485096	0.184711	-0.150561
Zn16	Zn	-0.985096	0.684711	0.349439
Zn17	Zn	-1.485112	0.184718	0.150603
Zn18	Zn	-0.985112	0.684718	0.650603
O19	O	-1.476694	0.367451	-0.114263
O20	O	-0.976694	0.867451	0.385737
C21	C	-1.255565	0.191896	0.000019
C22	C	-0.755565	0.691896	0.500019
C23	C	-1.116121	0.188212	0.000018
C24	C	-0.616121	0.688212	0.500018
C25	C	-1.050609	0.186475	-0.124584
C26	C	-0.550609	0.686475	0.375416
C27	C	-0.919589	0.182993	-0.124587
C28	C	-0.419589	0.682993	0.375413
C29	C	-0.919603	0.182990	0.124624
C30	C	-0.419603	0.682990	0.624624
C31	C	-1.050622	0.186464	0.124625
C32	C	-0.550622	0.686464	0.624625
C33	C	-1.492273	-0.044824	0.000017
C34	C	-0.992273	0.455176	0.500017
C35	C	-1.488581	-0.184267	0.000021
C36	C	-0.988581	0.315733	0.500021
C37	C	-0.714641	0.177542	0.000020
C38	C	-0.214641	0.677542	0.500020
C39	C	-0.854082	0.181257	0.000013
C40	C	-0.354082	0.681257	0.500013
C41	C	-1.597646	-0.394788	0.000032
C42	C	-1.097646	0.105212	0.500032
C43	C	-1.601124	-0.263767	0.000021
C44	C	-1.101124	0.236233	0.500021
C45	C	-1.372553	-0.235792	0.000018
C46	C	-0.872553	0.264208	0.500018
C47	C	-1.369076	-0.366811	0.000020
C48	C	-0.869076	0.133189	0.500020
C49	C	-1.477934	0.414252	0.000028
C50	C	-0.977934	0.914252	0.500028
C51	C	-1.481626	0.553695	0.000033
C52	C	-0.981626	1.053695	0.500033
N53	N	-1.485094	0.184705	-0.356097
N54	N	-0.985094	0.684705	0.143903
C55	C	-1.569761	0.100099	-0.428025
C56	C	-1.069761	0.600099	0.071975
C57	C	-1.569774	0.100099	-0.571908
C58	C	-1.069774	0.600099	-0.071908
C59	C	-1.400447	0.269324	-0.571923
C60	C	-0.900447	0.769324	-0.071923
C61	C	-1.400429	0.269316	-0.428042
C62	C	-0.900429	0.769316	0.071958
N63	N	-1.485124	0.184713	0.356139
N64	N	-0.985124	0.684713	0.856139
H65	H	-0.866258	0.181568	0.226075
H66	H	-0.366258	0.681568	0.726075
H67	H	-1.695598	-0.221829	0.000017
H68	H	-1.195598	0.278171	0.500017
H69	H	-0.866255	0.181579	-0.226050
H70	H	-0.366255	0.681579	0.273950
H71	H	-1.331517	0.338214	-0.630515
H72	H	-0.831517	0.838214	-0.130515
Cl73	Cl	-1.223211	-0.431580	0.000013
Cl74	Cl	-0.723211	0.068420	0.500013
Cl75	Cl	-1.132987	0.188638	0.281280
Cl76	Cl	-0.632987	0.688638	0.781280
H77	H	-1.280919	-0.171052	0.000011
H78	H	-0.780919	0.328948	0.500011
H79	H	-1.331477	0.338214	-0.369475
H80	H	-0.831477	0.838214	0.130525
H81	H	-1.103934	0.187899	-0.226047
H82	H	-0.603934	0.687899	0.273953
H83	H	-1.689292	-0.459509	0.000043
H84	H	-1.189292	0.040491	0.500043
Cl85	Cl	-1.676191	-0.006275	-0.337585
Cl86	Cl	-1.176191	0.493725	0.162415
H87	H	-1.638716	0.031203	-0.630468
H88	H	-1.138716	0.531203	-0.130468
