data_functionalizedCrystal
_audit_creation_method	'MofGen! by Chris Wilmer'
_symmetry_space_group_name_H-M	'P1'
_symmetry_Int_Tables_number	1
_symmetry_cell_setting	triclinic
loop_
_symmetry_equiv_pos_as_xyz
  x,y,z
_cell_length_a	19.805407
_cell_length_b	12.759400
_cell_length_c	19.805399
_cell_angle_alpha	89.975356
_cell_angle_beta	89.983114
_cell_angle_gamma	90.014685
loop_
_atom_site_label
_atom_site_type_symbol
_atom_site_fract_x
_atom_site_fract_y
_atom_site_fract_z
Zn1	Zn	1.034773	-0.418276	-0.382740
Zn2	Zn	1.034716	-0.593974	-0.269560
Zn3	Zn	0.921593	-0.418309	-0.269565
Zn4	Zn	0.921574	-0.593914	-0.382707
O5	O	0.978164	-0.506118	-0.326143
O6	O	1.129482	-0.441594	-0.367739
O7	O	1.019694	-0.570711	-0.174844
O8	O	0.936638	-0.271284	-0.284593
O9	O	1.129440	-0.570678	-0.284586
O10	O	1.019791	-0.271259	-0.367743
O11	O	0.936583	-0.441651	-0.174848
O12	O	0.826874	-0.441592	-0.284561
O13	O	0.936606	-0.570576	-0.477428
O14	O	0.826860	-0.570608	-0.367687
O15	O	1.019773	-0.441536	-0.477452
O16	O	1.019676	-0.740987	-0.284554
O17	O	0.936551	-0.740943	-0.367682
C18	C	0.802308	-0.506098	-0.326121
C19	C	0.727076	-0.506115	-0.326128
C20	C	0.691742	-0.573394	-0.369341
C21	C	0.621054	-0.573396	-0.369351
C22	C	0.585700	-0.506123	-0.326143
C23	C	0.621039	-0.438836	-0.282928
C24	C	0.691726	-0.438830	-0.282922
C25	C	0.335966	-0.438859	-0.282950
C26	C	0.265274	-0.438873	-0.282958
C27	C	0.265294	-0.573426	-0.369379
C28	C	0.335981	-0.573419	-0.369373
C29	C	0.371313	-0.506129	-0.326161
C30	C	0.447961	-0.506126	-0.326152
C31	C	0.509053	-0.506130	-0.326148
C32	C	0.978124	-0.779086	-0.326129
C33	C	0.978169	-0.895862	-0.326146
C34	C	1.021500	-0.950712	-0.282908
C35	C	1.021541	-1.060436	-0.282929
C36	C	0.934915	-1.060450	-0.369426
C37	C	0.934877	-0.950728	-0.369408
C38	C	1.064791	-0.895846	-0.239646
C39	C	1.108125	-0.950696	-0.196404
C40	C	1.108167	-1.060420	-0.196425
C41	C	1.064874	-1.115294	-0.239687
C42	C	1.154707	-0.506139	-0.326165
C43	C	1.229939	-0.506148	-0.326175
C44	C	0.978194	-0.506045	-0.502686
C45	C	0.978206	-0.506014	-0.577918
C46	C	0.978223	-0.232085	-0.326172
C47	C	0.978248	-0.115308	-0.326184
C48	C	0.934943	-0.438806	-0.613263
C49	C	0.934952	-0.438786	-0.683952
C50	C	0.978229	-0.505969	-0.719294
C51	C	1.021495	-0.573184	-0.683943
C52	C	1.021481	-0.573209	-0.613256
C53	C	1.021548	-0.573086	-0.969017
C54	C	1.021560	-0.573053	-1.039709
C55	C	0.935019	-0.438663	-1.039712
C56	C	0.935006	-0.438688	-0.969025
C57	C	0.978268	-0.505906	-0.933681
C58	C	0.978257	-0.505929	-0.857033
C59	C	0.978244	-0.505941	-0.795941
C60	C	0.978173	-0.506115	-0.150287
C61	C	0.978292	-0.505850	-0.075055
H62	H	0.592289	-0.628183	-0.404539
O63	O	1.068153	-0.645689	-0.575133
H64	H	1.056535	-0.728139	-0.588693
H65	H	0.592248	-0.384056	-0.247750
O66	O	0.374111	-0.645967	-0.415984
H67	H	0.406298	-0.699365	-0.385634
O68	O	1.154824	-0.891508	-0.149756
H69	H	1.143266	-0.912640	-0.096625
O70	O	0.888268	-0.366340	-0.575145
H71	H	0.858183	-0.319609	-0.611601
O72	O	1.068227	-0.645564	-0.930908
H73	H	1.056615	-0.728016	-0.944470
O74	O	0.729841	-0.366277	-0.236306
H75	H	0.693384	-0.319508	-0.206255
H76	H	0.899720	-0.384063	-0.712727
O77	O	0.888335	-0.366219	-0.930904
H78	H	0.858249	-0.319483	-0.967359
O79	O	0.729877	-0.645941	-0.415950
H80	H	0.716296	-0.728380	-0.404263
O81	O	1.068172	-0.645654	-0.722055
H82	H	1.102632	-0.598625	-0.754264
O83	O	0.227187	-0.645996	-0.415998
H84	H	0.172094	-0.634693	-0.408752
H85	H	1.064760	-0.806503	-0.239622
H86	H	0.364725	-0.384075	-0.247759
H87	H	0.236491	-0.384084	-0.247773
H88	H	0.899594	-0.906069	-0.404617
O89	O	0.888359	-0.366150	-1.077832
H90	H	0.895634	-0.377417	-1.132923
O91	O	1.068238	-0.645525	-1.077827
H92	H	1.060983	-0.634202	-1.132917
H93	H	1.143456	-1.105076	-0.161221
O94	O	1.064915	-1.233640	-0.239712
H95	H	1.102318	-1.262566	-0.202376
O96	O	0.888211	-1.119628	-0.416074
H97	H	0.895510	-1.205140	-0.408816
