data_functionalizedCrystal
_audit_creation_method	'MofGen! by Chris Wilmer'
_symmetry_space_group_name_H-M	'P1'
_symmetry_Int_Tables_number	1
_symmetry_cell_setting	triclinic
loop_
_symmetry_equiv_pos_as_xyz
  x,y,z
_cell_length_a	17.077404
_cell_length_b	19.121063
_cell_length_c	17.077396
_cell_angle_alpha	92.408800
_cell_angle_beta	89.980499
_cell_angle_gamma	92.469213
loop_
_atom_site_label
_atom_site_type_symbol
_atom_site_fract_x
_atom_site_fract_y
_atom_site_fract_z
Zn1	Zn	1.186697	-0.279610	-0.457152
Zn2	Zn	1.180993	-0.397067	-0.331476
Zn3	Zn	1.055428	-0.279634	-0.325901
Zn4	Zn	1.049788	-0.397025	-0.462698
O5	O	1.118227	-0.338334	-0.394307
O6	O	1.295787	-0.295198	-0.440493
O7	O	1.164310	-0.381517	-0.220891
O8	O	1.077589	-0.181347	-0.338657
O9	O	1.291597	-0.381493	-0.348160
O10	O	1.174032	-0.181328	-0.435086
O11	O	1.072058	-0.295240	-0.216795
O12	O	0.944833	-0.295199	-0.344035
O13	O	1.067976	-0.381422	-0.571808
O14	O	0.940690	-0.381446	-0.444539
O15	O	1.168563	-0.295157	-0.567733
O16	O	1.158841	-0.495346	-0.353538
O17	O	1.062445	-0.495315	-0.449946
C18	C	0.914279	-0.338321	-0.394284
C19	C	0.827029	-0.338333	-0.394294
C20	C	0.783899	-0.383309	-0.446550
C21	C	0.701918	-0.383311	-0.446562
C22	C	0.663069	-0.338339	-0.394315
C23	C	0.706206	-0.293358	-0.342057
C24	C	0.788185	-0.293353	-0.342049
C25	C	0.535335	-0.293371	-0.342077
C26	C	0.453350	-0.293377	-0.342084
C27	C	0.449068	-0.383329	-0.446590
C28	C	0.531047	-0.383324	-0.446582
C29	C	0.574178	-0.338344	-0.394323
C30	C	1.109434	-0.520815	-0.402966
C31	C	1.105744	-0.598881	-0.406696
C32	C	1.154237	-0.635549	-0.358296
C33	C	1.150772	-0.708900	-0.361809
C34	C	1.098808	-0.745582	-0.413719
C35	C	1.050312	-0.708908	-0.462125
C36	C	1.053782	-0.635558	-0.458615
C37	C	1.085821	-0.967052	-0.426830
C38	C	1.082353	-1.040407	-0.430334
C39	C	1.182814	-1.040393	-0.330019
C40	C	1.186276	-0.967042	-0.326511
C41	C	1.137783	-0.930375	-0.374919
C42	C	1.095262	-0.820559	-0.417310
C43	C	1.141333	-0.855399	-0.371332
C44	C	1.322970	-0.338347	-0.394329
C45	C	1.410220	-0.338353	-0.394339
C46	C	1.118277	-0.338282	-0.599049
C47	C	1.118298	-0.338260	-0.686297
C48	C	1.127075	-0.155141	-0.385631
C49	C	1.130846	-0.077075	-0.381934
C50	C	1.170675	-0.293338	-0.725167
C51	C	1.170686	-0.293315	-0.807146
C52	C	1.118322	-0.338217	-0.850255
C53	C	1.065939	-0.383141	-0.811380
C54	C	1.065925	-0.383160	-0.729402
C55	C	1.065973	-0.383099	-0.982248
C56	C	1.065987	-0.383081	-1.064232
C57	C	1.170733	-0.293254	-1.059992
C58	C	1.170720	-0.293273	-0.978014
C59	C	1.118337	-0.338198	-0.939145
C60	C	1.118224	-0.338335	-0.190359
C61	C	1.118365	-0.338159	-0.103101
H62	H	0.674569	-0.256738	-0.299520
H63	H	0.666805	-0.419935	-0.489113
O64	O	1.230009	-1.076041	-0.283120
C65	C	1.332060	-1.158805	-0.276627
C66	C	1.278664	-1.118468	-0.329829
H67	H	1.371400	-1.193128	-0.314369
H68	H	1.369853	-1.120016	-0.238943
H69	H	1.294413	-1.193170	-0.237172
H70	H	1.316251	-1.084102	-0.369332
H71	H	1.240867	-1.157295	-0.367460
O72	O	0.568753	-0.426935	-0.497442
C73	C	0.592214	-0.461207	-0.632526
C74	C	0.549481	-0.411765	-0.575011
H75	H	0.576636	-0.448969	-0.695252
H76	H	0.658225	-0.453475	-0.623610
H77	H	0.573374	-0.517822	-0.621285
H78	H	0.568256	-0.355131	-0.586217
H79	H	0.483479	-0.419558	-0.583940
H80	H	1.023267	-0.419733	-0.697755
O81	O	0.407203	-0.427123	-0.497276
C82	C	0.376414	-0.546639	-0.540851
C83	C	0.423862	-0.497122	-0.483401
H84	H	0.389877	-0.603243	-0.529665
H85	H	0.311137	-0.538977	-0.531884
H86	H	0.393143	-0.534347	-0.603582
H87	H	0.407200	-0.509383	-0.420649
H88	H	0.489128	-0.504794	-0.492437
O89	O	0.577197	-0.249757	-0.291201
C90	C	0.603839	-0.215500	-0.156108
C91	C	0.556392	-0.264939	-0.213639
H92	H	0.587023	-0.227746	-0.093387
H93	H	0.669112	-0.223227	-0.165009
H94	H	0.590467	-0.158885	-0.167343
H95	H	0.569696	-0.321573	-0.202439
H96	H	0.491132	-0.257151	-0.204725
O97	O	1.044868	-0.856163	-0.467841
C98	C	1.005594	-0.878530	-0.602395
C99	C	1.062724	-0.838174	-0.545257
H100	H	1.020000	-0.863990	-0.664997
H101	H	1.011454	-0.937261	-0.596654
H102	H	0.942988	-0.864179	-0.587823
H103	H	1.125353	-0.852467	-0.559792
H104	H	1.056795	-0.779453	-0.551009
O105	O	1.015180	-0.426833	-0.853292
C106	C	1.000054	-0.521608	-0.950369
C107	C	1.057624	-0.472179	-0.902943
H108	H	1.034347	-0.558272	-0.990535
H109	H	0.962625	-0.553769	-0.908543
H110	H	0.960561	-0.489334	-0.987181
H111	H	1.097168	-0.504398	-0.866128
H112	H	1.094999	-0.440016	-0.944812
H113	H	1.213363	-0.256713	-0.942917
H114	H	1.183645	-0.825531	-0.329069
H115	H	0.815523	-0.419933	-0.489093
O116	O	0.829964	-0.249645	-0.291209
C117	C	0.825566	-0.160401	-0.187580
C118	C	0.778156	-0.209879	-0.245102
H119	H	0.783700	-0.128227	-0.150299
H120	H	0.862357	-0.192566	-0.147947
H121	H	0.865749	-0.123745	-0.221954
H122	H	0.737929	-0.246545	-0.210792
H123	H	0.741417	-0.177670	-0.284735
H124	H	1.213318	-0.256776	-0.690074
O125	O	1.236686	-0.931303	-0.276105
C126	C	1.286581	-0.818298	-0.226271
C127	C	1.229448	-0.858685	-0.283381
H128	H	1.280761	-0.759579	-0.232146
H129	H	1.272147	-0.832719	-0.163636
H130	H	1.349181	-0.832704	-0.240791
H131	H	1.166829	-0.844300	-0.268933
H132	H	1.243950	-0.844260	-0.346000
H133	H	0.421722	-0.256748	-0.299549
H134	H	1.213384	-0.256673	-1.091644
H135	H	1.023346	-0.419643	-1.099329
O136	O	1.221644	-0.249659	-0.844781
C137	C	1.325510	-0.160541	-0.831924
C138	C	1.267853	-0.209960	-0.789205
H139	H	1.362874	-0.128422	-0.787009
H140	H	1.365055	-0.192749	-0.871817
H141	H	1.291241	-0.123831	-0.868580
H142	H	1.302058	-0.246680	-0.752507
H143	H	1.228308	-0.177709	-0.749360
H144	H	1.040047	-1.070271	-0.472619
H145	H	1.023306	-0.419670	-0.950603
H146	H	1.046335	-0.937203	-0.466244
O147	O	1.204783	-0.600028	-0.307848
C148	C	1.304026	-0.607765	-0.208687
C149	C	1.246830	-0.648076	-0.265797
H150	H	1.338025	-0.646595	-0.174662
H151	H	1.346730	-0.573389	-0.243079
H152	H	1.269620	-0.573459	-0.166001
H153	H	1.281171	-0.682420	-0.308496
H154	H	1.204126	-0.682408	-0.231354
H155	H	1.190260	-0.738752	-0.322396
O156	O	0.999921	-0.744508	-0.512662
C157	C	0.960652	-0.766864	-0.647220
C158	C	1.017785	-0.726518	-0.590076
H159	H	0.975065	-0.752323	-0.709820
H160	H	0.966503	-0.825596	-0.641482
H161	H	0.898049	-0.752505	-0.632651
H162	H	1.080413	-0.740818	-0.604608
H163	H	1.011866	-0.667796	-0.595825
O164	O	1.006789	-0.599903	-0.505712
C165	C	1.000099	-0.516995	-0.607683
C166	C	1.053406	-0.557343	-0.554402
H167	H	1.037766	-0.482564	-0.647051
H168	H	0.962375	-0.555777	-0.645445
H169	H	0.960680	-0.482737	-0.569952
H170	H	1.092871	-0.591602	-0.592073
H171	H	1.091076	-0.518523	-0.516636
