data_functionalizedCrystal
_audit_creation_method	'MofGen! by Chris Wilmer'
_symmetry_space_group_name_H-M	'P1'
_symmetry_Int_Tables_number	1
_symmetry_cell_setting	triclinic
loop_
_symmetry_equiv_pos_as_xyz
  x,y,z
_cell_length_a	11.792254
_cell_length_b	15.995362
_cell_length_c	10.868271
_cell_angle_alpha	90.000252
_cell_angle_beta	90.004259
_cell_angle_gamma	96.152011
loop_
_atom_site_label
_atom_site_type_symbol
_atom_site_fract_x
_atom_site_fract_y
_atom_site_fract_z
O1	O	1.505949	-0.114813	0.102305
O2	O	1.839282	0.218520	0.435639
O3	O	2.172616	0.551854	0.768972
O4	O	1.175512	-0.126629	0.102306
O5	O	1.508845	0.206704	0.435640
O6	O	1.842179	0.540037	0.768973
O7	O	1.349756	0.001124	0.102315
O8	O	1.683089	0.334458	0.435648
O9	O	2.016423	0.667791	0.768981
O10	O	1.331705	-0.242567	0.102297
O11	O	1.665038	0.090766	0.435631
O12	O	1.998372	0.424100	0.768964
O13	O	1.349742	0.001129	-0.102330
O14	O	1.683075	0.334463	0.231003
O15	O	2.016408	0.667796	0.564337
O16	O	1.175498	-0.126624	-0.102338
O17	O	1.508831	0.206709	0.230995
O18	O	1.842164	0.540042	0.564328
O19	O	1.505935	-0.114808	-0.102339
O20	O	1.839268	0.218525	0.230994
O21	O	2.172601	0.551859	0.564327
Zn22	Zn	1.340714	-0.120715	-0.134831
Zn23	Zn	1.674047	0.212618	0.198503
Zn24	Zn	2.007381	0.545951	0.531836
Zn25	Zn	1.340733	-0.120722	0.134798
Zn26	Zn	1.674066	0.212611	0.468131
Zn27	Zn	2.007399	0.545945	0.801464
O28	O	1.331691	-0.242562	-0.102347
O29	O	1.665024	0.090771	0.230986
O30	O	1.998357	0.424105	0.564319
C31	C	1.133220	-0.125883	-0.000016
C32	C	1.466554	0.207451	0.333318
C33	C	1.799887	0.540784	0.666651
C34	C	1.007226	-0.123655	-0.000014
C35	C	1.340559	0.209679	0.333319
C36	C	1.673892	0.543012	0.666652
C37	C	0.904904	-0.121844	-0.000009
C38	C	1.238237	0.211489	0.333324
C39	C	1.571571	0.544822	0.666658
C40	C	0.776536	-0.119581	-0.000008
C41	C	1.109870	0.213753	0.333325
C42	C	1.443203	0.547086	0.666659
C43	C	1.349000	0.032325	-0.000003
C44	C	1.682333	0.365658	0.333330
C45	C	2.015667	0.698992	0.666664
C46	C	1.346756	0.125285	0.000012
C47	C	1.680089	0.458618	0.333345
C48	C	2.013422	0.791952	0.666678
C49	C	1.338694	0.463067	0.000035
C50	C	1.672028	0.796401	0.333368
C51	C	2.005361	1.129734	0.666702
C52	C	1.214598	0.416201	0.000491
C53	C	1.547932	0.749535	0.333824
C54	C	1.881265	1.082868	0.667158
C55	C	1.216844	0.319501	0.000022
C56	C	1.550177	0.652835	0.333355
C57	C	1.883510	0.986168	0.666688
C58	C	1.342693	0.295490	0.000024
C59	C	1.676026	0.628823	0.333357
C60	C	2.009359	0.962156	0.666691
C61	C	1.403892	0.336290	-0.116833
C62	C	1.737225	0.669623	0.216500
C63	C	2.070559	1.002956	0.549834
C64	C	1.400769	0.432939	-0.116923
C65	C	1.734102	0.766273	0.216410
C66	C	2.067436	1.099606	0.549744
C67	C	1.403349	0.433280	0.115796
C68	C	1.736682	0.766613	0.449130
C69	C	2.070015	1.099947	0.782463
C70	C	1.403325	0.336335	0.117333
C71	C	1.736658	0.669669	0.450666
C72	C	2.069992	1.003002	0.784000
C73	C	1.344959	0.200782	0.000014
C74	C	1.678293	0.534116	0.333347
C75	C	2.011626	0.867449	0.666680
C76	C	1.336432	0.557775	0.000037
C77	C	1.669765	0.891108	0.333370
C78	C	2.003098	1.224442	0.666704
C79	C	1.548226	-0.115555	-0.000015
C80	C	1.881560	0.217778	0.333319
C81	C	2.214893	0.551112	0.666652
C82	C	1.674221	-0.117783	-0.000008
C83	C	2.007554	0.215550	0.333326
C84	C	2.340888	0.548884	0.666659
N85	N	1.340709	-0.120710	-0.318845
N86	N	1.674043	0.212623	0.014489
N87	N	2.007376	0.545956	0.347822
C88	C	1.332432	0.726236	-0.000007
C89	C	1.665765	1.059570	0.333326
C90	C	1.999098	1.392903	0.666660
C91	C	1.334632	0.633272	0.000047
C92	C	1.667965	0.966605	0.333381
C93	C	2.001298	1.299939	0.666714
C94	C	1.340727	-0.120720	-0.569851
C95	C	1.674060	0.212613	-0.236517
C96	C	2.007394	0.545946	0.096816
C97	C	1.340713	-0.120717	-0.430173
C98	C	1.674047	0.212616	-0.096840
C99	C	2.007380	0.545949	0.236494
N100	N	1.340746	-0.120720	0.318812
N101	N	1.674080	0.212613	0.652145
N102	N	2.007413	0.545946	0.985478
H103	H	1.168736	0.291297	0.083789
H104	H	1.502069	0.624631	0.417123
H105	H	1.835403	0.957964	0.750456
H106	H	1.491878	0.464771	-0.122220
H107	H	1.825211	0.798104	0.211114
H108	H	2.158545	1.131437	0.544447
H109	H	1.362780	0.454003	0.204371
H110	H	1.696113	0.787336	0.537705
H111	H	2.029446	1.120670	0.871038
H112	H	1.165002	0.434958	0.084295
H113	H	1.498335	0.768291	0.417628
H114	H	1.831669	1.101624	0.750962
H115	H	1.356127	0.451447	-0.204279
H116	H	1.689461	0.784780	0.129054
H117	H	2.022794	1.118114	0.462387
Br118	Br	1.557997	0.312047	-0.124081
Br119	Br	1.891330	0.645380	0.209253
Br120	Br	2.224664	0.978714	0.542586
Br121	Br	1.333031	0.289318	-0.261792
Br122	Br	1.666364	0.622651	0.071542
Br123	Br	1.999698	0.955984	0.404875
Br124	Br	1.329374	0.290715	0.261444
Br125	Br	1.662707	0.624048	0.594778
Br126	Br	1.996040	0.957382	0.928111
H127	H	1.168401	0.291860	-0.083893
H128	H	1.501734	0.625194	0.249440
H129	H	1.835068	0.958527	0.582774
Br130	Br	1.556290	0.310027	0.129110
Br131	Br	1.889623	0.643360	0.462443
Br132	Br	2.222957	0.976693	0.795776
H133	H	1.165210	0.436023	-0.082843
H134	H	1.498544	0.769356	0.250490
H135	H	1.831877	1.102690	0.583824
Br136	Br	1.555846	0.485518	0.117118
Br137	Br	1.889180	0.818851	0.450451
Br138	Br	2.222513	1.152185	0.783784
