data_functionalizedCrystal
_audit_creation_method	'MofGen! by Chris Wilmer'
_symmetry_space_group_name_H-M	'P1'
_symmetry_Int_Tables_number	1
_symmetry_cell_setting	triclinic
loop_
_symmetry_equiv_pos_as_xyz
  x,y,z
_cell_length_a	19.121063
_cell_length_b	16.959455
_cell_length_c	16.959447
_cell_angle_alpha	89.985678
_cell_angle_beta	87.593376
_cell_angle_gamma	87.534106
loop_
_atom_site_label
_atom_site_type_symbol
_atom_site_fract_x
_atom_site_fract_y
_atom_site_fract_z
Zn1	Zn	-0.279656	-1.194915	0.460312
Zn2	Zn	-0.397117	-1.189180	0.333763
Zn3	Zn	-0.279678	-1.062742	0.328150
Zn4	Zn	-0.397064	-1.057053	0.465899
O5	O	-0.338379	-1.125973	0.397031
O6	O	-0.295250	-1.304764	0.443535
O7	O	-0.381570	-1.172389	0.222409
O8	O	-0.181391	-1.085056	0.340995
O9	O	-0.381548	-1.300551	0.350560
O10	O	-0.181375	-1.182163	0.438093
O11	O	-0.295288	-1.079495	0.218285
O12	O	-0.295237	-0.951377	0.346412
O13	O	-0.381459	-1.075360	0.575767
O14	O	-0.381480	-0.947198	0.447615
O15	O	-0.295199	-1.176646	0.571662
O16	O	-0.495394	-1.166873	0.355978
O17	O	-0.495356	-1.069800	0.453058
C18	C	-0.338356	-0.920608	0.397012
C19	C	-0.338363	-0.832751	0.397023
C20	C	-0.520859	-1.117118	0.405750
C21	C	-0.598924	-1.113402	0.409507
C22	C	-0.338321	-1.126008	0.603196
C23	C	-0.338296	-1.126024	0.691052
C24	C	-0.635597	-1.162236	0.360769
C25	C	-0.708948	-1.158746	0.364307
C26	C	-0.745625	-1.106417	0.416579
C27	C	-0.708948	-1.057581	0.465322
C28	C	-0.635598	-1.061076	0.461787
C29	C	-0.967094	-1.093339	0.429780
C30	C	-1.040449	-1.089847	0.433309
C31	C	-1.040443	-1.191013	0.332295
C32	C	-0.967092	-1.194500	0.328762
C33	C	-0.930421	-1.145667	0.377508
C34	C	-0.820602	-1.102847	0.420195
C35	C	-0.855446	-1.149242	0.373896
C36	C	-0.155186	-1.134884	0.388295
C37	C	-0.077121	-1.138681	0.384572
C38	C	-0.338403	-1.332140	0.397051
C39	C	-0.338413	-1.419996	0.397059
C40	C	-0.293435	-0.463428	0.344438
C41	C	-0.383380	-0.459118	0.449672
C42	C	-0.383370	-0.541664	0.449666
C43	C	-0.338393	-0.585096	0.397045
C44	C	-0.293425	-0.545982	0.344430
C45	C	-0.428342	-0.580784	0.502276
C46	C	-0.428334	-0.663336	0.502272
C47	C	-0.383353	-0.706770	0.449654
C48	C	-0.338383	-0.667650	0.397037
C49	C	-0.293405	-0.711082	0.344416
C50	C	-0.248431	-0.671965	0.291802
C51	C	-0.248444	-0.589416	0.291812
C52	C	-0.383340	-0.789319	0.449644
C53	C	-0.293395	-0.793636	0.344407
C54	C	-0.338386	-1.125985	0.191665
C55	C	-0.338213	-1.126133	0.103800
C56	C	-0.383133	-1.073386	1.064664
C57	C	-0.293311	-1.178857	1.060384
C58	C	-0.293326	-1.178835	0.977839
C59	C	-0.338246	-1.126089	0.938703
C60	C	-0.383151	-1.073365	0.982111
C61	C	-0.248426	-1.231564	0.934425
C62	C	-0.248440	-1.231545	0.851875
C63	C	-0.293357	-1.178794	0.812736
C64	C	-0.338263	-1.126067	0.856150
C65	C	-0.383183	-1.073321	0.817013
C66	C	-0.428087	-1.020590	0.860425
C67	C	-0.428068	-1.020614	0.942973
C68	C	-0.293376	-1.178770	0.730189
C69	C	-0.383201	-1.073299	0.734460
H70	H	-0.605739	-1.204845	0.318201
H71	H	-0.937242	-1.053576	0.469470
O72	O	-0.471916	-0.701421	0.553419
C73	C	-0.481458	-0.794149	0.660610
C74	C	-0.432026	-0.751084	0.602716
H75	H	-0.449226	-0.834299	0.700492
H76	H	-0.518128	-0.831070	0.626052
H77	H	-0.513620	-0.748909	0.698183
H78	H	-0.399819	-0.796270	0.565128
H79	H	-0.395402	-0.714149	0.637321
O80	O	-0.426677	-1.022057	1.106789
C81	C	-0.460779	-0.885951	1.133623
C82	C	-0.411411	-0.943993	1.085879
H83	H	-0.448463	-0.822825	1.116722
H84	H	-0.453049	-0.894952	1.199355
H85	H	-0.517412	-0.897116	1.120098
H86	H	-0.354758	-0.932865	1.099337
H87	H	-0.419200	-0.934979	1.020160
O88	O	-0.249850	-0.425394	0.293252
C89	C	-0.240285	-0.332581	0.186138
C90	C	-0.289725	-0.375616	0.244047
H91	H	-0.272503	-0.292314	0.146352
H92	H	-0.208150	-0.377769	0.148471
H93	H	-0.203589	-0.295759	0.220764
H94	H	-0.326463	-0.412437	0.209484
H95	H	-0.321810	-0.330388	0.281715
H96	H	-0.464664	-0.977647	0.828549
H97	H	-0.464628	-0.977686	0.978326
H98	H	-0.256743	-1.221804	1.092255
H99	H	-0.937231	-1.237110	0.286199
O100	O	-0.204823	-1.282729	0.972564
C101	C	-0.165032	-1.329544	1.097845
C102	C	-0.214435	-1.271540	1.054748
H103	H	-0.172797	-1.320529	1.164298
H104	H	-0.108382	-1.318426	1.078981
H105	H	-0.177378	-1.392664	1.082155
H106	H	-0.202152	-1.208398	1.070416
H107	H	-0.271071	-1.282726	1.073615
O108	O	-0.426740	-1.021981	0.696408
C109	C	-0.436207	-0.914812	0.603624
C110	C	-0.386819	-0.972870	0.646676
H111	H	-0.403952	-0.875102	0.563392
H112	H	-0.468281	-0.877076	0.648799
H113	H	-0.472961	-0.949321	0.566765
H114	H	-0.350022	-0.938424	0.683533
H115	H	-0.354795	-1.010607	0.601460
O116	O	-0.472085	-0.538716	0.553428
C117	C	-0.561246	-0.543144	0.657863
C118	C	-0.511760	-0.590886	0.599952
H119	H	-0.593325	-0.585304	0.695505
H120	H	-0.597984	-0.502716	0.623320
H121	H	-0.529021	-0.506060	0.697678
H122	H	-0.543928	-0.628016	0.560124
H123	H	-0.475020	-0.631264	0.634545
O124	O	-0.204753	-1.282789	0.809827
C125	C	-0.115685	-1.387434	0.814303
C126	C	-0.165115	-1.329433	0.862018
H127	H	-0.083636	-1.425172	0.856480
H128	H	-0.078916	-1.352958	0.773931
H129	H	-0.147952	-1.427151	0.777165
H130	H	-0.132905	-1.289702	0.899201
H131	H	-0.201886	-1.363958	0.902340
O132	O	-0.427128	-0.417051	0.500820
C133	C	-0.516291	-0.421484	0.605253
C134	C	-0.466798	-0.469224	0.547348
H135	H	-0.548366	-0.463645	0.642897
H136	H	-0.553033	-0.381065	0.570704
H137	H	-0.484072	-0.384390	0.645065
H138	H	-0.498959	-0.506363	0.507522
H139	H	-0.430054	-0.509592	0.581946
O140	O	-0.249697	-1.230015	0.688138
C141	C	-0.160640	-1.334671	0.692611
C142	C	-0.210062	-1.276663	0.740328
H143	H	-0.128593	-1.372412	0.734787
H144	H	-0.123869	-1.300201	0.652237
H145	H	-0.192912	-1.374384	0.655476
H146	H	-0.177847	-1.236936	0.777509
H147	H	-0.246835	-1.311183	0.780652
H148	H	-1.070309	-1.047244	0.475889
O149	O	-0.744441	-1.206349	0.316997
C150	C	-0.766676	-1.339825	0.279914
C151	C	-0.726460	-1.285968	0.333528
H152	H	-0.752165	-1.404208	0.293272
H153	H	-0.752270	-1.326754	0.215461
H154	H	-0.825412	-1.328378	0.291356
H155	H	-0.667715	-1.297385	0.322156
H156	H	-0.740924	-1.299050	0.397963
O157	O	-1.075957	-1.238483	0.284873
C158	C	-1.068210	-1.339235	0.184349
C159	C	-1.027904	-1.285502	0.237997
H160	H	-1.029377	-1.377276	0.146448
H161	H	-1.102584	-1.301377	0.144586
H162	H	-1.102516	-1.378873	0.222343
H163	H	-0.993560	-1.245855	0.200064
H164	H	-0.993574	-1.323408	0.277764
O165	O	-0.744652	-1.006855	0.516141
C166	C	-0.827372	-0.992212	0.626864
C167	C	-0.786995	-1.049748	0.569352
H168	H	-0.861605	-1.026869	0.669910
H169	H	-0.861811	-0.949276	0.592238
H170	H	-0.788548	-0.957892	0.661055
H171	H	-0.825769	-1.084121	0.535146
H172	H	-0.752546	-1.092632	0.604023
O173	O	-0.600048	-1.013675	0.509245
C174	C	-0.577506	-0.976338	0.642584
C175	C	-0.617823	-1.030049	0.588924
H176	H	-0.591851	-0.989569	0.707016
H177	H	-0.591989	-0.911905	0.629414
H178	H	-0.518786	-0.987815	0.631040
H179	H	-0.676552	-1.018642	0.600438
H180	H	-0.603281	-1.094464	0.602104
O181	O	-0.819790	-1.199959	0.323034
C182	C	-0.736998	-1.214589	0.212377
C183	C	-0.777356	-1.157067	0.269917
H184	H	-0.702669	-1.179935	0.169428
H185	H	-0.775772	-1.248882	0.178083
H186	H	-0.702636	-1.257549	0.247065
H187	H	-0.811719	-1.114060	0.235290
H188	H	-0.738544	-1.122831	0.304212
H189	H	-0.850473	-1.060239	0.462753
O190	O	-0.249726	-0.835945	0.293365
C191	C	-0.209880	-0.965025	0.246673
C192	C	-0.259359	-0.917210	0.304533
H193	H	-0.217662	-1.030736	0.255671
H194	H	-0.153249	-0.951600	0.257957
H195	H	-0.222137	-0.948129	0.183511
H196	H	-0.247166	-0.934079	0.367716
H197	H	-0.315976	-0.930640	0.293180
H198	H	-0.211814	-0.707338	0.248954
H199	H	-0.211829	-0.557559	0.248975
H200	H	-0.419959	-0.821164	0.492479
