data_functionalizedCrystal
_audit_creation_method	'MofGen! by Chris Wilmer'
_symmetry_space_group_name_H-M	'P1'
_symmetry_Int_Tables_number	1
_symmetry_cell_setting	triclinic
loop_
_symmetry_equiv_pos_as_xyz
  x,y,z
_cell_length_a	19.121321
_cell_length_b	19.121063
_cell_length_c	16.959447
_cell_angle_alpha	92.406624
_cell_angle_beta	92.425678
_cell_angle_gamma	89.929715
loop_
_atom_site_label
_atom_site_type_symbol
_atom_site_fract_x
_atom_site_fract_y
_atom_site_fract_z
Zn1	Zn	1.059784	-0.324740	-0.411576
Zn2	Zn	1.559784	0.175260	0.088424
Zn3	Zn	1.054698	-0.441984	-0.285261
Zn4	Zn	1.554698	0.058016	0.214739
Zn5	Zn	0.942559	-0.319775	-0.284805
Zn6	Zn	1.442559	0.180225	0.215195
Zn7	Zn	0.937513	-0.436947	-0.422786
Zn8	Zn	1.437513	0.063053	0.077214
O9	O	0.998639	-0.380862	-0.351107
O10	O	1.498639	0.119138	0.148893
O11	O	1.157211	-0.344479	-0.390319
O12	O	1.657211	0.155521	0.109681
O13	O	1.039806	-0.425804	-0.174592
O14	O	1.539806	0.074196	0.325408
O15	O	0.962349	-0.222330	-0.296740
O16	O	1.462349	0.277670	0.203260
O17	O	1.153474	-0.430618	-0.297516
O18	O	1.653474	0.069382	0.202484
O19	O	1.048474	-0.225978	-0.389878
O20	O	1.548474	0.274022	0.110122
O21	O	0.957417	-0.336017	-0.174257
O22	O	1.457417	0.163983	0.325743
O23	O	0.843788	-0.331132	-0.307610
O24	O	1.343788	0.168868	0.192390
O25	O	0.953750	-0.422032	-0.531908
O26	O	1.453750	0.077968	-0.031908
O27	O	0.840081	-0.417218	-0.408983
O28	O	1.340081	0.082782	0.091017
O29	O	1.043582	-0.339594	-0.523672
O30	O	1.543582	0.160406	-0.023672
O31	O	1.034913	-0.539420	-0.308386
O32	O	1.534913	-0.039420	0.191614
O33	O	0.948818	-0.535719	-0.409425
O34	O	1.448818	-0.035719	0.090575
C35	C	0.816498	-0.373090	-0.359464
C36	C	1.316498	0.126910	0.140536
C37	C	0.738577	-0.369782	-0.363059
C38	C	1.238577	0.130218	0.136941
C39	C	0.297969	-0.348772	-0.385851
C40	C	0.797969	0.151228	0.114149
C41	C	0.371184	-0.351893	-0.382470
C42	C	0.871184	0.148107	0.117530
C43	C	0.405840	-0.398228	-0.332376
C44	C	0.905840	0.101772	0.167624
C45	C	0.367277	-0.441449	-0.285666
C46	C	0.867277	0.058551	0.214334
C47	C	0.294063	-0.438331	-0.289052
C48	C	0.794063	0.061669	0.210948
C49	C	0.626800	-0.409886	-0.319735
C50	C	1.126800	0.090114	0.180265
C51	C	0.700019	-0.412999	-0.316351
C52	C	1.200019	0.087001	0.183649
C53	C	0.703921	-0.323443	-0.413156
C54	C	1.203921	0.176557	0.086844
C55	C	0.630706	-0.320327	-0.416534
C56	C	1.130706	0.179673	0.083466
C57	C	0.592149	-0.363550	-0.369827
C58	C	1.092149	0.136450	0.130173
C59	C	0.480677	-0.401418	-0.328917
C60	C	0.980677	0.098582	0.171083
C61	C	0.517313	-0.360364	-0.373291
C62	C	1.017313	0.139636	0.126709
C63	C	0.990785	-0.563007	-0.360188
C64	C	1.490785	-0.063007	0.139812
C65	C	0.987490	-0.640933	-0.364096
C66	C	1.487490	-0.140933	0.135904
C67	C	1.030801	-0.679448	-0.313367
C68	C	1.530801	-0.179448	0.186633
C69	C	1.027706	-0.752667	-0.317047
C70	C	1.527706	-0.252667	0.182953
C71	C	0.981295	-0.787370	-0.371453
C72	C	1.481295	-0.287370	0.128547
C73	C	0.937981	-0.748850	-0.422187
C74	C	1.437981	-0.248850	0.077813
C75	C	0.941081	-0.675632	-0.418511
C76	C	1.441081	-0.175632	0.081489
C77	C	0.969696	-1.008345	-0.385188
C78	C	1.469696	-0.508345	0.114812
C79	C	0.966598	-1.081568	-0.388859
C80	C	1.466598	-0.581568	0.111141
C81	C	1.056324	-1.085380	-0.283719
C82	C	1.556324	-0.585380	0.216281
C83	C	1.059416	-1.012161	-0.280044
C84	C	1.559416	-0.512161	0.219956
C85	C	1.016105	-0.973647	-0.330781
C86	C	1.516105	-0.473647	0.169219
C87	C	0.978128	-0.862212	-0.375214
C88	C	1.478128	-0.362212	0.124786
C89	C	1.019276	-0.898807	-0.327023
C90	C	1.519276	-0.398807	0.172977
C91	C	1.181491	-0.388664	-0.342718
C92	C	1.681491	0.111336	0.157282
C93	C	1.259411	-0.391989	-0.339143
C94	C	1.759411	0.108011	0.160857
C95	C	0.998670	-0.380805	-0.557271
C96	C	1.498670	0.119195	-0.057271
C97	C	0.998684	-0.380781	-0.645126
C98	C	1.498684	0.119219	-0.145126
C99	C	1.006542	-0.198005	-0.342008
C100	C	1.506542	0.301995	0.157992
C101	C	1.009910	-0.120083	-0.338130
C102	C	1.509910	0.379917	0.161870
C103	C	0.951999	-0.423632	-1.020885
C104	C	1.451999	0.076368	-0.520885
C105	C	1.045542	-0.337789	-1.012304
C106	C	1.545542	0.162211	-0.512304
C107	C	1.045523	-0.337803	-0.929759
C108	C	1.545523	0.162197	-0.429759
C109	C	0.998742	-0.380733	-0.892774
C110	C	1.498742	0.119267	-0.392774
C111	C	0.951980	-0.423649	-0.938333
C112	C	1.451980	0.076351	-0.438333
C113	C	1.092289	-0.294893	-0.884195
C114	C	1.592289	0.205107	-0.384195
C115	C	1.092272	-0.294906	-0.801645
C116	C	1.592272	0.205094	-0.301645
C117	C	1.045487	-0.337833	-0.764658
C118	C	1.545487	0.162167	-0.264658
C119	C	0.998722	-0.380750	-0.810222
C120	C	1.498722	0.119250	-0.310222
C121	C	0.951941	-0.423680	-0.773237
C122	C	1.451941	0.076320	-0.273237
C123	C	0.905173	-0.466594	-0.818799
C124	C	1.405173	0.033406	-0.318799
C125	C	0.905195	-0.466575	-0.901346
C126	C	1.405195	0.033425	-0.401346
C127	C	1.045465	-0.337851	-0.682111
C128	C	1.545465	0.162149	-0.182111
C129	C	0.951922	-0.423697	-0.690685
C130	C	1.451922	0.076303	-0.190685
C131	C	0.998650	-0.380869	-0.145741
C132	C	1.498650	0.119131	0.354259
C133	C	0.998780	-0.380702	-0.057870
C134	C	1.498780	0.119298	0.442130
H135	H	0.728233	-0.450733	-0.275557
H136	H	1.228233	0.049267	0.224443
H137	H	0.913920	-0.458569	-1.057985
H138	H	1.413920	0.041431	-0.557985
H139	H	0.905813	-0.644274	-0.459821
H140	H	1.405813	-0.144274	0.040179
H141	H	0.913821	-0.458649	-0.660578
H142	H	1.413821	0.041351	-0.160578
H143	H	1.130379	-0.259946	-0.914314
H144	H	1.630379	0.240054	-0.414314
H145	H	0.395499	-0.479179	-0.244882
H146	H	0.895499	0.020821	0.255118
H147	H	1.130353	-0.259962	-0.764555
H148	H	1.630353	0.240038	-0.264555
H149	H	0.940339	-0.890475	-0.419510
H150	H	1.440339	-0.390475	0.080490
H151	H	1.097208	-0.983907	-0.235742
H152	H	1.597208	-0.483907	0.264258
H153	H	1.057067	-0.870550	-0.282728
H154	H	1.557067	-0.370550	0.217272
H155	H	0.595416	-0.445080	-0.281701
H156	H	1.095416	0.054920	0.218299
H157	H	0.900195	-0.777111	-0.466489
H158	H	1.400195	-0.277111	0.033511
H159	H	1.091586	-1.116745	-0.242412
H160	H	1.591586	-0.616745	0.257588
H161	H	0.402574	-0.316704	-0.420507
H162	H	0.902574	0.183296	0.079493
H163	H	0.602494	-0.282598	-0.457329
H164	H	1.102494	0.217402	0.042671
H165	H	0.928813	-1.109822	-0.433176
H166	H	1.428813	-0.609822	0.066824
H167	H	1.083545	-0.302913	-0.645018
H168	H	1.583545	0.197087	-0.145018
H169	H	0.262670	-0.473524	-0.251019
H170	H	0.762670	0.026476	0.248981
H171	H	0.934429	-0.976993	-0.426499
H172	H	1.434429	-0.476993	0.073501
H173	H	0.269758	-0.311037	-0.426638
H174	H	0.769758	0.188963	0.073362
H175	H	1.083633	-0.302841	-1.042423
H176	H	1.583633	0.197159	-0.542423
H177	H	0.867121	-0.501516	-0.938450
H178	H	1.367121	-0.001516	-0.438450
H179	H	0.735321	-0.288254	-0.451182
H180	H	1.235321	0.211746	0.048818
H181	H	0.508902	-0.439141	-0.288127
H182	H	1.008902	0.060859	0.211873
H183	H	0.867087	-0.501550	-0.788675
H184	H	1.367087	-0.001550	-0.288675
H185	H	1.068591	-0.651197	-0.269060
H186	H	1.568591	-0.151197	0.230940
H187	H	1.062975	-0.784022	-0.275737
H188	H	1.562975	-0.284022	0.224263
H189	H	0.489093	-0.322641	-0.414080
H190	H	0.989093	0.177359	0.085920
