data_functionalizedCrystal
_audit_creation_method	'MofGen! by Chris Wilmer'
_symmetry_space_group_name_H-M	'P1'
_symmetry_Int_Tables_number	1
_symmetry_cell_setting	triclinic
loop_
_symmetry_equiv_pos_as_xyz
  x,y,z
_cell_length_a	19.188930
_cell_length_b	10.540535
_cell_length_c	9.616153
_cell_angle_alpha	89.996418
_cell_angle_beta	89.979265
_cell_angle_gamma	83.834211
loop_
_atom_site_label
_atom_site_type_symbol
_atom_site_fract_x
_atom_site_fract_y
_atom_site_fract_z
O1	O	0.927202	0.158465	-0.116097
O2	O	0.724033	0.179798	-0.116003
O3	O	0.830255	-0.015678	-0.116038
O4	O	0.820981	0.353940	-0.116062
O5	O	0.830240	-0.015674	0.115253
O6	O	0.724019	0.179802	0.115289
O7	O	0.927188	0.158469	0.115194
Zn8	Zn	0.825601	0.169136	0.151964
Zn9	Zn	0.825620	0.169130	-0.152773
O10	O	0.820966	0.353945	0.115230
C11	C	0.698010	0.179109	-0.000345
C12	C	0.620492	0.177035	-0.000308
C13	C	0.829553	-0.062964	-0.000391
C14	C	0.827474	-0.203866	-0.000389
C15	C	0.749919	-0.238828	-0.000362
C16	C	0.747732	-0.385380	-0.000911
C17	C	0.862885	-0.413973	-0.132258
C18	C	0.864535	-0.267244	-0.132345
C19	C	0.865646	-0.267403	0.130685
C20	C	0.862059	-0.413670	0.132395
C21	C	0.576332	0.291734	-0.000337
C22	C	0.503495	0.289785	-0.000352
C23	C	0.474822	0.173132	-0.000366
C24	C	0.518992	0.058418	-0.000329
C25	C	0.591827	0.060370	-0.000300
N26	N	0.366253	0.083964	-0.079135
N27	N	0.297062	0.082118	-0.079166
C28	C	0.255374	0.167245	-0.000451
N29	N	0.285489	0.254308	0.078278
N30	N	0.354686	0.256158	0.078303
C31	C	0.395845	0.171003	-0.000397
C32	C	0.132235	0.279839	-0.000495
C33	C	0.059397	0.277886	-0.000501
C34	C	0.074896	0.046516	-0.000492
C35	C	0.147732	0.048472	-0.000471
C36	C	0.176397	0.165137	-0.000479
C37	C	0.953211	0.159158	-0.000467
C38	C	1.030729	0.161232	-0.000513
C39	C	0.821668	0.401230	-0.000420
C40	C	0.823747	0.542133	-0.000432
N41	N	0.825593	0.169139	0.359938
N42	N	0.825634	0.169117	-0.360747
C43	C	0.768598	0.273363	0.580327
C44	C	0.768723	0.273746	0.419160
C45	C	0.898588	0.197664	0.418351
C46	C	0.898277	0.198400	0.579569
C47	C	0.810320	0.036037	0.579867
C48	C	0.808644	0.036939	0.418641
H49	H	0.717118	-0.414048	0.093561
H50	H	0.942079	0.125445	0.618542
Br51	Br	0.700264	-0.167787	0.157187
H52	H	0.758217	0.008505	0.620631
Br53	Br	-0.000538	0.433563	-0.000528
H54	H	0.627783	-0.033035	-0.000277
Br55	Br	0.615231	0.450064	-0.000346
H56	H	0.051551	-0.048466	-0.000590
H57	H	0.717289	-0.413156	-0.095950
H58	H	0.778567	0.372513	0.380568
Br59	Br	0.480080	-0.099898	-0.000334
Br60	Br	0.954554	-0.497358	0.146227
H61	H	0.911671	0.295443	0.617143
Br62	Br	0.171142	0.438166	-0.000495
H63	H	0.778313	0.371572	0.620814
Br64	Br	0.818155	-0.464480	-0.296376
Br65	Br	0.677909	0.245586	0.645018
H66	H	0.467533	0.383190	-0.000372
Br67	Br	0.956173	-0.494950	-0.139863
Br68	Br	0.207668	-0.107199	-0.000435
Br69	Br	0.678311	0.245607	0.353336
H70	H	0.942067	0.123743	0.379984
H71	H	0.922705	-0.246465	0.131944
H72	H	0.912280	0.293600	0.377947
Br73	Br	0.825300	-0.195760	0.297290
H74	H	0.754946	0.015281	0.380468
Br75	Br	0.873302	-0.098365	0.351482
Br76	Br	0.814590	-0.460304	0.294953
Br77	Br	0.959294	-0.230937	-0.141692
Br78	Br	0.701118	-0.165314	-0.157649
Br79	Br	0.820503	-0.199301	-0.297176
Br80	Br	0.879631	-0.093254	0.643370
