data_functionalizedCrystal
_audit_creation_method	'MofGen! by Chris Wilmer'
_symmetry_space_group_name_H-M	'P1'
_symmetry_Int_Tables_number	1
_symmetry_cell_setting	triclinic
loop_
_symmetry_equiv_pos_as_xyz
  x,y,z
_cell_length_a	12.827893
_cell_length_b	12.759394
_cell_length_c	12.827885
_cell_angle_alpha	89.968586
_cell_angle_beta	89.980728
_cell_angle_gamma	90.014808
loop_
_atom_site_label
_atom_site_type_symbol
_atom_site_fract_x
_atom_site_fract_y
_atom_site_fract_z
Zn1	Zn	1.597674	-0.418214	-0.590838
Zn2	Zn	2.097674	0.081786	-0.090838
Zn3	Zn	1.597569	-0.593931	-0.416094
Zn4	Zn	2.097569	-0.093931	0.083906
Zn5	Zn	1.422915	-0.418266	-0.416112
Zn6	Zn	1.922915	0.081734	0.083888
Zn7	Zn	1.422902	-0.593852	-0.590794
Zn8	Zn	1.922902	-0.093852	-0.090794
O9	O	1.510265	-0.506066	-0.503460
O10	O	2.010265	-0.006066	-0.003460
O11	O	1.743896	-0.441535	-0.567669
O12	O	2.243896	0.058465	-0.067669
O13	O	1.574363	-0.570683	-0.269860
O14	O	2.074363	-0.070683	0.230140
O15	O	1.446146	-0.271238	-0.439316
O16	O	1.946146	0.228762	0.060684
O17	O	1.743819	-0.570633	-0.439285
O18	O	2.243819	-0.070633	0.060715
O19	O	1.574541	-0.271200	-0.567686
O20	O	2.074541	0.228800	-0.067686
O21	O	1.446045	-0.441623	-0.269873
O22	O	1.946045	0.058377	0.230127
O23	O	1.276677	-0.441547	-0.439273
O24	O	1.776677	0.058453	0.060727
O25	O	1.446124	-0.570499	-0.737036
O26	O	1.946124	-0.070499	-0.237036
O27	O	1.276668	-0.570549	-0.567611
O28	O	1.776668	-0.070549	-0.067611
O29	O	1.574528	-0.441459	-0.737069
O30	O	2.074528	0.058541	-0.237069
O31	O	1.574350	-0.740941	-0.439243
O32	O	2.074350	-0.240941	0.060757
O33	O	1.446023	-0.740884	-0.567594
O34	O	1.946023	-0.240884	-0.067594
C35	C	1.238755	-0.506046	-0.503440
C36	C	1.738755	-0.006046	-0.003440
C37	C	1.122602	-0.506062	-0.503456
C38	C	1.622602	-0.006062	-0.003456
C39	C	1.070840	-0.569996	-0.566864
C40	C	1.570840	-0.069996	-0.066864
C41	C	0.950790	-0.570015	-0.566882
C42	C	1.450790	-0.070015	-0.066882
C43	C	1.510202	-0.779033	-0.503434
C44	C	2.010202	-0.279033	-0.003434
C45	C	1.510271	-0.895810	-0.503458
C46	C	2.010271	-0.395810	-0.003458
C47	C	1.643999	-0.895817	-0.369906
C48	C	2.143999	-0.395817	0.130094
C49	C	1.710890	-0.950681	-0.303143
C50	C	2.210890	-0.450681	0.196857
C51	C	1.710951	-1.060403	-0.303171
C52	C	2.210951	-0.560403	0.196829
C53	C	1.644116	-1.115263	-0.369973
C54	C	2.144116	-0.615263	0.130027
C55	C	1.577225	-1.060398	-0.436736
C56	C	2.077225	-0.560398	0.063264
C57	C	1.577169	-0.950674	-0.436698
C58	C	2.077169	-0.450674	0.063302
C59	C	1.443504	-1.060391	-0.570292
C60	C	1.943504	-0.560391	-0.070292
C61	C	1.443436	-0.950670	-0.570260
C62	C	1.943436	-0.450670	-0.070260
C63	C	1.376670	-1.115251	-0.637094
C64	C	1.876670	-0.615251	-0.137094
C65	C	1.309772	-1.060387	-0.703854
C66	C	1.809772	-0.560387	-0.203854
C67	C	1.309712	-0.950659	-0.703822
C68	C	1.809712	-0.450659	-0.203822
C69	C	1.376545	-0.895806	-0.637024
C70	C	1.876545	-0.395806	-0.137024
C71	C	1.782835	-0.506087	-0.503480
C72	C	2.282835	-0.006087	-0.003480
C73	C	1.898988	-0.506096	-0.503489
C74	C	2.398988	-0.006096	-0.003489
C75	C	1.510336	-0.505964	-0.776030
C76	C	2.010336	-0.005964	-0.276030
C77	C	1.510366	-0.505921	-0.892183
C78	C	2.010366	-0.005921	-0.392183
C79	C	1.510356	-0.232032	-0.503508
C80	C	2.010356	0.267968	-0.003508
C81	C	1.510395	-0.115256	-0.503528
C82	C	2.010395	0.384744	-0.003528
C83	C	1.446924	-0.442002	-1.064019
C84	C	1.946924	0.057998	-0.564019
C85	C	1.446891	-0.442045	-0.943968
C86	C	1.946891	0.057955	-0.443968
C87	C	1.510254	-0.506091	-0.231950
C88	C	2.010254	-0.006091	0.268050
C89	C	1.510426	-0.505839	-0.115797
C90	C	2.010426	-0.005839	0.384203
H91	H	0.943496	-0.451360	-0.449197
H92	H	1.443496	0.048640	0.050803
H93	H	1.765425	-1.105073	-0.248811
H94	H	2.265425	-0.605073	0.251189
F95	F	1.129080	-0.641528	-0.637801
F96	F	1.629080	-0.141528	-0.137801
H97	H	1.078041	-0.451336	-0.449188
H98	H	1.578041	0.048664	0.050812
F99	F	1.644168	-0.779041	-0.370100
F100	F	2.144168	-0.279041	0.129900
H101	H	1.392585	-0.387313	-1.108566
H102	H	1.892585	0.112687	-0.608566
F103	F	1.238522	-0.892276	-0.774888
F104	F	1.738522	-0.392276	-0.274888
H105	H	1.392521	-0.387395	-0.899440
H106	H	1.892521	0.112605	-0.399440
H107	H	1.376497	-0.806465	-0.636984
H108	H	1.876497	-0.306465	-0.136984
H109	H	1.564735	-0.560578	-0.936705
H110	H	2.064735	-0.060578	-0.436705
H111	H	1.564773	-0.560520	-1.071250
H112	H	2.064773	-0.060520	-0.571250
H113	H	1.765308	-0.906005	-0.248755
H114	H	2.265308	-0.406005	0.251245
F115	F	1.643839	-1.232037	-0.369653
F116	F	2.143839	-0.732037	0.130347
H117	H	1.376729	-1.204592	-0.637117
H118	H	1.876729	-0.704592	-0.137117
H119	H	1.255365	-1.105063	-0.758243
H120	H	1.755365	-0.605063	-0.258243
F121	F	0.892611	-0.641567	-0.637835
F122	F	1.392611	-0.141567	-0.137835
