data_functionalizedCrystal
_audit_creation_method	'MofGen! by Chris Wilmer'
_symmetry_space_group_name_H-M	'P1'
_symmetry_Int_Tables_number	1
_symmetry_cell_setting	triclinic
loop_
_symmetry_equiv_pos_as_xyz
  x,y,z
_cell_length_a	17.038272
_cell_length_b	16.956984
_cell_length_c	16.053802
_cell_angle_alpha	87.610701
_cell_angle_beta	92.751609
_cell_angle_gamma	83.582487
loop_
_atom_site_label
_atom_site_type_symbol
_atom_site_fract_x
_atom_site_fract_y
_atom_site_fract_z
O1	O	0.028759	1.063355	-0.069433
O2	O	0.056089	0.833051	-0.069434
O3	O	-0.071303	0.946834	-0.069427
O4	O	0.156151	0.949572	-0.069441
O5	O	-0.064318	0.940569	0.069431
O6	O	0.063074	0.826786	0.069424
O7	O	0.035744	1.057090	0.069425
Zn8	Zn	0.050518	0.940943	0.091471
Zn9	Zn	0.041315	0.949197	-0.091481
O10	O	0.163136	0.943307	0.069418
C11	C	0.060981	0.800305	-0.000005
C12	C	0.065142	0.712067	-0.000006
C13	C	-0.004426	0.675263	0.000000
C14	C	-0.000512	0.592354	-0.000006
C15	C	0.072970	0.546249	-0.000012
C16	C	0.142543	0.583059	-0.000020
C17	C	0.138628	0.665967	-0.000020
C18	C	0.092348	0.297792	-0.000019
C19	C	0.096258	0.214878	-0.000017
C20	C	-0.046798	0.224179	-0.000004
C21	C	-0.050706	0.307088	0.000001
C22	C	0.018866	0.343890	-0.000012
N23	N	0.076973	0.461502	-0.000016
N24	N	0.014863	0.428636	-0.000014
C25	C	-0.096779	0.941211	0.000002
C26	C	-0.183093	0.933783	0.000002
C27	C	-0.237598	1.001985	0.000003
C28	C	-0.318699	0.995000	-0.000005
C29	C	-0.345294	0.919814	-0.000008
C30	C	-0.290783	0.851607	-0.000012
C31	C	-0.209683	0.858592	-0.000010
C32	C	-0.589464	0.895137	-0.000020
C33	C	-0.670570	0.888156	-0.000019
C34	C	-0.698481	1.031551	-0.000014
C35	C	-0.617378	1.038529	-0.000007
C36	C	-0.562875	0.970322	-0.000015
C37	C	-0.428192	0.912673	-0.000014
C38	C	-0.479978	0.977464	-0.000016
C39	C	0.188611	0.948929	-0.000013
C40	C	0.274925	0.956358	-0.000018
C41	C	0.030851	1.089835	-0.000006
C42	C	0.026690	1.178074	-0.000011
N43	N	0.056798	0.935316	0.216331
N44	N	0.035028	0.954831	-0.216341
C45	C	0.002609	0.983751	0.260028
C46	C	0.007009	0.979822	0.347435
C47	C	0.065601	0.927462	0.391143
C48	C	0.119792	0.879022	0.347440
C49	C	0.115389	0.882947	0.260035
C50	C	0.084816	0.910316	0.652551
C51	C	0.089217	0.906396	0.739962
C52	C	-0.023568	1.007195	0.739952
C53	C	-0.027964	1.011119	0.652545
C54	C	0.026225	0.962676	0.608849
N55	N	0.070101	0.923447	0.480486
N56	N	0.021720	0.966688	0.519508
H57	H	0.195278	0.695931	-0.000020
H58	H	0.159514	0.843505	0.224457
H59	H	-0.037116	1.019261	0.383013
H60	H	-0.363075	1.050538	-0.000002
H61	H	0.156100	0.177341	-0.000017
H62	H	-0.075675	1.053755	0.616960
H63	H	-0.067687	1.046635	0.775536
H64	H	0.148999	0.327746	-0.000035
H65	H	-0.045100	1.026391	0.224447
H66	H	-0.742866	1.087080	-0.000009
H67	H	-0.103440	0.194205	-0.000004
H68	H	-0.110543	0.344621	0.000009
H69	H	0.136933	0.863756	0.775545
H70	H	0.128940	0.870873	0.616981
H71	H	-0.595732	1.099754	-0.000004
H72	H	-0.692218	0.826927	-0.000008
H73	H	0.202374	0.545514	-0.000030
H74	H	-0.064264	0.712796	0.000008
H75	H	0.167497	0.836385	0.383032
H76	H	-0.545096	0.839598	-0.000026
H77	H	-0.215952	1.063209	0.000011
H78	H	-0.312443	0.790389	-0.000020
H79	H	-0.165305	0.803055	-0.000011
H80	H	-0.057162	0.562392	-0.000002
H81	H	-0.449855	0.851455	-0.000015
H82	H	-0.458322	1.038682	-0.000031
