data_functionalizedCrystal
_audit_creation_method	'MofGen! by Chris Wilmer'
_symmetry_space_group_name_H-M	'P1'
_symmetry_Int_Tables_number	1
_symmetry_cell_setting	triclinic
loop_
_symmetry_equiv_pos_as_xyz
  x,y,z
_cell_length_a	19.077269
_cell_length_b	12.594516
_cell_length_c	19.076919
_cell_angle_alpha	87.724265
_cell_angle_beta	85.330942
_cell_angle_gamma	87.714783
loop_
_atom_site_label
_atom_site_type_symbol
_atom_site_fract_x
_atom_site_fract_y
_atom_site_fract_z
Zn1	Zn	1.061729	-0.509834	0.355289
Zn2	Zn	1.066408	-0.680951	0.237415
Zn3	Zn	0.948584	-0.496119	0.242156
Zn4	Zn	0.943839	-0.680897	0.359998
O5	O	1.005140	-0.591950	0.298714
O6	O	1.160997	-0.538296	0.335698
O7	O	1.054723	-0.650715	0.139396
O8	O	0.963620	-0.348995	0.257177
O9	O	1.164435	-0.664014	0.249096
O10	O	1.046747	-0.359072	0.340296
O11	O	0.968158	-0.514920	0.142879
O12	O	0.849307	-0.514868	0.261743
O13	O	0.955533	-0.663923	0.458021
O14	O	0.845822	-0.650624	0.348320
O15	O	1.042146	-0.538244	0.454562
O16	O	1.050122	-0.829887	0.253662
O17	O	0.960071	-0.829848	0.343723
C18	C	0.821986	-0.581253	0.306058
C19	C	0.743632	-0.576703	0.309216
C20	C	0.708610	-0.639905	0.265543
C21	C	0.634987	-0.635631	0.268520
C22	C	0.596387	-0.568147	0.315166
C23	C	0.631414	-0.504942	0.358843
C24	C	0.705035	-0.509223	0.355869
C25	C	0.376011	-0.548343	0.328905
C26	C	0.302384	-0.544065	0.331874
C27	C	0.305963	-0.674756	0.241552
C28	C	0.379586	-0.679026	0.238579
C29	C	0.414606	-0.615825	0.282259
N30	N	0.521133	-0.563774	0.318208
N31	N	0.489859	-0.620204	0.279220
C32	C	1.005108	-0.868489	0.298703
C33	C	1.005158	-0.986798	0.298720
C34	C	1.054189	-1.056040	0.249784
C35	C	1.068827	-1.131502	0.313434
C36	C	0.990606	-1.122143	0.235106
C37	C	1.019827	-1.060705	0.362403
C38	C	0.941578	-1.051336	0.284033
C39	C	0.956190	-1.126767	0.347729
C40	C	1.189009	-0.602691	0.291343
C41	C	1.267363	-0.607268	0.288202
C42	C	0.997789	-0.602607	0.482585
C43	C	0.994656	-0.607149	0.560939
C44	C	1.005191	-0.314334	0.298740
C45	C	1.005213	-0.196031	0.298751
C46	C	1.012503	-0.581260	0.115558
C47	C	1.015773	-0.576427	0.037198
C48	C	1.038277	-0.543851	0.595950
C49	C	1.035325	-0.548114	0.669573
C50	C	0.988755	-0.615680	0.708183
C51	C	0.945129	-0.678981	0.673167
C52	C	0.948078	-0.674712	0.599546
C53	C	0.975096	-0.635459	0.928561
C54	C	0.972152	-0.639725	1.002187
C55	C	1.062347	-0.508856	0.998588
C56	C	1.065294	-0.504598	0.924965
C57	C	1.021666	-0.567894	0.889956
N58	N	0.985738	-0.620041	0.783438
N59	N	1.024680	-0.563527	0.814703
H60	H	0.606476	-0.687097	0.232957
N61	N	1.079884	-0.483473	0.705347
N62	N	1.077245	-0.487288	0.771080
H63	H	1.108716	-0.441632	0.796346
N64	N	1.035395	-1.026838	0.429919
N65	N	1.092470	-1.055139	0.454064
H66	H	1.103469	-1.031219	0.501746
N67	N	0.930540	-0.700107	0.892794
N68	N	0.933169	-0.696285	0.827062
H69	H	0.901697	-0.741942	0.801798
H70	H	1.095658	-1.024990	0.208436
H71	H	0.914748	-1.157628	0.389172
H72	H	1.097865	-0.457322	1.027101
N73	N	0.874125	-1.007314	0.268388
N74	N	0.868792	-0.945791	0.215889
H75	H	0.821153	-0.914698	0.204831
N76	N	0.975144	-1.156191	0.167601
N77	N	1.014665	-1.132689	0.114206
H78	H	1.003750	-1.156732	0.066528
N79	N	0.591998	-0.436017	0.406504
N80	N	0.623278	-0.379603	0.445501
H81	H	0.595442	-0.330927	0.479167
H82	H	1.122618	-1.166561	0.325875
H83	H	0.411009	-0.733977	0.200594
N84	N	0.897548	-0.747973	0.712611
N85	N	0.850994	-0.710265	0.755493
H86	H	0.817388	-0.758990	0.783353
H87	H	1.076201	-0.488834	0.564519
N88	N	1.112875	-0.435583	0.885539
N89	N	1.151822	-0.379076	0.916808
H90	H	1.185431	-0.330338	0.888964
N91	N	0.903511	-0.739369	0.563791
N92	N	0.861932	-0.799690	0.598271
H93	H	0.830452	-0.845353	0.573021
H94	H	0.934227	-0.694749	1.033622
H95	H	0.740033	-0.694853	0.227557
H96	H	0.277442	-0.726212	0.205991
H97	H	0.404515	-0.496882	0.364473
N98	N	0.262964	-0.475157	0.379550
N99	N	0.294238	-0.418758	0.418561
H100	H	0.266398	-0.370106	0.452239
H101	H	0.733549	-0.457756	0.391432
