data_functionalizedCrystal
_audit_creation_method	'MofGen! by Chris Wilmer'
_symmetry_space_group_name_H-M	'P1'
_symmetry_Int_Tables_number	1
_symmetry_cell_setting	triclinic
loop_
_symmetry_equiv_pos_as_xyz
  x,y,z
_cell_length_a	18.215407
_cell_length_b	18.215404
_cell_length_c	12.759393
_cell_angle_alpha	90.033458
_cell_angle_beta	89.980045
_cell_angle_gamma	89.978718
loop_
_atom_site_label
_atom_site_type_symbol
_atom_site_fract_x
_atom_site_fract_y
_atom_site_fract_z
Zn1	Zn	1.125100	0.292999	-0.593971
Zn2	Zn	1.125004	0.416083	-0.418282
Zn3	Zn	1.002026	0.293029	-0.418309
Zn4	Zn	1.002000	0.416022	-0.593922
O5	O	1.063532	0.354533	-0.506121
O6	O	1.228071	0.309338	-0.570674
O7	O	1.108661	0.399797	-0.271264
O8	O	1.018402	0.190041	-0.441643
O9	O	1.228001	0.399768	-0.441596
O10	O	1.108824	0.190018	-0.570701
O11	O	1.018309	0.309390	-0.271284
O12	O	0.899038	0.309332	-0.441595
O13	O	1.018359	0.399665	-0.740950
O14	O	0.899019	0.399695	-0.570618
O15	O	1.108800	0.309280	-0.740986
O16	O	1.108636	0.519059	-0.441549
O17	O	1.018266	0.519015	-0.570591
C18	C	0.872326	0.354511	-0.506105
C19	C	0.790527	0.354519	-0.506123
C20	C	0.525479	0.401662	-0.573211
C21	C	0.602338	0.401656	-0.573206
C22	C	0.602327	0.307421	-0.439050
C23	C	0.525469	0.307431	-0.439050
C24	C	0.487048	0.354551	-0.506137
C25	C	0.640764	0.354534	-0.506131
C26	C	0.724097	0.354527	-0.506125
C27	C	0.403709	0.354559	-0.506142
C28	C	1.063458	0.545739	-0.506085
C29	C	1.063494	0.627538	-0.506105
C30	C	1.110663	0.815731	-0.439050
C31	C	1.110698	0.892590	-0.439082
C32	C	1.016514	0.892583	-0.573343
C33	C	1.016484	0.815726	-0.573316
C34	C	1.063557	0.777302	-0.506164
C35	C	1.063622	0.931018	-0.506222
C36	C	1.063659	1.014351	-0.506256
C37	C	1.063522	0.693963	-0.506131
C38	C	1.255485	0.354556	-0.506138
C39	C	1.337284	0.354566	-0.506145
C40	C	1.063631	1.162580	-0.506199
C41	C	1.063686	1.080781	-0.506281
C42	C	1.063587	0.354463	-0.780154
C43	C	1.063611	0.354432	-0.896931
C44	C	1.110707	0.307361	-0.951813
C45	C	1.110719	0.307330	-1.061538
C46	C	1.016538	0.401446	-1.061488
C47	C	1.016522	0.401474	-0.951765
C48	C	1.063520	0.354550	-0.233154
C49	C	1.063639	0.354373	-0.116377
H50	H	0.633619	0.269056	-0.384432
H51	H	0.633625	0.440020	-0.627823
H52	H	0.978202	0.439747	-1.106147
C53	C	0.965283	0.934208	-0.646182
C54	C	0.892472	0.915565	-0.623222
C55	C	0.845257	0.953885	-0.690308
H56	H	0.971944	0.985497	-0.636653
H57	H	0.975978	0.921547	-0.716799
H58	H	0.881782	0.928231	-0.552621
H59	H	0.885788	0.864282	-0.632756
H60	H	0.855951	0.941224	-0.760926
H61	H	0.851924	1.005172	-0.680775
H62	H	0.795850	0.941236	-0.674746
H63	H	0.978166	0.439804	-0.907079
C64	C	0.483840	0.256320	-0.366042
C65	C	0.502530	0.272256	-0.262061
C66	C	0.464207	0.225187	-0.194773
H67	H	0.432552	0.263026	-0.375495
H68	H	0.496468	0.206870	-0.381471
H69	H	0.489898	0.321694	-0.246637
H70	H	0.553812	0.265547	-0.252574
H71	H	0.476835	0.175737	-0.210202
H72	H	0.412920	0.231896	-0.204236
H73	H	0.476888	0.235989	-0.124215
H74	H	0.494198	0.440031	-0.627836
C75	C	1.161855	0.774145	-0.366110
C76	C	1.203128	0.824254	-0.307362
C77	C	1.250302	0.785974	-0.240169
H78	H	1.133792	0.744209	-0.320191
H79	H	1.193932	0.744130	-0.406307
H80	H	1.171055	0.854256	-0.267168
H81	H	1.231206	0.854191	-0.353253
H82	H	1.282380	0.755959	-0.280366
H83	H	1.222234	0.756040	-0.194257
H84	H	1.278317	0.819967	-0.200307
H85	H	1.149057	0.923875	-0.384432
H86	H	1.149068	0.268998	-1.106218
H87	H	0.978124	0.784435	-0.627973
C88	C	1.161852	0.256203	-0.892468
C89	C	1.203084	0.214959	-0.964022
C90	C	1.250199	0.167815	-0.909394
H91	H	1.193964	0.284286	-0.849658
H92	H	1.133726	0.224105	-0.849692
H93	H	1.231208	0.247053	-1.006779
H94	H	1.170992	0.186862	-1.006833
H95	H	1.222072	0.135717	-0.866619
H96	H	1.282306	0.195904	-0.866587
H97	H	1.278175	0.139821	-0.957935
