data_functionalizedCrystal
_audit_creation_method	'MofGen! by Chris Wilmer'
_symmetry_space_group_name_H-M	'P1'
_symmetry_Int_Tables_number	1
_symmetry_cell_setting	triclinic
loop_
_symmetry_equiv_pos_as_xyz
  x,y,z
_cell_length_a	21.395361
_cell_length_b	16.120530
_cell_length_c	21.395355
_cell_angle_alpha	87.079043
_cell_angle_beta	89.978489
_cell_angle_gamma	87.125977
loop_
_atom_site_label
_atom_site_type_symbol
_atom_site_fract_x
_atom_site_fract_y
_atom_site_fract_z
Zn1	Zn	-0.298157	1.274542	-0.402756
Zn2	Zn	-0.402911	1.274412	-0.297968
Zn3	Zn	-0.292835	1.135113	-0.292686
Zn4	Zn	-0.397577	1.135072	-0.397405
O5	O	-0.347870	1.204785	-0.347704
O6	O	-0.316512	1.391190	-0.393305
O7	O	-0.388315	1.255897	-0.209588
O8	O	-0.205866	1.153680	-0.307316
O9	O	-0.393475	1.391095	-0.316318
O10	O	-0.209776	1.256118	-0.388183
O11	O	-0.307442	1.153554	-0.205707
O12	O	-0.302270	1.018442	-0.302127
O13	O	-0.384383	1.153610	-0.485794
O14	O	-0.379223	1.018412	-0.379064
O15	O	-0.311340	1.256078	-0.489725
O16	O	-0.489879	1.255857	-0.311129
O17	O	-0.485960	1.153484	-0.384185
C18	C	-0.339591	0.988177	-0.339442
C19	C	-0.336064	0.895511	-0.335923
C20	C	-0.510654	1.204675	-0.347664
C21	C	-0.580296	1.204704	-0.347672
C22	C	-0.615031	1.258056	-0.309674
C23	C	-0.680468	1.258095	-0.309690
C24	C	-0.711167	1.204767	-0.347695
C25	C	-0.676424	1.151410	-0.385701
C26	C	-0.610988	1.151379	-0.385689
C27	C	-0.812017	1.129700	-0.349748
C28	C	-0.877451	1.129730	-0.349756
C29	C	-0.912991	1.204864	-0.347736
C30	C	-0.883089	1.279969	-0.345695
C31	C	-0.817654	1.279938	-0.345683
C32	C	-0.782120	1.204795	-0.347713
C33	C	-1.018680	1.258263	-0.309753
C34	C	-1.084118	1.258303	-0.309773
C35	C	-1.080073	1.151611	-0.385781
C36	C	-1.014636	1.151578	-0.385764
C37	C	-0.983944	1.204903	-0.347747
C38	C	-0.329610	0.725850	-0.329503
C39	C	-0.366176	0.684560	-0.365950
C40	C	-0.362585	0.590155	-0.362378
C41	C	-0.333200	0.820264	-0.333074
C42	C	-0.184452	1.204918	-0.347757
C43	C	-0.114813	1.204975	-0.347780
C44	C	-0.347860	1.204854	-0.511129
C45	C	-0.347856	1.204884	-0.580772
C46	C	-0.356182	1.422238	-0.355998
C47	C	-0.359724	1.514904	-0.359532
C48	C	-0.309820	1.258236	-0.615533
C49	C	-0.309793	1.258235	-0.680968
C50	C	-0.347813	1.204890	-0.711641
C51	C	-0.385851	1.151527	-0.676871
C52	C	-0.385873	1.151524	-0.611437
C53	C	-0.403976	1.198269	-0.815051
C54	C	-0.403956	1.198278	-0.880484
C55	C	-0.347747	1.204895	-0.913462
C56	C	-0.291558	1.211521	-0.880998
C57	C	-0.291579	1.211517	-0.815564
C58	C	-0.347794	1.204887	-0.782593
C59	C	-0.309679	1.258249	-1.019175
C60	C	-0.309651	1.258242	-1.084612
C61	C	-0.385715	1.151539	-1.080513
C62	C	-0.385737	1.151541	-1.015078
C63	C	-0.347721	1.204901	-0.984413
C64	C	-0.347837	1.204764	-0.184915
C65	C	-0.347671	1.204896	-0.115279
H66	H	-0.708754	1.301544	-0.278748
H67	H	-1.105067	1.108193	-0.416729
H68	H	-0.912025	1.341150	-0.344051
H69	H	-0.449728	1.192657	-0.788198
C70	C	-0.784764	1.362547	-0.343448
H71	H	-0.815297	1.407303	-0.342252
H72	H	-0.759214	1.361479	-0.307086
H73	H	-0.759495	1.369832	-0.379642
C74	C	-0.412114	0.732577	-0.411725
H75	H	-0.434582	0.694254	-0.434125
H76	H	-0.440641	0.766509	-0.388963
H77	H	-0.389454	0.766584	-0.440335
C78	C	-0.772926	1.047050	-0.351970
H79	H	-0.729673	1.057788	-0.351676
H80	H	-0.782354	1.012010	-0.316530
H81	H	-0.782628	1.020372	-0.389085
C82	C	-0.465760	1.191001	-0.916192
H83	H	-0.457700	1.191964	-0.959885
H84	H	-0.483859	1.140230	-0.903524
H85	H	-0.493850	1.236336	-0.907201
H86	H	-0.245787	1.216910	-0.907847
C87	C	-0.283686	0.677830	-0.283722
H88	H	-0.287275	0.619760	-0.287294
H89	H	-0.242130	0.692078	-0.293490
H90	H	-0.293332	0.692011	-0.242133
C91	C	-0.267998	1.316923	-0.581804
H92	H	-0.245337	1.348693	-0.611882
H93	H	-0.293360	1.353226	-0.557668
H94	H	-0.239484	1.285047	-0.555060
H95	H	-0.416806	1.108091	-0.701849
H96	H	-0.701423	1.107991	-0.416646
C97	C	-0.572776	1.092688	-0.427484
H98	H	-0.529409	1.100310	-0.422035
H99	H	-0.581405	1.036683	-0.416150
H100	H	-0.583931	1.104875	-0.470058
C101	C	-0.427723	1.092845	-0.573199
H102	H	-0.450367	1.061078	-0.600835
H103	H	-0.402382	1.056539	-0.546275
H104	H	-0.456251	1.124728	-0.548901
C105	C	-0.267954	1.316925	-0.719216
H106	H	-0.273385	1.309279	-0.762578
H107	H	-0.279270	1.372932	-0.710641
H108	H	-0.225391	1.304756	-0.708030
C109	C	-0.581273	1.316721	-0.267865
H110	H	-0.611336	1.348507	-0.245241
H111	H	-0.554563	1.284839	-0.239325
H112	H	-0.557098	1.353023	-0.293240
C113	C	-0.229775	1.218792	-0.779855
H114	H	-0.196293	1.222727	-0.808862
H115	H	-0.232441	1.267113	-0.756180
H116	H	-0.222455	1.171006	-0.752500
H117	H	-0.278720	1.301693	-0.994206
H118	H	-0.278674	1.301687	-1.112913
H119	H	-0.416665	1.108096	-1.105486
C120	C	-0.427582	1.092862	-0.976837
H121	H	-0.422146	1.100495	-0.933474
H122	H	-0.470141	1.105027	-0.988025
H123	H	-0.416263	1.036851	-0.985412
C124	C	-0.984916	1.316925	-0.267944
H125	H	-1.014978	1.348716	-0.245323
H126	H	-0.958210	1.285041	-0.239403
H127	H	-0.960738	1.353223	-0.293319
H128	H	-1.112399	1.301754	-0.278833
H129	H	-0.986353	1.108130	-0.416703
H130	H	-0.901792	1.068574	-0.351411
