data_functionalizedCrystal
_audit_creation_method	'MofGen! by Chris Wilmer'
_symmetry_space_group_name_H-M	'P1'
_symmetry_Int_Tables_number	1
_symmetry_cell_setting	triclinic
loop_
_symmetry_equiv_pos_as_xyz
  x,y,z
_cell_length_a	19.805407
_cell_length_b	15.297327
_cell_length_c	19.805399
_cell_angle_alpha	80.350583
_cell_angle_beta	90.019573
_cell_angle_gamma	99.707092
loop_
_atom_site_label
_atom_site_type_symbol
_atom_site_fract_x
_atom_site_fract_y
_atom_site_fract_z
Zn1	Zn	0.988098	-0.359189	0.429336
Zn2	Zn	1.488098	0.140811	0.929336
Zn3	Zn	0.968423	-0.510058	0.335728
Zn4	Zn	1.468423	-0.010058	0.835728
Zn5	Zn	0.874909	-0.359214	0.316164
Zn6	Zn	1.374909	0.140786	0.816164
Zn7	Zn	0.855293	-0.510010	0.448869
Zn8	Zn	1.355293	-0.010010	0.948869
O9	O	0.921681	-0.434618	0.382524
O10	O	1.421681	0.065382	0.882524
O11	O	1.080203	-0.379212	0.416932
O12	O	1.580203	0.120788	0.916932
O13	O	0.955994	-0.490079	0.238420
O14	O	1.455994	0.009921	0.738420
O15	O	0.906367	-0.232963	0.314814
O16	O	1.406367	0.267037	0.814814
O17	O	1.065749	-0.490055	0.348159
O18	O	1.565749	0.009945	0.848159
O19	O	0.989526	-0.232945	0.397962
O20	O	1.489526	0.267055	0.897962
O21	O	0.887290	-0.379254	0.224047
O22	O	1.387290	0.120746	0.724047
O23	O	0.777592	-0.379208	0.333754
O24	O	1.277592	0.120792	0.833754
O25	O	0.872934	-0.489973	0.540990
O26	O	1.372934	0.010027	1.040990
O27	O	0.763180	-0.489997	0.431252
O28	O	1.263180	0.010003	0.931252
O29	O	0.970505	-0.379166	0.526640
O30	O	1.470505	0.120834	1.026640
O31	O	0.936973	-0.636300	0.367099
O32	O	1.436973	-0.136300	0.867099
O33	O	0.853857	-0.636265	0.450222
O34	O	1.353857	-0.136265	0.950222
C35	C	0.745827	-0.434601	0.382500
C36	C	1.245827	0.065399	0.882500
C37	C	0.670593	-0.434615	0.382509
C38	C	1.170593	0.065385	0.882509
C39	C	0.627751	-0.492390	0.433217
C40	C	1.127751	0.007610	0.933217
C41	C	0.557063	-0.492392	0.433227
C42	C	1.057063	0.007608	0.933227
C43	C	0.529217	-0.434622	0.382525
C44	C	1.029217	0.065378	0.882525
C45	C	0.572065	-0.376841	0.331814
C46	C	1.072065	0.123159	0.831814
C47	C	0.642752	-0.376835	0.331808
C48	C	1.142752	0.123165	0.831808
C49	C	0.286989	-0.376861	0.331839
C50	C	0.786989	0.123139	0.831839
C51	C	0.216295	-0.376873	0.331848
C52	C	0.716295	0.123127	0.831848
C53	C	0.201299	-0.492417	0.433258
C54	C	0.701299	0.007583	0.933258
C55	C	0.271987	-0.492412	0.433252
C56	C	0.771987	0.007588	0.933252
C57	C	0.314829	-0.434627	0.382543
C58	C	0.814829	0.065373	0.882543
C59	C	0.391477	-0.434625	0.382534
C60	C	0.891477	0.065375	0.882534
C61	C	0.452569	-0.434628	0.382531
C62	C	0.952569	0.065372	0.882531
C63	C	0.891170	-0.669017	0.412918
C64	C	1.391170	-0.169017	0.912918
C65	C	0.878179	-0.769294	0.425943
C66	C	1.378179	-0.269294	0.925943
C67	C	1.014807	-1.051906	0.289663
C68	C	1.514807	-0.551906	0.789663
C69	C	1.027012	-0.957691	0.277422
C70	C	1.527012	-0.457691	0.777422
C71	C	0.989805	-0.910587	0.314551
C72	C	1.489805	-0.410587	0.814551
C73	C	0.940391	-0.957708	0.363923
C74	C	1.440391	-0.457708	0.863923
C75	C	0.928180	-1.051932	0.376162
C76	C	1.428180	-0.551932	0.876162
C77	C	0.903178	-0.910613	0.401050
C78	C	1.403178	-0.410613	0.901050
C79	C	0.853764	-0.957734	0.450423
C80	C	1.353764	-0.457734	0.950423
C81	C	0.841556	-1.051949	0.462659
C82	C	1.341556	-0.551949	0.962659
C83	C	0.878763	-1.099053	0.425530
C84	C	1.378763	-0.599053	0.925530
C85	C	0.915389	-0.816389	0.388812
C86	C	1.415389	-0.316389	0.888812
C87	C	0.828762	-0.816415	0.475311
C88	C	1.328762	-0.316415	0.975311
C89	C	0.816557	-0.910630	0.487552
C90	C	1.316557	-0.410630	0.987552
C91	C	1.098221	-0.434636	0.382549
C92	C	1.598221	0.065364	0.882549
C93	C	1.173452	-0.434644	0.382559
C94	C	1.673452	0.065356	0.882559
C95	C	0.921726	-0.434561	0.559060
C96	C	1.421726	0.065439	1.059060
C97	C	0.921746	-0.434537	0.634289
C98	C	1.421746	0.065463	1.134289
C99	C	0.952329	-0.199304	0.352027
C100	C	1.452329	0.300696	0.852027
C101	C	0.965390	-0.099027	0.339031
C102	C	1.465390	0.400973	0.839031
C103	C	0.921683	-0.434610	0.206667
C104	C	1.421683	0.065390	0.706667
C105	C	0.921828	-0.434380	0.131406
C106	C	1.421828	0.065620	0.631406
C107	C	0.972552	-0.376837	0.662161
C108	C	1.472552	0.123163	1.162161
C109	C	0.972562	-0.376810	0.732846
C110	C	1.472562	0.123190	1.232846
C111	C	0.921768	-0.434490	0.775658
C112	C	1.421768	0.065510	1.275658
C113	C	0.870957	-0.492193	0.747781
C114	C	1.370957	0.007807	1.247781
C115	C	0.870944	-0.492214	0.677096
C116	C	1.370944	0.007786	1.177096
C117	C	0.871006	-0.492109	1.032843
C118	C	1.371006	0.007891	1.532843
C119	C	0.871024	-0.492085	1.103533
C120	C	1.371024	0.007915	1.603533
C121	C	0.972624	-0.376705	1.088593
C122	C	1.472624	0.123295	1.588593
C123	C	0.972612	-0.376726	1.017909
C124	C	1.472612	0.123274	1.517909
C125	C	0.921798	-0.434426	0.990037
C126	C	1.421798	0.065574	1.490037
C127	C	0.921787	-0.434452	0.913392
C128	C	1.421787	0.065548	1.413392
C129	C	0.921782	-0.434469	0.852303
C130	C	1.421782	0.065531	1.352303
H131	H	0.549387	-0.329800	0.290534
H132	H	1.049387	0.170200	0.790534
H133	H	0.321862	-0.329816	0.290545
H134	H	0.821862	0.170184	0.790545
O135	O	0.821536	-0.548142	0.649977
O136	O	1.321536	-0.048142	1.149977
C137	C	0.784510	-0.496792	0.602412
C138	C	1.284510	0.003208	1.102412
H139	H	0.789587	-0.425728	0.614501
H140	H	1.289587	0.074272	1.114501
H141	H	0.805828	-0.493708	0.548443
H142	H	1.305828	0.006292	1.048443
C143	C	0.702171	-0.628146	0.592183
C144	C	1.202171	-0.128146	1.092183
C145	C	0.708402	-0.540866	0.607034
C146	C	1.208402	-0.040866	1.107034
H147	H	0.655225	-0.655334	0.595031
H148	H	1.155225	-0.155334	1.095031
H149	H	0.727117	-0.662742	0.624226
H150	H	1.227117	-0.162742	1.124226
H151	H	0.719940	-0.625563	0.547209
H152	H	1.219940	-0.125563	1.047209
H153	H	0.690641	-0.543451	0.652010
H154	H	1.190641	-0.043451	1.152010
H155	H	0.683451	-0.506271	0.574999
H156	H	1.183451	-0.006271	1.074999
O157	O	1.021831	-0.320656	0.759933
O158	O	1.521831	0.179344	1.259933
C159	C	0.990889	-0.262379	0.793266
C160	C	1.490889	0.237621	1.293266
H161	H	0.938301	-0.256819	0.771233
H162	H	1.438301	0.243181	1.271233
H163	H	0.984939	-0.290242	0.850453
H164	H	1.484939	0.209758	1.350453
C165	C	1.100756	-0.175419	0.809251
C166	C	1.600756	0.324581	1.309251
C167	C	1.036169	-0.168584	0.782186
C168	C	1.536169	0.331416	1.282186
H169	H	1.128687	-0.117563	0.802420
H170	H	1.628687	0.382437	1.302420
H171	H	1.121603	-0.214683	0.786797
H172	H	1.621603	0.285317	1.286797
H173	H	1.095788	-0.198642	0.856906
H174	H	1.595788	0.301358	1.356906
H175	H	1.041137	-0.145372	0.734531
H176	H	1.541137	0.354628	1.234531
H177	H	1.015324	-0.129314	0.804632
H178	H	1.515324	0.370686	1.304632
H179	H	1.013916	-0.329870	0.627308
H180	H	1.513916	0.170130	1.127308
O181	O	0.159667	-0.548413	0.482578
O182	O	0.659667	-0.048413	0.982578
C183	C	0.125461	-0.497130	0.519702
C184	C	0.625461	0.002870	1.019702
H185	H	0.156013	-0.426081	0.514757
H186	H	0.656013	0.073919	1.014757
H187	H	0.072288	-0.493987	0.498378
H188	H	0.572288	0.006013	0.998378
C189	C	0.081130	-0.628594	0.601816
C190	C	0.581130	-0.128594	1.101816
C191	C	0.118658	-0.541333	0.595747
C192	C	0.618658	-0.041333	1.095747
H193	H	0.076930	-0.655862	0.648723
H194	H	0.576930	-0.155862	1.148723
H195	H	0.104172	-0.663146	0.576803
H196	H	0.604172	-0.163146	1.076803
H197	H	0.036823	-0.625963	0.584041
H198	H	0.536823	-0.125963	1.084041
H199	H	0.162966	-0.543965	0.613513
H200	H	0.662966	-0.043965	1.113513
H201	H	0.095622	-0.506782	0.620764
H202	H	0.595622	-0.006782	1.120764
O203	O	0.684412	-0.320619	0.282631
O204	O	1.184412	0.179381	0.782631
C205	C	0.732902	-0.262427	0.313688
C206	C	1.232902	0.237573	0.813688
H207	H	0.712336	-0.256950	0.366295
H208	H	1.212336	0.243050	0.866295
H209	H	0.782846	-0.290319	0.319597
H210	H	1.282846	0.209681	0.819597
C211	C	0.771445	-0.175309	0.203954
C212	C	1.271445	0.324691	0.703954
C213	C	0.746182	-0.168576	0.268565
C214	C	1.246182	0.331424	0.768565
H215	H	0.779640	-0.117418	0.176120
H216	H	1.279640	0.382582	0.676120
H217	H	0.738778	-0.214516	0.183030
H218	H	1.238778	0.285484	0.683030
H219	H	0.813062	-0.198556	0.208887
H220	H	1.313062	0.301444	0.708887
H221	H	0.704562	-0.145341	0.263632
H222	H	1.204562	0.354659	0.763632
H223	H	0.778842	-0.129363	0.289488
H224	H	1.278842	0.370637	0.789488
H225	H	0.798463	-0.778063	0.505543
H226	H	1.298463	-0.278063	1.005543
H227	H	0.829639	-0.539104	1.010161
H228	H	1.329639	-0.039104	1.510161
O229	O	1.021914	-0.320675	1.115776
O230	O	1.521914	0.179325	1.615776
C231	C	1.011045	-0.333032	1.187345
C232	C	1.511045	0.166968	1.687345
H233	H	0.954964	-0.362568	1.200819
H234	H	1.454964	0.137432	1.700819
H235	H	1.044938	-0.381073	1.213641
H236	H	1.544938	0.118927	1.713641
C237	C	1.098025	-0.205459	1.195254
C238	C	1.598025	0.294541	1.695254
C239	C	1.029144	-0.241729	1.211802
C240	C	1.529144	0.258271	1.711802
H241	H	1.109192	-0.149141	1.210341
H242	H	1.609192	0.350859	1.710341
H243	H	1.105350	-0.197135	1.147037
H244	H	1.605350	0.302865	1.647037
H245	H	1.126260	-0.245502	1.217168
H246	H	1.626260	0.254498	1.717168
H247	H	1.000910	-0.201692	1.189881
H248	H	1.500910	0.298308	1.689881
H249	H	1.021815	-0.250044	1.260016
H250	H	1.521815	0.249956	1.760016
O251	O	0.515528	-0.548481	0.482569
O252	O	1.015528	-0.048481	0.982569
C253	C	0.535370	-0.528882	0.547513
C254	C	1.035370	-0.028882	1.047513
H255	H	0.591206	-0.494192	0.544459
H256	H	1.091206	0.005808	1.044459
H257	H	0.501623	-0.482554	0.564373
H258	H	1.001623	0.017446	1.064373
C259	C	0.458628	-0.659522	0.603556
C260	C	0.958628	-0.159522	1.103556
C261	C	0.527208	-0.616922	0.599806
C262	C	1.027208	-0.116922	1.099806
H263	H	0.453590	-0.713828	0.635815
H264	H	0.953590	-0.213828	1.135815
H265	H	0.445257	-0.672725	0.559803
H266	H	0.945257	-0.172725	1.059803
H267	H	0.430513	-0.620906	0.617604
H268	H	0.930513	-0.120906	1.117604
H269	H	0.555321	-0.655533	0.585751
H270	H	1.055321	-0.155533	1.085751
H271	H	0.540583	-0.603727	0.643559
H272	H	1.040583	-0.103727	1.143559
H273	H	0.294654	-0.539456	0.474536
H274	H	0.794654	-0.039456	0.974536
H275	H	1.013975	-0.329761	0.983054
H276	H	1.513975	0.170239	1.483054
H277	H	0.829658	-0.539057	1.138389
H278	H	1.329658	-0.039057	1.638389
O279	O	0.866846	-1.190576	0.437532
O280	O	1.366846	-0.690576	0.937532
C281	C	0.815240	-1.222069	0.489056
C282	C	1.315240	-0.722069	0.989056
H283	H	0.812769	-1.167745	0.521531
H284	H	1.312769	-0.667745	1.021531
H285	H	0.763727	-1.238879	0.464356
H286	H	1.263727	-0.738879	0.964356
C287	C	0.834828	-1.373867	0.494950
C288	C	1.334828	-0.873867	0.994950
C289	C	0.831797	-1.307148	0.534840
C290	C	1.331797	-0.807148	1.034840
H291	H	0.845038	-1.426350	0.523190
H292	H	1.345038	-0.926350	1.023190
H293	H	0.869594	-1.352651	0.460236
H294	H	1.369594	-0.852651	0.960236
H295	H	0.791898	-1.387864	0.474369
H296	H	1.291898	-0.887864	0.974369
H297	H	0.874728	-1.293144	0.555413
H298	H	1.374728	-0.793144	1.055413
H299	H	0.797038	-1.328364	0.569559
H300	H	1.297038	-0.828364	1.069559
O301	O	0.963343	-0.770721	0.340776
O302	O	1.463343	-0.270721	0.840776
C303	C	0.945585	-0.793801	0.276301
C304	C	1.445585	-0.293801	0.776301
H305	H	0.910697	-0.862238	0.283765
H306	H	1.410697	-0.362238	0.783765
H307	H	0.917665	-0.740829	0.246590
H308	H	1.417665	-0.240829	0.746590
C309	C	1.053884	-0.714067	0.226754
C310	C	1.553884	-0.214067	0.726754
C311	C	1.011037	-0.798126	0.235922
C312	C	1.511037	-0.298126	0.735922
H313	H	1.094257	-0.716731	0.201845
H314	H	1.594257	-0.216731	0.701845
H315	H	1.065846	-0.698514	0.270191
H316	H	1.565846	-0.198514	0.770191
H317	H	1.030609	-0.669932	0.201998
H318	H	1.530609	-0.169932	0.701998
H319	H	1.034309	-0.842257	0.260685
H320	H	1.534309	-0.342257	0.760685
H321	H	0.999080	-0.813687	0.192488
H322	H	1.499080	-0.313687	0.692488
O323	O	1.001662	-0.819067	0.302788
O324	O	1.501662	-0.319067	0.802788
C325	C	1.023115	-0.787516	0.363570
C326	C	1.523115	-0.287516	0.863570
H327	H	1.004500	-0.841794	0.409597
H328	H	1.504500	-0.341794	0.909597
H329	H	1.081449	-0.770733	0.362873
H330	H	1.581449	-0.270733	0.862873
C331	C	1.015758	-0.635737	0.312203
C332	C	1.515758	-0.135737	0.812203
C333	C	0.992889	-0.702399	0.368734
C334	C	1.492889	-0.202399	0.868734
H335	H	0.997116	-0.583231	0.315387
H336	H	1.497116	-0.083231	0.815387
H337	H	1.001307	-0.656993	0.271251
H338	H	1.501307	-0.156993	0.771251
H339	H	1.064369	-0.621762	0.311627
H340	H	1.564369	-0.121762	0.811627
H341	H	0.944280	-0.716381	0.369303
H342	H	1.444280	-0.216381	0.869303
H343	H	1.007332	-0.681144	0.409685
H344	H	1.507332	-0.181144	0.909685
H345	H	0.829597	-0.539153	0.782644
H346	H	1.329597	-0.039153	1.282644
H347	H	0.193626	-0.329824	0.290560
H348	H	0.693626	0.170176	0.790560
H349	H	1.067245	-0.919329	0.237222
H350	H	1.567245	-0.419329	0.737222
O351	O	0.793629	-1.097680	0.510707
O352	O	1.293629	-0.597680	1.010707
C353	C	0.811367	-1.074568	0.575177
C354	C	1.311367	-0.574568	1.075177
H355	H	0.868802	-1.048608	0.575272
H356	H	1.368802	-0.548608	1.075272
H357	H	0.782153	-1.019901	0.585736
H358	H	1.282153	-0.519901	1.085736
C359	C	0.722079	-1.190121	0.631094
C360	C	1.222079	-0.690121	1.131094
C361	C	0.792623	-1.158243	0.631212
C362	C	1.292623	-0.658243	1.131212
H363	H	0.710515	-1.241733	0.665660
H364	H	1.210515	-0.741733	1.165660
H365	H	0.710127	-1.205690	0.587660
H366	H	1.210127	-0.705690	1.087660
H367	H	0.697743	-1.144557	0.639891
H368	H	1.197743	-0.644557	1.139891
H369	H	0.816957	-1.203802	0.622407
H370	H	1.316957	-0.703802	1.122407
H371	H	0.804579	-1.142683	0.674647
H372	H	1.304579	-0.642683	1.174647
O373	O	0.768551	-0.956268	0.535554
O374	O	1.268551	-0.456268	1.035554
C375	C	0.738313	-0.894499	0.565692
C376	C	1.238313	-0.394499	1.065692
H377	H	0.774738	-0.827301	0.559334
H378	H	1.274738	-0.327301	1.059334
H379	H	0.688208	-0.884559	0.539569
H380	H	1.188208	-0.384559	1.039569
C381	C	0.679022	-1.013759	0.650299
C382	C	1.179022	-0.513759	1.150299
C383	C	0.723763	-0.931228	0.642495
C384	C	1.223763	-0.431228	1.142495
H385	H	0.670044	-1.036416	0.697674
H386	H	1.170044	-0.536416	1.197674
H387	H	0.699391	-1.055375	0.629993
H388	H	1.199391	-0.555375	1.129993
H389	H	0.637273	-1.005465	0.628525
H390	H	1.137273	-0.505465	1.128525
H391	H	0.765513	-0.939526	0.664261
H392	H	1.265513	-0.439526	1.164261
H393	H	0.703400	-0.889614	0.662806
H394	H	1.203400	-0.389614	1.162806
H395	H	1.045092	-1.090267	0.259433
H396	H	1.545092	-0.590267	0.759433
H397	H	0.650417	-0.539436	0.474502
H398	H	1.150417	-0.039436	0.974502
