data_functionalizedCrystal
_audit_creation_method	'MofGen! by Chris Wilmer'
_symmetry_space_group_name_H-M	'P1'
_symmetry_Int_Tables_number	1
_symmetry_cell_setting	triclinic
loop_
_symmetry_equiv_pos_as_xyz
  x,y,z
_cell_length_a	14.472310
_cell_length_b	19.288862
_cell_length_c	19.288865
_cell_angle_alpha	96.864237
_cell_angle_beta	90.006324
_cell_angle_gamma	89.970338
loop_
_atom_site_label
_atom_site_type_symbol
_atom_site_fract_x
_atom_site_fract_y
_atom_site_fract_z
O1	O	0.077208	-0.921359	0.086635
O2	O	0.410541	-0.588025	0.419968
O3	O	0.743875	-0.254692	0.753302
O4	O	0.077133	-0.719098	0.098326
O5	O	0.410466	-0.385764	0.431659
O6	O	0.743800	-0.052431	0.764992
O7	O	0.077154	-0.826072	-0.008650
O8	O	0.410488	-0.492739	0.324683
O9	O	0.743821	-0.159406	0.658017
O10	O	0.077187	-0.814384	0.193611
O11	O	0.410520	-0.481050	0.526944
O12	O	0.743853	-0.147717	0.860277
O13	O	-0.076528	-0.826045	-0.008644
O14	O	0.256806	-0.492712	0.324690
O15	O	0.590139	-0.159378	0.658023
O16	O	-0.076549	-0.719070	0.098332
O17	O	0.256784	-0.385737	0.431665
O18	O	0.590118	-0.052404	0.764998
O19	O	-0.076474	-0.921331	0.086641
O20	O	0.256859	-0.587998	0.419975
O21	O	0.590193	-0.254664	0.753308
Cu22	Cu	-0.090544	-0.820198	0.092487
Cu23	Cu	0.242789	-0.486865	0.425820
Cu24	Cu	0.576123	-0.153531	0.759154
Cu25	Cu	0.091203	-0.820231	0.092480
Cu26	Cu	0.424536	-0.486897	0.425813
Cu27	Cu	0.757869	-0.153564	0.759146
O28	O	-0.076495	-0.814356	0.193617
O29	O	0.256838	-0.481023	0.526950
O30	O	0.590171	-0.147690	0.860284
C31	C	0.000282	-0.693207	0.097953
C32	C	0.333615	-0.359874	0.431286
C33	C	0.666949	-0.026541	0.764619
C34	C	0.000253	-0.616104	0.096824
C35	C	0.333586	-0.282770	0.430158
C36	C	0.666919	0.050563	0.763491
N37	N	-0.218375	-0.820180	0.092492
N38	N	0.114958	-0.486847	0.425825
N39	N	0.448292	-0.153514	0.759159
C40	C	0.000310	-0.825683	-0.034523
C41	C	0.333644	-0.492349	0.298810
C42	C	0.666977	-0.159016	0.632143
C43	C	0.000302	-0.824554	-0.111627
C44	C	0.333635	-0.491220	0.221706
C45	C	0.666969	-0.157887	0.555040
C46	C	-0.592466	-0.820230	0.092477
C47	C	-0.259133	-0.486896	0.425810
C48	C	0.074201	-0.153563	0.759144
C49	C	-0.553312	-0.762799	0.149527
C50	C	-0.219978	-0.429465	0.482860
C51	C	0.113355	-0.096132	0.816193
C52	C	-0.446224	-0.762930	0.149734
C53	C	-0.112890	-0.429597	0.483067
C54	C	0.220443	-0.096264	0.816400
C55	C	-0.406875	-0.820205	0.092484
C56	C	-0.073542	-0.486871	0.425818
C57	C	0.259792	-0.153538	0.759151
C58	C	-0.445682	-0.892629	0.108086
C59	C	-0.112348	-0.559296	0.441420
C60	C	0.220985	-0.225963	0.774753
C61	C	-0.552803	-0.892306	0.108492
C62	C	-0.219470	-0.558973	0.441825
C63	C	0.113863	-0.225640	0.775158
C64	C	-0.553014	-0.805883	0.019655
C65	C	-0.219681	-0.472550	0.352988
C66	C	0.113653	-0.139216	0.686321
C67	C	-0.445887	-0.804219	0.020146
C68	C	-0.112554	-0.470886	0.353479
C69	C	0.220779	-0.137553	0.686812
C70	C	-0.301987	-0.820195	0.092487
C71	C	0.031346	-0.486862	0.425821
C72	C	0.364680	-0.153528	0.759154
C73	C	-0.697354	-0.820244	0.092476
C74	C	-0.364021	-0.486911	0.425809
C75	C	-0.030688	-0.153577	0.759142
N76	N	0.219034	-0.820254	0.092469
N77	N	0.552367	-0.486921	0.425803
N78	N	0.885700	-0.153587	0.759136
C79	C	0.000275	-0.571407	0.159593
C80	C	0.333608	-0.238074	0.492926
C81	C	0.666941	0.095259	0.826259
C82	C	0.000280	-0.498960	0.158533
C83	C	0.333613	-0.165627	0.491866
C84	C	0.666947	0.167706	0.825199
C85	C	0.000282	-0.471213	0.094701
C86	C	0.333615	-0.137879	0.428034
C87	C	0.666949	0.195454	0.761367
C88	C	0.000255	-0.515919	0.031924
C89	C	0.333588	-0.182586	0.365258
C90	C	0.666921	0.150748	0.698591
C91	C	0.000240	-0.588364	0.032986
C92	C	0.333574	-0.255031	0.366319
C93	C	0.666907	0.078302	0.699653
C94	C	0.054139	-0.362960	0.044520
C95	C	0.387473	-0.029627	0.377854
C96	C	0.720806	0.303706	0.711187
C97	C	0.054160	-0.290516	0.043461
C98	C	0.387493	0.042818	0.376794
C99	C	0.720826	0.376151	0.710128
C100	C	0.000323	-0.247767	0.091423
C101	C	0.333656	0.085566	0.424756
C102	C	0.666989	0.418900	0.758090
C103	C	-0.053523	-0.277470	0.140456
C104	C	0.279811	0.055863	0.473789
C105	C	0.613144	0.389197	0.807123
C106	C	-0.053537	-0.349916	0.141518
C107	C	0.279796	-0.016582	0.474851
C108	C	0.613129	0.316751	0.808184
C109	C	0.000297	-0.392659	0.093542
C110	C	0.333630	-0.059325	0.426876
C111	C	0.666964	0.274008	0.760209
C112	C	0.000349	-0.124514	0.153046
C113	C	0.333682	0.208819	0.486379
C114	C	0.667016	0.542152	0.819713
C115	C	0.000349	-0.052066	0.151983
C116	C	0.333682	0.281267	0.485317
C117	C	0.667015	0.614600	0.818650
C118	C	0.000333	-0.069027	0.025373
C119	C	0.333666	0.264307	0.358707
C120	C	0.666999	0.597640	0.692040
C121	C	0.000324	-0.141473	0.026438
C122	C	0.333657	0.191860	0.359771
C123	C	0.666991	0.525194	0.693104
C124	C	0.000336	-0.169212	0.090276
C125	C	0.333670	0.164121	0.423609
C126	C	0.667003	0.497454	0.756943
C127	C	0.000362	0.052779	0.087016
C128	C	0.333696	0.386112	0.420350
C129	C	0.667029	0.719446	0.753683
C130	C	0.000349	-0.024324	0.088151
C131	C	0.333682	0.309010	0.421484
C132	C	0.667016	0.642343	0.754818
C133	C	0.000321	-0.887322	-0.156324
C134	C	0.333654	-0.553988	0.177010
C135	C	0.666987	-0.220655	0.510343
C136	C	0.000335	-0.886261	-0.228771
C137	C	0.333668	-0.552928	0.104562
C138	C	0.667001	-0.219594	0.437896
C139	C	0.000312	-0.822429	-0.256518
C140	C	0.333645	-0.489095	0.076815
C141	C	0.666978	-0.155762	0.410149
C142	C	0.000298	-0.759652	-0.211811
C143	C	0.333632	-0.426319	0.121522
C144	C	0.666965	-0.092986	0.454855
C145	C	0.000293	-0.760715	-0.139366
C146	C	0.333627	-0.427382	0.193968
C147	C	0.666960	-0.094048	0.527301
C148	C	-0.053538	-0.772239	-0.364803
C149	C	0.279795	-0.438906	-0.031469
C150	C	0.613128	-0.105573	0.301864
C151	C	-0.053539	-0.771180	-0.437247
C152	C	0.279794	-0.437846	-0.103914
C153	C	0.613128	-0.104513	0.229420
C154	C	0.000331	-0.819149	-0.479963
C155	C	0.333665	-0.485816	-0.146630
C156	C	0.666998	-0.152482	0.186703
C157	C	0.054190	-0.868190	-0.450228
C158	C	0.387524	-0.534857	-0.116895
C159	C	0.720857	-0.201523	0.216439
C160	C	0.054185	-0.869253	-0.377782
C161	C	0.387519	-0.535919	-0.044449
C162	C	0.720852	-0.202586	0.288884
C163	C	0.000318	-0.821270	-0.335072
C164	C	0.333651	-0.487936	-0.001739
C165	C	0.666984	-0.154603	0.331595
C166	C	0.000367	-0.880771	-0.603216
C167	C	0.333700	-0.547438	-0.269883
C168	C	0.667033	-0.214105	0.063450
C169	C	0.000387	-0.879708	-0.675664
C170	C	0.333720	-0.546375	-0.342331
C171	C	0.667053	-0.213041	-0.008998
C172	C	0.000341	-0.753098	-0.658703
C173	C	0.333674	-0.419764	-0.325370
C174	C	0.667007	-0.086431	0.007964
C175	C	0.000330	-0.754163	-0.586257
C176	C	0.333663	-0.420829	-0.252923
C177	C	0.666997	-0.087496	0.080410
C178	C	0.000339	-0.818001	-0.558518
C179	C	0.333672	-0.484668	-0.225184
C180	C	0.667005	-0.151335	0.108149
C181	C	0.000350	-0.814746	0.219490
C182	C	0.333684	-0.481413	0.552824
C183	C	0.667017	-0.148079	0.886157
C184	C	0.000365	-0.815875	0.296594
C185	C	0.333698	-0.482542	0.629927
C186	C	0.667032	-0.149208	0.963260
H187	H	-0.419990	-0.709088	0.140471
H188	H	-0.086656	-0.375755	0.473805
H189	H	0.246677	-0.042422	0.807138
H190	H	0.000286	-0.593988	0.211575
H191	H	0.333620	-0.260654	0.544908
H192	H	0.666953	0.072679	0.878242
Br193	Br	-0.403623	-0.715423	0.000399
Br194	Br	-0.070290	-0.382089	0.333732
Br195	Br	0.263044	-0.048756	0.667065
H196	H	0.000331	-0.939304	-0.133744
H197	H	0.333664	-0.605971	0.199589
H198	H	0.666997	-0.272637	0.532923
Br199	Br	0.000422	-0.964901	-0.736327
Br200	Br	0.333755	-0.631568	-0.402994
Br201	Br	0.667089	-0.298234	-0.069660
H202	H	-0.419106	-0.843350	-0.024280
H203	H	-0.085773	-0.510016	0.309054
H204	H	0.247560	-0.176683	0.642387
H205	H	-0.579122	-0.708782	0.140420
H206	H	-0.245788	-0.375449	0.473754
H207	H	0.087545	-0.042115	0.807087
H208	H	-0.097383	-0.374097	0.181440
H209	H	0.235951	-0.040764	0.514773
H210	H	0.569284	0.292570	0.848107
Br211	Br	-0.403202	-0.965549	0.040656
Br212	Br	-0.069869	-0.632216	0.373989
Br213	Br	0.263465	-0.298882	0.707323
Br214	Br	-0.400929	-0.914278	0.195581
Br215	Br	-0.067596	-0.580945	0.528914
Br216	Br	0.265738	-0.247612	0.862248
Br217	Br	-0.595210	-0.875692	-0.051102
Br218	Br	-0.261877	-0.542359	0.282232
Br219	Br	0.071457	-0.209025	0.615565
H220	H	0.000311	-0.177866	-0.024675
H221	H	0.333644	0.155467	0.308658
H222	H	0.666978	0.488801	0.641991
Br223	Br	0.000319	-0.666466	-0.696351
Br224	Br	0.333652	-0.333133	-0.363018
Br225	Br	0.666985	0.000200	-0.029685
H226	H	0.000310	-0.703050	-0.549863
H227	H	0.333643	-0.369717	-0.216530
H228	H	0.666976	-0.036383	0.116804
H229	H	-0.577764	-0.904983	0.161594
H230	H	-0.244431	-0.571650	0.494927
H231	H	0.088902	-0.238317	0.828260
H232	H	-0.580104	-0.754230	0.004596
H233	H	-0.246771	-0.420897	0.337929
H234	H	0.086563	-0.087563	0.671262
H235	H	0.000295	-0.462562	0.209648
H236	H	0.333628	-0.129228	0.542981
H237	H	0.666962	0.204105	0.876314
H238	H	-0.097362	-0.242665	0.179511
H239	H	0.235971	0.090668	0.512844
H240	H	0.569304	0.424002	0.846177
Br241	Br	0.000364	-0.971452	-0.289443
Br242	Br	0.333698	-0.638119	0.043891
Br243	Br	0.667031	-0.304785	0.377224
Br244	Br	0.000359	-0.162165	0.239681
Br245	Br	0.333693	0.171168	0.573015
Br246	Br	0.667026	0.504501	0.906348
H247	H	0.000361	-0.015674	0.203099
H248	H	0.333694	0.317659	0.536432
H249	H	0.667028	0.650992	0.869766
H250	H	-0.097389	-0.731244	-0.461451
H251	H	0.235944	-0.397911	-0.128118
H252	H	0.569278	-0.064578	0.205215
H253	H	0.000223	-0.624757	-0.018129
H254	H	0.333556	-0.291424	0.315204
H255	H	0.666890	0.041910	0.648538
H256	H	0.000392	-0.046435	-0.026600
H257	H	0.333725	0.286898	0.306733
H258	H	0.667058	0.620231	0.640067
Br259	Br	0.127247	-0.250210	-0.023074
Br260	Br	0.460580	0.083123	0.310260
Br261	Br	0.793914	0.416456	0.643593
H262	H	0.000378	-0.932752	-0.580630
H263	H	0.333711	-0.599419	-0.247297
H264	H	0.667045	-0.266086	0.086036
H265	H	-0.580208	-0.771809	0.203268
H266	H	-0.246875	-0.438476	0.536601
H267	H	0.086459	-0.105142	0.869934
H268	H	0.000281	-0.707680	-0.234407
H269	H	0.333615	-0.374346	0.098926
H270	H	0.666948	-0.041013	0.432259
H271	H	0.097985	-0.397761	0.005462
H272	H	0.431319	-0.064428	0.338796
H273	H	0.764652	0.268905	0.672129
H274	H	0.000269	-0.493322	-0.020048
H275	H	0.333602	-0.159989	0.313285
H276	H	0.666936	0.173344	0.646618
H277	H	-0.097411	-0.733175	-0.330028
H278	H	0.235922	-0.399842	0.003305
H279	H	0.569256	-0.066508	0.336639
H280	H	-0.420576	-0.772068	0.203779
H281	H	-0.087243	-0.438735	0.537112
H282	H	0.246091	-0.105402	0.870445
H283	H	0.098041	-0.909182	-0.353575
H284	H	0.431374	-0.575849	-0.020241
H285	H	0.764708	-0.242515	0.313092
H286	H	0.098057	-0.907251	-0.485006
H287	H	0.431391	-0.573918	-0.151673
H288	H	0.764724	-0.240585	0.181660
Br289	Br	-0.595972	-0.965584	0.041774
Br290	Br	-0.262639	-0.632251	0.375108
Br291	Br	0.070694	-0.298917	0.708441
Br292	Br	0.000270	-0.675523	-0.078701
Br293	Br	0.333604	-0.342190	0.254632
Br294	Br	0.666937	-0.008856	0.587965
