data_functionalizedCrystal
_audit_creation_method	'MofGen! by Chris Wilmer'
_symmetry_space_group_name_H-M	'P1'
_symmetry_Int_Tables_number	1
_symmetry_cell_setting	triclinic
loop_
_symmetry_equiv_pos_as_xyz
  x,y,z
_cell_length_a	17.699083
_cell_length_b	19.188930
_cell_length_c	16.176319
_cell_angle_alpha	89.988074
_cell_angle_beta	89.998611
_cell_angle_gamma	83.213899
loop_
_atom_site_label
_atom_site_type_symbol
_atom_site_fract_x
_atom_site_fract_y
_atom_site_fract_z
O1	O	1.003963	0.088294	-0.068640
O2	O	0.783569	0.099782	-0.068668
O3	O	0.900126	-0.007610	-0.068637
O4	O	0.887406	0.195687	-0.068671
O5	O	0.900110	-0.007617	0.068856
O6	O	0.783553	0.099775	0.068825
O7	O	1.003947	0.088288	0.068853
Cu8	Cu	0.893748	0.094031	0.081393
Cu9	Cu	0.893767	0.094039	-0.081208
O10	O	0.887390	0.195680	0.068822
C11	C	0.755365	0.099367	0.000075
C12	C	0.671348	0.098132	0.000065
C13	C	0.622644	0.161169	0.000055
C14	C	0.543702	0.160004	0.000065
C15	C	0.513466	0.095802	0.000081
C16	C	0.562176	0.032761	0.000093
C17	C	0.641117	0.033926	0.000088
C18	C	0.243819	0.028060	0.000115
C19	C	0.164873	0.026900	0.000117
C20	C	0.146405	0.154139	0.000092
C21	C	0.225345	0.155304	0.000087
C22	C	0.274049	0.092263	0.000104
C23	C	0.359646	0.093526	0.000094
C24	C	0.427870	0.094538	0.000085
C25	C	0.899706	-0.033625	0.000112
C26	C	0.898469	-0.111131	0.000119
C27	C	0.966861	-0.155978	0.000131
C28	C	0.965699	-0.228804	0.000118
C29	C	0.896142	-0.256778	0.000108
C30	C	0.827741	-0.211921	0.000091
C31	C	0.828905	-0.139098	0.000096
N32	N	0.842968	-0.364845	0.046893
N33	N	0.841868	-0.434025	0.046890
C34	C	0.892632	-0.476191	0.000091
N35	N	0.944550	-0.446565	-0.046694
N36	N	0.945653	-0.377379	-0.046687
C37	C	0.894873	-0.335742	0.000102
C38	C	0.959769	-0.600004	0.000088
C39	C	0.958604	-0.672830	0.000070
C40	C	0.820644	-0.655946	0.000051
C41	C	0.821811	-0.583121	0.000061
C42	C	0.891375	-0.555155	0.000084
C43	C	1.032151	0.088703	0.000108
C44	C	1.116167	0.089938	0.000113
C45	C	0.887810	0.221695	0.000071
C46	C	0.889046	0.299201	0.000059
N47	N	0.893741	0.094025	0.195758
N48	N	0.893781	0.094039	-0.195574
C49	C	0.945367	0.046491	0.239036
C50	C	0.945371	0.046490	0.325584
C51	C	0.893751	0.094027	0.368851
C52	C	0.842119	0.141563	0.325567
C53	C	0.842112	0.141560	0.239022
C54	C	0.842145	0.141576	0.674595
C55	C	0.842157	0.141577	0.761147
C56	C	0.945404	0.046506	0.761157
C57	C	0.945397	0.046503	0.674612
C58	C	0.893763	0.094036	0.631335
C59	C	0.893758	0.094036	0.537491
C60	C	0.893759	0.094031	0.462694
H61	H	0.504050	0.211335	0.000056
O62	O	0.786486	0.192864	0.807810
H63	H	0.727511	0.184038	0.791224
O64	O	1.001054	-0.004776	0.372269
H65	H	1.037730	0.024580	0.411692
O66	O	1.041887	-0.125812	0.000132
H67	H	1.089250	-0.169237	0.000127
O68	O	0.529566	-0.036487	0.000118
H69	H	0.549150	-0.066774	-0.055912
O70	O	0.257960	0.224550	0.000082
H71	H	0.210830	0.268189	0.000089
O72	O	0.693647	-0.034067	0.000099
H73	H	0.730047	-0.036583	0.056144
O74	O	1.039469	-0.277185	0.000147
H75	H	1.042258	-0.310757	-0.055894
O76	O	0.786463	0.192848	0.627922
H77	H	0.750579	0.225908	0.672552
O78	O	0.093872	0.222136	0.000092
H79	H	0.057454	0.224651	-0.055939
O80	O	0.132263	-0.042353	0.000141
H81	H	0.069189	-0.032569	0.000133
H82	H	0.283465	-0.023272	0.000129
H83	H	0.800085	0.180266	0.360800
O84	O	0.752716	-0.242087	0.000090
H85	H	0.763396	-0.300261	0.000100
H86	H	0.773210	-0.102582	0.000086
H87	H	0.800071	0.180266	0.203785
H88	H	1.016412	-0.577233	0.000103
O89	O	1.032373	-0.721207	0.000090
H90	H	1.080937	-0.689522	0.000117
H91	H	0.647256	0.213450	0.000042
H92	H	0.764009	-0.678722	0.000039
H93	H	0.987446	0.007800	0.796402
O94	O	0.748042	-0.534747	0.000069
H95	H	0.714742	-0.544667	-0.055971
O96	O	1.001041	-0.004784	0.192370
H97	H	1.036934	-0.037843	0.237008
O98	O	1.001068	-0.004772	0.627942
H99	H	1.036963	-0.037832	0.672577
