data_functionalizedCrystal
_audit_creation_method	'MofGen! by Chris Wilmer'
_symmetry_space_group_name_H-M	'P1'
_symmetry_Int_Tables_number	1
_symmetry_cell_setting	triclinic
loop_
_symmetry_equiv_pos_as_xyz
  x,y,z
_cell_length_a	12.594516
_cell_length_b	11.169417
_cell_length_c	11.169409
_cell_angle_alpha	90.021683
_cell_angle_beta	89.968646
_cell_angle_gamma	89.985009
loop_
_atom_site_label
_atom_site_type_symbol
_atom_site_fract_x
_atom_site_fract_y
_atom_site_fract_z
Zn1	Zn	-0.423686	-1.834915	-0.678610
Zn2	Zn	-0.601712	-1.834784	-0.477931
Zn3	Zn	-0.423745	-1.634201	-0.477938
Zn4	Zn	-0.601620	-1.634188	-0.678569
O5	O	-0.512691	-1.734522	-0.578262
O6	O	-0.447316	-2.002847	-0.652004
O7	O	-0.578168	-1.808127	-0.309982
O8	O	-0.274791	-1.660886	-0.504578
O9	O	-0.578111	-2.002751	-0.504566
O10	O	-0.274748	-1.808349	-0.652011
O11	O	-0.447416	-1.660759	-0.309987
O12	O	-0.447326	-1.466249	-0.504538
O13	O	-0.577953	-1.660864	-0.846524
O14	O	-0.578010	-1.466240	-0.651941
O15	O	-0.447226	-1.808337	-0.846555
O16	O	-0.750646	-1.808115	-0.504525
O17	O	-0.750578	-1.660738	-0.651934
C18	C	-0.512665	-1.422697	-0.578237
C19	C	-0.512680	-1.289297	-0.578254
C20	C	-0.789232	-1.734443	-0.578250
C21	C	-0.907537	-1.734519	-0.578286
C22	C	-0.976792	-1.654353	-0.658404
C23	C	-1.047666	-1.625107	-0.548890
C24	C	-1.047462	-1.763875	-0.687818
C25	C	-0.976853	-1.705215	-0.468713
C26	C	-0.976643	-1.844034	-0.607715
C27	C	-1.047485	-1.814829	-0.498126
C28	C	-0.235070	-1.734634	-0.578300
C29	C	-0.116764	-1.734681	-0.578316
C30	C	-0.512573	-1.734614	-0.891305
C31	C	-0.512522	-1.734653	-1.024705
C32	C	-0.512708	-1.047564	-0.578279
C33	C	-0.512693	-1.180964	-0.578262
C34	C	-0.512732	-1.734499	-0.266437
C35	C	-0.512482	-1.734692	-0.133038
H36	H	-0.945751	-1.586438	-0.726060
C37	C	-0.934504	-1.969038	-0.641354
H38	H	-0.958647	-1.989729	-0.719226
H39	H	-0.959787	-2.026212	-0.585230
H40	H	-0.859083	-1.968291	-0.640384
C41	C	-1.089166	-1.906502	-0.406515
H42	H	-1.064859	-1.885510	-0.328789
H43	H	-1.063773	-1.984007	-0.426746
H44	H	-1.164590	-1.906522	-0.407478
C45	C	-1.089814	-1.500093	-0.515271
H46	H	-1.065616	-1.443167	-0.572262
H47	H	-1.064599	-1.478744	-0.438022
H48	H	-1.165236	-1.501241	-0.514816
H49	H	-0.945964	-1.680344	-0.376070
C50	C	-1.089362	-1.797336	-0.812933
H51	H	-1.065143	-1.740241	-0.869744
H52	H	-1.164779	-1.797874	-0.811876
H53	H	-1.063989	-1.874529	-0.834377
