data_functionalizedCrystal
_audit_creation_method	'MofGen! by Chris Wilmer'
_symmetry_space_group_name_H-M	'P1'
_symmetry_Int_Tables_number	1
_symmetry_cell_setting	triclinic
loop_
_symmetry_equiv_pos_as_xyz
  x,y,z
_cell_length_a	11.169417
_cell_length_b	18.215405
_cell_length_c	18.215399
_cell_angle_alpha	89.969449
_cell_angle_beta	89.983659
_cell_angle_gamma	90.025764
loop_
_atom_site_label
_atom_site_type_symbol
_atom_site_fract_x
_atom_site_fract_y
_atom_site_fract_z
Zn1	Zn	1.834800	-0.292975	-0.416034
Zn2	Zn	1.834650	-0.416046	-0.292962
Zn3	Zn	1.634098	-0.293000	-0.292989
Zn4	Zn	1.634042	-0.416006	-0.415995
O5	O	1.734398	-0.354506	-0.354495
O6	O	2.002730	-0.309307	-0.399714
O7	O	1.808007	-0.399751	-0.189981
O8	O	1.660807	-0.190012	-0.309339
O9	O	2.002620	-0.399727	-0.309293
O10	O	1.808262	-0.189994	-0.399740
O11	O	1.660662	-0.309349	-0.190001
O12	O	1.466141	-0.309310	-0.309301
O13	O	1.660712	-0.399658	-0.518984
O14	O	1.466100	-0.399682	-0.399672
O15	O	1.808208	-0.309268	-0.519013
O16	O	1.807953	-0.519025	-0.309255
O17	O	1.660567	-0.518995	-0.399646
C18	C	1.422573	-0.354495	-0.354485
C19	C	1.289173	-0.354508	-0.354499
C20	C	1.734271	-0.545713	-0.354459
C21	C	1.734326	-0.627512	-0.354469
C22	C	1.811250	-0.815696	-0.307489
C23	C	1.811304	-0.892555	-0.307507
C24	C	1.657698	-0.892564	-0.401554
C25	C	1.657651	-0.815707	-0.401539
C26	C	1.734426	-0.777275	-0.354503
C27	C	1.734526	-0.930991	-0.354535
C28	C	1.734584	-1.014325	-0.354555
C29	C	1.734370	-0.693936	-0.354484
C30	C	2.047440	-0.354518	-0.354505
C31	C	2.180840	-0.354523	-0.354509
C32	C	1.734471	-0.354456	-0.546448
C33	C	1.734502	-0.354434	-0.628247
C34	C	1.734557	-0.162554	-0.354547
C35	C	1.734626	-0.080755	-0.354569
C36	C	1.811330	-0.307324	-0.816457
C37	C	1.811345	-0.307302	-0.893316
C38	C	1.657758	-0.401431	-0.893274
C39	C	1.657739	-0.401448	-0.816417
C40	C	1.734532	-0.354395	-0.778010
C41	C	1.734565	-0.354357	-0.931727
C42	C	1.734580	-0.354334	-1.015060
C43	C	1.734515	-0.354417	-0.694671
C44	C	1.734394	-0.354504	-0.163289
C45	C	1.734595	-0.354318	-0.081490
H46	H	1.873767	-0.784407	-0.269190
H47	H	1.595189	-0.923865	-0.439848
O48	O	1.894157	-0.933998	-0.256795
H49	H	1.947525	-0.894359	-0.224084
O50	O	1.574769	-0.774258	-0.452238
H51	H	1.521372	-0.813893	-0.484937
O52	O	1.894143	-0.256572	-0.775029
H53	H	1.947540	-0.223832	-0.814679
H54	H	1.595239	-0.439741	-0.924555
O55	O	1.894165	-0.256527	-0.934788
H56	H	1.955201	-0.289453	-0.969810
H57	H	1.595191	-0.439779	-0.785113
