data_functionalizedCrystal
_audit_creation_method	'MofGen! by Chris Wilmer'
_symmetry_space_group_name_H-M	'P1'
_symmetry_Int_Tables_number	1
_symmetry_cell_setting	triclinic
loop_
_symmetry_equiv_pos_as_xyz
  x,y,z
_cell_length_a	10.723022
_cell_length_b	10.489716
_cell_length_c	9.798715
_cell_angle_alpha	90.000892
_cell_angle_beta	89.996609
_cell_angle_gamma	84.498181
loop_
_atom_site_label
_atom_site_type_symbol
_atom_site_fract_x
_atom_site_fract_y
_atom_site_fract_z
O1	O	1.657282	0.178898	-0.113469
O2	O	1.294139	0.196026	-0.113472
O3	O	1.483990	0.001857	-0.113475
O4	O	1.467432	0.373067	-0.113466
O5	O	1.483976	0.001856	0.113507
O6	O	1.294125	0.196025	0.113510
O7	O	1.657268	0.178898	0.113513
Zn8	Zn	1.475694	0.187461	0.149550
Zn9	Zn	1.475713	0.187462	-0.149509
O10	O	1.467417	0.373067	0.113516
C11	C	1.247631	0.194779	0.000018
C12	C	1.109075	0.191052	0.000016
C13	C	1.060455	0.079081	0.000013
C14	C	0.917250	0.075226	0.000011
C15	C	1.482739	-0.045675	0.000012
C16	C	1.479016	-0.187303	-0.000001
C17	C	1.595439	-0.285052	0.000013
C18	C	1.533926	-0.362373	-0.111898
C19	C	1.533885	-0.362338	0.111888
C20	C	1.417552	-0.262759	-0.112004
C21	C	1.417528	-0.262718	0.111883
C22	C	1.355929	-0.339989	-0.000056
C23	C	1.703776	0.180144	0.000020
C24	C	1.842332	0.183872	0.000013
C25	C	1.468669	0.420598	0.000027
C26	C	1.472391	0.562227	0.000030
N27	N	1.475690	0.187460	0.353650
N28	N	1.475726	0.187453	-0.353609
C29	C	1.555403	0.105575	0.421425
C30	C	1.555423	0.105570	0.578588
H31	H	1.044682	0.284059	0.000013
H32	H	1.254585	-0.364355	-0.000117
H33	H	1.696707	-0.260441	-0.000100
H34	H	1.124849	-0.013926	0.000004
O35	O	1.636787	0.021754	0.647962
C36	C	1.707263	-0.199479	0.691994
C37	C	1.615067	-0.104693	0.613315
H38	H	1.689717	-0.301732	0.664033
H39	H	1.807480	-0.182351	0.663936
H40	H	1.692789	-0.184514	0.806350
H41	H	1.629427	-0.119602	0.498941
H42	H	1.514883	-0.121845	0.641487
H43	H	1.407455	0.257558	0.411975
H44	H	1.407482	0.257567	0.588116
H45	H	1.368418	-0.219168	0.206500
O46	O	1.592703	-0.414102	0.224725
C47	C	1.785388	-0.445492	0.352158
C48	C	1.718912	-0.386781	0.224342
H49	H	1.887446	-0.423448	0.351876
H50	H	1.736868	-0.402926	0.447580
H51	H	1.781075	-0.553660	0.351594
H52	H	1.723205	-0.278616	0.224773
H53	H	1.767450	-0.429448	0.128977
H54	H	0.875388	-0.020643	-0.000027
H55	H	1.583078	-0.405899	-0.206512
H56	H	0.884186	0.279745	0.000024
H57	H	1.368438	-0.219423	-0.206721
H58	H	1.623630	0.035467	0.363101
