data_functionalizedCrystal
_audit_creation_method	'MofGen! by Chris Wilmer'
_symmetry_space_group_name_H-M	'P1'
_symmetry_Int_Tables_number	1
_symmetry_cell_setting	triclinic
loop_
_symmetry_equiv_pos_as_xyz
  x,y,z
_cell_length_a	11.026607
_cell_length_b	10.268362
_cell_length_c	11.026607
_cell_angle_alpha	90.002696
_cell_angle_beta	71.413983
_cell_angle_gamma	89.995554
loop_
_atom_site_label
_atom_site_type_symbol
_atom_site_fract_x
_atom_site_fract_y
_atom_site_fract_z
O1	O	1.726735	-0.108297	-0.533624
O2	O	2.226735	0.391703	-0.033624
O3	O	1.360155	-0.108299	-0.472861
O4	O	1.860155	0.391701	0.027139
O5	O	1.513063	-0.108294	-0.319953
O6	O	2.013063	0.391706	0.180047
O7	O	1.573827	-0.108303	-0.686533
O8	O	2.073827	0.391697	-0.186533
O9	O	1.513042	0.108307	-0.319941
O10	O	2.013042	0.608307	0.180059
O11	O	1.360134	0.108302	-0.472850
O12	O	1.860134	0.608302	0.027150
O13	O	1.726714	0.108304	-0.533613
O14	O	2.226714	0.608304	-0.033613
Cu15	Cu	1.543422	0.128080	-0.503230
Cu16	Cu	2.043422	0.628080	-0.003230
Cu17	Cu	1.543447	-0.128075	-0.503244
Cu18	Cu	2.043447	0.371925	-0.003244
O19	O	1.573806	0.108298	-0.686521
O20	O	2.073806	0.608298	-0.186521
C21	C	1.312485	0.000001	-0.461645
C22	C	1.812485	0.500001	0.038355
C23	C	1.170471	0.000000	-0.428228
C24	C	1.670471	0.500000	0.071772
N25	N	1.543413	0.308246	-0.503222
N26	N	2.043413	0.808246	-0.003222
C27	C	1.116821	-0.000003	-0.520498
C28	C	1.616821	0.499997	-0.020498
C29	C	0.970043	-0.000004	-0.485962
C30	C	1.470043	0.499996	0.014038
C31	C	1.543432	0.573916	-0.503241
C32	C	2.043432	1.073916	-0.003241
C33	C	1.543418	0.426078	-0.503233
C34	C	2.043418	0.926078	-0.003233
C35	C	1.774384	0.000001	-0.544828
C36	C	2.274384	0.500001	-0.044828
C37	C	1.916398	-0.000007	-0.578245
C38	C	2.416398	0.499993	-0.078245
C39	C	1.501843	0.000005	-0.272287
C40	C	2.001843	0.500005	0.227713
C41	C	1.468426	0.000000	-0.130273
C42	C	1.968426	0.500000	0.369727
N43	N	1.543452	0.691759	-0.503246
N44	N	2.043452	1.191759	-0.003246
C45	C	1.585026	-0.000004	-0.734187
C46	C	2.085026	0.499996	-0.234187
C47	C	1.618443	-0.000007	-0.876200
C48	C	2.118443	0.499993	-0.376200
C49	C	1.560695	-0.000001	-0.076624
C50	C	2.060695	0.499999	0.423376
C51	C	1.526160	-0.000006	0.070155
C52	C	2.026160	0.499994	0.570155
H53	H	1.179555	0.000002	-0.625061
H54	H	1.679555	0.500002	-0.125061
C55	C	0.885303	-0.000000	-0.344692
C56	C	1.385303	0.500000	0.155308
N57	N	0.821475	0.000000	-0.238289
N58	N	1.321475	0.500000	0.261711
C59	C	1.384889	-0.000005	0.154894
C60	C	1.884889	0.499995	0.654894
N61	N	1.278487	-0.000000	0.218722
N62	N	1.778487	0.500000	0.718722
C63	C	1.085727	0.000004	-0.286965
C64	C	1.585727	0.500004	0.213035
N65	N	1.021899	0.000004	-0.180562
N66	N	1.521899	0.500004	0.319438
H67	H	0.979125	-0.000001	-0.682816
H68	H	1.479125	0.499999	-0.182816
H69	H	1.665258	0.000008	-0.139357
H70	H	2.165258	0.500008	0.360643
H71	H	1.723013	-0.000105	0.061072
H72	H	2.223013	0.499895	0.561072
C73	C	1.327162	0.000001	-0.045529
C74	C	1.827162	0.500001	0.454471
N75	N	1.220759	0.000006	0.018299
N76	N	1.720759	0.500006	0.518299
