data_functionalizedCrystal
_audit_creation_method	'MofGen! by Chris Wilmer'
_symmetry_space_group_name_H-M	'P1'
_symmetry_Int_Tables_number	1
_symmetry_cell_setting	triclinic
loop_
_symmetry_equiv_pos_as_xyz
  x,y,z
_cell_length_a	15.944493
_cell_length_b	15.944493
_cell_length_c	9.016244
_cell_angle_alpha	90.003635
_cell_angle_beta	89.993227
_cell_angle_gamma	83.475044
loop_
_atom_site_label
_atom_site_type_symbol
_atom_site_fract_x
_atom_site_fract_y
_atom_site_fract_z
O1	O	1.114536	0.108100	-0.123301
O2	O	0.869977	0.121507	-0.123306
O3	O	0.998960	-0.007476	-0.123316
O4	O	0.985553	0.237083	-0.123291
O5	O	0.998941	-0.007473	0.123365
O6	O	0.869958	0.121510	0.123375
O7	O	1.114517	0.108103	0.123380
Cu8	Cu	0.992236	0.114807	0.145901
Cu9	Cu	0.992258	0.114803	-0.145827
O10	O	0.985534	0.237086	0.123390
C11	C	0.838673	0.120961	0.000034
C12	C	0.745424	0.119318	0.000031
C13	C	0.998403	-0.038769	0.000018
C14	C	0.996760	-0.132018	-0.000001
C15	C	0.509649	0.195240	0.000037
C16	C	0.459090	0.154300	0.121666
C17	C	0.574704	0.116273	0.000033
C18	C	0.459113	0.154278	-0.121542
C19	C	0.409795	0.113339	0.000029
C20	C	0.525373	0.075354	0.121762
C21	C	0.525400	0.075344	-0.121555
C22	C	0.474873	0.034346	0.000104
C23	C	0.669704	0.117966	0.000037
C24	C	0.314798	0.111640	0.000036
C25	C	1.072682	-0.367793	0.000029
C26	C	1.031749	-0.418354	-0.121597
C27	C	0.993716	-0.302738	0.000018
C28	C	1.031712	-0.418328	0.121610
C29	C	0.990781	-0.467647	0.000042
C30	C	0.952804	-0.352071	-0.121709
C31	C	0.952779	-0.352041	0.121608
C32	C	0.911788	-0.402569	-0.000048
C33	C	0.995408	-0.207739	0.000003
C34	C	0.989082	-0.562644	0.000046
C35	C	1.145821	0.108649	0.000037
C36	C	1.239069	0.110292	0.000030
C37	C	0.986091	0.268379	0.000052
C38	C	0.987734	0.361627	0.000061
N39	N	0.992226	0.114809	0.351087
N40	N	0.992274	0.114794	-0.351014
C41	C	0.923021	0.183579	0.586125
C42	C	0.923170	0.183832	0.414234
C43	C	1.079871	0.133940	0.413430
C44	C	1.079492	0.134426	0.585375
C45	C	0.974661	0.026676	0.585622
C46	C	0.972641	0.027267	0.413667
H47	H	0.430137	0.187650	0.224499
C48	C	0.819073	-0.511158	0.001083
C49	C	0.819896	-0.423439	-0.000131
H50	H	0.762343	-0.524042	0.001036
H51	H	0.847315	-0.534863	-0.084493
H52	H	0.846991	-0.534057	0.087547
H53	H	0.791983	-0.400540	-0.086601
H54	H	0.791642	-0.399724	0.085454
H55	H	0.554200	0.042027	0.224692
C56	C	0.949271	-0.346535	0.387671
C57	C	0.907790	-0.312923	0.260422
H58	H	0.921504	-0.322380	0.473376
H59	H	0.948326	-0.405984	0.389164
H60	H	1.006114	-0.334021	0.386782
H61	H	0.850949	-0.325443	0.261306
H62	H	0.908726	-0.253460	0.258930
C63	C	0.529082	-0.112439	0.001457
C64	C	0.454013	-0.057549	0.000196
H65	H	0.516202	-0.169170	0.001532
H66	H	0.561372	-0.102859	-0.084164
H67	H	0.560575	-0.102521	0.087877
H68	H	0.422522	-0.067463	-0.086230
H69	H	0.421709	-0.067134	0.085826
H70	H	1.095760	0.197472	0.370359
H71	H	0.934411	0.249225	0.373094
H72	H	1.065106	-0.447308	-0.224424
H73	H	1.065070	-0.447264	0.224430
H74	H	1.132630	0.085174	0.372522
H75	H	0.858022	0.172436	0.372087
C76	C	1.026642	-0.120688	0.583522
C77	C	1.042830	-0.042430	0.640500
H78	H	1.068731	-0.163344	0.617403
H79	H	0.972772	-0.133034	0.616284
H80	H	1.027459	-0.118762	0.478233
H81	H	1.042007	-0.044353	0.745790
H82	H	1.096715	-0.030081	0.607746
C83	C	0.909850	-0.225602	-0.259483
C84	C	0.907841	-0.313168	-0.260694
H85	H	0.882102	-0.201588	-0.345295
H86	H	0.881986	-0.202326	-0.173241
H87	H	0.966830	-0.213508	-0.259118
H88	H	0.850861	-0.325262	-0.261048
H89	H	0.935703	-0.336452	-0.346959
H90	H	0.857667	0.172368	0.627516
H91	H	1.132634	0.086301	0.626954
H92	H	0.934112	0.248602	0.629325
C93	C	0.530908	0.071858	-0.387619
C94	C	0.564519	0.030368	-0.260378
H95	H	0.555065	0.044099	-0.473329
H96	H	0.471458	0.070910	-0.389111
H97	H	0.543418	0.128702	-0.386720
H98	H	0.552003	-0.026474	-0.261272
H99	H	0.623982	0.031307	-0.258887
H100	H	1.140702	-0.352179	-0.000092
C101	C	0.437244	0.283499	-0.260109
C102	C	0.420069	0.199305	-0.260362
H103	H	0.413149	0.311297	-0.345815
H104	H	0.413646	0.310983	-0.173759
H105	H	0.496588	0.285315	-0.260607
H106	H	0.360724	0.197489	-0.259853
H107	H	0.443663	0.171814	-0.346734
H108	H	1.095015	0.198689	0.625471
C109	C	0.824551	0.062691	0.600803
C110	C	0.890247	0.001848	0.644203
H111	H	0.772435	0.047365	0.636963
H112	H	0.833980	0.116027	0.640376
H113	H	0.822677	0.065931	0.495632
H114	H	0.892125	-0.001388	0.749375
H115	H	0.880816	-0.051503	0.604637
C116	C	0.894945	-0.067333	0.276465
C117	C	0.885607	0.007661	0.358664
H118	H	0.841213	-0.079435	0.242509
H119	H	0.930667	-0.061141	0.193814
H120	H	0.919278	-0.112287	0.337337
H121	H	0.861280	0.052617	0.297788
H122	H	0.849872	0.001475	0.441326
C123	C	0.497093	0.328225	0.127741
C124	C	0.530740	0.287059	0.000203
H125	H	0.510121	0.384907	0.127849
H126	H	0.437575	0.327796	0.128616
H127	H	0.520777	0.299897	0.213252
H128	H	0.507051	0.315384	-0.085310
H129	H	0.590270	0.287494	-0.000686
C130	C	1.094609	-0.012169	0.262166
C131	C	1.036310	-0.045071	0.355668
H132	H	1.133924	-0.056827	0.226374
H133	H	1.065702	0.015804	0.180860
H134	H	1.123747	0.026821	0.315865
H135	H	1.007167	-0.084056	0.301966
H136	H	1.065220	-0.073057	0.436987
