data_functionalizedCrystal
_audit_creation_method	'MofGen! by Chris Wilmer'
_symmetry_space_group_name_H-M	'P1'
_symmetry_Int_Tables_number	1
_symmetry_cell_setting	triclinic
loop_
_symmetry_equiv_pos_as_xyz
  x,y,z
_cell_length_a	24.447405
_cell_length_b	24.446649
_cell_length_c	24.443239
_cell_angle_alpha	60.006064
_cell_angle_beta	60.011844
_cell_angle_gamma	59.992812
loop_
_atom_site_label
_atom_site_type_symbol
_atom_site_fract_x
_atom_site_fract_y
_atom_site_fract_z
O1	O	0.075907	-0.799232	0.668277
O2	O	0.028634	-0.622262	0.538455
O3	O	0.140702	-0.734230	0.538349
O4	O	-0.036160	-0.687265	0.668384
O5	O	0.177886	-0.697056	0.575424
O6	O	0.065818	-0.585088	0.575530
O7	O	0.113091	-0.762059	0.705353
Cu8	Cu	0.092850	-0.670179	0.643827
Cu9	Cu	0.048876	-0.714142	0.599981
O10	O	0.001024	-0.650091	0.705459
N11	N	0.123780	-0.639263	0.674669
N12	N	0.017951	-0.745064	0.569139
C13	C	0.170236	-0.489965	0.721065
C14	C	0.170249	-0.592837	0.721058
C15	C	0.195989	-0.567121	0.746758
C16	C	0.308182	-0.547773	0.687664
C17	C	0.378316	-0.571143	0.664253
C18	C	0.378353	-0.684626	0.707525
C19	C	0.308220	-0.661254	0.730938
C20	C	0.187125	-0.454882	0.652117
C21	C	0.163710	-0.384741	0.628763
C22	C	0.106523	-0.384772	0.743308
C23	C	0.129938	-0.454913	0.766662
C24	C	0.101291	-0.575906	0.738041
C25	C	0.077897	-0.599283	0.714670
C26	C	0.192412	-0.656523	0.657348
C27	C	0.215809	-0.633146	0.680711
C28	C	0.101393	-0.575928	0.859014
C29	C	0.078071	-0.599328	0.929152
C30	C	0.192636	-0.656582	0.929078
C31	C	0.215955	-0.633184	0.858938
C32	C	0.170332	-0.592855	0.823908
C33	C	0.273137	-0.592827	0.721004
C34	C	-0.131205	-0.791294	0.522327
C35	C	-0.028388	-0.791420	0.522551
C36	C	-0.054056	-0.817099	0.496741
C37	C	-0.073479	-0.929255	0.555734
C38	C	-0.050156	-0.999396	0.579142
C39	C	0.063326	-0.999525	0.536064
C40	C	0.040001	-0.929386	0.512654
C41	C	-0.166365	-0.808188	0.591256
C42	C	-0.236499	-0.784726	0.614512
C43	C	-0.236309	-0.727482	0.499907
C44	C	-0.166175	-0.750944	0.476651
C45	C	-0.045285	-0.722468	0.505590
C46	C	-0.021951	-0.699130	0.529061
C47	C	0.035176	-0.813691	0.586439
C48	C	0.011842	-0.837031	0.562976
C49	C	-0.045097	-0.722476	0.384488
C50	C	-0.021613	-0.699140	0.314350
C51	C	0.035607	-0.813706	0.314419
C52	C	0.012124	-0.837041	0.384558
C53	C	-0.028229	-0.791425	0.419591
C54	C	-0.028402	-0.894253	0.522492
N55	N	0.412405	-0.639229	0.674505
O56	O	0.626552	-0.645384	0.514503
O57	O	0.626802	-0.775625	0.691288
O58	O	0.626698	-0.775326	0.579168
O59	O	0.626656	-0.645683	0.626623
O60	O	0.515277	-0.738265	0.616407
O61	O	0.515382	-0.738564	0.728527
O62	O	0.515131	-0.608323	0.551742
Cu63	Cu	0.505083	-0.670059	0.643535
Cu64	Cu	0.636850	-0.713889	0.599495
O65	O	0.515236	-0.608622	0.663862
N66	N	0.729529	-0.744719	0.568518
N67	N	0.123755	-0.350686	0.674680
O68	O	-0.036153	-0.136410	0.668391
O69	O	0.140633	-0.136380	0.538141
O70	O	0.028472	-0.136412	0.538488
O71	O	0.076007	-0.136377	0.668044
O72	O	0.065663	-0.247842	0.575621
O73	O	0.177823	-0.247810	0.575274
O74	O	0.001037	-0.247840	0.705524
Cu75	Cu	0.092826	-0.258000	0.643789
Cu76	Cu	0.048844	-0.126220	0.599875
O77	O	0.113198	-0.247808	0.705177
N78	N	0.017907	-0.033534	0.568986
N79	N	0.124013	-0.639306	0.963182
O80	O	0.117754	-0.799195	1.177439
O81	O	-0.012458	-0.622342	1.177485
O82	O	-0.012155	-0.734480	1.177444
O83	O	0.117450	-0.687057	1.177480
O84	O	0.024954	-0.697317	1.066020
O85	O	0.024650	-0.585179	1.066061
O86	O	0.154862	-0.762032	1.066014
Cu87	Cu	0.093145	-0.670212	1.055863
Cu88	Cu	0.049259	-0.714162	1.187636
O89	O	0.154559	-0.649894	1.066055
N90	N	0.018389	-0.745075	1.280318
C91	C	0.042795	-0.581375	0.539107
C92	C	0.181576	-0.720034	0.538975
C93	C	0.098930	-0.802946	0.704700
C94	C	-0.039851	-0.664287	0.704832
C95	C	0.571122	-0.775030	0.732180
C96	C	0.570995	-0.774660	0.593332
C97	C	0.570808	-0.608917	0.510851
C98	C	0.570939	-0.609288	0.649698
C99	C	0.181453	-0.191954	0.538725
C100	C	0.042602	-0.192131	0.539201
C101	C	-0.039829	-0.192128	0.704893
C102	C	0.099069	-0.192090	0.704464
C103	C	-0.011836	-0.581480	1.121779
C104	C	-0.011453	-0.720342	1.121706
C105	C	0.154240	-0.802894	1.121720
C106	C	0.153865	-0.664024	1.121769
H107	H	0.021932	-0.585534	0.957726
H108	H	-0.090650	-0.654278	0.745664
C109	C	0.028856	-0.192142	0.484211
C110	C	0.010374	-0.250017	0.496615
C111	C	-0.003372	-0.250028	0.441626
C112	C	0.001364	-0.192166	0.374232
C113	C	0.019847	-0.134287	0.361824
C114	C	0.033593	-0.134275	0.416814
H115	H	0.006867	-0.292854	0.546507
H116	H	-0.017054	-0.292874	0.450811
H117	H	-0.008811	-0.192174	0.333525
H118	H	0.023354	-0.091450	0.311933
H119	H	0.047275	-0.091430	0.407629
C120	C	0.250198	-0.733551	0.483807
C121	C	0.293393	-0.690061	0.454934
C122	C	0.362015	-0.703578	0.399766
C123	C	0.387440	-0.760583	0.373471
C124	C	0.344244	-0.804077	0.402343
C125	C	0.275622	-0.790560	0.457511
H126	H	0.274573	-0.647859	0.474400
H127	H	0.393992	-0.671381	0.378393
H128	H	0.438238	-0.770589	0.332632
H129	H	0.363065	-0.846279	0.382877
H130	H	0.243646	-0.822757	0.478884
C131	C	0.570704	-0.553673	0.442265
C132	C	0.628514	-0.565798	0.378176
C133	C	0.628411	-0.510554	0.309590
C134	C	0.570497	-0.443185	0.305093
C135	C	0.512683	-0.431056	0.369184
C136	C	0.512787	-0.486300	0.437770
H137	H	0.671389	-0.615672	0.381503
H138	H	0.671209	-0.519533	0.262146
H139	H	0.570421	-0.402290	0.254322
H140	H	0.469809	-0.381182	0.365857
H141	H	0.469989	-0.477321	0.485215
H142	H	0.194582	-0.653876	1.121771
C143	C	0.570919	-0.554266	0.663410
C144	C	0.570994	-0.567985	0.732106
C145	C	0.570974	-0.512963	0.745818
C146	C	0.570880	-0.444222	0.690835
C147	C	0.570805	-0.430500	0.622135
C148	C	0.570825	-0.485522	0.608423
H149	H	0.571064	-0.618874	0.772811
H150	H	0.571030	-0.523122	0.796675
H151	H	0.570865	-0.403492	0.700986
H152	H	0.570735	-0.379612	0.581430
H153	H	0.570770	-0.475364	0.557566
H154	H	0.232119	-0.191636	0.497733
H155	H	0.109031	-0.853782	0.745475
C156	C	-0.066438	-0.734019	1.121626
C157	C	-0.052709	-0.802719	1.121570
C158	C	-0.107695	-0.816396	1.121490
C159	C	-0.176408	-0.761372	1.121467
C160	C	-0.190140	-0.692668	1.121524
C161	C	-0.135154	-0.678991	1.121604
H162	H	-0.001841	-0.843455	1.121587
H163	H	-0.097529	-0.867256	1.121448
H164	H	-0.217111	-0.771497	1.121409
H165	H	-0.241008	-0.651932	1.121507
H166	H	-0.145320	-0.628131	1.121646
C167	C	0.112815	-0.192081	0.759455
C168	C	0.108079	-0.249945	0.826848
C169	C	0.121826	-0.249937	0.881838
C170	C	0.140309	-0.192064	0.869436
C171	C	0.145046	-0.134196	0.802040
C172	C	0.131299	-0.134204	0.747050
H173	H	0.094396	-0.292790	0.836031
H174	H	0.118319	-0.292775	0.931729
H175	H	0.150485	-0.192058	0.910143
H176	H	0.158728	-0.091351	0.792857
H177	H	0.134806	-0.091366	0.697159
H178	H	-0.052716	-0.530687	1.121793
C179	C	0.571017	-0.829682	0.579619
C180	C	0.571112	-0.898424	0.634601
C181	C	0.571134	-0.953446	0.620888
C182	C	0.571060	-0.939728	0.552192
C183	C	0.570965	-0.870984	0.497205
C184	C	0.570943	-0.815961	0.510919
H185	H	0.571167	-0.908582	0.685458
H186	H	0.571205	-1.004336	0.661594
H187	H	0.571077	-0.980459	0.542041
H188	H	0.570910	-0.860825	0.446349
H189	H	0.570872	-0.765072	0.470213
H190	H	0.571186	-0.815915	0.782955
C191	C	-0.108415	-0.192137	0.760137
C192	C	-0.163649	-0.192154	0.746780
C193	C	-0.232235	-0.192163	0.802023
C194	C	-0.245588	-0.192155	0.870624
C195	C	-0.190352	-0.192138	0.883984
C196	C	-0.121766	-0.192129	0.828741
H197	H	-0.153766	-0.192160	0.695995
H198	H	-0.273124	-0.192176	0.792132
H199	H	-0.296359	-0.192162	0.911518
H200	H	-0.200235	-0.192132	0.934769
H201	H	-0.080877	-0.192116	0.838631
C202	C	0.209471	-0.871509	1.121703
C203	C	0.196089	-0.926721	1.121680
C204	C	0.251320	-0.995336	1.121662
C205	C	0.319932	-1.008740	1.121667
C206	C	0.333316	-0.953526	1.121689
C207	C	0.278086	-0.884911	1.121707
H208	H	0.145296	-0.916800	1.121677
H209	H	0.241411	-1.036209	1.121646
H210	H	0.360817	-1.059533	1.121653
H211	H	0.384110	-0.963447	1.121692
H212	H	0.287994	-0.844039	1.121724
H213	H	0.064236	-0.543084	0.830495
C214	C	0.231447	-0.493442	0.601963
C215	C	0.257203	-0.570593	0.627650
C216	C	0.301524	-0.609152	0.577493
C217	C	0.320090	-0.570559	0.501649
C218	C	0.294334	-0.493404	0.475959
C219	C	0.250012	-0.454845	0.526116
H220	H	0.243460	-0.599165	0.683797
H221	H	0.320591	-0.666268	0.596511
H222	H	0.352900	-0.599103	0.464520
H223	H	0.308077	-0.464831	0.419811
H224	H	0.230946	-0.397729	0.507097
C225	C	0.242824	-0.700930	0.967605
C226	C	0.242542	-0.677639	1.015811
C227	C	0.292733	-0.721989	1.054337
C228	C	0.343208	-0.789629	1.044657
C229	C	0.343492	-0.812923	0.996449
C230	C	0.293300	-0.768574	0.957923
H231	H	0.205176	-0.627565	1.022978
H232	H	0.292523	-0.704744	1.090024
H233	H	0.380362	-0.822459	1.073177
H234	H	0.380858	-0.862998	0.989281
H235	H	0.293511	-0.785818	0.922236
C236	C	0.051173	-0.531563	0.782416
C237	C	0.000756	-0.558416	0.850076
C238	C	-0.049365	-0.514073	0.894453
C239	C	-0.049069	-0.442877	0.871171
C240	C	0.001349	-0.416021	0.803507
C241	C	0.051470	-0.460363	0.759130
H242	H	0.000536	-0.611123	0.867314
H243	H	-0.086687	-0.533955	0.944542
H244	H	-0.086172	-0.410052	0.904022
H245	H	0.001569	-0.363314	0.786269
H246	H	0.088792	-0.440482	0.709041
H247	H	0.021747	-0.585481	0.728482
C248	C	0.269669	-0.710817	0.767613
C249	C	0.308262	-0.786084	0.778532
C250	C	0.269711	-0.835647	0.815210
C251	C	0.192566	-0.809944	0.840968
C252	C	0.153969	-0.734673	0.830049
C253	C	0.192520	-0.685110	0.793371
H254	H	0.365373	-0.805115	0.759464
H255	H	0.298284	-0.891368	0.823293
H256	H	0.164029	-0.846633	0.868119
H257	H	0.096858	-0.715642	0.849117
H258	H	0.163947	-0.629389	0.785288
C259	C	0.416954	-0.759897	0.718441
C260	C	0.465219	-0.798977	0.758789
C261	C	0.503819	-0.874246	0.769705
C262	C	0.494155	-0.910434	0.740273
C263	C	0.445887	-0.871354	0.699922
C264	C	0.407287	-0.796085	0.689007
H265	H	0.472375	-0.772188	0.780579
H266	H	0.539550	-0.903176	0.799575
H267	H	0.522729	-0.966153	0.748353
H268	H	0.438731	-0.898142	0.678132
H269	H	0.371557	-0.767155	0.659136
C270	C	0.242533	-0.700864	0.612972
C271	C	0.242246	-0.772063	0.636253
C272	C	0.292371	-0.816403	0.591873
C273	C	0.342783	-0.789544	0.524213
C274	C	0.343072	-0.718342	0.500929
C275	C	0.292948	-0.674002	0.545308
H276	H	0.204926	-0.791948	0.686342
H277	H	0.292156	-0.869112	0.609110
H278	H	0.379889	-0.822368	0.491360
H279	H	0.380392	-0.698456	0.450839
H280	H	0.293162	-0.621293	0.528071
H281	H	0.032695	-0.530537	0.498334
H282	H	0.271959	-0.646925	0.666876
C283	C	0.416866	-0.521581	0.627574
C284	C	0.407246	-0.478957	0.663434
C285	C	0.445796	-0.429393	0.626752
C286	C	0.493967	-0.422452	0.554210
C287	C	0.503589	-0.465077	0.518346
C288	C	0.465039	-0.514641	0.555028
H289	H	0.371585	-0.484094	0.717137
H290	H	0.438673	-0.397839	0.653301
H291	H	0.522504	-0.385761	0.527056
H292	H	0.539250	-0.459940	0.464642
H293	H	0.472162	-0.546195	0.528478
C294	C	0.269592	-0.472503	0.676739
C295	C	0.279181	-0.421499	0.605172
C296	C	0.240589	-0.346227	0.594246
C297	C	0.192408	-0.321960	0.654887
C298	C	0.182816	-0.372964	0.726458
C299	C	0.221408	-0.448236	0.737384
H300	H	0.314850	-0.439462	0.560278
H301	H	0.247689	-0.308470	0.541264
H302	H	0.163839	-0.266239	0.646799
H303	H	0.147147	-0.355001	0.771352
H304	H	0.214308	-0.485993	0.790366
H305	H	0.177459	-0.356175	0.572617
C306	C	0.062202	-0.346205	0.793459
C307	C	0.085497	-0.297975	0.793112
C308	C	0.041174	-0.259408	0.843262
C309	C	-0.026444	-0.269070	0.893758
C310	C	-0.049743	-0.317302	0.894107
C311	C	-0.005420	-0.355869	0.843957
H312	H	0.135556	-0.290821	0.755730
H313	H	0.058422	-0.223704	0.843003
H314	H	-0.059255	-0.240520	0.930881
H315	H	-0.099802	-0.324456	0.931489
H316	H	-0.022668	-0.391573	0.844216
C317	C	-0.040181	-0.623291	0.275745
C318	C	-0.019804	-0.579292	0.285465
C319	C	-0.038372	-0.503444	0.246859
C320	C	-0.077318	-0.471595	0.198532
C321	C	-0.097697	-0.515594	0.188809
C322	C	-0.079129	-0.591442	0.227415
H323	H	0.009028	-0.602868	0.321242
H324	H	-0.023286	-0.470873	0.254056
H325	H	-0.091063	-0.415448	0.169953
H326	H	-0.126529	-0.492018	0.153033
H327	H	-0.094216	-0.624013	0.220218
H328	H	0.272095	-0.646975	0.830359
H329	H	0.116177	-0.483478	0.822809
H330	H	-0.077958	-0.685325	0.413008
H331	H	0.025866	-0.893188	0.413136
C332	C	0.079982	-0.863887	0.275890
C333	C	0.147571	-0.914417	0.285667
C334	C	0.191947	-0.964601	0.247138
C335	C	0.168734	-0.964256	0.198832
C336	C	0.101142	-0.913724	0.189053
C337	C	0.056766	-0.863540	0.227581
H338	H	0.164758	-0.914674	0.321428
H339	H	0.241984	-1.002008	0.254378
H340	H	0.201584	-1.001405	0.170311
H341	H	0.083955	-0.913467	0.153292
H342	H	0.006729	-0.826133	0.220342
H343	H	-0.035712	-0.642984	0.515253
C344	C	-0.089541	-0.672293	0.461128
C345	C	-0.062606	-0.621882	0.393509
C346	C	-0.106861	-0.571704	0.349044
C347	C	-0.178051	-0.571937	0.372199
C348	C	-0.204989	-0.622350	0.439823
C349	C	-0.160734	-0.672528	0.484287
H350	H	-0.009904	-0.621708	0.376365
H351	H	-0.086920	-0.534385	0.298985
H352	H	-0.210812	-0.534792	0.339284
H353	H	-0.257692	-0.622524	0.456967
H354	H	-0.180676	-0.709846	0.534346
H355	H	0.067938	-0.850836	0.619346
C356	C	0.089588	-0.890881	0.476089
C357	C	0.132128	-0.900567	0.512077
C358	C	0.181715	-0.862062	0.475510
C359	C	0.188763	-0.813872	0.402956
C360	C	0.146222	-0.804184	0.366965
C361	C	0.096634	-0.842689	0.403531
H362	H	0.126913	-0.936242	0.565789
H363	H	0.213207	-0.869234	0.502154
H364	H	0.225470	-0.785369	0.375888
H365	H	0.151437	-0.768509	0.313252
H366	H	0.065143	-0.835517	0.376887
C367	C	0.138571	-1.038179	0.525249
C368	C	0.162735	-1.086409	0.585955
C369	C	0.237979	-1.125062	0.575139
C370	C	0.289057	-1.115487	0.503616
C371	C	0.264893	-1.067255	0.442905
C372	C	0.189650	-1.028602	0.453721
H373	H	0.124923	-1.093499	0.638905
H374	H	0.255866	-1.160767	0.620082
H375	H	0.344756	-1.144101	0.495609
H376	H	0.302705	-1.060165	0.389955
H377	H	0.171763	-0.992897	0.408778
C378	C	-0.099750	-1.037891	0.615717
C379	C	-0.157233	-1.028173	0.680804
C380	C	-0.206833	-1.066665	0.717383
C381	C	-0.198950	-1.114875	0.688875
C382	C	-0.141465	-1.124595	0.623786
C383	C	-0.091865	-1.086103	0.587207
H384	H	-0.163071	-0.992483	0.701910
H385	H	-0.249388	-1.059469	0.765567
H386	H	-0.235667	-1.143369	0.715953
H387	H	-0.135627	-1.160285	0.602680
H388	H	-0.049310	-1.093299	0.539023
C389	C	-0.127896	-0.852568	0.641496
C390	C	-0.166572	-0.871141	0.717319
C391	C	-0.128104	-0.915521	0.767562
C392	C	-0.050960	-0.941329	0.741982
C393	C	-0.012279	-0.922757	0.666156
C394	C	-0.050747	-0.878377	0.615913
H395	H	-0.223683	-0.852036	0.736258
H396	H	-0.156739	-0.929269	0.823694
H397	H	-0.022483	-0.974182	0.779175
H398	H	0.044832	-0.941862	0.647217
H399	H	-0.022112	-0.864629	0.559781
H400	H	0.025599	-0.893178	0.576787
H401	H	-0.129177	-0.900656	0.563750
H402	H	-0.264783	-0.694634	0.462714
C403	C	-0.275183	-0.803304	0.690339
C404	C	-0.323417	-0.747820	0.722111
C405	C	-0.362101	-0.766398	0.797936
C406	C	-0.352551	-0.840459	0.841989
C407	C	-0.304314	-0.895948	0.810217
C408	C	-0.265630	-0.877370	0.734392
H409	H	-0.330488	-0.692990	0.689500
H410	H	-0.397809	-0.725321	0.821455
H411	H	-0.381187	-0.854212	0.898119
H412	H	-0.297243	-0.950778	0.842828
H413	H	-0.229922	-0.918447	0.710873
H414	H	-0.137547	-0.737181	0.420520
