data_functionalizedCrystal
_audit_creation_method	'MofGen! by Chris Wilmer'
_symmetry_space_group_name_H-M	'P1'
_symmetry_Int_Tables_number	1
_symmetry_cell_setting	triclinic
loop_
_symmetry_equiv_pos_as_xyz
  x,y,z
_cell_length_a	14.971482
_cell_length_b	10.540510
_cell_length_c	13.448316
_cell_angle_alpha	89.995897
_cell_angle_beta	89.993798
_cell_angle_gamma	84.062960
loop_
_atom_site_label
_atom_site_type_symbol
_atom_site_fract_x
_atom_site_fract_y
_atom_site_fract_z
O1	O	1.187869	0.165403	-0.082673
O2	O	0.927578	0.185218	-0.082678
O3	O	1.063676	-0.009466	-0.082675
O4	O	1.051771	0.360087	-0.082676
O5	O	1.063659	-0.009478	0.082709
O6	O	0.927561	0.185206	0.082706
O7	O	1.187852	0.165391	0.082710
Cu8	Cu	1.057705	0.175297	0.097809
Cu9	Cu	1.057725	0.175312	-0.097776
O10	O	1.051754	0.360075	0.082708
C11	C	0.894240	0.184327	0.000014
C12	C	0.794928	0.181674	0.000012
C13	C	0.748267	0.180418	0.090164
C14	C	0.654955	0.177905	0.090165
C15	C	0.608304	0.176657	0.000013
C16	C	0.654972	0.177909	-0.090146
C17	C	0.748284	0.180413	-0.090146
C18	C	0.460481	0.172693	-0.090139
C19	C	0.367163	0.170191	-0.090140
C20	C	0.367152	0.170185	0.090171
C21	C	0.460464	0.172689	0.090171
C22	C	0.507125	0.173943	0.000012
C23	C	1.062780	-0.056766	0.000015
C24	C	1.060126	-0.197685	0.000009
C25	C	1.154672	-0.416216	0.000389
C26	C	1.157504	-0.269652	0.000011
C27	C	1.010288	-0.241870	-0.094432
C28	C	1.008147	-0.388607	-0.094506
C29	C	1.006099	-0.388406	0.093566
C30	C	1.010718	-0.242118	0.094809
C31	C	1.221190	0.166282	0.000017
C32	C	1.320502	0.168935	0.000012
C33	C	1.052650	0.407375	0.000016
C34	C	1.055304	0.548294	0.000015
N35	N	1.057697	0.175287	0.235373
N36	N	1.057740	0.175312	-0.235341
C37	C	1.117980	0.089116	0.287415
C38	C	1.117986	0.089115	0.391518
C39	C	1.057712	0.175292	0.443578
C40	C	0.997422	0.261466	0.391529
C41	C	0.997413	0.261460	0.287428
C42	C	0.997447	0.261475	0.608509
C43	C	0.997457	0.261483	0.712618
C44	C	1.118020	0.089130	0.712600
C45	C	1.118010	0.089124	0.608498
C46	C	1.057722	0.175300	0.556457
H47	H	0.329156	0.169163	0.163582
F48	F	0.317516	0.168861	-0.186089
F49	F	1.058111	-0.205257	0.186133
F50	F	0.510140	0.174024	-0.186097
F51	F	0.605297	0.176585	0.186117
F52	F	1.182165	-0.002586	0.553092
F53	F	0.910537	-0.416273	0.094399
H54	H	1.196499	-0.240756	0.067709
F55	F	0.605324	0.176542	-0.186092
H56	H	1.167066	0.018946	0.245035
F57	F	0.797907	0.181754	0.186117
H58	H	0.786274	0.181438	-0.163557
H59	H	0.948323	0.331628	0.245057
F60	F	1.204253	-0.471622	0.088916
F61	F	1.182183	-0.002584	0.767990
F62	F	1.203985	-0.473632	-0.087634
H63	H	1.042220	-0.429205	-0.165101
F64	F	1.208786	-0.233094	-0.088629
H65	H	0.498443	0.173713	0.163581
F66	F	1.055546	-0.202053	-0.186298
F67	F	0.912952	-0.417585	-0.100115
H68	H	1.167072	0.018948	0.433890
F69	F	0.916588	-0.178861	-0.099031
F70	F	0.933277	0.353192	0.553127
H71	H	1.037037	-0.430945	0.165153
F72	F	0.917791	-0.176931	0.102263
H73	H	0.948375	0.331656	0.755000
F74	F	0.933269	0.353178	0.446936
