data_functionalizedCrystal
_audit_creation_method	'MofGen! by Chris Wilmer'
_symmetry_space_group_name_H-M	'P1'
_symmetry_Int_Tables_number	1
_symmetry_cell_setting	triclinic
loop_
_symmetry_equiv_pos_as_xyz
  x,y,z
_cell_length_a	11.026607
_cell_length_b	17.699083
_cell_length_c	16.776229
_cell_angle_alpha	90.007545
_cell_angle_beta	90.005981
_cell_angle_gamma	95.934516
loop_
_atom_site_label
_atom_site_type_symbol
_atom_site_fract_x
_atom_site_fract_y
_atom_site_fract_z
O1	O	-1.609234	-0.316812	-0.066299
O2	O	-1.256034	-0.280737	-0.066298
O3	O	-1.442612	-0.189956	-0.066291
O4	O	-1.422655	-0.407592	-0.066306
O5	O	-1.442588	-0.189945	0.066285
O6	O	-1.256009	-0.280726	0.066278
O7	O	-1.609209	-0.316801	0.066278
Zn8	Zn	-1.432605	-0.298762	0.087327
Zn9	Zn	-1.432638	-0.298776	-0.087348
O10	O	-1.422630	-0.407582	0.066271
C11	C	-1.210830	-0.274076	-0.000010
C12	C	-1.076175	-0.254237	-0.000010
C13	C	-1.654412	-0.323461	-0.000012
C14	C	-1.789068	-0.343301	-0.000018
C15	C	-1.441885	-0.161655	-0.000003
C16	C	-1.439740	-0.077343	-0.000003
C17	C	-1.002207	-0.309017	-0.000014
C18	C	-0.863034	-0.288513	-0.000014
C19	C	-1.423358	-0.435882	-0.000019
C20	C	-1.425503	-0.520195	-0.000025
N21	N	-1.432592	-0.298753	0.206539
C22	C	-1.549257	-0.043769	-0.000002
C23	C	-1.547234	0.035453	-0.000009
C24	C	-1.435692	0.081099	-0.000011
C25	C	-1.326166	0.047520	-0.000015
C26	C	-1.328190	-0.031700	-0.000013
C27	C	-1.318000	0.367005	-0.000021
C28	C	-1.315984	0.446230	-0.000020
C29	C	-1.537044	0.434158	-0.000017
C30	C	-1.539068	0.354938	-0.000015
C31	C	-1.429543	0.321366	-0.000023
C32	C	-1.431738	0.235465	-0.000017
C33	C	-1.433496	0.166998	-0.000012
N34	N	-1.432661	-0.298780	-0.206559
C35	C	-1.515234	-0.258580	0.248259
C36	C	-1.515240	-0.258580	0.331711
C37	C	-1.432610	-0.298759	0.373441
C38	C	-1.349959	-0.338933	0.331715
C39	C	-1.349947	-0.338928	0.248265
C40	C	-1.350003	-0.338954	0.668263
C41	C	-1.350023	-0.338958	0.751719
C42	C	-1.515296	-0.258606	0.751709
C43	C	-1.515284	-0.258601	0.668258
C44	C	-1.432630	-0.298772	0.626539
C45	C	-1.432622	-0.298770	0.536051
C46	C	-1.432623	-0.298765	0.463928
H47	H	-0.823331	-0.226431	-0.000030
O48	O	-1.054797	-0.391249	-0.000013
H49	H	-0.979444	-0.428258	-0.000009
O50	O	-0.841632	-0.425541	-0.000019
H51	H	-0.898593	-0.437203	-0.054057
O52	O	-1.023596	-0.172003	-0.000004
H53	H	-0.922534	-0.168803	-0.000010
O54	O	-1.669564	-0.093001	-0.000007
H55	H	-1.745378	-0.056342	-0.000017
O56	O	-1.659380	0.305712	-0.000018
H57	H	-1.665594	0.269341	0.054020
O58	O	-1.665365	0.071657	-0.000002
H59	H	-1.669759	0.107444	-0.054044
O60	O	-1.210069	-0.067918	-0.000006
H61	H	-1.132166	-0.022870	0.000002
O62	O	-1.655183	0.470365	-0.000015
H63	H	-1.635044	0.533120	-0.000025
H64	H	-1.225148	0.483393	-0.000020
O65	O	-1.604445	-0.215278	0.796710
H66	H	-1.661912	-0.187349	0.753671
H67	H	-1.582526	-0.225866	0.214287
O68	O	-1.260865	-0.382289	0.623276
H69	H	-1.274724	-0.375533	0.558237
H70	H	-1.228817	0.339680	-0.000027
H71	H	-1.235346	0.084691	-0.000022
O72	O	-1.260915	-0.382309	0.796734
H73	H	-1.203438	-0.410242	0.753705
O74	O	-1.260837	-0.382274	0.376719
H75	H	-1.274737	-0.375537	0.441757
O76	O	-1.604401	-0.215263	0.376703
H77	H	-1.589150	-0.154173	0.360692
O78	O	-1.604399	-0.215262	0.623246
H79	H	-1.661859	-0.187319	0.666278
O80	O	-1.260819	-0.382261	0.203260
H81	H	-1.203370	-0.410208	0.246296
