data_functionalizedCrystal
_audit_creation_method	'MofGen! by Chris Wilmer'
_symmetry_space_group_name_H-M	'P1'
_symmetry_Int_Tables_number	1
_symmetry_cell_setting	triclinic
loop_
_symmetry_equiv_pos_as_xyz
  x,y,z
_cell_length_a	17.699083
_cell_length_b	17.699097
_cell_length_c	16.176319
_cell_angle_alpha	89.988988
_cell_angle_beta	89.992304
_cell_angle_gamma	83.285722
loop_
_atom_site_label
_atom_site_type_symbol
_atom_site_fract_x
_atom_site_fract_y
_atom_site_fract_z
O1	O	0.095761	1.004072	-0.068817
O2	O	0.595761	1.504072	0.431183
O3	O	0.108203	0.783695	-0.068804
O4	O	0.608203	1.283695	0.431196
O5	O	-0.008207	0.900110	-0.068803
O6	O	0.491793	1.400110	0.431197
O7	O	0.212171	0.887658	-0.068817
O8	O	0.712171	1.387658	0.431183
O9	O	-0.008214	0.900094	0.068690
O10	O	0.491786	1.400094	0.568690
O11	O	0.108195	0.783679	0.068690
O12	O	0.608195	1.283679	0.568690
O13	O	0.095754	1.004056	0.068676
O14	O	0.595754	1.504056	0.568676
Cu15	Cu	0.101974	0.893867	0.081237
Cu16	Cu	0.601974	1.393867	0.581237
Cu17	Cu	0.101983	0.893885	-0.081364
Cu18	Cu	0.601983	1.393885	0.418636
O19	O	0.212163	0.887642	0.068676
O20	O	0.712163	1.387642	0.568676
C21	C	0.107752	0.755491	-0.000055
C22	C	0.607752	1.255491	0.499945
C23	C	0.106409	0.671473	-0.000050
C24	C	0.606409	1.171473	0.499950
C25	C	0.098184	0.155764	-0.075030
C26	C	0.598184	0.655764	0.424970
C27	C	0.099440	0.234708	-0.075026
C28	C	0.599440	0.734708	0.424974
C29	C	0.100065	0.274165	-0.000076
C30	C	0.600065	0.774165	0.499924
C31	C	0.099427	0.234675	0.074876
C32	C	0.599427	0.734675	0.574876
C33	C	0.098165	0.155733	0.074871
C34	C	0.598165	0.655733	0.574871
C35	C	0.104514	0.553039	0.074898
C36	C	0.604514	1.053039	0.574898
C37	C	0.105778	0.631986	0.074897
C38	C	0.605778	1.131986	0.574897
C39	C	0.105789	0.632014	-0.075000
C40	C	0.605789	1.132014	0.425000
C41	C	0.104527	0.553072	-0.075005
C42	C	0.604527	1.053072	0.424995
C43	C	0.103885	0.513589	-0.000054
C44	C	0.603885	1.013589	0.499946
C45	C	0.102521	0.427989	-0.000059
C46	C	0.602521	0.927989	0.499941
C47	C	0.101434	0.359763	-0.000069
C48	C	0.601434	0.859763	0.499931
C49	C	-0.036408	0.899656	-0.000057
C50	C	0.463592	1.399656	0.499943
C51	C	-0.120426	0.898317	-0.000056
C52	C	0.379574	1.398317	0.499944
C53	C	-0.169044	0.966650	-0.000059
C54	C	0.330956	1.466650	0.499941
C55	C	-0.247987	0.965388	-0.000066
C56	C	0.252013	1.465388	0.499934
C57	C	-0.278311	0.895792	-0.000065
C58	C	0.221689	1.395792	0.499935
C59	C	-0.229687	0.827454	-0.000064
C60	C	0.270313	1.327454	0.499936
C61	C	-0.150745	0.828717	-0.000063
C62	C	0.349255	1.328717	0.499937
C63	C	-0.548050	0.822359	-0.000071
C64	C	-0.048050	1.322359	0.499929
C65	C	-0.626998	0.821101	-0.000070
C66	C	-0.126998	1.321101	0.499930
C67	C	-0.645292	0.959030	-0.000074
C68	C	-0.145292	1.459030	0.499926
C69	C	-0.566350	0.960293	-0.000073
C70	C	-0.066350	1.460293	0.499927
C71	C	-0.517733	0.891955	-0.000077
C72	C	-0.017733	1.391955	0.499923
C73	C	-0.432134	0.893325	-0.000070
C74	C	0.067866	1.393325	0.499930
C75	C	-0.363909	0.894422	-0.000065
C76	C	0.136091	1.394422	0.499935
C77	C	0.240364	0.888096	-0.000073
C78	C	0.740364	1.388096	0.499927
C79	C	0.324382	0.889435	-0.000078
C80	C	0.824382	1.389435	0.499922
C81	C	0.096205	1.032261	-0.000074
C82	C	0.596205	1.532261	0.499926
C83	C	0.097547	1.116279	-0.000084
C84	C	0.597547	1.616279	0.499916
N85	N	0.101967	0.893859	0.195602
N86	N	0.601967	1.393859	0.695602
N87	N	0.101983	0.893899	-0.195730
N88	N	0.601983	1.393899	0.304270
C89	C	0.050442	0.945423	0.238867
C90	C	0.550442	1.445423	0.738867
C91	C	0.050441	0.945426	0.325414
C92	C	0.550441	1.445426	0.825414
C93	C	0.101970	0.893869	0.368695
C94	C	0.601970	1.393869	0.868695
C95	C	0.153498	0.842300	0.325425
C96	C	0.653498	1.342300	0.825425
C97	C	0.153494	0.842293	0.238879
C98	C	0.653494	1.342293	0.738879
C99	C	0.153512	0.842326	0.674453
C100	C	0.653512	1.342326	1.174453
C101	C	0.153513	0.842338	0.761004
C102	C	0.653513	1.342338	1.261004
C103	C	0.050459	0.945459	0.760988
C104	C	0.550459	1.445459	1.260988
C105	C	0.050455	0.945452	0.674442
C106	C	0.550455	1.445452	1.174442
C107	C	0.101980	0.893881	0.631179
C108	C	0.601980	1.393881	1.131179
C109	C	0.101979	0.893876	0.537335
C110	C	0.601979	1.393876	1.037335
C111	C	0.101975	0.893877	0.462538
C112	C	0.601975	1.393877	0.962538
H113	H	0.103980	0.520903	0.135928
H114	H	0.603980	1.020903	0.635928
H115	H	-0.111161	0.773073	-0.000061
H116	H	0.388839	1.273073	0.499939
N117	N	-0.005133	1.001026	0.192177
N118	N	0.494867	1.501026	0.692177
H119	H	0.003515	1.054727	0.207217
H120	H	0.503515	1.554727	0.707217
H121	H	-0.058816	0.992345	0.207268
H122	H	0.441184	1.492345	0.707268
N123	N	-0.005126	1.001050	0.372075
N124	N	0.494874	1.501050	0.872075
H125	H	0.002691	0.993231	0.433469
H126	H	0.502691	1.493231	0.933469
H127	H	-0.058811	0.992414	0.356959
H128	H	0.441189	1.492414	0.856959
H129	H	0.099931	0.266808	0.135903
H130	H	0.599931	0.766808	0.635903
H131	H	0.097655	0.123585	0.135900
H132	H	0.597655	0.623585	0.635900
H133	H	0.008498	0.987437	0.639205
H134	H	0.508498	1.487437	1.139205
N135	N	0.106478	0.674599	-0.155844
N136	N	0.606478	1.174599	0.344156
H137	H	0.107369	0.730596	-0.144472
H138	H	0.607369	1.230596	0.355528
H139	H	0.059360	0.667025	-0.188573
H140	H	0.559360	1.167025	0.311427
H141	H	0.106287	0.664110	0.135935
H142	H	0.606287	1.164110	0.635935
N143	N	-0.005118	1.001084	0.807649
N144	N	0.494882	1.501084	1.307649
H145	H	0.002698	0.993267	0.869043
H146	H	0.502698	1.493267	1.369043
H147	H	-0.058802	0.992446	0.792532
H148	H	0.441198	1.492446	1.292532
N149	N	0.209088	0.786724	0.807689
N150	N	0.709088	1.286724	1.307689
H151	H	0.241726	0.754049	0.767151
H152	H	0.741726	1.254049	1.267151
H153	H	0.180144	0.753332	0.843614
H154	H	0.680144	1.253332	1.343614
H155	H	-0.287569	1.021032	-0.000067
H156	H	0.212431	1.521032	0.499933
H157	H	-0.508475	0.766714	-0.000074
H158	H	-0.008475	1.266714	0.499926
N159	N	0.103844	0.510518	-0.155846
N160	N	0.603844	1.010518	0.344154
H161	H	0.102948	0.454517	-0.144476
H162	H	0.602948	0.954517	0.355524
H163	H	0.150965	0.518100	-0.188581
H164	H	0.650965	1.018100	0.311419
N165	N	-0.697735	1.032737	-0.000072
N166	N	-0.197735	1.532737	0.499928
H167	H	-0.730889	1.035299	-0.051042
H168	H	-0.230889	1.535299	0.448958
H169	H	-0.666494	1.076975	-0.000036
H170	H	-0.166494	1.576975	0.499964
H171	H	-0.541665	1.016965	-0.000070
H172	H	-0.041665	1.516965	0.499930
H173	H	0.195466	0.800336	0.639235
H174	H	0.695466	1.300336	1.139235
N175	N	0.209071	0.786685	0.372102
N176	N	0.709071	1.286685	0.872102
H177	H	0.201257	0.794514	0.433493
H178	H	0.701257	1.294514	0.933493
H179	H	0.262754	0.795323	0.356959
H180	H	0.762754	1.295323	0.856959
N181	N	0.209063	0.786674	0.192211
N182	N	0.709063	1.286674	0.692211
H183	H	0.241708	0.754014	0.232760
H184	H	0.741708	1.254014	0.732760
H185	H	0.242489	0.815578	0.156284
H186	H	0.742489	1.315578	0.656284
N187	N	-0.136340	1.041715	-0.000053
N188	N	0.363660	1.541715	0.499947
H189	H	-0.179121	1.084812	-0.000057
H190	H	0.320879	1.584812	0.499943
H191	H	-0.103977	1.045251	-0.051022
H192	H	0.396023	1.545251	0.448978
H193	H	-0.254383	0.770787	-0.000068
H194	H	0.245617	1.270787	0.499932
N195	N	0.097514	0.113208	-0.155871
N196	N	0.597514	0.613208	0.344129
H197	H	0.098106	0.150204	-0.203348
H198	H	0.598106	0.650204	0.296652
H199	H	0.050090	0.086677	-0.159136
H200	H	0.550090	0.586677	0.340864
N201	N	0.100117	0.277297	-0.155861
N202	N	0.600117	0.777297	0.344139
H203	H	0.099531	0.240322	-0.203342
H204	H	0.599531	0.740322	0.296658
H205	H	0.147537	0.303836	-0.159130
H206	H	0.647537	0.803836	0.340870
H207	H	-0.651685	0.764424	-0.000067
H208	H	-0.151685	1.264424	0.499933
