data_functionalizedCrystal
_audit_creation_method	'MofGen! by Chris Wilmer'
_symmetry_space_group_name_H-M	'P1'
_symmetry_Int_Tables_number	1
_symmetry_cell_setting	triclinic
loop_
_symmetry_equiv_pos_as_xyz
  x,y,z
_cell_length_a	10.489741
_cell_length_b	16.109301
_cell_length_c	14.586319
_cell_angle_alpha	89.998390
_cell_angle_beta	89.996802
_cell_angle_gamma	84.000327
loop_
_atom_site_label
_atom_site_type_symbol
_atom_site_fract_x
_atom_site_fract_y
_atom_site_fract_z
O1	O	-1.692355	-0.117293	0.076187
O2	O	-1.321000	-0.128303	0.076202
O3	O	-1.516879	-0.001830	0.076184
O4	O	-1.496476	-0.243766	0.076204
O5	O	-1.516855	-0.001837	-0.076296
O6	O	-1.320976	-0.128311	-0.076279
O7	O	-1.692331	-0.117300	-0.076294
Cu8	Cu	-1.506652	-0.122806	-0.090209
Cu9	Cu	-1.506680	-0.122797	0.090117
O10	O	-1.496452	-0.243774	-0.076277
C11	C	-1.273468	-0.127475	-0.000037
C12	C	-1.131875	-0.124987	-0.000032
C13	C	-1.516041	0.029146	-0.000056
C14	C	-1.513563	0.121457	-0.000058
C15	C	-1.739863	-0.118128	-0.000053
C16	C	-1.881456	-0.120616	-0.000052
C17	C	-1.064902	-0.044516	-0.000047
C18	C	-0.972236	-0.082526	0.075135
C19	C	-0.972246	-0.082553	-0.075199
C20	C	-1.041073	-0.163031	0.075212
C21	C	-1.041093	-0.163046	-0.075189
C22	C	-0.948453	-0.201115	0.000011
C23	C	-1.497291	-0.274750	-0.000034
C24	C	-1.499769	-0.367060	-0.000027
N25	N	-1.506641	-0.122812	-0.217041
C26	C	-1.624032	0.343048	-0.000047
C27	C	-1.621694	0.429783	-0.000040
C28	C	-1.389290	0.411341	-0.000034
C29	C	-1.391630	0.324608	-0.000035
C30	C	-1.509004	0.290464	-0.000047
C31	C	-1.504327	0.463932	-0.000038
C32	C	-1.501791	0.557974	-0.000030
C33	C	-1.511541	0.196417	-0.000053
C34	C	-1.583996	-0.173717	-0.452046
C35	C	-1.584010	-0.173712	-0.548028
C36	C	-1.429342	-0.071874	-0.548039
C37	C	-1.429336	-0.071876	-0.452060
C38	C	-1.506661	-0.122802	-0.404066
C39	C	-1.506680	-0.122795	-0.596027
C40	C	-1.506694	-0.122788	-0.700094
C41	C	-1.506650	-0.122808	-0.299992
N42	N	-1.506701	-0.122785	0.216949
H43	H	-1.115552	0.021636	0.000042
O44	O	-1.275167	0.444373	0.000011
C45	C	-1.044901	0.416926	-0.000037
C46	C	-1.174058	0.379410	-0.000065
H47	H	-0.963121	0.364422	-0.000118
H48	H	-1.037917	0.457041	0.063791
H49	H	-1.038057	0.457101	-0.063835
H50	H	-1.180989	0.339197	0.063689
H51	H	-1.180987	0.339344	-0.063936
O52	O	-1.737965	0.309781	0.000074
C53	C	-1.875520	0.222599	0.079100
C54	C	-1.746432	0.260200	0.079062
H55	H	-1.882419	0.182519	0.142965
H56	H	-1.882445	0.182402	0.015331
H57	H	-1.957310	0.275098	0.079059
H58	H	-1.664568	0.207755	0.079136
H59	H	-1.739619	0.300419	0.142826
O60	O	-1.658949	-0.223217	-0.594738
C61	C	-1.666271	-0.335554	-0.703061
C62	C	-1.581248	-0.279533	-0.650236
H63	H	-1.603482	-0.381110	-0.747929
H64	H	-1.736714	-0.295154	-0.748050
H65	H	-1.721567	-0.371910	-0.652252
H66	H	-1.525870	-0.243167	-0.700979
H67	H	-1.510886	-0.319978	-0.605233
H68	H	-1.715362	0.472594	-0.000038
H69	H	-1.071418	-0.197050	0.138845
O70	O	-0.888274	-0.280098	-0.000100
C71	C	-0.743606	-0.381850	-0.079368
C72	C	-0.811705	-0.292391	-0.079374
H73	H	-0.681663	-0.391812	-0.143444
H74	H	-0.818158	-0.428517	-0.078783
H75	H	-0.680510	-0.391433	-0.015825
H76	H	-0.874797	-0.282728	-0.142906
H77	H	-0.737086	-0.245770	-0.079910
O78	O	-1.279918	0.273488	0.000128
C79	C	-1.147737	0.164823	0.079104
C80	C	-1.274275	0.222680	0.079038
H81	H	-1.143145	0.123718	0.142886
H82	H	-1.063395	0.204083	0.079164
H83	H	-1.143032	0.123793	0.015263
H84	H	-1.279105	0.263721	0.142868
H85	H	-1.358557	0.183371	0.078930
O86	O	-1.659233	-0.223203	-0.405566
C87	C	-1.812591	-0.324244	-0.415689
C88	C	-1.727465	-0.268229	-0.468438
H89	H	-1.867759	-0.360675	-0.466498
H90	H	-1.883131	-0.283839	-0.370774
H91	H	-1.749824	-0.369733	-0.370734
H92	H	-1.790130	-0.222731	-0.513444
H93	H	-1.656917	-0.308687	-0.513295
O94	O	-1.354257	-0.022489	-0.594802
C95	C	-1.285687	0.022638	-0.742664
C96	C	-1.370767	-0.033344	-0.689825
H97	H	-1.299027	0.013895	-0.819500
H98	H	-1.180930	0.004796	-0.723822
H99	H	-1.314190	0.090722	-0.723779
H100	H	-1.342378	-0.101443	-0.708683
H101	H	-1.475504	-0.015431	-0.708672
O102	O	-1.354089	-0.022392	-0.405588
C103	C	-1.200739	0.078656	-0.415720
C104	C	-1.285862	0.022642	-0.468463
H105	H	-1.145576	0.115094	-0.466532
H106	H	-1.130196	0.038249	-0.370812
H107	H	-1.263509	0.124139	-0.370757
H108	H	-1.223194	-0.022849	-0.513476
H109	H	-1.356413	0.063102	-0.513313
O110	O	-1.077758	-0.203648	-0.150941
C111	C	-1.253078	-0.252031	-0.235379
C112	C	-1.211721	-0.206060	-0.149531
H113	H	-1.361392	-0.253981	-0.234278
H114	H	-1.203396	-0.318443	-0.236039
H115	H	-1.225058	-0.217649	-0.299418
H116	H	-1.239735	-0.240372	-0.085447
H117	H	-1.261394	-0.139646	-0.148953
O118	O	-0.936037	-0.041813	-0.151002
C119	C	-0.954652	0.086815	-0.236615
C120	C	-0.995782	0.040763	-0.150750
H121	H	-1.002915	0.153591	-0.236431
H122	H	-0.984371	0.053216	-0.300716
H123	H	-0.846131	0.087742	-0.236234
H124	H	-1.104295	0.039824	-0.151042
H125	H	-0.965968	0.074378	-0.086688
H126	H	-0.941726	-0.048474	0.138692
