data_functionalizedCrystal
_audit_creation_method	'MofGen! by Chris Wilmer'
_symmetry_space_group_name_H-M	'P1'
_symmetry_Int_Tables_number	1
_symmetry_cell_setting	triclinic
loop_
_symmetry_equiv_pos_as_xyz
  x,y,z
_cell_length_a	21.395362
_cell_length_b	21.395364
_cell_length_c	21.395355
_cell_angle_alpha	89.974702
_cell_angle_beta	90.019906
_cell_angle_gamma	89.955800
loop_
_atom_site_label
_atom_site_type_symbol
_atom_site_fract_x
_atom_site_fract_y
_atom_site_fract_z
Zn1	Zn	-0.249232	-0.957873	0.354268
Zn2	Zn	0.084101	-0.624540	0.687601
Zn3	Zn	0.417435	-0.291207	1.020935
Zn4	Zn	-0.353992	-0.957782	0.249488
Zn5	Zn	-0.020658	-0.624448	0.582821
Zn6	Zn	0.312675	-0.291115	0.916155
Zn7	Zn	-0.249263	-0.853088	0.249503
Zn8	Zn	0.084071	-0.519755	0.582837
Zn9	Zn	0.417404	-0.186422	0.916170
Zn10	Zn	-0.354006	-0.853063	0.354227
Zn11	Zn	-0.020673	-0.519730	0.687560
Zn12	Zn	0.312661	-0.186397	1.020893
O13	O	-0.301623	-0.905452	0.301871
O14	O	0.031710	-0.572118	0.635205
O15	O	0.365044	-0.238785	0.968538
O16	O	-0.263110	-1.045539	0.340379
O17	O	0.070224	-0.712206	0.673713
O18	O	0.403557	-0.378872	1.007046
O19	O	-0.340106	-0.943866	0.161812
O20	O	-0.006773	-0.610533	0.495145
O21	O	0.326561	-0.277199	0.828479
O22	O	-0.161581	-0.867037	0.263424
O23	O	0.171753	-0.533704	0.596758
O24	O	0.505086	-0.200370	0.930091
O25	O	-0.340076	-1.045472	0.263398
O26	O	-0.006743	-0.712138	0.596731
O27	O	0.326590	-0.378805	0.930065
O28	O	-0.161558	-0.944022	0.340394
O29	O	0.171775	-0.610689	0.673728
O30	O	0.505109	-0.277355	1.007061
O31	O	-0.263162	-0.866948	0.161823
O32	O	0.070171	-0.533615	0.495157
O33	O	0.403505	-0.200281	0.828490
O34	O	-0.263176	-0.765407	0.263384
O35	O	0.070157	-0.432074	0.596718
O36	O	0.403491	-0.098740	0.930051
O37	O	-0.340101	-0.866994	0.441910
O38	O	-0.006767	-0.533661	0.775243
O39	O	0.326566	-0.200328	1.108577
O40	O	-0.340131	-0.765389	0.340324
O41	O	-0.006797	-0.432055	0.673657
O42	O	0.326536	-0.098722	1.006991
O43	O	-0.263124	-0.943998	0.441940
O44	O	0.070210	-0.610665	0.775274
O45	O	0.403543	-0.277331	1.108607
O46	O	-0.441672	-0.943842	0.263358
O47	O	-0.108338	-0.610508	0.596691
O48	O	0.224995	-0.277175	0.930025
O49	O	-0.441682	-0.866906	0.340309
O50	O	-0.108349	-0.533572	0.673643
O51	O	0.224985	-0.200239	1.006976
C52	C	-0.301659	-0.742664	0.301852
C53	C	0.031675	-0.409331	0.635185
C54	C	0.365008	-0.075997	0.968518
C55	C	-0.301689	-0.673023	0.301858
C56	C	0.031645	-0.339689	0.635191
C57	C	0.364978	-0.006356	0.968525
C58	C	-0.261679	-0.640367	0.342004
C59	C	0.071654	-0.307034	0.675337
C60	C	0.404988	0.026300	1.008671
C61	C	-0.261664	-0.574932	0.342005
C62	C	0.071669	-0.241598	0.675339
C63	C	0.405002	0.091735	1.008672
C64	C	-0.301671	-0.542154	0.301868
C65	C	0.031663	-0.208821	0.635201
C66	C	0.364996	0.124512	0.968535
C67	C	-0.341683	-0.574818	0.261714
C68	C	-0.008350	-0.241485	0.595048
C69	C	0.324983	0.091849	0.928381
C70	C	-0.341692	-0.640252	0.261709
C71	C	-0.008359	-0.306919	0.595043
C72	C	0.324974	0.026415	0.928376
C73	C	-0.358098	-0.438433	0.296828
C74	C	-0.024765	-0.105100	0.630161
C75	C	0.308568	0.228234	0.963494
C76	C	-0.358090	-0.373000	0.296837
C77	C	-0.024757	-0.039667	0.630170
C78	C	0.308576	0.293666	0.963503
C79	C	-0.301642	-0.340334	0.301879
C80	C	0.031691	-0.007000	0.635213
C81	C	0.365024	0.326333	0.968546
C82	C	-0.245200	-0.373108	0.306925
C83	C	0.088133	-0.039775	0.640259
C84	C	0.421466	0.293559	0.973592
C85	C	-0.245210	-0.438542	0.306921
C86	C	0.088124	-0.105209	0.640254
C87	C	0.421457	0.228124	0.973587
C88	C	-0.301665	-0.471202	0.301868
C89	C	0.031668	-0.137869	0.635202
C90	C	0.365002	0.195465	0.968535
C91	C	-0.261613	-0.236725	0.342029
C92	C	0.071720	0.096608	0.675362
C93	C	0.405054	0.429941	1.008695
C94	C	-0.261597	-0.171289	0.342026
C95	C	0.071736	0.162045	0.675359
C96	C	0.405069	0.495378	1.008693
C97	C	-0.341622	-0.171176	0.261738
C98	C	-0.008289	0.162157	0.595071
C99	C	0.325045	0.495490	0.928405
C100	C	-0.341632	-0.236612	0.261738
C101	C	-0.008299	0.096722	0.595071
C102	C	0.325034	0.430055	0.928404
C103	C	-0.301629	-0.269382	0.301886
C104	C	0.031705	0.063951	0.635220
C105	C	0.365038	0.397284	0.968553
C106	C	-0.464411	-0.905378	0.301841
C107	C	-0.131077	-0.572045	0.635174
C108	C	0.202256	-0.238711	0.968508
C109	C	-0.534052	-0.905404	0.301849
C110	C	-0.200719	-0.572070	0.635182
C111	C	0.132615	-0.238737	0.968516
C112	C	-1.035822	-0.945663	0.261905
C113	C	-0.702488	-0.612330	0.595238
C114	C	-0.369155	-0.278996	0.928571
C115	C	-0.970386	-0.945639	0.261890
C116	C	-0.637053	-0.612306	0.595223
C117	C	-0.303720	-0.278973	0.928557
C118	C	-0.937690	-0.905540	0.301916
C119	C	-0.604357	-0.572207	0.635250
C120	C	-0.271023	-0.238874	0.968583
C121	C	-0.970435	-0.865451	0.341949
C122	C	-0.637102	-0.532117	0.675282
C123	C	-0.303768	-0.198784	1.008615
C124	C	-1.035869	-0.865471	0.341958
C125	C	-0.702536	-0.532138	0.675291
C126	C	-0.369202	-0.198805	1.008624
C127	C	-0.834001	-0.900532	0.358347
C128	C	-0.500668	-0.567199	0.691680
C129	C	-0.167334	-0.233866	1.025013
C130	C	-0.768568	-0.900516	0.358339
C131	C	-0.435235	-0.567183	0.691672
C132	C	-0.101901	-0.233850	1.025005
C133	C	-0.735869	-0.905474	0.301888
C134	C	-0.402536	-0.572140	0.635221
C135	C	-0.069203	-0.238807	0.968555
C136	C	-0.768612	-0.910460	0.245444
C137	C	-0.435279	-0.577127	0.578777
C138	C	-0.101945	-0.243794	0.912110
C139	C	-0.834046	-0.910481	0.245453
C140	C	-0.500713	-0.577147	0.578786
C141	C	-0.167379	-0.243814	0.912119
C142	C	-0.866738	-0.905513	0.301911
C143	C	-0.533404	-0.572180	0.635244
C144	C	-0.200071	-0.238847	0.968577
C145	C	-0.632180	-0.945532	0.261839
C146	C	-0.298847	-0.612199	0.595172
C147	C	0.034487	-0.278865	0.928506
C148	C	-0.566744	-0.945504	0.261823
C149	C	-0.233410	-0.612171	0.595157
C150	C	0.099923	-0.278837	0.928490
C151	C	-0.566793	-0.865319	0.341888
C152	C	-0.233460	-0.531985	0.675221
C153	C	0.099873	-0.198652	1.008554
C154	C	-0.632229	-0.865343	0.341898
C155	C	-0.298895	-0.532010	0.675231
C156	C	0.034438	-0.198677	1.008564
C157	C	-0.664918	-0.905453	0.301874
C158	C	-0.331585	-0.572120	0.635208
C159	C	0.001748	-0.238787	0.968541
C160	C	-0.138200	-0.905542	0.301916
C161	C	0.195134	-0.572209	0.635249
C162	C	0.528467	-0.238876	0.968582
C163	C	-0.068558	-0.905581	0.301934
C164	C	0.264775	-0.572248	0.635268
C165	C	0.598108	-0.238915	0.968601
C166	C	-0.301610	-0.905504	0.465295
C167	C	0.031723	-0.572170	0.798628
C168	C	0.365056	-0.238837	1.131961
C169	C	-0.301605	-0.905526	0.534936
C170	C	0.031728	-0.572192	0.868269
C171	C	0.365062	-0.238859	1.201603
C172	C	-0.301596	-0.068875	0.301888
C173	C	0.031738	0.264459	0.635222
C174	C	0.365071	0.597792	0.968555
C175	C	-0.301603	-0.138516	0.301887
C176	C	0.031730	0.194817	0.635221
C177	C	0.365063	0.528151	0.968554
C178	C	-0.301590	-0.905436	0.139084
C179	C	0.031743	-0.572102	0.472417
C180	C	0.365076	-0.238769	0.805751
C181	C	-0.301419	-0.905535	0.069443
C182	C	0.031914	-0.572202	0.402776
C183	C	0.365247	-0.238868	0.736110
C184	C	-0.261521	-0.945620	0.567666
C185	C	0.071812	-0.612286	0.900999
C186	C	0.405145	-0.278953	1.234333
C187	C	-0.261494	-0.945619	0.633101
C188	C	0.071839	-0.612285	0.966435
C189	C	0.405172	-0.278952	1.299768
C190	C	-0.301562	-0.905531	0.665804
C191	C	0.031771	-0.572197	0.999138
C192	C	0.365104	-0.238864	1.332471
C193	C	-0.341649	-0.865429	0.633067
C194	C	-0.008315	-0.532096	0.966400
C195	C	0.325018	-0.198762	1.299733
C196	C	-0.341670	-0.865426	0.567632
C197	C	-0.008337	-0.532093	0.900966
C198	C	0.324997	-0.198760	1.234299
C199	C	-0.357979	-0.900558	0.769469
C200	C	-0.024646	-0.567224	1.102802
C201	C	0.308688	-0.233891	1.436135
C202	C	-0.357959	-0.900565	0.834902
C203	C	-0.024625	-0.567231	1.168235
C204	C	0.308708	-0.233898	1.501568
C205	C	-0.301496	-0.905534	0.867625
C206	C	0.031837	-0.572201	1.200959
C207	C	0.365171	-0.238868	1.534292
C208	C	-0.245052	-0.910511	0.834908
C209	C	0.088281	-0.577177	1.168241
C210	C	0.421615	-0.243844	1.501575
C211	C	-0.245073	-0.910508	0.769474
C212	C	0.088260	-0.577175	1.102807
C213	C	0.421593	-0.243842	1.436141
C214	C	-0.301543	-0.905528	0.736757
C215	C	0.031790	-0.572195	1.070090
C216	C	0.365123	-0.238862	1.403424
C217	C	-0.261380	-0.945630	0.971308
C218	C	0.071954	-0.612296	1.304641
C219	C	0.405287	-0.278963	1.637974
C220	C	-0.261352	-0.945624	1.036744
C221	C	0.071982	-0.612291	1.370078
C222	C	0.405315	-0.278958	1.703411
C223	C	-0.341512	-0.865438	1.036708
C224	C	-0.008178	-0.532104	1.370042
C225	C	0.325155	-0.198771	1.703375
C226	C	-0.341534	-0.865440	0.971273
C227	C	-0.008201	-0.532106	1.304606
C228	C	0.325132	-0.198773	1.637940
C229	C	-0.301469	-0.905539	0.938577
C230	C	0.031864	-0.572206	1.271910
C231	C	0.365198	-0.238872	1.605243
H232	H	-0.374196	-0.144490	0.229057
H233	H	-0.040863	0.188843	0.562390
H234	H	0.292471	0.522177	0.895724
F235	F	-0.219008	-0.136534	0.384754
F236	F	0.114325	0.196799	0.718088
F237	F	0.447658	0.530132	1.051421
F238	F	-0.219102	-0.675240	0.384733
F239	F	0.114231	-0.341907	0.718066
F240	F	0.447564	-0.008573	1.051400
H241	H	-0.374215	-0.263200	0.229049
H242	H	-0.040882	0.070133	0.562382
H243	H	0.292451	0.403466	0.895716
F244	F	-0.218878	-0.988295	0.532872
F245	F	0.114456	-0.654961	0.866205
F246	F	0.447789	-0.321628	1.199538
F247	F	-0.935637	-0.822773	0.384546
F248	F	-0.602303	-0.489440	0.717880
F249	F	-0.268970	-0.156107	1.051213
H250	H	-0.229080	-0.548338	0.374696
H251	H	0.104253	-0.215005	0.708029
H252	H	0.437586	0.118329	1.041363
F253	F	-0.384259	-0.539933	0.218995
F254	F	-0.050925	-0.206600	0.552328
F255	F	0.282408	0.126733	0.885661
H256	H	-0.860702	-0.914539	0.199494
H257	H	-0.527369	-0.581206	0.532827
H258	H	-0.194036	-0.247873	0.866160
H259	H	-0.741989	-0.914498	0.199477
H260	H	-0.408656	-0.581165	0.532810
H261	H	-0.075323	-0.247832	0.866143
F262	F	-0.418161	-0.338125	0.291475
F263	F	-0.084827	-0.004792	0.624808
F264	F	0.248506	0.328541	0.958142
H265	H	-0.658883	-0.832706	0.374496
H266	H	-0.325550	-0.499373	0.707829
H267	H	0.007783	-0.166040	1.041163
H268	H	-0.199235	-0.346512	0.311032
H269	H	0.134098	-0.013179	0.644365
H270	H	0.467432	0.320154	0.977698
F271	F	-1.070608	-0.988350	0.219306
F272	F	-0.737275	-0.655017	0.552640
F273	F	-0.403942	-0.321684	0.885973
H274	H	-0.658797	-0.978191	0.229249
H275	H	-0.325464	-0.644858	0.562582
H276	H	0.007869	-0.311524	0.895915
H277	H	-0.374270	-0.832787	0.659698
H278	H	-0.040937	-0.499453	0.993031
H279	H	0.292396	-0.166120	1.326364
F280	F	-0.384200	-0.822768	0.936438
F281	F	-0.050866	-0.489434	1.269771
F282	F	0.282467	-0.156101	1.603105
F283	F	-0.418182	-0.473193	0.291453
F284	F	-0.084849	-0.139860	0.624787
F285	F	0.248485	0.193474	0.958120
F286	F	-0.532000	-0.822636	0.384480
F287	F	-0.198667	-0.489302	0.717814
F288	F	0.134667	-0.155969	1.051147
F289	F	-0.384277	-0.675008	0.218977
F290	F	-0.050943	-0.341674	0.552311
F291	F	0.282390	-0.008341	0.885644
H292	H	-0.199253	-0.465224	0.311027
H293	H	0.134081	-0.131891	0.644361
H294	H	0.467414	0.201442	0.977694
H295	H	-0.943727	-0.978280	0.229292
H296	H	-0.610394	-0.644946	0.562625
H297	H	-0.277060	-0.311613	0.895958
H298	H	-0.741912	-0.896460	0.404298
H299	H	-0.408578	-0.563127	0.737631
H300	H	-0.075245	-0.229793	1.070964
F301	F	-0.418031	-0.895274	0.869716
F302	F	-0.084698	-0.561941	1.203049
F303	F	0.248636	-0.228607	1.536382
F304	F	-0.531903	-0.988166	0.219215
F305	F	-0.198569	-0.654833	0.552548
F306	F	0.134764	-0.321499	0.885882
F307	F	-0.868795	-0.895187	0.418427
F308	F	-0.535461	-0.561853	0.751760
F309	F	-0.202128	-0.228520	1.085094
H310	H	-0.403946	-0.896343	0.742830
H311	H	-0.070613	-0.563010	1.076164
H312	H	0.262721	-0.229676	1.409497
F313	F	-0.184955	-0.915803	0.869730
F314	F	0.148378	-0.582469	1.203063
F315	F	0.481711	-0.249136	1.536396
F316	F	-0.384335	-0.822751	0.532798
F317	F	-0.051001	-0.489418	0.866131
F318	F	0.282332	-0.156084	1.199465
H319	H	-0.229036	-0.263409	0.374716
H320	H	0.104298	0.069925	0.708050
H321	H	0.437631	0.403258	1.041383
F322	F	-0.218820	-0.988284	0.667942
F323	F	0.114514	-0.654950	1.001275
F324	F	0.447847	-0.321617	1.334609
H325	H	-0.199115	-0.914558	0.742838
H326	H	0.134219	-0.581225	1.076171
H327	H	0.467552	-0.247892	1.409505
F328	F	-1.070711	-0.822810	0.384566
F329	F	-0.737378	-0.489477	0.717899
F330	F	-0.404044	-0.156143	1.051233
H331	H	-0.228753	-0.978277	0.944685
H332	H	0.104581	-0.644944	1.278018
H333	H	0.437914	-0.311611	1.611352
F334	F	-0.218694	-0.988308	1.071578
F335	F	0.114639	-0.654974	1.404911
F336	F	0.447973	-0.321641	1.738245
H337	H	-0.374130	-0.832791	1.063335
H338	H	-0.040796	-0.499457	1.396668
H339	H	0.292537	-0.166124	1.730001
