data_functionalizedCrystal
_audit_creation_method	'MofGen! by Chris Wilmer'
_symmetry_space_group_name_H-M	'P1'
_symmetry_Int_Tables_number	1
_symmetry_cell_setting	triclinic
loop_
_symmetry_equiv_pos_as_xyz
  x,y,z
_cell_length_a	12.827893
_cell_length_b	13.032721
_cell_length_c	12.827885
_cell_angle_alpha	97.148846
_cell_angle_beta	89.980728
_cell_angle_gamma	97.204267
loop_
_atom_site_label
_atom_site_type_symbol
_atom_site_fract_x
_atom_site_fract_y
_atom_site_fract_z
Zn1	Zn	1.544798	-0.415985	-0.643643
Zn2	Zn	1.522478	-0.590764	-0.491086
Zn3	Zn	1.370033	-0.416036	-0.468924
Zn4	Zn	1.347821	-0.590686	-0.665776
O5	O	1.446283	-0.503368	-0.567357
O6	O	1.688072	-0.439181	-0.623419
O7	O	1.502211	-0.567641	-0.341917
O8	O	1.411853	-0.269792	-0.473563
O9	O	1.671674	-0.567591	-0.511335
O10	O	1.540253	-0.269754	-0.601929
O11	O	1.390210	-0.439269	-0.325634
O12	O	1.220852	-0.439193	-0.495024
O13	O	1.373995	-0.567457	-0.809069
O14	O	1.204533	-0.567507	-0.639651
O15	O	1.518714	-0.439105	-0.792809
O16	O	1.480673	-0.736991	-0.532796
O17	O	1.352352	-0.736934	-0.661140
C18	C	1.174775	-0.503348	-0.567335
C19	C	1.058620	-0.503364	-0.567353
C20	C	0.998775	-0.566958	-0.638834
C21	C	0.878722	-0.566976	-0.638854
C22	C	1.411708	-0.774880	-0.601798
C23	C	1.397013	-0.891034	-0.616566
C24	C	1.454008	-0.942814	-0.559696
C25	C	1.438821	-1.062865	-0.574959
C26	C	1.718850	-0.503389	-0.567380
C27	C	1.835002	-0.503398	-0.567390
C28	C	1.446367	-0.503267	-0.839915
C29	C	1.446402	-0.503224	-0.956062
C30	C	1.481020	-0.230795	-0.532805
C31	C	1.495824	-0.114641	-0.518081
C32	C	1.501834	-0.566720	-1.015901
C33	C	1.501872	-0.566677	-1.135946
C34	C	1.446269	-0.503393	-0.295850
C35	C	1.446473	-0.503142	-0.179666
H36	H	1.020978	-0.448930	-0.506175
O37	O	1.525491	-0.889630	-0.488011
C38	C	1.473951	-0.826574	-0.412524
H39	H	1.387501	-0.859609	-0.410166
H40	H	1.511956	-0.825252	-0.331968
H41	H	1.480720	-0.743874	-0.434396
H42	H	1.555871	-1.070099	-0.458092
O43	O	1.367203	-1.116157	-0.646455
C44	C	1.367996	-1.224158	-0.645792
H45	H	1.400403	-1.238991	-0.567048
H46	H	1.284490	-1.265777	-0.658066
H47	H	1.419735	-1.255037	-0.711725
H48	H	1.336979	-0.935582	-0.676559
O49	O	1.558326	-0.631581	-0.970838
C50	C	1.545726	-0.617171	-0.861009
H51	H	1.469426	-0.582931	-0.841862
H52	H	1.542793	-0.695425	-0.829372
H53	H	1.614770	-0.561508	-0.822984
H54	H	1.399010	-0.448781	-1.128244
O55	O	1.558626	-0.631382	-1.197317
C56	C	1.633655	-0.571809	-1.252925
H57	H	1.650608	-0.489545	-1.209541
H58	H	1.709262	-0.609605	-1.259062
H59	H	1.601766	-0.568106	-1.335134
H60	H	1.398979	-0.448826	-0.993705
O61	O	0.817341	-0.631781	-0.711959
C62	C	0.761782	-0.572315	-0.771940
H63	H	0.805210	-0.490042	-0.768117
H64	H	0.755653	-0.610203	-0.857106
H65	H	0.679558	-0.568615	-0.739101
O66	O	1.043641	-0.631784	-0.711963
C67	C	1.019961	-0.609114	-0.813304
H68	H	1.000503	-0.525669	-0.808164
H69	H	1.090670	-0.618097	-0.865982
H70	H	0.949562	-0.665243	-0.847716
O71	O	0.896445	-0.438586	-0.494342
C72	C	0.951961	-0.498053	-0.434322
H73	H	0.958140	-0.577305	-0.481114
H74	H	1.034161	-0.455531	-0.415051
H75	H	0.908477	-0.509411	-0.358271
