data_functionalizedCrystal
_audit_creation_method	'MofGen! by Chris Wilmer'
_symmetry_space_group_name_H-M	'P1'
_symmetry_Int_Tables_number	1
_symmetry_cell_setting	triclinic
loop_
_symmetry_equiv_pos_as_xyz
  x,y,z
_cell_length_a	14.971487
_cell_length_b	12.503572
_cell_length_c	14.044220
_cell_angle_alpha	86.156832
_cell_angle_beta	91.598360
_cell_angle_gamma	86.483614
loop_
_atom_site_label
_atom_site_type_symbol
_atom_site_fract_x
_atom_site_fract_y
_atom_site_fract_z
O1	O	-1.201389	0.089168	0.118070
O2	O	-0.701389	0.589168	0.618070
O3	O	-0.942156	0.089204	0.132861
O4	O	-0.442156	0.589204	0.632861
O5	O	-1.067881	0.089176	-0.012523
O6	O	-0.567881	0.589176	0.487477
O7	O	-1.075664	0.089196	0.263454
O8	O	-0.575664	0.589196	0.763454
O9	O	-1.058427	-0.089464	-0.001571
O10	O	-0.558427	0.410536	0.498429
O11	O	-0.932703	-0.089436	0.143813
O12	O	-0.432703	0.410564	0.643813
O13	O	-1.191935	-0.089472	0.129022
O14	O	-0.691935	0.410528	0.629022
Cu15	Cu	-1.061456	-0.105765	0.137417
Cu16	Cu	-0.561456	0.394235	0.637417
Cu17	Cu	-1.072636	0.105497	0.124465
Cu18	Cu	-0.572636	0.605497	0.624465
O19	O	-1.066211	-0.089444	0.274406
O20	O	-0.566211	0.410556	0.774406
C21	C	-0.904053	-0.000111	0.137675
C22	C	-0.404053	0.499889	0.637675
C23	C	-0.804600	-0.000098	0.135691
C24	C	-0.304600	0.499902	0.635691
C25	C	-0.754104	-0.000092	0.221101
C26	C	-0.254104	0.499908	0.721101
C27	C	-0.660656	-0.000106	0.219233
C28	C	-0.160656	0.499894	0.719233
C29	C	-0.617708	-0.000118	0.131954
C30	C	-0.117708	0.499882	0.631954
C31	C	-0.668211	-0.000127	0.046538
C32	C	-0.168211	0.499873	0.546538
C33	C	-0.761656	-0.000121	0.048407
C34	C	-0.261656	0.499879	0.548407
C35	C	-0.473441	-0.000137	0.042647
C36	C	0.026559	0.499863	0.542647
C37	C	-0.379990	-0.000141	0.040777
C38	C	0.120010	0.499859	0.540777
C39	C	-0.372442	-0.000122	0.213473
C40	C	0.127558	0.499878	0.713473
C41	C	-0.465887	-0.000116	0.215343
C42	C	0.034113	0.499884	0.715343
C43	C	-0.516384	-0.000123	0.129926
C44	C	-0.016384	0.499877	0.629926
N45	N	-1.053599	-0.254356	0.146526
N46	N	-0.553599	0.245644	0.646526
C47	C	-1.042041	-0.473468	0.159934
C48	C	-0.542041	0.026532	0.659934
C49	C	-1.092054	-0.526807	0.101944
C50	C	-0.592054	-0.026807	0.601944
C51	C	-1.085624	-0.648728	0.109405
C52	C	-0.585624	-0.148728	0.609405
C53	C	-1.048471	-0.351535	0.152475
C54	C	-0.548471	0.148465	0.652475
C55	C	-0.230039	-0.000148	0.124207
C56	C	0.269961	0.499852	0.624207
C57	C	-0.329493	-0.000135	0.126187
C58	C	0.170507	0.499865	0.626187
C59	C	-1.059748	-0.000144	-0.042365
C60	C	-0.559748	0.499856	0.457635
C61	C	-1.049587	-0.000144	-0.147603
C62	C	-0.549587	0.499856	0.352397
N63	N	-1.080500	0.254088	0.115349
N64	N	-0.580500	0.754088	0.615349
C65	C	-1.031011	-0.000126	-0.340286
C66	C	-0.531011	0.499874	0.159714
C67	C	-1.103077	-0.000133	-0.397837
C68	C	-0.603077	0.499867	0.102163
C69	C	-1.092742	-0.000123	-0.505053
C70	C	-0.592742	0.499877	-0.005053
C71	C	-1.041345	-0.000136	-0.233060
C72	C	-0.541345	0.499864	0.266940
C73	C	-1.074344	-0.000122	0.304248
C74	C	-0.574344	0.499878	0.804248
C75	C	-1.084506	-0.000115	0.409485
C76	C	-0.584506	0.499885	0.909485
H77	H	-0.789066	-0.000081	0.292174
H78	H	-0.289066	0.499919	0.792174
H79	H	-0.994398	-0.519365	0.215181
H80	H	-0.494398	-0.019365	0.715181
C81	C	-1.156429	-0.464810	0.027310
C82	C	-0.656429	0.035190	0.527310
H83	H	-1.186960	-0.514311	-0.008096
H84	H	-0.686960	-0.014311	0.491904
H85	H	-1.198717	-0.420937	0.058763
H86	H	-0.698717	0.079063	0.558763
H87	H	-1.123315	-0.420941	-0.014792
H88	H	-0.623315	0.079059	0.485208
H89	H	-1.172542	-0.000070	-0.366591
H90	H	-0.672542	0.499930	0.133409
H91	H	-0.514553	-0.000145	-0.026908
H92	H	-0.014553	0.499855	0.473092
H93	H	-0.961556	-0.000114	-0.371535
H94	H	-0.461556	0.499886	0.128465
H95	H	-0.802770	-0.000125	-0.021143
H96	H	-0.302770	0.499875	0.478857
C97	C	-0.513129	-0.000105	0.311347
C98	C	-0.013129	0.499895	0.811347
H99	H	-0.469673	-0.000112	0.361951
H100	H	0.030327	0.499888	0.861951
H101	H	-0.552716	0.062191	0.311846
H102	H	-0.052716	0.562191	0.811846
H103	H	-0.546134	-0.062408	0.319479
H104	H	-0.046134	0.437592	0.819479
C105	C	-0.316899	-0.000117	0.307430
C106	C	0.183101	0.499883	0.807430
H107	H	-0.255095	-0.000134	0.293820
H108	H	0.244905	0.499866	0.793820
H109	H	-0.333949	0.062186	0.339391
H110	H	0.166051	0.562186	0.839391
H111	H	-0.327376	-0.062413	0.347036
H112	H	0.172624	0.437587	0.847036
C113	C	-0.332747	-0.000161	-0.055227
C114	C	0.167253	0.499839	0.444773
H115	H	-0.376202	-0.000179	-0.105830
H116	H	0.123798	0.499821	0.394170
H117	H	-0.299740	0.062133	-0.063368
H118	H	0.200260	0.562133	0.436632
H119	H	-0.293161	-0.062466	-0.055716
H120	H	0.206839	0.437534	0.444284
C121	C	-0.620974	-0.000139	-0.049470
C122	C	-0.120974	0.499861	0.450530
H123	H	-0.664434	-0.000151	-0.100069
H124	H	-0.164434	0.499849	0.399931
H125	H	-0.587968	0.062155	-0.057609
H126	H	-0.087968	0.562155	0.442391
H127	H	-0.581389	-0.062445	-0.049969
H128	H	-0.081389	0.437555	0.450031
H129	H	-0.619546	-0.000099	0.288782
H130	H	-0.119546	0.499901	0.788782
