data_functionalizedCrystal
_audit_creation_method	'MofGen! by Chris Wilmer'
_symmetry_space_group_name_H-M	'P1'
_symmetry_Int_Tables_number	1
_symmetry_cell_setting	triclinic
loop_
_symmetry_equiv_pos_as_xyz
  x,y,z
_cell_length_a	20.919309
_cell_length_b	20.919151
_cell_length_c	23.196401
_cell_angle_alpha	58.212226
_cell_angle_beta	90.012197
_cell_angle_gamma	55.760852
loop_
_atom_site_label
_atom_site_type_symbol
_atom_site_fract_x
_atom_site_fract_y
_atom_site_fract_z
Zr1	Zr	0.602030	0.692073	-0.089001
O2	O	0.486974	0.842939	-0.192601
O3	O	0.642954	0.547323	-0.052138
O4	O	0.634768	0.689373	-0.179770
O5	O	0.495186	0.700885	0.029903
O6	O	0.744920	0.680285	-0.175453
O7	O	0.495159	0.700889	-0.064970
O8	O	0.759563	0.426184	0.052856
O9	O	0.480543	0.954986	-0.198407
O10	O	0.735783	0.597813	-0.039361
O11	O	0.653597	0.604592	0.028220
O12	O	0.643960	0.771838	-0.122050
O13	O	0.561774	0.778617	-0.054469
Zr14	Zr	0.777752	0.677572	0.069194
Zr15	Zr	0.777710	0.677578	-0.082116
Zr16	Zr	0.602072	0.692066	0.062310
Zr17	Zr	0.591774	0.870775	-0.098260
Zr18	Zr	0.788008	0.498869	0.078453
O19	O	0.736828	0.822321	0.032332
O20	O	0.736768	0.822330	-0.182813
O21	O	0.487034	0.842930	0.022543
O22	O	0.892809	0.526706	0.172795
O23	O	0.892749	0.526715	-0.042350
O24	O	0.643014	0.547315	0.163006
O25	O	0.884596	0.668760	-0.049709
O26	O	0.745014	0.680272	0.159963
O27	O	0.634862	0.689359	0.155647
O28	O	0.884623	0.668756	0.045163
O29	O	0.620185	0.943466	-0.192935
O30	O	0.759597	0.426179	0.173128
O31	O	0.899239	0.414658	0.178600
O32	O	0.899206	0.414663	0.058328
O33	O	0.480576	0.954982	-0.078135
O34	O	0.620219	0.943461	-0.072663
O35	O	0.735822	0.597807	0.102243
O36	O	0.818008	0.591028	0.034662
O37	O	0.726185	0.765053	-0.048026
O38	O	0.643999	0.771832	0.019555
C39	C	0.702720	0.461292	0.001678
C40	C	0.707074	0.385428	0.005609
C41	C	0.644875	0.416546	-0.050399
C42	C	0.648968	0.345277	-0.046731
C43	C	0.715257	0.242891	0.012948
C44	C	0.777462	0.211773	0.068959
C45	C	0.773372	0.283042	0.065288
C46	C	0.730823	0.024367	0.026924
C47	C	0.734907	-0.046901	0.030593
C48	C	0.606413	0.086608	-0.085099
C49	C	0.602326	0.157871	-0.088763
C50	C	0.664534	0.126748	-0.032754
C51	C	0.719440	0.170041	0.016700
C52	C	0.660353	0.199597	-0.036509
C53	C	0.470142	0.702952	-0.018514
C54	C	0.395561	0.709106	-0.021437
C55	C	0.408451	0.621160	0.020349
C56	C	0.338372	0.626947	0.017601
C57	C	0.255402	0.720681	-0.026938
C58	C	0.242513	0.808634	-0.068725
C59	C	0.312592	0.802846	-0.065972
C60	C	0.041411	0.742703	-0.037404
C61	C	-0.028669	0.748485	-0.040155
C62	C	0.067194	0.566798	0.046172
C63	C	0.137270	0.561017	0.048917
C64	C	0.124375	0.648970	0.007133
C65	C	0.183768	0.726599	-0.029749
C66	C	0.196009	0.643051	0.009949
C67	C	0.909640	0.666692	-0.001292
C68	C	0.984221	0.660539	0.001630
C69	C	0.689838	0.684830	-0.199170
C70	C	0.689820	0.684833	-0.263405
C71	C	0.677062	0.908352	-0.021485
C72	C	0.672708	0.984216	-0.025415
C73	C	0.641894	0.775669	-0.336741
C74	C	0.641914	0.775668	-0.397095
C75	C	0.689851	0.684828	-0.384110
C76	C	0.737788	0.593980	-0.310762
C77	C	0.737772	0.593982	-0.250409
C78	C	0.687594	0.618448	-0.448201
C79	C	0.687603	0.618449	-0.508554
C80	C	0.689903	0.684816	-0.570256
C81	C	0.692176	0.751199	-0.571604
C82	C	0.692161	0.751202	-0.511252
C83	C	0.689873	0.684815	-0.449548
C84	C	0.641997	0.775658	-0.709037
C85	C	0.642023	0.775654	-0.769391
C86	C	0.737892	0.593963	-0.683055
C87	C	0.737870	0.593969	-0.622704
C88	C	0.689918	0.684820	-0.635700
C89	C	0.689944	0.684815	0.179363
C90	C	0.689962	0.684812	0.243599
C91	C	0.922469	0.443163	0.010289
C92	C	1.001404	0.361145	0.017143
C93	C	0.702773	0.461285	0.190945
C94	C	0.707145	0.385418	0.259111
C95	C	0.922522	0.443155	0.199556
C96	C	1.001475	0.361135	0.270645
C97	C	0.457260	0.926490	-0.219363
C98	C	0.378307	1.008510	-0.290451
C99	C	0.457313	0.926482	-0.030096
C100	C	0.378378	1.008499	-0.036949
C101	C	0.677009	0.908360	-0.210751
C102	C	0.672637	0.984227	-0.278917
C103	C	0.995552	0.326171	-0.018285
C104	C	1.069712	0.249118	-0.011861
C105	C	1.149724	0.207035	0.029996
C106	C	1.155574	0.242017	0.065424
C107	C	1.081414	0.319074	0.058995
C108	C	0.752118	0.346249	0.329768
C109	C	0.756223	0.274974	0.393823
C110	C	0.715358	0.242865	0.387218
C111	C	0.670378	0.282042	0.316553
C112	C	0.666269	0.353320	0.252500
C113	C	1.081459	0.319078	0.268752
C114	C	1.155650	0.242021	0.335542
C115	C	1.149854	0.207018	0.404223
C116	C	1.069861	0.249082	0.406113
C117	C	0.995672	0.326142	0.339324
C118	C	0.298322	1.050575	-0.288559
C119	C	0.224131	1.127654	-0.355350
C120	C	0.229926	1.162662	-0.424031
C121	C	0.309919	1.120593	-0.425921
C122	C	0.384109	1.043520	-0.359132
C123	C	0.384230	1.043481	-0.001528
C124	C	0.310068	1.120554	-0.007970
C125	C	0.230056	1.162639	-0.049829
C126	C	0.224206	1.127654	-0.085255
C127	C	0.298367	1.050588	-0.078816
C128	C	0.713512	1.016312	-0.272289
C129	C	0.709421	1.087586	-0.336331
C130	C	0.664449	1.126779	-0.407002
C131	C	0.623574	1.094686	-0.413628
C132	C	0.627670	1.023408	-0.349586
H133	H	0.781478	-0.000987	0.072531
H134	H	0.293588	1.022077	-0.232642
N135	N	0.150072	1.245761	-0.056770
H136	H	0.165928	1.261528	-0.027975
H137	H	0.117807	1.223681	-0.035782
N138	N	0.137860	1.173017	-0.353301
H139	H	0.145454	1.139133	-0.299655
H140	H	0.107615	1.163174	-0.377306
N141	N	1.087735	0.356817	0.194686
H142	H	1.056457	0.430614	0.163225
H143	H	1.061303	0.346582	0.167633
H144	H	0.169509	1.225420	-0.478409
N145	N	-0.118158	0.849596	-0.088192
H146	H	-0.149359	0.856037	-0.055710
H147	H	-0.149312	0.855996	-0.126801
N148	N	1.229884	0.123889	0.476251
H149	H	1.233326	0.064730	0.508365
H150	H	1.228471	0.148761	0.503967
H151	H	0.637107	0.255888	0.311187
H152	H	0.831440	0.128404	0.117549
N153	N	0.590187	0.873655	-0.350759
H154	H	0.629316	0.874298	-0.326010
H155	H	0.546778	0.881057	-0.329282
N156	N	0.840461	0.249483	0.125693
H157	H	0.883076	0.173808	0.164058
H158	H	0.812392	0.278540	0.150683
H159	H	0.930409	0.360434	-0.052378
H160	H	0.449373	1.009221	0.032562
N161	N	0.137905	1.173041	-0.130389
H162	H	0.145441	1.139189	-0.151853
H163	H	0.102842	1.247151	-0.172462
H164	H	0.204825	0.484689	0.085171
H165	H	0.788890	-0.130273	0.079194
H166	H	0.742706	1.113708	-0.330921
H167	H	0.594381	0.997293	-0.354994
H168	H	0.590886	0.499912	-0.098990
N169	N	0.575065	1.136971	-0.489855
H170	H	0.549788	1.105834	-0.484345
H171	H	0.615176	1.121314	-0.514316
N172	N	0.617708	0.395618	0.176288
H173	H	0.592430	0.364473	0.181829
H174	H	0.657769	0.379996	0.151781
N175	N	1.241880	0.196606	0.110574
H176	H	1.250163	0.166476	0.164069
H177	H	1.245284	0.250480	0.088579
N178	N	0.762036	0.974036	-0.196071
H179	H	0.758437	0.924009	-0.156499
H180	H	0.736394	1.030329	-0.194179
N181	N	1.087736	0.356790	0.097209
H182	H	1.028620	0.411995	0.086787
H183	H	1.117026	0.383751	0.077480
H184	H	0.792852	0.243084	0.451355
N185	N	1.063626	0.211310	0.480196
H186	H	1.034378	0.184278	0.486176
H187	H	1.029574	0.268275	0.481789
N188	N	0.590322	0.873634	-0.848493
H189	H	0.597609	0.859849	-0.884756
H190	H	0.610650	0.909908	-0.855163
H191	H	0.314627	1.149106	-0.481849
N192	N	1.063383	0.211403	-0.050076
H193	H	1.034133	0.184380	-0.030362
H194	H	1.122523	0.156242	-0.039652
N195	N	0.581888	0.378837	-0.107145
H196	H	0.539273	0.454512	-0.145507
H197	H	0.551611	0.354570	-0.084156
N198	N	0.530859	0.268298	-0.153156
H199	H	0.492087	0.277196	-0.188091
H200	H	0.555584	0.298325	-0.181168
N201	N	0.694627	0.822785	-0.512704
H202	H	0.747291	0.783421	-0.468948
H203	H	0.642122	0.868048	-0.509213
H204	H	0.555768	0.111938	-0.130699
H205	H	0.930548	0.360376	0.340875
N206	N	0.789604	0.495981	-0.669040
H207	H	0.782344	0.509761	-0.718400
H208	H	0.769264	0.459714	-0.641274
H209	H	0.314848	1.149026	0.020881
H210	H	0.776894	0.520001	-0.562989
N211	N	0.292049	1.012861	-0.117023
H212	H	0.230107	1.051220	-0.144514
H213	H	0.323362	0.939062	-0.078315
H214	H	1.220777	0.207780	0.333989
H215	H	0.685748	0.564401	-0.507451
H216	H	1.210103	0.144290	0.035226
H217	H	0.661120	1.184818	-0.459143
N218	N	0.588861	0.310023	-0.100876
H219	H	0.532310	0.329204	-0.101536
H220	H	0.590734	0.324333	-0.149482
H221	H	0.785397	0.372383	0.335160
N222	N	0.470381	0.998138	-0.361170
H223	H	0.473821	1.051979	-0.390393
H224	H	0.478566	0.968027	-0.386031
N225	N	0.719794	0.165984	0.456308
H226	H	0.754491	0.146045	0.502069
H227	H	0.747592	0.104868	0.460296
H228	H	0.773414	0.086671	0.065291
H229	H	0.348875	0.555332	0.051628
N230	N	0.497938	0.520059	0.068380
H231	H	0.495467	0.465225	0.094435
H232	H	0.529113	0.513696	0.106949
N233	N	0.694638	0.822813	-0.638146
H234	H	0.747311	0.783483	-0.644487
H235	H	0.696036	0.864837	-0.629779
H236	H	0.077683	0.495192	0.080190
H237	H	0.030900	0.814321	-0.071440
H238	H	0.174953	0.884955	-0.104985
H239	H	0.263565	0.566733	0.046215
N240	N	0.298693	0.897700	-0.111039
H241	H	0.235499	0.957960	-0.139673
H242	H	0.325674	0.899259	-0.147323
H243	H	0.116207	0.802918	-0.066012
H244	H	0.602952	0.849634	-0.719620
N245	N	0.590220	0.873645	-0.476204
H246	H	0.559842	0.931197	-0.475278
H247	H	0.546872	0.880995	-0.504751
H248	H	0.776819	0.520016	-0.300193
N249	N	0.685118	0.546858	-0.381650
H250	H	0.683673	0.504813	-0.389956
H251	H	0.632444	0.586287	-0.375357
H252	H	0.776801	0.520010	-0.190694
