data_functionalizedCrystal
_audit_creation_method	'MofGen! by Chris Wilmer'
_symmetry_space_group_name_H-M	'P1'
_symmetry_Int_Tables_number	1
_symmetry_cell_setting	triclinic
loop_
_symmetry_equiv_pos_as_xyz
  x,y,z
_cell_length_a	17.699083
_cell_length_b	17.699083
_cell_length_c	16.776229
_cell_angle_alpha	89.992455
_cell_angle_beta	89.998886
_cell_angle_gamma	83.283015
loop_
_atom_site_label
_atom_site_type_symbol
_atom_site_fract_x
_atom_site_fract_y
_atom_site_fract_z
O1	O	1.004078	0.095713	-0.066178
O2	O	0.783700	0.108165	-0.066204
O3	O	0.900116	-0.008250	-0.066183
O4	O	0.887663	0.212128	-0.066199
O5	O	0.900100	-0.008257	0.066393
O6	O	0.783685	0.108158	0.066372
O7	O	1.004063	0.095706	0.066398
Zn8	Zn	0.893871	0.101931	0.087435
Zn9	Zn	0.893892	0.101940	-0.087241
O10	O	0.887648	0.212121	0.066378
C11	C	0.755495	0.107716	0.000081
C12	C	0.671477	0.106377	0.000071
C13	C	0.622856	0.174710	0.000066
C14	C	0.543913	0.173448	0.000077
C15	C	0.513592	0.103852	0.000086
C16	C	0.562219	0.035513	0.000093
C17	C	0.641161	0.036776	0.000088
C18	C	0.243856	0.030418	0.000113
C19	C	0.164908	0.029160	0.000115
C20	C	0.146608	0.167090	0.000101
C21	C	0.225550	0.168353	0.000097
C22	C	0.274170	0.100015	0.000108
C23	C	0.359769	0.101384	0.000098
C24	C	0.427995	0.102481	0.000090
C25	C	0.899662	-0.036451	0.000105
C26	C	0.898323	-0.120469	0.000105
C27	C	0.966656	-0.169090	0.000114
C28	C	0.965394	-0.248033	0.000107
C29	C	0.895798	-0.278354	0.000096
C30	C	0.827459	-0.229727	0.000085
C31	C	0.828722	-0.150785	0.000086
C32	C	0.822364	-0.548090	0.000078
C33	C	0.821106	-0.627038	0.000078
C34	C	0.959036	-0.645338	0.000099
C35	C	0.960299	-0.566396	0.000100
C36	C	0.891961	-0.517776	0.000084
C37	C	0.893330	-0.432177	0.000090
C38	C	0.894427	-0.363951	0.000096
C39	C	1.032268	0.096156	0.000112
C40	C	1.116286	0.097494	0.000116
C41	C	0.888102	0.240322	0.000087
C42	C	0.889440	0.324340	0.000082
N43	N	0.893863	0.101924	0.206646
N44	N	0.893906	0.101941	-0.206452
C45	C	0.945428	0.050396	0.248372
C46	C	0.945432	0.050396	0.331824
C47	C	0.893875	0.101927	0.373549
C48	C	0.842305	0.153457	0.331817
C49	C	0.842297	0.153454	0.248366
C50	C	0.842332	0.153472	0.668364
C51	C	0.842345	0.153473	0.751820
C52	C	0.945466	0.050414	0.751822
C53	C	0.945459	0.050411	0.668372
C54	C	0.893887	0.101938	0.626647
C55	C	0.893882	0.101937	0.536158
C56	C	0.893882	0.101932	0.464036
H57	H	0.537526	-0.021154	0.000112
H58	H	0.800342	0.195428	0.634398
C59	C	1.001455	-0.005423	0.377234
C60	C	1.047691	0.034846	0.425147
C61	C	1.099303	-0.016550	0.467000
H62	H	1.032239	-0.036134	0.340529
H63	H	0.974314	-0.036886	0.409843
H64	H	1.074830	0.066296	0.392541
H65	H	1.016928	0.065554	0.461867
H66	H	1.072162	-0.048013	0.499609
H67	H	1.130081	-0.047258	0.430289
H68	H	1.130675	0.010765	0.499519
H69	H	0.140225	-0.027517	0.000124
H70	H	0.800322	0.195412	0.365793
H71	H	0.107012	0.222734	0.000097
H72	H	0.987444	0.008452	0.634402
C73	C	1.039668	-0.300696	0.000164
C74	C	1.100887	-0.257246	0.000202
C75	C	1.169322	-0.305732	0.000266
H76	H	1.042162	-0.331883	-0.046056
H77	H	1.042073	-0.331866	0.046415
H78	H	1.098482	-0.226089	-0.046044
H79	H	1.098418	-0.226060	0.046418
H80	H	1.171728	-0.336903	0.046516
H81	H	1.171808	-0.336918	-0.045955
H82	H	1.210867	-0.276259	0.000299
H83	H	0.680748	-0.018868	0.000091
H84	H	0.800308	0.195412	0.214393
H85	H	0.770792	-0.254420	0.000071
C86	C	1.035939	-0.533624	0.000070
C87	C	1.095514	-0.593102	0.000054
C88	C	1.165205	-0.562943	0.000013
H89	H	1.039402	-0.503226	0.046290
H90	H	1.039342	-0.503226	-0.046181
H91	H	1.092112	-0.623487	0.046301
H92	H	1.092076	-0.623505	-0.046162
H93	H	1.168609	-0.532545	-0.046238
H94	H	1.168661	-0.532545	0.046233
H95	H	1.205635	-0.603293	-0.000006
C96	C	1.001332	-0.005625	0.797170
C97	C	0.961109	-0.051921	0.845074
C98	C	1.012546	-0.103556	0.886849
H99	H	1.032806	0.021474	0.829783
H100	H	1.032028	-0.036358	0.760394
H101	H	0.930427	-0.021192	0.881845
H102	H	0.929638	-0.079037	0.812481
H103	H	1.043241	-0.134289	0.850074
H104	H	1.044017	-0.076451	0.919457
H105	H	0.985262	-0.134979	0.919351
C106	C	0.745462	-0.659812	0.000019
C107	C	0.685884	-0.600337	-0.000019
C108	C	0.616195	-0.630500	-0.000084
H109	H	0.741985	-0.690220	0.046238
H110	H	0.742075	-0.690201	-0.046233
H111	H	0.689269	-0.569960	0.046228
H112	H	0.689335	-0.569924	-0.046234
H113	H	0.612808	-0.660890	-0.046336
H114	H	0.612726	-0.660908	0.046136
H115	H	0.575763	-0.590152	-0.000117
H116	H	0.766718	-0.508512	0.000065
C117	C	0.754449	-0.098119	0.000116
C118	C	0.693228	-0.141566	0.000127
C119	C	0.624794	-0.093078	0.000160
H120	H	0.751975	-0.066922	-0.046105
H121	H	0.752025	-0.066958	0.046366
H122	H	0.695650	-0.172715	-0.046118
H123	H	0.695677	-0.172761	0.046345
H124	H	0.622371	-0.061917	0.046410
H125	H	0.622328	-0.061884	-0.046062
H126	H	0.583248	-0.122550	0.000175
H127	H	1.014680	-0.684934	0.000107
H128	H	0.283434	-0.025228	0.000123
C129	C	1.001440	-0.005638	0.203219
C130	C	1.046584	-0.050778	0.257628
C131	C	1.098183	-0.102415	0.216065
H132	H	1.032963	0.021458	0.170653
H133	H	0.974290	-0.037155	0.170692
H134	H	1.073731	-0.019266	0.290141
H135	H	1.015081	-0.077891	0.290196
H136	H	1.071033	-0.133931	0.183538
H137	H	1.129701	-0.075313	0.183500
H138	H	1.128814	-0.133053	0.252974
C139	C	0.786238	0.209332	0.797082
C140	C	0.711891	0.197127	0.776815
C141	C	0.660189	0.248560	0.818503
H142	H	0.794249	0.259872	0.783431
H143	H	0.793581	0.201950	0.852765
H144	H	0.704550	0.204516	0.721145
H145	H	0.703855	0.146598	0.790469
H146	H	0.667532	0.241178	0.874186
H147	H	0.668207	0.299096	0.804848
H148	H	0.609739	0.240281	0.804763
C149	C	0.491164	0.247666	-0.000097
C150	C	0.504831	0.289569	-0.068323
C151	C	0.456248	0.357941	-0.068514
H152	H	0.500302	0.276301	0.046076
H153	H	0.439794	0.236984	-0.000132
H154	H	0.556189	0.300253	-0.068280
H155	H	0.495688	0.260957	-0.114506
H156	H	0.404877	0.347259	-0.068550
H157	H	0.465390	0.386569	-0.022339
H158	H	0.465509	0.386377	-0.114808
C159	C	0.258506	0.243896	-0.000086
C160	C	0.303270	0.248659	-0.068310
C161	C	0.333629	0.318244	-0.068512
H162	H	0.288977	0.247335	0.046088
H163	H	0.218260	0.284432	-0.000132
H164	H	0.343511	0.208134	-0.068257
H165	H	0.272816	0.245233	-0.114495
H166	H	0.293382	0.358781	-0.068558
H167	H	0.364096	0.321677	-0.022336
H168	H	0.363998	0.321488	-0.114805
H169	H	0.647537	0.231384	0.000058
H170	H	1.023330	-0.144409	0.000128
