data_functionalizedCrystal
_audit_creation_method	'MofGen! by Chris Wilmer'
_symmetry_space_group_name_H-M	'P1'
_symmetry_Int_Tables_number	1
_symmetry_cell_setting	triclinic
loop_
_symmetry_equiv_pos_as_xyz
  x,y,z
_cell_length_a	15.698487
_cell_length_b	20.016444
_cell_length_c	20.016444
_cell_angle_alpha	90.002879
_cell_angle_beta	60.001889
_cell_angle_gamma	60.003646
loop_
_atom_site_label
_atom_site_type_symbol
_atom_site_fract_x
_atom_site_fract_y
_atom_site_fract_z
Zr1	Zr	0.932432	-0.087655	0.643579
O2	O	1.110129	-0.194324	0.536906
O3	O	0.754725	-0.054957	0.676280
O4	O	0.932427	-0.194327	0.676279
O5	O	0.932434	0.054986	0.536907
O6	O	0.932434	-0.194327	0.786219
O7	O	0.932427	-0.054954	0.536907
O8	O	0.614557	0.054980	0.786220
O9	O	1.250311	-0.194321	0.536906
O10	O	0.827827	-0.041010	0.772273
O11	O	0.827827	0.041037	0.690227
O12	O	1.037048	-0.123053	0.690226
O13	O	1.037048	-0.041006	0.608179
Zr14	Zr	0.932453	0.087686	0.818921
Zr15	Zr	0.932442	-0.087655	0.818920
Zr16	Zr	0.932442	0.087687	0.643580
Zr17	Zr	1.156005	-0.087651	0.643579
Zr18	Zr	0.708880	0.087682	0.818921
O19	O	1.110160	0.054989	0.786220
O20	O	1.110145	-0.194324	0.786219
O21	O	1.110145	0.054989	0.536907
O22	O	0.754755	0.194355	0.925594
O23	O	0.754740	-0.054958	0.925593
O24	O	0.754740	0.194356	0.676281
O25	O	0.932451	-0.054954	0.925593
O26	O	0.932458	0.194359	0.786221
O27	O	0.932451	0.194359	0.676281
O28	O	0.932458	0.054985	0.925593
O29	O	1.250319	-0.194322	0.676279
O30	O	0.614566	0.194353	0.786221
O31	O	0.614574	0.194353	0.925594
O32	O	0.614566	0.054980	0.925593
O33	O	1.250319	-0.054948	0.536907
O34	O	1.250328	-0.054948	0.676280
O35	O	0.827837	0.123084	0.772274
O36	O	0.827837	0.041037	0.854321
O37	O	1.037058	-0.041006	0.772273
O38	O	1.037058	0.041041	0.690227
C39	C	0.652787	0.000011	0.731250
C40	C	0.557874	0.000009	0.731250
C41	C	0.932429	0.000016	0.511925
C42	C	0.932425	0.000016	0.437488
C43	C	0.932456	0.219341	0.731251
C44	C	0.932460	0.293778	0.731251
C45	C	0.384091	0.000023	0.731248
C46	C	0.480796	0.000018	0.731248
C47	C	1.212098	0.000021	0.731250
C48	C	1.307011	0.000022	0.731250
C49	C	0.932429	-0.219310	0.731249
C50	C	0.932425	-0.293747	0.731249
C51	C	1.041658	0.422220	0.688420
C52	C	1.041653	0.492165	0.688418
C53	C	0.823219	0.577810	0.774081
C54	C	0.823225	0.507866	0.774078
C55	C	0.932448	0.430071	0.731250
C56	C	0.932437	0.569960	0.731250
C57	C	0.932430	0.645798	0.731248
C58	C	0.932455	0.354228	0.731251
C59	C	0.823227	0.042844	0.309048
C60	C	0.823232	0.042846	0.239103
C61	C	1.041666	-0.042813	0.153453
C62	C	1.041660	-0.042810	0.223398
C63	C	0.932437	0.000016	0.301195
C64	C	0.932448	0.000015	0.161305
C65	C	0.932454	0.000017	0.085467
C66	C	0.932430	0.000016	0.377038
C67	C	0.932456	0.000015	0.950575
C68	C	0.932460	0.000015	1.025012
C69	C	0.652800	0.000010	0.950576
C70	C	0.557892	0.000009	1.025013
C71	C	0.652800	0.219336	0.731251
C72	C	0.557892	0.293771	0.731251
C73	C	0.652813	0.219336	0.950576
C74	C	0.557910	0.293771	1.025014
C75	C	1.212071	-0.219304	0.511924
C76	C	1.306975	-0.293740	0.437486
C77	C	1.212085	0.000021	0.511924
C78	C	1.306993	0.000023	0.437487
C79	C	1.212085	-0.219305	0.731249
C80	C	1.306993	-0.293740	0.731249
C81	C	0.513317	-0.042827	1.017141
C82	C	0.424153	-0.042845	1.087076
C83	C	0.379560	-0.000022	1.164882
C84	C	0.424144	0.042815	1.172751
C85	C	0.513312	0.042828	1.102817
C86	C	0.513327	0.371562	0.774079
C87	C	0.424164	0.441509	0.774077
C88	C	0.379560	0.433663	0.731250
C89	C	0.424134	0.355864	0.688417
C90	C	0.513302	0.285919	0.688416
C91	C	0.513342	0.285899	1.102805
C92	C	0.424183	0.355832	1.172754
C93	C	0.379586	0.433636	1.164909
C94	C	0.424163	0.441507	1.087110
C95	C	0.513327	0.371575	1.017163
C96	C	1.351553	-0.285867	0.359695
C97	C	1.440741	-0.355801	0.289746
C98	C	1.485342	-0.433605	0.297591
C99	C	1.440759	-0.441476	0.375390
C100	C	1.351580	-0.371543	0.445337
C101	C	1.351577	0.042851	0.445359
C102	C	1.440766	0.042850	0.375424
C103	C	1.485362	0.000025	0.297618
C104	C	1.440774	-0.042809	0.289749
C105	C	1.351593	-0.042812	0.359683
C106	C	1.351568	-0.285868	0.774083
C107	C	1.440732	-0.355801	0.774099
C108	C	1.485326	-0.433606	0.731275
C109	C	1.440742	-0.441476	0.688438
C110	C	1.351573	-0.371544	0.688428
H111	H	1.130594	0.358878	0.653544
Br112	Br	1.189873	0.481504	0.630276
H113	H	0.549639	0.222553	1.109208
H114	H	0.387898	0.349409	1.236095
H115	H	1.315244	-0.222521	0.353292
H116	H	0.734288	0.514265	0.808955
Br117	Br	0.363608	0.100931	1.278351
H118	H	0.734293	0.641158	0.808952
Br119	Br	0.363689	0.547082	0.832213
H120	H	1.315274	-0.222522	0.808956
Br121	Br	1.501256	0.100988	0.386123
H122	H	0.734290	0.077725	0.372392
Br123	Br	0.573790	0.100973	1.113515
H124	H	1.130597	-0.077683	0.216997
H125	H	1.557979	0.000034	0.240680
Br126	Br	0.363587	0.345230	0.630299
Br127	Br	0.258545	0.528598	0.731260
Br128	Br	1.606373	-0.528506	0.202654
H129	H	0.734303	0.077721	0.245505
Br130	Br	1.189891	-0.100933	0.047870
Br131	Br	1.501225	-0.345101	0.832234
Br132	Br	1.501308	-0.100923	0.184149
Br133	Br	1.291091	-0.100938	0.348985
H134	H	1.557933	-0.490542	0.731289
Br135	Br	0.258577	0.528538	1.259846
H136	H	1.477085	-0.504832	0.381768
H137	H	0.549602	0.377996	0.953824
H138	H	1.477024	-0.349376	0.226405
Br139	Br	0.573835	0.382232	0.832212
H140	H	0.549575	0.222581	0.653543
H141	H	0.387839	0.504865	1.080734
Br142	Br	0.573820	-0.100954	0.911557
H143	H	1.315285	-0.377963	0.508677
H144	H	1.477064	-0.504834	0.653572
Br145	Br	1.291077	0.100976	0.550943
Br146	Br	0.258544	-0.000048	1.259785
Br147	Br	0.363663	-0.100983	1.076377
Br148	Br	1.291098	-0.382242	0.630282
