data_functionalizedCrystal
_audit_creation_method	'MofGen! by Chris Wilmer'
_symmetry_space_group_name_H-M	'P1'
_symmetry_Int_Tables_number	1
_symmetry_cell_setting	triclinic
loop_
_symmetry_equiv_pos_as_xyz
  x,y,z
_cell_length_a	11.792241
_cell_length_b	23.532407
_cell_length_c	10.268362
_cell_angle_alpha	89.990068
_cell_angle_beta	89.999626
_cell_angle_gamma	83.521047
loop_
_atom_site_label
_atom_site_type_symbol
_atom_site_fract_x
_atom_site_fract_y
_atom_site_fract_z
O1	O	1.505071	0.078055	-0.108188
O2	O	1.174541	0.086099	-0.108220
O3	O	1.349773	-0.000795	-0.108179
O4	O	1.329839	0.164950	-0.108229
O5	O	1.349758	-0.000799	0.108421
O6	O	1.174526	0.086096	0.108380
O7	O	1.505056	0.078051	0.108412
Cu8	Cu	1.339790	0.082073	0.128174
Cu9	Cu	1.339808	0.082078	-0.127982
O10	O	1.329824	0.164946	0.108372
C11	C	1.132254	0.085592	0.000076
C12	C	1.006276	0.084080	0.000065
C13	C	0.775630	0.081299	0.000104
C14	C	0.903978	0.082844	0.000082
C15	C	1.349258	-0.022016	0.000124
C16	C	1.347732	-0.085242	0.000134
C17	C	1.441858	-0.483788	0.000072
C18	C	1.440440	-0.543196	0.000062
O19	O	1.527696	-0.579424	0.000022
N20	N	1.336265	-0.566440	0.000053
C21	C	1.233500	-0.530271	0.000040
O22	O	1.144761	-0.555497	0.000030
C23	C	1.234919	-0.470864	0.000041
C24	C	1.339102	-0.447624	0.000063
C25	C	1.546032	-0.460547	0.000093
C26	C	1.547449	-0.401142	0.000105
C27	C	1.444693	-0.364979	0.000097
C28	C	1.340519	-0.388219	0.000076
C29	C	1.132156	-0.434696	0.000019
C30	C	1.133584	-0.375285	0.000019
C31	C	1.237766	-0.352045	0.000041
C32	C	1.239180	-0.292651	0.000080
N33	N	1.343355	-0.269407	0.000089
C34	C	1.446112	-0.305571	0.000097
C35	C	1.230528	-0.655031	0.000036
C36	C	1.229108	-0.714438	0.000045
C37	C	1.436049	-0.727359	0.000064
C38	C	1.437468	-0.667951	0.000065
C39	C	1.334704	-0.631788	0.000046
C40	C	1.449080	-0.180817	0.000125
C41	C	1.450489	-0.121406	0.000142
C42	C	1.243549	-0.108491	0.000117
C43	C	1.242140	-0.167896	0.000106
C44	C	1.344915	-0.204058	0.000105
O45	O	1.151970	-0.256388	0.000114
O46	O	1.534837	-0.280337	0.000090
C47	C	1.547343	0.078558	0.000113
C48	C	1.673321	0.080071	0.000115
C49	C	1.330339	0.186167	0.000065
C50	C	1.331865	0.249393	0.000047
N51	N	1.339786	0.082070	0.308340
N52	N	1.339821	0.082076	-0.308148
C53	C	1.339802	0.082076	0.574010
C54	C	1.339789	0.082074	0.426172
H55	H	1.535330	-0.102488	0.000164
O56	O	1.645934	-0.495613	-0.000068
C57	C	1.709224	-0.485024	-0.112252
H58	H	1.680818	-0.440053	-0.149663
H59	H	1.694111	-0.517563	-0.190804
C60	C	1.872035	-0.545484	-0.032199
C61	C	1.837152	-0.490249	-0.078141
H62	H	1.950947	-0.548709	-0.011162
H63	H	1.829394	-0.552620	0.043379
H64	H	1.859431	-0.572594	-0.097667
H65	H	1.849743	-0.463141	-0.012668
H66	H	1.879798	-0.483108	-0.153708
O67	O	1.033651	-0.340239	0.000059
C68	C	0.941405	-0.373496	0.000002
H69	H	0.970727	-0.417741	0.041009
H70	H	0.909456	-0.377819	-0.103919
C71	C	0.808173	-0.289874	0.034563
C72	C	0.844185	-0.344215	0.084939
H73	H	0.748200	-0.271812	0.086951
H74	H	0.870320	-0.267467	0.034596
H75	H	0.781556	-0.293484	-0.052037
H76	H	0.870814	-0.340604	0.171531
H77	H	0.782040	-0.366621	0.084923
H78	H	1.532770	-0.210254	0.000119
H79	H	1.522302	-0.649034	0.000082
O80	O	1.140840	-0.190380	0.000031
C81	C	1.050450	-0.145719	0.000064
H82	H	1.081803	-0.105259	-0.040915
H83	H	1.018771	-0.137430	0.103975
C84	C	0.913645	-0.212476	-0.034580
C85	C	0.952150	-0.162785	-0.084921
H86	H	0.853006	-0.223004	-0.086997
H87	H	0.974541	-0.242566	-0.034597
H88	H	0.887254	-0.205563	0.052012
H89	H	0.978553	-0.169701	-0.171505
H90	H	0.891256	-0.132696	-0.084920
H91	H	1.519719	-0.756814	0.000066
H92	H	1.632285	-0.382226	0.000118
O93	O	1.127806	-0.736915	-0.000020
C94	C	1.037423	-0.692250	0.000011
H95	H	1.068780	-0.651795	-0.040984
H96	H	1.005754	-0.683955	0.103923
C97	C	0.900601	-0.759002	-0.034596
C98	C	0.939112	-0.709316	-0.084957
H99	H	0.839956	-0.769530	-0.087002
H100	H	0.961493	-0.789095	-0.034611
H101	H	0.874218	-0.752083	0.051997
H102	H	0.965507	-0.716238	-0.171542
H103	H	0.878222	-0.679225	-0.084958
O104	O	1.143840	-0.073274	0.000049
C105	C	1.167444	-0.015858	0.000090
H106	H	1.256569	-0.013301	-0.040896
H107	H	1.162930	0.001299	0.104005
C108	C	0.969469	0.017089	-0.034531
C109	C	1.078930	0.020230	-0.084881
H110	H	0.914867	0.039351	-0.086940
H111	H	0.953564	-0.021593	-0.034554
H112	H	0.965723	0.031386	0.052064
H113	H	1.082678	0.005927	-0.171467
H114	H	1.094833	0.058911	-0.084875
H115	H	1.146840	-0.625590	0.000032
H116	H	1.047320	-0.453608	-0.000007
