data_functionalizedCrystal
_audit_creation_method	'MofGen! by Chris Wilmer'
_symmetry_space_group_name_H-M	'P1'
_symmetry_Int_Tables_number	1
_symmetry_cell_setting	triclinic
loop_
_symmetry_equiv_pos_as_xyz
  x,y,z
_cell_length_a	34.571875
_cell_length_b	34.571051
_cell_length_c	34.567439
_cell_angle_alpha	60.004367
_cell_angle_beta	60.008842
_cell_angle_gamma	59.994195
loop_
_atom_site_label
_atom_site_type_symbol
_atom_site_fract_x
_atom_site_fract_y
_atom_site_fract_z
O1	O	0.053721	-0.565181	0.472559
O2	O	0.020283	-0.440038	0.380761
O3	O	0.099534	-0.519209	0.380676
O4	O	-0.025530	-0.486010	0.472643
O5	O	0.125831	-0.492917	0.406885
O6	O	0.046580	-0.413746	0.406969
O7	O	0.080018	-0.538889	0.498767
Zn8	Zn	0.067475	-0.472143	0.457030
Zn9	Zn	0.032827	-0.506784	0.422498
O10	O	0.000767	-0.459718	0.498852
N11	N	0.091122	-0.448505	0.480598
N12	N	0.009184	-0.530426	0.398930
C13	C	0.124402	-0.415465	0.717633
C14	C	0.328327	-0.415388	0.513477
C15	C	0.124221	-0.415437	0.513630
C16	C	0.124201	-0.211364	0.513624
C17	C	0.157075	-0.309853	0.546423
C18	C	0.157084	-0.382601	0.546423
C19	C	0.175289	-0.364414	0.564591
C20	C	0.254624	-0.350722	0.522790
C21	C	0.304220	-0.367243	0.506229
C22	C	0.304249	-0.447494	0.536832
C23	C	0.254655	-0.430972	0.553394
C24	C	0.169014	-0.285043	0.497667
C25	C	0.152454	-0.235444	0.481153
C26	C	0.112020	-0.235469	0.562154
C27	C	0.128580	-0.285068	0.578668
C28	C	0.108321	-0.370634	0.558439
C29	C	0.091776	-0.387168	0.541918
C30	C	0.172754	-0.427637	0.501375
C31	C	0.189301	-0.411103	0.517891
C32	C	0.108399	-0.370649	0.643978
C33	C	0.091911	-0.387197	0.693575
C34	C	0.172928	-0.427676	0.693511
C35	C	0.189415	-0.411128	0.643912
C36	C	0.157149	-0.382613	0.619147
C37	C	0.229844	-0.382585	0.546371
C38	C	0.105624	-0.433333	0.772186
C39	C	0.382878	-0.432925	0.495007
C40	C	0.105380	-0.433313	0.495792
C41	C	0.105683	-0.156808	0.496094
C42	C	-0.023527	-0.563458	0.161535
C43	C	-0.023851	-0.767445	0.365663
C44	C	-0.023821	-0.563448	0.365756
C45	C	-0.227785	-0.563229	0.365355
C46	C	-0.129302	-0.596153	0.332678
C47	C	-0.056593	-0.596234	0.332823
C48	C	-0.074746	-0.614396	0.314578
C49	C	-0.088477	-0.693710	0.356299
C50	C	-0.071982	-0.743310	0.372851
C51	C	0.008266	-0.743392	0.342376
C52	C	-0.008230	-0.693794	0.325823
C53	C	-0.154162	-0.608103	0.381422
C54	C	-0.203757	-0.591517	0.397874
C55	C	-0.203630	-0.551037	0.316836
C56	C	-0.154034	-0.567623	0.300384
C57	C	-0.068543	-0.547475	0.320829
C58	C	-0.052041	-0.530969	0.337421
C59	C	-0.011639	-0.611977	0.377990
C60	C	-0.028141	-0.628485	0.361404
C61	C	-0.068417	-0.547482	0.235199
C62	C	-0.051814	-0.530977	0.185602
C63	C	-0.011349	-0.611990	0.185649
C64	C	-0.027951	-0.628493	0.235248
C65	C	-0.056486	-0.596238	0.260022
C66	C	-0.056602	-0.668955	0.332787
C67	C	-0.005599	-0.544662	0.106983
C68	C	-0.006342	-0.821999	0.384121
C69	C	-0.005979	-0.544649	0.383673
C70	C	-0.282336	-0.544682	0.382817
N71	N	0.427518	-0.448428	0.480350
O72	O	0.589573	-0.456297	0.363634
O73	O	0.589761	-0.548399	0.488643
O74	O	0.589681	-0.548188	0.409364
O75	O	0.589654	-0.456508	0.442913
O76	O	0.510890	-0.521988	0.435708
O77	O	0.510970	-0.522199	0.514987
O78	O	0.510782	-0.430098	0.389978
Zn79	Zn	0.498366	-0.471989	0.456665
Zn80	Zn	0.602177	-0.506508	0.421956
O81	O	0.510862	-0.430308	0.469257
N82	N	0.673025	-0.530068	0.398267
N83	N	0.091092	-0.112167	0.480590
O84	O	-0.025539	0.049976	0.472612
O85	O	0.099472	0.050011	0.380491
O86	O	0.020155	0.049979	0.380751
O87	O	0.053778	0.050009	0.472352
O88	O	0.046458	-0.028818	0.407008
O89	O	0.125775	-0.028785	0.406748
O90	O	0.000764	-0.028821	0.498869
Zn91	Zn	0.067445	-0.041314	0.456977
Zn92	Zn	0.032791	0.062504	0.422382
O93	O	0.080081	-0.028788	0.498609
N94	N	0.009138	0.133358	0.398771
N95	N	0.091421	-0.448552	0.816827
O96	O	0.083469	-0.565164	0.978960
O97	O	-0.008614	-0.440110	0.979002
O98	O	-0.008399	-0.519410	0.978978
O99	O	0.083253	-0.485863	0.978984
O100	O	0.017837	-0.493128	0.900185
O101	O	0.017621	-0.413827	0.900208
O102	O	0.109704	-0.538881	0.900167
Zn103	Zn	0.067828	-0.472181	0.887677
Zn104	Zn	0.033262	-0.506810	0.991491
O105	O	0.109489	-0.459581	0.900191
N106	N	0.009668	-0.530444	1.062341
C107	C	0.030297	-0.411123	0.381218
C108	C	0.128439	-0.509167	0.381113
C109	C	0.070004	-0.567805	0.498310
C110	C	-0.028138	-0.469761	0.498415
C111	C	0.550388	-0.547982	0.517564
C112	C	0.550290	-0.547721	0.419387
C113	C	0.550153	-0.430514	0.361058
C114	C	0.550253	-0.430775	0.459234
C115	C	0.128339	0.010714	0.380902
C116	C	0.030148	0.010577	0.381256
C117	C	-0.028136	0.010574	0.498426
C118	C	0.070089	0.010613	0.498104
C119	C	-0.008178	-0.411214	0.939610
C120	C	-0.007906	-0.509413	0.939566
C121	C	0.109268	-0.567777	0.939558
C122	C	0.109002	-0.469572	0.939586
H123	H	0.082121	-0.347425	0.623816
C124	C	0.176137	0.010916	0.342260
C125	C	0.197088	-0.029543	0.329490
C126	C	0.241124	-0.029380	0.293903
H127	H	0.171880	0.038421	0.315386
H128	H	0.196057	0.010960	0.353662
H129	H	0.177172	-0.029582	0.318087
H130	H	0.201356	-0.057054	0.356354
H131	H	0.261044	-0.029337	0.305305
H132	H	0.236863	-0.001874	0.267031
H133	H	0.255346	-0.056833	0.285237
C134	C	0.020472	0.010527	0.342955
C135	C	-0.025772	0.010492	0.360162
C136	C	-0.034697	0.010432	0.324897
H137	H	0.023946	0.037994	0.315983
H138	H	0.042312	-0.016966	0.334339
H139	H	-0.047606	0.037982	0.368771
H140	H	-0.029257	-0.016973	0.387130
H141	H	-0.012857	-0.017061	0.316282
H142	H	-0.031221	0.037900	0.297927
H143	H	-0.066073	0.010404	0.336569
C144	C	0.026308	-0.666828	0.300264
C145	C	0.001511	-0.618075	0.287245
C146	C	0.033312	-0.593221	0.263692
H147	H	0.041964	-0.674912	0.320676
H148	H	0.049041	-0.674952	0.272699
H149	H	-0.021214	-0.609955	0.314805
H150	H	-0.014144	-0.609978	0.266827
H151	H	0.056046	-0.601344	0.236127
H152	H	0.048967	-0.601308	0.284107
H153	H	0.016493	-0.560139	0.254852
C154	C	-0.075986	-0.460374	0.536992
C155	C	-0.069742	-0.465667	0.576603
C156	C	-0.113808	-0.457030	0.612152
H157	H	-0.095909	-0.429023	0.525577
H158	H	-0.090187	-0.482286	0.545660
H159	H	-0.055549	-0.443756	0.567936
H160	H	-0.049828	-0.497016	0.588032
H161	H	-0.128008	-0.478942	0.620820
H162	H	-0.133727	-0.425679	0.600732
H163	H	-0.109577	-0.460624	0.639034
H164	H	-0.036687	-0.516580	0.939532
H165	H	-0.037087	-0.375298	0.939623
H166	H	0.077290	0.010621	0.526881
C167	C	0.550481	-0.586486	0.565459
C168	C	0.550509	-0.569507	0.594692
C169	C	0.550601	-0.604965	0.638813
H170	H	0.523028	-0.595144	0.579713
H171	H	0.577985	-0.613397	0.561303
H172	H	0.523008	-0.542604	0.598849
H173	H	0.577959	-0.560851	0.580453
H174	H	0.578104	-0.631876	0.634657
H175	H	0.523148	-0.613621	0.653063
H176	H	0.550624	-0.593451	0.658652
H177	H	0.550303	-0.576522	0.412207
C178	C	-0.230544	-0.519998	0.281827
C179	C	-0.259010	-0.476208	0.288923
C180	C	-0.283812	-0.447603	0.256684
H181	H	-0.208687	-0.515206	0.250420
H182	H	-0.249924	-0.535089	0.286558
H183	H	-0.239632	-0.461119	0.284188
H184	H	-0.280876	-0.480985	0.320323
H185	H	-0.303192	-0.462694	0.261415
H186	H	-0.261952	-0.442815	0.225280
H187	H	-0.303133	-0.417890	0.261497
H188	H	0.550093	-0.401597	0.325157
C189	C	0.550267	-0.392318	0.468701
C190	C	0.550213	-0.351733	0.428288
C191	C	0.550233	-0.316300	0.436989
H192	H	0.522818	-0.384908	0.494542
H193	H	0.577774	-0.403223	0.476167
H194	H	0.522708	-0.340829	0.420828
H195	H	0.577659	-0.359128	0.402442
H196	H	0.577740	-0.327204	0.444455
H197	H	0.522783	-0.308893	0.462831
H198	H	0.550200	-0.288760	0.409570
H199	H	0.137795	-0.462392	0.939581
H200	H	-0.064037	0.010563	0.527345
H201	H	0.138179	-0.603691	0.939539
C202	C	0.176372	-0.518679	0.342671
C203	C	0.205583	-0.564909	0.359716
C204	C	0.249744	-0.573687	0.324319
H205	H	0.172292	-0.515155	0.315737
H206	H	0.190597	-0.496801	0.334039
H207	H	0.191362	-0.586781	0.368342
H208	H	0.209677	-0.568445	0.386646
H209	H	0.263969	-0.551809	0.315687
H210	H	0.245659	-0.570160	0.297387
H211	H	0.269571	-0.605053	0.335880
C212	C	-0.230837	-0.604417	0.450782
C213	C	-0.279564	-0.583778	0.458279
C214	C	-0.304524	-0.595647	0.507010
H215	H	-0.222797	-0.637870	0.464775
H216	H	-0.222760	-0.593007	0.464759
H217	H	-0.287638	-0.595191	0.444308
H218	H	-0.287619	-0.550325	0.444297
H219	H	-0.296447	-0.584237	0.520987
H220	H	-0.296480	-0.629100	0.520999
H221	H	-0.337588	-0.581642	0.512103
H222	H	0.199204	-0.450885	0.713670
C223	C	0.038960	-0.374126	0.720444
C224	C	0.014236	-0.345602	0.688137
C225	C	-0.034541	-0.333546	0.712872
H226	H	0.030777	-0.402136	0.739796
H227	H	0.030825	-0.357279	0.739781
H228	H	0.022368	-0.362449	0.668808
H229	H	0.022405	-0.317586	0.668784
H230	H	-0.042677	-0.316699	0.732209
H231	H	-0.042719	-0.361559	0.732224
H232	H	-0.051322	-0.314188	0.690956
H233	H	0.229113	-0.420876	0.623698
H234	H	0.052069	-0.377412	0.551692
C235	C	0.207809	-0.458559	0.470387
C236	C	0.254054	-0.465490	0.463396
C237	C	0.286360	-0.493967	0.434845
H238	H	0.203123	-0.488317	0.485491
H239	H	0.203045	-0.443410	0.440653
H240	H	0.258816	-0.480640	0.493125
H241	H	0.258756	-0.435741	0.448287
H242	H	0.281596	-0.478818	0.405111
H243	H	0.281670	-0.523723	0.449952
H244	H	0.317741	-0.498670	0.430094
H245	H	0.082085	-0.347427	0.581670
H246	H	0.077150	-0.603753	0.527142
C247	C	0.227774	-0.465578	0.578907
C248	C	0.239807	-0.488604	0.548727
C249	C	0.215049	-0.520482	0.572211
H250	H	0.235909	-0.488334	0.606456
H251	H	0.194678	-0.448824	0.587753
H252	H	0.272895	-0.505358	0.539887
H253	H	0.231670	-0.465861	0.521177
H254	H	0.181954	-0.503728	0.581057
H255	H	0.223187	-0.543235	0.599760
H256	H	0.223207	-0.536106	0.551736
C257	C	0.331277	-0.500009	0.544385
C258	C	0.380014	-0.507655	0.524823
C259	C	0.404926	-0.556024	0.531769
H260	H	0.323234	-0.517357	0.577352
H261	H	0.323163	-0.510282	0.529390
H262	H	0.388125	-0.497387	0.539820
H263	H	0.388072	-0.490319	0.491856
H264	H	0.396812	-0.566297	0.516774
H265	H	0.396879	-0.573368	0.564736
H266	H	0.437996	-0.561218	0.518493
C267	C	0.331100	-0.332612	0.480542
C268	C	0.319005	-0.299205	0.439956
C269	C	0.343762	-0.267299	0.416277
H270	H	0.323006	-0.316883	0.500891
H271	H	0.364195	-0.349360	0.471653
H272	H	0.285917	-0.282459	0.448845
H273	H	0.327100	-0.314921	0.419595
H274	H	0.376858	-0.284047	0.407388
H275	H	0.335667	-0.251573	0.436630
H276	H	0.335563	-0.244631	0.388735
C277	C	0.227628	-0.298209	0.515264
C278	C	0.199176	-0.291568	0.559253
C279	C	0.174296	-0.243200	0.552337
H280	H	0.249438	-0.281548	0.498872
H281	H	0.208232	-0.286567	0.497129
H282	H	0.218571	-0.303205	0.577380
H283	H	0.177358	-0.308219	0.575651
H284	H	0.154900	-0.231558	0.534203
H285	H	0.196109	-0.226543	0.535945
H286	H	0.154985	-0.238689	0.582182
H287	H	0.192214	-0.305222	0.471410
C288	C	0.165389	-0.208562	0.428202
C289	C	0.148518	-0.220636	0.407806
C290	C	0.160431	-0.195887	0.359028
H291	H	0.151456	-0.175466	0.422920
H292	H	0.198853	-0.216689	0.414229
H293	H	0.115061	-0.212506	0.421774
H294	H	0.162449	-0.253727	0.413074
H295	H	0.193895	-0.204014	0.345056
H296	H	0.146497	-0.162793	0.353751
H297	H	0.148990	-0.204079	0.345183
C298	C	0.081073	-0.208642	0.597236
C299	C	0.074160	-0.240986	0.643471
C300	C	0.045650	-0.216291	0.675800
H301	H	0.096175	-0.189283	0.592517
H302	H	0.051314	-0.189313	0.592526
H303	H	0.103915	-0.260307	0.648179
H304	H	0.059053	-0.260346	0.648205
H305	H	0.015890	-0.196962	0.671091
H306	H	0.060755	-0.196934	0.671078
H307	H	0.040952	-0.238233	0.707175
C308	C	-0.064848	-0.478020	0.158742
C309	C	-0.093402	-0.453308	0.191057
C310	C	-0.105422	-0.404524	0.166330
H311	H	-0.036829	-0.469852	0.139435
H312	H	-0.081662	-0.469856	0.139361
H313	H	-0.076588	-0.461469	0.210430
H314	H	-0.121427	-0.461461	0.210365
H315	H	-0.122236	-0.396360	0.146949
H316	H	-0.077401	-0.396362	0.147024
H317	H	-0.124801	-0.387751	0.188252
H318	H	0.229008	-0.420842	0.508101
H319	H	0.118851	-0.305270	0.618371
H320	H	-0.091654	-0.521212	0.255368
H321	H	0.011877	-0.638258	0.165483
H322	H	-0.091707	-0.521211	0.297556
C323	C	-0.015063	-0.681438	0.262172
C324	C	-0.031914	-0.701821	0.250065
C325	C	-0.020057	-0.750590	0.274862
H326	H	0.018388	-0.695462	0.254120
H327	H	-0.029049	-0.686668	0.295263
H328	H	-0.017926	-0.696594	0.216982
H329	H	-0.065364	-0.687810	0.258119
H330	H	-0.034043	-0.755820	0.307953
H331	H	0.013394	-0.764610	0.266808
H332	H	-0.031492	-0.764425	0.266654
C333	C	-0.064934	-0.478026	0.324301
C334	C	-0.047981	-0.457655	0.274968
C335	C	-0.059838	-0.408888	0.262862
H336	H	-0.098389	-0.463989	0.335602
H337	H	-0.051012	-0.472801	0.338246
H338	H	-0.061905	-0.462876	0.261028
H339	H	-0.014528	-0.471678	0.263655
H340	H	-0.045916	-0.403663	0.276808
H341	H	-0.093292	-0.394855	0.274167
H342	H	-0.048333	-0.395060	0.229390
C343	C	0.019311	-0.647048	0.408952
C344	C	0.060610	-0.675544	0.384098
C345	C	0.089129	-0.707863	0.412609
H346	H	0.027483	-0.630297	0.417131
H347	H	0.002469	-0.666399	0.436973
H348	H	0.077449	-0.656196	0.356086
H349	H	0.052453	-0.692306	0.375920
H350	H	0.072287	-0.727214	0.440630
H351	H	0.097297	-0.691108	0.420786
H352	H	0.117152	-0.727204	0.395751
C353	C	-0.015191	-0.681434	0.374500
C354	C	-0.032105	-0.701844	0.423830
C355	C	-0.020178	-0.750618	0.435901
H356	H	-0.029088	-0.686694	0.360565
H357	H	0.018276	-0.695415	0.363166
H358	H	-0.065565	-0.687867	0.435158
H359	H	-0.018210	-0.696597	0.437776
H360	H	0.013289	-0.764599	0.424568
H361	H	-0.034076	-0.755874	0.421964
H362	H	-0.031649	-0.764473	0.469373
H363	H	0.047655	-0.763617	0.336709
H364	H	-0.097938	-0.763465	0.391989
C365	C	-0.141008	-0.666830	0.363866
C366	C	-0.165387	-0.699130	0.387983
C367	C	-0.213777	-0.674384	0.394949
H368	H	-0.152735	-0.647465	0.382053
H369	H	-0.145568	-0.647502	0.334041
H370	H	-0.160830	-0.718449	0.417804
H371	H	-0.153674	-0.718495	0.369804
H372	H	-0.218338	-0.655056	0.365123
H373	H	-0.225500	-0.655020	0.413135
H374	H	-0.230324	-0.696295	0.411309
H375	H	0.023152	-0.375173	0.352387
C376	C	-0.127394	-0.639053	0.416557
C377	C	-0.159782	-0.645953	0.462768
C378	C	-0.135141	-0.674457	0.495149
H379	H	-0.108053	-0.668819	0.411877
H380	H	-0.108054	-0.623936	0.411860
H381	H	-0.179113	-0.661071	0.467464
H382	H	-0.179124	-0.616196	0.467463
H383	H	-0.115802	-0.659340	0.490451
H384	H	-0.115801	-0.704221	0.490464
H385	H	-0.157113	-0.679139	0.526506
H386	H	-0.133793	-0.557888	0.260690
