data_functionalizedCrystal
_audit_creation_method	'MofGen! by Chris Wilmer'
_symmetry_space_group_name_H-M	'P1'
_symmetry_Int_Tables_number	1
_symmetry_cell_setting	triclinic
loop_
_symmetry_equiv_pos_as_xyz
  x,y,z
_cell_length_a	17.077404
_cell_length_b	13.897447
_cell_length_c	17.077396
_cell_angle_alpha	90.026095
_cell_angle_beta	90.018362
_cell_angle_gamma	90.017500
loop_
_atom_site_label
_atom_site_type_symbol
_atom_site_fract_x
_atom_site_fract_y
_atom_site_fract_z
Zn1	Zn	1.200073	-0.384067	0.443832
Zn2	Zn	1.700073	0.115933	0.943832
Zn3	Zn	1.199988	-0.545380	0.312571
Zn4	Zn	1.699988	-0.045380	0.812571
Zn5	Zn	1.068805	-0.384095	0.312582
Zn6	Zn	1.568805	0.115905	0.812582
Zn7	Zn	1.068780	-0.545316	0.443798
Zn8	Zn	1.568780	-0.045316	0.943798
O9	O	1.134411	-0.464714	0.378196
O10	O	1.634411	0.035286	0.878196
O11	O	1.309909	-0.405481	0.426430
O12	O	1.809909	0.094519	0.926430
O13	O	1.182561	-0.524023	0.202726
O14	O	1.682561	-0.024023	0.702726
O15	O	1.086264	-0.249109	0.330012
O16	O	1.586264	0.250891	0.830012
O17	O	1.309846	-0.523996	0.329993
O18	O	1.809846	-0.023996	0.829993
O19	O	1.182706	-0.249089	0.426440
O20	O	1.682706	0.250911	0.926440
O21	O	1.086181	-0.405528	0.202734
O22	O	1.586181	0.094472	0.702734
O23	O	0.958955	-0.405466	0.329979
O24	O	1.458955	0.094534	0.829979
O25	O	1.086222	-0.523888	0.553649
O26	O	1.586222	-0.023888	1.053649
O27	O	0.958937	-0.523915	0.426382
O28	O	1.458937	-0.023915	0.926382
O29	O	1.182682	-0.405419	0.553674
O30	O	1.682682	0.094581	1.053674
O31	O	1.182537	-0.680353	0.329960
O32	O	1.682537	-0.180353	0.829960
O33	O	1.086139	-0.680306	0.426371
O34	O	1.586139	-0.180306	0.926371
C35	C	0.930464	-0.464687	0.378178
C36	C	1.430464	0.035313	0.878178
C37	C	0.843214	-0.464699	0.378189
C38	C	1.343214	0.035301	0.878189
C39	C	0.802257	-0.403097	0.428480
C40	C	1.302257	0.096903	0.928480
C41	C	0.720277	-0.403103	0.428484
C42	C	1.220277	0.096897	0.928484
C43	C	0.679254	-0.464717	0.378200
C44	C	1.179254	0.035283	0.878200
C45	C	0.720217	-0.526321	0.327903
C46	C	1.220217	-0.026321	0.827903
C47	C	0.802196	-0.526309	0.327896
C48	C	1.302196	-0.026309	0.827896
C49	C	0.549347	-0.526343	0.327923
C50	C	1.049347	-0.026343	0.827923
C51	C	0.467362	-0.526356	0.327930
C52	C	0.967362	-0.026356	0.827930
C53	C	0.467428	-0.403137	0.428511
C54	C	0.967428	0.096863	0.928511
C55	C	0.549406	-0.403125	0.428504
C56	C	1.049406	0.096875	0.928504
C57	C	0.590363	-0.464731	0.378208
C58	C	1.090363	0.035269	0.878208
C59	C	1.134348	-0.715329	0.378178
C60	C	1.634348	-0.215329	0.878178
C61	C	1.134392	-0.822543	0.378196
C62	C	1.634392	-0.322543	0.878196
C63	C	1.134430	-0.909612	0.378214
C64	C	1.634430	-0.409612	0.878214
C65	C	1.134485	-1.018845	0.378234
C66	C	1.634485	-0.518845	0.878234
C67	C	1.339156	-0.464743	0.378214
C68	C	1.839156	0.035257	0.878214
C69	C	1.426405	-0.464755	0.378222
C70	C	1.926405	0.035245	0.878222
C71	C	1.134459	-0.464643	0.582940
C72	C	1.634459	0.035357	1.082940
C73	C	1.134479	-0.464613	0.670190
C74	C	1.634479	0.035387	1.170190
C75	C	1.134497	-0.213121	0.378231
C76	C	1.634497	0.286879	0.878231
C77	C	1.134533	-0.105907	0.378246
C78	C	1.634533	0.394093	0.878246
C79	C	1.134409	-0.464716	0.174248
C80	C	1.634409	0.035284	0.674248
C81	C	1.134541	-0.464474	0.086999
C82	C	1.634541	0.035526	0.586999
C83	C	1.184708	-0.402921	0.711195
C84	C	1.684708	0.097079	1.211195
C85	C	1.184717	-0.402889	0.793175
C86	C	1.684717	0.097111	1.293175
C87	C	1.134501	-0.464554	0.834149
C88	C	1.634501	0.035446	1.334149
C89	C	1.084267	-0.526249	0.793139
C90	C	1.584267	-0.026249	1.293139
C91	C	1.084255	-0.526276	0.711160
C92	C	1.584255	-0.026276	1.211160
C93	C	1.084299	-0.526191	0.964009
C94	C	1.584299	-0.026191	1.464009
C95	C	1.084313	-0.526166	1.045994
C96	C	1.584313	-0.026166	1.545994
C97	C	1.184762	-0.402805	1.046024
C98	C	1.684762	0.097195	1.546024
C99	C	1.184749	-0.402831	0.964045
C100	C	1.684749	0.097169	1.464045
C101	C	1.134516	-0.464527	0.923041
C102	C	1.634516	0.035473	1.423041
H103	H	0.582805	-0.352960	0.469454
H104	H	1.082805	0.147040	0.969454
H105	H	0.686933	-0.352943	0.469438
H106	H	1.186933	0.147057	0.969438
Br107	Br	0.664545	-0.609932	0.259653
Br108	Br	1.164545	-0.109932	0.759653
H109	H	1.043421	-0.576377	1.079353
H110	H	1.543421	-0.076377	1.579353
Br111	Br	1.252924	-0.319206	0.848821
Br112	Br	1.752924	0.180794	1.348821
Br113	Br	0.411845	-0.319529	0.496769
Br114	Br	0.911845	0.180471	0.996769
H115	H	0.582691	-0.576506	0.286964
H116	H	1.082691	-0.076506	0.786964
H117	H	0.433964	-0.576528	0.286985
H118	H	0.933964	-0.076528	0.786985
Br119	Br	0.857781	-0.609912	0.259640
Br120	Br	1.357781	-0.109912	0.759640
H121	H	1.225602	-0.352709	0.677839
H122	H	1.725602	0.147291	1.177839
Br123	Br	1.252906	-0.319150	0.908437
Br124	Br	1.752906	0.180850	1.408437
Br125	Br	1.252939	-0.319078	1.101672
Br126	Br	1.752939	0.180922	1.601672
H127	H	1.043381	-0.576416	0.930626
H128	H	1.543381	-0.076416	1.430626
H129	H	1.043378	-0.576455	0.826507
H130	H	1.543378	-0.076455	1.326507
H131	H	1.043345	-0.576502	0.677775
H132	H	1.543345	-0.076502	1.177775
Br133	Br	0.857922	-0.319481	0.496733
Br134	Br	1.357922	0.180519	0.996733
