data_functionalizedCrystal
_audit_creation_method	'MofGen! by Chris Wilmer'
_symmetry_space_group_name_H-M	'P1'
_symmetry_Int_Tables_number	1
_symmetry_cell_setting	triclinic
loop_
_symmetry_equiv_pos_as_xyz
  x,y,z
_cell_length_a	21.606444
_cell_length_b	21.606444
_cell_length_c	21.606444
_cell_angle_alpha	60.001327
_cell_angle_beta	89.999087
_cell_angle_gamma	60.011779
loop_
_atom_site_label
_atom_site_type_symbol
_atom_site_fract_x
_atom_site_fract_y
_atom_site_fract_z
Zr1	Zr	0.596389	0.677367	-0.081186
O2	O	0.497601	0.806457	-0.179995
O3	O	0.626651	0.548271	-0.050903
O4	O	0.626686	0.677364	-0.180010
O5	O	0.497564	0.677368	0.050961
O6	O	0.728536	0.677368	-0.180014
O7	O	0.497566	0.677364	-0.050888
O8	O	0.728474	0.446444	0.050934
O9	O	0.497626	0.908292	-0.179987
O10	O	0.715594	0.601375	-0.037982
O11	O	0.639582	0.601375	0.038030
O12	O	0.639623	0.753366	-0.113976
O13	O	0.563612	0.753366	-0.037964
Zr14	Zr	0.758824	0.677381	0.081246
Zr15	Zr	0.758828	0.677374	-0.081192
Zr16	Zr	0.596386	0.677374	0.081252
Zr17	Zr	0.596429	0.839782	-0.081173
Zr18	Zr	0.758784	0.514965	0.081233
O19	O	0.728562	0.806477	0.050964
O20	O	0.728567	0.806467	-0.180003
O21	O	0.497595	0.806467	0.050972
O22	O	0.857613	0.548290	0.180055
O23	O	0.857618	0.548281	-0.050912
O24	O	0.626646	0.548281	0.180063
O25	O	0.857650	0.677379	-0.050901
O26	O	0.728527	0.677384	0.180070
O27	O	0.626678	0.677379	0.180074
O28	O	0.857647	0.677384	0.050948
O29	O	0.626743	0.908298	-0.179991
O30	O	0.728471	0.446450	0.180051
O31	O	0.857588	0.446455	0.180047
O32	O	0.857591	0.446450	0.050930
O33	O	0.497623	0.908298	-0.050870
O34	O	0.626740	0.908303	-0.050874
O35	O	0.715590	0.601382	0.114037
O36	O	0.791601	0.601382	0.038025
O37	O	0.715631	0.753372	-0.037970
O38	O	0.639620	0.753372	0.038042
C39	C	0.677557	0.474217	0.000014
C40	C	0.677540	0.405267	0.000008
C41	C	0.733759	-0.074196	0.056155
C42	C	0.733743	-0.009388	0.056147
C43	C	0.677637	0.079096	0.000039
C44	C	0.621549	0.102773	-0.056069
C45	C	0.621569	0.037965	-0.056064
C46	C	0.621468	0.364135	-0.056093
C47	C	0.621451	0.428943	-0.056092
C48	C	0.733641	0.316782	0.056119
C49	C	0.733661	0.251974	0.056124
C50	C	0.677576	0.275656	0.000014
C51	C	0.677595	0.205383	0.000022
C52	C	0.677614	0.149368	0.000033
C53	C	0.474421	0.677365	0.000037
C54	C	0.405461	0.677362	0.000040
C55	C	0.412718	0.598025	0.039706
C56	C	0.347920	0.598027	0.039706
C57	C	0.275867	0.677368	0.000036
C58	C	0.268613	0.756711	-0.039630
C59	C	0.333409	0.756707	-0.039626
C60	C	0.007294	0.756726	-0.039647
C61	C	-0.057504	0.756723	-0.039650
C62	C	0.021806	0.598046	0.039685
C63	C	0.086602	0.598043	0.039689
C64	C	0.079342	0.677385	0.000026
C65	C	0.149603	0.677382	0.000027
C66	C	0.205607	0.677372	0.000031
C67	C	0.880793	0.677382	0.000023
C68	C	0.949752	0.677385	0.000020
C69	C	0.677611	0.677365	-0.203156
C70	C	0.677613	0.677362	-0.272115
C71	C	0.677657	0.880531	0.000046
C72	C	0.677673	0.949480	0.000052
C73	C	0.637947	0.756722	-0.735094
C74	C	0.637945	0.756720	-0.670296
C75	C	0.677602	0.677380	-0.598231
C76	C	0.717257	0.598037	-0.590963
C77	C	0.717253	0.598040	-0.655760
C78	C	0.717269	0.598021	-0.329645
C79	C	0.717271	0.598024	-0.264847
C80	C	0.637961	0.756701	-0.344181
C81	C	0.637958	0.756705	-0.408978
C82	C	0.677609	0.677362	-0.401705
C83	C	0.677609	0.677366	-0.471966
C84	C	0.677607	0.677375	-0.527970
C85	C	0.677602	0.677382	0.203216
C86	C	0.677600	0.677385	0.272175
C87	C	0.880743	0.474225	0.000006
C88	C	0.949685	0.405279	-0.000002
C89	C	0.677552	0.474225	0.203200
C90	C	0.677534	0.405279	0.272153
C91	C	0.880738	0.474234	0.203192
C92	C	0.949679	0.405290	0.272144
C93	C	0.474475	0.880513	-0.203132
C94	C	0.405534	0.949457	-0.272083
C95	C	0.474471	0.880522	0.000054
C96	C	0.405528	0.949469	0.000062
C97	C	0.677661	0.880522	-0.203139
C98	C	0.677680	0.949469	-0.272093
C99	C	0.942386	0.372897	-0.039687
C100	C	1.007159	0.308123	-0.039710
C101	C	1.079230	0.275728	-0.000042
C102	C	1.086527	0.308116	0.039644
C103	C	1.021755	0.372893	0.039662
C104	C	0.717200	0.372904	0.344216
C105	C	0.717180	0.308130	0.409012
C106	C	0.677497	0.275728	0.401743
C107	C	0.637826	0.308109	0.329673
C108	C	0.637842	0.372886	0.264879
C109	C	1.021738	0.372914	0.264846
C110	C	1.086522	0.308143	0.329627
C111	C	1.079244	0.275745	0.401705
C112	C	1.007178	0.308128	0.409000
C113	C	0.942396	0.372902	0.344220
C114	C	0.333475	0.981842	-0.264786
C115	C	0.268692	1.046633	-0.329567
C116	C	0.275969	1.079034	-0.401645
C117	C	0.348036	1.046646	-0.408940
C118	C	0.412818	0.981861	-0.344160
C119	C	0.412827	0.981857	0.039740
C120	C	0.348055	1.046649	0.039745
C121	C	0.275984	1.079047	0.000076
C122	C	0.268686	1.046656	-0.039608
C123	C	0.333458	0.981869	-0.039617
C124	C	0.717370	0.981850	-0.264800
C125	C	0.717402	1.046625	-0.329583
C126	C	0.677739	1.079020	-0.401659
C127	C	0.638047	1.046632	-0.408951
C128	C	0.638020	0.981855	-0.344168
H129	H	0.779443	-0.146242	0.101848
H130	H	0.749723	1.072988	-0.323631
H131	H	0.605755	1.073019	-0.467643
Br132	Br	0.771066	0.416860	0.354102
H133	H	0.605543	0.399237	0.206204
H134	H	1.132000	0.223002	0.454447
Br135	Br	0.184387	0.490363	0.093524
Br136	Br	0.771205	0.937900	-0.166991
H137	H	1.027678	0.399282	0.206163
Br138	Br	0.677783	1.166935	-0.489572
Br139	Br	0.809861	-0.041527	0.132291
Br140	Br	0.809802	0.131889	0.132278
Br141	Br	1.184317	0.264206	0.319708
H142	H	0.605672	0.821306	-0.350097
H143	H	1.001202	0.281761	-0.072027
Br144	Br	0.357773	0.490351	0.093552
Br145	Br	0.771025	0.264197	0.506812
Br146	Br	0.844603	0.416831	0.354138
Br147	Br	0.031657	0.490364	0.093517
Br148	Br	0.510630	0.937906	0.093582
H149	H	0.605656	0.821324	-0.676221
H150	H	0.677490	0.222983	0.454509
Br151	Br	0.584142	0.937923	-0.354080
H152	H	0.353952	1.073036	-0.467633
H153	H	1.027709	0.399249	0.071983
H154	H	0.471490	0.955494	-0.350111
H155	H	0.779311	0.297505	0.101805
H156	H	0.605517	0.281717	0.323765
H157	H	1.001264	0.281741	0.467695
Br158	Br	0.323578	0.937881	-0.166975
H159	H	0.575758	0.500995	-0.101782
Br160	Br	0.545346	0.396283	-0.132237
H161	H	0.749565	0.533412	-0.206166
Br162	Br	0.170897	1.090571	-0.319648
Br163	Br	0.188042	1.166958	-0.489554
H164	H	1.131965	0.222981	-0.000062
H165	H	-0.116174	0.821336	-0.071955
H166	H	0.354011	1.073011	0.072063
H167	H	0.749542	0.533436	-0.649836
H168	H	0.223248	1.131799	0.000089
H169	H	0.575870	0.174823	-0.101756
H170	H	0.001373	0.821332	-0.071957
Br171	Br	0.170869	1.090631	-0.093439
Br172	Br	0.323538	0.937918	-0.093468
H173	H	0.575900	0.057249	-0.101750
H174	H	0.209941	0.821311	-0.071926
Br175	Br	0.510501	0.490343	0.093539
Br176	Br	0.323560	0.864383	-0.093454
H177	H	0.605668	0.821312	-0.467655
Br178	Br	0.584131	0.864405	-0.832894
Br179	Br	1.184344	0.264138	0.093477
Br180	Br	0.771070	0.490359	-0.493160
Br181	Br	0.771080	0.490342	-0.319767
H182	H	0.883708	0.399273	-0.071998
