data_functionalizedCrystal
_audit_creation_method	'MofGen! by Chris Wilmer'
_symmetry_space_group_name_H-M	'P1'
_symmetry_Int_Tables_number	1
_symmetry_cell_setting	triclinic
loop_
_symmetry_equiv_pos_as_xyz
  x,y,z
_cell_length_a	13.897449
_cell_length_b	17.077402
_cell_length_c	17.077396
_cell_angle_alpha	90.029784
_cell_angle_beta	90.018441
_cell_angle_gamma	90.024163
loop_
_atom_site_label
_atom_site_type_symbol
_atom_site_fract_x
_atom_site_fract_y
_atom_site_fract_z
Zn1	Zn	1.474646	-0.312481	0.443813
Zn2	Zn	1.474532	-0.443756	0.312544
Zn3	Zn	1.313342	-0.312511	0.312564
Zn4	Zn	1.313302	-0.443712	0.443770
O5	O	1.393955	-0.378115	0.378173
O6	O	1.609612	-0.329901	0.426410
O7	O	1.453118	-0.426377	0.202700
O8	O	1.334803	-0.202660	0.330000
O9	O	1.609529	-0.426348	0.329967
O10	O	1.453313	-0.202638	0.426429
O11	O	1.334692	-0.329952	0.202714
O12	O	1.178355	-0.329909	0.329959
O13	O	1.334736	-0.426273	0.553623
O14	O	1.178326	-0.426302	0.426356
O15	O	1.453275	-0.329858	0.553655
O16	O	1.453080	-0.553597	0.329926
O17	O	1.334625	-0.553565	0.426337
C18	C	1.393862	-0.582063	0.378142
C19	C	1.393911	-0.669313	0.378155
C20	C	1.143341	-0.378105	0.378155
C21	C	1.036127	-0.378119	0.378166
C22	C	1.455653	-0.710294	0.328007
C23	C	1.455700	-0.792274	0.328027
C24	C	1.393999	-0.833272	0.378191
C25	C	1.332254	-0.792286	0.428344
C26	C	1.332213	-0.710307	0.428328
C27	C	1.332344	-0.963156	0.428374
C28	C	1.332384	-1.045140	0.428390
C29	C	1.455831	-1.045123	0.328074
C30	C	1.455790	-0.963144	0.328057
C31	C	1.394043	-0.922163	0.378209
C32	C	0.839832	-0.378122	0.378187
C33	C	0.949065	-0.378118	0.378173
C34	C	1.645548	-0.378126	0.378191
C35	C	1.752762	-0.378131	0.378199
C36	C	1.394014	-0.378057	0.582917
C37	C	1.394039	-0.378033	0.670167
C38	C	1.394075	-0.173371	0.378222
C39	C	1.394126	-0.086121	0.378242
C40	C	1.393953	-0.378116	0.174225
C41	C	1.394115	-0.377920	0.086976
C42	C	1.455764	-0.327825	0.711175
C43	C	1.455776	-0.327799	0.793156
C44	C	1.394066	-0.377985	0.834127
C45	C	1.332334	-0.428195	0.793113
C46	C	1.332318	-0.428216	0.711134
C47	C	1.332373	-0.428147	0.963983
C48	C	1.332390	-0.428127	1.045968
C49	C	1.455830	-0.327731	1.046005
C50	C	1.455814	-0.327752	0.964026
C51	C	1.394083	-0.377963	0.923018
H52	H	1.505976	-0.825637	0.287192
N53	N	1.522392	-0.273566	1.090242
H54	H	1.507437	-0.217485	1.075983
H55	H	1.591280	-0.285826	1.075975
H56	H	1.282138	-0.468991	1.079324
N57	N	1.522331	-0.273704	0.666986
H58	H	1.507390	-0.217611	0.681259
H59	H	1.512925	-0.281408	0.608845
H60	H	1.506026	-0.929764	0.287206
N61	N	1.265610	-0.666110	0.482413
H62	H	1.220916	-0.632149	0.450473
H63	H	1.304833	-0.632090	0.518804
H64	H	1.506041	-0.286917	0.826541
N65	N	1.265751	-0.482370	0.666895
H66	H	1.221065	-0.450472	0.632886
H67	H	1.226723	-0.514152	0.705333
H68	H	1.506069	-0.286891	0.930669
N69	N	1.265788	-0.482298	0.919751
H70	H	1.226699	-0.514089	0.958144
H71	H	1.305025	-0.518635	0.885733
N72	N	1.265702	-0.836497	0.482452
H73	H	1.304890	-0.870460	0.518864
H74	H	1.221052	-0.870515	0.450468
H75	H	1.282085	-0.469054	0.826478
H76	H	1.506111	-1.078494	0.287240
H77	H	1.282066	-0.929791	0.469216
N78	N	1.522201	-0.666074	0.273903
H79	H	1.507271	-0.680392	0.217808
H80	H	1.591092	-0.680302	0.286218
N81	N	1.265841	-1.089362	0.482496
H82	H	1.226724	-1.050963	0.514270
H83	H	1.305105	-1.123324	0.518851
