data_functionalizedCrystal
_audit_creation_method	'MofGen! by Chris Wilmer'
_symmetry_space_group_name_H-M	'P1'
_symmetry_Int_Tables_number	1
_symmetry_cell_setting	triclinic
loop_
_symmetry_equiv_pos_as_xyz
  x,y,z
_cell_length_a	12.827893
_cell_length_b	18.101395
_cell_length_c	12.827885
_cell_angle_alpha	89.967625
_cell_angle_beta	89.980728
_cell_angle_gamma	90.031075
loop_
_atom_site_label
_atom_site_type_symbol
_atom_site_fract_x
_atom_site_fract_y
_atom_site_fract_z
Zn1	Zn	1.597556	-0.294794	-0.590830
Zn2	Zn	1.597402	-0.418654	-0.416082
Zn3	Zn	1.422797	-0.294830	-0.416103
Zn4	Zn	1.422734	-0.418598	-0.590782
O5	O	1.510122	-0.356719	-0.503449
O6	O	1.743771	-0.311233	-0.567660
O7	O	1.574202	-0.402266	-0.269849
O8	O	1.446070	-0.191193	-0.439310
O9	O	1.743658	-0.402231	-0.439274
O10	O	1.574464	-0.191166	-0.567681
O11	O	1.445920	-0.311294	-0.269865
O12	O	1.276553	-0.311241	-0.439264
O13	O	1.445963	-0.402137	-0.737025
O14	O	1.276507	-0.402172	-0.567600
O15	O	1.574403	-0.311179	-0.737060
O16	O	1.574141	-0.522279	-0.439228
O17	O	1.445814	-0.522239	-0.567579
C18	C	1.238612	-0.356705	-0.503430
C19	C	1.122459	-0.356717	-0.503446
C20	C	1.070679	-0.401783	-0.566852
C21	C	0.950629	-0.401796	-0.566871
C22	C	1.509982	-0.549130	-0.503419
C23	C	1.510018	-0.631444	-0.503440
C24	C	1.510247	-0.930535	-0.503497
C25	C	1.429695	-0.899215	-0.584452
C26	C	1.429312	-0.813597	-0.584199
C27	C	1.510134	-0.782152	-0.503470
C28	C	1.480314	-0.813311	-0.393335
C29	C	1.479795	-0.898956	-0.393820
C30	C	1.620796	-0.898877	-0.531706
C31	C	1.620146	-0.813226	-0.534121
C32	C	1.510071	-0.698293	-0.503448
C33	C	1.510307	-1.014394	-0.503511
C34	C	1.782692	-0.356734	-0.503470
C35	C	1.898845	-0.356740	-0.503479
C36	C	1.510193	-0.356648	-0.776020
C37	C	1.510224	-0.356618	-0.892173
C38	C	1.510291	-0.163557	-0.503503
C39	C	1.510363	-0.081243	-0.503526
C40	C	1.573787	-0.311600	-0.943975
C41	C	1.573820	-0.311568	-1.064025
C42	C	1.510111	-0.356737	-0.231940
C43	C	1.510284	-0.356558	-0.115787
H44	H	1.448166	-0.919757	-0.666380
O45	O	1.438167	-0.407640	-0.951146
H46	H	1.356137	-0.394947	-0.930259
O47	O	1.129670	-0.452864	-0.638773
H48	H	1.214705	-0.444832	-0.627481
O49	O	1.438174	-0.407612	-1.056806
H50	H	1.484928	-0.445277	-1.007061
O51	O	1.649957	-0.786237	-0.641475
H52	H	1.586694	-0.750836	-0.672877
O53	O	0.891699	-0.452968	-0.638734
H54	H	0.912631	-0.440394	-0.720813
O55	O	1.554137	-0.926400	-0.311194
H56	H	1.615859	-0.960393	-0.348242
H57	H	1.077913	-0.318141	-0.449179
H58	H	0.943368	-0.318158	-0.449188
O59	O	1.453943	-0.785679	-0.692386
H60	H	1.466241	-0.833350	-0.745358
H61	H	1.683338	-0.791817	-0.479455
O62	O	1.321805	-0.927794	-0.560014
H63	H	1.325304	-0.964207	-0.490458
H64	H	1.347370	-0.793175	-0.565514
H65	H	1.398984	-0.919000	-0.369923
H66	H	1.537139	-0.792944	-0.331373
O67	O	1.656804	-0.927401	-0.636280
H68	H	1.730669	-0.958518	-0.626324
H69	H	1.400359	-0.791927	-0.369010
O70	O	1.700248	-0.925876	-0.453677
H71	H	1.677947	-0.906960	-0.374461
O72	O	1.645853	-0.260579	-0.885009
H73	H	1.634526	-0.268617	-0.799970
H74	H	1.628242	-0.273028	-1.108574
