data_functionalizedCrystal
_audit_creation_method	'MofGen! by Chris Wilmer'
_symmetry_space_group_name_H-M	'P1'
_symmetry_Int_Tables_number	1
_symmetry_cell_setting	triclinic
loop_
_symmetry_equiv_pos_as_xyz
  x,y,z
_cell_length_a	12.996460
_cell_length_b	11.792241
_cell_length_c	11.792241
_cell_angle_alpha	95.806584
_cell_angle_beta	90.006284
_cell_angle_gamma	89.998631
loop_
_atom_site_label
_atom_site_type_symbol
_atom_site_fract_x
_atom_site_fract_y
_atom_site_fract_z
O1	O	0.085467	-1.506910	0.155570
O2	O	0.585467	-1.006910	0.655570
O3	O	0.085491	-1.176569	0.171603
O4	O	0.585491	-0.676569	0.671603
O5	O	0.085472	-1.349756	-0.001584
O6	O	0.585472	-0.849756	0.498416
O7	O	0.085487	-1.333723	0.328757
O8	O	0.585487	-0.833723	0.828757
O9	O	-0.085662	-1.349738	-0.001594
O10	O	0.414338	-0.849738	0.498406
O11	O	-0.085642	-1.176551	0.171593
O12	O	0.414358	-0.676551	0.671593
O13	O	-0.085666	-1.506892	0.155560
O14	O	0.414334	-1.006892	0.655560
Cu15	Cu	-0.101280	-1.341720	0.163576
Cu16	Cu	0.398720	-0.841720	0.663576
Cu17	Cu	0.101105	-1.341741	0.163587
Cu18	Cu	0.601105	-0.841741	0.663587
O19	O	-0.085647	-1.333705	0.328747
O20	O	0.414353	-0.833705	0.828747
C21	C	-0.000073	-1.134269	0.170591
C22	C	0.499927	-0.634269	0.670591
C23	C	-0.000064	-1.008255	0.167576
C24	C	0.499936	-0.508255	0.667576
C25	C	-0.000095	-1.348740	-0.043880
C26	C	0.499905	-0.848740	0.456120
C27	C	-0.000094	-1.345726	-0.169894
C28	C	0.499906	-0.845726	0.330106
N29	N	-0.243627	-1.341713	0.163567
N30	N	0.256373	-0.841713	0.663567
C31	C	-0.663442	-1.341740	0.163588
C32	C	-0.163442	-0.841740	0.663588
C33	C	-0.546637	-1.341729	0.163586
C34	C	-0.046637	-0.841729	0.663586
C35	C	-0.453538	-1.341727	0.163579
C36	C	0.046462	-0.841727	0.663579
C37	C	-0.336726	-1.341715	0.163575
C38	C	0.163274	-0.841715	0.663575
N39	N	0.243452	-1.341757	0.163587
N40	N	0.743452	-0.841757	0.663587
C41	C	-0.000100	-1.549192	0.156572
C42	C	0.499900	-1.049192	0.656572
C43	C	-0.000103	-1.675206	0.159587
C44	C	0.499897	-1.175206	0.659587
C45	C	-0.000093	-0.777543	0.162034
C46	C	0.499907	-0.277543	0.662034
C47	C	-0.000077	-0.905928	0.165113
C48	C	0.499923	-0.405928	0.665113
C49	C	-0.000076	-1.340183	-0.400606
C50	C	0.499924	-0.840183	0.099394
C51	C	-0.000086	-1.343262	-0.272221
C52	C	0.499914	-0.843262	0.227779
C53	C	-0.000078	-1.334721	0.371043
C54	C	0.499922	-0.834721	0.871043
C55	C	-0.000072	-1.337736	0.497057
C56	C	0.499928	-0.837736	0.997057
