data_functionalizedCrystal
_audit_creation_method	'MofGen! by Chris Wilmer'
_symmetry_space_group_name_H-M	'P1'
_symmetry_Int_Tables_number	1
_symmetry_cell_setting	triclinic
loop_
_symmetry_equiv_pos_as_xyz
  x,y,z
_cell_length_a	13.897449
_cell_length_b	16.625545
_cell_length_c	16.625539
_cell_angle_alpha	90.028234
_cell_angle_beta	90.024767
_cell_angle_gamma	90.023964
loop_
_atom_site_label
_atom_site_type_symbol
_atom_site_fract_x
_atom_site_fract_y
_atom_site_fract_z
Zn1	Zn	-1.474648	0.321002	-0.456000
Zn2	Zn	-1.474528	0.455845	-0.321167
Zn3	Zn	-1.313341	0.321030	-0.321171
Zn4	Zn	-1.313301	0.455796	-0.455947
O5	O	-1.393954	0.388418	-0.388571
O6	O	-1.609613	0.338898	-0.438135
O7	O	-1.453112	0.437994	-0.208335
O8	O	-1.334805	0.208194	-0.339080
O9	O	-1.609525	0.437966	-0.339074
O10	O	-1.453317	0.208173	-0.438138
O11	O	-1.334689	0.338945	-0.208338
O12	O	-1.178354	0.338898	-0.339028
O13	O	-1.334737	0.437883	-0.568787
O14	O	-1.178324	0.437910	-0.438048
O15	O	-1.453278	0.338850	-0.568826
O16	O	-1.453073	0.568671	-0.339023
O17	O	-1.334621	0.568635	-0.438045
C18	C	-1.143340	0.388402	-0.388534
C19	C	-1.036126	0.388415	-0.388536
C20	C	-0.949056	0.388417	-0.388546
C21	C	-0.839824	0.388421	-0.388567
C22	C	-1.393856	0.597909	-0.388546
C23	C	-1.393902	0.687530	-0.388561
C24	C	-1.394017	0.388358	-0.598880
C25	C	-1.394044	0.388332	-0.688502
C26	C	-0.645547	0.388431	-0.388600
C27	C	-0.752761	0.388428	-0.388587
C28	C	-1.394060	1.015706	-0.388658
C29	C	-1.394013	0.924397	-0.388633
C30	C	-1.393980	0.851621	-0.388609
C31	C	-1.393935	0.760306	-0.388585
C32	C	-1.394071	1.178109	-0.388625
C33	C	-1.394099	1.088488	-0.388671
C34	C	-1.394088	0.388242	-1.016677
C35	C	-1.394073	0.388270	-0.925369
C36	C	-1.394066	0.388288	-0.852592
C37	C	-1.394050	0.388314	-0.761278
C38	C	-1.393947	0.388420	-0.179081
C39	C	-1.394107	0.388218	-0.089460
