data_functionalizedCrystal
_audit_creation_method	'MofGen! by Chris Wilmer'
_symmetry_space_group_name_H-M	'P1'
_symmetry_Int_Tables_number	1
_symmetry_cell_setting	triclinic
loop_
_symmetry_equiv_pos_as_xyz
  x,y,z
_cell_length_a	15.944499
_cell_length_b	15.944551
_cell_length_c	7.540329
_cell_angle_alpha	89.995457
_cell_angle_beta	89.994450
_cell_angle_gamma	83.488174
loop_
_atom_site_label
_atom_site_type_symbol
_atom_site_fract_x
_atom_site_fract_y
_atom_site_fract_z
O1	O	1.114549	0.108124	-0.147593
O2	O	0.869994	0.121526	-0.147573
O3	O	0.998950	-0.007451	-0.147567
O4	O	0.985593	0.237101	-0.147598
O5	O	0.998942	-0.007453	0.147398
O6	O	0.869986	0.121524	0.147392
O7	O	1.114542	0.108122	0.147373
Cu8	Cu	0.992263	0.114823	0.174315
Cu9	Cu	0.992272	0.114825	-0.174516
O10	O	0.985586	0.237099	0.147367
C11	C	0.838695	0.120976	-0.000088
C12	C	0.745447	0.119331	-0.000080
C13	C	0.453911	0.194263	-0.000116
C14	C	0.514944	0.155313	-0.145548
C15	C	0.409810	0.113355	-0.000121
C16	C	0.514922	0.155289	0.145265
C17	C	0.574719	0.116296	-0.000098
C18	C	0.469615	0.074382	-0.145672
C19	C	0.469587	0.074370	0.145271
C20	C	0.530603	0.035360	-0.000196
C21	C	0.314810	0.111663	-0.000135
C22	C	0.669718	0.117981	-0.000096
C23	C	0.998392	-0.038746	-0.000085
C24	C	0.996729	-0.131992	-0.000083
C25	C	0.912823	-0.346833	-0.000101
C26	C	0.951782	-0.407858	0.145331
C27	C	0.993722	-0.302717	-0.000097
C28	C	0.951809	-0.407840	-0.145481
C29	C	0.990811	-0.467629	-0.000117
C30	C	1.032704	-0.362514	0.145456
C31	C	1.032719	-0.362490	-0.145487
C32	C	1.071737	-0.423497	-0.000019
C33	C	0.995397	-0.207715	-0.000083
C34	C	0.989143	-0.562630	-0.000118
C35	C	1.145840	0.108672	-0.000117
C36	C	1.239089	0.110317	-0.000136
C37	C	0.986144	0.268394	-0.000120
C38	C	0.987806	0.361640	-0.000133
N39	N	0.992263	0.114821	0.419663
N40	N	0.992279	0.114820	-0.419864
H41	H	0.449640	0.040193	-0.268761
C42	C	0.905570	-0.434966	-0.311579
N43	N	0.870737	-0.455392	-0.436679
C44	C	0.542107	0.201550	-0.311642
N45	N	0.562567	0.236382	-0.436734
C46	C	0.408877	0.284971	-0.000323
N47	N	0.374955	0.353290	-0.000489
H48	H	1.066910	-0.342365	-0.268451
H49	H	0.563780	-0.031846	-0.000265
H50	H	0.449467	0.040176	0.268234
C51	C	1.078883	-0.335520	0.311746
N52	N	1.113661	-0.315185	0.436998
C53	C	0.822110	-0.301812	0.000105
N54	N	0.753787	-0.267899	0.000271
C55	C	1.162530	-0.468319	0.000089
N56	N	1.230914	-0.502081	0.000181
H57	H	0.917562	-0.427961	0.268288
H58	H	0.534994	0.189523	0.268211
