data_functionalizedCrystal
_audit_creation_method	'MofGen! by Chris Wilmer'
_symmetry_space_group_name_H-M	'P1'
_symmetry_Int_Tables_number	1
_symmetry_cell_setting	triclinic
loop_
_symmetry_equiv_pos_as_xyz
  x,y,z
_cell_length_a	16.176319
_cell_length_b	17.699083
_cell_length_c	17.699083
_cell_angle_alpha	96.716985
_cell_angle_beta	89.992304
_cell_angle_gamma	90.001389
loop_
_atom_site_label
_atom_site_type_symbol
_atom_site_fract_x
_atom_site_fract_y
_atom_site_fract_z
O1	O	-0.068632	-1.004079	0.095713
O2	O	-0.068660	-0.783700	0.108166
O3	O	-0.068638	-0.900116	-0.008250
O4	O	-0.068654	-0.887663	0.212129
O5	O	0.068855	-0.900100	-0.008257
O6	O	0.068834	-0.783684	0.108158
O7	O	0.068861	-1.004063	0.095706
Cu8	Cu	0.081401	-0.893872	0.101931
Cu9	Cu	-0.081200	-0.893891	0.101940
O10	O	0.068839	-0.887647	0.212121
C11	C	0.000084	-0.755495	0.107716
C12	C	0.000073	-0.671477	0.106377
N13	N	0.195767	-0.893864	0.101925
N14	N	-0.195565	-0.893905	0.101941
C15	C	0.000109	-0.899662	-0.036451
C16	C	0.000109	-0.898323	-0.120469
C17	C	0.239040	-0.945429	0.050397
C18	C	0.325588	-0.945432	0.050396
C19	C	0.368859	-0.893875	0.101927
C20	C	0.325579	-0.842305	0.153457
C21	C	0.239034	-0.842299	0.153454
C22	C	0.674608	-0.842331	0.153472
C23	C	0.761159	-0.842344	0.153473
C24	C	0.761161	-0.945465	0.050414
C25	C	0.674616	-0.945458	0.050410
C26	C	0.631344	-0.893886	0.101937
C27	C	0.537499	-0.893882	0.101937
C28	C	0.462702	-0.893883	0.101932
C29	C	0.000116	-1.032268	0.096156
C30	C	0.000121	-1.116286	0.097494
C31	C	0.000069	-0.622856	0.174710
C32	C	0.000079	-0.543913	0.173448
C33	C	0.000089	-0.513592	0.103852
C34	C	0.000096	-0.562219	0.035513
C35	C	0.000091	-0.641161	0.036776
C36	C	0.000117	-0.243856	0.030418
C37	C	0.000120	-0.164908	0.029160
C38	C	0.000105	-0.146608	0.167090
C39	C	0.000100	-0.225550	0.168353
C40	C	0.000112	-0.274170	0.100015
C41	C	0.000102	-0.359769	0.101384
C42	C	0.000093	-0.427995	0.102481
C43	C	0.000119	-0.966656	-0.169090
C44	C	0.000111	-0.965394	-0.248033
C45	C	0.000100	-0.895798	-0.278354
C46	C	0.000088	-0.827459	-0.229727
C47	C	0.000089	-0.828722	-0.150785
C48	C	0.000080	-0.822364	-0.548090
C49	C	0.000081	-0.821106	-0.627038
C50	C	0.000102	-0.959036	-0.645338
C51	C	0.000104	-0.960299	-0.566396
C52	C	0.000087	-0.891961	-0.517776
C53	C	0.000094	-0.893330	-0.432177
C54	C	0.000099	-0.894427	-0.363951
C55	C	0.000091	-0.888102	0.240322
C56	C	0.000085	-0.889440	0.324340
H57	H	0.203814	-0.987416	0.008438
H58	H	0.000074	-0.764429	-0.651721
F59	F	0.000061	-0.749632	-0.496354
F60	F	0.807221	-1.000351	-0.004429
H61	H	0.000128	-0.140225	-0.027517
F62	F	0.000099	-0.692907	-0.035954
F63	F	0.000129	-0.295592	-0.042314
H64	H	0.000116	-0.537526	-0.021154
H65	H	0.360816	-0.800323	0.195413
H66	H	0.639387	-0.987444	0.008451
F67	F	0.807211	-0.787466	0.208321
F68	F	0.628561	-0.787447	0.208312
F69	F	0.192980	-0.787414	0.208295
F70	F	0.000138	-1.040732	-0.136828
F71	F	0.000123	-1.038124	-0.299776
F72	F	0.000115	-1.034373	-0.534131
H73	H	0.000060	-0.647537	0.231384
F74	F	0.000117	-1.031768	-0.697089
H75	H	0.000075	-0.504328	0.229092
F76	F	0.000067	-0.753389	-0.261998
H77	H	0.000089	-0.250232	0.225025
H78	H	0.000081	-0.773078	-0.111198
H79	H	0.360821	-0.987419	0.008438
H80	H	0.000100	-0.107012	0.222734
