data_functionalizedCrystal
_audit_creation_method	'MofGen! by Chris Wilmer'
_symmetry_space_group_name_H-M	'P1'
_symmetry_Int_Tables_number	1
_symmetry_cell_setting	triclinic
loop_
_symmetry_equiv_pos_as_xyz
  x,y,z
_cell_length_a	25.639242
_cell_length_b	25.639239
_cell_length_c	12.759387
_cell_angle_alpha	89.963582
_cell_angle_beta	89.968335
_cell_angle_gamma	90.034213
loop_
_atom_site_label
_atom_site_type_symbol
_atom_site_fract_x
_atom_site_fract_y
_atom_site_fract_z
Zn1	Zn	0.799274	-0.208186	-0.594277
Zn2	Zn	0.799183	-0.295631	-0.418580
Zn3	Zn	0.711836	-0.208205	-0.418579
Zn4	Zn	0.711796	-0.295585	-0.594185
O5	O	0.755522	-0.251902	-0.506405
O6	O	0.872427	-0.219797	-0.571009
O7	O	0.787575	-0.284061	-0.271559
O8	O	0.723490	-0.135037	-0.441924
O9	O	0.872360	-0.284043	-0.441925
O10	O	0.787730	-0.135023	-0.571008
O11	O	0.723402	-0.219830	-0.271558
O12	O	0.638665	-0.219785	-0.441835
O13	O	0.723421	-0.283964	-0.741218
O14	O	0.638636	-0.283983	-0.570852
O15	O	0.787691	-0.219752	-0.741286
O16	O	0.787536	-0.368790	-0.441836
O17	O	0.723333	-0.368756	-0.570852
C18	C	0.619680	-0.251881	-0.506334
C19	C	0.561566	-0.251885	-0.506328
C20	C	0.201196	-0.285385	-0.573520
C21	C	0.146592	-0.285389	-0.573537
O22	O	0.118349	-0.313846	-0.630606
N23	N	0.119283	-0.251916	-0.506474
C24	C	0.146582	-0.218434	-0.439397
O25	O	0.118340	-0.189963	-0.382357
C26	C	0.201185	-0.218429	-0.439386
C27	C	0.228491	-0.251907	-0.506447
C28	C	0.228502	-0.318861	-0.640576
C29	C	0.283102	-0.318858	-0.640558
C30	C	0.310397	-0.285380	-0.573484
C31	C	0.283091	-0.251905	-0.506428
C32	C	0.228483	-0.184945	-0.372316
C33	C	0.283090	-0.184942	-0.372312
C34	C	0.310395	-0.218421	-0.439372
C35	C	0.364987	-0.218424	-0.439336
N36	N	0.392295	-0.251897	-0.506400
C37	C	0.365000	-0.285375	-0.573473
C38	C	0.031911	-0.218448	-0.439425
C39	C	-0.022691	-0.218455	-0.439430
C40	C	-0.022678	-0.285409	-0.573571
C41	C	0.031926	-0.285404	-0.573561
C42	C	0.059220	-0.251920	-0.506489
C43	C	0.479665	-0.285367	-0.573429
C44	C	0.534271	-0.285363	-0.573402
C45	C	0.534252	-0.218408	-0.439265
C46	C	0.479652	-0.218413	-0.439288
C47	C	0.452360	-0.251895	-0.506379
O48	O	0.393264	-0.189980	-0.382300
O49	O	0.393249	-0.313836	-0.630514
C50	C	0.755434	-0.387744	-0.506357
C51	C	0.755444	-0.445858	-0.506372
C52	C	0.789040	-0.806226	-0.439341
C53	C	0.789060	-0.860831	-0.439355
O54	O	0.817533	-0.889072	-0.382310
N55	N	0.755614	-0.888141	-0.506475
C56	C	0.722149	-0.860843	-0.573592
O57	O	0.693703	-0.889087	-0.630685
C58	C	0.722132	-0.806240	-0.573583
C59	C	0.755577	-0.778933	-0.506451
C60	C	0.822482	-0.778919	-0.372216
C61	C	0.822461	-0.724319	-0.372200
C62	C	0.788998	-0.697025	-0.439311
C63	C	0.755555	-0.724333	-0.506436
C64	C	0.688670	-0.778944	-0.640705
C65	C	0.688656	-0.724337	-0.640690
C66	C	0.722101	-0.697030	-0.573559
C67	C	0.722071	-0.642439	-0.573531
N68	N	0.755517	-0.615129	-0.506411
C69	C	0.788981	-0.642422	-0.439301
C70	C	0.722189	-0.975514	-0.573609
C71	C	0.722203	-1.030116	-0.573614
C72	C	0.789115	-1.030100	-0.439377
C73	C	0.789098	-0.975497	-0.439368
C74	C	0.755635	-0.948204	-0.506489
C75	C	0.788934	-0.527757	-0.439274
C76	C	0.788908	-0.473152	-0.439261
C77	C	0.721998	-0.473173	-0.573501
C78	C	0.722021	-0.527774	-0.573510
C79	C	0.755493	-0.555064	-0.506393
O80	O	0.693614	-0.614163	-0.630550
O81	O	0.817427	-0.614172	-0.382228
C82	C	0.891895	-0.251923	-0.506477
C83	C	0.950009	-0.251932	-0.506508
C84	C	0.755562	-0.251850	-0.780439
C85	C	0.755579	-0.251829	-0.897216
C86	C	0.755625	-0.115529	-0.506476
C87	C	0.755668	-0.057415	-0.506507
C88	C	0.822508	-0.184969	-0.897306
C89	C	0.855979	-0.151531	-0.952212
C90	C	0.855992	-0.151512	-1.061933
C91	C	0.822528	-0.184933	-1.116752
C92	C	0.789056	-0.218371	-1.061846
C93	C	0.789048	-0.218388	-0.952121
C94	C	0.722126	-0.285227	-1.061756
C95	C	0.722115	-0.285250	-0.952034
C96	C	0.688662	-0.318648	-1.116574
C97	C	0.655192	-0.352089	-1.061668
C98	C	0.655181	-0.352107	-0.951940
C99	C	0.688643	-0.318687	-0.897128
C100	C	0.755513	-0.251915	-0.233438
C101	C	0.755597	-0.251790	-0.116661
H102	H	-0.044911	-0.312667	-0.628190
Br103	Br	0.571325	-0.330803	-0.664414
H104	H	0.816191	-0.549971	-0.384623
H105	H	0.457418	-0.191154	-0.384680
Br106	Br	0.834299	-0.436095	-0.348146
Br107	Br	0.676588	-0.436121	-0.664579
Br108	Br	0.901408	-0.106123	-1.136453
H109	H	0.849696	-0.702088	-0.317539
Br110	Br	0.901377	-0.106161	-0.877812
H111	H	0.305330	-0.346118	-0.695167
H112	H	0.627918	-0.379331	-0.907242
Br113	Br	0.643241	-0.687300	-0.731793
Br114	Br	0.676619	-0.564835	-0.664592
Br115	Br	0.867905	-0.815950	-0.281127
Br116	Br	0.609777	-0.397437	-1.136068
H117	H	0.661433	-0.801168	-0.695366
H118	H	0.694935	-0.953295	-0.628264
H119	H	0.206260	-0.157685	-0.317705
H120	H	0.822537	-0.184910	-1.206093
Br121	Br	0.834488	-0.938443	-0.348257
Br122	Br	0.688677	-0.318622	-1.265483
H123	H	0.457451	-0.312629	-0.628063
Br124	Br	0.191469	-0.364301	-0.731618
H125	H	0.816364	-1.052332	-0.384736
Br126	Br	0.688634	-0.318713	-0.748219
H127	H	0.822505	-0.184986	-0.807964
H128	H	0.054154	-0.312664	-0.628169
Br129	Br	-0.059742	-0.173027	-0.348399
Br130	Br	0.068947	-0.173005	-0.348384
H131	H	0.305310	-0.157672	-0.317698
Br132	Br	0.676804	-1.067169	-0.664709
H133	H	0.556486	-0.191152	-0.384652
