data_functionalizedCrystal
_audit_creation_method	'MofGen! by Chris Wilmer'
_symmetry_space_group_name_H-M	'P1'
_symmetry_Int_Tables_number	1
_symmetry_cell_setting	triclinic
loop_
_symmetry_equiv_pos_as_xyz
  x,y,z
_cell_length_a	18.050589
_cell_length_b	14.908783
_cell_length_c	14.908308
_cell_angle_alpha	90.211273
_cell_angle_beta	86.730698
_cell_angle_gamma	93.319292
loop_
_atom_site_label
_atom_site_type_symbol
_atom_site_fract_x
_atom_site_fract_y
_atom_site_fract_z
Zn1	Zn	-0.259754	1.345271	0.587846
Zn2	Zn	0.073580	1.678604	0.921179
Zn3	Zn	0.406913	2.011937	1.254512
Zn4	Zn	-0.376406	1.353832	0.437493
Zn5	Zn	-0.043073	1.687165	0.770826
Zn6	Zn	0.290260	2.020498	1.104159
Zn7	Zn	-0.258950	1.203584	0.428817
Zn8	Zn	0.074383	1.536917	0.762150
Zn9	Zn	0.407717	1.870251	1.095483
Zn10	Zn	-0.390627	1.194855	0.579115
Zn11	Zn	-0.057294	1.528188	0.912449
Zn12	Zn	0.276040	1.861521	1.245782
O13	O	-0.321434	1.274385	0.508318
O14	O	0.011899	1.607719	0.841651
O15	O	0.345232	1.941052	1.174984
O16	O	-0.269613	1.472235	0.575185
O17	O	0.063721	1.805568	0.908519
O18	O	0.397054	2.138902	1.241852
O19	O	-0.354538	1.341137	0.310518
O20	O	-0.021204	1.674470	0.643852
O21	O	0.312129	2.007804	0.977185
O22	O	-0.155130	1.222450	0.449935
O23	O	0.178204	1.555783	0.783268
O24	O	0.511537	1.889116	1.116602
O25	O	-0.355317	1.478525	0.464722
O26	O	-0.021983	1.811858	0.798055
O27	O	0.311350	2.145191	1.131389
O28	O	-0.155720	1.326546	0.566773
O29	O	0.177613	1.659880	0.900106
O30	O	0.510947	1.993213	1.233439
O31	O	-0.268243	1.230751	0.304144
O32	O	0.065090	1.564084	0.637477
O33	O	0.398424	1.897418	0.970811
O34	O	-0.282032	1.076597	0.441470
O35	O	0.051301	1.409931	0.774803
O36	O	0.384634	1.743264	1.108136
O37	O	-0.379554	1.207572	0.706097
O38	O	-0.046221	1.540905	1.039430
O39	O	0.287112	1.874238	1.372764
O40	O	-0.378775	1.070184	0.551893
O41	O	-0.045442	1.403517	0.885227
O42	O	0.287892	1.736851	1.218560
O43	O	-0.283402	1.318082	0.712511
O44	O	0.049931	1.651415	1.045844
O45	O	0.383265	1.984748	1.379178
O46	O	-0.482220	1.332672	0.456257
O47	O	-0.148886	1.666006	0.789590
O48	O	0.184447	1.999339	1.122923
O49	O	-0.492668	1.215873	0.560306
O50	O	-0.159334	1.549206	0.893639
O51	O	0.173999	1.882540	1.226973
C52	C	-0.331860	1.040765	0.494793
C53	C	0.001473	1.374098	0.828127
C54	C	0.334806	1.707431	1.161460
C55	C	-0.336339	0.940820	0.489029
C56	C	-0.003006	1.274153	0.822362
C57	C	0.330327	1.607486	1.155695
C58	C	-0.255652	0.746451	0.593398
C59	C	0.077682	1.079784	0.926732
C60	C	0.411015	1.413117	1.260065
C61	C	-0.259858	0.652543	0.587985
C62	C	0.073476	0.985876	0.921318
C63	C	0.406809	1.319210	1.254652
C64	C	-0.348954	0.659095	0.472785
C65	C	-0.015620	0.992429	0.806118
C66	C	0.317713	1.325762	1.139452
C67	C	-0.344747	0.753003	0.478198
C68	C	-0.011414	1.086336	0.811532
C69	C	0.321919	1.419670	1.144865
C70	C	-0.298096	0.796677	0.538508
C71	C	0.035238	1.130010	0.871841
C72	C	0.368571	1.463344	1.205174
C73	C	-0.293894	0.890586	0.543925
C74	C	0.039439	1.223919	0.877258
C75	C	0.372773	1.557253	1.210592
C76	C	-0.382985	0.897137	0.428721
C77	C	-0.049652	1.230470	0.762055
C78	C	0.283681	1.563804	1.095388
C79	C	-0.387192	0.803230	0.423308
C80	C	-0.053858	1.136563	0.756641
C81	C	0.279475	1.469896	1.089975
C82	C	-0.514391	1.274278	0.508296
C83	C	-0.181057	1.607611	0.841630
C84	C	0.152276	1.940944	1.174963
C85	C	-0.596936	1.274312	0.508322
C86	C	-0.263603	1.607645	0.841655
C87	C	0.069731	1.940979	1.174989
C88	C	-0.802091	1.210857	0.564887
C89	C	-0.468758	1.544190	0.898220
C90	C	-0.135425	1.877523	1.231553
C91	C	-0.848392	1.193675	0.481574
C92	C	-0.515059	1.527008	0.814907
C93	C	-0.181726	1.860342	1.148241
C94	C	-0.748063	1.274400	0.508339
C95	C	-0.414729	1.607733	0.841672
C96	C	-0.081396	1.941066	1.175006
C97	C	-0.848842	1.291625	0.591664
C98	C	-0.515509	1.624958	0.924997
C99	C	-0.182175	1.958292	1.258330
C100	C	-0.894045	1.274482	0.508362
C101	C	-0.560712	1.607816	0.841696
C102	C	-0.227378	1.941149	1.175029
C103	C	-0.793276	1.257177	0.424980
C104	C	-0.459943	1.590511	0.758314
C105	C	-0.126610	1.923844	1.091647
C106	C	-0.793723	1.355162	0.535128
C107	C	-0.460389	1.688496	0.868461
C108	C	-0.127056	2.021829	1.201794
C109	C	-0.839997	1.338015	0.451760
C110	C	-0.506664	1.671349	0.785093
C111	C	-0.173330	2.004682	1.118427
C112	C	-0.663966	1.274350	0.508327
C113	C	-0.330633	1.607683	0.841660
C114	C	0.002700	1.941016	1.174993
C115	C	-0.978139	1.274533	0.508366
C116	C	-0.644806	1.607866	0.841699
C117	C	-0.311473	1.941200	1.175032
C118	C	-0.127724	1.274517	0.508360
C119	C	0.205609	1.607850	0.841693
C120	C	0.538942	1.941183	1.175027
C121	C	-0.045177	1.274573	0.508378
C122	C	0.288157	1.607906	0.841711
C123	C	0.621490	1.941239	1.175045
C124	C	-0.333154	1.260898	0.742841
C125	C	0.000179	1.594231	1.076174
C126	C	0.333512	1.927565	1.409508
C127	C	-0.338149	1.255151	0.842781
C128	C	-0.004815	1.588484	1.176114
C129	C	0.328518	1.921817	1.509447
C130	C	-0.310968	1.508918	0.521895
C131	C	0.022365	1.842251	0.855229
C132	C	0.355699	2.175585	1.188562
C133	C	-0.306508	1.608862	0.527681
C134	C	0.026825	1.942195	0.861015
C135	C	0.360159	2.275529	1.194348
C136	C	-0.309704	1.287872	0.274710
C137	C	0.023629	1.621205	0.608043
C138	C	0.356963	1.954539	0.941376
C139	C	-0.304493	1.293794	0.174780
C140	C	0.028841	1.627127	0.508114
C141	C	0.362174	1.960460	0.841447
C142	C	-0.247393	1.359422	1.037259
C143	C	0.085940	1.692755	1.370592
C144	C	0.419274	2.026089	1.703926
C145	C	-0.252083	1.354024	1.131161
C146	C	0.081250	1.687358	1.464495
C147	C	0.414584	2.020691	1.797828
C148	C	-0.352214	1.238954	1.124490
C149	C	-0.018881	1.572288	1.457823
C150	C	0.314452	1.905621	1.791157
C151	C	-0.347524	1.244352	1.030587
C152	C	-0.014191	1.577685	1.363921
C153	C	0.319142	1.911018	1.697254
C154	C	-0.295113	1.304588	0.986975
C155	C	0.038221	1.637922	1.320309
C156	C	0.371554	1.971255	1.653642
C157	C	-0.290427	1.309990	0.893071
C158	C	0.042907	1.643323	1.226405
C159	C	0.376240	1.976657	1.559738
C160	C	-0.390554	1.194916	0.886401
C161	C	-0.057221	1.528249	1.219735
C162	C	0.276112	1.861582	1.553068
C163	C	-0.395244	1.189518	0.980304
C164	C	-0.061911	1.522852	1.313637
C165	C	0.271423	1.856185	1.646970
H166	H	-0.425172	0.767657	0.374203
H167	H	-0.091838	1.100991	0.707536
H168	H	0.241495	1.434324	1.040870
H169	H	-0.394885	1.189912	1.160015
H170	H	-0.061552	1.523246	1.493349
H171	H	0.271782	1.856579	1.826682
H172	H	-0.417553	0.938041	0.384032
H173	H	-0.084219	1.271375	0.717366
H174	H	0.249114	1.604708	1.050699
H175	H	-0.429413	1.150269	0.845450
H176	H	-0.096080	1.483602	1.178784
H177	H	0.237254	1.816935	1.512117
H178	H	-0.785259	1.157050	0.612631
H179	H	-0.451926	1.490383	0.945964
H180	H	-0.118592	1.823717	1.279298
H181	H	-0.873147	1.306162	0.662121
H182	H	-0.539814	1.639495	0.995454
H183	H	-0.206480	1.972829	1.328788
H184	H	-0.872338	1.125415	0.458936
H185	H	-0.539004	1.458748	0.792269
H186	H	-0.205671	1.792082	1.125603
H187	H	-0.386926	0.623520	0.423674
H188	H	-0.053593	0.956853	0.757007
H189	H	0.279740	1.290187	1.090341
H190	H	-0.769063	1.242562	0.354499
H191	H	-0.435730	1.575895	0.687833
H192	H	-0.102397	1.909228	1.021166
H193	H	-0.856688	1.391790	0.403891
H194	H	-0.523354	1.725124	0.737224
H195	H	-0.190021	2.058457	1.070558
H196	H	-0.213223	1.398673	1.172099
H197	H	0.120111	1.732006	1.505432
H198	H	0.453444	2.065340	1.838766
H199	H	-0.225293	0.611652	0.632680
H200	H	0.108040	0.944985	0.966014
H201	H	0.441373	1.278319	1.299347
H202	H	-0.255908	0.926144	0.593033
H203	H	0.077425	1.259477	0.926366
H204	H	0.410758	1.592811	1.259700
H205	H	-0.204721	1.408473	1.001750
H206	H	0.128612	1.741807	1.335083
H207	H	0.461946	2.075140	1.668416
H208	H	-0.769782	1.423404	0.557804
H209	H	-0.436449	1.756738	0.891137
H210	H	-0.103116	2.090071	1.224471
H211	H	-0.437915	1.140474	1.015826
H212	H	-0.104581	1.473807	1.349159
H213	H	0.228752	1.807140	1.682492
H214	H	-0.247751	1.359039	0.857564
H215	H	0.085582	1.692372	1.190897
H216	H	0.418915	2.025706	1.524231
H217	H	-0.217669	0.782010	0.642508
H218	H	0.115664	1.115344	0.975842
H219	H	0.448997	1.448677	1.309175
