data_functionalizedCrystal
_audit_creation_method	'MofGen! by Chris Wilmer'
_symmetry_space_group_name_H-M	'P1'
_symmetry_Int_Tables_number	1
_symmetry_cell_setting	triclinic
loop_
_symmetry_equiv_pos_as_xyz
  x,y,z
_cell_length_a	8.597340
_cell_length_b	19.188925
_cell_length_c	7.681481
_cell_angle_alpha	84.277839
_cell_angle_beta	103.474906
_cell_angle_gamma	84.245328
loop_
_atom_site_label
_atom_site_type_symbol
_atom_site_fract_x
_atom_site_fract_y
_atom_site_fract_z
O1	O	2.099169	0.096556	0.172054
O2	O	1.635030	0.107681	0.101632
O3	O	1.880499	0.000479	0.138886
O4	O	1.853700	0.203757	0.134800
O5	O	1.910713	-0.012745	0.436329
O6	O	1.665243	0.094456	0.399076
O7	O	2.129382	0.083331	0.469497
Zn8	Zn	1.902110	0.086794	0.481512
Zn9	Zn	1.862302	0.104218	0.089618
O10	O	1.883913	0.190532	0.432243
C11	C	1.590756	0.100610	0.241344
C12	C	1.413822	0.099237	0.214499
C13	C	1.894739	-0.032145	0.287475
C14	C	1.892138	-0.109653	0.287077
C15	C	2.018752	-0.671255	0.306243
C16	C	2.021211	-0.598429	0.306632
C17	C	1.877179	-0.553684	0.284778
C18	C	1.730680	-0.581772	0.262579
C19	C	1.728227	-0.654597	0.262209
N20	N	1.762621	-0.428639	0.167715
N21	N	1.764961	-0.359458	0.168065
C22	C	1.884562	-0.334265	0.285897
N23	N	2.001756	-0.380866	0.403348
N24	N	1.999420	-0.450053	0.402991
C25	C	1.879823	-0.474716	0.285179
C26	C	2.033718	-0.227220	0.308529
C27	C	2.036172	-0.154393	0.308928
C28	C	1.745635	-0.137736	0.264857
C29	C	1.743187	-0.210563	0.264476
C30	C	1.887232	-0.255300	0.286304
C31	C	2.173656	0.090402	0.329781
C32	C	2.350589	0.091775	0.356615
C33	C	1.869673	0.223157	0.283651
C34	C	1.872272	0.300666	0.284037
N35	N	1.929289	0.074902	0.748971
N36	N	1.835136	0.116104	-0.177839
H37	H	2.140497	-0.575562	0.324716
H38	H	2.136046	-0.707677	0.324027
O39	O	2.056628	0.019195	0.867887
H40	H	1.998275	-0.018477	0.943039
H41	H	1.628363	-0.101306	0.247078
O42	O	1.458163	0.084705	0.545008
H43	H	1.584913	0.086934	0.537247
H44	H	1.332588	0.104576	0.072274
H45	H	1.613409	-0.545336	0.244791
H46	H	2.151008	-0.263647	0.326304
O47	O	1.570232	-0.684889	0.238246
H48	H	1.470484	-0.641543	0.223108
O49	O	2.194166	-0.124101	0.332858
H50	H	2.293907	-0.167446	0.347948
O51	O	1.585196	-0.240855	0.240507
H52	H	1.485449	-0.197508	0.225363
H53	H	1.739025	0.158159	0.732377
