data_functionalizedCrystal
_audit_creation_method	'MofGen! by Chris Wilmer'
_symmetry_space_group_name_H-M	'P1'
_symmetry_Int_Tables_number	1
_symmetry_cell_setting	triclinic
loop_
_symmetry_equiv_pos_as_xyz
  x,y,z
_cell_length_a	16.992694
_cell_length_b	12.996460
_cell_length_c	16.992696
_cell_angle_alpha	89.985852
_cell_angle_beta	89.331661
_cell_angle_gamma	89.999814
loop_
_atom_site_label
_atom_site_type_symbol
_atom_site_fract_x
_atom_site_fract_y
_atom_site_fract_z
O1	O	1.050852	0.085469	-0.166918
O2	O	1.550852	0.585469	0.333082
O3	O	0.822452	0.085499	-0.165087
O4	O	1.322452	0.585499	0.334913
O5	O	0.935736	0.085455	-0.051802
O6	O	1.435736	0.585455	0.448198
O7	O	0.937568	0.085512	-0.280203
O8	O	1.437568	0.585512	0.219797
O9	O	0.935723	-0.085679	-0.051795
O10	O	1.435723	0.414321	0.448205
O11	O	0.822439	-0.085635	-0.165079
O12	O	1.322439	0.414365	0.334921
O13	O	1.050839	-0.085665	-0.166911
O14	O	1.550839	0.414335	0.333089
Cu15	Cu	0.936638	-0.101276	-0.165994
Cu16	Cu	1.436638	0.398724	0.334006
Cu17	Cu	0.936653	0.101109	-0.166003
Cu18	Cu	1.436653	0.601109	0.333997
O19	O	0.937555	-0.085622	-0.280195
O20	O	1.437555	0.414378	0.219805
C21	C	0.793085	-0.000065	-0.162727
C22	C	1.293085	0.499935	0.337273
C23	C	0.705601	-0.000055	-0.155699
C24	C	1.205601	0.499945	0.344301
N25	N	0.936633	-0.243623	-0.165988
N26	N	1.436633	0.256377	0.334012
C27	C	0.659610	-0.000039	-0.223517
C28	C	1.159610	0.499961	0.276483
C29	C	0.577409	-0.000055	-0.216908
C30	C	1.077409	0.499945	0.283092
C31	C	0.541201	-0.000079	-0.142480
C32	C	1.041201	0.499921	0.357520
C33	C	0.587198	-0.000098	-0.074657
C34	C	1.087198	0.499902	0.425343
C35	C	0.669397	-0.000090	-0.081267
C36	C	1.169397	0.499910	0.418733
C37	C	0.295886	-0.000113	-0.115086
C38	C	0.795886	0.499887	0.384914
C39	C	0.213681	-0.000119	-0.108481
C40	C	0.713681	0.499881	0.391519
C41	C	0.203898	-0.000077	-0.250732
C42	C	0.703898	0.499923	0.249268
C43	C	0.286100	-0.000062	-0.257335
C44	C	0.786100	0.499938	0.242665
C45	C	0.332089	-0.000087	-0.189512
C46	C	0.832089	0.499913	0.310488
N47	N	0.457179	-0.000092	-0.135723
N48	N	0.957179	0.499908	0.364277
N49	N	0.416110	-0.000081	-0.196270
N50	N	0.916110	0.499919	0.303730
C51	C	0.936652	-0.663437	-0.166004
C52	C	1.436652	-0.163437	0.333996
C53	C	0.936645	-0.546632	-0.166002
C54	C	1.436645	-0.046632	0.333998
C55	C	0.936643	-0.453534	-0.165997
C56	C	1.436643	0.046466	0.334003
C57	C	0.936635	-0.336721	-0.165993
C58	C	1.436635	0.163279	0.334007
C59	C	1.080206	-0.000099	-0.169270
C60	C	1.580206	0.499901	0.330730
C61	C	1.167690	-0.000103	-0.176299
C62	C	1.667690	0.499897	0.323701
C63	C	0.933374	-0.000117	-0.022439
C64	C	1.433374	0.499883	0.477561
C65	C	0.926345	-0.000131	0.065046
C66	C	1.426345	0.499869	0.565046
N67	N	0.936664	0.243457	-0.166004
N68	N	1.436664	0.743457	0.333996
C69	C	0.994163	-0.000149	0.111037
C70	C	1.494163	0.499851	0.611037
C71	C	0.987554	-0.000153	0.193238
C72	C	1.487554	0.499847	0.693238
C73	C	0.913126	-0.000146	0.229446
C74	C	1.413126	0.499854	0.729446
C75	C	0.845303	-0.000125	0.183449
C76	C	1.345303	0.499875	0.683449
C77	C	0.851913	-0.000114	0.101250
C78	C	1.351913	0.499886	0.601250
C79	C	0.885731	-0.000172	0.474760
C80	C	1.385731	0.499828	0.974760
C81	C	0.879126	-0.000187	0.556966
C82	C	1.379126	0.499813	1.056966
C83	C	1.021378	-0.000213	0.566749
C84	C	1.521378	0.499787	1.066749
C85	C	1.027981	-0.000208	0.484547
C86	C	1.527981	0.499792	0.984547
C87	C	0.960158	-0.000181	0.438558
C88	C	1.460158	0.499819	0.938558
N89	N	0.906369	-0.000154	0.313468
N90	N	1.406369	0.499846	0.813468
N91	N	0.966916	-0.000166	0.354537
N92	N	1.466916	0.499834	0.854537
C93	C	0.939917	-0.000093	0.690441
C94	C	1.439917	0.499907	1.190441
C95	C	0.946944	-0.000205	0.602956
C96	C	1.446944	0.499795	1.102956
H97	H	0.689084	-0.000018	-0.284124
H98	H	1.189084	0.499982	0.215876
H99	H	0.557710	-0.000133	-0.014056
H100	H	1.057710	0.499867	0.485944
H101	H	1.076595	-0.000233	0.604202
H102	H	1.576595	0.499767	1.104202
H103	H	0.539967	-0.000040	-0.272133
H104	H	1.039967	0.499960	0.227867
H105	H	0.818515	-0.000198	0.586443
H106	H	1.318515	0.499802	1.086443
C107	C	1.084123	0.087822	0.024262
C108	C	1.584123	0.587822	0.524262
C109	C	1.075976	-0.000156	0.071237
C110	C	1.575976	0.499844	0.571237
H111	H	1.134631	0.087815	-0.000310
H112	H	1.634631	0.587815	0.499690
H113	H	1.078596	0.147484	0.056120
H114	H	1.578596	0.647484	0.556120
H115	H	1.044675	0.087820	-0.014891
H116	H	1.544675	0.587820	0.485109
H117	H	1.115420	-0.000150	0.110394
H118	H	1.615420	0.499850	0.610394
H119	H	1.081511	-0.059834	0.039377
H120	H	1.581511	0.440166	0.539377
H121	H	1.088588	-0.000214	0.455073
H122	H	1.588588	0.499786	0.955073
H123	H	0.830504	-0.000151	0.437325
H124	H	1.330504	0.499849	0.937325
C125	C	0.268170	-0.000040	-0.397281
C126	C	0.768170	0.499960	0.102719
C127	C	0.325897	-0.000045	-0.339149
C128	C	0.825897	0.499955	0.160851
H129	H	0.292741	-0.000033	-0.447789
H130	H	0.792741	0.499967	0.052211
H131	H	0.236312	0.059632	-0.391750
H132	H	0.736312	0.559632	0.108250
H133	H	0.236314	-0.059725	-0.391736
H134	H	0.736314	0.440275	0.108264
H135	H	0.357750	0.059645	-0.344691
H136	H	0.857750	0.559645	0.155309
H137	H	0.357768	-0.059723	-0.344683
H138	H	0.857768	0.440277	0.155317
C139	C	0.105774	0.087905	-0.325826
C140	C	0.605774	0.587905	0.174174
C141	C	0.153343	-0.000061	-0.325279
C142	C	0.653343	0.499939	0.174721
H143	H	0.074561	0.087907	-0.371849
H144	H	0.574561	0.587907	0.128151
H145	H	0.138041	0.147575	-0.325455
H146	H	0.638041	0.647575	0.174545
H147	H	0.072450	0.087881	-0.280551
H148	H	0.572450	0.587881	0.219449
H149	H	0.186671	-0.000033	-0.370552
H150	H	0.686671	0.499967	0.129448
H151	H	0.121073	-0.059747	-0.325657
H152	H	0.621073	0.440253	0.174343
H153	H	0.706842	-0.000102	-0.026042
H154	H	1.206842	0.499898	0.473958
C155	C	0.196707	0.087809	0.014808
C156	C	0.696707	0.587809	0.514808
C157	C	0.173877	-0.000148	-0.026665
C158	C	0.673877	0.499852	0.473335
H159	H	0.172135	0.087788	0.065315
H160	H	0.672135	0.587788	0.565315
H161	H	0.181225	0.147485	-0.013334
H162	H	0.681225	0.647485	0.486666
H163	H	0.252244	0.087794	0.020578
H164	H	0.752244	0.587794	0.520578
H165	H	0.118340	-0.000130	-0.032440
H166	H	0.618340	0.499870	0.467560
H167	H	0.189355	-0.059840	0.001483
H168	H	0.689355	0.440160	0.501483
H169	H	1.042779	-0.000170	0.230680
H170	H	1.542779	0.499830	0.730680
C171	C	0.772008	-0.000143	0.305109
C172	C	1.272008	0.499857	0.805109
C173	C	0.763490	-0.000121	0.223247
C174	C	1.263490	0.499879	0.723247
H175	H	0.721498	-0.000150	0.329675
H176	H	1.221498	0.499850	0.829675
H177	H	0.800146	0.059525	0.320582
H178	H	1.300146	0.559525	0.820582
H179	H	0.800146	-0.059832	0.320587
H180	H	1.300146	0.440168	0.820587
H181	H	0.735357	0.059572	0.207769
H182	H	1.235357	0.559572	0.707769
H183	H	0.735339	-0.059796	0.207768
H184	H	1.235339	0.440204	0.707768
H185	H	0.796688	-0.000098	0.063804
H186	H	1.296688	0.499902	0.563804
H187	H	0.333322	-0.000134	-0.059859
H188	H	0.833322	0.499866	0.440141
