data_functionalizedCrystal
_audit_creation_method	'MofGen! by Chris Wilmer'
_symmetry_space_group_name_H-M	'P1'
_symmetry_Int_Tables_number	1
_symmetry_cell_setting	triclinic
loop_
_symmetry_equiv_pos_as_xyz
  x,y,z
_cell_length_a	13.897448
_cell_length_b	14.908571
_cell_length_c	14.908757
_cell_angle_alpha	83.225086
_cell_angle_beta	93.306366
_cell_angle_gamma	93.286109
loop_
_atom_site_label
_atom_site_type_symbol
_atom_site_fract_x
_atom_site_fract_y
_atom_site_fract_z
Zn1	Zn	-0.435036	-1.413243	0.591515
Zn2	Zn	-0.605096	-1.404448	0.440149
Zn3	Zn	-0.435004	-1.253176	0.431449
Zn4	Zn	-0.587474	-1.261851	0.582749
O5	O	-0.515653	-1.333179	0.511465
O6	O	-0.464984	-1.538742	0.578746
O7	O	-0.589894	-1.377071	0.312328
O8	O	-0.300028	-1.274460	0.452709
O9	O	-0.589926	-1.532280	0.467538
O10	O	-0.300052	-1.392060	0.570309
O11	O	-0.464928	-1.265932	0.305936
O12	O	-0.447840	-1.127661	0.444209
O13	O	-0.559892	-1.289244	0.710578
O14	O	-0.559860	-1.134034	0.555369
O15	O	-0.447896	-1.400471	0.717019
O16	O	-0.737739	-1.385482	0.459038
O17	O	-0.724792	-1.280716	0.563805
C18	C	-0.501935	-1.098005	0.497894
C19	C	-0.496089	-0.997397	0.492110
C20	C	-0.766265	-1.333112	0.511435
C21	C	-0.873481	-1.333168	0.511458
C22	C	-0.501932	-1.346806	0.747560
C23	C	-0.496085	-1.352613	0.848170
C24	C	-1.069778	-1.333266	0.511520
C25	C	-0.960544	-1.333209	0.511488
C26	C	-0.264062	-1.333273	0.511517
C27	C	-0.156849	-1.333313	0.511539
C28	C	-0.529425	-1.569272	0.525090
C29	C	-0.535293	-1.669881	0.530896
C30	C	-0.601949	-0.815021	0.596835
C31	C	-0.596458	-0.720491	0.591403
C32	C	-0.479613	-0.713807	0.475819
C33	C	-0.485103	-0.808337	0.481251
C34	C	-0.546274	-0.858940	0.541760
C35	C	-0.551769	-0.953471	0.547187
C36	C	-0.434919	-0.946786	0.431608
C37	C	-0.429429	-0.852256	0.426176
C38	C	-0.601741	-1.247706	1.030521
C39	C	-0.596251	-1.253159	1.125053
C40	C	-0.479619	-1.368976	1.131766
C41	C	-0.485110	-1.363523	1.037235
C42	C	-0.546172	-1.302885	0.986616
C43	C	-0.551657	-1.297428	0.892082
C44	C	-0.435031	-1.413249	0.898798
C45	C	-0.429540	-1.418702	0.993329
C46	C	-0.529342	-1.319599	1.276288
C47	C	-0.535190	-1.313791	1.175679
H48	H	-0.601580	-0.994671	0.596455
O49	O	-0.413774	-1.434380	1.186376
H50	H	-0.376058	-1.471842	1.139967
O51	O	-0.656184	-1.193641	1.172409
H52	H	-0.607824	-1.150093	1.212831
H53	H	-0.389587	-0.982555	0.386760
H54	H	-0.651762	-0.856223	0.646099
H55	H	-0.601366	-1.248044	0.850868
H56	H	-0.379828	-1.468074	1.034556
H57	H	-0.651442	-1.198316	0.989305
O58	O	-0.656595	-0.673112	0.650724
H59	H	-0.700088	-0.724182	0.693677
H60	H	-0.429804	-0.672590	0.426562
O61	O	-0.375096	-1.472775	0.851444
H62	H	-0.326164	-1.429795	0.806043
O63	O	-0.363481	-0.797675	0.360890
H64	H	-0.369028	-0.724563	0.366352
