data_functionalizedCrystal
_audit_creation_method	'MofGen! by Chris Wilmer'
_symmetry_space_group_name_H-M	'P1'
_symmetry_Int_Tables_number	1
_symmetry_cell_setting	triclinic
loop_
_symmetry_equiv_pos_as_xyz
  x,y,z
_cell_length_a	12.759401
_cell_length_b	21.395362
_cell_length_c	21.395355
_cell_angle_alpha	89.979451
_cell_angle_beta	89.978522
_cell_angle_gamma	90.030217
loop_
_atom_site_label
_atom_site_type_symbol
_atom_site_fract_x
_atom_site_fract_y
_atom_site_fract_z
Zn1	Zn	1.606175	-0.249504	-0.354201
Zn2	Zn	2.106175	0.250496	0.145799
Zn3	Zn	1.606014	-0.354264	-0.249420
Zn4	Zn	2.106014	0.145736	0.250580
Zn5	Zn	1.430468	-0.249505	-0.249444
Zn6	Zn	1.930468	0.250495	0.250556
Zn7	Zn	1.430419	-0.354248	-0.354166
Zn8	Zn	1.930419	0.145752	0.145834
O9	O	1.518269	-0.301880	-0.301808
O10	O	2.018269	0.198120	0.198192
O11	O	1.753174	-0.263407	-0.340307
O12	O	2.253174	0.236593	0.159693
O13	O	1.582681	-0.340374	-0.161745
O14	O	2.082681	0.159626	0.338255
O15	O	1.453864	-0.161827	-0.263364
O16	O	1.953864	0.338173	0.236636
O17	O	1.753056	-0.340373	-0.263324
O18	O	2.253056	0.159627	0.236676
O19	O	1.582955	-0.161826	-0.340329
O20	O	2.082955	0.338174	0.159671
O21	O	1.453708	-0.263408	-0.161762
O22	O	1.953708	0.236592	0.338238
O23	O	1.283440	-0.263393	-0.263330
O24	O	1.783440	0.236607	0.236670
O25	O	1.453780	-0.340347	-0.441848
O26	O	1.953780	0.159653	0.058152
O27	O	1.283405	-0.340348	-0.340269
O28	O	1.783405	0.159652	0.159731
O29	O	1.582907	-0.263392	-0.441874
O30	O	2.082907	0.236608	0.058126
O31	O	1.582633	-0.441940	-0.263290
O32	O	2.082633	0.058060	0.236710
O33	O	1.453624	-0.441928	-0.340246
O34	O	1.953624	0.058072	0.159754
C35	C	1.245302	-0.301869	-0.301799
C36	C	1.745302	0.198131	0.198201
C37	C	1.128525	-0.301880	-0.301810
C38	C	1.628525	0.198120	0.198190
C39	C	1.518135	-0.464668	-0.301775
C40	C	2.018135	0.035332	0.198225
C41	C	1.518173	-0.534309	-0.301783
C42	C	2.018173	-0.034309	0.198217
C43	C	1.585352	-0.566965	-0.341887
C44	C	2.085352	-0.066965	0.158113
C45	C	1.585389	-0.632400	-0.341902
C46	C	2.085389	-0.132400	0.158098
C47	C	1.518258	-0.665177	-0.301802
C48	C	2.018258	-0.165177	0.198198
C49	C	1.451066	-0.632514	-0.261695
C50	C	1.951066	-0.132514	0.238305
C51	C	1.451024	-0.567080	-0.261685
C52	C	1.951024	-0.067080	0.238315
C53	C	1.510080	-0.768878	-0.245364
C54	C	2.010080	-0.268878	0.254636
C55	C	1.510130	-0.834311	-0.245372
C56	C	2.010130	-0.334311	0.254628
C57	C	1.518383	-0.866998	-0.301832
C58	C	2.018383	-0.366998	0.198168
C59	C	1.526608	-0.834245	-0.358286
C60	C	2.026608	-0.334245	0.141714
C61	C	1.526566	-0.768810	-0.358276
C62	C	2.026566	-0.268810	0.141724
C63	C	1.518296	-0.736130	-0.301808
C64	C	2.018296	-0.236130	0.198192
C65	C	1.585606	-0.970607	-0.341957
C66	C	2.085606	-0.470607	0.158043
C67	C	1.585635	-1.036043	-0.341973
C68	C	2.085635	-0.536043	0.158027
C69	C	1.451317	-1.036155	-0.261760
C70	C	1.951317	-0.536155	0.238240
C71	C	1.451282	-0.970720	-0.261749
C72	C	1.951282	-0.470720	0.238251
C73	C	1.518432	-0.937949	-0.301847
C74	C	2.018432	-0.437949	0.198153
C75	C	1.073725	-0.261876	-0.341956
C76	C	1.573725	0.238124	0.158044
C77	C	0.964001	-0.261882	-0.341960
C78	C	1.464001	0.238118	0.158040
C79	C	0.963886	-0.341902	-0.261670
C80	C	1.463886	0.158098	0.238330
C81	C	1.073608	-0.341892	-0.261663
C82	C	1.573608	0.158108	0.238337
C83	C	0.814115	-0.188037	-0.364493
C84	C	1.314115	0.311963	0.135507
C85	C	0.759312	-0.148038	-0.404649
C86	C	1.259312	0.351962	0.095351
C87	C	0.794978	-0.138507	-0.465800
C88	C	1.294978	0.361493	0.034200
C89	C	0.885445	-0.168983	-0.486808
C90	C	1.385445	0.331017	0.013192
C91	C	0.940243	-0.208986	-0.446655
C92	C	1.440243	0.291014	0.053345
C93	C	0.904579	-0.218506	-0.385495
C94	C	1.404579	0.281494	0.114505
C95	C	1.223496	-0.415739	-0.239137
C96	C	1.723496	0.084261	0.260863
C97	C	1.278296	-0.455745	-0.198987
C98	C	1.778296	0.044255	0.301013
C99	C	1.242632	-0.465283	-0.137835
C100	C	1.742632	0.034717	0.362165
C101	C	1.152161	-0.434818	-0.116829
C102	C	1.652161	0.065182	0.383171
C103	C	1.097361	-0.394811	-0.156980
C104	C	1.597361	0.105189	0.343020
C105	C	1.133032	-0.385272	-0.218131
C106	C	1.633032	0.114728	0.281869
C107	C	1.792302	-0.301892	-0.301817
C108	C	2.292302	0.198108	0.198183
C109	C	1.909079	-0.301896	-0.301821
C110	C	2.409079	0.198104	0.198179
C111	C	1.518356	-0.301868	-0.465231
C112	C	2.018356	0.198132	0.034769
C113	C	1.518393	-0.301862	-0.534872
C114	C	2.018393	0.198138	-0.034872
C115	C	1.518432	-0.138457	-0.301854
C116	C	2.018432	0.361543	0.198146
C117	C	1.518502	-0.068816	-0.301873
C118	C	2.018502	0.431184	0.198127
C119	C	1.585627	-0.261790	-0.567600
C120	C	2.085627	0.238210	-0.067600
C121	C	1.585625	-0.261763	-0.633035
C122	C	2.085625	0.238237	-0.133035
C123	C	1.518402	-0.301820	-0.665741
C124	C	2.018402	0.198180	-0.165741
C125	C	1.451155	-0.341895	-0.633005
C126	C	1.951155	0.158105	-0.133005
C127	C	1.451151	-0.341916	-0.567571
C128	C	1.951151	0.158084	-0.067571
C129	C	1.510059	-0.358235	-0.769404
C130	C	2.010059	0.141765	-0.269404
C131	C	1.510071	-0.358215	-0.834837
C132	C	2.010071	0.141785	-0.334837
C133	C	1.518408	-0.301753	-0.867561
C134	C	2.018408	0.198247	-0.367561
C135	C	1.526756	-0.245311	-0.834844
C136	C	2.026756	0.254689	-0.334844
C137	C	1.526752	-0.245332	-0.769410
C138	C	2.026752	0.254668	-0.269410
C139	C	1.518398	-0.301801	-0.736693
C140	C	2.018398	0.198199	-0.236693
C141	C	1.585644	-0.261648	-0.971242
C142	C	2.085644	0.238352	-0.471242
C143	C	1.585635	-0.261620	-1.036678
C144	C	2.085635	0.238380	-0.536678
C145	C	1.451170	-0.341758	-1.036647
C146	C	1.951170	0.158242	-0.536647
C147	C	1.451173	-0.341780	-0.971211
C148	C	1.951173	0.158220	-0.471211
C149	C	1.518416	-0.301726	-0.938513
C150	C	2.018416	0.198274	-0.438513
C151	C	1.518243	-0.301848	-0.139020
C152	C	2.018243	0.198152	0.360980
C153	C	1.518409	-0.301677	-0.069379
C154	C	2.018409	0.198323	0.430621
H155	H	1.640027	-0.540285	-0.374538
H156	H	2.140027	-0.040285	0.125462
F157	F	1.657210	-0.218975	-1.071509
F158	F	2.157210	0.281025	-0.571509
F159	F	1.657188	-0.219158	-0.532803
F160	F	2.157188	0.280842	-0.032803
F161	F	1.535634	-0.185216	-0.869666
F162	F	2.035634	0.314784	-0.369666
F163	F	1.535314	-0.733954	-0.418356
F164	F	2.035314	-0.233954	0.081644
F165	F	1.379781	-0.935964	-0.219064
F166	F	1.879781	-0.435964	0.280936
F167	F	1.535396	-0.869027	-0.418379
F168	F	2.035396	-0.369027	0.081621
F169	F	0.736645	-0.095939	-0.508537
F170	F	1.236645	0.404061	-0.008537
H171	H	1.503280	-0.404174	-0.861471
H172	H	2.003280	0.095826	-0.361471
H173	H	1.503356	-0.742269	-0.199384
H174	H	2.003356	-0.242269	0.300616
H175	H	1.396396	-0.374547	-0.540924
H176	H	1.896396	0.125453	-0.040924
H177	H	1.640280	-0.943924	-0.374608
H178	H	2.140280	-0.443924	0.125392
H179	H	1.502989	-0.404201	-0.742766
H180	H	2.002989	0.095799	-0.242766
F181	F	1.501384	-0.869163	-0.185290
F182	F	2.001384	-0.369163	0.314710
H183	H	1.640391	-0.229031	-0.944617
H184	H	2.140391	0.270969	-0.444617
F185	F	1.132168	-0.219290	-0.384682
F186	F	1.632168	0.280710	0.115318
F187	F	1.379617	-0.384385	-1.071450
F188	F	1.879617	0.115615	-0.571450
F189	F	1.379607	-0.384524	-0.667813
F190	F	1.879607	0.115476	-0.167813
F191	F	1.036519	-0.241420	-0.469009
F192	F	1.536519	0.258580	0.030991
H193	H	1.396431	-0.374415	-0.944564
H194	H	1.896431	0.125585	-0.444564
F195	F	1.657130	-1.070798	-0.384666
F196	F	2.157130	-0.570798	0.115334
H197	H	0.914471	-0.161224	-0.536606
H198	H	1.414471	0.338776	-0.036606
F199	F	1.300952	-0.507870	-0.095107
F200	F	1.800952	-0.007870	0.404893
H201	H	1.640086	-0.658994	-0.374567
H202	H	2.140086	-0.158994	0.125433
H203	H	1.640373	-0.229128	-0.659687
H204	H	2.140373	0.270872	-0.159687
F205	F	1.379868	-1.071035	-0.219084
F206	F	1.879868	-0.571035	0.280916
F207	F	1.379518	-0.532324	-0.219000
F208	F	1.879518	-0.032324	0.281000
F209	F	1.379615	-0.667398	-0.219021
F210	F	1.879615	-0.167398	0.280979
F211	F	1.114195	-0.444974	-0.051746
F212	F	1.614195	0.055026	0.448254
F213	F	0.776160	-0.198169	-0.299405
F214	F	1.276160	0.301831	0.200595
F215	F	1.535631	-0.185263	-0.734593
F216	F	2.035631	0.314737	-0.234593
H217	H	0.685652	-0.123225	-0.387539
H218	H	1.185652	0.376775	0.112461
F219	F	0.905431	-0.384485	-0.218947
F220	F	1.405431	0.115515	0.281053
F221	F	1.001089	-0.362374	-0.134617
F222	F	1.501089	0.137626	0.365383
F223	F	1.261466	-0.405584	-0.304222
F224	F	1.761466	0.094416	0.195778
H225	H	1.351973	-0.480543	-0.216091
H226	H	1.851973	0.019457	0.283909
