data_functionalizedCrystal
_audit_creation_method	'MofGen! by Chris Wilmer'
_symmetry_space_group_name_H-M	'P1'
_symmetry_Int_Tables_number	1
_symmetry_cell_setting	triclinic
loop_
_symmetry_equiv_pos_as_xyz
  x,y,z
_cell_length_a	10.908891
_cell_length_b	10.268362
_cell_length_c	11.026607
_cell_angle_alpha	90.003050
_cell_angle_beta	95.664947
_cell_angle_gamma	89.994991
loop_
_atom_site_label
_atom_site_type_symbol
_atom_site_fract_x
_atom_site_fract_y
_atom_site_fract_z
O1	O	-1.662458	0.108290	-0.179085
O2	O	-1.309524	0.108294	-0.088542
O3	O	-1.456740	0.108288	-0.304563
O4	O	-1.515242	0.108296	0.036936
O5	O	-1.456722	-0.108313	-0.304567
O6	O	-1.309506	-0.108307	-0.088546
O7	O	-1.662440	-0.108310	-0.179089
Cu8	Cu	-1.485971	-0.128086	-0.133818
Cu9	Cu	-1.485993	0.128069	-0.133813
O10	O	-1.515224	-0.108304	0.036932
C11	C	-1.263629	-0.000006	-0.080083
C12	C	-1.126902	-0.000005	-0.054883
N13	N	-1.485965	-0.308252	-0.133824
C14	C	-1.056639	-0.000007	-0.146827
C15	C	-0.915324	-0.000005	-0.120785
C16	C	-1.485986	-0.573922	-0.133814
C17	C	-1.485971	-0.426085	-0.133815
C18	C	-0.708335	-0.000009	-0.187547
C19	C	-0.845063	-0.000007	-0.212742
C20	C	-1.445939	-0.000011	-0.347598
C21	C	-1.413766	-0.000006	-0.475819
N22	N	-1.486006	0.308235	-0.133819
C23	C	-1.502601	-0.000005	-0.567553
C24	C	-1.469350	-0.000000	-0.700077
C25	C	-1.526025	-0.000003	0.079967
C26	C	-1.558198	0.000001	0.208188
H27	H	-1.101104	-0.000003	-0.244824
H28	H	-1.658876	0.000098	-0.772246
F29	F	-1.282179	0.000007	-0.501398
H30	H	-0.870863	0.000003	-0.022782
F31	F	-0.903168	0.000003	-0.340841
H32	H	-1.082436	0.000003	0.043113
F33	F	-1.634187	0.000001	-0.541975
H34	H	-1.368673	0.000010	-0.719645
