data_functionalizedCrystal
_audit_creation_method	'MofGen! by Chris Wilmer'
_symmetry_space_group_name_H-M	'P1'
_symmetry_Int_Tables_number	1
_symmetry_cell_setting	triclinic
loop_
_symmetry_equiv_pos_as_xyz
  x,y,z
_cell_length_a	12.811438
_cell_length_b	11.892095
_cell_length_c	10.723024
_cell_angle_alpha	93.927454
_cell_angle_beta	95.744116
_cell_angle_gamma	88.501043
loop_
_atom_site_label
_atom_site_type_symbol
_atom_site_fract_x
_atom_site_fract_y
_atom_site_fract_z
O1	O	1.390432	-0.048560	-0.172203
O2	O	1.087184	-0.017466	-0.187847
O3	O	1.245802	-0.033735	0.001525
O4	O	1.231813	-0.032292	-0.361575
O5	O	1.232577	-0.220386	-0.014240
O6	O	1.073958	-0.204117	-0.203612
O7	O	1.377206	-0.235211	-0.187968
Zn8	Zn	1.223482	-0.249299	-0.198293
Zn9	Zn	1.240908	-0.003379	-0.177522
O10	O	1.218588	-0.218943	-0.377340
C11	C	1.041742	-0.106811	-0.194368
C12	C	0.926043	-0.094947	-0.190298
C13	C	0.770176	0.023504	-0.175967
C14	C	0.878886	0.012367	-0.179790
C15	C	0.864482	-0.191131	-0.196978
C16	C	0.755771	-0.179994	-0.193155
C17	C	0.708622	-0.072673	-0.182651
C18	C	0.599909	-0.061536	-0.178836
C19	C	0.585508	-0.265034	-0.196015
C20	C	0.694218	-0.276172	-0.199838
N21	N	1.211598	-0.417134	-0.212468
C22	C	1.335498	-0.666490	-0.064630
C23	C	1.327199	-0.783981	-0.074547
C24	C	1.186695	-0.769608	-0.242213
C25	C	1.194994	-0.652117	-0.232296
C26	C	1.269400	-0.600563	-0.143503
C27	C	1.277704	-0.483071	-0.133592
C28	C	1.137195	-0.468700	-0.301251
C29	C	1.128895	-0.586190	-0.311169
C30	C	1.422649	-0.145865	-0.181447
C31	C	1.538348	-0.157721	-0.185517
C32	C	1.238172	-0.126955	0.040146
C33	C	1.235126	-0.126638	0.178712
N34	N	1.252800	0.164456	-0.163337
C35	C	1.226219	-0.125721	-0.415961
C36	C	1.229265	-0.126030	-0.554526
C37	C	1.323881	-0.135737	0.253370
C38	C	1.320735	-0.135411	0.396585
H39	H	0.731785	0.110890	-0.167428
H40	H	1.156811	-0.118601	0.220821
C41	C	1.511078	-0.154915	0.292957
C42	C	1.429612	-0.146570	0.196541
H43	H	1.576353	-0.161593	0.257874
H44	H	1.501466	-0.219490	0.337686
H45	H	1.510671	-0.089309	0.348688
H46	H	1.430013	-0.212180	0.140815
H47	H	1.439226	-0.081988	0.151792
H48	H	0.902891	-0.278508	-0.205515
C49	C	1.129414	-0.019142	0.291305
C50	C	1.126680	-0.115509	0.358887
H51	H	1.066079	-0.012645	0.237850
H52	H	1.187199	-0.025080	0.242070
H53	H	1.136800	0.045656	0.348163
H54	H	1.119302	-0.180308	0.302029
H55	H	1.068879	-0.109579	0.408125
C56	C	0.854467	-0.383603	-0.213339
C57	C	0.746050	-0.394135	-0.211393
H58	H	0.886461	-0.456431	-0.220484
H59	H	0.882661	-0.344398	-0.137819
H60	H	0.867807	-0.342851	-0.283052
H61	H	0.732710	-0.434880	-0.141674
H62	H	0.717847	-0.433356	-0.286922
C63	C	1.366278	-0.536511	0.116001
C64	C	1.417300	-0.609795	0.032930
H65	H	1.416787	-0.501504	0.176216
H66	H	1.319376	-0.577869	0.157690
H67	H	1.328083	-0.480449	0.070432
H68	H	1.455489	-0.665863	0.078498
H69	H	1.464221	-0.568436	-0.008762
H70	H	1.068313	-0.628180	-0.383459
C71	C	1.400343	-0.143559	0.608294
C72	C	1.423314	-0.145921	0.483183
H73	H	1.463676	-0.150040	0.661756
H74	H	1.356290	-0.204602	0.618501
H75	H	1.365499	-0.074421	0.629480
H76	H	1.458152	-0.215063	0.461995
H77	H	1.467385	-0.084874	0.472970
H78	H	0.561522	0.025850	-0.170289
H79	H	1.338291	-0.441096	-0.061296
C80	C	0.882198	0.214633	-0.162434
C81	C	0.946545	0.118088	-0.172456
H82	H	0.923970	0.279902	-0.157914
H83	H	0.846928	0.213985	-0.088685
H84	H	0.832066	0.215496	-0.233921
H85	H	0.996673	0.117222	-0.100964
H86	H	0.981832	0.118737	-0.246213
H87	H	0.535378	-0.343349	-0.201463
C88	C	1.466914	-0.786380	0.092176
C89	C	1.399858	-0.856449	0.012150
H90	H	1.511774	-0.831122	0.145697
H91	H	1.426453	-0.736087	0.141559
H92	H	1.508005	-0.744425	0.043540
H93	H	1.358761	-0.898399	0.060786
H94	H	1.440323	-0.906762	-0.037238
C95	C	1.080109	-0.426438	-0.513358
C96	C	1.064534	-0.396233	-0.387962
H97	H	1.035258	-0.381695	-0.566889
H98	H	1.064515	-0.503780	-0.531955
H99	H	1.151116	-0.414303	-0.526276
H100	H	0.993528	-0.408375	-0.375042
H101	H	1.080120	-0.318872	-0.369359
C102	C	1.048619	-0.743612	-0.406921
C103	C	1.104896	-0.826288	-0.339788
H104	H	0.998112	-0.778606	-0.467150
H105	H	1.095545	-0.702271	-0.448596
H106	H	1.014020	-0.693900	-0.350545
H107	H	1.139501	-0.875995	-0.396164
H108	H	1.057963	-0.867647	-0.298112
