data_functionalizedCrystal
_audit_creation_method	'MofGen! by Chris Wilmer'
_symmetry_space_group_name_H-M	'P1'
_symmetry_Int_Tables_number	1
_symmetry_cell_setting	triclinic
loop_
_symmetry_equiv_pos_as_xyz
  x,y,z
_cell_length_a	19.188930
_cell_length_b	17.699083
_cell_length_c	16.176319
_cell_angle_alpha	90.001389
_cell_angle_beta	89.988074
_cell_angle_gamma	96.786101
loop_
_atom_site_label
_atom_site_type_symbol
_atom_site_fract_x
_atom_site_fract_y
_atom_site_fract_z
O1	O	0.088294	-1.003963	-0.068640
O2	O	0.099782	-0.783569	-0.068668
O3	O	-0.007610	-0.900126	-0.068637
O4	O	0.195687	-0.887406	-0.068671
O5	O	-0.007617	-0.900110	0.068856
O6	O	0.099775	-0.783553	0.068825
O7	O	0.088288	-1.003947	0.068853
Cu8	Cu	0.094031	-0.893748	0.081393
Cu9	Cu	0.094039	-0.893767	-0.081208
O10	O	0.195680	-0.887390	0.068822
C11	C	0.099367	-0.755365	0.000075
C12	C	0.098132	-0.671348	0.000065
C13	C	-0.033625	-0.899706	0.000112
C14	C	-0.111131	-0.898469	0.000119
C15	C	0.088703	-1.032151	0.000108
C16	C	0.089938	-1.116167	0.000113
C17	C	-0.155978	-0.966861	0.000131
C18	C	-0.228804	-0.965699	0.000118
C19	C	-0.256778	-0.896142	0.000108
C20	C	-0.211921	-0.827741	0.000091
C21	C	-0.139098	-0.828905	0.000096
N22	N	-0.364845	-0.842968	0.046893
N23	N	-0.434025	-0.841868	0.046890
C24	C	-0.476191	-0.892632	0.000091
N25	N	-0.446565	-0.944550	-0.046694
N26	N	-0.377379	-0.945653	-0.046687
C27	C	-0.335742	-0.894873	0.000102
C28	C	-0.600004	-0.959769	0.000088
C29	C	-0.672830	-0.958604	0.000070
C30	C	-0.655946	-0.820644	0.000051
C31	C	-0.583121	-0.821811	0.000061
C32	C	-0.555155	-0.891375	0.000084
C33	C	0.221695	-0.887810	0.000071
C34	C	0.299201	-0.889046	0.000059
N35	N	0.094025	-0.893741	0.195758
C36	C	0.161169	-0.622644	0.000055
C37	C	0.160004	-0.543702	0.000065
C38	C	0.095802	-0.513466	0.000081
C39	C	0.032761	-0.562176	0.000093
C40	C	0.033926	-0.641117	0.000088
C41	C	0.028060	-0.243819	0.000115
C42	C	0.026900	-0.164873	0.000117
C43	C	0.154139	-0.146405	0.000092
C44	C	0.155304	-0.225345	0.000087
C45	C	0.092263	-0.274049	0.000104
C46	C	0.093526	-0.359646	0.000094
C47	C	0.094538	-0.427870	0.000085
N48	N	0.094039	-0.893781	-0.195574
C49	C	0.046491	-0.945367	0.239036
C50	C	0.046490	-0.945371	0.325584
C51	C	0.094027	-0.893751	0.368851
C52	C	0.141563	-0.842119	0.325567
C53	C	0.141560	-0.842112	0.239022
C54	C	0.141576	-0.842145	0.674595
C55	C	0.141577	-0.842157	0.761147
C56	C	0.046506	-0.945404	0.761157
C57	C	0.046503	-0.945397	0.674612
C58	C	0.094036	-0.893763	0.631335
C59	C	0.094036	-0.893758	0.537491
C60	C	0.094031	-0.893759	0.462694
H61	H	-0.265325	-1.021394	0.000125
H62	H	0.211335	-0.504050	0.000056
C63	C	-0.187919	-0.691495	0.000065
C64	C	-0.242667	-0.751282	0.000078
H65	H	-0.206901	-0.644291	0.000048
H66	H	-0.159878	-0.694809	0.048011
H67	H	-0.159856	-0.694832	-0.047883
H68	H	-0.270727	-0.747947	0.048029
H69	H	-0.270720	-0.747966	-0.047873
H70	H	-0.133213	-1.023506	0.000147
C71	C	0.264124	-0.233892	-0.070615
C72	C	0.225880	-0.258573	0.000069
H73	H	0.307698	-0.254400	-0.070620
H74	H	0.238178	-0.250629	-0.118549
H75	H	0.272442	-0.179907	-0.070604
H76	H	0.217557	-0.312559	0.000055
H77	H	0.251831	-0.241841	0.048015
H78	H	-0.017406	-0.680771	0.000096
H79	H	0.007796	-0.987433	0.639386
H80	H	0.205470	-0.106741	0.000082
H81	H	-0.102582	-0.773210	0.000086
C82	C	-0.624005	-1.096018	0.000086
C83	C	-0.569257	-1.036231	0.000093
H84	H	-0.605023	-1.143222	0.000081
H85	H	-0.652066	-1.092696	0.048028
H86	H	-0.652048	-1.092688	-0.047866
H87	H	-0.541217	-1.039558	0.048048
H88	H	-0.541184	-1.039555	-0.047854
C89	C	-0.098765	-0.191054	0.000162
C90	C	-0.043677	-0.131636	0.000142
H91	H	-0.142332	-0.170533	0.000182
H92	H	-0.095670	-0.221458	-0.047784
H93	H	-0.095658	-0.221460	0.048110
H94	H	-0.046780	-0.101233	-0.047809
H95	H	-0.046773	-0.101219	0.048093
H96	H	-0.709345	-1.014299	0.000076
H97	H	-0.678722	-0.764009	0.000039
H98	H	-0.546605	-0.766119	0.000056
C99	C	-0.047490	-1.047421	0.247749
C100	C	-0.005766	-1.002109	0.191481
H101	H	-0.079756	-1.082447	0.218390
H102	H	-0.018457	-1.074549	0.281490
H103	H	-0.072564	-1.015995	0.281519
H104	H	0.019312	-1.033535	0.157715
H105	H	-0.034803	-0.974979	0.157726
H106	H	0.213450	-0.647256	0.000042
H107	H	-0.023272	-0.283465	0.000129
H108	H	-0.019514	-0.537552	0.000118
H109	H	0.007784	-0.987409	0.360820
H110	H	0.007800	-0.987446	0.796402
C111	C	0.262483	-0.797263	0.212337
C112	C	0.193813	-0.785366	0.191445
H113	H	0.294740	-0.762230	0.182960
H114	H	0.269285	-0.789876	0.270064
H115	H	0.269998	-0.847748	0.198139
H116	H	0.186296	-0.734882	0.205648
H117	H	0.187008	-0.792746	0.133704
C118	C	0.235545	-0.740077	0.752448
C119	C	0.193827	-0.785405	0.808709
H120	H	0.267796	-0.705041	0.781813
H121	H	0.260629	-0.771486	0.718682
H122	H	0.206501	-0.712955	0.718703
H123	H	0.222871	-0.812532	0.842450
H124	H	0.168742	-0.753992	0.842489
C125	C	0.236620	-0.825398	0.577258
C126	C	0.193835	-0.785399	0.627036
H127	H	0.268884	-0.790364	0.547893
H128	H	0.261690	-0.856819	0.611011
H129	H	0.208301	-0.856129	0.539101
H130	H	0.222154	-0.754672	0.665198
H131	H	0.168764	-0.753964	0.593280
H132	H	0.180266	-0.800085	0.360800
