data_functionalizedCrystal
_audit_creation_method	'MofGen! by Chris Wilmer'
_symmetry_space_group_name_H-M	'P1'
_symmetry_Int_Tables_number	1
_symmetry_cell_setting	triclinic
loop_
_symmetry_equiv_pos_as_xyz
  x,y,z
_cell_length_a	17.077404
_cell_length_b	13.897448
_cell_length_c	13.897441
_cell_angle_alpha	89.969401
_cell_angle_beta	89.978207
_cell_angle_gamma	90.017917
loop_
_atom_site_label
_atom_site_type_symbol
_atom_site_fract_x
_atom_site_fract_y
_atom_site_fract_z
Zn1	Zn	1.200101	-0.383978	-0.545408
Zn2	Zn	1.700101	0.116022	-0.045408
Zn3	Zn	1.200014	-0.545300	-0.384110
Zn4	Zn	1.700014	-0.045300	0.115890
Zn5	Zn	1.068827	-0.384021	-0.384124
Zn6	Zn	1.568827	0.115979	0.115876
Zn7	Zn	1.068812	-0.545234	-0.545359
Zn8	Zn	1.568812	-0.045234	-0.045359
O9	O	1.134439	-0.464633	-0.464750
O10	O	1.634439	0.035367	0.035250
O11	O	1.309936	-0.405388	-0.524026
O12	O	1.809936	0.094612	-0.024026
O13	O	1.182582	-0.523952	-0.249130
O14	O	1.682582	-0.023952	0.250870
O15	O	1.086283	-0.249034	-0.405545
O16	O	1.586283	0.250966	0.094455
O17	O	1.309873	-0.523910	-0.405521
O18	O	1.809873	-0.023910	0.094479
O19	O	1.182729	-0.249002	-0.524040
O20	O	1.682729	0.250998	-0.024040
O21	O	1.086200	-0.405461	-0.249140
O22	O	1.586200	0.094539	0.250860
O23	O	0.958978	-0.405397	-0.405497
O24	O	1.458978	0.094603	0.094503
O25	O	1.086258	-0.523797	-0.680348
O26	O	1.586258	-0.023797	-0.180348
O27	O	0.958967	-0.523839	-0.523957
O28	O	1.458967	-0.023839	-0.023957
O29	O	1.182715	-0.405323	-0.680384
O30	O	1.682715	0.094677	-0.180384
O31	O	1.182568	-0.680273	-0.405474
O32	O	1.682568	-0.180273	0.094526
O33	O	1.086174	-0.680224	-0.523943
O34	O	1.586174	-0.180224	-0.023943
C35	C	0.930491	-0.464616	-0.464724
C36	C	1.430491	0.035384	0.035276
C37	C	0.843241	-0.464632	-0.464735
C38	C	1.343241	0.035368	0.035265
C39	C	1.134381	-0.715248	-0.464722
C40	C	1.634381	-0.215248	0.035278
C41	C	1.134429	-0.822462	-0.464743
C42	C	1.634429	-0.322462	0.035257
C43	C	0.802266	-0.526397	-0.526318
C44	C	1.302266	-0.026397	-0.026318
C45	C	0.720285	-0.526400	-0.526333
C46	C	1.220285	-0.026400	-0.026333
C47	C	0.679282	-0.464640	-0.464761
C48	C	1.179282	0.035360	0.035239
C49	C	0.720263	-0.402867	-0.403175
C50	C	1.220263	0.097133	0.096825
C51	C	0.802242	-0.402861	-0.403165
C52	C	1.302242	0.097139	0.096835
C53	C	0.549393	-0.402886	-0.403198
C54	C	1.049393	0.097114	0.096802
C55	C	0.467408	-0.402894	-0.403207
C56	C	0.967408	0.097106	0.096793
C57	C	0.467436	-0.526425	-0.526366
C58	C	0.967436	-0.026425	-0.026366
C59	C	0.549415	-0.526419	-0.526357
C60	C	1.049415	-0.026419	-0.026357
C61	C	0.590391	-0.464647	-0.464770
C62	C	1.090391	0.035353	0.035230
C63	C	1.134511	-1.018757	-0.464803
C64	C	1.634511	-0.518757	0.035197
C65	C	1.134463	-0.909524	-0.464773
C66	C	1.634463	-0.409524	0.035227
C67	C	1.339183	-0.464652	-0.464778
C68	C	1.839183	0.035348	0.035222
C69	C	1.426433	-0.464659	-0.464789
C70	C	1.926433	0.035341	0.035211
C71	C	1.134494	-0.464548	-0.716344
C72	C	1.634494	0.035452	-0.216344
C73	C	1.134518	-0.464512	-0.823558
C74	C	1.634518	0.035488	-0.323558
C75	C	1.134518	-0.213040	-0.464800
C76	C	1.634518	0.286960	0.035200
C77	C	1.134551	-0.105826	-0.464820
C78	C	1.634551	0.394174	0.035180
C79	C	1.134539	-0.464447	-1.019853
C80	C	1.634539	0.035553	-0.519853
C81	C	1.134525	-0.464485	-0.910620
C82	C	1.634525	0.035515	-0.410620
C83	C	1.134428	-0.464649	-0.214136
C84	C	1.634428	0.035351	0.285864
C85	C	1.134557	-0.464413	-0.106923
C86	C	1.634557	0.035587	0.393077
H87	H	0.835645	-0.576693	-0.576455
H88	H	1.335645	-0.076693	-0.076455
N89	N	0.678381	-0.339766	-0.340294
N90	N	1.178381	0.160234	0.159706
N91	N	0.632662	-0.278345	-0.374347
N92	N	1.132662	0.221655	0.125653
H93	H	0.603083	-0.233779	-0.329936
H94	H	1.103083	0.266221	0.170064
N95	N	0.591289	-0.589518	-0.589248
N96	N	1.091289	-0.089518	-0.089248
N97	N	0.554697	-0.644666	-0.644230
N98	N	1.054697	-0.144666	-0.144230
H99	H	0.584270	-0.689230	-0.688650
H100	H	1.084270	-0.189230	-0.188650
N101	N	0.678414	-0.589486	-0.589228
N102	N	1.178414	-0.089486	-0.089228
N103	N	0.632696	-0.555634	-0.650759
N104	N	1.132696	-0.055634	-0.150759
H105	H	0.603121	-0.600191	-0.695179
H106	H	1.103121	-0.100191	-0.195179
N107	N	0.425573	-0.589528	-0.589261
N108	N	0.925573	-0.089528	-0.089261
N109	N	0.352379	-0.589531	-0.589261
N110	N	0.852379	-0.089531	-0.089261
H111	H	0.322809	-0.634101	-0.633673
H112	H	0.822809	-0.134101	-0.133673
H113	H	0.434025	-0.352592	-0.353080
H114	H	0.934025	0.147408	0.146920
H115	H	0.835603	-0.352560	-0.353023
H116	H	1.335603	0.147440	0.146977
N117	N	0.591237	-0.339771	-0.340295
N118	N	1.091237	0.160229	0.159705
N119	N	0.554620	-0.284630	-0.285325
N120	N	1.054620	0.215370	0.214675
H121	H	0.584172	-0.240056	-0.240899
H122	H	1.084172	0.259944	0.259101
