data_functionalizedCrystal
_audit_creation_method	'MofGen! by Chris Wilmer'
_symmetry_space_group_name_H-M	'P1'
_symmetry_Int_Tables_number	1
_symmetry_cell_setting	triclinic
loop_
_symmetry_equiv_pos_as_xyz
  x,y,z
_cell_length_a	16.992694
_cell_length_b	15.455313
_cell_length_c	16.992695
_cell_angle_alpha	92.847427
_cell_angle_beta	90.668223
_cell_angle_gamma	87.142206
loop_
_atom_site_label
_atom_site_type_symbol
_atom_site_fract_x
_atom_site_fract_y
_atom_site_fract_z
O1	O	1.054080	-0.072023	0.163694
O2	O	0.825681	-0.072048	0.161862
O3	O	0.938965	-0.072029	0.048579
O4	O	0.940797	-0.072042	0.276978
O5	O	0.932485	0.072232	0.055028
O6	O	0.819202	0.072213	0.168312
O7	O	1.047601	0.072238	0.170144
Cu8	Cu	0.932809	0.085398	0.169817
Cu9	Cu	0.940473	-0.085207	0.162189
O10	O	0.934317	0.072219	0.283428
C11	C	0.793081	0.000079	0.162731
C12	C	0.705597	0.000070	0.155702
C13	C	0.933369	0.000102	0.022443
C14	C	0.926341	0.000101	-0.065041
N15	N	0.927425	0.205392	0.175181
C16	C	0.659607	0.000066	0.223520
C17	C	0.577405	0.000079	0.216911
C18	C	0.541197	0.000088	0.142484
C19	C	0.587193	0.000094	0.074661
C20	C	0.669393	0.000088	0.081271
C21	C	0.295881	0.000113	0.115091
C22	C	0.213676	0.000116	0.108486
C23	C	0.203893	0.000103	0.250737
C24	C	0.286095	0.000091	0.257340
C25	C	0.332084	0.000102	0.189517
N26	N	0.457174	0.000098	0.135727
N27	N	0.416105	0.000098	0.196275
C28	C	1.080201	0.000109	0.169275
C29	C	1.167685	0.000113	0.176304
N30	N	0.945863	-0.205202	0.156819
C31	C	0.975571	0.250795	0.127074
C32	C	0.971507	0.341602	0.131139
C33	C	0.919301	0.387005	0.183315
C34	C	0.871149	0.341596	0.231424
C35	C	0.875210	0.250791	0.227355
C36	C	0.901772	0.658584	0.200858
C37	C	0.897717	0.749395	0.204926
C38	C	0.998074	0.749395	0.104639
C39	C	1.002133	0.658588	0.100578
C40	C	0.953979	0.613187	0.148684
N41	N	0.915147	0.479825	0.187473
N42	N	0.958129	0.520369	0.144522
C43	C	0.994158	0.000109	-0.111032
C44	C	0.987550	0.000100	-0.193233
C45	C	0.913123	0.000089	-0.229442
C46	C	0.845300	0.000078	-0.183445
C47	C	0.851910	0.000081	-0.101246
C48	C	0.885729	0.000074	-0.474757
C49	C	0.879124	0.000074	-0.556962
C50	C	1.021375	0.000094	-0.566744
C51	C	1.027977	0.000102	-0.484543
C52	C	0.960155	0.000087	-0.438554
N53	N	0.906366	0.000082	-0.313464
N54	N	0.966913	0.000087	-0.354533
C55	C	0.939913	0.000087	0.309563
C56	C	0.946942	0.000082	0.397047
H57	H	0.689081	0.000058	0.284126
H58	H	1.042774	0.000109	-0.230675
H59	H	0.315570	0.000074	0.317946
Cl60	Cl	0.832080	0.806468	0.270526
H61	H	0.796685	0.000073	-0.063801
H62	H	0.836004	0.213825	0.266527
Cl63	Cl	0.805513	0.398673	0.297014
H64	H	0.539963	0.000075	0.272136
H65	H	1.018087	0.213834	0.084591
Cl66	Cl	0.146074	0.000093	0.335994
H67	H	0.184198	0.000123	0.047876
Cl68	Cl	0.800465	0.000052	-0.416953
Cl69	Cl	1.087728	0.000132	-0.065520
Cl70	Cl	0.353686	0.000125	0.029827
H71	H	0.557705	0.000114	0.014061
Cl72	Cl	0.727210	0.000096	-0.003990
Cl73	Cl	1.121548	0.000088	-0.439031
H74	H	1.010711	0.378568	0.091966
H75	H	1.076591	0.000106	-0.604197
H76	H	1.044644	0.621622	0.058092
H77	H	0.784700	0.000063	-0.212933
Cl78	Cl	0.785551	0.000065	-0.602480
H79	H	0.862564	0.621625	0.240030
H80	H	1.037278	0.786369	0.065473
