data_functionalizedCrystal
_audit_creation_method	'MofGen! by Chris Wilmer'
_symmetry_space_group_name_H-M	'P1'
_symmetry_Int_Tables_number	1
_symmetry_cell_setting	triclinic
loop_
_symmetry_equiv_pos_as_xyz
  x,y,z
_cell_length_a	19.288864
_cell_length_b	14.421503
_cell_length_c	19.288865
_cell_angle_alpha	90.000948
_cell_angle_beta	83.136245
_cell_angle_gamma	90.021447
loop_
_atom_site_label
_atom_site_type_symbol
_atom_site_fract_x
_atom_site_fract_y
_atom_site_fract_z
O1	O	0.921353	0.077420	0.086638
O2	O	1.421353	0.577420	0.586638
O3	O	0.719092	0.077358	0.098327
O4	O	1.219092	0.577358	0.598327
O5	O	0.826067	0.077372	-0.008648
O6	O	1.326067	0.577372	0.491352
O7	O	0.814378	0.077405	0.193613
O8	O	1.314378	0.577405	0.693613
O9	O	0.826049	-0.076851	-0.008632
O10	O	1.326049	0.423149	0.491368
O11	O	0.719074	-0.076866	0.098343
O12	O	1.219074	0.423134	0.598343
O13	O	0.921335	-0.076804	0.086654
O14	O	1.421335	0.423196	0.586654
Cu15	Cu	0.820203	-0.090917	0.092500
Cu16	Cu	1.320203	0.409083	0.592500
Cu17	Cu	0.820224	0.091470	0.092481
Cu18	Cu	1.320224	0.591470	0.592481
O19	O	0.814360	-0.076818	0.193629
O20	O	1.314360	0.423182	0.693629
C21	C	0.693207	0.000238	0.097959
C22	C	1.193207	0.500238	0.597959
C23	C	0.616103	0.000213	0.096830
C24	C	1.116103	0.500213	0.596830
N25	N	0.820193	-0.219198	0.092513
N26	N	1.320193	0.280802	0.592513
C27	C	0.571407	0.000238	0.159598
C28	C	1.071407	0.500238	0.659598
C29	C	0.498960	0.000248	0.158537
C30	C	0.998960	0.500248	0.658537
C31	C	0.471212	0.000252	0.094705
C32	C	0.971212	0.500252	0.594705
C33	C	0.515918	0.000222	0.031929
C34	C	1.015918	0.500222	0.531929
C35	C	0.588364	0.000202	0.032991
C36	C	1.088364	0.500202	0.532991
C37	C	0.362956	0.054306	0.044520
C38	C	0.862956	0.554306	0.544520
C39	C	0.290512	0.054331	0.043460
C40	C	0.790512	0.554331	0.543460
C41	C	0.247767	0.000308	0.091425
C42	C	0.747767	0.500308	0.591425
C43	C	0.277473	-0.053729	0.140462
C44	C	0.777473	0.446271	0.640462
C45	C	0.349919	-0.053749	0.141524
C46	C	0.849919	0.446251	0.641524
C47	C	0.392658	0.000272	0.093546
C48	C	0.892658	0.500272	0.593546
C49	C	0.124514	0.000342	0.153047
C50	C	0.624514	0.500342	0.653047
C51	C	0.052066	0.000346	0.151984
C52	C	0.552066	0.500346	0.651984
C53	C	0.069026	0.000329	0.025374
C54	C	0.569026	0.500329	0.525374
C55	C	0.141473	0.000316	0.026439
C56	C	0.641473	0.500316	0.526439
C57	C	0.169212	0.000326	0.090277
C58	C	0.669212	0.500326	0.590277
C59	C	0.770720	-0.468858	0.141956
C60	C	1.270720	0.031142	0.641956
C61	C	0.833441	-0.530639	0.155241
C62	C	1.333441	-0.030639	0.655241
C63	C	0.820210	-0.408359	0.092496
C64	C	1.320210	0.091641	0.592496
C65	C	0.757505	-0.530673	0.079227
C66	C	1.257505	-0.030673	0.579227
C67	C	0.820221	-0.591081	0.092481
C68	C	1.320221	-0.091081	0.592481
C69	C	0.882963	-0.468779	0.105812
C70	C	1.382963	0.031221	0.605812
C71	C	0.806986	-0.468808	0.029771
C72	C	1.306986	0.031192	0.529771
C73	C	0.869753	-0.530560	0.043030
C74	C	1.369753	-0.030560	0.543030
C75	C	0.820203	-0.303098	0.092506
C76	C	1.320203	0.196902	0.592506
C77	C	0.820235	-0.696340	0.092471
C78	C	1.320235	-0.196340	0.592471
C79	C	0.947220	0.000318	0.087022
C80	C	1.447220	0.500318	0.587022
C81	C	1.024324	0.000349	0.088151
C82	C	1.524324	0.500349	0.588151
C83	C	0.825682	0.000257	-0.034516
C84	C	1.325682	0.500257	0.465484
C85	C	0.824553	0.000249	-0.111620
C86	C	1.324553	0.500249	0.388380
N87	N	0.820239	0.219752	0.092463
N88	N	1.320239	0.719752	0.592463
C89	C	0.887321	0.000264	-0.156316
C90	C	1.387321	0.500264	0.343684
C91	C	0.886260	0.000278	-0.228763
C92	C	1.386260	0.500278	0.271237
C93	C	0.822428	0.000259	-0.256511
C94	C	1.322428	0.500259	0.243489
C95	C	0.759652	0.000250	-0.211805
C96	C	1.259652	0.500250	0.288195
C97	C	0.760714	0.000244	-0.139359
C98	C	1.260714	0.500244	0.360641
C99	C	0.772242	-0.053778	-0.364793
C100	C	1.272242	0.446222	0.135207
C101	C	0.771182	-0.053778	-0.437237
C102	C	1.271182	0.446222	0.062763
C103	C	0.819148	0.000279	-0.479956
C104	C	1.319148	0.500279	0.020044
C105	C	0.868186	0.054324	-0.450224
C106	C	1.368186	0.554324	0.049776
C107	C	0.869248	0.054319	-0.377778
C108	C	1.369248	0.554319	0.122222
C109	C	0.821269	0.000265	-0.335065
C110	C	1.321269	0.500265	0.164935
C111	C	0.880770	0.000310	-0.603209
C112	C	1.380770	0.500310	-0.103209
C113	C	0.879707	0.000330	-0.675657
C114	C	1.379707	0.500330	-0.175657
C115	C	0.753097	0.000293	-0.658697
C116	C	1.253097	0.500293	-0.158697
C117	C	0.754162	0.000282	-0.586250
C118	C	1.254162	0.500282	-0.086250
C119	C	0.818001	0.000286	-0.558511
C120	C	1.318001	0.500286	-0.058511
C121	C	0.814745	0.000298	0.219497
C122	C	1.314745	0.500298	0.719497
C123	C	0.815874	0.000313	0.296601
C124	C	1.315874	0.500313	0.796601
H125	H	0.462561	0.000266	0.209652
H126	H	0.962561	0.500266	0.709652
O127	O	0.792136	-0.432791	-0.040460
O128	O	1.292136	0.067209	0.459540
H129	H	0.740026	-0.457534	-0.051349
H130	H	1.240026	0.042466	0.448651
H131	H	0.046435	0.000390	-0.026600
H132	H	0.546435	0.500390	0.473400
O133	O	0.690805	0.000228	-0.241732
O134	O	1.190805	0.500228	0.258268
H135	H	0.647335	0.000223	-0.198477
H136	H	1.147335	0.500223	0.301523
O137	O	0.189689	0.000297	-0.041261
O138	O	0.689689	0.500297	0.458739
H139	H	0.158225	0.000307	-0.085827
H140	H	0.658225	0.500307	0.414173
O141	O	0.258473	0.112598	-0.009433
O142	O	0.758473	0.612598	0.490567
H143	H	0.300367	0.150142	-0.042620
H144	H	0.800367	0.650142	0.457380
O145	O	0.956171	0.000294	-0.126395
O146	O	1.456171	0.500294	0.373605
H147	H	0.999640	0.000321	-0.169652
H148	H	1.499640	0.500321	0.330348
O149	O	0.231379	-0.112003	0.192201
O150	O	0.731379	0.387997	0.692201
H151	H	0.246220	-0.186071	0.185246
H152	H	0.746220	0.313929	0.685246
O153	O	0.409059	0.112583	-0.007213
O154	O	0.909059	0.612583	0.492787
H155	H	0.376232	0.150173	-0.041480
H156	H	0.876232	0.650173	0.458520
H157	H	0.493322	0.000238	-0.020044
H158	H	0.993322	0.500238	0.479956
H159	H	0.147101	0.000337	0.205028
H160	H	0.647101	0.500337	0.705028
O161	O	0.636579	0.000180	-0.034711
O162	O	1.136579	0.500180	0.465289
H163	H	0.605117	0.000187	-0.079278
H164	H	1.105117	0.500187	0.420722
H165	H	0.728909	-0.441766	0.183815
H166	H	1.228909	0.058234	0.683815
H167	H	0.374103	-0.097750	0.181449
H168	H	0.874103	0.402250	0.681449
H169	H	0.704472	-0.557862	0.068011
H170	H	1.204472	-0.057862	0.568011
H171	H	0.844636	-0.557798	0.208279
H172	H	1.344636	-0.057798	0.708279
O173	O	0.953228	-0.432932	0.120758
O174	O	1.453228	0.067068	0.620758
H175	H	0.952662	-0.355972	0.120675
H176	H	1.452662	0.144028	0.620675
O177	O	0.925251	-0.566242	-0.012383
O178	O	1.425251	-0.066242	0.487617
H179	H	0.977222	-0.541320	-0.001205
H180	H	1.477222	-0.041320	0.498795
H181	H	0.937375	0.000294	-0.265162
H182	H	1.437375	0.500294	0.234838
H183	H	0.733180	-0.097802	-0.330016
H184	H	1.233180	0.402198	0.169984
H185	H	0.909175	0.098327	-0.353573
H186	H	1.409175	0.598327	0.146427
O187	O	0.003857	0.000371	0.219690
O188	O	0.503857	0.500371	0.719690
H189	H	-0.029575	-0.062486	0.222246
H190	H	0.470425	0.437514	0.722246
O191	O	0.601317	0.000234	0.228454
O192	O	1.101317	0.500234	0.728454
H193	H	0.633942	0.063086	0.231969
H194	H	1.133942	0.563086	0.731969
O195	O	0.693010	0.000211	-0.091148
O196	O	1.193010	0.500211	0.408852
H197	H	0.662453	0.063057	-0.100983
H198	H	1.162453	0.563057	0.399017
H199	H	0.907244	0.098343	-0.485005
H200	H	1.407244	0.598343	0.014995
H201	H	0.932751	0.000318	-0.580622
H202	H	1.432751	0.500318	-0.080622
O203	O	0.947409	0.000339	-0.723871
O204	O	1.447409	0.500339	-0.223871
H205	H	0.991975	0.000329	-0.692408
H206	H	1.491975	0.500329	-0.192408
H207	H	0.701123	0.000282	-0.681288
H208	H	1.201123	0.500282	-0.181288
O209	O	0.686462	0.000243	-0.538034
O210	O	1.186462	0.500243	-0.038034
H211	H	0.641896	0.000221	-0.569498
H212	H	1.141896	0.500221	-0.069498
H213	H	0.731250	-0.097780	-0.461439
H214	H	1.231250	0.402220	0.038561
