data_functionalizedCrystal
_audit_creation_method	'MofGen! by Chris Wilmer'
_symmetry_space_group_name_H-M	'P1'
_symmetry_Int_Tables_number	1
_symmetry_cell_setting	triclinic
loop_
_symmetry_equiv_pos_as_xyz
  x,y,z
_cell_length_a	29.019771
_cell_length_b	29.019011
_cell_length_c	29.015668
_cell_angle_alpha	60.004890
_cell_angle_beta	60.009825
_cell_angle_gamma	59.993818
loop_
_atom_site_label
_atom_site_type_symbol
_atom_site_fract_x
_atom_site_fract_y
_atom_site_fract_z
O1	O	0.063866	-0.673289	0.563007
O2	O	0.024059	-0.524205	0.453633
O3	O	0.118464	-0.618532	0.453552
O4	O	-0.030540	-0.578962	0.563088
O5	O	0.149785	-0.587215	0.484789
O6	O	0.055379	-0.492888	0.484869
O7	O	0.095186	-0.641972	0.594244
Cu8	Cu	0.078143	-0.564571	0.542409
Cu9	Cu	0.041102	-0.601606	0.505468
O10	O	0.000781	-0.547645	0.594325
N11	N	0.104196	-0.538525	0.568394
N12	N	0.015054	-0.627656	0.479483
C13	C	0.143783	-0.499167	0.850823
C14	C	0.386758	-0.499111	0.607645
C15	C	0.143618	-0.499136	0.607763
C16	C	0.143598	-0.256029	0.607770
C17	C	0.182748	-0.373362	0.646852
C18	C	0.182758	-0.460025	0.646847
C19	C	0.204440	-0.438361	0.668500
C20	C	0.298958	-0.422064	0.618723
C21	C	0.358043	-0.441753	0.599006
C22	C	0.358069	-0.537354	0.635461
C23	C	0.298985	-0.517664	0.655180
C24	C	0.196983	-0.343808	0.588767
C25	C	0.177262	-0.284720	0.569090
C26	C	0.129075	-0.284743	0.665586
C27	C	0.148797	-0.343831	0.685263
C28	C	0.124666	-0.445760	0.661149
C29	C	0.104961	-0.465454	0.641458
C30	C	0.201435	-0.513678	0.593176
C31	C	0.221143	-0.493984	0.612860
C32	C	0.124738	-0.445777	0.763064
C33	C	0.105085	-0.465488	0.822151
C34	C	0.201594	-0.513722	0.822097
C35	C	0.221247	-0.494012	0.763009
C36	C	0.182817	-0.460038	0.733494
C37	C	0.269432	-0.460018	0.646809
C38	C	0.121399	-0.520450	0.915812
C39	C	0.451745	-0.520012	0.585655
C40	C	0.121177	-0.520429	0.586502
C41	C	0.121544	-0.191035	0.586883
C42	C	-0.110592	-0.666601	0.440035
C43	C	-0.023978	-0.666709	0.440231
C44	C	-0.045598	-0.688342	0.418486
C45	C	-0.061967	-0.782825	0.468184
C46	C	-0.042323	-0.841914	0.487907
C47	C	0.053280	-0.842025	0.451623
C48	C	0.033634	-0.782937	0.431899
C49	C	-0.140218	-0.680832	0.498102
C50	C	-0.199302	-0.661065	0.517690
C51	C	-0.199129	-0.612843	0.421140
C52	C	-0.140045	-0.632610	0.401552
C53	C	-0.038209	-0.608622	0.425941
C54	C	-0.018555	-0.588961	0.445716
C55	C	0.029562	-0.685470	0.494059
C56	C	0.009908	-0.705133	0.474291
C57	C	-0.038037	-0.608631	0.323917
C58	C	-0.018247	-0.588973	0.264830
C59	C	0.029955	-0.685489	0.264893
C60	C	0.010165	-0.705145	0.323981
C61	C	-0.023833	-0.666715	0.353492
C62	C	-0.023990	-0.753339	0.440182
N63	N	0.504925	-0.538487	0.568205
O64	O	0.685342	-0.543679	0.433426
O65	O	0.685533	-0.653395	0.582361
O66	O	0.685457	-0.653145	0.487904
O67	O	0.685418	-0.543929	0.527882
O68	O	0.591592	-0.621921	0.519268
O69	O	0.591667	-0.622171	0.613725
O70	O	0.591477	-0.512455	0.464790
Cu71	Cu	0.583001	-0.564462	0.542121
Cu72	Cu	0.694008	-0.601388	0.505029
O73	O	0.591553	-0.512705	0.559246
N74	N	0.772084	-0.627363	0.478939
N75	N	0.104168	-0.137853	0.568408
O76	O	-0.030538	0.042663	0.563097
O77	O	0.118403	0.042683	0.453379
O78	O	0.023918	0.042657	0.453664
O79	O	0.063947	0.042689	0.562813
O80	O	0.055242	-0.051215	0.484950
O81	O	0.149727	-0.051189	0.484666
O82	O	0.000787	-0.051210	0.594384
Cu83	Cu	0.078117	-0.059771	0.542381
Cu84	Cu	0.041072	0.051244	0.505382
O85	O	0.095272	-0.051184	0.594099
N86	N	0.015015	0.129326	0.479356
N87	N	0.104469	-0.538576	0.968995
O88	O	0.099171	-0.673268	1.149499
O89	O	-0.010519	-0.524279	1.149527
O90	O	-0.010265	-0.618748	1.149494
O91	O	0.098916	-0.578799	1.149533
O92	O	0.021008	-0.587443	1.055625
O93	O	0.020753	-0.492974	1.055659
O94	O	0.130444	-0.641963	1.055630
Cu95	Cu	0.078454	-0.564610	1.047074
Cu96	Cu	0.041470	-0.601632	1.158084
O97	O	0.130189	-0.547494	1.055664
N98	N	0.015455	-0.627672	1.236163
C99	C	0.035988	-0.489761	0.454182
C100	C	0.152897	-0.606574	0.454082
C101	C	0.083257	-0.676417	0.593694
C102	C	-0.033653	-0.559604	0.593794
C103	C	0.638623	-0.652892	0.616806
C104	C	0.638531	-0.652583	0.499833
C105	C	0.638384	-0.512957	0.430345
C106	C	0.638480	-0.513267	0.547317
C107	C	0.152789	-0.004135	0.453875
C108	C	0.035820	-0.004282	0.454266
C109	C	-0.033639	-0.004275	0.593849
C110	C	0.083370	-0.004245	0.593498
C111	C	-0.009989	-0.489856	1.102597
C112	C	-0.009667	-0.606839	1.102536
C113	C	0.129914	-0.676386	1.102561
C114	C	0.129599	-0.559396	1.102601
H115	H	0.057789	-0.453866	0.846219
O116	O	-0.050623	-0.617020	1.102575
C117	C	-0.098239	-0.610736	1.151167
H118	H	-0.084757	-0.616871	1.185182
H119	H	-0.118255	-0.643601	1.167439
H120	H	-0.130209	-0.566654	1.140172
H121	H	-0.076413	-0.004282	0.628294
O122	O	-0.051059	-0.438785	1.102505
C123	C	-0.066226	-0.413805	1.053893
H124	H	-0.029978	-0.432475	1.019910
H125	H	-0.075557	-0.366309	1.037585
H126	H	-0.105407	-0.422430	1.064876
H127	H	0.164353	-0.719173	1.102545
H128	H	0.638322	-0.478510	0.387573
O129	O	-0.084659	-0.549590	0.634902
C130	C	-0.077239	-0.555898	0.682445
H131	H	-0.032220	-0.584133	0.681862
H132	H	-0.108199	-0.575924	0.722537
H133	H	-0.085299	-0.512741	0.681380
H134	H	0.163899	-0.550848	1.102605
H135	H	0.093440	-0.418108	0.739036
O136	O	0.025745	-0.438649	0.413251
C137	C	-0.029717	-0.403636	0.433735
H138	H	-0.056461	-0.430873	0.469983
H139	H	-0.048673	-0.376578	0.398355
H140	H	-0.028865	-0.375146	0.449431
H141	H	0.091761	-0.719242	0.628046
O142	O	0.239002	-0.546728	0.850676
C143	C	0.294478	-0.555071	0.811904
H144	H	0.294342	-0.548466	0.769794
H145	H	0.322556	-0.599882	0.828953
H146	H	0.311396	-0.523614	0.805611
H147	H	0.268542	-0.505632	0.738936
O148	O	0.203740	-0.003922	0.412697
C149	C	0.228907	-0.052431	0.397320
H150	H	0.210474	-0.086594	0.433507
H151	H	0.276409	-0.068534	0.387855
H152	H	0.220190	-0.041391	0.358165
O153	O	0.025617	-0.004404	0.413406
C154	C	0.012336	-0.053028	0.432873
H155	H	0.030565	-0.086991	0.467921
H156	H	0.031164	-0.069364	0.396538
H157	H	-0.035459	-0.042047	0.449902
O158	O	0.638647	-0.693568	0.489625
C159	C	0.687290	-0.741145	0.495867
H160	H	0.721259	-0.727609	0.489731
H161	H	0.703594	-0.761160	0.462982
H162	H	0.676353	-0.773137	0.539935
O163	O	0.093696	-0.004271	0.634358
C164	C	0.149171	-0.004249	0.613782
H165	H	0.175857	-0.022013	0.577546
H166	H	0.168184	-0.031506	0.649120
H167	H	0.148331	0.040788	0.598042
H168	H	0.195693	-0.615009	0.419684
O169	O	0.638588	-0.693973	0.667857
C170	C	0.590009	-0.709174	0.692856
H171	H	0.555991	-0.672937	0.674220
H172	H	0.573734	-0.718518	0.740352
H173	H	0.601020	-0.748359	0.684211
O174	O	-0.227997	-0.674964	0.574119
C175	C	-0.189331	-0.709196	0.603884
H176	H	-0.147189	-0.730716	0.575758
H177	H	-0.206466	-0.742595	0.643290
H178	H	-0.183072	-0.681957	0.616673
H179	H	0.274901	-0.375125	0.611905
O180	O	0.638540	-0.472404	0.557561
C181	C	0.687188	-0.491816	0.570790
H182	H	0.703439	-0.539929	0.586977
H183	H	0.676274	-0.475512	0.604755
H184	H	0.721189	-0.475703	0.531339
O185	O	0.087356	-0.412691	0.694076
C186	C	0.053158	-0.363139	0.664268
H187	H	0.075946	-0.354912	0.616993
H188	H	0.044225	-0.325923	0.674845
H189	H	0.011648	-0.368512	0.676862
O190	O	0.048544	-0.451702	0.655371
C191	C	0.034294	-0.501356	0.685121
H192	H	0.073237	-0.538475	0.674441
H193	H	0.000017	-0.496076	0.672566
H194	H	0.018103	-0.509670	0.732412
O195	O	0.238753	-0.546579	0.560082
C196	C	0.272889	-0.516728	0.510535
H197	H	0.250050	-0.469457	0.502340
H198	H	0.281813	-0.527288	0.473309
H199	H	0.314406	-0.529298	0.515891
O200	O	0.277566	-0.507734	0.598908
C201	C	0.291806	-0.458075	0.569184
H202	H	0.258472	-0.422584	0.549210
H203	H	0.334686	-0.465842	0.534738
H204	H	0.293774	-0.445642	0.599569
H205	H	0.382132	-0.584293	0.642268
O206	O	0.270390	-0.554607	0.682428
C207	C	0.309146	-0.609710	0.685596
H208	H	0.351249	-0.607457	0.650685
H209	H	0.292068	-0.633962	0.680255
H210	H	0.315461	-0.632268	0.728407
H211	H	0.382082	-0.410845	0.576135
H212	H	0.224626	-0.367851	0.557490
H213	H	0.101438	-0.260698	0.696864
O214	O	0.191062	-0.256069	0.512650
C215	C	0.170824	-0.270493	0.488126
H216	H	0.165057	-0.313400	0.516136
H217	H	0.202467	-0.272499	0.444655
H218	H	0.128586	-0.237242	0.483754
O219	O	0.134938	-0.372456	0.741709
C220	C	0.100728	-0.333721	0.771391
H221	H	0.108246	-0.291594	0.743215
H222	H	0.111829	-0.350800	0.810812
H223	H	0.054449	-0.327446	0.784148
H224	H	-0.029822	-0.541673	0.240758
H225	H	-0.065723	-0.577332	0.347941
H226	H	0.057627	-0.716785	0.240872
H227	H	-0.065797	-0.577331	0.398207
O228	O	0.023996	-0.761590	0.352621
C229	C	0.058254	-0.791290	0.313902
H230	H	0.050793	-0.763111	0.271742
H231	H	0.047150	-0.830692	0.330944
H232	H	0.104519	-0.804085	0.307712
H233	H	-0.030145	-0.541661	0.434082
H234	H	0.021495	-0.752433	0.485928
O235	O	0.062538	-0.722852	0.527074
C236	C	0.112118	-0.757052	0.497299
H237	H	0.104254	-0.757622	0.462853
H238	H	0.124517	-0.801860	0.527649
H239	H	0.147672	-0.739333	0.477319
O240	O	0.070600	-0.754381	0.404731
C241	C	0.125674	-0.793178	0.401642
H242	H	0.123367	-0.835278	0.436543
H243	H	0.149907	-0.776139	0.407057
H244	H	0.148283	-0.799490	0.358829
O245	O	0.109254	-0.870844	0.443550
C246	C	0.129764	-0.905025	0.411400
H247	H	0.093298	-0.913828	0.415948
H248	H	0.162394	-0.946599	0.427143
H249	H	0.150184	-0.882288	0.365113
H250	H	-0.073247	-0.865920	0.510699
H251	H	-0.108889	-0.758731	0.474933
H252	H	-0.116238	-0.708516	0.529438
H253	H	-0.115923	-0.621016	0.354266
O254	O	-0.227657	-0.579815	0.383683
C255	C	-0.188838	-0.571516	0.328229
H256	H	-0.146741	-0.578167	0.328420
H257	H	-0.205843	-0.526703	0.300132
H258	H	-0.182539	-0.602968	0.311292
