data_functionalizedCrystal
_audit_creation_method	'MofGen! by Chris Wilmer'
_symmetry_space_group_name_H-M	'P1'
_symmetry_Int_Tables_number	1
_symmetry_cell_setting	triclinic
loop_
_symmetry_equiv_pos_as_xyz
  x,y,z
_cell_length_a	10.723023
_cell_length_b	9.798715
_cell_length_c	10.723023
_cell_angle_alpha	89.997861
_cell_angle_beta	95.532452
_cell_angle_gamma	90.003551
loop_
_atom_site_label
_atom_site_type_symbol
_atom_site_fract_x
_atom_site_fract_y
_atom_site_fract_z
O1	O	1.657187	0.113484	-0.175020
O2	O	1.294035	0.113487	-0.191774
O3	O	1.483988	0.113480	-0.001821
O4	O	1.467234	0.113491	-0.364973
O5	O	1.483974	-0.113502	-0.001820
O6	O	1.294021	-0.113495	-0.191774
O7	O	1.657173	-0.113498	-0.175019
Zn8	Zn	1.475595	-0.149535	-0.183396
Zn9	Zn	1.475613	0.149524	-0.183397
O10	O	1.467220	-0.113491	-0.364973
C11	C	1.247528	-0.000003	-0.190555
C12	C	1.108974	-0.000002	-0.186908
C13	C	0.903998	-0.117581	-0.181512
C14	C	1.047202	-0.117585	-0.185281
N15	N	1.475591	-0.353635	-0.183395
C16	C	1.555347	-0.421414	-0.103288
C17	C	1.555367	-0.578577	-0.103283
C18	C	1.703680	-0.000004	-0.176239
C19	C	1.842234	0.000003	-0.179886
C20	C	1.482762	-0.000010	0.044679
C21	C	1.479115	-0.000005	0.183233
N22	N	1.475627	0.353624	-0.183388
C23	C	1.468446	0.000002	-0.411473
C24	C	1.472093	0.000006	-0.550027
C25	C	1.477496	0.117580	0.244999
C26	C	1.473727	0.117587	0.388202
H27	H	0.895372	0.100668	-0.181292
H28	H	1.100318	-0.218253	-0.186674
H29	H	0.850859	-0.218246	-0.180120
H30	H	1.407319	-0.411956	-0.251971
H31	H	1.623611	-0.363094	-0.034702
H32	H	1.477702	-0.100669	0.236370
H33	H	1.478896	0.218244	0.191861
H34	H	1.623655	-0.636865	-0.034704
H35	H	1.407345	-0.588097	-0.251980
H36	H	1.472341	0.218257	0.441320
H37	H	1.055866	0.100671	-0.185506
H38	H	1.473491	-0.100668	0.396865
