data_functionalizedCrystal
_audit_creation_method	'MofGen! by Chris Wilmer'
_symmetry_space_group_name_H-M	'P1'
_symmetry_Int_Tables_number	1
_symmetry_cell_setting	triclinic
loop_
_symmetry_equiv_pos_as_xyz
  x,y,z
_cell_length_a	21.395364
_cell_length_b	16.959453
_cell_length_c	21.395355
_cell_angle_alpha	90.017325
_cell_angle_beta	90.024552
_cell_angle_gamma	90.034939
loop_
_atom_site_label
_atom_site_type_symbol
_atom_site_fract_x
_atom_site_fract_y
_atom_site_fract_z
Zn1	Zn	0.957906	-0.314458	0.354267
Zn2	Zn	0.957828	-0.446619	0.249491
Zn3	Zn	0.853121	-0.314492	0.249503
Zn4	Zn	0.853110	-0.446633	0.354232
O5	O	0.905491	-0.380550	0.301873
O6	O	1.045573	-0.331969	0.340378
O7	O	0.943910	-0.429100	0.161815
O8	O	0.867058	-0.203877	0.263420
O9	O	1.045516	-0.429067	0.263400
O10	O	0.944043	-0.203851	0.340389
O11	O	0.866983	-0.332028	0.161824
O12	O	0.765441	-0.332041	0.263386
O13	O	0.867039	-0.429091	0.441914
O14	O	0.765433	-0.429124	0.340329
O15	O	0.944032	-0.331982	0.441940
O16	O	0.943900	-0.557231	0.263366
O17	O	0.866963	-0.557242	0.340318
C18	C	0.742703	-0.380589	0.301856
C19	C	0.673062	-0.380624	0.301863
C20	C	0.640401	-0.330148	0.342007
C21	C	0.574966	-0.330127	0.342010
C22	C	0.542194	-0.380596	0.301874
C23	C	0.574863	-0.431076	0.261722
C24	C	0.640297	-0.431090	0.261717
C25	C	0.438480	-0.451779	0.296838
C26	C	0.373047	-0.451767	0.296848
C27	C	0.340373	-0.380553	0.301888
C28	C	0.373140	-0.309349	0.306932
C29	C	0.438574	-0.309363	0.306926
C30	C	0.471242	-0.380586	0.301876
C31	C	0.236760	-0.330050	0.342037
C32	C	0.171323	-0.330027	0.342036
C33	C	0.171221	-0.430983	0.261751
C34	C	0.236657	-0.430999	0.261750
C35	C	0.269422	-0.380533	0.301896
C36	C	0.905439	-0.585917	0.301850
C37	C	0.905474	-0.673773	0.301861
C38	C	0.945629	-1.045177	0.342027
C39	C	0.865529	-1.045320	0.261813
C40	C	0.865505	-0.962775	0.261798
C41	C	0.905544	-0.921426	0.301899
C42	C	0.945605	-0.962623	0.342015
C43	C	0.825440	-0.921571	0.221688
C44	C	0.825415	-0.839020	0.221673
C45	C	0.865457	-0.797670	0.261771
C46	C	0.905520	-0.838873	0.301888
C47	C	0.945559	-0.797524	0.341989
C48	C	0.985626	-0.838725	0.382103
C49	C	0.985647	-0.921273	0.382113
C50	C	0.865435	-0.715122	0.261760
C51	C	0.945535	-0.714971	0.341977
C52	C	1.068914	-0.380512	0.301891
C53	C	1.138556	-0.380496	0.301899
C54	C	0.905543	-0.380534	0.465297
C55	C	0.905565	-0.380527	0.534938
C56	C	0.905561	-0.174382	0.301910
C57	C	0.905590	-0.086525	0.301926
C58	C	0.905475	-0.380509	0.139086
C59	C	0.905575	-0.380293	0.069445
C60	C	0.945654	-0.329961	0.567665
C61	C	0.945653	-0.329927	0.633101
C62	C	0.905570	-0.380474	0.665806
C63	C	0.865474	-0.431044	0.633071
C64	C	0.865471	-0.431071	0.567637
C65	C	0.900605	-0.451647	0.769473
C66	C	0.900612	-0.451621	0.834906
C67	C	0.905574	-0.380390	0.867627
C68	C	0.910543	-0.309183	0.834907
C69	C	0.910540	-0.309210	0.769473
C70	C	0.905568	-0.380450	0.736759
C71	C	0.945664	-0.329783	0.971307
C72	C	0.945659	-0.329747	1.036744
C73	C	0.865482	-0.430871	1.036713
C74	C	0.865484	-0.430899	0.971277
C75	C	0.905578	-0.380356	0.938578
H76	H	0.144732	-0.288919	0.374725
Cl77	Cl	0.681589	-0.266704	0.392476
H78	H	0.896570	-0.509602	0.861541
H79	H	0.978301	-0.288804	0.541046
H80	H	0.144539	-0.472076	0.229072
Cl81	Cl	0.894385	-0.541205	0.728345
Cl82	Cl	1.036009	-0.973073	0.432540
Cl83	Cl	0.479765	-0.219855	0.313262
Cl84	Cl	0.815086	-0.494409	1.077822
Cl85	Cl	0.479549	-0.541314	0.290493
Cl86	Cl	0.995998	-1.096970	0.392451
H87	H	0.914584	-0.251230	0.742835
H88	H	0.832836	-0.472196	0.659704
Cl89	Cl	0.996063	-0.266240	0.930197
Cl90	Cl	0.815189	-1.097302	0.211412
H91	H	1.018223	-0.805050	0.414756
Cl92	Cl	0.775098	-0.973555	0.171291
Cl93	Cl	0.331861	-0.541279	0.290518
H94	H	0.548368	-0.289019	0.374699
Cl95	Cl	0.996071	-0.266184	1.077888
H96	H	0.792791	-0.805479	0.189010
Cl97	Cl	0.815068	-0.663330	0.211337
Cl98	Cl	0.996042	-0.266337	0.674253
Cl99	Cl	0.277718	-0.494455	0.211277
H100	H	0.832844	-0.472081	0.944630
Cl101	Cl	0.332072	-0.219817	0.313267
Cl102	Cl	0.916784	-0.219629	0.876035
H103	H	0.263439	-0.288952	0.374723
Cl104	Cl	0.533665	-0.494520	0.211263
Cl105	Cl	0.815070	-0.494646	0.526491
Cl106	Cl	0.681359	-0.494549	0.211244
H107	H	0.978142	-0.681310	0.374630
