data_functionalizedCrystal
_audit_creation_method	'MofGen! by Chris Wilmer'
_symmetry_space_group_name_H-M	'P1'
_symmetry_Int_Tables_number	1
_symmetry_cell_setting	triclinic
loop_
_symmetry_equiv_pos_as_xyz
  x,y,z
_cell_length_a	18.050590
_cell_length_b	19.120786
_cell_length_c	18.050582
_cell_angle_alpha	87.534997
_cell_angle_beta	90.000767
_cell_angle_gamma	92.454965
loop_
_atom_site_label
_atom_site_type_symbol
_atom_site_fract_x
_atom_site_fract_y
_atom_site_fract_z
Zn1	Zn	1.122683	-0.279875	-0.406968
Zn2	Zn	1.117303	-0.397324	-0.277476
Zn3	Zn	0.998503	-0.279863	-0.282826
Zn4	Zn	0.993162	-0.397273	-0.401660
O5	O	1.057913	-0.338584	-0.342232
O6	O	1.225893	-0.295481	-0.389772
O7	O	1.101527	-0.381759	-0.174260
O8	O	1.019463	-0.181576	-0.303754
O9	O	1.221940	-0.381770	-0.294635
O10	O	1.110698	-0.181584	-0.394960
O11	O	1.014246	-0.295462	-0.178191
O12	O	0.893871	-0.295412	-0.298608
O13	O	1.010359	-0.381683	-0.506290
O14	O	0.889947	-0.381672	-0.385915
O15	O	1.105518	-0.295431	-0.510189
O16	O	1.096348	-0.495606	-0.289489
O17	O	1.005142	-0.495569	-0.380727
C18	C	0.864963	-0.338536	-0.342267
C19	C	0.782417	-0.338532	-0.342298
C20	C	0.580848	-0.385575	-0.389652
C21	C	0.534340	-0.321532	-0.410818
C22	C	0.631285	-0.338571	-0.342260
C23	C	0.530710	-0.402651	-0.321091
C24	C	0.485298	-0.338615	-0.342224
C25	C	0.585866	-0.274494	-0.363463
C26	C	0.582238	-0.355657	-0.273703
C27	C	0.535754	-0.291570	-0.294846
C28	C	0.715384	-0.338547	-0.342282
C29	C	0.401201	-0.338632	-0.342202
C30	C	1.049602	-0.521073	-0.333967
C31	C	1.046114	-0.599142	-0.330457
C32	C	1.091941	-0.635763	-0.376332
C33	C	1.088661	-0.709118	-0.373034
C34	C	1.039557	-0.745850	-0.323857
C35	C	0.993725	-0.709224	-0.277980
C36	C	0.997002	-0.635871	-0.281282
C37	C	1.027285	-0.967333	-0.311513
C38	C	1.024014	-1.040691	-0.308213
C39	C	1.118949	-1.040580	-0.403269
C40	C	1.122225	-0.967226	-0.406563
C41	C	1.076390	-0.930606	-0.360689
C42	C	1.036205	-0.820831	-0.320483
C43	C	1.079739	-0.855627	-0.364067
C44	C	1.251616	-0.338632	-0.342199
C45	C	1.334161	-0.338653	-0.342184
C46	C	1.057943	-0.338553	-0.535939
C47	C	1.057956	-0.338539	-0.618486
C48	C	1.066277	-0.155382	-0.350546
C49	C	1.069841	-0.077312	-0.354089
C50	C	1.006250	-0.385379	-0.815819
C51	C	1.073231	-0.402560	-0.864416
C52	C	1.057995	-0.338486	-0.769619
C53	C	0.991052	-0.321285	-0.868104
C54	C	1.058027	-0.338435	-0.915606
C55	C	1.125011	-0.355700	-0.817127
C56	C	1.042788	-0.274395	-0.820812
C57	C	1.109817	-0.291552	-0.869388
C58	C	1.057976	-0.338517	-0.685519
C59	C	1.058054	-0.338404	-0.999704
C60	C	1.057927	-0.338564	-0.149281
C61	C	1.058067	-0.338379	-0.066744
H62	H	0.603317	-0.370113	-0.215757
F63	F	0.978498	-0.928369	-0.262695
H64	H	0.513276	-0.307095	-0.468780
H65	H	1.162209	-0.937320	-0.446607
H66	H	1.153638	-0.251875	-0.892704
H67	H	0.609908	-0.220305	-0.381418
H68	H	0.962527	-0.425087	-0.792366
F69	F	1.090069	-0.473374	-0.889578
H70	H	0.953741	-0.739137	-0.237942
H71	H	1.125984	-0.738932	-0.410385
H72	H	1.029885	-0.220233	-0.801546
F73	F	1.199042	-0.374775	-0.788013
F74	F	1.167724	-1.079559	-0.452090
F75	F	0.917039	-0.302296	-0.897338
H76	H	0.600722	-0.425254	-0.429779
H77	H	0.506573	-0.456824	-0.303204
F78	F	1.144209	-0.596677	-0.428670
F79	F	0.509962	-0.239581	-0.242443
F80	F	0.971750	-1.079783	-0.255868
H81	H	0.959684	-0.606054	-0.243926
F82	F	1.131993	-0.816532	-0.416407
F83	F	0.983943	-0.859930	-0.268150
