data_functionalizedCrystal
_audit_creation_method	'MofGen! by Chris Wilmer'
_symmetry_space_group_name_H-M	'P1'
_symmetry_Int_Tables_number	1
_symmetry_cell_setting	triclinic
loop_
_symmetry_equiv_pos_as_xyz
  x,y,z
_cell_length_a	13.033293
_cell_length_b	13.032721
_cell_length_c	17.077396
_cell_angle_alpha	97.153695
_cell_angle_beta	82.791103
_cell_angle_gamma	105.184121
loop_
_atom_site_label
_atom_site_type_symbol
_atom_site_fract_x
_atom_site_fract_y
_atom_site_fract_z
Zn1	Zn	1.570203	-0.216826	-0.614575
Zn2	Zn	1.547521	-0.394470	-0.498085
Zn3	Zn	1.392568	-0.239399	-0.468501
Zn4	Zn	1.369981	-0.416932	-0.614485
O5	O	1.470068	-0.316907	-0.548912
O6	O	1.715836	-0.221543	-0.611542
O7	O	1.526927	-0.373945	-0.384314
O8	O	1.435076	-0.087762	-0.475535
O9	O	1.699172	-0.352057	-0.525957
O10	O	1.565584	-0.071178	-0.582855
O11	O	1.413083	-0.260016	-0.362579
O12	O	1.240930	-0.281796	-0.475447
O13	O	1.396581	-0.390341	-0.724343
O14	O	1.224336	-0.412229	-0.582701
O15	O	1.543683	-0.243324	-0.724410
O16	O	1.505026	-0.546092	-0.525869
O17	O	1.374588	-0.562595	-0.611387
C18	C	1.194091	-0.351900	-0.525855
C19	C	1.076024	-0.366897	-0.516011
C20	C	1.031618	-0.309107	-0.554051
C21	C	0.909589	-0.324604	-0.543879
C22	C	1.434923	-0.592881	-0.571848
C23	C	1.419986	-0.710932	-0.581695
C24	C	1.477921	-0.755355	-0.543813
C25	C	1.462483	-0.877366	-0.553989
C26	C	1.747123	-0.281777	-0.572059
C27	C	1.865187	-0.266807	-0.581923
C28	C	1.470143	-0.316820	-0.753655
C29	C	1.470174	-0.316783	-0.840904
C30	C	1.505379	-0.039851	-0.525905
C31	C	1.520427	0.078214	-0.516101
C32	C	1.546773	-0.240226	-0.881930
C33	C	1.546790	-0.240189	-0.963909
C34	C	1.470212	-0.316715	-1.004861
C35	C	1.393606	-0.393277	-0.963829
C36	C	1.393585	-0.393308	-0.881851
C37	C	1.393656	-0.393207	-1.134697
C38	C	1.393678	-0.393177	-1.216681
C39	C	1.546862	-0.240088	-1.216755
C40	C	1.546841	-0.240119	-1.134777
C41	C	1.470235	-0.316683	-1.093751
C42	C	1.470065	-0.316908	-0.344964
C43	C	1.470277	-0.316620	-0.257707
H44	H	0.917506	-0.205847	-0.622020
H45	H	1.358960	-0.763227	-0.621665
Br46	Br	1.622164	-0.834639	-0.449488
Br47	Br	1.650713	-0.136370	-0.826361
H48	H	1.401454	-0.929658	-0.593961
Br49	Br	0.988826	-0.468478	-0.449169
Br50	Br	1.289671	-0.497130	-1.019405
Br51	Br	1.579655	-0.668201	-0.477205
Br52	Br	1.289619	-0.497206	-0.826171
H53	H	1.331320	-0.455490	-1.250022
Br54	Br	1.650794	-0.136328	-1.019592
H55	H	1.083942	-0.248153	-0.594146
H56	H	0.857269	-0.385556	-0.503776
H57	H	1.609203	-0.177810	-1.101437
H58	H	1.609236	-0.177746	-1.250162
H59	H	1.331261	-0.455539	-1.101294
