data_functionalizedCrystal
_audit_creation_method	'MofGen! by Chris Wilmer'
_symmetry_space_group_name_H-M	'P1'
_symmetry_Int_Tables_number	1
_symmetry_cell_setting	triclinic
loop_
_symmetry_equiv_pos_as_xyz
  x,y,z
_cell_length_a	16.959455
_cell_length_b	18.050589
_cell_length_c	16.959447
_cell_angle_alpha	89.973275
_cell_angle_beta	89.983056
_cell_angle_gamma	90.025168
loop_
_atom_site_label
_atom_site_type_symbol
_atom_site_fract_x
_atom_site_fract_y
_atom_site_fract_z
Zn1	Zn	1.208359	-0.295705	-0.446929
Zn2	Zn	1.708359	0.204295	0.053071
Zn3	Zn	1.208257	-0.419906	-0.314759
Zn4	Zn	1.708257	0.080094	0.185241
Zn5	Zn	1.076182	-0.295728	-0.314766
Zn6	Zn	1.576182	0.204272	0.185234
Zn7	Zn	1.076134	-0.419851	-0.446897
Zn8	Zn	1.576134	0.080149	0.053103
O9	O	1.142233	-0.357798	-0.380838
O10	O	1.642233	0.142202	0.119162
O11	O	1.318957	-0.312194	-0.429406
O12	O	1.818957	0.187806	0.070594
O13	O	1.190714	-0.403467	-0.204149
O14	O	1.690714	0.096533	0.295851
O15	O	1.093778	-0.191800	-0.332314
O16	O	1.593778	0.308200	0.167686
O17	O	1.318882	-0.403444	-0.332301
O18	O	1.818882	0.096556	0.167699
O19	O	1.190889	-0.191783	-0.429414
O20	O	1.690889	0.308217	0.070586
O21	O	1.093679	-0.312234	-0.204154
O22	O	1.593679	0.187766	0.295846
O23	O	0.965565	-0.312180	-0.332284
O24	O	1.465565	0.187820	0.167716
O25	O	1.093697	-0.403349	-0.557512
O26	O	1.593697	0.096651	-0.057512
O27	O	0.965529	-0.403372	-0.429360
O28	O	1.465529	0.096628	0.070640
O29	O	1.190842	-0.312140	-0.557536
O30	O	1.690842	0.187860	-0.057536
O31	O	1.190668	-0.523824	-0.332271
O32	O	1.690668	-0.023824	0.167729
O33	O	1.093597	-0.523783	-0.429353
O34	O	1.593597	-0.023783	0.070647
C35	C	0.936867	-0.357773	-0.380820
C36	C	1.436867	0.142227	0.119180
C37	C	0.849010	-0.357780	-0.380831
C38	C	1.349010	0.142220	0.119169
C39	C	0.477529	-0.310275	-0.330396
C40	C	0.977529	0.189725	0.169604
C41	C	0.477541	-0.405381	-0.431325
C42	C	0.977541	0.094619	0.068675
C43	C	0.560086	-0.405371	-0.431320
C44	C	1.060086	0.094629	0.068680
C45	C	0.601357	-0.357812	-0.380852
C46	C	1.101357	0.142188	0.119148
C47	C	0.560082	-0.310264	-0.330388
C48	C	1.060082	0.189736	0.169612
C49	C	0.601368	-0.452923	-0.481777
C50	C	1.101368	0.047077	0.018223
C51	C	0.683919	-0.452915	-0.481774
C52	C	1.183919	0.047085	0.018226
C53	C	0.725191	-0.405352	-0.431309
C54	C	1.225191	0.094648	0.068691
C55	C	0.683911	-0.357802	-0.380844
C56	C	1.183911	0.142198	0.119156
C57	C	0.725182	-0.310243	-0.330375
C58	C	1.225182	0.189757	0.169625
C59	C	0.683903	-0.262688	-0.279913
C60	C	1.183903	0.237312	0.220087
C61	C	0.601354	-0.262701	-0.279923
C62	C	1.101354	0.237299	0.220077
C63	C	0.807739	-0.405339	-0.431299
C64	C	1.307739	0.094661	0.068701
C65	C	0.807735	-0.310232	-0.330367
C66	C	1.307735	0.189768	0.169633
C67	C	1.142138	-0.550750	-0.380825
C68	C	1.642138	-0.050750	0.119175
C69	C	1.142169	-0.633295	-0.380846
C70	C	1.642169	-0.133295	0.119154
C71	C	1.089434	-0.832751	-0.433620
C72	C	1.589434	-0.332751	0.066380
C73	C	1.070168	-0.882194	-0.361493
C74	C	1.570168	-0.382194	0.138507
C75	C	1.142247	-0.784426	-0.380856
C76	C	1.642247	-0.284426	0.119144
C77	C	1.161552	-0.882064	-0.452991
C78	C	1.661552	-0.382064	0.047009
C79	C	1.142320	-0.930411	-0.380872
C80	C	1.642320	-0.430411	0.119128
C81	C	1.122943	-0.832782	-0.308691
C82	C	1.622943	-0.332782	0.191309
C83	C	1.214360	-0.832648	-0.400237
C84	C	1.714360	-0.332648	0.099763
C85	C	1.195121	-0.882069	-0.328061
C86	C	1.695121	-0.382069	0.171939
C87	C	1.142202	-0.700328	-0.380848
C88	C	1.642202	-0.200328	0.119152
C89	C	1.142365	-1.014507	-0.380872
C90	C	1.642365	-0.514507	0.119128
C91	C	1.348401	-0.357823	-0.380857
C92	C	1.848401	0.142177	0.119143
C93	C	1.436258	-0.357833	-0.380864
C94	C	1.936258	0.142167	0.119136
C95	C	1.142275	-0.357736	-0.587006
C96	C	1.642275	0.142264	-0.087006
C97	C	1.142293	-0.357709	-0.674863
C98	C	1.642293	0.142291	-0.174863
C99	C	1.142350	-0.164092	-0.380868
C100	C	1.642350	0.335908	0.119132
C101	C	1.142400	-0.081546	-0.380881
C102	C	1.642400	0.418454	0.119119
C103	C	1.091841	-0.310130	-1.046348
C104	C	1.591841	0.189870	-0.546348
C105	C	1.192885	-0.405132	-1.046329
C106	C	1.692885	0.094868	-0.546329
C107	C	1.192871	-0.405150	-0.963784
C108	C	1.692871	0.094850	-0.463784
C109	C	1.142341	-0.357657	-0.922516
C110	C	1.642341	0.142343	-0.422516
C111	C	1.091824	-0.310148	-0.963794
C112	C	1.591824	0.189852	-0.463794
C113	C	1.243381	-0.452664	-0.922499
C114	C	1.743381	0.047336	-0.422499
C115	C	1.243369	-0.452683	-0.839948
C116	C	1.743369	0.047317	-0.339948
C117	C	1.192842	-0.405187	-0.798679
C118	C	1.692842	0.094813	-0.298679
C119	C	1.142324	-0.357675	-0.839962
C120	C	1.642324	0.142325	-0.339962
C121	C	1.091794	-0.310182	-0.798695
C122	C	1.591794	0.189818	-0.298695
C123	C	1.041279	-0.262666	-0.839977
C124	C	1.541279	0.237334	-0.339977
C125	C	1.041298	-0.262651	-0.922525
C126	C	1.541298	0.237349	-0.422525
C127	C	1.192824	-0.405202	-0.716130
C128	C	1.692824	0.094798	-0.216130
C129	C	1.091777	-0.310200	-0.716141
C130	C	1.591777	0.189800	-0.216141
C131	C	1.142236	-0.357805	-0.175472
C132	C	1.642236	0.142195	0.324528
C133	C	1.142372	-0.357623	-0.087615
C134	C	1.642372	0.142377	0.412385
H135	H	0.443916	-0.271555	-0.289313
H136	H	0.943916	0.228445	0.210687
C137	C	0.988997	-0.989143	-0.338913
C138	C	1.488997	-0.489143	0.161087
C139	C	0.987887	-0.911579	-0.339363
C140	C	1.487887	-0.411579	0.160637
H141	H	0.938200	-1.007280	-0.325250
H142	H	1.438200	-0.507280	0.174750
H143	H	1.003044	-1.006736	-0.389785
H144	H	1.503044	-0.506736	0.110215
H145	H	1.026492	-1.006016	-0.301386
H146	H	1.526492	-0.506016	0.198614
H147	H	0.950396	-0.894706	-0.376895
H148	H	1.450396	-0.394706	0.123105
H149	H	0.973831	-0.893979	-0.288484
H150	H	1.473831	-0.393979	0.211516
H151	H	0.717521	-0.491636	-0.522864
H152	H	1.217521	0.008364	-0.022864
C153	C	1.312403	-0.953764	-0.306652
C154	C	1.812403	-0.453764	0.193348
C155	C	1.255455	-0.911129	-0.267769
C156	C	1.755455	-0.411129	0.232231
H157	H	1.349648	-0.971702	-0.269428
H158	H	1.849648	-0.471702	0.230572
H159	H	1.287577	-0.994419	-0.332097
H160	H	1.787577	-0.494419	0.167903
H161	H	1.338614	-0.924080	-0.344792
H162	H	1.838614	-0.424080	0.155208
H163	H	1.229240	-0.940814	-0.229633
H164	H	1.729240	-0.440814	0.270367
H165	H	1.280283	-0.870468	-0.242311
H166	H	1.780283	-0.370468	0.257689
C167	C	1.281799	-0.578418	-0.947884
C168	C	1.781799	-0.078418	-0.447884
C169	C	1.298919	-0.504871	-0.967855
C170	C	1.798919	-0.004871	-0.467855
H171	H	1.316086	-0.610649	-0.975890
H172	H	1.816086	-0.110649	-0.475890
H173	H	1.289018	-0.585223	-0.892819
H174	H	1.789018	-0.085223	-0.392819
H175	H	1.228685	-0.589264	-0.961412
H176	H	1.728685	-0.089264	-0.461412
H177	H	1.352032	-0.494023	-0.954321
H178	H	1.852032	0.005977	-0.454321
H179	H	1.291707	-0.498062	-1.022932
H180	H	1.791707	0.001938	-0.522932
H181	H	1.106573	-0.811223	-0.247677
H182	H	1.606573	-0.311223	0.252323
H183	H	1.275296	-0.810870	-0.416650
H184	H	1.775296	-0.310870	0.083350
C185	C	0.575922	-0.578720	-0.520074
C186	C	1.075922	-0.078720	-0.020074
C187	C	0.556011	-0.505191	-0.537262
C188	C	1.056011	-0.005191	-0.037262
H189	H	0.547916	-0.610986	-0.554332
H190	H	1.047916	-0.110986	-0.054332
H191	H	0.630987	-0.585516	-0.527285
H192	H	1.130987	-0.085516	-0.027285
H193	H	0.562354	-0.589528	-0.466950
H194	H	1.062354	-0.089528	0.033050
H195	H	0.569585	-0.494382	-0.590384
H196	H	1.069585	0.005618	-0.090384
H197	H	0.500934	-0.498392	-0.530058
H198	H	1.000934	0.001608	-0.030058
H199	H	1.050632	-0.271522	-0.682547
H200	H	1.550632	0.228478	-0.182547
C201	C	0.996393	-0.220519	-0.713437
C202	C	1.496393	0.279481	-0.213437
C203	C	0.985738	-0.210463	-0.794609
C204	C	1.485738	0.289537	-0.294609
H205	H	0.962108	-0.188289	-0.685429
H206	H	1.462108	0.311711	-0.185429
H207	H	0.984789	-0.270415	-0.699907
H208	H	1.484789	0.229585	-0.199907
H209	H	1.049509	-0.209663	-0.699925
H210	H	1.549509	0.290337	-0.199925
H211	H	0.932623	-0.221325	-0.808122
H212	H	1.432623	0.278675	-0.308122
H213	H	0.997337	-0.160556	-0.808145
H214	H	1.497337	0.339444	-0.308145
C215	C	1.237657	-0.447414	-0.589582
C216	C	1.737657	0.052586	-0.089582
C217	C	1.248341	-0.457428	-0.670753
C218	C	1.748341	0.042572	-0.170753
H219	H	1.271931	-0.479662	-0.561570
H220	H	1.771931	0.020338	-0.061570
H221	H	1.249260	-0.397527	-0.576074
H222	H	1.749260	0.102473	-0.076074
H223	H	1.184536	-0.458276	-0.576053
H224	H	1.684536	0.041724	-0.076053
H225	H	1.301461	-0.446561	-0.684283
H226	H	1.801461	0.053439	-0.184283
H227	H	1.236743	-0.507326	-0.684266
H228	H	1.736743	-0.007326	-0.184266
C229	C	0.996456	-0.220448	-1.049073
C230	C	1.496456	0.279552	-0.549073
C231	C	0.985772	-0.210428	-0.967903
C232	C	1.485772	0.289572	-0.467903
H233	H	0.962173	-0.188211	-1.077088
H234	H	1.462173	0.311789	-0.577088
H235	H	1.049567	-0.209582	-1.062605
H236	H	1.549567	0.290418	-0.562605
H237	H	0.984858	-0.270345	-1.062576
H238	H	1.484858	0.229655	-0.562576
H239	H	0.997375	-0.160532	-0.954400
H240	H	1.497375	0.339468	-0.454400
H241	H	0.932648	-0.221289	-0.954366
H242	H	1.432648	0.278711	-0.454366
H243	H	0.443933	-0.444106	-0.472410
H244	H	0.943933	0.055894	0.027590
C245	C	0.474809	-0.220485	-0.235128
C246	C	0.974809	0.279515	0.264872
C247	C	0.555980	-0.210429	-0.224463
C248	C	1.055980	0.289571	0.275537
H249	H	0.446796	-0.188215	-0.200888
H250	H	0.946796	0.311785	0.299112
H251	H	0.461314	-0.209685	-0.288254
H252	H	0.961314	0.290315	0.211746
H253	H	0.461268	-0.270372	-0.223463
H254	H	0.961268	0.229628	0.276537
H255	H	0.569522	-0.160543	-0.236134
H256	H	1.069522	0.339457	0.263866
H257	H	0.569481	-0.221224	-0.171325
H258	H	1.069481	0.278776	0.328675
H259	H	1.177851	-0.903713	-0.513989
H260	H	1.677851	-0.403713	-0.013989
H261	H	1.050716	-0.271441	-1.079963
H262	H	1.550716	0.228559	-0.579963
H263	H	0.717516	-0.223969	-0.238818
H264	H	1.217516	0.276031	0.261182
C265	C	0.799456	-0.499351	-0.531061
C266	C	1.299456	0.000649	-0.031061
C267	C	0.853113	-0.457603	-0.486764
C268	C	1.353113	0.042397	0.013236
H269	H	0.827469	-0.531613	-0.565308
H270	H	1.327469	-0.031613	-0.065308
H271	H	0.767241	-0.527722	-0.496572
H272	H	1.267241	-0.027722	0.003428
H273	H	0.767276	-0.467027	-0.561355
H274	H	1.267276	0.032973	-0.061355
H275	H	0.885289	-0.489927	-0.456465
H276	H	1.385289	0.010073	0.043535
H277	H	0.885341	-0.429230	-0.521257
H278	H	1.385341	0.070770	-0.021257
H279	H	1.234018	-0.443804	-1.079935
H280	H	1.734018	0.056196	-0.579935
H281	H	1.044707	-0.811095	-0.478178
H282	H	1.544707	-0.311095	0.021822
H283	H	1.284500	-0.491375	-0.806343
H284	H	1.784500	0.008625	-0.306343
C285	C	0.799431	-0.216225	-0.230597
C286	C	1.299431	0.283775	0.269403
C287	C	0.853097	-0.257957	-0.274885
C288	C	1.353097	0.242043	0.225115
H289	H	0.827437	-0.183957	-0.196342
H290	H	1.327437	0.316043	0.303658
H291	H	0.767263	-0.187861	-0.265092
H292	H	1.267263	0.312139	0.234908
H293	H	0.767205	-0.248559	-0.200312
H294	H	1.267205	0.251441	0.299688
H295	H	0.885319	-0.225624	-0.305175
H296	H	1.385319	0.274376	0.194825
H297	H	0.885278	-0.286324	-0.240386
H298	H	1.385278	0.213676	0.259614
