data_functionalizedCrystal
_audit_creation_method	'MofGen! by Chris Wilmer'
_symmetry_space_group_name_H-M	'P1'
_symmetry_Int_Tables_number	1
_symmetry_cell_setting	triclinic
loop_
_symmetry_equiv_pos_as_xyz
  x,y,z
_cell_length_a	18.050589
_cell_length_b	18.050591
_cell_length_c	14.908308
_cell_angle_alpha	86.726628
_cell_angle_beta	86.730698
_cell_angle_gamma	90.024669
loop_
_atom_site_label
_atom_site_type_symbol
_atom_site_fract_x
_atom_site_fract_y
_atom_site_fract_z
Zn1	Zn	-0.319953	1.111075	0.510227
Zn2	Zn	-0.436989	1.118145	0.359380
Zn3	Zn	-0.312809	0.994054	0.359373
Zn4	Zn	-0.444096	0.986845	0.510175
O5	O	-0.378462	1.052530	0.434789
O6	O	-0.335494	1.215936	0.490242
O7	O	-0.414552	1.107661	0.233138
O8	O	-0.209833	1.009636	0.379403
O9	O	-0.421479	1.221131	0.379415
O10	O	-0.215082	1.095610	0.490235
O11	O	-0.323318	1.016492	0.233133
O12	O	-0.330209	0.889175	0.379353
O13	O	-0.433592	0.997348	0.636423
O14	O	-0.426665	0.883878	0.490147
O15	O	-0.342385	1.088619	0.636461
O16	O	-0.541855	1.100670	0.379365
O17	O	-0.547077	1.004204	0.490153
C18	C	-0.378434	0.859580	0.434744
C19	C	-0.378440	0.777034	0.434746
C20	C	-0.325943	0.531061	0.374639
C21	C	-0.311763	0.576585	0.456967
C22	C	-0.378482	0.479910	0.434820
C23	C	-0.392607	0.581469	0.352460
C24	C	-0.378459	0.625897	0.434779
C25	C	-0.364269	0.524345	0.517192
C26	C	-0.445141	0.529227	0.412629
C27	C	-0.430990	0.574727	0.495014
C28	C	-0.378493	0.395811	0.434842
C29	C	-0.378449	0.709994	0.434766
C30	C	-0.571413	1.052441	0.434774
C31	C	-0.653960	1.052469	0.434798
C32	C	-0.856276	1.000061	0.495024
C33	C	-0.901808	0.985870	0.412702
C34	C	-0.805091	1.052542	0.434810
C35	C	-0.906641	1.066768	0.517140
C36	C	-0.951077	1.052610	0.434828
C37	C	-0.849534	1.038318	0.352445
C38	C	-0.854365	1.119245	0.456938
C39	C	-0.899872	1.105083	0.374560
C40	C	-0.720992	1.052501	0.434800
C41	C	-1.035174	1.052652	0.434828
C42	C	-0.184758	1.052638	0.434824
C43	C	-0.102213	1.052685	0.434839
C44	C	-0.389578	1.041391	0.670091
C45	C	-0.394315	1.036644	0.770362
C46	C	-0.378491	1.246233	0.434835
C47	C	-0.378503	1.328778	0.434854
C48	C	-0.367335	1.063669	0.200403
C49	C	-0.362389	1.068559	0.100132
C50	C	-0.308226	1.122763	0.958824
C51	C	-0.312674	1.118305	1.053038
C52	C	-0.407656	1.023267	1.053006
C53	C	-0.403208	1.027725	0.958792
C54	C	-0.353492	1.077475	0.911704
C55	C	-0.349048	1.081936	0.817488
C56	C	-0.444026	0.986895	0.817458
C57	C	-0.448474	0.982437	0.911672
H58	H	-0.352246	0.499471	0.586846
O59	O	-0.939696	1.082679	0.609356
H60	H	-0.922310	1.039004	0.659194
H61	H	-0.475413	0.593853	0.545949
H62	H	-0.448133	0.982763	1.091361
H63	H	-0.404563	0.606434	0.282826
O64	O	-0.502092	0.928777	0.962459
H65	H	-0.497583	0.933285	1.035889
H66	H	-0.837036	0.955621	0.545872
H67	H	-0.308567	1.122446	0.779151
H68	H	-0.275812	1.155181	1.091399
O69	O	-0.519798	0.501594	0.387754
H70	H	-0.531405	0.524549	0.319342
O71	O	-0.929459	0.911194	0.387903
H72	H	-0.912090	0.867694	0.437972
O73	O	-0.816606	1.022322	0.260199
H74	H	-0.755152	1.022389	0.260925
O75	O	-0.492848	0.938025	0.766655
H76	H	-0.528617	0.973260	0.723725
O77	O	-0.267072	0.505525	0.307332
H78	H	-0.211783	0.524452	0.325956
O79	O	-0.237085	0.604197	0.481816
H80	H	-0.193575	0.586803	0.431781
O81	O	-0.925176	1.163917	0.307052
H82	H	-0.902090	1.151957	0.238815
H83	H	-0.267749	1.163275	0.920485
O84	O	-0.826854	1.193993	0.481653
H85	H	-0.849863	1.205681	0.550012
