data_functionalizedCrystal
_audit_creation_method	'MofGen! by Chris Wilmer'
_symmetry_space_group_name_H-M	'P1'
_symmetry_Int_Tables_number	1
_symmetry_cell_setting	triclinic
loop_
_symmetry_equiv_pos_as_xyz
  x,y,z
_cell_length_a	17.699083
_cell_length_b	26.210047
_cell_length_c	17.699083
_cell_angle_alpha	89.996398
_cell_angle_beta	83.283015
_cell_angle_gamma	90.002990
loop_
_atom_site_label
_atom_site_type_symbol
_atom_site_fract_x
_atom_site_fract_y
_atom_site_fract_z
O1	O	1.004082	0.042358	0.095700
O2	O	0.783704	0.042375	0.108153
O3	O	0.900119	0.042362	-0.008263
O4	O	0.887667	0.042372	0.212116
O5	O	0.900097	-0.042496	-0.008244
O6	O	0.783681	-0.042483	0.108171
O7	O	1.004060	-0.042500	0.095719
Cu8	Cu	0.893868	-0.050239	0.101946
Cu9	Cu	0.893895	0.050115	0.101925
O10	O	0.887644	-0.042486	0.212134
C11	C	0.755495	-0.000052	0.107716
C12	C	0.671477	-0.000045	0.106377
N13	N	0.893855	-0.120823	0.101961
C14	C	0.622856	-0.000042	0.174711
C15	C	0.543913	-0.000049	0.173448
C16	C	0.513592	-0.000055	0.103852
C17	C	0.562219	-0.000059	0.035513
C18	C	0.641161	-0.000056	0.036776
C19	C	0.243856	-0.000072	0.030418
C20	C	0.164908	-0.000074	0.029160
C21	C	0.146608	-0.000065	0.167090
C22	C	0.225550	-0.000062	0.168353
C23	C	0.274170	-0.000069	0.100015
C24	C	0.359769	-0.000063	0.101384
C25	C	0.427995	-0.000058	0.102481
C26	C	0.945438	-0.473343	0.050388
C27	C	0.945455	-0.687002	0.050377
O28	O	0.989284	-0.714629	0.006531
N29	N	0.893899	-0.713717	0.101908
C30	C	0.842332	-0.687015	0.153442
O31	O	0.798475	-0.714640	0.197267
C32	C	0.842312	-0.473357	0.153449
C33	C	0.893877	-0.446644	0.101919
C34	C	0.996998	-0.446631	-0.001138
C35	C	0.996996	-0.393219	-0.001132
C36	C	0.945434	-0.366520	0.050400
C37	C	0.893875	-0.393233	0.101925
C38	C	0.790742	-0.446655	0.204978
C39	C	0.790740	-0.393238	0.204974
C40	C	0.842305	-0.366525	0.153445
C41	C	0.842311	-0.313123	0.153463
N42	N	0.893867	-0.286407	0.101932
C43	C	0.945429	-0.313106	0.050400
C44	C	0.842347	-0.799188	0.153436
C45	C	0.842352	-0.852602	0.153436
C46	C	0.945475	-0.852586	0.050370
C47	C	0.945472	-0.799171	0.050374
C48	C	0.893903	-0.772473	0.101905
C49	C	0.945421	-0.200938	0.050417
C50	C	0.945417	-0.147522	0.050429
C51	C	0.842292	-0.147543	0.153493
C52	C	0.842299	-0.200955	0.153483
C53	C	0.893866	-0.227651	0.101939
O54	O	0.798499	-0.285463	0.197280
O55	O	0.989268	-0.285471	0.006571
C56	C	0.945440	-0.526755	0.050382
C57	C	0.893880	-0.553467	0.101908
C58	C	0.842319	-0.526769	0.153439
C59	C	0.893886	-0.606881	0.101907
C60	C	0.945448	-0.633580	0.050375
C61	C	0.997004	-0.606865	-0.001156
C62	C	0.997002	-0.553454	-0.001150
C63	C	0.790763	-0.553484	0.204970
C64	C	0.790769	-0.606895	0.204961
C65	C	0.842331	-0.633594	0.153429
C66	C	1.032268	-0.000072	0.096156
C67	C	1.116286	-0.000074	0.097494
C68	C	0.899662	-0.000067	-0.036451
C69	C	0.898323	-0.000067	-0.120469
N70	N	0.893914	0.120699	0.101904
C71	C	0.966656	-0.000073	-0.169090
C72	C	0.965394	-0.000069	-0.248033
C73	C	0.895798	-0.000062	-0.278354
C74	C	0.827459	-0.000054	-0.229727
C75	C	0.828722	-0.000055	-0.150785
C76	C	0.822364	-0.000050	-0.548090
C77	C	0.821106	-0.000050	-0.627038
C78	C	0.959036	-0.000063	-0.645338
C79	C	0.960299	-0.000064	-0.566396
C80	C	0.891961	-0.000054	-0.517776
C81	C	0.893330	-0.000058	-0.432177
C82	C	0.894427	-0.000061	-0.363951
C83	C	0.888102	-0.000056	0.240322
C84	C	0.889440	-0.000053	0.324340
H85	H	0.504328	-0.000046	0.229092
H86	H	0.140225	-0.000079	-0.027517
H87	H	0.770792	-0.000045	-0.254420
O88	O	0.099269	-0.000085	0.233406
C89	C	0.023090	-0.000079	0.217374
H90	H	0.020171	-0.016150	0.157936
H91	H	-0.012755	-0.024712	0.260949
H92	H	0.000254	0.040631	0.220273
H93	H	0.987410	-0.125774	0.008468
O94	O	0.792137	-0.226827	0.203565
C95	C	0.746641	-0.191805	0.249063
H96	H	0.745856	-0.153725	0.218040
H97	H	0.686176	-0.207237	0.260673
H98	H	0.771101	-0.186135	0.305264
O99	O	1.047161	-0.632726	-0.051247
C100	C	1.092658	-0.597701	-0.096749
H101	H	1.093467	-0.559626	-0.065721
H102	H	1.153117	-0.613137	-0.108380
H103	H	1.068183	-0.592017	-0.152940
H104	H	0.283434	-0.000079	-0.025228
H105	H	0.537526	-0.000072	-0.021154
O106	O	1.025492	-0.000089	-0.692461
C107	C	1.087188	-0.000084	-0.648770
H108	H	1.067862	-0.016150	-0.589814
H109	H	1.135052	-0.024724	-0.677977
H110	H	1.108540	0.040624	-0.643188
H111	H	1.038991	-0.531708	-0.043110
O112	O	0.254909	0.000013	0.236008
C113	C	0.230064	0.043969	0.277636
H114	H	0.175352	0.058618	0.257102
H115	H	0.218985	0.034088	0.340687
H116	H	0.275763	0.074745	0.268783
O117	O	0.792309	-0.121546	0.203577
C118	C	0.832746	-0.090657	0.250234
H119	H	0.892029	-0.082655	0.220022
H120	H	0.801136	-0.053096	0.262237
H121	H	0.837772	-0.111240	0.306172
H122	H	0.800351	-0.777454	0.195401
H123	H	1.038982	-0.371473	-0.043093
H124	H	0.987411	-0.222668	0.008444
H125	H	0.680748	-0.000059	-0.018868
H126	H	0.773078	-0.000050	-0.111198
H127	H	0.748781	-0.628641	0.246928
H128	H	1.038986	-0.468364	-0.043104
O129	O	1.034245	-0.000170	-0.139604
C130	C	1.039088	-0.044112	-0.094469
H131	H	0.999564	-0.074828	-0.113059
H132	H	1.100096	-0.058867	-0.101670
H133	H	1.021522	-0.034175	-0.032182
O134	O	0.753430	-0.000017	-0.656366
C135	C	0.693382	-0.000019	-0.596526
H136	H	0.714503	0.016044	-0.542937
H137	H	0.644796	0.024625	-0.612942
H138	H	0.672292	-0.040726	-0.585311
O139	O	0.995586	-0.773303	0.000243
C140	C	1.041108	-0.808329	-0.045221
H141	H	1.010082	-0.846406	-0.046032
H142	H	1.052769	-0.792897	-0.105683
H143	H	1.097283	-0.814006	-0.020715
H144	H	0.748743	-0.371503	0.246936
H145	H	1.016971	-0.000072	-0.541714
O146	O	0.792195	-0.878469	0.203525
C147	C	0.746699	-0.843443	0.249016
H148	H	0.745906	-0.805367	0.217982
H149	H	0.686236	-0.858877	0.260638
H150	H	0.771165	-0.837762	0.305211
O151	O	0.740576	-0.472516	0.255062
C152	C	0.695083	-0.437487	0.300547
H153	H	0.694297	-0.399412	0.269510
H154	H	0.634617	-0.452917	0.312166
H155	H	0.719545	-0.431806	0.356744
O156	O	0.740647	-0.527632	0.255106
C157	C	0.695135	-0.562671	0.300568
H158	H	0.726170	-0.600744	0.301370
H159	H	0.683476	-0.547250	0.361033
H160	H	0.638958	-0.568353	0.276065
H161	H	0.987460	-0.874333	0.008412
H162	H	0.647537	-0.000037	0.231384
H163	H	1.021038	-0.000075	-0.287617
O164	O	0.756001	0.000047	-0.500839
C165	C	0.752618	0.043991	-0.454622
H166	H	0.791386	0.074705	-0.483605
H167	H	0.691639	0.058748	-0.445642
H168	H	0.772092	0.034054	-0.397247
