data_functionalizedCrystal
_audit_creation_method	'MofGen! by Chris Wilmer'
_symmetry_space_group_name_H-M	'P1'
_symmetry_Int_Tables_number	1
_symmetry_cell_setting	triclinic
loop_
_symmetry_equiv_pos_as_xyz
  x,y,z
_cell_length_a	12.759401
_cell_length_b	15.297327
_cell_length_c	12.759393
_cell_angle_alpha	99.641342
_cell_angle_beta	89.982549
_cell_angle_gamma	99.705457
loop_
_atom_site_label
_atom_site_type_symbol
_atom_site_fract_x
_atom_site_fract_y
_atom_site_fract_z
Zn1	Zn	1.533781	-0.359126	-0.666303
Zn2	Zn	1.503234	-0.510013	-0.521009
Zn3	Zn	1.358078	-0.359171	-0.490651
Zn4	Zn	1.327641	-0.509940	-0.696635
O5	O	1.430683	-0.434563	-0.593650
O6	O	1.676748	-0.379153	-0.647040
O7	O	1.483932	-0.490053	-0.369970
O8	O	1.406907	-0.232921	-0.488553
O9	O	1.654305	-0.490010	-0.540293
O10	O	1.535996	-0.232888	-0.617604
O11	O	1.377286	-0.379230	-0.347667
O12	O	1.207021	-0.379159	-0.517965
O13	O	1.355033	-0.489885	-0.839623
O14	O	1.184660	-0.489929	-0.669300
O15	O	1.506483	-0.379083	-0.817338
O16	O	1.454419	-0.636248	-0.569705
O17	O	1.325412	-0.636195	-0.698737
C18	C	1.157720	-0.434542	-0.593631
C19	C	1.040941	-0.434554	-0.593652
C20	C	0.997736	-0.376940	-0.649361
C21	C	0.888009	-0.376958	-0.649371
C22	C	0.864699	-0.492210	-0.537961
C23	C	0.974426	-0.492188	-0.537946
C24	C	1.064252	-0.319307	-0.705068
C25	C	1.021048	-0.261689	-0.760782
C26	C	0.911320	-0.261706	-0.760793
C27	C	0.844797	-0.319341	-0.705088
C28	C	1.383327	-0.668955	-0.640829
C29	C	1.363163	-0.769229	-0.661048
C30	C	1.575227	-1.051871	-0.449502
C31	C	1.594171	-0.957659	-0.430500
C32	C	1.536421	-0.910547	-0.488136
C33	C	1.459723	-0.957656	-0.564776
C34	C	1.440772	-1.051878	-0.583774
C35	C	1.401965	-0.910554	-0.622407
C36	C	1.325268	-0.957663	-0.699047
C37	C	1.306320	-1.051876	-0.718042
C38	C	1.364070	-1.098988	-0.660407
C39	C	1.420917	-0.816332	-0.603409
C40	C	1.286462	-0.816339	-0.737681
C41	C	1.267518	-0.910551	-0.756683
C42	C	1.704712	-0.434585	-0.593669
C43	C	1.821487	-0.434594	-0.593678
C44	C	1.430770	-0.434471	-0.867665
C45	C	1.430807	-0.434432	-0.984433
C46	C	1.478254	-0.199255	-0.546309
C47	C	1.498526	-0.098981	-0.526135
C48	C	1.375307	-0.376715	-1.027686
C49	C	1.375345	-0.376688	-1.137405
C50	C	1.486390	-0.492097	-1.160609
C51	C	1.486346	-0.492128	-1.050893
C52	C	1.319769	-0.319019	-0.961226
C53	C	1.264265	-0.261298	-1.004478
C54	C	1.264303	-0.261271	-1.114197
C55	C	1.319843	-0.318966	-1.180664
C56	C	1.430671	-0.434589	-0.320688
C57	C	1.430888	-0.434374	-0.203868
H58	H	0.755454	-0.319331	-0.705074
H59	H	1.243855	-1.090230	-0.780436
C60	C	1.222934	-0.764525	-0.801089
C61	C	1.228852	-0.777395	-0.923127
C62	C	1.165328	-0.725574	-0.986528
C63	C	1.095886	-0.660883	-0.927890
C64	C	1.089964	-0.648010	-0.805845
C65	C	1.153488	-0.699831	-0.742444
H66	H	1.280261	-0.825285	-0.966541
H67	H	1.169712	-0.735103	-1.076874
H68	H	1.048861	-0.622522	-0.974822
H69	H	1.038556	-0.600120	-0.762431
H70	H	1.149104	-0.690302	-0.652098
C71	C	1.678533	-0.905846	-0.346199
C72	C	1.646054	-0.841168	-0.250630
C73	C	1.730419	-0.789356	-0.166321
C74	C	1.847264	-0.802221	-0.177581
C75	C	1.879749	-0.866901	-0.273154
C76	C	1.795383	-0.918714	-0.357463
H77	H	1.559553	-0.831642	-0.242291
H78	H	1.706371	-0.741475	-0.095571
H79	H	1.909717	-0.763866	-0.115170
H80	H	1.966249	-0.876427	-0.281493
H81	H	1.819431	-0.966594	-0.428212
C82	C	0.791525	-0.555612	-0.476699
C83	C	0.723955	-0.516455	-0.386420
C84	C	0.650782	-0.579861	-0.325161
C85	C	0.645178	-0.682424	-0.354181
C86	C	0.712750	-0.721586	-0.444464
C87	C	0.785923	-0.658181	-0.505724
H88	H	0.728102	-0.440527	-0.364934
H89	H	0.600761	-0.550869	-0.258327
H90	H	0.591010	-0.729360	-0.308833
H91	H	0.708603	-0.797514	-0.465951
H92	H	0.835944	-0.687172	-0.572558
C93	C	1.203170	-0.197838	-0.931371
C94	C	1.142116	-0.134355	-0.978951
C95	C	1.081018	-0.070895	-0.905847
C96	C	1.080975	-0.070918	-0.785162
C97	C	1.142032	-0.134404	-0.737574
C98	C	1.203129	-0.197864	-0.810679
H99	H	1.142145	-0.134335	-1.068296
H100	H	1.035819	-0.023898	-0.941075
H101	H	1.035746	-0.023941	-0.731045
H102	H	1.142002	-0.134424	-0.648230
H103	H	1.248328	-0.244861	-0.775451
H104	H	1.319735	-0.319033	-0.871886
C105	C	1.638743	-1.103694	-0.386108
C106	C	1.617894	-1.207328	-0.407005
C107	C	1.681415	-1.259152	-0.343604
C108	C	1.765784	-1.207341	-0.259307
C109	C	1.786637	-1.103701	-0.238407
C110	C	1.723117	-1.051877	-0.301807
H111	H	1.555435	-1.245687	-0.469410
H112	H	1.665978	-1.335873	-0.359077
H113	H	1.812806	-1.245703	-0.212375
H114	H	1.849096	-1.065342	-0.176001
H115	H	1.738554	-0.975156	-0.286335
H116	H	1.531611	-0.539067	-1.214734
H117	H	1.009603	-0.539102	-0.492582
H118	H	1.531555	-0.539113	-1.015674
H119	H	1.348652	-1.175703	-0.675877
H120	H	1.319866	-0.318941	-1.270004
H121	H	1.153599	-0.319286	-0.705065
C122	C	1.203250	-0.197781	-1.161775
C123	C	1.082323	-0.205126	-1.148163
C124	C	1.021273	-0.141630	-1.195737
C125	C	1.081149	-0.070790	-1.256923
C126	C	1.202082	-0.063442	-1.270538
C127	C	1.263132	-0.126938	-1.222964
H128	H	1.037994	-0.257569	-1.102866
H129	H	0.931750	-0.147070	-1.185658
H130	H	1.035956	-0.023786	-1.292140
H131	H	1.246412	-0.010999	-1.315835
H132	H	1.352655	-0.121498	-1.233043
C133	C	0.863794	-0.198327	-0.822072
C134	C	0.936962	-0.134934	-0.883342
C135	C	0.889438	-0.071556	-0.944629
C136	C	0.768745	-0.071570	-0.944645
C137	C	0.695569	-0.134966	-0.883372
C138	C	0.743093	-0.198344	-0.822086
H139	H	1.026313	-0.134921	-0.883333
H140	H	0.943608	-0.024627	-0.989987
H141	H	0.733564	-0.024654	-0.990012
H142	H	0.606218	-0.134978	-0.883382
H143	H	0.688923	-0.245273	-0.776728
H144	H	1.205069	-0.948921	-0.819084
H145	H	1.075219	-0.214759	-0.806128
H146	H	1.483365	-0.777984	-0.541008
H147	H	1.551849	-0.833835	-0.472659
