data_functionalizedCrystal
_audit_creation_method	'MofGen! by Chris Wilmer'
_symmetry_space_group_name_H-M	'P1'
_symmetry_Int_Tables_number	1
_symmetry_cell_setting	triclinic
loop_
_symmetry_equiv_pos_as_xyz
  x,y,z
_cell_length_a	17.077404
_cell_length_b	10.686203
_cell_length_c	17.077404
_cell_angle_alpha	85.629454
_cell_angle_beta	90.008318
_cell_angle_gamma	94.365430
loop_
_atom_site_label
_atom_site_type_symbol
_atom_site_fract_x
_atom_site_fract_y
_atom_site_fract_z
Zn1	Zn	1.224027	0.502546	0.419941
Zn2	Zn	1.234059	0.713496	0.278642
Zn3	Zn	1.092784	0.502525	0.288690
Zn4	Zn	1.102826	0.713486	0.409866
O5	O	1.163424	0.608013	0.349285
O6	O	1.335205	0.530541	0.401209
O7	O	1.215314	0.685506	0.170128
O8	O	1.101792	0.325957	0.314522
O9	O	1.342576	0.685526	0.297397
O10	O	1.198216	0.325972	0.410952
O11	O	1.111520	0.530507	0.177511
O12	O	0.984268	0.530497	0.304753
O13	O	1.118907	0.685508	0.521049
O14	O	0.991646	0.685489	0.393781
O15	O	1.207954	0.530531	0.528451
O16	O	1.225052	0.890066	0.287628
O17	O	1.128635	0.890058	0.384038
C18	C	0.959475	0.607990	0.349264
C19	C	0.872226	0.608011	0.349273
C20	C	0.835104	0.688837	0.395543
C21	C	0.753124	0.688840	0.395556
C22	C	0.708267	0.608022	0.349293
C23	C	0.745395	0.527187	0.303021
C24	C	0.827373	0.527179	0.303013
C25	C	0.574526	0.527212	0.303038
C26	C	0.492542	0.527221	0.303045
C27	C	0.500276	0.688873	0.395581
C28	C	0.582255	0.688864	0.395573
C29	C	0.619377	0.608031	0.349300
C30	C	1.179043	0.935845	0.333666
C31	C	1.185797	1.076093	0.327011
C32	C	1.368169	0.608037	0.349306
C33	C	1.455419	0.608047	0.349315
C34	C	1.147758	1.278901	0.364990
C35	C	1.141062	1.138653	0.371704
C36	C	1.163432	0.608021	0.554029
C37	C	1.163435	0.608024	0.641278
C38	C	1.209796	0.527341	0.686123
C39	C	1.209789	0.527340	0.768104
C40	C	1.163425	0.608028	0.805238
C41	C	1.117059	0.688715	0.760387
C42	C	1.117062	0.688709	0.678408
C43	C	1.117058	0.688723	0.931256
C44	C	1.117056	0.688731	1.013241
C45	C	1.209785	0.527353	1.020952
C46	C	1.209788	0.527348	0.938974
C47	C	1.163423	0.608036	0.894128
C48	C	1.163414	0.608038	1.145336
C49	C	1.163417	0.608048	1.058086
H50	H	0.871621	0.754652	0.433213
C51	C	1.244515	1.148688	0.268429
N52	N	1.288741	1.203367	0.224305
H53	H	1.247553	0.461639	0.655895
H54	H	0.722903	0.754657	0.433233
C55	C	1.066050	0.777461	0.801237
N56	N	1.027629	0.844306	0.832005
C57	C	1.082345	1.066064	0.430281
N58	N	1.038120	1.011381	0.474404
H59	H	0.708866	0.461378	0.265356
H60	H	0.604747	0.461377	0.265365
C61	C	1.066063	0.777469	0.629079
N62	N	1.027647	0.844323	0.591925
H63	H	1.247543	0.461642	0.804613
H64	H	1.247546	0.461651	0.908741
H65	H	1.247536	0.461652	1.057469
C66	C	0.459440	0.777784	0.446486
N67	N	0.428679	0.844752	0.484826
H68	H	0.618775	0.754680	0.433240
H69	H	0.857596	0.461355	0.265339
H70	H	0.456021	0.461397	0.265384
H71	H	1.079301	0.754432	1.043473
H72	H	1.079289	0.754408	0.894746
