data_functionalizedCrystal
_audit_creation_method	'MofGen! by Chris Wilmer'
_symmetry_space_group_name_H-M	'P1'
_symmetry_Int_Tables_number	1
_symmetry_cell_setting	triclinic
loop_
_symmetry_equiv_pos_as_xyz
  x,y,z
_cell_length_a	9.065218
_cell_length_b	17.019294
_cell_length_c	15.500215
_cell_angle_alpha	97.060225
_cell_angle_beta	93.145084
_cell_angle_gamma	84.203176
loop_
_atom_site_label
_atom_site_type_symbol
_atom_site_fract_x
_atom_site_fract_y
_atom_site_fract_z
O1	O	1.964134	0.119388	0.080840
O2	O	2.464134	0.619388	0.580840
O3	O	1.534652	0.128908	0.081550
O4	O	2.034652	0.628908	0.581550
O5	O	1.760647	0.009005	0.072613
O6	O	2.260647	0.509005	0.572613
O7	O	1.738139	0.239290	0.089777
O8	O	2.238139	0.739290	0.589777
O9	O	1.748363	0.002350	-0.071773
O10	O	2.248363	0.502350	0.428227
O11	O	1.522369	0.122252	-0.062835
O12	O	2.022369	0.622252	0.437165
O13	O	1.951850	0.112732	-0.063546
O14	O	2.451850	0.612732	0.436454
Cu15	Cu	1.735988	0.116885	-0.076374
Cu16	Cu	2.235988	0.616885	0.423626
Cu17	Cu	1.750515	0.124756	0.094378
Cu18	Cu	2.250515	0.624756	0.594378
O19	O	1.725856	0.232635	-0.054608
O20	O	2.225856	0.732635	0.445392
C21	C	1.473543	0.124665	0.009289
C22	C	1.973543	0.624665	0.509289
C23	C	1.309756	0.121930	0.009086
C24	C	1.809756	0.621930	0.509086
C25	C	1.753409	-0.023819	-0.001777
C26	C	2.253409	0.476181	0.498223
C27	C	1.750127	-0.111711	-0.008322
C28	C	2.250127	0.388289	0.491678
C29	C	1.755284	-0.149370	0.067307
C30	C	2.255284	0.350630	0.567307
C31	C	1.752191	-0.231953	0.061154
C32	C	2.252191	0.268047	0.561154
C33	C	1.743951	-0.276876	-0.020629
C34	C	2.243951	0.223124	0.479371
C35	C	1.738789	-0.239211	-0.096263
C36	C	2.238789	0.260789	0.403737
C37	C	1.741872	-0.156629	-0.090109
C38	C	2.241872	0.343371	0.409891
C39	C	1.734297	-0.526402	-0.043146
C40	C	2.234297	-0.026402	0.456854
C41	C	1.731219	-0.608989	-0.049295
C42	C	2.231219	-0.108989	0.450705
C43	C	1.744618	-0.601726	0.108123
C44	C	2.244618	-0.101726	0.608123
C45	C	1.747710	-0.519143	0.114270
C46	C	2.247710	-0.019143	0.614270
C47	C	1.742540	-0.481485	0.038635
C48	C	2.242540	0.018515	0.538635
C49	C	1.740793	-0.361289	-0.026920
C50	C	2.240793	0.138711	0.473080
C51	C	1.745687	-0.397072	0.044927
C52	C	2.245687	0.102928	0.544927
C53	C	2.012960	0.116975	0.008717
C54	C	2.512960	0.616975	0.508717
C55	C	2.176747	0.119711	0.008926
C56	C	2.676747	0.619711	0.508926
C57	C	1.733093	0.265460	0.019783
C58	C	2.233093	0.765460	0.519783
C59	C	1.736376	0.353351	0.026334
C60	C	2.236376	0.853351	0.526334
N61	N	1.725781	0.111348	-0.196472
N62	N	2.225781	0.611348	0.303528
C63	C	1.811599	0.157934	-0.238273
C64	C	2.311599	0.657934	0.261727
C65	C	1.803899	0.153742	-0.329158
C66	C	2.303899	0.653742	0.170842
C67	C	1.710374	0.102968	-0.378241
C68	C	2.210374	0.602968	0.121759
C69	C	1.624553	0.056378	-0.336434
C70	C	2.124553	0.556378	0.163566
C71	C	1.632261	0.060566	-0.245551
C72	C	2.132261	0.560566	0.254449
C73	C	1.682621	0.087883	-0.652834
C74	C	2.182621	0.587883	-0.152834
C75	C	1.674915	0.083700	-0.743723
C76	C	2.174915	0.583700	-0.243723
C77	C	1.854264	0.181064	-0.736441
C78	C	2.354264	0.681064	-0.236441
C79	C	1.861958	0.185251	-0.645556
C80	C	2.361958	0.685251	-0.145556
C81	C	1.776143	0.138657	-0.603757
C82	C	2.276143	0.638657	-0.103757
C83	C	1.702498	0.098684	-0.471141
C84	C	2.202498	0.598684	0.028859
C85	C	1.784028	0.142938	-0.510859
C86	C	2.284028	0.642938	-0.010859
N87	N	1.760733	0.130286	0.214476
N88	N	2.260733	0.630286	0.714476
H89	H	1.756397	-0.262611	0.122739
H90	H	2.256397	0.237389	0.622739
N91	N	1.574034	0.028943	-0.796676
N92	N	2.074034	0.528943	-0.296676
H93	H	1.468103	0.044481	-0.779764
H94	H	1.968103	0.544481	-0.279764
H95	H	1.604357	-0.027688	-0.785130
H96	H	2.104357	0.472312	-0.285130
N97	N	1.590068	0.037631	-0.607757
N98	N	2.090068	0.537631	-0.107757
H99	H	1.529649	0.004834	-0.652644
H100	H	2.029649	0.504834	-0.152644
H101	H	1.521288	0.073338	-0.567519
H102	H	2.021288	0.573338	-0.067519
N103	N	1.764045	-0.100915	0.155518
N104	N	2.264045	0.399085	0.655518
H105	H	1.765179	-0.042882	0.147944
H106	H	2.265179	0.457118	0.647944
H107	H	1.857768	-0.119497	0.188434
H108	H	2.357768	0.380503	0.688434
H109	H	1.548410	0.015033	-0.376405
H110	H	2.048410	0.515033	0.123595
H111	H	1.730117	-0.495752	-0.104734
H112	H	2.230117	0.004248	0.395266
N113	N	1.722347	-0.657440	-0.137510
N114	N	2.222347	-0.157440	0.362490
H115	H	1.812157	-0.697616	-0.143995
H116	H	2.312157	-0.197616	0.356005
H117	H	1.719497	-0.620992	-0.184431
H118	H	2.219497	-0.120992	0.315569
N119	N	1.731943	-0.409747	-0.115126
N120	N	2.231943	0.090253	0.384874
H121	H	1.639002	-0.438418	-0.120764
H122	H	2.139002	0.061582	0.379236
H123	H	1.821814	-0.449884	-0.121540
H124	H	2.321814	0.050116	0.378460
H125	H	1.562379	0.022631	-0.211518
H126	H	2.062379	0.522631	0.288482
H127	H	1.860181	0.184275	-0.470893
H128	H	2.360181	0.684275	0.029107
N129	N	1.962847	0.240008	-0.592622
N130	N	2.462847	0.740008	-0.092622
H131	H	1.954706	0.235593	-0.528704
H132	H	2.454706	0.735593	-0.028704
H133	H	1.932590	0.296627	-0.604233
H134	H	2.432590	0.796627	-0.104233
H135	H	1.626348	0.057344	-0.511114
H136	H	2.126348	0.557344	-0.011114
H137	H	1.887748	0.199284	-0.198315
H138	H	2.387748	0.699284	0.301685
H139	H	1.924131	0.218997	-0.770484
H140	H	2.424131	0.718997	-0.270484
H141	H	1.732070	-0.275793	-0.162852
H142	H	2.232070	0.224207	0.337148
H143	H	1.754422	-0.482572	0.180865
H144	H	2.254422	0.017428	0.680865
H145	H	1.748824	-0.632396	0.169700
H146	H	2.248824	-0.132396	0.669700
N147	N	1.754590	-0.348623	0.133132
N148	N	2.254590	0.151377	0.633132
H149	H	1.757396	-0.385008	0.180115
H150	H	2.257396	0.114992	0.680115
H151	H	1.664788	-0.308439	0.139545
H152	H	2.164788	0.191561	0.639545
H153	H	1.737651	-0.125967	-0.151694
H154	H	2.237651	0.374033	0.348306
H155	H	1.873784	0.191675	-0.363188
H156	H	2.373784	0.691675	0.136812
