data_functionalizedCrystal
_audit_creation_method	'MofGen! by Chris Wilmer'
_symmetry_space_group_name_H-M	'P1'
_symmetry_Int_Tables_number	1
_symmetry_cell_setting	triclinic
loop_
_symmetry_equiv_pos_as_xyz
  x,y,z
_cell_length_a	10.654550
_cell_length_b	12.837942
_cell_length_c	9.130313
_cell_angle_alpha	89.998975
_cell_angle_beta	89.996220
_cell_angle_gamma	89.656921
loop_
_atom_site_label
_atom_site_type_symbol
_atom_site_fract_x
_atom_site_fract_y
_atom_site_fract_z
O1	O	1.683735	0.145718	-0.121920
O2	O	1.319772	0.159602	-0.121897
O3	O	1.493683	0.001699	-0.121899
O4	O	1.509824	0.303621	-0.121918
O5	O	1.493681	0.001703	0.121700
O6	O	1.319770	0.159606	0.121702
O7	O	1.683734	0.145722	0.121679
Cu8	Cu	1.501752	0.152665	0.143933
Cu9	Cu	1.501754	0.152660	-0.144151
O10	O	1.509822	0.303625	0.121681
C11	C	1.272862	0.158585	-0.000094
C12	C	1.133086	0.155535	-0.000085
C13	C	1.063745	0.248505	-0.000112
C14	C	0.932411	0.245633	-0.000138
C15	C	0.939770	0.056812	-0.000114
C16	C	1.071101	0.059685	-0.000079
C17	C	1.059496	0.357520	-0.000132
C18	C	0.928162	0.354648	-0.000157
C19	C	1.488230	-0.036959	-0.000100
C20	C	1.471967	-0.152153	-0.000101
C21	C	1.667472	-0.391705	-0.000145
C22	C	1.652197	-0.499941	-0.000146
C23	C	1.426146	-0.476862	-0.000116
C24	C	1.441420	-0.368626	-0.000115
C25	C	1.562087	-0.326052	-0.000127
C26	C	1.577360	-0.217814	-0.000115
C27	C	1.351309	-0.194737	-0.000096
C28	C	1.336035	-0.302973	-0.000097
C29	C	1.730644	0.146740	-0.000127
C30	C	1.870420	0.149790	-0.000146
C31	C	1.515276	0.342283	-0.000121
C32	C	1.531538	0.457477	-0.000130
N33	N	1.501759	0.152668	0.346555
N34	N	1.501755	0.152648	-0.346774
C35	C	1.578792	0.082772	0.423206
C36	C	1.578787	0.082760	0.576543
C37	C	1.424714	0.222547	0.576565
C38	C	1.424713	0.222554	0.423230
C39	C	1.667748	0.002070	0.423195
C40	C	1.667744	0.002058	0.576532
H41	H	1.093479	0.400157	0.101817
O42	O	0.879753	-0.036380	-0.000055
C43	C	0.969122	-0.117823	-0.000066
H44	H	1.061651	-0.088097	0.046072
H45	H	0.933734	-0.184681	0.070652
H46	H	0.984248	-0.146548	-0.116928
H47	H	1.098940	0.392230	-0.105306
H48	H	0.886085	0.387595	0.105009
H49	H	1.637603	-0.077675	0.381582
H50	H	1.629007	-0.073301	0.624086
H51	H	1.761690	0.027339	0.375629
H52	H	1.237791	-0.337651	-0.000093
H53	H	1.361976	0.279459	0.360823
O54	O	0.883851	0.403788	-0.121739
C55	C	0.923988	0.508241	-0.121489
H56	H	1.011610	0.515631	-0.050690
H57	H	0.946466	0.533402	-0.238278
H58	H	0.846345	0.560153	-0.075301
O59	O	1.785277	0.023134	0.626015
C60	C	1.869563	-0.053596	0.574434
H61	H	1.829380	-0.091492	0.471864
H62	H	1.963343	-0.015981	0.547095
H63	H	1.884122	-0.115357	0.662629
O64	O	1.784615	-0.350218	-0.000345
C65	C	1.800224	-0.288318	-0.126525
H66	H	1.704380	-0.262089	-0.168582
H67	H	1.858793	-0.217088	-0.098152
H68	H	1.850119	-0.335722	-0.214871
O69	O	1.754434	-0.563866	-0.000224
C70	C	1.715083	-0.668528	-0.000186
H71	H	1.615860	-0.673394	-0.046289
H72	H	1.781458	-0.717031	-0.070920
H73	H	1.716113	-0.699794	0.116680
O74	O	1.694506	-0.176331	-0.000327
C75	C	1.710104	-0.114431	-0.126508
H76	H	1.614257	-0.088195	-0.168549
H77	H	1.768683	-0.043205	-0.098143
H78	H	1.759984	-0.161837	-0.214864
O79	O	1.309029	-0.518400	-0.000044
C80	C	1.318154	-0.628009	-0.000095
H81	H	1.413206	-0.652706	0.046009
H82	H	1.240172	-0.661786	0.070633
H83	H	1.308462	-0.658169	-0.116964
O84	O	1.249064	-0.130811	-0.000149
C85	C	1.288414	-0.026149	-0.000108
H86	H	1.387634	-0.021279	-0.046237
H87	H	1.222034	0.022360	-0.070820
H88	H	1.287394	0.005107	0.116762
O89	O	1.349694	0.290328	0.650986
C90	C	1.223258	0.272520	0.613492
H91	H	1.212717	0.189450	0.571329
H92	H	1.161601	0.283958	0.714335
H93	H	1.193216	0.329751	0.524498
H94	H	1.127554	-0.016021	-0.000036
