data_functionalizedCrystal
_audit_creation_method	'MofGen! by Chris Wilmer'
_symmetry_space_group_name_H-M	'P1'
_symmetry_Int_Tables_number	1
_symmetry_cell_setting	triclinic
loop_
_symmetry_equiv_pos_as_xyz
  x,y,z
_cell_length_a	13.897447
_cell_length_b	13.897449
_cell_length_c	12.759387
_cell_angle_alpha	90.021740
_cell_angle_beta	90.031440
_cell_angle_gamma	90.020810
loop_
_atom_site_label
_atom_site_type_symbol
_atom_site_fract_x
_atom_site_fract_y
_atom_site_fract_z
Zn1	Zn	-0.383931	1.474700	0.594035
Zn2	Zn	-0.545259	1.474586	0.418353
Zn3	Zn	-0.383983	1.313386	0.418368
Zn4	Zn	-0.545189	1.313366	0.593989
O5	O	-0.464591	1.394009	0.506186
O6	O	-0.405339	1.609666	0.570744
O7	O	-0.523916	1.453163	0.271334
O8	O	-0.248994	1.334841	0.441696
O9	O	-0.523866	1.609583	0.441671
O10	O	-0.248956	1.453358	0.570758
O11	O	-0.405427	1.334731	0.271345
O12	O	-0.405360	1.178402	0.441651
O13	O	-0.523747	1.334806	0.741016
O14	O	-0.523798	1.178387	0.570679
O15	O	-0.405272	1.453338	0.741050
O16	O	-0.680231	1.453143	0.441626
O17	O	-0.680180	1.334695	0.570665
C18	C	-0.715205	1.393931	0.506162
C19	C	-0.822419	1.393986	0.506187
C20	C	-0.464578	1.143395	0.506162
C21	C	-0.464595	1.036181	0.506177
C22	C	-0.909489	1.394032	0.506211
C23	C	-1.018721	1.394100	0.506238
C24	C	-0.464599	0.839886	0.506205
C25	C	-0.464594	0.949119	0.506186
C26	C	-0.212998	1.394114	0.506234
C27	C	-0.105784	1.394159	0.506254
C28	C	-0.464496	1.394082	0.780220
C29	C	-0.464456	1.394113	0.896997
C30	C	-0.464604	1.645602	0.506211
C31	C	-0.464610	1.752816	0.506221
C32	C	-0.464615	1.393992	0.233219
C33	C	-0.464384	1.394148	0.116443
C34	C	-0.341095	1.517549	0.897052
C35	C	-0.279400	1.579280	0.951940
C36	C	-0.279365	1.579303	1.061662
C37	C	-0.341029	1.517587	1.116498
C38	C	-0.402724	1.455856	1.061609
C39	C	-0.402755	1.455841	0.951885
C40	C	-0.526078	1.332417	1.061554
C41	C	-0.526120	1.332397	0.951832
C42	C	-0.587743	1.270701	1.116390
C43	C	-0.649444	1.208973	1.061502
C44	C	-0.649477	1.208953	0.951773
C45	C	-0.587815	1.270666	0.896944
H46	H	-0.341126	1.517545	0.807711
C47	C	-0.587710	1.270736	1.237087
N48	N	-0.587693	1.270768	1.327997
C49	C	-0.717346	1.141041	0.891405
N50	N	-0.768468	1.089888	0.845939
H51	H	-0.340987	1.517603	1.205839
C52	C	-0.587844	1.270648	0.776247
N53	N	-0.587860	1.270634	0.685337
H54	H	-0.699641	1.158723	1.106158
H55	H	-0.229122	1.629564	1.106352
C56	C	-0.211572	1.647163	0.891613
N57	N	-0.160482	1.698292	0.846177
