data_functionalizedCrystal
_audit_creation_method	'MofGen! by Chris Wilmer'
_symmetry_space_group_name_H-M	'P1'
_symmetry_Int_Tables_number	1
_symmetry_cell_setting	triclinic
loop_
_symmetry_equiv_pos_as_xyz
  x,y,z
_cell_length_a	10.686220
_cell_length_b	19.121063
_cell_length_c	19.120915
_cell_angle_alpha	85.261346
_cell_angle_beta	83.402892
_cell_angle_gamma	96.652836
loop_
_atom_site_label
_atom_site_type_symbol
_atom_site_fract_x
_atom_site_fract_y
_atom_site_fract_z
Zn1	Zn	1.887697	-0.212792	0.325674
Zn2	Zn	1.887547	-0.325452	0.213032
Zn3	Zn	1.684715	-0.216863	0.217070
Zn4	Zn	1.665701	-0.340333	0.340535
O5	O	1.781415	-0.273860	0.274077
O6	O	2.065469	-0.219805	0.302822
O7	O	1.868536	-0.306523	0.114756
O8	O	1.719662	-0.117503	0.226947
O9	O	2.065359	-0.302576	0.220065
O10	O	1.868791	-0.114512	0.306738
O11	O	1.719516	-0.226744	0.117722
O12	O	1.504401	-0.241174	0.241357
O13	O	1.687254	-0.327938	0.437375
O14	O	1.490431	-0.331886	0.332066
O15	O	1.850354	-0.234235	0.426457
O16	O	1.850098	-0.426246	0.234475
O17	O	1.687109	-0.437179	0.328151
C18	C	1.451317	-0.288587	0.288763
C19	C	1.310097	-0.294905	0.295063
C20	C	1.766557	-0.457335	0.282501
C21	C	1.760315	-0.535823	0.286123
C22	C	1.842303	-0.566979	0.239087
C23	C	1.836439	-0.640727	0.242497
C24	C	1.748582	-0.683316	0.292941
C25	C	1.666591	-0.652155	0.339982
C26	C	1.672461	-0.578408	0.336574
C27	C	1.726614	-0.906268	0.305671
C28	C	1.720747	-0.980019	0.309073
C29	C	1.890599	-0.968586	0.211590
C30	C	1.896456	-0.894839	0.208184
C31	C	1.814470	-0.863684	0.255227
C32	C	1.742584	-0.758698	0.296426
C33	C	1.820475	-0.788303	0.251744
C34	C	2.112802	-0.259076	0.259335
C35	C	2.254020	-0.252777	0.253053
C36	C	1.766700	-0.282292	0.458253
C37	C	1.760429	-0.285886	0.536738
C38	C	1.796364	-0.089668	0.265635
C39	C	1.802735	-0.011176	0.262037
C40	C	1.796150	-0.265406	0.090613
C41	C	1.802683	-0.261603	0.012108
C42	C	1.720711	-0.308695	0.980918
C43	C	1.726600	-0.305309	0.907173
C44	C	1.814467	-0.254833	0.864619
C45	C	1.896442	-0.207736	0.895814
C46	C	1.890547	-0.211120	0.969558
C47	C	1.836509	-0.242173	0.641677
C48	C	1.842401	-0.238794	0.567928
C49	C	1.672556	-0.336366	0.579292
C50	C	1.666673	-0.339748	0.653037
C51	C	1.748644	-0.292649	0.684225
C52	C	1.820490	-0.251372	0.789240
C53	C	1.742614	-0.296107	0.759603
H54	H	1.913841	-0.532307	0.198008
H55	H	1.314047	-0.211876	0.212266
Cl56	Cl	1.632136	-0.812245	0.359838
Cl57	Cl	1.217417	-0.358065	0.358032
H58	H	1.903202	-0.666091	0.204195
Cl59	Cl	2.006928	-0.841303	0.144776
Cl60	Cl	1.993668	-1.007757	0.152458
H61	H	1.649217	-1.014694	0.350162
H62	H	1.659855	-0.880907	0.343974
Cl63	Cl	1.939624	-0.182996	0.680874
H64	H	1.595060	-0.686837	0.381056
H65	H	1.957293	-0.172770	0.994952
H66	H	1.605700	-0.553042	0.374876
H67	H	1.892013	-0.753625	0.210675
H68	H	1.649165	-0.349801	1.015561
Cl69	Cl	1.556221	-0.403213	0.706527
Cl70	Cl	1.623538	-0.364510	0.867966
H71	H	1.605818	-0.374711	0.553890
H72	H	1.671067	-0.337201	0.794254
Cl73	Cl	1.952873	-0.175335	0.514432
Cl74	Cl	2.006876	-0.144265	0.842319
Cl75	Cl	1.930915	-0.187900	0.735739
