data_functionalizedCrystal
_audit_creation_method	'MofGen! by Chris Wilmer'
_symmetry_space_group_name_H-M	'P1'
_symmetry_Int_Tables_number	1
_symmetry_cell_setting	triclinic
loop_
_symmetry_equiv_pos_as_xyz
  x,y,z
_cell_length_a	9.065218
_cell_length_b	14.971482
_cell_length_c	13.448316
_cell_angle_alpha	90.006202
_cell_angle_beta	89.995277
_cell_angle_gamma	95.685753
loop_
_atom_site_label
_atom_site_type_symbol
_atom_site_fract_x
_atom_site_fract_y
_atom_site_fract_z
O1	O	0.192235	-1.188382	-0.082675
O2	O	0.215265	-0.928153	-0.082679
O3	O	-0.011002	-1.063647	-0.082675
O4	O	0.418502	-1.052889	-0.082679
O5	O	-0.011016	-1.063629	0.082709
O6	O	0.215251	-0.928136	0.082705
O7	O	0.192221	-1.188365	0.082709
Cu8	Cu	0.203735	-1.058249	0.097808
Cu9	Cu	0.203751	-1.058269	-0.097778
O10	O	0.418488	-1.052871	0.082705
C11	C	-0.065974	-1.062604	0.000015
C12	C	-0.229754	-1.059513	0.000011
C13	C	0.214229	-0.894812	0.000012
C14	C	0.211145	-0.795492	0.000010
C15	C	0.193257	-1.221706	0.000015
C16	C	0.196341	-1.321026	0.000011
C17	C	0.473460	-1.053914	0.000012
C18	C	0.637240	-1.057005	0.000010
C19	C	0.209686	-0.748827	0.090162
C20	C	0.206765	-0.655507	0.090163
C21	C	0.205314	-0.608852	0.000011
C22	C	0.206770	-0.655524	-0.090147
C23	C	0.209680	-0.748843	-0.090147
C24	C	0.200708	-0.461017	-0.090141
C25	C	0.197800	-0.367691	-0.090141
C26	C	0.197793	-0.367680	0.090170
C27	C	0.200703	-0.461000	0.090170
C28	C	0.202161	-0.507665	0.000011
N29	N	0.203722	-1.058241	0.235372
N30	N	0.203752	-1.058284	-0.235342
C31	C	0.103573	-1.118256	0.287414
C32	C	0.103572	-1.118262	0.391517
C33	C	0.203728	-1.058256	0.443576
C34	C	0.303882	-0.998234	0.391527
C35	C	0.303875	-0.998224	0.287426
C36	C	0.303892	-0.998258	0.608507
C37	C	0.303902	-0.998269	0.712616
C38	C	0.103589	-1.118296	0.712599
C39	C	0.103582	-1.118287	0.608497
C40	C	0.203738	-1.058266	0.556455
H41	H	0.210879	-0.786805	0.163574
C42	C	0.211289	-0.800174	-0.189321
N43	N	0.212497	-0.838835	-0.264023
C44	C	0.414059	-0.932210	0.230180
N45	N	0.497054	-0.882486	0.187063
H46	H	0.205551	-0.617518	0.163574
C47	C	0.414070	-0.932253	0.769879
N48	N	0.497049	-0.882528	0.813009
C49	C	0.414055	-0.932222	0.551263
N50	N	0.497027	-0.882484	0.508147
H51	H	0.201896	-0.499009	-0.163558
C52	C	0.196178	-0.316348	0.189346
N53	N	0.194965	-0.277680	0.264043
H54	H	0.205579	-0.617531	-0.163550
C55	C	0.202300	-0.512317	0.189341
N56	N	0.203497	-0.550970	0.264039
H57	H	0.022034	-1.167153	0.566111
H58	H	0.022020	-1.167124	0.245034
H59	H	0.196621	-0.329707	-0.163551
C60	C	-0.006590	-1.184317	0.769847
N61	N	-0.089571	-1.234043	0.812971
H62	H	0.022021	-1.167131	0.433890
H63	H	0.385427	-0.949371	0.433919
