data_functionalizedCrystal
_audit_creation_method	'MofGen! by Chris Wilmer'
_symmetry_space_group_name_H-M	'P1'
_symmetry_Int_Tables_number	1
_symmetry_cell_setting	triclinic
loop_
_symmetry_equiv_pos_as_xyz
  x,y,z
_cell_length_a	19.805407
_cell_length_b	19.805406
_cell_length_c	19.805399
_cell_angle_alpha	89.984242
_cell_angle_beta	90.018378
_cell_angle_gamma	90.001047
loop_
_atom_site_label
_atom_site_type_symbol
_atom_site_fract_x
_atom_site_fract_y
_atom_site_fract_z
Zn1	Zn	-1.034842	-0.269488	-0.382809
Zn2	Zn	-0.784842	-0.019488	-0.132809
Zn3	Zn	-0.534842	0.230512	0.117191
Zn4	Zn	-0.284842	0.480512	0.367191
Zn5	Zn	-1.034815	-0.382679	-0.269647
Zn6	Zn	-0.784815	-0.132679	-0.019647
Zn7	Zn	-0.534815	0.117321	0.230353
Zn8	Zn	-0.284815	0.367321	0.480353
Zn9	Zn	-0.921662	-0.269507	-0.269630
Zn10	Zn	-0.671662	-0.019507	-0.019630
Zn11	Zn	-0.421662	0.230493	0.230370
Zn12	Zn	-0.171662	0.480493	0.480370
Zn13	Zn	-0.921673	-0.382638	-0.382791
Zn14	Zn	-0.671673	-0.132638	-0.132791
Zn15	Zn	-0.421673	0.117362	0.117209
Zn16	Zn	-0.171673	0.367362	0.367209
O17	O	-0.978248	-0.326078	-0.326219
O18	O	-0.728248	-0.076078	-0.076219
O19	O	-0.478248	0.173922	0.173781
O20	O	-0.228248	0.423922	0.423781
O21	O	-1.129555	-0.284512	-0.367812
O22	O	-0.879555	-0.034512	-0.117812
O23	O	-0.629555	0.215488	0.132188
O24	O	-0.379555	0.465488	0.382188
O25	O	-1.019789	-0.367692	-0.174928
O26	O	-0.769789	-0.117692	0.075072
O27	O	-0.519789	0.132308	0.325072
O28	O	-0.269789	0.382308	0.575072
O29	O	-0.936683	-0.174788	-0.284645
O30	O	-0.686683	0.075212	-0.034645
O31	O	-0.436683	0.325212	0.215355
O32	O	-0.186683	0.575212	0.465355
O33	O	-1.129535	-0.367673	-0.284672
O34	O	-0.879535	-0.117673	-0.034672
O35	O	-0.629535	0.132327	0.215328
O36	O	-0.379535	0.382327	0.465328
O37	O	-1.019836	-0.174774	-0.367796
O38	O	-0.769836	0.075226	-0.117796
O39	O	-0.519836	0.325226	0.132204
O40	O	-0.269836	0.575226	0.382204
O41	O	-0.936656	-0.284545	-0.174916
O42	O	-0.686656	-0.034545	0.075084
O43	O	-0.436656	0.215455	0.325084
O44	O	-0.186656	0.465455	0.575084
O45	O	-0.826947	-0.284505	-0.284627
O46	O	-0.576947	-0.034505	-0.034627
O47	O	-0.326947	0.215495	0.215373
O48	O	-0.076947	0.465495	0.465373
O49	O	-0.936701	-0.367603	-0.477510
O50	O	-0.686701	-0.117603	-0.227510
O51	O	-0.436701	0.132397	0.022490
O52	O	-0.186701	0.382397	0.272490
O53	O	-0.826955	-0.367622	-0.367765
O54	O	-0.576955	-0.117622	-0.117765
O55	O	-0.326955	0.132378	0.132235
O56	O	-0.076955	0.382378	0.382235
O57	O	-1.019846	-0.284472	-0.477523
O58	O	-0.769846	-0.034472	-0.227523
O59	O	-0.519846	0.215528	0.022477
O60	O	-0.269846	0.465528	0.272477
O61	O	-1.019799	-0.477390	-0.284655
O62	O	-0.769799	-0.227390	-0.034655
O63	O	-0.519799	0.022610	0.215345
O64	O	-0.269799	0.272610	0.465345
O65	O	-0.936674	-0.477360	-0.367781
O66	O	-0.686674	-0.227360	-0.117781
O67	O	-0.436674	0.022640	0.132219
O68	O	-0.186674	0.272640	0.382219
C69	C	-0.802392	-0.326062	-0.326193
C70	C	-0.552392	-0.076062	-0.076193
C71	C	-0.302392	0.173938	0.173807
C72	C	-0.052392	0.423938	0.423807
C73	C	-0.727160	-0.326071	-0.326197
C74	C	-0.477160	-0.076071	-0.076197
C75	C	-0.227160	0.173929	0.173803
C76	C	0.022840	0.423929	0.423803
C77	C	-0.978253	-0.501934	-0.326232
C78	C	-0.728253	-0.251934	-0.076232
C79	C	-0.478253	-0.001934	0.173768
C80	C	-0.228253	0.248066	0.423768
C81	C	-0.978317	-0.577166	-0.326261
C82	C	-0.728317	-0.327166	-0.076261
C83	C	-0.478317	-0.077166	0.173739
C84	C	-0.228317	0.172834	0.423739
C85	C	-0.978277	-0.326031	-0.502762
C86	C	-0.728277	-0.076031	-0.252762
C87	C	-0.478277	0.173969	-0.002762
C88	C	-0.228277	0.423969	0.247238
C89	C	-0.978290	-0.326011	-0.577994
C90	C	-0.728290	-0.076011	-0.327994
C91	C	-0.478290	0.173989	-0.077994
C92	C	-0.228290	0.423989	0.172006
C93	C	-0.691837	-0.369415	-0.369417
C94	C	-0.441837	-0.119415	-0.119417
C95	C	-0.191837	0.130585	0.130583
C96	C	0.058163	0.380585	0.380583
C97	C	-0.621149	-0.369415	-0.369424
C98	C	-0.371149	-0.119415	-0.119424
C99	C	-0.121149	0.130585	0.130576
C100	C	0.128851	0.380585	0.380576
C101	C	-0.585784	-0.326074	-0.326209
C102	C	-0.335784	-0.076074	-0.076209
C103	C	-0.085784	0.173926	0.173791
C104	C	0.164216	0.423926	0.423791
C105	C	-0.621112	-0.282726	-0.282988
C106	C	-0.371112	-0.032726	-0.032988
C107	C	-0.121112	0.217274	0.217012
C108	C	0.128888	0.467274	0.467012
C109	C	-0.691799	-0.282723	-0.282984
C110	C	-0.441799	-0.032723	-0.032984
C111	C	-0.191799	0.217277	0.217016
C112	C	0.058201	0.467277	0.467016
C113	C	-0.336038	-0.282736	-0.283003
C114	C	-0.086038	-0.032736	-0.033003
C115	C	0.163962	0.217264	0.216997
C116	C	0.413962	0.467264	0.466997
C117	C	-0.265346	-0.282743	-0.283009
C118	C	-0.015346	-0.032743	-0.033009
C119	C	0.234654	0.217257	0.216991
C120	C	0.484654	0.467257	0.466991
C121	C	-0.265388	-0.369427	-0.369443
C122	C	-0.015388	-0.119427	-0.119443
C123	C	0.234612	0.130573	0.130557
C124	C	0.484612	0.380573	0.380557
C125	C	-0.336076	-0.369425	-0.369439
C126	C	-0.086076	-0.119425	-0.119439
C127	C	0.163924	0.130575	0.130561
C128	C	0.413924	0.380575	0.380561
C129	C	-0.371397	-0.326074	-0.326221
C130	C	-0.121397	-0.076074	-0.076221
C131	C	0.128603	0.173926	0.173779
C132	C	0.378603	0.423926	0.423779
C133	C	-0.448045	-0.326074	-0.326214
C134	C	-0.198045	-0.076074	-0.076214
C135	C	0.051955	0.173926	0.173786
C136	C	0.301955	0.423926	0.423786
C137	C	-0.509137	-0.326077	-0.326212
C138	C	-0.259137	-0.076077	-0.076212
C139	C	-0.009137	0.173923	0.173788
C140	C	0.240863	0.423923	0.423788
C141	C	-0.154791	-0.326090	-0.326240
C142	C	0.095209	-0.076090	-0.076240
C143	C	0.345209	0.173910	0.173760
C144	C	0.595209	0.423910	0.423760
C145	C	-0.230022	-0.326084	-0.326232
C146	C	0.019978	-0.076084	-0.076232
C147	C	0.269978	0.173916	0.173768
C148	C	0.519978	0.423916	0.423768
C149	C	-0.978261	-0.149535	-0.326221
C150	C	-0.728261	0.100465	-0.076221
C151	C	-0.478261	0.350465	0.173779
C152	C	-0.228261	0.600465	0.423779
C153	C	-0.978267	-0.074303	-0.326221
C154	C	-0.728267	0.175697	-0.076221
C155	C	-0.478267	0.425697	0.173779
C156	C	-0.228267	0.675697	0.423779
C157	C	-0.934979	-0.038965	-0.282931
C158	C	-0.684979	0.211035	-0.032931
C159	C	-0.434979	0.461035	0.217069
C160	C	-0.184979	0.711035	0.467069
C161	C	-0.934983	0.031723	-0.282938
C162	C	-0.684983	0.281723	-0.032938
C163	C	-0.434983	0.531723	0.217062
C164	C	-0.184983	0.781723	0.467062
C165	C	-0.978279	0.067072	-0.326233
C166	C	-0.728279	0.317072	-0.076233
C167	C	-0.478279	0.567072	0.173767
C168	C	-0.228279	0.817072	0.423767
C169	C	-1.021569	0.031730	-0.369529
C170	C	-0.771569	0.281730	-0.119529
C171	C	-0.521569	0.531730	0.130471
C172	C	-0.271569	0.781730	0.380471
C173	C	-1.021561	-0.038958	-0.369524
C174	C	-0.771561	0.211042	-0.119524
C175	C	-0.521561	0.461042	0.130476
C176	C	-0.271561	0.711042	0.380476
C177	C	-1.021602	0.316803	-0.369549
C178	C	-0.771602	0.566803	-0.119549
C179	C	-0.521602	0.816803	0.130451
C180	C	-0.271602	1.066803	0.380451
C181	C	-1.021609	0.387495	-0.369549
C182	C	-0.771609	0.637495	-0.119549
C183	C	-0.521609	0.887495	0.130451
C184	C	-0.271609	1.137495	0.380451
C185	C	-0.935025	0.387483	-0.282962
C186	C	-0.685025	0.637483	-0.032962
C187	C	-0.435025	0.887483	0.217038
C188	C	-0.185025	1.137483	0.467038
C189	C	-0.935017	0.316796	-0.282958
C190	C	-0.685017	0.566796	-0.032958
C191	C	-0.435017	0.816796	0.217042
C192	C	-0.185017	1.066796	0.467042
C193	C	-0.978304	0.281460	-0.326256
C194	C	-0.728304	0.531460	-0.076256
C195	C	-0.478304	0.781460	0.173744
C196	C	-0.228304	1.031460	0.423744
C197	C	-0.978297	0.204811	-0.326248
C198	C	-0.728297	0.454811	-0.076248
C199	C	-0.478297	0.704811	0.173752
C200	C	-0.228297	0.954811	0.423752
C201	C	-0.978289	0.143719	-0.326238
C202	C	-0.728289	0.393719	-0.076238
C203	C	-0.478289	0.643719	0.173762
C204	C	-0.228289	0.893719	0.423762
C205	C	-0.935015	-0.282712	-0.613331
C206	C	-0.685015	-0.032712	-0.363331
C207	C	-0.435015	0.217288	-0.113331
C208	C	-0.185015	0.467288	0.136669
C209	C	-0.935025	-0.282699	-0.684020
C210	C	-0.685025	-0.032699	-0.434020
C211	C	-0.435025	0.217301	-0.184020
C212	C	-0.185025	0.467301	0.065980
C213	C	-0.978313	-0.325982	-0.719370
C214	C	-0.728313	-0.075982	-0.469370
C215	C	-0.478313	0.174018	-0.219370
C216	C	-0.228313	0.424018	0.030630
C217	C	-1.021589	-0.369285	-0.684027
C218	C	-0.771589	-0.119285	-0.434027
C219	C	-0.521589	0.130715	-0.184027
C220	C	-0.271589	0.380715	0.065973
C221	C	-1.021576	-0.369301	-0.613340
C222	C	-0.771576	-0.119301	-0.363340
C223	C	-0.521576	0.130699	-0.113340
C224	C	-0.271576	0.380699	0.136660
C225	C	-1.021643	-0.369222	-0.969101
C226	C	-0.771643	-0.119222	-0.719101
C227	C	-0.521643	0.130778	-0.469101
C228	C	-0.271643	0.380778	-0.219101
C229	C	-1.021654	-0.369201	-1.039793
C230	C	-0.771654	-0.119201	-0.789793
C231	C	-0.521654	0.130799	-0.539793
C232	C	-0.271654	0.380799	-0.289793
C233	C	-0.935091	-0.282620	-1.039780
C234	C	-0.685091	-0.032620	-0.789780
C235	C	-0.435091	0.217380	-0.539780
C236	C	-0.185091	0.467380	-0.289780
C237	C	-0.935078	-0.282636	-0.969093
C238	C	-0.685078	-0.032636	-0.719093
C239	C	-0.435078	0.217364	-0.469093
C240	C	-0.185078	0.467364	-0.219093
C241	C	-0.978352	-0.325941	-0.933757
C242	C	-0.728352	-0.075941	-0.683757
C243	C	-0.478352	0.174059	-0.433757
C244	C	-0.228352	0.424059	-0.183757
C245	C	-0.978341	-0.325956	-0.857109
C246	C	-0.728341	-0.075956	-0.607109
C247	C	-0.478341	0.174044	-0.357109
C248	C	-0.228341	0.424044	-0.107109
C249	C	-0.978328	-0.325964	-0.796017
C250	C	-0.728328	-0.075964	-0.546017
C251	C	-0.478328	0.174036	-0.296017
C252	C	-0.228328	0.424036	-0.046017
C253	C	-0.978257	-0.326076	-0.150363
C254	C	-0.728257	-0.076076	0.099637
C255	C	-0.478257	0.173924	0.349637
C256	C	-0.228257	0.423924	0.599637
C257	C	-0.978376	-0.325905	-0.075132
C258	C	-0.728376	-0.075905	0.174868
C259	C	-0.478376	0.174095	0.424868
C260	C	-0.228376	0.424095	0.674868
H261	H	-0.720626	-0.404710	-0.404605
H262	H	-0.470626	-0.154710	-0.154605
H263	H	-0.220626	0.095290	0.095395
H264	H	0.029374	0.345290	0.345395
H265	H	-0.592393	-0.404710	-0.404617
H266	H	-0.342393	-0.154710	-0.154617
H267	H	-0.092393	0.095290	0.095383
H268	H	0.157607	0.345290	0.345383
Cl269	Cl	-0.380530	-0.423914	-0.423767
Cl270	Cl	-0.130530	-0.173914	-0.173767
Cl271	Cl	0.119470	0.076086	0.076233
Cl272	Cl	0.369470	0.326086	0.326233
H273	H	-0.592312	-0.247434	-0.247804
H274	H	-0.342312	0.002566	0.002196
H275	H	-0.092312	0.252566	0.252196
H276	H	0.157688	0.502566	0.502196
Cl277	Cl	-0.220888	-0.228253	-0.228678
Cl278	Cl	0.029112	0.021747	0.021322
Cl279	Cl	0.279112	0.271747	0.271322
Cl280	Cl	0.529112	0.521747	0.521322
H281	H	-0.720557	-0.247425	-0.247794
H282	H	-0.470557	0.002575	0.002206
H283	H	-0.220557	0.252575	0.252206
H284	H	0.029443	0.502575	0.502206
Cl285	Cl	-1.075982	-0.083382	-0.423951
Cl286	Cl	-0.825982	0.166618	-0.173951
Cl287	Cl	-0.575982	0.416618	0.076049
Cl288	Cl	-0.325982	0.666618	0.326049
H289	H	-0.899725	-0.067742	-0.247672
H290	H	-0.649725	0.182258	0.002328
H291	H	-0.399725	0.432258	0.252328
H292	H	-0.149725	0.682258	0.502328
H293	H	-0.364788	-0.247442	-0.247807
H294	H	-0.114788	0.002558	0.002193
H295	H	0.135212	0.252558	0.252193
H296	H	0.385212	0.502558	0.502193
Cl297	Cl	-0.880553	0.076145	-0.228522
Cl298	Cl	-0.630553	0.326145	0.021478
Cl299	Cl	-0.380553	0.576145	0.271478
Cl300	Cl	-0.130553	0.826145	0.521478
H301	H	-0.899783	-0.247444	-0.712788
H302	H	-0.649783	0.002556	-0.462788
H303	H	-0.399783	0.252556	-0.212788
H304	H	-0.149783	0.502556	0.037212
Cl305	Cl	-1.076041	0.431933	-0.423982
Cl306	Cl	-0.826041	0.681933	-0.173982
Cl307	Cl	-0.576041	0.931933	0.076018
Cl308	Cl	-0.326041	1.181933	0.326018
Cl309	Cl	-1.076005	-0.423702	-0.728467
Cl310	Cl	-0.826005	-0.173702	-0.478467
Cl311	Cl	-0.576005	0.076298	-0.228467
Cl312	Cl	-0.326005	0.326298	0.021533
Cl313	Cl	-1.076014	0.272389	-0.423987
Cl314	Cl	-0.826014	0.522389	-0.173987
Cl315	Cl	-0.576014	0.772389	0.076013
Cl316	Cl	-0.326014	1.022389	0.326013
Cl317	Cl	-0.880686	-0.228180	-1.084207
Cl318	Cl	-0.630686	0.021820	-0.834207
Cl319	Cl	-0.380686	0.271820	-0.584207
Cl320	Cl	-0.130686	0.521820	-0.334207
H321	H	-0.899763	0.288018	-0.247700
H322	H	-0.649763	0.538018	0.002300
H323	H	-0.399763	0.788018	0.252300
H324	H	-0.149763	1.038018	0.502300
Cl325	Cl	-1.076077	-0.423619	-1.084232
Cl326	Cl	-0.826077	-0.173619	-0.834232
Cl327	Cl	-0.576077	0.076381	-0.584232
Cl328	Cl	-0.326077	0.326381	-0.334232
Cl329	Cl	-1.075992	0.076169	-0.423965
Cl330	Cl	-0.825992	0.326169	-0.173965
Cl331	Cl	-0.575992	0.576169	0.076035
Cl332	Cl	-0.325992	0.826169	0.326035
H333	H	-0.899769	-0.247463	-0.584555
H334	H	-0.649769	0.002537	-0.334555
H335	H	-0.399769	0.252537	-0.084555
H336	H	-0.149769	0.502537	0.165445
Cl337	Cl	-0.880603	0.431911	-0.228533
Cl338	Cl	-0.630603	0.681911	0.021467
Cl339	Cl	-0.380603	0.931911	0.271467
Cl340	Cl	-0.130603	1.181911	0.521467
Cl341	Cl	-0.880659	-0.228219	-0.924657
Cl342	Cl	-0.630659	0.021781	-0.674657
Cl343	Cl	-0.380659	0.271781	-0.424657
Cl344	Cl	-0.130659	0.521781	-0.174657
Cl345	Cl	-1.076050	-0.423658	-0.924687
Cl346	Cl	-0.826050	-0.173658	-0.674687
Cl347	Cl	-0.576050	0.076342	-0.424687
Cl348	Cl	-0.326050	0.326342	-0.174687
H349	H	-0.236621	-0.404723	-0.404636
H350	H	0.013379	-0.154723	-0.154636
H351	H	0.263379	0.095277	0.095364
H352	H	0.513379	0.345277	0.345364
Cl353	Cl	-1.075978	-0.423739	-0.568916
Cl354	Cl	-0.825978	-0.173739	-0.318916
Cl355	Cl	-0.575978	0.076261	-0.068916
Cl356	Cl	-0.325978	0.326261	0.181084
