data_functionalizedCrystal
_audit_creation_method	'MofGen! by Chris Wilmer'
_symmetry_space_group_name_H-M	'P1'
_symmetry_Int_Tables_number	1
_symmetry_cell_setting	triclinic
loop_
_symmetry_equiv_pos_as_xyz
  x,y,z
_cell_length_a	12.594517
_cell_length_b	12.594516
_cell_length_c	16.625539
_cell_angle_alpha	90.025003
_cell_angle_beta	90.011051
_cell_angle_gamma	90.007702
loop_
_atom_site_label
_atom_site_type_symbol
_atom_site_fract_x
_atom_site_fract_y
_atom_site_fract_z
Zn1	Zn	1.627294	-0.423857	0.455723
Zn2	Zn	1.960627	-0.090524	0.789056
Zn3	Zn	2.293960	0.242810	1.122390
Zn4	Zn	1.627199	-0.601858	0.320898
Zn5	Zn	1.960532	-0.268525	0.654231
Zn6	Zn	2.293866	0.064808	0.987565
Zn7	Zn	1.449299	-0.423882	0.320926
Zn8	Zn	1.782632	-0.090548	0.654259
Zn9	Zn	2.115966	0.242785	0.987593
Zn10	Zn	1.449293	-0.601781	0.455710
Zn11	Zn	1.782626	-0.268448	0.789044
Zn12	Zn	2.115960	0.064885	1.122377
O13	O	1.538271	-0.512845	0.388314
O14	O	1.871605	-0.179511	0.721648
O15	O	2.204938	0.153822	1.054981
O16	O	1.776227	-0.447491	0.437832
O17	O	2.109560	-0.114158	0.771165
O18	O	2.442894	0.219175	1.104499
O19	O	1.603563	-0.578292	0.208069
O20	O	1.936896	-0.244959	0.541403
O21	O	2.270230	0.088375	0.874736
O22	O	1.472952	-0.274933	0.338824
O23	O	1.806286	0.058401	0.672157
O24	O	2.139619	0.391734	1.005491
O25	O	1.776157	-0.578268	0.338777
O26	O	2.109491	-0.244935	0.672110
O27	O	2.442824	0.088398	1.005443
O28	O	1.603724	-0.274915	0.437859
O29	O	1.937058	0.058419	0.771192
O30	O	2.270391	0.391752	1.104526
O31	O	1.472861	-0.447533	0.208090
O32	O	1.806194	-0.114200	0.541423
O33	O	2.139527	0.219134	0.874756
O34	O	1.300352	-0.447458	0.338812
O35	O	1.633686	-0.114125	0.672145
O36	O	1.967019	0.219208	1.005478
O37	O	1.472942	-0.578137	0.568544
O38	O	1.806276	-0.244803	0.901878
O39	O	2.139609	0.088530	1.235211
O40	O	1.300348	-0.578160	0.437837
O41	O	1.633681	-0.244827	0.771171
O42	O	1.967015	0.088506	1.104504
O43	O	1.603719	-0.447417	0.568554
O44	O	1.937052	-0.114083	0.901887
O45	O	2.270385	0.219250	1.235220
O46	O	1.603557	-0.750794	0.338764
O47	O	1.936891	-0.417461	0.672098
O48	O	2.270224	-0.084127	1.005431
O49	O	1.472850	-0.750737	0.437810
O50	O	1.806184	-0.417404	0.771143
O51	O	2.139517	-0.084071	1.104477
C52	C	1.261730	-0.512804	0.388327
C53	C	1.595064	-0.179471	0.721660
C54	C	1.928397	0.153862	1.054993
C55	C	1.143425	-0.512813	0.388351
C56	C	1.476758	-0.179479	0.721684
C57	C	1.810091	0.153854	1.055018
C58	C	1.074200	-0.584041	0.442107
C59	C	1.407533	-0.250707	0.775440
C60	C	1.740867	0.082626	1.108774
C61	C	1.003384	-0.486996	0.461937
C62	C	1.336718	-0.153663	0.795271
C63	C	1.670051	0.179670	1.128604
C64	C	1.003442	-0.609938	0.368503
C65	C	1.336775	-0.276604	0.701836
C66	C	1.670108	0.056729	1.035169
C67	C	1.074167	-0.415716	0.408220
C68	C	1.407500	-0.082383	0.741553
C69	C	1.740834	0.250950	1.074887
C70	C	1.074231	-0.538723	0.314751
C71	C	1.407564	-0.205390	0.648084
C72	C	1.740897	0.127944	0.981418
C73	C	1.003447	-0.441612	0.334554
C74	C	1.336780	-0.108278	0.667887
C75	C	1.670114	0.225055	1.001220
C76	C	1.538222	-0.789386	0.388300
C77	C	1.871555	-0.456052	0.721634
C78	C	2.204889	-0.122719	1.054967
C79	C	1.538298	-0.907691	0.388321
C80	C	1.871631	-0.574358	0.721655
C81	C	2.204965	-0.241024	1.054988
C82	C	1.609472	-0.976936	0.334508
C83	C	1.942805	-0.643603	0.667841
C84	C	2.276139	-0.310270	1.001174
C85	C	1.635482	-1.047640	0.408099
C86	C	1.968815	-0.714306	0.741432
C87	C	2.302149	-0.380973	1.074765
C88	C	1.512421	-1.047787	0.314777
C89	C	1.845755	-0.714453	0.648110
C90	C	2.179088	-0.381120	0.981444
C91	C	1.564358	-0.976836	0.461951
C92	C	1.897691	-0.643503	0.795284
C93	C	2.231024	-0.310169	1.128618
C94	C	1.441252	-0.976977	0.368580
C95	C	1.774585	-0.643644	0.701913
C96	C	2.107919	-0.310310	1.035246
C97	C	1.467225	-1.047648	0.442222
C98	C	1.800558	-0.714315	0.775555
C99	C	2.133892	-0.380981	1.108888
C100	C	1.815892	-0.512886	0.388302
C101	C	2.149225	-0.179552	0.721636
C102	C	2.482559	0.153781	1.054969
C103	C	1.934197	-0.512903	0.388297
C104	C	2.267531	-0.179570	0.721631
C105	C	2.600864	0.153763	1.054964
C106	C	1.538340	-0.512765	0.598623
C107	C	1.871674	-0.179432	0.931957
C108	C	2.205007	0.153901	1.265290
C109	C	1.538370	-0.512732	0.688244
C110	C	1.871703	-0.179398	1.021578
C111	C	2.205037	0.153935	1.354911
C112	C	1.538350	-0.235224	0.388346
C113	C	1.871683	0.098110	0.721679
C114	C	2.205016	0.431443	1.055013
C115	C	1.538383	-0.116918	0.388360
C116	C	1.871716	0.216415	0.721693
C117	C	2.205050	0.549748	1.055026
C118	C	1.538264	-0.512847	0.178824
C119	C	1.871597	-0.179513	0.512157
C120	C	2.204930	0.153820	0.845490
C121	C	1.538440	-0.512581	0.089203
C122	C	1.871774	-0.179247	0.422536
C123	C	2.205107	0.154086	0.755869
C124	C	1.538419	-0.512612	1.016420
C125	C	1.871752	-0.179279	1.349754
C126	C	2.205086	0.154054	1.683087
C127	C	1.538402	-0.512649	0.925112
C128	C	1.871736	-0.179316	1.258445
C129	C	2.205069	0.154018	1.591778
C130	C	1.538395	-0.512673	0.852335
C131	C	1.871728	-0.179339	1.185669
C132	C	2.205062	0.153994	1.519002
C133	C	1.538377	-0.512708	0.761021
C134	C	1.871711	-0.179374	1.094354
C135	C	2.205044	0.153959	1.427688
H136	H	0.972265	-0.465113	0.524157
H137	H	1.305598	-0.131779	0.857490
H138	H	1.638932	0.201554	1.190823
H139	H	1.586198	-0.945803	0.524216
H140	H	1.919531	-0.612470	0.857549
H141	H	2.252865	-0.279137	1.190883
Cl142	Cl	1.121925	-0.288923	0.434215
Cl143	Cl	1.455259	0.044410	0.767549
Cl144	Cl	1.788592	0.377743	1.100882
H145	H	1.105373	-0.560636	0.252550
H146	H	1.438707	-0.227302	0.585883
H147	H	1.772040	0.106031	0.919217
Cl148	Cl	0.955779	-0.348570	0.264332
Cl149	Cl	1.289113	-0.015237	0.597665
Cl150	Cl	1.622446	0.318096	0.930998
Cl151	Cl	0.955474	-0.736691	0.342616
Cl152	Cl	1.288807	-0.403357	0.675949
Cl153	Cl	1.622140	-0.070024	1.009283
Cl154	Cl	1.762251	-1.095542	0.433927
Cl155	Cl	2.095584	-0.762209	0.767260
Cl156	Cl	2.428917	-0.428875	1.100594
Cl157	Cl	1.702409	-0.928993	0.264309
Cl158	Cl	2.035743	-0.595660	0.597642
Cl159	Cl	2.369076	-0.262327	0.930975
Cl160	Cl	1.374353	-1.095290	0.512586
Cl161	Cl	1.707686	-0.761956	0.845919
Cl162	Cl	2.041020	-0.428623	1.179253
Cl163	Cl	1.478575	-1.095904	0.218729
Cl164	Cl	1.811908	-0.762571	0.552062
Cl165	Cl	2.145241	-0.429237	0.885396
Cl166	Cl	1.122169	-0.676864	0.512378
Cl167	Cl	1.455503	-0.343531	0.845712
Cl168	Cl	1.788836	-0.010197	1.179045
Cl169	Cl	1.314517	-0.929019	0.342736
Cl170	Cl	1.647850	-0.595686	0.676069
Cl171	Cl	1.981184	-0.262352	1.009402
