data_functionalizedCrystal
_audit_creation_method	'MofGen! by Chris Wilmer'
_symmetry_space_group_name_H-M	'P1'
_symmetry_Int_Tables_number	1
_symmetry_cell_setting	triclinic
loop_
_symmetry_equiv_pos_as_xyz
  x,y,z
_cell_length_a	10.723023
_cell_length_b	10.654550
_cell_length_c	9.798715
_cell_angle_alpha	89.998020
_cell_angle_beta	89.996770
_cell_angle_gamma	84.476225
loop_
_atom_site_label
_atom_site_type_symbol
_atom_site_fract_x
_atom_site_fract_y
_atom_site_fract_z
O1	O	1.657214	0.176142	-0.113473
O2	O	1.294064	0.193004	-0.113479
O3	O	1.483989	0.001832	-0.113471
O4	O	1.467289	0.367313	-0.113481
O5	O	1.483974	0.001832	0.113511
O6	O	1.294050	0.193003	0.113503
O7	O	1.657200	0.176142	0.113509
Zn8	Zn	1.475623	0.184572	0.149544
Zn9	Zn	1.475641	0.184573	-0.149514
O10	O	1.467275	0.367313	0.113501
C11	C	1.247557	0.191777	0.000012
C12	C	1.109002	0.188106	0.000010
C13	C	0.904041	0.182676	-0.117574
C14	C	1.047245	0.186470	-0.117574
C15	C	1.482755	-0.044966	0.000019
C16	C	1.479087	-0.184408	0.000014
C17	C	1.590911	-0.263911	0.000020
C18	C	1.587457	-0.394931	0.000010
C19	C	1.360344	-0.366933	-0.000006
C20	C	1.363800	-0.235915	-0.000006
C21	C	1.706199	-0.212404	0.000039
C22	C	1.818033	-0.291908	0.000046
C23	C	1.814578	-0.422928	0.000037
C24	C	1.699290	-0.474445	0.000020
C25	C	1.703707	0.177369	0.000015
C26	C	1.842262	0.181039	0.000009
C27	C	1.468508	0.414111	0.000008
C28	C	1.472177	0.553554	0.000004
N29	N	1.475619	0.184571	0.353644
N30	N	1.475655	0.184564	-0.353614
C31	C	1.555363	0.103950	0.421424
C32	C	1.555383	0.103946	0.578587
H33	H	1.709024	-0.105722	0.000051
H34	H	1.100373	0.187885	-0.218241
H35	H	0.850916	0.181261	-0.218240
H36	H	1.623660	0.034927	0.636875
H37	H	1.407357	0.253587	0.411966
H38	H	1.623616	0.034925	0.363105
H39	H	0.895388	0.182441	0.100675
N40	N	1.038509	0.185842	0.133248
H41	H	0.974891	0.261992	0.138848
H42	H	0.994173	0.106517	0.138166
H43	H	1.911896	-0.249955	0.000026
N44	N	1.935189	-0.508682	0.000032
H45	H	2.008742	-0.456167	0.000045
H46	H	1.938691	-0.563656	0.084176
H47	H	1.266481	-0.408889	-0.000017
N48	N	1.695560	-0.615759	-0.000009
H49	H	1.783895	-0.658311	-0.000010
H50	H	1.650083	-0.641726	0.084132
H51	H	1.272742	-0.171182	-0.000009
N52	N	1.385208	0.276007	0.569208
H53	H	1.433581	0.331855	0.509911
H54	H	1.329458	0.227536	0.510014
