data_functionalizedCrystal
_audit_creation_method	'MofGen! by Chris Wilmer'
_symmetry_space_group_name_H-M	'P1'
_symmetry_Int_Tables_number	1
_symmetry_cell_setting	triclinic
loop_
_symmetry_equiv_pos_as_xyz
  x,y,z
_cell_length_a	6.817900
_cell_length_b	19.551786
_cell_length_c	9.582880
_cell_angle_alpha	93.823021
_cell_angle_beta	111.207034
_cell_angle_gamma	101.662645
loop_
_atom_site_label
_atom_site_type_symbol
_atom_site_fract_x
_atom_site_fract_y
_atom_site_fract_z
V1	V	-4.107761	-0.096379	-0.467294
O2	O	-4.102841	0.004935	-0.457684
O3	O	-4.049964	-0.191396	-0.464786
O4	O	-4.098683	-0.094764	-0.670783
O5	O	-4.053784	-0.092366	-0.250260
V6	V	-4.587511	-0.084277	-0.441251
O7	O	-4.377295	-0.122927	-0.524420
O8	O	-4.768174	-0.057729	-0.384125
O9	O	-4.422102	0.010740	-0.443760
O10	O	-4.709828	-0.185591	-0.450862
O11	O	-4.758885	-0.088290	-0.658285
O12	O	-4.373382	-0.085892	-0.237762
C13	C	-3.891406	-0.214563	-0.457591
C14	C	-3.925699	-0.292239	-0.456897
C15	C	-4.109030	-0.842085	-0.314946
C16	C	-4.076787	-0.769098	-0.315583
C17	C	-4.124506	-0.742453	-0.452939
C18	C	-4.204424	-0.788799	-0.589664
C19	C	-4.236645	-0.861784	-0.589022
C20	C	-4.240546	-0.636720	-0.564667
C21	C	-4.208336	-0.563737	-0.565304
C22	C	-4.025120	-0.517345	-0.454925
C23	C	-3.874133	-0.543943	-0.343884
C24	C	-3.906354	-0.616928	-0.343241
C25	C	-4.089574	-0.663314	-0.453650
C26	C	-3.910234	-0.391867	-0.318898
C27	C	-3.877980	-0.318879	-0.319540
C28	C	-4.005640	-0.338582	-0.593626
C29	C	-4.037871	-0.411568	-0.592979
C30	C	-3.990174	-0.438206	-0.455611
C31	C	-3.953551	-0.091298	-0.720360
C32	C	-4.027351	-0.090606	-0.886718
C33	C	-4.244000	0.033903	-0.450950
C34	C	-4.188947	0.111579	-0.451654
C35	C	-4.181854	-0.089360	-0.188178
C36	C	-4.087293	-0.090049	-0.021818
H37	H	-4.070184	-0.863768	-0.203090
H38	H	-4.331283	-0.542086	-0.655719
H39	H	-3.783410	-0.638581	-0.252831
H40	H	-4.102959	-0.449297	-0.704303
O41	O	-3.696299	-0.498911	-0.236463
C42	C	-3.495606	-0.456340	0.029814
C43	C	-3.697108	-0.507364	-0.091681
H44	H	-3.496170	-0.463168	0.146900
H45	H	-3.498446	-0.399589	0.010416
H46	H	-3.342929	-0.468525	0.022066
H47	H	-3.849890	-0.495243	-0.084004
H48	H	-3.694076	-0.564100	-0.072244
H49	H	-4.011696	-0.731363	-0.204255
H50	H	-4.044484	-0.316888	-0.705463
O51	O	-3.863685	-0.417629	-0.185327
C52	C	-3.733780	-0.390387	0.086451
C53	C	-3.786361	-0.361120	-0.064706
H54	H	-3.671296	-0.344715	0.184010
H55	H	-3.604407	-0.421232	0.100547
H56	H	-3.886876	-0.426893	0.086683
H57	H	-3.633391	-0.324585	-0.065045
H58	H	-3.915817	-0.330316	-0.078743
O59	O	-4.418704	-0.681682	-0.671965
C60	C	-4.746742	-0.693613	-0.891688
C61	C	-4.545111	-0.642616	-0.770250
H62	H	-4.848975	-0.662050	-0.971202
H63	H	-4.846968	-0.725553	-0.834600
H64	H	-4.693461	-0.731002	-0.959230
H65	H	-4.598200	-0.605184	-0.702669
H66	H	-4.444932	-0.610727	-0.827431
O67	O	-3.800623	-0.273801	-0.186842
C68	C	-3.865002	-0.183472	-0.036941
C69	C	-3.952846	-0.234476	-0.187304
H70	H	-3.988052	-0.151675	-0.037251
H71	H	-3.705596	-0.145958	-0.023518
H72	H	-3.836377	-0.215066	0.061318
H73	H	-3.981605	-0.202940	-0.285652
H74	H	-4.112183	-0.271992	-0.200594
O75	O	-4.251136	-0.763009	-0.723201
C76	C	-4.525191	-0.760960	-0.966085
C77	C	-4.472583	-0.790231	-0.814932
H78	H	-4.704239	-0.782946	-1.040279
H79	H	-4.421963	-0.777380	-1.026804
H80	H	-4.488328	-0.700835	-0.943021
H81	H	-4.509458	-0.850357	-0.837862
H82	H	-4.575795	-0.773756	-0.754259
H83	H	-4.301721	-0.899512	-0.700350
