data_functionalizedCrystal
_audit_creation_method	'MofGen! by Chris Wilmer'
_symmetry_space_group_name_H-M	'P1'
_symmetry_Int_Tables_number	1
_symmetry_cell_setting	triclinic
loop_
_symmetry_equiv_pos_as_xyz
  x,y,z
_cell_length_a	21.395362
_cell_length_b	21.395361
_cell_length_c	21.395355
_cell_angle_alpha	90.021511
_cell_angle_beta	90.043940
_cell_angle_gamma	90.046585
loop_
_atom_site_label
_atom_site_type_symbol
_atom_site_fract_x
_atom_site_fract_y
_atom_site_fract_z
Zn1	Zn	-0.957859	0.249246	-0.354573
Zn2	Zn	-0.707859	0.499246	-0.104573
Zn3	Zn	-0.457859	0.749246	0.145427
Zn4	Zn	-0.207859	0.999246	0.395427
Zn5	Zn	-0.957762	0.354005	-0.249790
Zn6	Zn	-0.707762	0.604005	0.000210
Zn7	Zn	-0.457762	0.854005	0.250210
Zn8	Zn	-0.207762	1.104005	0.500210
Zn9	Zn	-0.853074	0.249275	-0.249774
Zn10	Zn	-0.603074	0.499275	0.000226
Zn11	Zn	-0.353074	0.749275	0.250226
Zn12	Zn	-0.103074	0.999275	0.500226
Zn13	Zn	-0.853044	0.354018	-0.354494
Zn14	Zn	-0.603044	0.604018	-0.104494
Zn15	Zn	-0.353044	0.854018	0.145506
Zn16	Zn	-0.103044	1.104018	0.395506
O17	O	-0.905435	0.301636	-0.302158
O18	O	-0.655435	0.551636	-0.052158
O19	O	-0.405435	0.801636	0.197842
O20	O	-0.155435	1.051636	0.447842
O21	O	-1.045524	0.263125	-0.340712
O22	O	-0.795524	0.513125	-0.090712
O23	O	-0.545524	0.763125	0.159288
O24	O	-0.295524	1.013125	0.409288
O25	O	-0.943847	0.340119	-0.162110
O26	O	-0.693847	0.590119	0.087890
O27	O	-0.443847	0.840119	0.337890
O28	O	-0.193847	1.090119	0.587890
O29	O	-0.867028	0.161593	-0.263702
O30	O	-0.617028	0.411593	-0.013702
O31	O	-0.367028	0.661593	0.236298
O32	O	-0.117028	0.911593	0.486298
O33	O	-1.045453	0.340091	-0.263729
O34	O	-0.795453	0.590091	-0.013729
O35	O	-0.545453	0.840091	0.236271
O36	O	-0.295453	1.090091	0.486271
O37	O	-0.944013	0.161572	-0.340697
O38	O	-0.694013	0.411572	-0.090697
O39	O	-0.444013	0.661572	0.159303
O40	O	-0.194013	0.911572	0.409303
O41	O	-0.866934	0.263174	-0.162098
O42	O	-0.616934	0.513174	0.087902
O43	O	-0.366934	0.763174	0.337902
O44	O	-0.116934	1.013174	0.587902
O45	O	-0.765392	0.263187	-0.263626
O46	O	-0.515392	0.513187	-0.013626
O47	O	-0.265392	0.763187	0.236374
O48	O	-0.015392	1.013187	0.486374
O49	O	-0.866976	0.340113	-0.442183
O50	O	-0.616976	0.590113	-0.192183
O51	O	-0.366976	0.840113	0.057817
O52	O	-0.116976	1.090113	0.307817
O53	O	-0.765370	0.340141	-0.340564
O54	O	-0.515370	0.590141	-0.090564
O55	O	-0.265370	0.840141	0.159436
O56	O	-0.015370	1.090141	0.409436
O57	O	-0.943983	0.263137	-0.442240
O58	O	-0.693983	0.513137	-0.192240
O59	O	-0.443983	0.763137	0.057760
O60	O	-0.193983	1.013137	0.307760
O61	O	-0.943817	0.441685	-0.263653
O62	O	-0.693817	0.691685	-0.013653
O63	O	-0.443817	0.941685	0.236347
O64	O	-0.193817	1.191685	0.486347
O65	O	-0.866881	0.441695	-0.340579
O66	O	-0.616881	0.691695	-0.090579
O67	O	-0.366881	0.941695	0.159421
O68	O	-0.116881	1.191695	0.409421
C69	C	-0.742647	0.301669	-0.302085
C70	C	-0.492647	0.551669	-0.052085
C71	C	-0.242647	0.801669	0.197915
C72	C	0.007353	1.051669	0.447915
C73	C	-0.673006	0.301698	-0.302069
C74	C	-0.423006	0.551698	-0.052069
C75	C	-0.173006	0.801698	0.197931
C76	C	0.076994	1.051698	0.447931
C77	C	-0.905352	0.464424	-0.302123
C78	C	-0.655352	0.714424	-0.052123
C79	C	-0.405352	0.964424	0.197877
C80	C	-0.155352	1.214424	0.447877
C81	C	-0.905374	0.534065	-0.302129
C82	C	-0.655374	0.784065	-0.052129
C83	C	-0.405374	1.034065	0.197871
C84	C	-0.155374	1.284065	0.447871
C85	C	-0.905487	0.301623	-0.465581
C86	C	-0.655487	0.551623	-0.215581
C87	C	-0.405487	0.801623	0.034419
C88	C	-0.155487	1.051623	0.284419
C89	C	-0.905509	0.301618	-0.535222
C90	C	-0.655509	0.551618	-0.285222
C91	C	-0.405509	0.801618	-0.035222
C92	C	-0.155509	1.051618	0.214778
C93	C	-1.068858	0.301603	-0.302231
C94	C	-0.818858	0.551603	-0.052231
C95	C	-0.568858	0.801603	0.197769
C96	C	-0.318858	1.051603	0.447769
C97	C	-1.138499	0.301589	-0.302262
C98	C	-0.888499	0.551589	-0.052262
C99	C	-0.638499	0.801589	0.197738
C100	C	-0.388499	1.051589	0.447738
C101	C	-0.640297	0.341822	-0.342070
C102	C	-0.390297	0.591822	-0.092070
C103	C	-0.140297	0.841822	0.157930
C104	C	0.109703	1.091822	0.407930
C105	C	-0.574862	0.341806	-0.342098
C106	C	-0.324862	0.591806	-0.092098
C107	C	-0.074862	0.841806	0.157902
C108	C	0.175138	1.091806	0.407902
C109	C	-0.542138	0.301674	-0.302113
C110	C	-0.292138	0.551674	-0.052113
C111	C	-0.042138	0.801674	0.197887
C112	C	0.207862	1.051674	0.447887
C113	C	-0.574854	0.261543	-0.262109
C114	C	-0.324854	0.511543	-0.012109
C115	C	-0.074854	0.761543	0.237891
C116	C	0.175146	1.011543	0.487891
C117	C	-0.640288	0.261555	-0.262087
C118	C	-0.390288	0.511555	-0.012087
C119	C	-0.140288	0.761555	0.237913
C120	C	0.109712	1.011555	0.487913
C121	C	-0.438413	0.296627	-0.245708
C122	C	-0.188413	0.546627	0.004292
C123	C	0.061587	0.796627	0.254292
C124	C	0.311587	1.046627	0.504292
C125	C	-0.372980	0.296619	-0.245730
C126	C	-0.122980	0.546619	0.004270
C127	C	0.127020	0.796619	0.254270
C128	C	0.377020	1.046619	0.504270
C129	C	-0.340317	0.301633	-0.302182
C130	C	-0.090317	0.551633	-0.052182
C131	C	0.159683	0.801633	0.197818
C132	C	0.409683	1.051633	0.447818
C133	C	-0.373095	0.306668	-0.358616
C134	C	-0.123095	0.556668	-0.108616
C135	C	0.126905	0.806668	0.141384
C136	C	0.376905	1.056668	0.391384
C137	C	-0.438529	0.306681	-0.358594
C138	C	-0.188529	0.556681	-0.108594
C139	C	0.061471	0.806681	0.141406
C140	C	0.311471	1.056681	0.391406
C141	C	-0.471185	0.301656	-0.302133
C142	C	-0.221185	0.551656	-0.052133
C143	C	0.028815	0.801656	0.197867
C144	C	0.278815	1.051656	0.447867
C145	C	-0.236656	0.341742	-0.342218
C146	C	0.013344	0.591742	-0.092218
C147	C	0.263344	0.841742	0.157782
C148	C	0.513344	1.091742	0.407782
C149	C	-0.171219	0.341723	-0.342247
C150	C	0.078781	0.591723	-0.092247
C151	C	0.328781	0.841723	0.157753
C152	C	0.578781	1.091723	0.407753
C153	C	-0.171213	0.261462	-0.262252
C154	C	0.078787	0.511462	-0.012252
C155	C	0.328787	0.761462	0.237748
C156	C	0.578787	1.011462	0.487748
C157	C	-0.236648	0.261479	-0.262229
C158	C	0.013352	0.511479	-0.012229
C159	C	0.263352	0.761479	0.237771
C160	C	0.513352	1.011479	0.487771
C161	C	-0.269366	0.301622	-0.302211
C162	C	-0.019366	0.551622	-0.052211
C163	C	0.230634	0.801622	0.197789
C164	C	0.480634	1.051622	0.447789
C165	C	-0.905535	0.138213	-0.302206
C166	C	-0.655535	0.388213	-0.052206
C167	C	-0.405535	0.638213	0.197794
C168	C	-0.155535	0.888213	0.447794
C169	C	-0.905578	0.068571	-0.302227
C170	C	-0.655578	0.318571	-0.052227
C171	C	-0.405578	0.568571	0.197773
C172	C	-0.155578	0.818571	0.447773
C173	C	-0.945470	0.566752	-0.262114
C174	C	-0.695470	0.816752	-0.012114
C175	C	-0.445470	1.066752	0.237886
C176	C	-0.195470	1.316752	0.487886
C177	C	-0.945499	0.632188	-0.262128
C178	C	-0.695499	0.882188	-0.012128
C179	C	-0.445499	1.132188	0.237872
C180	C	-0.195499	1.382188	0.487872
C181	C	-0.905421	0.664933	-0.302150
C182	C	-0.655421	0.914933	-0.052150
C183	C	-0.405421	1.164933	0.197850
C184	C	-0.155421	1.414933	0.447850
C185	C	-0.865322	0.632238	-0.342172
C186	C	-0.615322	0.882238	-0.092172
C187	C	-0.365322	1.132238	0.157828
C188	C	-0.115322	1.382238	0.407828
C189	C	-0.865299	0.566804	-0.342162
C190	C	-0.615299	0.816804	-0.092162
C191	C	-0.365299	1.066804	0.157838
C192	C	-0.115299	1.316804	0.407838
C193	C	-0.849006	0.768664	-0.307041
C194	C	-0.599006	1.018664	-0.057041
C195	C	-0.349006	1.268664	0.192959
C196	C	-0.099006	1.518664	0.442959
C197	C	-0.849029	0.834097	-0.307047
C198	C	-0.599029	1.084097	-0.057047
C199	C	-0.349029	1.334097	0.192953
C200	C	-0.099029	1.584097	0.442953
C201	C	-0.905494	0.866754	-0.302187
C202	C	-0.655494	1.116754	-0.052187
C203	C	-0.405494	1.366754	0.197813
C204	C	-0.155494	1.616754	0.447813
C205	C	-0.961939	0.833970	-0.297307
C206	C	-0.711939	1.083970	-0.047307
C207	C	-0.461939	1.333970	0.202693
C208	C	-0.211939	1.583970	0.452693
C209	C	-0.961915	0.768536	-0.297296
C210	C	-0.711915	1.018536	-0.047296
C211	C	-0.461915	1.268536	0.202704
C212	C	-0.211915	1.518536	0.452704
C213	C	-0.905443	0.735886	-0.302167
C214	C	-0.655443	0.985886	-0.052167
C215	C	-0.405443	1.235886	0.197833
C216	C	-0.155443	1.485886	0.447833
C217	C	-0.945625	0.970394	-0.262186
C218	C	-0.695625	1.220394	-0.012186
C219	C	-0.445625	1.470394	0.237814
C220	C	-0.195625	1.720394	0.487814
C221	C	-0.945655	1.035830	-0.262204
C222	C	-0.695655	1.285830	-0.012204
C223	C	-0.445655	1.535830	0.237796
C224	C	-0.195655	1.785830	0.487796
C225	C	-0.865473	1.035879	-0.342245
C226	C	-0.615473	1.285879	-0.092245
C227	C	-0.365473	1.535879	0.157755
C228	C	-0.115473	1.785879	0.407755
C229	C	-0.865448	0.970444	-0.342230
C230	C	-0.615448	1.220444	-0.092230
C231	C	-0.365448	1.470444	0.157770
C232	C	-0.115448	1.720444	0.407770
C233	C	-0.905524	0.937705	-0.302197
C234	C	-0.655524	1.187705	-0.052197
C235	C	-0.405524	1.437705	0.197803
C236	C	-0.155524	1.687705	0.447803
C237	C	-0.945605	0.261535	-0.567966
C238	C	-0.695605	0.511535	-0.317966
C239	C	-0.445605	0.761535	-0.067966
C240	C	-0.195605	1.011535	0.182034
C241	C	-0.945604	0.261508	-0.633402
C242	C	-0.695604	0.511508	-0.383402
C243	C	-0.445604	0.761508	-0.133402
C244	C	-0.195604	1.011508	0.116598
C245	C	-0.905514	0.301575	-0.666091
C246	C	-0.655514	0.551575	-0.416091
C247	C	-0.405514	0.801575	-0.166091
C248	C	-0.155514	1.051575	0.083909
C249	C	-0.865410	0.341661	-0.633339
C250	C	-0.615410	0.591661	-0.383339
C251	C	-0.365410	0.841661	-0.133339
C252	C	-0.115410	1.091661	0.116661
C253	C	-0.865407	0.341682	-0.567904
C254	C	-0.615407	0.591682	-0.317904
C255	C	-0.365407	0.841682	-0.067904
C256	C	-0.115407	1.091682	0.182096
C257	C	-0.900538	0.357992	-0.769752
C258	C	-0.650538	0.607992	-0.519752
C259	C	-0.400538	0.857992	-0.269752
C260	C	-0.150538	1.107992	-0.019752
C261	C	-0.900545	0.357972	-0.835185
C262	C	-0.650545	0.607972	-0.585185
C263	C	-0.400545	0.857972	-0.335185
C264	C	-0.150545	1.107972	-0.085185
C265	C	-0.905518	0.301509	-0.867911
C266	C	-0.655518	0.551509	-0.617911
C267	C	-0.405518	0.801509	-0.367911
C268	C	-0.155518	1.051509	-0.117911
C269	C	-0.910497	0.245065	-0.835197
C270	C	-0.660497	0.495065	-0.585197
C271	C	-0.410497	0.745065	-0.335197
C272	C	-0.160497	0.995065	-0.085197
C273	C	-0.910495	0.245086	-0.769763
C274	C	-0.660495	0.495086	-0.519763
C275	C	-0.410495	0.745086	-0.269763
C276	C	-0.160495	0.995086	-0.019763
C277	C	-0.905512	0.301556	-0.737043
C278	C	-0.655512	0.551556	-0.487043
C279	C	-0.405512	0.801556	-0.237043
C280	C	-0.155512	1.051556	0.012957
C281	C	-0.945615	0.261393	-0.971608
C282	C	-0.695615	0.511393	-0.721608
C283	C	-0.445615	0.761393	-0.471608
C284	C	-0.195615	1.011393	-0.221608
C285	C	-0.945610	0.261365	-1.037045
C286	C	-0.695610	0.511365	-0.787045
C287	C	-0.445610	0.761365	-0.537045
C288	C	-0.195610	1.011365	-0.287045
C289	C	-0.865419	0.341524	-1.036980
C290	C	-0.615419	0.591524	-0.786980
C291	C	-0.365419	0.841524	-0.536980
C292	C	-0.115419	1.091524	-0.286980
C293	C	-0.865421	0.341547	-0.971545
C294	C	-0.615421	0.591547	-0.721545
C295	C	-0.365421	0.841547	-0.471545
C296	C	-0.115421	1.091547	-0.221545
C297	C	-0.905522	0.301482	-0.938863
C298	C	-0.655522	0.551482	-0.688863
C299	C	-0.405522	0.801482	-0.438863
C300	C	-0.155522	1.051482	-0.188863
C301	C	-0.905419	0.301603	-0.139370
C302	C	-0.655419	0.551603	0.110630
C303	C	-0.405419	0.801603	0.360630
C304	C	-0.155419	1.051603	0.610630
C305	C	-0.905518	0.301432	-0.069729
C306	C	-0.655518	0.551432	0.180271
C307	C	-0.405518	0.801432	0.430271
C308	C	-0.155518	1.051432	0.680271
H309	H	-0.666932	0.374509	-0.374627
H310	H	-0.416932	0.624509	-0.124627
H311	H	-0.166932	0.874509	0.125373
H312	H	0.083068	1.124509	0.375373
H313	H	-0.346502	0.310751	-0.404585
H314	H	-0.096502	0.560751	-0.154585
H315	H	0.153498	0.810751	0.095415
H316	H	0.403498	1.060751	0.345415
F317	F	-0.988292	0.218751	-0.936823
F318	F	-0.738292	0.468751	-0.686823
F319	F	-0.488292	0.718751	-0.436823
F320	F	-0.238292	0.968751	-0.186823
H321	H	-0.978259	0.943737	-0.229590
H322	H	-0.728259	1.193737	0.020410
H323	H	-0.478259	1.443737	0.270410
H324	H	-0.228259	1.693737	0.520410
H325	H	-0.803022	0.742081	-0.311001
H326	H	-0.553022	0.992081	-0.061001
H327	H	-0.303022	1.242081	0.188999
H328	H	-0.053022	1.492081	0.438999
H329	H	-0.832753	0.374322	-0.541245
H330	H	-0.582753	0.624322	-0.291245
H331	H	-0.332753	0.874322	-0.041245
H332	H	-0.082753	1.124322	0.208755
H333	H	-0.832774	0.374190	-0.944885
H334	H	-0.582774	0.624190	-0.694885
H335	H	-0.332774	0.874190	-0.444885
H336	H	-0.082774	1.124190	-0.194885
F337	F	-0.675100	0.218848	-0.219510
F338	F	-0.425100	0.468848	0.030490
F339	F	-0.175100	0.718848	0.280490
F340	F	0.074900	0.968848	0.530490
H341	H	-0.832647	0.540189	-0.374747
H342	H	-0.582647	0.790189	-0.124747
H343	H	-0.332647	1.040189	0.125253
H344	H	-0.082647	1.290189	0.375253
F345	F	-1.021986	0.733647	-0.292107
F346	F	-0.771986	0.983647	-0.042107
F347	F	-0.521986	1.233647	0.207893
F348	F	-0.271986	1.483647	0.457893
F349	F	-1.022037	0.868720	-0.292129
F350	F	-0.772037	1.118720	-0.042129
F351	F	-0.522037	1.368720	0.207871
F352	F	-0.272037	1.618720	0.457871
F353	F	-0.895259	0.418093	-0.734927
F354	F	-0.645259	0.668093	-0.484927
F355	F	-0.395259	0.918093	-0.234927
F356	F	-0.145259	1.168093	0.015073
F357	F	-0.136389	0.218747	-0.219700
F358	F	0.113611	0.468747	0.030300
F359	F	0.363611	0.718747	0.280300
F360	F	0.613611	0.968747	0.530300
F361	F	-0.988283	0.218892	-0.533187
F362	F	-0.738283	0.468892	-0.283187
F363	F	-0.488283	0.718892	-0.033187
F364	F	-0.238283	0.968892	0.216813
H365	H	-0.803068	0.860785	-0.311015
H366	H	-0.553068	1.110785	-0.061015
H367	H	-0.303068	1.360785	0.188985
H368	H	-0.053068	1.610785	0.438985
H369	H	-0.548226	0.374479	-0.374674
H370	H	-0.298226	0.624479	-0.124674
H371	H	-0.048226	0.874479	0.125326
H372	H	0.201774	1.124479	0.375326
F373	F	-0.473411	0.312037	-0.418652
F374	F	-0.223411	0.562037	-0.168652
F375	F	0.026589	0.812037	0.081348
F376	F	0.276589	1.062037	0.331348
H377	H	-0.978103	0.540098	-0.229519
H378	H	-0.728103	0.790098	0.020481
H379	H	-0.478103	1.040098	0.270481
H380	H	-0.228103	1.290098	0.520481
H381	H	-0.832795	0.943828	-0.374811
H382	H	-0.582795	1.193828	-0.124811
H383	H	-0.332795	1.443828	0.125189
H384	H	-0.082795	1.693828	0.375189
F385	F	-0.988338	1.070619	-0.219617
F386	F	-0.738338	1.320619	0.030383
F387	F	-0.488338	1.570619	0.280383
F388	F	-0.238338	1.820619	0.530383
F389	F	-0.915791	0.185016	-0.734949
F390	F	-0.665791	0.435016	-0.484949
F391	F	-0.415791	0.685016	-0.234949
F392	F	-0.165791	0.935016	0.015051
F393	F	-0.473169	0.291291	-0.185619
F394	F	-0.223169	0.541291	0.064381
F395	F	0.026831	0.791291	0.314381
F396	F	0.276831	1.041291	0.564381
F397	F	-0.988272	0.218834	-0.668258
F398	F	-0.738272	0.468834	-0.418258
F399	F	-0.488272	0.718834	-0.168258
F400	F	-0.238272	0.968834	0.081742
H401	H	-0.263280	0.228809	-0.229652
H402	H	-0.013280	0.478809	0.020348
H403	H	0.236720	0.728809	0.270348
H404	H	0.486720	0.978809	0.520348
F405	F	-0.915792	0.184969	-0.870022
F406	F	-0.665792	0.434969	-0.620022
F407	F	-0.415792	0.684969	-0.370022
F408	F	-0.165792	0.934969	-0.120022
F409	F	-0.540026	0.218829	-0.219557
F410	F	-0.290026	0.468829	0.030443
F411	F	-0.040026	0.718829	0.280443
F412	F	0.209974	0.968829	0.530443
H413	H	-0.832843	1.062540	-0.374834
H414	H	-0.582843	1.312540	-0.124834
H415	H	-0.332843	1.562540	0.125166
H416	H	-0.082843	1.812540	0.375166
F417	F	-0.271479	0.384463	-0.384772
F418	F	-0.021479	0.634463	-0.134772
F419	F	0.228521	0.884463	0.115228
F420	F	0.478521	1.134463	0.365228
H421	H	-0.978260	0.228721	-1.063704
H422	H	-0.728260	0.478721	-0.813704
H423	H	-0.478260	0.728721	-0.563704
H424	H	-0.228260	0.978721	-0.313704
H425	H	-0.832766	0.374282	-0.659958
H426	H	-0.582766	0.624282	-0.409958
H427	H	-0.332766	0.874282	-0.159958
H428	H	-0.082766	1.124282	0.090042
H429	H	-0.978153	0.658807	-0.229544
H430	H	-0.728153	0.908807	0.020456
H431	H	-0.478153	1.158807	0.270456
H432	H	-0.228153	1.408807	0.520456
F433	F	-0.822746	0.384163	-1.071766
F434	F	-0.572746	0.634163	-0.821766
F435	F	-0.322746	0.884163	-0.571766
F436	F	-0.072746	1.134163	-0.321766
H437	H	-0.896494	0.403932	-0.861815
H438	H	-0.646494	0.653932	-0.611815
H439	H	-0.396494	0.903932	-0.361815
H440	H	-0.146494	1.153932	-0.111815
F441	F	-0.822671	0.667089	-0.384769
F442	F	-0.572671	0.917089	-0.134769
F443	F	-0.322671	1.167089	0.115231
F444	F	-0.072671	1.417089	0.365231
H445	H	-0.346297	0.292523	-0.199778
H446	H	-0.096297	0.542523	0.050222
H447	H	0.153703	0.792523	0.300222
H448	H	0.403703	1.042523	0.550222
H449	H	-0.144589	0.374395	-0.374824
H450	H	0.105411	0.624395	-0.124824
H451	H	0.355411	0.874395	0.125176
H452	H	0.605411	1.124395	0.375176
