data_functionalizedCrystal
_audit_creation_method	'MofGen! by Chris Wilmer'
_symmetry_space_group_name_H-M	'P1'
_symmetry_Int_Tables_number	1
_symmetry_cell_setting	triclinic
loop_
_symmetry_equiv_pos_as_xyz
  x,y,z
_cell_length_a	10.654550
_cell_length_b	9.065218
_cell_length_c	9.730223
_cell_angle_alpha	90.000469
_cell_angle_beta	89.996251
_cell_angle_gamma	84.750394
loop_
_atom_site_label
_atom_site_type_symbol
_atom_site_fract_x
_atom_site_fract_y
_atom_site_fract_z
O1	O	1.668655	0.207228	-0.114397
O2	O	1.303254	0.226972	-0.114374
O3	O	1.493507	0.002417	-0.114383
O4	O	1.478402	0.431784	-0.114388
O5	O	1.493505	0.002422	0.114197
O6	O	1.303252	0.226978	0.114206
O7	O	1.668653	0.207234	0.114183
Zn8	Zn	1.485952	0.217107	0.150486
Zn9	Zn	1.485955	0.217099	-0.150678
O10	O	1.478400	0.431790	0.114192
C11	C	1.256450	0.225525	-0.000082
C12	C	1.116989	0.221188	-0.000073
C13	C	1.492055	-0.052559	-0.000096
C14	C	1.487714	-0.216378	-0.000102
C15	C	1.038027	0.353403	-0.000095
C16	C	0.906990	0.349319	-0.000118
C17	C	0.933890	0.080793	-0.000105
C18	C	1.064925	0.084879	-0.000071
C19	C	1.022496	0.508434	-0.000108
C20	C	0.891459	0.504350	-0.000132
C21	C	1.715457	0.208681	-0.000113
C22	C	1.854918	0.213018	-0.000130
C23	C	1.479852	0.486766	-0.000099
C24	C	1.484193	0.650585	-0.000102
N25	N	1.485959	0.217111	0.356023
N26	N	1.485958	0.217084	-0.356214
C27	C	1.570225	0.117712	0.427945
C28	C	1.570222	0.117694	0.571828
C29	C	1.401682	0.316488	0.571854
C30	C	1.401681	0.316497	0.427973
C31	C	1.667534	0.002944	0.427931
C32	C	1.667531	0.002926	0.571814
H33	H	0.891483	-0.030185	-0.000124
O34	O	1.630819	-0.124930	0.625237
C35	C	1.728758	-0.193796	0.706706
H36	H	1.792960	-0.107411	0.742361
H37	H	1.686817	-0.247348	0.800031
H38	H	1.785692	-0.282314	0.643607
O39	O	1.065407	0.567488	-0.117696
C40	C	1.127138	0.694220	-0.085660
H41	H	1.160363	0.687631	0.025720
H42	H	1.211835	0.699889	-0.156434
H43	H	1.059138	0.797618	-0.100359
H44	H	1.758860	0.038880	0.383298
O45	O	1.319770	0.413185	0.358321
C46	C	1.245368	0.500873	0.452684
H47	H	1.296880	0.503106	0.555241
H48	H	1.227525	0.618498	0.411121
H49	H	1.151537	0.451925	0.467993
O50	O	0.836987	0.560113	0.117540
C51	C	0.705545	0.552628	0.110540
H52	H	0.683790	0.463214	0.034015
H53	H	0.668448	0.524457	0.216338
H54	H	0.658110	0.664159	0.075609
H55	H	0.849958	0.562761	-0.095800
O56	O	1.782883	0.032898	0.618246
C57	C	1.875110	-0.076219	0.569842
H58	H	1.838849	-0.130112	0.473595
H59	H	1.964997	-0.022726	0.544191
H60	H	1.896061	-0.164052	0.652597
O61	O	1.319943	0.412976	0.641963
C62	C	1.337986	0.391626	0.784379
H63	H	1.437212	0.337573	0.804022
H64	H	1.325273	0.503206	0.839073
H65	H	1.266063	0.316837	0.825203
O66	O	1.641244	-0.132219	0.381173
C67	C	1.530754	-0.116471	0.300753
H68	H	1.515735	0.001646	0.259800
H69	H	1.540635	-0.197420	0.210911
H70	H	1.446549	-0.140904	0.366515
O71	O	1.141755	-0.043457	-0.000223
C72	C	1.218367	-0.049168	-0.118604
H73	H	1.226337	0.068007	-0.158081
H74	H	1.316194	-0.103119	-0.091948
H75	H	1.174525	-0.117007	-0.201505
H76	H	1.052066	0.569069	0.095557
