data_functionalizedCrystal
_audit_creation_method	'MofGen! by Chris Wilmer'
_symmetry_space_group_name_H-M	'P1'
_symmetry_Int_Tables_number	1
_symmetry_cell_setting	triclinic
loop_
_symmetry_equiv_pos_as_xyz
  x,y,z
_cell_length_a	11.792254
_cell_length_b	11.792241
_cell_length_c	7.540329
_cell_angle_alpha	89.996256
_cell_angle_beta	89.997091
_cell_angle_gamma	84.196007
loop_
_atom_site_label
_atom_site_type_symbol
_atom_site_fract_x
_atom_site_fract_y
_atom_site_fract_z
O1	O	1.506898	0.155635	-0.147482
O2	O	1.756898	0.405635	0.102518
O3	O	2.006898	0.655635	0.352518
O4	O	2.256898	0.905635	0.602518
O5	O	1.176559	0.171653	-0.147486
O6	O	1.426559	0.421653	0.102514
O7	O	1.676559	0.671653	0.352514
O8	O	1.926559	0.921653	0.602514
O9	O	1.349745	-0.001527	-0.147471
O10	O	1.599745	0.248473	0.102529
O11	O	1.849745	0.498473	0.352529
O12	O	2.099745	0.748473	0.602529
O13	O	1.333712	0.328814	-0.147496
O14	O	1.583712	0.578814	0.102504
O15	O	1.833712	0.828814	0.352504
O16	O	2.083712	1.078814	0.602504
O17	O	1.349734	-0.001529	0.147494
O18	O	1.599734	0.248471	0.397494
O19	O	1.849734	0.498471	0.647494
O20	O	2.099734	0.748471	0.897494
O21	O	1.176548	0.171650	0.147479
O22	O	1.426548	0.421650	0.397479
O23	O	1.676548	0.671650	0.647479
O24	O	1.926548	0.921650	0.897479
O25	O	1.506887	0.155632	0.147483
O26	O	1.756887	0.405632	0.397483
O27	O	2.006887	0.655632	0.647483
O28	O	2.256887	0.905632	0.897483
Cu29	Cu	1.341717	0.163641	0.174414
Cu30	Cu	1.591717	0.413641	0.424414
Cu31	Cu	1.841717	0.663641	0.674414
Cu32	Cu	2.091717	0.913641	0.924414
Cu33	Cu	1.341729	0.163644	-0.174416
Cu34	Cu	1.591729	0.413644	0.075584
Cu35	Cu	1.841729	0.663644	0.325584
Cu36	Cu	2.091729	0.913644	0.575584
O37	O	1.333701	0.328812	0.147469
O38	O	1.583701	0.578812	0.397469
O39	O	1.833701	0.828812	0.647469
O40	O	2.083701	1.078812	0.897469
C41	C	1.134263	0.170642	-0.000004
C42	C	1.384263	0.420642	0.249996
C43	C	1.634263	0.670642	0.499996
C44	C	1.884263	0.920642	0.749996
C45	C	1.008250	0.167622	-0.000005
C46	C	1.258250	0.417622	0.249995
C47	C	1.508250	0.667622	0.499995
C48	C	1.758250	0.917622	0.749995
C49	C	0.905913	0.165168	-0.000012
C50	C	1.155913	0.415168	0.249988
C51	C	1.405913	0.665168	0.499988
C52	C	1.655913	0.915168	0.749988
C53	C	0.777527	0.162100	-0.000013
C54	C	1.027527	0.412100	0.249987
C55	C	1.277527	0.662100	0.499987
C56	C	1.527527	0.912100	0.749987
C57	C	1.348732	-0.043819	0.000011
C58	C	1.598732	0.206181	0.250011
C59	C	1.848732	0.456181	0.500011
C60	C	2.098732	0.706181	0.750011
C61	C	1.345718	-0.169832	0.000009
C62	C	1.595718	0.080168	0.250009
C63	C	1.845718	0.330168	0.500009
C64	C	2.095718	0.580168	0.750009
C65	C	1.340175	-0.400545	-0.000021
C66	C	1.590175	-0.150545	0.249979
C67	C	1.840175	0.099455	0.499979
C68	C	2.090175	0.349455	0.749979
C69	C	1.343255	-0.272160	-0.000004
C70	C	1.593255	-0.022160	0.249996
C71	C	1.843255	0.227840	0.499996
C72	C	2.093255	0.477840	0.749996
C73	C	1.549183	0.156643	-0.000003
C74	C	1.799183	0.406643	0.249997
C75	C	2.049183	0.656643	0.499997
C76	C	2.299183	0.906643	0.749997
C77	C	1.675196	0.159663	-0.000013
C78	C	1.925196	0.409663	0.249987
C79	C	2.175196	0.659663	0.499987
C80	C	2.425196	0.909663	0.749987
C81	C	1.334714	0.371104	-0.000017
C82	C	1.584714	0.621104	0.249983
C83	C	1.834714	0.871104	0.499983
C84	C	2.084714	1.121104	0.749983
C85	C	1.337728	0.497118	-0.000027
C86	C	1.587728	0.747118	0.249973
C87	C	1.837728	0.997118	0.499973
C88	C	2.087728	1.247118	0.749973
N89	N	1.341717	0.163639	0.419763
N90	N	1.591717	0.413639	0.669763
N91	N	1.841717	0.663639	0.919763
N92	N	2.091717	0.913639	1.169763
N93	N	1.341738	0.163637	-0.419765
N94	N	1.591738	0.413637	-0.169765
N95	N	1.841738	0.663637	0.080235
N96	N	2.091738	0.913637	0.330235
