data_functionalizedCrystal
_audit_creation_method	'MofGen! by Chris Wilmer'
_symmetry_space_group_name_H-M	'P1'
_symmetry_Int_Tables_number	1
_symmetry_cell_setting	triclinic
loop_
_symmetry_equiv_pos_as_xyz
  x,y,z
_cell_length_a	8.497365
_cell_length_b	12.759400
_cell_length_c	12.759401
_cell_angle_alpha	89.985155
_cell_angle_beta	90.031201
_cell_angle_gamma	89.948979
loop_
_atom_site_label
_atom_site_type_symbol
_atom_site_fract_x
_atom_site_fract_y
_atom_site_fract_z
Zn1	Zn	-0.891905	-0.417998	-1.606387
Zn2	Zn	-0.628109	-0.593777	-1.606243
Zn3	Zn	-0.628138	-0.418113	-1.430650
Zn4	Zn	-0.891847	-0.593636	-1.430678
O5	O	-0.760000	-0.505881	-1.518490
O6	O	-0.856924	-0.441326	-1.753389
O7	O	-0.407351	-0.570581	-1.582878
O8	O	-0.663164	-0.271077	-1.454011
O9	O	-0.663114	-0.570470	-1.753283
O10	O	-0.856952	-0.270992	-1.583124
O11	O	-0.407372	-0.441522	-1.453871
O12	O	-0.663108	-0.441385	-1.283633
O13	O	-1.112618	-0.570231	-1.454058
O14	O	-0.856854	-0.570342	-1.283653
O15	O	-1.112660	-0.441190	-1.583151
O16	O	-0.663059	-0.740779	-1.582905
O17	O	-0.856826	-0.740676	-1.453918
C18	C	-0.759967	-0.778848	-1.518427
C19	C	-0.760006	-0.895625	-1.518497
C20	C	-0.759979	-0.505862	-1.245522
C21	C	-0.760007	-0.505879	-1.128746
C22	C	-0.659223	-0.950506	-1.585735
C23	C	-0.659271	-1.060230	-1.585799
C24	C	-0.860891	-1.060182	-1.451379
C25	C	-0.860849	-0.950460	-1.451320
C26	C	-0.542815	-0.950534	-1.663338
C27	C	-0.542863	-1.060258	-1.663402
C28	C	-0.350120	-0.505995	-1.518414
C29	C	-0.171477	-0.505780	-1.518563
C30	C	-0.760023	-0.505901	-1.792523
C31	C	-0.760032	-0.505910	-1.909299
C32	C	-0.760068	-0.231848	-1.518581
C33	C	-0.760096	-0.115071	-1.518620
C34	C	-0.860724	-0.573134	-1.073922
C35	C	-0.860741	-0.573147	-0.964197
C36	C	-0.659311	-0.438647	-0.964131
C37	C	-0.659303	-0.438629	-1.073853
C38	C	-0.977013	-0.650789	-1.073959
C39	C	-0.977030	-0.650803	-0.964235
H40	H	-0.942995	-1.104843	-1.396687
N41	N	-0.550672	-0.366089	-1.132983
H42	H	-0.565946	-0.376279	-1.210822
H43	H	-0.575434	-0.291073	-1.113821
H44	H	-1.093179	-0.621732	-0.930254
N45	N	-0.918795	-0.753134	-1.119015
H46	H	-0.920917	-0.749385	-1.198072
H47	H	-0.807524	-0.766389	-1.094473
H48	H	-0.942928	-0.905777	-1.396580
N49	N	-0.381007	-1.099864	-1.634590
H50	H	-0.308746	-1.038396	-1.621678
H51	H	-0.388090	-1.143919	-1.568992
N52	N	-0.550675	-0.366133	-0.904926
H53	H	-0.565956	-0.376351	-0.827097
H54	H	-0.437970	-0.382435	-0.924065
N55	N	-0.586273	-0.910961	-1.771086
H56	H	-0.605708	-0.972443	-1.819211
H57	H	-0.684787	-0.866885	-1.766287
N58	N	-0.600935	-1.105237	-1.765802
H59	H	-0.515596	-1.149840	-1.798177
H60	H	-0.697158	-1.149692	-1.752498
N61	N	-0.933372	-0.758557	-0.924752
H62	H	-0.933368	-0.758609	-0.845595
H63	H	-1.012453	-0.811351	-0.951215
H64	H	-0.426704	-0.916613	-1.634196
H65	H	-1.099251	-0.629062	-1.103785
