data_functionalizedCrystal
_audit_creation_method	'MofGen! by Chris Wilmer'
_symmetry_space_group_name_H-M	'P1'
_symmetry_Int_Tables_number	1
_symmetry_cell_setting	triclinic
loop_
_symmetry_equiv_pos_as_xyz
  x,y,z
_cell_length_a	12.645331
_cell_length_b	12.645330
_cell_length_c	12.645323
_cell_angle_alpha	90.024870
_cell_angle_beta	90.026382
_cell_angle_gamma	90.011946
loop_
_atom_site_label
_atom_site_type_symbol
_atom_site_fract_x
_atom_site_fract_y
_atom_site_fract_z
Zn1	Zn	-1.620731	0.422193	-0.599551
Zn2	Zn	-1.120731	0.922193	-0.099551
Zn3	Zn	-1.620613	0.599481	-0.422291
Zn4	Zn	-1.120613	1.099481	0.077709
Zn5	Zn	-1.443446	0.422215	-0.422284
Zn6	Zn	-0.943446	0.922215	0.077716
Zn7	Zn	-1.443428	0.599398	-0.599495
Zn8	Zn	-0.943428	1.099398	-0.099495
O9	O	-1.532054	0.510822	-0.510905
O10	O	-1.032054	1.010822	-0.010905
O11	O	-1.769063	0.445737	-0.576064
O12	O	-1.269063	0.945737	-0.076064
O13	O	-1.597069	0.576011	-0.273943
O14	O	-1.097069	1.076011	0.226057
O15	O	-1.467020	0.273865	-0.445819
O16	O	-0.967020	0.773865	0.054181
O17	O	-1.768976	0.575990	-0.445831
O18	O	-1.268976	1.075990	0.054169
O19	O	-1.597271	0.273849	-0.576057
O20	O	-1.097271	0.773849	-0.076057
O21	O	-1.466906	0.445773	-0.273938
O22	O	-0.966906	0.945773	0.226062
O23	O	-1.295096	0.445692	-0.445765
O24	O	-0.795096	0.945692	0.054235
O25	O	-1.466989	0.575847	-0.747850
O26	O	-0.966989	1.075847	-0.247850
O27	O	-1.295083	0.575868	-0.575961
O28	O	-0.795083	1.075868	-0.075961
O29	O	-1.597253	0.445656	-0.747891
O30	O	-1.097253	0.945656	-0.247891
O31	O	-1.597052	0.747818	-0.445777
O32	O	-1.097052	1.247818	0.054223
O33	O	-1.466874	0.747756	-0.575968
O34	O	-0.966874	1.247756	-0.075968
C35	C	-1.256625	0.510774	-0.510857
C36	C	-0.756625	1.010774	-0.010857
C37	C	-1.138795	0.510779	-0.510861
C38	C	-0.638795	1.010779	-0.010861
C39	C	-0.971204	0.428495	-0.429396
C40	C	-0.471204	0.928495	0.070604
C41	C	-1.093763	0.428718	-0.429045
C42	C	-0.593763	0.928718	0.070955
C43	C	-1.094274	0.622449	-0.480344
C44	C	-0.594274	1.122449	0.019656
C45	C	-0.971676	0.621990	-0.479780
C46	C	-0.471676	1.121990	0.020220
C47	C	-0.971645	0.482424	-0.623134
C48	C	-0.471645	0.982424	-0.123134
C49	C	-1.094251	0.479939	-0.622519
C50	C	-0.594251	0.979939	-0.122519
C51	C	-1.531977	0.786252	-0.510890
C52	C	-1.031977	1.286252	-0.010890
C53	C	-1.532041	0.904082	-0.510920
C54	C	-1.032041	1.404082	-0.010920
C55	C	-0.808560	0.510850	-0.510938
C56	C	-0.308560	1.010850	-0.010938
C57	C	-0.926390	0.510809	-0.510911
C58	C	-0.426390	1.010809	-0.010911
C59	C	-1.532133	0.510740	-0.787411
C60	C	-1.032133	1.010740	-0.287411
C61	C	-1.532166	0.510705	-0.905241
C62	C	-1.032166	1.010705	-0.405241
C63	C	-1.532161	0.234316	-0.510943
C64	C	-1.032161	0.734316	-0.010943
C65	C	-1.532206	0.116486	-0.510960
C66	C	-1.032206	0.616486	-0.010960
C67	C	-1.450484	1.071651	-0.593075
C68	C	-0.950484	1.571651	-0.093075
C69	C	-1.450067	0.949091	-0.592811
C70	C	-0.950067	1.449091	-0.092811
C71	C	-1.501796	0.948673	-0.399196
C72	C	-1.001796	1.448673	0.100804
C73	C	-1.501298	1.071271	-0.399694
C74	C	-1.001298	1.571271	0.100306
C75	C	-1.644342	1.071182	-0.539582
C76	C	-1.144342	1.571182	-0.039582
C77	C	-1.643654	0.948575	-0.542025
C78	C	-1.143654	1.448575	-0.042025
C79	C	-1.449964	0.592222	-1.072779
C80	C	-0.949964	1.092222	-0.572779
C81	C	-1.450179	0.592626	-0.950219
C82	C	-0.950179	1.092626	-0.450219
C83	C	-1.643865	0.541035	-0.949768
C84	C	-1.143865	1.041035	-0.449768
C85	C	-1.643414	0.541546	-1.072366
C86	C	-1.143414	1.041546	-0.572366
C87	C	-1.503724	0.398402	-1.072437
C88	C	-1.003724	0.898402	-0.572437
C89	C	-1.501232	0.399075	-0.949830
C90	C	-1.001232	0.899075	-0.449830
C91	C	-1.532038	0.510827	-0.235476
C92	C	-1.032038	1.010827	0.264524
C93	C	-1.532210	0.510563	-0.117646
C94	C	-1.032210	1.010563	0.382354
H95	H	-0.941740	0.345433	-0.448315
H96	H	-0.441740	0.845433	0.051685
H97	H	-1.367871	1.102543	-0.574355
H98	H	-0.867871	1.602543	-0.074355
Br99	Br	-0.923348	0.582350	-0.724366
Br100	Br	-0.423348	1.082350	-0.224366
Br101	Br	-1.597856	0.900090	-0.294427
Br102	Br	-1.097856	1.400090	0.205573
H103	H	-1.367350	0.573645	-0.920112
H104	H	-0.867350	1.073645	-0.420112
Br105	Br	-1.683657	0.678204	-1.120062
Br106	Br	-1.183657	1.178204	-0.620062
H107	H	-1.366935	0.919848	-0.573848
H108	H	-0.866935	1.419848	-0.073848
H109	H	-1.558238	1.100934	-0.336425
H110	H	-1.058238	1.600934	0.163575
Br111	Br	-1.748948	0.446652	-1.121846
Br112	Br	-1.248948	0.946652	-0.621846
Br113	Br	-1.745827	1.119528	-0.439916
Br114	Br	-1.245827	1.619528	0.060084
Br115	Br	-1.370328	0.352326	-1.123933
Br116	Br	-0.870328	0.852326	-0.623933
H117	H	-1.469234	1.101065	-0.676189
H118	H	-0.969234	1.601065	-0.176189
H119	H	-1.563628	0.337563	-1.101454
H120	H	-1.063628	0.837563	-0.601454
H121	H	-0.943030	0.646062	-0.397739
H122	H	-0.443030	1.146062	0.102261
Br123	Br	-1.364674	1.119084	-0.359282
Br124	Br	-0.864674	1.619084	0.140718
H125	H	-1.366889	0.573424	-1.102247
H126	H	-0.866889	1.073424	-0.602247
H127	H	-0.940749	0.402410	-0.650884
H128	H	-0.440749	0.902410	-0.150884
Br129	Br	-1.748746	0.445041	-0.901223
Br130	Br	-1.248746	0.945041	-0.401223
Br131	Br	-1.364216	0.360955	-0.901340
Br132	Br	-0.864216	0.860955	-0.401340
H133	H	-1.668424	0.622168	-0.919081
H134	H	-1.168424	1.122168	-0.419081
H135	H	-1.123355	0.397762	-0.645530
H136	H	-0.623355	0.897762	-0.145530
Br137	Br	-1.593793	0.292304	-0.898817
Br138	Br	-1.093793	0.792304	-0.398817
H139	H	-1.468585	0.674852	-1.103599
H140	H	-0.968585	1.174852	-0.603599
H141	H	-1.123864	0.345910	-0.448173
H142	H	-0.623864	0.845910	0.051827
H143	H	-1.468983	0.675775	-0.920906
H144	H	-0.968983	1.175775	-0.420906
H145	H	-1.420678	0.918053	-0.374512
H146	H	-0.920678	1.418053	0.125488
H147	H	-1.124909	0.535525	-0.686506
H148	H	-0.624909	1.035525	-0.186506
H149	H	-1.666463	0.919427	-0.624248
H150	H	-1.166463	1.419427	-0.124248
H151	H	-1.124930	0.646940	-0.399187
H152	H	-0.624930	1.146940	0.100813
Br153	Br	-0.919765	0.459390	-0.291604
Br154	Br	-0.419765	0.959390	0.208396
H155	H	-0.942031	0.685397	-0.536563
H156	H	-0.442031	1.185397	-0.036563
H157	H	-1.123041	0.447484	-0.345887
H158	H	-0.623041	0.947484	0.154113
H159	H	-1.468990	0.918939	-0.675653
H160	H	-0.968990	1.418939	-0.175653
Br161	Br	-1.142871	0.727414	-0.576209
Br162	Br	-0.642871	1.227414	-0.076209
H163	H	-1.671932	1.102029	-0.619666
H164	H	-1.171932	1.602029	-0.119666
H165	H	-1.707748	0.917931	-0.486572
H166	H	-1.207748	1.417931	0.013428
