data_functionalizedCrystal
_audit_creation_method	'MofGen! by Chris Wilmer'
_symmetry_space_group_name_H-M	'P1'
_symmetry_Int_Tables_number	1
_symmetry_cell_setting	triclinic
loop_
_symmetry_equiv_pos_as_xyz
  x,y,z
_cell_length_a	12.837943
_cell_length_b	8.559649
_cell_length_c	7.681481
_cell_angle_alpha	85.069100
_cell_angle_beta	83.665993
_cell_angle_gamma	97.696198
loop_
_atom_site_label
_atom_site_type_symbol
_atom_site_fract_x
_atom_site_fract_y
_atom_site_fract_z
O1	O	1.331910	-0.423878	0.146382
O2	O	1.031718	-0.403605	0.146393
O3	O	1.208261	-0.185166	0.146385
O4	O	1.155367	-0.642317	0.146391
O5	O	1.229996	-0.158212	-0.146474
O6	O	1.053453	-0.376652	-0.146465
O7	O	1.353645	-0.396924	-0.146477
Zn8	Zn	1.207000	-0.382508	-0.192969
Zn9	Zn	1.178363	-0.418021	0.192885
O10	O	1.177102	-0.615363	-0.146468
C11	C	1.004510	-0.383280	-0.000035
C12	C	0.891059	-0.362854	-0.000030
C13	C	1.223137	-0.112770	-0.000041
C14	C	1.235068	0.062793	-0.000032
N15	N	1.226551	-0.358272	-0.456304
C16	C	0.630553	-0.608412	-0.000052
C17	C	0.523954	-0.589227	-0.000049
C18	C	0.571261	-0.305300	-0.000034
C19	C	0.677860	-0.324485	-0.000037
C20	C	0.707501	-0.476046	-0.000043
C21	C	0.814101	-0.495230	-0.000034
C22	C	0.861407	-0.211304	-0.000031
C23	C	0.754808	-0.192119	-0.000028
C24	C	1.380853	-0.417250	-0.000045
C25	C	1.494303	-0.437677	-0.000038
C26	C	1.162226	-0.687760	-0.000038
C27	C	1.150294	-0.863323	-0.000036
N28	N	1.158821	-0.442246	0.456221
H29	H	0.838232	-0.618638	-0.000042
H30	H	1.316782	0.133858	-0.000049
C31	C	1.066730	-0.556794	-0.443613
C32	C	1.074440	-0.710361	-0.488292
C33	C	0.989632	-0.815928	-0.396026
H34	H	1.001864	-0.526789	-0.473681
H35	H	1.068849	-0.554258	-0.320636
H36	H	1.072311	-0.712892	-0.611242
H37	H	1.139288	-0.740414	-0.458219
H38	H	0.991751	-0.813392	-0.273048
H39	H	0.924772	-0.785909	-0.426101
H40	H	0.994857	-0.920137	-0.426315
C41	C	1.318703	-0.243740	-0.556350
C42	C	1.311017	-0.090186	-0.511606
C43	C	1.395891	0.015358	-0.603716
H44	H	1.316672	-0.246173	-0.679337
H45	H	1.383528	-0.273864	-0.526166
H46	H	1.246208	-0.060070	-0.541802
H47	H	1.313061	-0.087702	-0.388634
H48	H	1.460716	-0.014766	-0.573532
H49	H	1.393853	0.012911	-0.726699
H50	H	1.390693	0.119553	-0.573358
H51	H	0.461305	-0.697014	-0.000061
C52	C	0.662574	-0.773072	0.000226
C53	C	0.611172	-0.867931	0.150876
C54	C	0.640631	-1.019633	0.151182
H55	H	0.737053	-0.765771	0.000315
H56	H	0.642925	-0.818948	-0.101846
H57	H	0.630827	-0.822066	0.252921
H58	H	0.536693	-0.875279	0.150819
H59	H	0.620983	-1.065509	0.049110
H60	H	0.715111	-1.012315	0.151266
H61	H	0.605753	-1.084017	0.253387
C62	C	0.944879	-0.067552	0.000340
C63	C	0.922043	0.008858	0.151037
C64	C	0.998919	0.141270	0.151459
H65	H	0.944777	0.003496	-0.101663
H66	H	1.012627	-0.100621	0.000437
H67	H	0.854313	0.041930	0.150924
H68	H	0.922154	-0.062145	0.253065
H69	H	1.066666	0.108201	0.151556
H70	H	0.998811	0.212305	0.049450
H71	H	0.983441	0.193123	0.253713
H72	H	0.547118	-0.181893	-0.000174
H73	H	0.730660	-0.068720	-0.000043
H74	H	1.068587	0.065621	-0.000038
