data_functionalizedCrystal
_audit_creation_method	'MofGen! by Chris Wilmer'
_symmetry_space_group_name_H-M	'P1'
_symmetry_Int_Tables_number	1
_symmetry_cell_setting	triclinic
loop_
_symmetry_equiv_pos_as_xyz
  x,y,z
_cell_length_a	17.699083
_cell_length_b	23.532407
_cell_length_c	16.176319
_cell_angle_alpha	89.988536
_cell_angle_beta	89.998611
_cell_angle_gamma	83.065847
loop_
_atom_site_label
_atom_site_type_symbol
_atom_site_fract_x
_atom_site_fract_y
_atom_site_fract_z
O1	O	1.003713	0.072020	-0.068639
O2	O	1.503713	0.572020	0.431361
O3	O	0.783287	0.081390	-0.068667
O4	O	1.283287	0.581390	0.431333
O5	O	0.900147	-0.006208	-0.068637
O6	O	1.400147	0.493792	0.431363
O7	O	0.886853	0.159618	-0.068669
O8	O	1.386853	0.659618	0.431331
O9	O	0.900131	-0.006213	0.068856
O10	O	1.400131	0.493787	0.568856
O11	O	0.783271	0.081384	0.068826
O12	O	1.283271	0.581384	0.568826
O13	O	1.003697	0.072014	0.068854
O14	O	1.503697	0.572014	0.568854
Cu15	Cu	0.893483	0.076699	0.081394
Cu16	Cu	1.393483	0.576699	0.581394
Cu17	Cu	0.893502	0.076705	-0.081207
Cu18	Cu	1.393502	0.576705	0.418793
O19	O	0.886837	0.159612	0.068824
O20	O	1.386837	0.659612	0.568824
C21	C	0.755084	0.081051	0.000076
C22	C	1.255084	0.581051	0.500076
C23	C	0.671071	0.080044	0.000066
C24	C	1.171071	0.580044	0.500066
C25	C	0.622189	0.131462	0.000056
C26	C	1.122189	0.631462	0.500056
C27	C	0.543251	0.130512	0.000067
C28	C	1.043251	0.630512	0.500067
C29	C	0.513196	0.078144	0.000082
C30	C	1.013196	0.578144	0.500082
C31	C	0.562084	0.026722	0.000094
C32	C	1.062084	0.526722	0.500094
C33	C	0.641021	0.027672	0.000089
C34	C	1.141021	0.527672	0.500089
C35	C	0.243740	0.022888	0.000115
C36	C	0.743740	0.522888	0.500115
C37	C	0.164797	0.021942	0.000117
C38	C	0.664797	0.521942	0.500117
C39	C	0.145970	0.125728	0.000093
C40	C	0.645970	0.625728	0.500093
C41	C	0.224907	0.126678	0.000088
C42	C	0.724907	0.626678	0.500088
C43	C	0.273788	0.075257	0.000105
C44	C	0.773788	0.575257	0.500105
C45	C	0.359382	0.076287	0.000094
C46	C	0.859382	0.576287	0.500094
C47	C	0.427603	0.077113	0.000086
C48	C	0.927603	0.577113	0.500086
C49	C	0.899801	-0.027427	0.000111
C50	C	1.399801	0.472573	0.500111
C51	C	0.898783	-0.090647	0.000118
C52	C	1.398783	0.409353	0.500118
C53	C	0.961554	-0.489570	0.000080
C54	C	1.461554	0.010430	0.500080
C55	C	0.960609	-0.548973	0.000074
C56	C	1.460609	-0.048973	0.500074
O57	O	1.018799	-0.585550	0.000051
O58	O	1.518799	-0.085550	0.500051
N59	N	0.891136	-0.571799	0.000066
N60	N	1.391136	-0.071799	0.500066
C61	C	0.822604	-0.535218	0.000055
C62	C	1.322604	-0.035218	0.500055
O63	O	0.763424	-0.560088	0.000047
O64	O	1.263424	-0.060088	0.500047
C65	C	0.823550	-0.475816	0.000056
C66	C	1.323550	0.024184	0.500056
C67	C	0.893028	-0.452994	0.000073
C68	C	1.393028	0.047006	0.500073
C69	C	1.031026	-0.466747	0.000096
C70	C	1.531026	0.033253	0.500096
C71	C	1.031972	-0.407348	0.000104
C72	C	1.531972	0.092652	0.500104
C73	C	0.963445	-0.370772	0.000096
C74	C	1.463445	0.129228	0.500096
C75	C	0.893973	-0.393595	0.000080
C76	C	1.393973	0.106405	0.500080
C77	C	0.755019	-0.439237	0.000040
C78	C	1.255019	0.060763	0.500040
C79	C	0.755971	-0.379832	0.000039
C80	C	1.255971	0.120168	0.500039
C81	C	0.825448	-0.357009	0.000056
C82	C	1.325448	0.142991	0.500056
C83	C	0.826391	-0.297620	0.000081
C84	C	1.326391	0.202380	0.500081
N85	N	0.895864	-0.274795	0.000089
N86	N	1.395864	0.225205	0.500089
C87	C	0.964391	-0.311371	0.000097
C88	C	1.464391	0.188629	0.500097
C89	C	0.820622	-0.659966	0.000053
C90	C	1.320622	-0.159966	0.500053
C91	C	0.819674	-0.719367	0.000058
C92	C	1.319674	-0.219367	0.500058
C93	C	0.957680	-0.733118	0.000075
C94	C	1.457680	-0.233118	0.500075
C95	C	0.958626	-0.673716	0.000076
C96	C	1.458626	-0.173716	0.500076
C97	C	0.890095	-0.637141	0.000061
C98	C	1.390095	-0.137141	0.500061
C99	C	0.966371	-0.186628	0.000114
C100	C	1.466371	0.313372	0.500114
C101	C	0.967310	-0.127223	0.000125
C102	C	1.467310	0.372777	0.500125
C103	C	0.829305	-0.113478	0.000104
C104	C	1.329305	0.386522	0.500104
C105	C	0.828365	-0.172877	0.000097
C106	C	1.328365	0.327123	0.500097
C107	C	0.896904	-0.209452	0.000099
C108	C	1.396904	0.290548	0.500099
O109	O	0.768232	-0.261008	0.000100
O110	O	1.268232	0.238992	0.500100
O111	O	1.023560	-0.286493	0.000094
O112	O	1.523560	0.213507	0.500094
C113	C	1.031901	0.072353	0.000109
C114	C	1.531901	0.572353	0.500109
C115	C	1.115914	0.073360	0.000114
C116	C	1.615914	0.573360	0.500114
C117	C	0.887184	0.180832	0.000073
C118	C	1.387184	0.680832	0.500073
C119	C	0.888202	0.244052	0.000062
C120	C	1.388202	0.744052	0.500062
N121	N	0.893475	0.076694	0.195759
N122	N	1.393475	0.576694	0.695759
N123	N	0.893516	0.076706	-0.195573
N124	N	1.393516	0.576706	0.304427
C125	C	0.945236	0.037921	0.239037
C126	C	1.445236	0.537921	0.739037
C127	C	0.945240	0.037921	0.325584
C128	C	1.445240	0.537921	0.825584
C129	C	0.893486	0.076696	0.368852
C130	C	1.393486	0.576696	0.868852
C131	C	0.841719	0.115470	0.325568
C132	C	1.341719	0.615470	0.825568
C133	C	0.841713	0.115467	0.239023
C134	C	1.341713	0.615467	0.739023
C135	C	0.841745	0.115481	0.674597
C136	C	1.341745	0.615481	1.174597
C137	C	0.841758	0.115481	0.761148
C138	C	1.341758	0.615481	1.261148
C139	C	0.945273	0.037934	0.761158
C140	C	1.445273	0.537934	1.261158
C141	C	0.945266	0.037932	0.674612
C142	C	1.445266	0.537932	1.174612
C143	C	0.893497	0.076704	0.631336
C144	C	1.393497	0.576704	1.131336
C145	C	0.893493	0.076703	0.537492
C146	C	1.393493	0.576703	1.037492
C147	C	0.893493	0.076700	0.462695
C148	C	1.393493	0.576700	0.962695
H149	H	1.023889	-0.108645	0.000141
H150	H	1.523889	0.391355	0.500141
N151	N	0.744739	-0.743979	0.000063
N152	N	1.244739	-0.243979	0.500063
H153	H	0.701475	-0.711790	0.000062
H154	H	1.201475	-0.211790	0.500062
H155	H	0.741337	-0.768318	-0.050908
H156	H	1.241337	-0.268318	0.449092
H157	H	0.764811	-0.630189	0.000048
H158	H	1.264811	-0.130189	0.500048
N159	N	0.785907	0.157299	0.627937
N160	N	1.285907	0.657299	1.127937
H161	H	0.794317	0.197712	0.642984
H162	H	1.294317	0.697712	1.142984
H163	H	0.793771	0.151369	0.566559
H164	H	1.293771	0.651369	1.066559
H165	H	1.086833	-0.496522	0.000099
H166	H	1.586833	0.003478	0.500099
N167	N	1.001052	-0.003898	0.192362
N168	N	1.501052	0.496102	0.692362
H169	H	1.054720	0.002607	0.207410
H170	H	1.554720	0.502607	0.707410
H171	H	0.992576	-0.044292	0.207454
H172	H	1.492576	0.455708	0.707454
H173	H	1.013478	-0.762909	0.000079
H174	H	1.513478	-0.262909	0.500079
H175	H	0.140330	-0.020705	0.000130
H176	H	0.640330	0.479295	0.500130
N177	N	0.654600	0.187947	0.000046
N178	N	1.154600	0.687947	0.500046
H179	H	0.712024	0.180749	0.000043
H180	H	1.212024	0.680749	0.500043
H181	H	0.636687	0.210445	-0.050927
H182	H	1.136687	0.710445	0.449073
H183	H	0.106161	0.167598	0.000084
H184	H	0.606161	0.667598	0.500084
N185	N	0.682046	-0.340390	0.000038
N186	N	1.182046	0.159610	0.500038
H187	H	0.679355	-0.315450	0.051012
H188	H	1.179355	0.184550	0.551012
H189	H	0.679401	-0.315463	-0.050959
H190	H	1.179401	0.184537	0.449041
H191	H	0.799563	0.147039	0.203787
H192	H	1.299563	0.647039	0.703787
N193	N	0.529672	-0.029762	0.000123
N194	N	1.029672	0.470238	0.500123
H195	H	0.472248	-0.022563	0.000124
H196	H	0.972248	0.477437	0.500124
H197	H	0.547580	-0.052259	-0.050841
H198	H	1.047580	0.447741	0.449159
N199	N	1.040293	-0.226071	0.000117
N200	N	1.540293	0.273929	0.500117
H201	H	1.084441	-0.202591	0.000130
H202	H	1.584441	0.297409	0.500130
H203	H	1.042903	-0.251025	0.051086
H204	H	1.542903	0.248975	0.551086
H205	H	1.088547	-0.388773	0.000114
H206	H	1.588547	0.111227	0.500114
H207	H	0.987387	0.006349	0.360820
H208	H	1.487387	0.506349	0.860820
N209	N	1.001085	-0.003895	0.627954
N210	N	1.501085	0.496105	1.127954
H211	H	0.972349	-0.029084	0.592061
H212	H	1.472349	0.470916	1.092061
H213	H	1.034417	0.017872	0.592079
H214	H	1.534417	0.517872	1.092079
H215	H	0.799576	0.147040	0.360802
H216	H	1.299576	0.647040	0.860802
N217	N	1.033562	-0.649103	0.000094
N218	N	1.533562	-0.149103	0.500094
H219	H	1.076826	-0.681292	0.000102
H220	H	1.576826	-0.181292	0.500102
H221	H	1.036972	-0.624751	-0.050876
H222	H	1.536972	-0.124751	0.449124
N223	N	0.755396	-0.074023	0.000118
N224	N	1.255396	0.425977	0.500118
H225	H	0.766544	-0.032930	0.000128
H226	H	1.266544	0.467070	0.500128
H227	H	0.725096	-0.081386	-0.050854
H228	H	1.225096	0.418614	0.449146
N229	N	1.001110	-0.003887	0.807834
N230	N	1.501110	0.496113	1.307834
H231	H	0.993263	0.001995	0.869226
H232	H	1.493263	0.501995	1.369226
H233	H	0.992677	-0.044282	0.792719
H234	H	1.492677	0.455718	1.292719
H235	H	0.698442	-0.457808	0.000021
H236	H	1.198442	0.042192	0.500021
N237	N	0.785930	0.157301	0.807819
N238	N	1.285930	0.657301	1.307819
H239	H	0.753131	0.181861	0.767272
H240	H	1.253131	0.681861	1.267272
H241	H	0.752649	0.135523	0.843740
H242	H	1.252649	0.635523	1.343740
H243	H	0.680820	-0.014197	0.000096
H244	H	1.180820	0.485803	0.500096
N245	N	0.490561	0.185986	0.000125
N246	N	0.990561	0.685986	0.500125
H247	H	0.500169	0.208864	-0.050830
H248	H	1.000169	0.708864	0.449170
H249	H	0.436004	0.177421	0.000189
H250	H	0.936004	0.677421	0.500189
N251	N	0.257324	0.183161	0.000061
N252	N	0.757324	0.683161	0.500061
H253	H	0.214378	0.215591	0.000056
H254	H	0.714378	0.715591	0.500056
H255	H	0.289669	0.185815	0.051027
H256	H	0.789669	0.685815	0.551027
N257	N	0.296447	-0.032575	0.000133
N258	N	0.796447	0.467425	0.500133
H259	H	0.286823	-0.055425	-0.050830
H260	H	0.786823	0.444575	0.449170
H261	H	0.350995	-0.023989	0.000164
H262	H	0.850995	0.476011	0.500164
N263	N	0.753431	-0.197497	0.000090
N264	N	1.253431	0.302503	0.500090
H265	H	0.710164	-0.165310	0.000090
H266	H	1.210164	0.334690	0.500090
H267	H	0.750039	-0.221831	-0.050887
H268	H	1.250039	0.278169	0.449113
