data_functionalizedCrystal
_audit_creation_method	'MofGen! by Chris Wilmer'
_symmetry_space_group_name_H-M	'P1'
_symmetry_Int_Tables_number	1
_symmetry_cell_setting	triclinic
loop_
_symmetry_equiv_pos_as_xyz
  x,y,z
_cell_length_a	6.817900
_cell_length_b	15.300912
_cell_length_c	10.992743
_cell_angle_alpha	93.546098
_cell_angle_beta	108.770538
_cell_angle_gamma	104.173621
loop_
_atom_site_label
_atom_site_type_symbol
_atom_site_fract_x
_atom_site_fract_y
_atom_site_fract_z
V1	V	-4.090874	-0.124731	-0.400979
O2	O	-4.073552	0.006022	-0.392945
O3	O	-4.045429	-0.247347	-0.398622
O4	O	-4.068849	-0.122800	-0.575683
O5	O	-4.049970	-0.119388	-0.214657
V6	V	-4.570701	-0.109093	-0.378646
O7	O	-4.360239	-0.159034	-0.449966
O8	O	-4.751534	-0.074789	-0.329658
O9	O	-4.392940	0.013524	-0.381003
O10	O	-4.705420	-0.239845	-0.386680
O11	O	-4.729002	-0.114436	-0.564967
O12	O	-4.369520	-0.111024	-0.203942
C13	C	-3.890295	-0.277239	-0.392396
C14	C	-3.934601	-0.377479	-0.391633
C15	C	-4.308737	-0.813844	-0.394777
C16	C	-4.267087	-0.719656	-0.395485
C17	C	-4.063053	-0.667976	-0.389421
C18	C	-3.900653	-0.710488	-0.382636
C19	C	-3.942299	-0.804673	-0.381919
C20	C	-3.813862	-0.514176	-0.384133
C21	C	-3.772213	-0.419985	-0.384853
C22	C	-4.138650	-0.429160	-0.397699
C23	C	-4.180297	-0.523345	-0.396982
C24	C	-4.017894	-0.565850	-0.390200
C25	C	-3.920169	-0.118365	-0.618254
C26	C	-3.983464	-0.117597	-0.761078
C27	C	-4.295021	-0.122294	-0.972186
C28	C	-4.229151	-0.122746	-0.823555
C29	C	-3.849935	-0.028105	-0.791573
C30	C	-3.917152	-0.027276	-0.940213
C31	C	-4.007171	-0.199431	-0.979022
C32	C	-3.946115	-0.201467	-0.830814
C33	C	-4.211416	0.043411	-0.387226
C34	C	-4.146349	0.143651	-0.387996
C35	C	-4.181541	-0.115461	-0.161365
C36	C	-4.097484	-0.116224	-0.018539
H37	H	-4.270882	-0.394547	-0.403219
H38	H	-3.681619	-0.548782	-0.378622
C39	C	-3.547762	-0.363137	-0.378171
N40	N	-3.378701	-0.320320	-0.373135
H41	H	-3.734518	-0.668401	-0.377690
C42	C	-3.883122	0.056064	-0.725395
N43	N	-3.908128	0.119457	-0.675551
C44	C	-3.716284	-0.016307	-0.979737
N45	N	-3.564986	-0.008037	-1.009500
C46	C	-3.763661	-0.851428	-0.374464
N47	N	-3.629101	-0.886643	-0.368845
H48	H	-4.333297	-0.187068	-0.804158
C49	C	-4.479825	-0.208721	-1.043573
N50	N	-4.619029	-0.273819	-1.097355
C51	C	-4.279107	-0.041959	-0.760817
N52	N	-4.316724	0.018897	-0.713563
H53	H	-3.859638	-0.195703	-1.008191
H54	H	-4.399325	-0.685053	-0.401011
C55	C	-3.995568	0.057735	-0.971143
N56	N	-4.054635	0.121766	-0.994434
C57	C	-4.404744	-0.580191	-0.403656
N58	N	-4.573798	-0.623008	-0.408678
C59	C	-4.173943	-0.290090	-1.053043
N60	N	-4.299576	-0.358370	-1.108795
C61	C	-4.080763	-0.290838	-0.806560
N62	N	-4.182180	-0.358151	-0.788283
C63	C	-3.709427	-0.203433	-0.774427
N64	N	-3.531141	-0.204907	-0.731955
H65	H	-3.669640	-0.021077	-0.749684
H66	H	-4.474883	-0.855916	-0.399723
H67	H	-4.364209	-0.062531	-0.998730
