data_functionalizedCrystal
_audit_creation_method	'MofGen! by Chris Wilmer'
_symmetry_space_group_name_H-M	'P1'
_symmetry_Int_Tables_number	1
_symmetry_cell_setting	triclinic
loop_
_symmetry_equiv_pos_as_xyz
  x,y,z
_cell_length_a	14.044190
_cell_length_b	14.044220
_cell_length_c	13.101039
_cell_angle_alpha	93.659868
_cell_angle_beta	93.663707
_cell_angle_gamma	86.809672
loop_
_atom_site_label
_atom_site_type_symbol
_atom_site_fract_x
_atom_site_fract_y
_atom_site_fract_z
O1	O	0.225348	-1.281975	-0.085126
O2	O	0.217041	-1.005305	-0.085151
O3	O	0.082859	-1.139483	-0.085118
O4	O	0.359530	-1.147797	-0.085158
O5	O	0.092504	-1.129857	0.085309
O6	O	0.226686	-0.995679	0.085277
O7	O	0.234993	-1.272349	0.085302
Zn8	Zn	0.232371	-1.132486	0.112348
Zn9	Zn	0.219663	-1.145168	-0.112197
O10	O	0.369174	-1.138172	0.085270
C11	C	0.052060	-1.131033	0.000098
C12	C	-0.054083	-1.120185	0.000106
C13	C	0.218228	-0.964870	0.000060
C14	C	0.207382	-0.858728	0.000051
C15	C	0.233806	-1.312784	0.000089
C16	C	0.244651	-1.418927	0.000091
C17	C	-0.299543	-1.177288	0.000071
C18	C	-0.248418	-1.100371	0.000071
C19	C	-0.140280	-1.111398	0.000091
C20	C	-0.407691	-1.166262	0.000052
C21	C	0.399974	-1.146621	0.000051
C22	C	0.506116	-1.157470	0.000036
N23	N	0.241043	-1.123838	0.265595
C24	C	0.187557	-0.664388	0.000075
C25	C	0.264472	-0.613261	0.000068
C26	C	0.253441	-0.505123	0.000081
C27	C	0.198587	-0.772535	0.000062
N28	N	0.210984	-1.153824	-0.265444
C29	C	0.252851	-1.112072	0.474635
C30	C	0.199179	-1.165586	0.525523
C31	C	0.205749	-1.159040	0.641840
C32	C	0.246282	-1.118618	0.358307
H33	H	-0.285862	-1.026240	0.000059
H34	H	0.338605	-0.650703	0.000052
H35	H	-0.262101	-1.251413	0.000088
H36	H	0.113431	-0.626948	0.000091
H37	H	0.148295	-1.216319	0.481733
H38	H	0.303733	-1.061345	0.518419
