data_functionalizedCrystal
_audit_creation_method	'MofGen! by Chris Wilmer'
_symmetry_space_group_name_H-M	'P1'
_symmetry_Int_Tables_number	1
_symmetry_cell_setting	triclinic
loop_
_symmetry_equiv_pos_as_xyz
  x,y,z
_cell_length_a	14.971482
_cell_length_b	12.811415
_cell_length_c	13.448316
_cell_angle_alpha	84.562549
_cell_angle_beta	89.993798
_cell_angle_gamma	83.829015
loop_
_atom_site_label
_atom_site_type_symbol
_atom_site_fract_x
_atom_site_fract_y
_atom_site_fract_z
O1	O	1.187335	0.136766	-0.095010
O2	O	0.926980	0.153150	-0.096492
O3	O	1.063707	-0.007827	-0.081969
O4	O	1.050608	0.297743	-0.109533
O5	O	1.063689	-0.007837	0.083416
O6	O	0.926963	0.153140	0.068893
O7	O	1.187317	0.136756	0.070375
Cu8	Cu	1.057139	0.144947	0.084734
Cu9	Cu	1.057159	0.144959	-0.110852
O10	O	1.050591	0.297733	0.055851
C11	C	0.893645	0.152413	-0.013734
C12	C	0.794341	0.150219	-0.013538
C13	C	0.747684	0.149181	0.076707
C14	C	0.654380	0.147103	0.076896
C15	C	0.607733	0.146071	-0.013163
C16	C	0.654397	0.147106	-0.103415
C17	C	0.747701	0.149177	-0.103602
C18	C	0.459923	0.142794	-0.103020
C19	C	0.366613	0.140725	-0.102833
C20	C	0.366602	0.140719	0.077478
C21	C	0.459906	0.142790	0.077291
C22	C	0.506563	0.143827	-0.012962
C23	C	1.062964	-0.046937	0.004249
C24	C	1.060765	-0.163459	0.014753
C25	C	1.056635	-0.382392	-0.145831
C26	C	1.054569	-0.491875	-0.135966
C27	C	1.054560	-0.491906	0.044348
C28	C	1.056626	-0.382424	0.034483
C29	C	1.057665	-0.327671	-0.060610
C30	C	1.059738	-0.218188	-0.070474
C31	C	1.059722	-0.218221	0.109838
C32	C	1.057656	-0.327703	0.119704
C33	C	1.220653	0.137493	-0.012385
C34	C	1.319956	0.139686	-0.012588
C35	C	1.051334	0.336843	-0.030369
C36	C	1.053533	0.453365	-0.040880
N37	N	1.057131	0.144938	0.222300
N38	N	1.057174	0.144959	-0.248416
C39	C	1.117692	0.073687	0.280768
C40	C	1.117698	0.073686	0.384871
C41	C	1.057145	0.144942	0.430504
C42	C	0.996578	0.216197	0.372028
C43	C	0.996568	0.216192	0.267927
C44	C	0.996602	0.216204	0.589007
C45	C	0.996612	0.216211	0.693115
C46	C	1.117732	0.073698	0.705952
C47	C	1.117722	0.073693	0.601851
C48	C	1.057155	0.144949	0.543382
H49	H	1.060586	-0.173610	-0.147903
H50	H	0.947270	0.274212	0.409188
H51	H	1.057489	-0.337813	-0.223259
H52	H	0.785656	0.150030	0.150043
H53	H	1.053727	-0.536424	-0.205362
C54	C	1.183563	-0.003706	0.448175
C55	C	1.236614	-0.066082	0.385928
C56	C	1.297313	-0.137376	0.444206
H57	H	1.151349	-0.047570	0.492762
H58	H	1.220980	0.034113	0.485335
H59	H	1.199201	-0.103898	0.348786
H60	H	1.268848	-0.022247	0.341342
H61	H	1.334730	-0.099557	0.481366
H62	H	1.265091	-0.181232	0.488791
H63	H	1.333320	-0.179700	0.401981
C64	C	0.930807	0.293689	0.525693
C65	C	0.877798	0.356116	0.587932
C66	C	0.817193	0.427517	0.529641
H67	H	0.893346	0.255984	0.488492
H68	H	0.963121	0.337498	0.481142
H69	H	0.845487	0.312312	0.632466
H70	H	0.915235	0.393844	0.625133
H71	H	0.849506	0.471327	0.485090
H72	H	0.779738	0.389804	0.492443
H73	H	0.781225	0.469889	0.571861
H74	H	1.056806	-0.372297	0.197125
C75	C	1.183449	-0.003837	0.769312
C76	C	1.168588	-0.107012	0.753287
C77	C	1.229120	-0.178456	0.811629
H78	H	1.174849	0.006216	0.837876
H79	H	1.243198	0.007623	0.751178
H80	H	1.108854	-0.118468	0.771428
H81	H	1.177195	-0.117098	0.684735
H82	H	1.288868	-0.166996	0.793495
H83	H	1.220515	-0.168393	0.880189
H84	H	1.219050	-0.248467	0.800758
H85	H	1.060564	-0.173656	0.179232
H86	H	0.497882	0.143637	0.150624
C87	C	0.930778	0.293672	0.204611
C88	C	0.877767	0.356097	0.266851
C89	C	0.817155	0.427491	0.208561
H90	H	0.893319	0.255962	0.167413
H91	H	0.963087	0.337484	0.160057
H92	H	0.845460	0.312291	0.311387
H93	H	0.915201	0.393830	0.304049
H94	H	0.849464	0.471303	0.164006
H95	H	0.779702	0.389772	0.171365
H96	H	0.781186	0.469861	0.250780
H97	H	1.167033	0.015676	0.564697
H98	H	0.947304	0.274234	0.730263
C99	C	0.603878	0.146039	0.174976
C100	C	0.664695	0.147422	0.253802
C101	C	0.618205	0.146457	0.344170
H102	H	0.574073	0.084087	0.184461
H103	H	0.560899	0.206417	0.173326
H104	H	0.707659	0.087051	0.255453
H105	H	0.694503	0.209370	0.244350
H106	H	0.575226	0.206835	0.342520
H107	H	0.588402	0.084504	0.353645
H108	H	0.659461	0.147405	0.397663
H109	H	0.328610	0.139875	0.150965
C110	C	1.053383	-0.551167	0.147669
C111	C	1.054705	-0.479811	0.220198
C112	C	1.053608	-0.534361	0.315388
H113	H	1.104657	-0.601823	0.156121
H114	H	1.000455	-0.585905	0.154596
H115	H	1.107627	-0.445089	0.213274
H116	H	1.003436	-0.429153	0.211779
H117	H	1.000680	-0.569099	0.322316
H118	H	1.104882	-0.585015	0.323829
H119	H	1.054496	-0.485953	0.364610
H120	H	1.167004	0.015666	0.243622
H121	H	0.328636	0.139886	-0.176167
C122	C	0.510680	0.144091	-0.200948
C123	C	0.554531	0.235500	-0.214442
C124	C	0.601307	0.236732	-0.304632
H125	H	0.469637	0.143241	-0.254649
H126	H	0.553725	0.083772	-0.199265
H127	H	0.511491	0.295803	-0.216134
H128	H	0.595589	0.236370	-0.160764
H129	H	0.644351	0.176413	-0.302949
H130	H	0.560257	0.235878	-0.358326
H131	H	0.631072	0.298746	-0.313795
C132	C	0.798429	0.150093	-0.201536
C133	C	0.861710	0.061035	-0.198782
C134	C	0.908447	0.061832	-0.288988
H135	H	0.828312	0.211991	-0.210966
H136	H	0.757319	0.149128	-0.255169
H137	H	0.902814	0.062010	-0.145165
H138	H	0.831850	-0.000876	-0.189368
H139	H	0.867337	0.060867	-0.342621
H140	H	0.938324	0.123733	-0.298411
H141	H	0.951382	0.001403	-0.287135
H142	H	0.616411	0.146259	-0.176742
