data_functionalizedCrystal
_audit_creation_method	'MofGen! by Chris Wilmer'
_symmetry_space_group_name_H-M	'P1'
_symmetry_Int_Tables_number	1
_symmetry_cell_setting	triclinic
loop_
_symmetry_equiv_pos_as_xyz
  x,y,z
_cell_length_a	12.759399
_cell_length_b	12.759401
_cell_length_c	12.759393
_cell_angle_alpha	90.020120
_cell_angle_beta	89.968582
_cell_angle_gamma	89.988508
loop_
_atom_site_label
_atom_site_type_symbol
_atom_site_fract_x
_atom_site_fract_y
_atom_site_fract_z
Zn1	Zn	-0.418317	-1.606249	-0.594028
Zn2	Zn	-0.594036	-1.606141	-0.418348
Zn3	Zn	-0.418359	-1.430551	-0.418362
Zn4	Zn	-0.593942	-1.430537	-0.593985
O5	O	-0.506164	-1.518370	-0.506181
O6	O	-0.441648	-1.753256	-0.570736
O7	O	-0.570789	-1.582809	-0.271329
O8	O	-0.271333	-1.453909	-0.441688
O9	O	-0.570748	-1.753177	-0.441665
O10	O	-0.271302	-1.582994	-0.570749
O11	O	-0.441720	-1.453804	-0.271339
O12	O	-0.441629	-1.283529	-0.441647
O13	O	-0.570589	-1.453886	-0.741012
O14	O	-0.570629	-1.283518	-0.570676
O15	O	-0.441557	-1.582980	-0.741043
O16	O	-0.741045	-1.582796	-0.441623
O17	O	-0.740976	-1.453781	-0.570663
C18	C	-0.506125	-1.245402	-0.506159
C19	C	-0.506133	-1.128626	-0.506174
C20	C	-0.439035	-1.073798	-0.573484
C21	C	-0.439049	-0.964074	-0.573488
C22	C	-0.573269	-0.964015	-0.438869
C23	C	-0.573249	-1.073737	-0.438861
C24	C	-0.361547	-1.073832	-0.651209
C25	C	-0.361561	-0.964107	-0.651212
C26	C	-0.779131	-1.518304	-0.506160
C27	C	-0.895908	-1.518371	-0.506186
C28	C	-1.060387	-1.585622	-0.573481
C29	C	-0.950663	-1.585557	-0.573449
C30	C	-0.950883	-1.451252	-0.438942
C31	C	-1.060605	-1.451323	-0.438969
C32	C	-1.060259	-1.663159	-0.651141
C33	C	-0.950535	-1.663094	-0.651110
C34	C	-0.232131	-1.518465	-0.506225
C35	C	-0.115354	-1.518506	-0.506244
C36	C	-0.506058	-1.518443	-0.780214
C37	C	-0.506013	-1.518475	-0.896991
C38	C	-0.506191	-0.792403	-0.506197
C39	C	-0.506168	-0.909180	-0.506186
C40	C	-0.438820	-1.585704	-0.951871
C41	C	-0.438782	-1.585729	-1.061595
C42	C	-0.573139	-1.451293	-1.061550
C43	C	-0.573171	-1.451263	-0.951827
C44	C	-0.361253	-1.663322	-0.951899
C45	C	-0.361215	-1.663347	-1.061623
C46	C	-0.506194	-1.518357	-0.233214
C47	C	-0.505943	-1.518529	-0.116437
H48	H	-0.627912	-0.919311	-0.384065
F49	F	-0.260490	-0.919608	-0.613303
F50	F	-0.644671	-1.379695	-0.893424
H51	H	-0.906294	-1.396554	-0.384167
H52	H	-0.627814	-1.396570	-1.106211
H53	H	-0.279887	-1.641555	-0.922142
F54	F	-0.399381	-1.764321	-0.907409
H55	H	-0.280145	-1.103599	-0.629556
F56	F	-0.260211	-1.625178	-1.106130
F57	F	-1.119101	-1.379901	-0.367395
F58	F	-1.104699	-1.625050	-0.752149
F59	F	-0.644638	-1.132085	-0.367195
F60	F	-0.389695	-1.769704	-1.100553
F61	F	-1.099117	-1.769554	-0.622766
F62	F	-0.399759	-1.118362	-0.752163
F63	F	-0.905996	-1.764121	-0.613104
H64	H	-0.383455	-0.934362	-0.732548
H65	H	-0.920709	-1.641235	-0.732452
