data_functionalizedCrystal
_audit_creation_method	'MofGen! by Chris Wilmer'
_symmetry_space_group_name_H-M	'P1'
_symmetry_Int_Tables_number	1
_symmetry_cell_setting	triclinic
loop_
_symmetry_equiv_pos_as_xyz
  x,y,z
_cell_length_a	14.519731
_cell_length_b	14.519731
_cell_length_c	15.455313
_cell_angle_alpha	87.313475
_cell_angle_beta	87.324322
_cell_angle_gamma	96.311147
loop_
_atom_site_label
_atom_site_type_symbol
_atom_site_fract_x
_atom_site_fract_y
_atom_site_fract_z
O1	O	-0.116957	1.227899	-0.072122
O2	O	0.383043	1.727899	0.427878
O3	O	-0.131173	0.959426	-0.072122
O4	O	0.368827	1.459426	0.427878
O5	O	0.010172	1.100771	-0.072129
O6	O	0.510172	1.600771	0.427871
O7	O	-0.258302	1.086555	-0.072116
O8	O	0.241698	1.586555	0.427884
O9	O	0.002122	1.092688	0.072134
O10	O	0.502122	1.592688	0.572134
O11	O	-0.139222	0.951343	0.072140
O12	O	0.360778	1.451343	0.572140
O13	O	-0.125007	1.219817	0.072140
O14	O	0.374993	1.719817	0.572140
Cu15	Cu	-0.132849	1.084842	0.085313
Cu16	Cu	0.367151	1.584842	0.585313
Cu17	Cu	-0.123330	1.094401	-0.085295
Cu18	Cu	0.376670	1.594401	0.414705
O19	O	-0.266351	1.078472	0.072146
O20	O	0.233649	1.578472	0.572146
C21	C	-0.134532	0.921025	0.000009
C22	C	0.365468	1.421025	0.500009
C23	C	-0.132536	0.818645	0.000008
C24	C	0.367464	1.318645	0.500008
C25	C	-0.130914	0.735501	0.000005
C26	C	0.369086	1.235501	0.500005
C27	C	-0.128887	0.631192	0.000004
C28	C	0.371113	1.131192	0.500004
C29	C	-0.127279	0.548053	0.000004
C30	C	0.372721	1.048053	0.500004
C31	C	-0.125252	0.443737	0.000002
C32	C	0.374748	0.943737	0.500002
C33	C	-0.296686	1.083179	0.000017
C34	C	0.203314	1.583179	0.500017
C35	C	-0.399067	1.085175	0.000021
C36	C	0.100933	1.585175	0.500021
C37	C	-0.482211	1.086797	0.000018
C38	C	0.017789	1.586797	0.500018
C39	C	-0.586519	1.088824	0.000010
C40	C	-0.086519	1.588824	0.500010
C41	C	-0.669658	1.090433	0.000003
C42	C	-0.169658	1.590433	0.500003
C43	C	-0.773973	1.092460	-0.000004
C44	C	-0.273973	1.592460	0.499996
C45	C	0.040507	1.096064	-0.000001
C46	C	0.540507	1.596064	0.499999
C47	C	0.142888	1.094068	-0.000011
C48	C	0.642888	1.594068	0.499989
C49	C	-0.121648	1.258218	0.000007
C50	C	0.378352	1.758218	0.500007
C51	C	-0.123644	1.360598	0.000002
C52	C	0.376356	1.860598	0.500002
N53	N	-0.139544	1.078126	0.205308
N54	N	0.360456	1.578126	0.705308
N55	N	-0.116628	1.101125	-0.205290
N56	N	0.383372	1.601125	0.294710
C57	C	-0.079518	1.138195	0.250700
C58	C	0.420482	1.638195	0.750700
C59	C	-0.084590	1.133124	0.341508
C60	C	0.415410	1.633124	0.841508
C61	C	-0.149692	1.067988	0.386923
C62	C	0.350308	1.567988	0.886923
C63	C	-0.209721	1.007912	0.341525
C64	C	0.290279	1.507912	0.841525
C65	C	-0.204645	1.012979	0.250719
C66	C	0.295355	1.512979	0.750719
C67	C	-0.171580	1.046116	0.658505
C68	C	0.328420	1.546116	1.158505
C69	C	-0.176654	1.041055	0.749318
C70	C	0.323346	1.541055	1.249318
C71	C	-0.051521	1.166267	0.749295
C72	C	0.448479	1.666267	1.249295
C73	C	-0.046454	1.171332	0.658487
C74	C	0.453546	1.671332	1.158487
C75	C	-0.106479	1.111253	0.613097
C76	C	0.393521	1.611253	1.113097
N77	N	-0.154880	1.062805	0.479743
N78	N	0.345120	1.562805	0.979743
N79	N	-0.101287	1.116432	0.520278
N80	N	0.398713	1.616432	1.020278
H81	H	-0.026509	1.191239	0.213729
H82	H	0.473491	1.691239	0.713729
Cl83	Cl	-0.009126	1.208640	0.398573
Cl84	Cl	0.490874	1.708640	0.898573
H85	H	0.006558	1.224371	0.621511
H86	H	0.506558	1.724371	1.121511
Cl87	Cl	0.023939	1.241786	0.806360
Cl88	Cl	0.523939	1.741786	1.306360
Cl89	Cl	-0.291562	0.926021	0.398616
Cl90	Cl	0.208438	1.426021	0.898616
Cl91	Cl	-0.258507	0.959163	0.806405
Cl92	Cl	0.241493	1.459163	1.306405
Cl93	Cl	-0.247042	0.970594	0.601450
Cl94	Cl	0.252958	1.470594	1.101450
H95	H	-0.253523	0.964063	0.213762
H96	H	0.246477	1.464063	0.713762
