data_functionalizedCrystal
_audit_creation_method	'MofGen! by Chris Wilmer'
_symmetry_space_group_name_H-M	'P1'
_symmetry_Int_Tables_number	1
_symmetry_cell_setting	triclinic
loop_
_symmetry_equiv_pos_as_xyz
  x,y,z
_cell_length_a	16.992694
_cell_length_b	16.109301
_cell_length_c	15.186229
_cell_angle_alpha	90.005167
_cell_angle_beta	89.997727
_cell_angle_gamma	87.064852
loop_
_atom_site_label
_atom_site_type_symbol
_atom_site_fract_x
_atom_site_fract_y
_atom_site_fract_z
O1	O	-1.040345	-0.176288	-0.073123
O2	O	-0.812060	-0.174354	-0.073149
O3	O	-0.932474	-0.054708	-0.073126
O4	O	-0.919931	-0.295934	-0.073146
O5	O	-0.932466	-0.054706	0.073331
O6	O	-0.812052	-0.174352	0.073308
O7	O	-1.040337	-0.176286	0.073334
Zn8	Zn	-0.926193	-0.175318	0.096574
Zn9	Zn	-0.926204	-0.175321	-0.096389
O10	O	-0.919923	-0.295931	0.073312
C11	C	-0.782844	-0.171865	0.000076
C12	C	-0.695802	-0.164441	0.000067
C13	C	-0.931962	-0.023699	0.000103
C14	C	-0.930439	0.068698	0.000104
C15	C	-1.069553	-0.178775	0.000107
C16	C	-1.156595	-0.186198	0.000111
C17	C	-0.645543	-0.236067	0.000062
C18	C	-0.563758	-0.229087	0.000074
C19	C	-0.532234	-0.150481	0.000086
C20	C	-0.582499	-0.078849	0.000094
C21	C	-0.664282	-0.085830	0.000087
C22	C	-0.288644	-0.121548	0.000112
C23	C	-0.206854	-0.114572	0.000116
C24	C	-0.188119	-0.264811	0.000098
C25	C	-0.269904	-0.271785	0.000086
C26	C	-0.320163	-0.200154	0.000099
N27	N	-0.448637	-0.143344	0.000096
N28	N	-0.403758	-0.207291	0.000095
C29	C	-0.920435	-0.326941	0.000081
C30	C	-0.921959	-0.419338	0.000074
N31	N	-0.926192	-0.175316	0.228267
C32	C	-0.998348	0.286439	0.000097
C33	C	-0.996911	0.373256	0.000090
C34	C	-0.854044	0.362915	0.000077
C35	C	-0.855482	0.276100	0.000078
C36	C	-0.927636	0.237865	0.000093
C37	C	-0.924761	0.411496	0.000084
C38	C	-0.923202	0.505626	0.000076
C39	C	-0.929196	0.143729	0.000099
N40	N	-0.926212	-0.175317	-0.228082
C41	C	-0.979529	-0.122357	0.454000
C42	C	-0.979532	-0.122355	0.546190
C43	C	-0.872869	-0.228279	0.546179
C44	C	-0.872863	-0.228275	0.453991
C45	C	-0.926198	-0.175316	0.407904
C46	C	-0.926206	-0.175317	0.592281
C47	C	-0.926208	-0.175316	0.692237
C48	C	-0.926195	-0.175316	0.307941
H49	H	-0.671204	-0.300077	0.000052
H50	H	-1.022956	-0.079233	0.416478
H51	H	-0.295565	-0.335795	0.000067
N52	N	-1.037065	-0.065247	0.595906
H53	H	-1.028063	-0.005631	0.579869
H54	H	-1.092677	-0.078638	0.579831
H55	H	-0.829430	-0.271401	0.416457
H56	H	-0.795298	0.394057	0.000067
N57	N	-0.172842	-0.029789	0.000145
H58	H	-0.139324	-0.023541	-0.054143
H59	H	-0.217128	0.014484	0.000190
H60	H	-0.522840	-0.287413	0.000069
N61	N	-0.133914	-0.342067	0.000086
H62	H	-0.077320	-0.325721	0.000093
H63	H	-0.144123	-0.376089	0.054376
H64	H	-0.705203	-0.027504	0.000091
N65	N	-0.342844	-0.044292	0.000131
H66	H	-0.310461	0.006562	0.000138
H67	H	-0.377185	-0.043909	-0.054161
H68	H	-0.829446	-0.271398	0.583712
N69	N	-0.548494	0.005931	0.000116
H70	H	-0.514975	0.012178	-0.054172
H71	H	-0.592785	0.050199	0.000156
N72	N	-1.076167	0.245197	0.000112
H73	H	-1.120744	0.289146	0.000112
H74	H	-1.079877	0.209396	-0.054180
N75	N	-1.073178	0.425648	0.000094
H76	H	-1.119102	0.388249	0.000104
H77	H	-1.075689	0.461899	0.054387
N78	N	-0.779211	0.223701	0.000067
H79	H	-0.733284	0.261095	0.000064
H80	H	-0.776695	0.187459	0.054360
