data_functionalizedCrystal
_audit_creation_method	'MofGen! by Chris Wilmer'
_symmetry_space_group_name_H-M	'P1'
_symmetry_Int_Tables_number	1
_symmetry_cell_setting	triclinic
loop_
_symmetry_equiv_pos_as_xyz
  x,y,z
_cell_length_a	12.837943
_cell_length_b	23.532407
_cell_length_c	11.892095
_cell_angle_alpha	93.859970
_cell_angle_beta	85.689438
_cell_angle_gamma	88.838809
loop_
_atom_site_label
_atom_site_type_symbol
_atom_site_fract_x
_atom_site_fract_y
_atom_site_fract_z
O1	O	1.380592	0.144688	-0.094007
O2	O	1.078862	0.137379	-0.094012
O3	O	1.238824	0.058625	-0.093989
O4	O	1.220630	0.223442	-0.094030
O5	O	1.225487	0.065180	0.094017
O6	O	1.065525	0.143934	0.093993
O7	O	1.367255	0.151243	0.093999
Zn8	Zn	1.214272	0.148629	0.123846
Zn9	Zn	1.231845	0.139993	-0.123859
O10	O	1.207293	0.229998	0.093975
C11	C	1.033599	0.138187	-0.000010
C12	C	0.918597	0.130823	-0.000011
C13	C	0.676728	0.219356	-0.000017
C14	C	0.568673	0.212439	-0.000017
C15	C	0.594431	0.110073	-0.000004
C16	C	0.702485	0.116990	-0.000003
C17	C	0.743630	0.171633	-0.000012
C18	C	0.851687	0.178549	-0.000020
C19	C	0.877442	0.076184	0.000002
C20	C	0.769387	0.069267	0.000002
C21	C	1.231692	0.040660	0.000017
C22	C	1.230298	-0.022637	0.000026
C23	C	1.316227	-0.416812	-0.000035
C24	C	1.314934	-0.476287	-0.000043
O25	O	1.394590	-0.508463	-0.000084
N26	N	1.219835	-0.504370	-0.000044
C27	C	1.126025	-0.472975	-0.000048
O28	O	1.045018	-0.502322	-0.000051
C29	C	1.127321	-0.413501	-0.000047
C30	C	1.222424	-0.385421	-0.000035
C31	C	1.411324	-0.388732	-0.000024
C32	C	1.412617	-0.329261	-0.000013
C33	C	1.318813	-0.297871	-0.000013
C34	C	1.223717	-0.325951	-0.000024
C35	C	1.033512	-0.382108	-0.000059
C36	C	1.034816	-0.322631	-0.000060
C37	C	1.129920	-0.294551	-0.000047
C38	C	1.131207	-0.235089	-0.000014
N39	N	1.226306	-0.207006	-0.000013
C40	C	1.320109	-0.238397	-0.000013
C41	C	1.123312	-0.597873	-0.000051
C42	C	1.122015	-0.657345	-0.000043
C43	C	1.310925	-0.660653	-0.000041
C44	C	1.312220	-0.601180	-0.000040
C45	C	1.218411	-0.569790	-0.000050
C46	C	1.322817	-0.113504	0.000011
C47	C	1.324101	-0.054028	0.000026
C48	C	1.135193	-0.050725	0.000018
C49	C	1.133908	-0.110196	0.000008
C50	C	1.227729	-0.141584	0.000001
O51	O	1.051594	-0.202877	0.000022
O52	O	1.401104	-0.209042	-0.000025
C53	C	1.412519	0.150435	-0.000006
C54	C	1.527521	0.157799	-0.000012
C55	C	1.214425	0.247962	-0.000033
C56	C	1.215820	0.311259	-0.000049
N57	N	1.202287	0.154524	0.292898
N58	N	1.243838	0.134094	-0.292912
C59	C	1.327236	0.093046	0.529565
C60	C	1.318866	0.097171	0.647905
C61	C	1.177173	0.166894	0.647922
C62	C	1.185543	0.162770	0.529582
C63	C	1.260578	0.125845	0.470407
C64	C	1.268952	0.121724	0.352064
C65	C	1.127255	0.191444	0.352084
C66	C	1.118885	0.195569	0.470424
H67	H	0.560905	0.065588	0.000097
O68	O	1.408149	0.053220	0.465716
H69	H	1.487238	0.065662	0.488396
O70	O	1.512506	-0.422583	-0.000019
H71	H	1.510996	-0.447092	0.076608
H72	H	0.514204	0.251300	-0.000019
H73	H	1.116074	0.196954	0.696118
H74	H	1.399215	-0.139054	0.000000
H75	H	1.490060	-0.306404	-0.000007
O76	O	1.414795	-0.570895	-0.000048
H77	H	1.479799	-0.602721	-0.000057
H78	H	1.044571	-0.680202	-0.000034
H79	H	0.735872	0.024778	0.000022
O80	O	1.037963	0.235398	0.534249
H81	H	1.043345	0.232760	0.626478
H82	H	1.046916	-0.572319	-0.000049
O83	O	0.949598	0.024705	0.000014
H84	H	1.031649	0.038693	0.000020
O85	O	1.412105	-0.694515	-0.000052
H86	H	1.395219	-0.740588	-0.000068
H87	H	1.401549	-0.031168	0.000039
O88	O	0.930936	-0.412386	-0.000077
H89	H	0.865938	-0.380558	-0.000091
H90	H	0.958423	-0.297076	-0.000069
O91	O	1.031336	-0.140488	-0.000001
H92	H	0.966327	-0.108666	-0.000005
O93	O	1.034022	-0.016863	0.000021
H94	H	1.035536	0.007644	-0.076609
O95	O	1.349872	0.081896	0.288232
H96	H	1.394808	0.059777	0.349255
O97	O	1.390772	0.061802	0.711717
H98	H	1.444359	0.035439	0.650683
H99	H	1.072980	0.218153	0.303904
H100	H	0.710228	0.263848	-0.000026
O101	O	0.896071	0.237482	-0.000014
H102	H	0.831391	0.269505	-0.000002
