data_functionalizedCrystal
_audit_creation_method	'MofGen! by Chris Wilmer'
_symmetry_space_group_name_H-M	'P1'
_symmetry_Int_Tables_number	1
_symmetry_cell_setting	triclinic
loop_
_symmetry_equiv_pos_as_xyz
  x,y,z
_cell_length_a	16.959455
_cell_length_b	16.959453
_cell_length_c	17.077396
_cell_angle_alpha	89.970430
_cell_angle_beta	89.981150
_cell_angle_gamma	90.022154
loop_
_atom_site_label
_atom_site_type_symbol
_atom_site_fract_x
_atom_site_fract_y
_atom_site_fract_z
Zn1	Zn	1.208402	-0.314694	-0.443823
Zn2	Zn	1.541735	0.018640	-0.110490
Zn3	Zn	1.875068	0.351973	0.222844
Zn4	Zn	1.208308	-0.446881	-0.312555
Zn5	Zn	1.541642	-0.113548	0.020779
Zn6	Zn	1.874975	0.219785	0.354112
Zn7	Zn	1.076220	-0.314720	-0.312573
Zn8	Zn	1.409554	0.018614	0.020761
Zn9	Zn	1.742887	0.351947	0.354094
Zn10	Zn	1.076189	-0.446833	-0.443780
Zn11	Zn	1.409522	-0.113499	-0.110446
Zn12	Zn	1.742855	0.219834	0.222887
O13	O	1.142280	-0.380782	-0.378183
O14	O	1.475613	-0.047449	-0.044849
O15	O	1.808946	0.285885	0.288484
O16	O	1.319000	-0.332238	-0.426421
O17	O	1.652333	0.001095	-0.093087
O18	O	1.985667	0.334428	0.240246
O19	O	1.190761	-0.429381	-0.202710
O20	O	1.524094	-0.096048	0.130623
O21	O	1.857428	0.237286	0.463957
O22	O	1.093807	-0.204105	-0.330009
O23	O	1.427140	0.129228	0.003324
O24	O	1.760474	0.462561	0.336658
O25	O	1.318932	-0.429356	-0.329978
O26	O	1.652265	-0.096023	0.003355
O27	O	1.985598	0.237311	0.336688
O28	O	1.190920	-0.204086	-0.426438
O29	O	1.524253	0.129247	-0.093105
O30	O	1.857586	0.462580	0.240229
O31	O	1.093717	-0.332282	-0.202723
O32	O	1.427050	0.001051	0.130610
O33	O	1.760383	0.334384	0.463943
O34	O	0.965605	-0.332235	-0.329967
O35	O	1.298939	0.001098	0.003367
O36	O	1.632272	0.334432	0.336700
O37	O	1.093753	-0.429273	-0.553632
O38	O	1.427086	-0.095940	-0.220299
O39	O	1.760419	0.237394	0.113034
O40	O	0.965582	-0.429298	-0.426364
O41	O	1.298915	-0.095965	-0.093031
O42	O	1.632249	0.237369	0.240303
O43	O	1.190889	-0.332191	-0.553664
O44	O	1.524222	0.001142	-0.220331
O45	O	1.857556	0.334476	0.113002
O46	O	1.190730	-0.557486	-0.329936
O47	O	1.524063	-0.224153	0.003397
O48	O	1.857397	0.109181	0.336730
O49	O	1.093662	-0.557450	-0.426347
O50	O	1.426996	-0.224117	-0.093013
O51	O	1.760329	0.109217	0.240320
C52	C	0.936913	-0.380765	-0.378163
C53	C	1.270247	-0.047431	-0.044830
C54	C	1.603580	0.285902	0.288503
C55	C	0.849057	-0.380776	-0.378174
C56	C	1.182390	-0.047443	-0.044840
C57	C	1.515724	0.285890	0.288493
C58	C	0.807745	-0.431269	-0.327889
C59	C	1.141079	-0.097936	0.005444
C60	C	1.474412	0.235398	0.338778
C61	C	0.807815	-0.330290	-0.428464
C62	C	1.141148	0.003044	-0.095131
C63	C	1.474482	0.336377	0.238202
C64	C	0.725269	-0.330296	-0.428474
C65	C	1.058602	0.003037	-0.095140
C66	C	1.391936	0.336371	0.238193
C67	C	0.683957	-0.380789	-0.378189
C68	C	1.017291	-0.047455	-0.044856
C69	C	1.350624	0.285878	0.288478
C70	C	0.725192	-0.431275	-0.327895
C71	C	1.058525	-0.097942	0.005438
C72	C	1.391859	0.235391	0.338772
C73	C	0.684028	-0.279805	-0.478761
C74	C	1.017362	0.053529	-0.145428
C75	C	1.350695	0.386862	0.187906
C76	C	0.601477	-0.279808	-0.478772
C77	C	0.934811	0.053525	-0.145438
C78	C	1.268144	0.386858	0.187895
C79	C	0.560164	-0.330306	-0.428491
C80	C	0.893498	0.003028	-0.095157
C81	C	1.226831	0.336361	0.238176
C82	C	0.601404	-0.380795	-0.378195
C83	C	0.934737	-0.047462	-0.044862
C84	C	1.268071	0.285872	0.288471
C85	C	0.560092	-0.431288	-0.327911
C86	C	0.893426	-0.097954	0.005423
C87	C	1.226759	0.235379	0.338756
C88	C	0.601330	-0.481781	-0.277619
C89	C	0.934664	-0.148448	0.055715
C90	C	1.267997	0.184885	0.389048
C91	C	0.683879	-0.481773	-0.277614
C92	C	1.017212	-0.148439	0.055719
C93	C	1.350546	0.184894	0.389053
C94	C	0.477616	-0.330315	-0.428495
C95	C	0.810949	0.003019	-0.095162
C96	C	1.144283	0.336352	0.238171
C97	C	0.477539	-0.431294	-0.327917
C98	C	0.810872	-0.097960	0.005416
C99	C	1.144206	0.235373	0.338750
C100	C	1.142204	-0.586148	-0.378152
C101	C	1.475537	-0.252815	-0.044819
C102	C	1.808871	0.080519	0.288515
C103	C	1.142244	-0.674005	-0.378165
C104	C	1.475577	-0.340671	-0.044832
C105	C	1.808911	-0.007338	0.288502
C106	C	1.091743	-0.715357	-0.327923
C107	C	1.425076	-0.382023	0.005410
C108	C	1.758410	-0.048690	0.338743
C109	C	1.192778	-0.715206	-0.428424
C110	C	1.526112	-0.381873	-0.095091
C111	C	1.859445	-0.048539	0.238242
C112	C	1.192815	-0.797752	-0.428441
C113	C	1.526149	-0.464419	-0.095108
C114	C	1.859482	-0.131085	0.238225
C115	C	1.142315	-0.839104	-0.378199
C116	C	1.475648	-0.505771	-0.044866
C117	C	1.808981	-0.172437	0.288467
C118	C	1.091777	-0.797910	-0.327940
C119	C	1.425110	-0.464577	0.005393
C120	C	1.758443	-0.131244	0.338726
C121	C	1.243347	-0.838952	-0.478705
C122	C	1.576680	-0.505619	-0.145372
C123	C	1.910013	-0.172285	0.187962
C124	C	1.243385	-0.921503	-0.478725
C125	C	1.576718	-0.588170	-0.145391
C126	C	1.910052	-0.254836	0.187942
C127	C	1.192887	-0.962856	-0.428478
C128	C	1.526221	-0.629523	-0.095145
C129	C	1.859554	-0.296190	0.238189
C130	C	1.142348	-0.921658	-0.378217
C131	C	1.475682	-0.588324	-0.044883
C132	C	1.809015	-0.254991	0.288450
C133	C	1.091847	-0.963010	-0.327975
C134	C	1.425181	-0.629676	0.005359
C135	C	1.758514	-0.296343	0.338692
C136	C	1.041312	-0.921812	-0.277708
C137	C	1.374645	-0.588479	0.055625
C138	C	1.707978	-0.255146	0.388958
C139	C	1.041279	-0.839264	-0.277694
C140	C	1.374613	-0.505931	0.055639
C141	C	1.707946	-0.172597	0.388973
C142	C	1.192920	-1.045405	-0.428493
C143	C	1.526253	-0.712072	-0.095159
C144	C	1.859586	-0.378738	0.238174
C145	C	1.091881	-1.045563	-0.327992
C146	C	1.425214	-0.712230	0.005342
C147	C	1.758548	-0.378897	0.338675
C148	C	1.348448	-0.380800	-0.378202
C149	C	1.681781	-0.047466	-0.044869
C150	C	2.015115	0.285867	0.288464
C151	C	1.436305	-0.380807	-0.378211
C152	C	1.769638	-0.047474	-0.044878
C153	C	2.102971	0.285859	0.288456
C154	C	1.142328	-0.380724	-0.582927
C155	C	1.475661	-0.047390	-0.249594
C156	C	1.808994	0.285943	0.083740
C157	C	1.142348	-0.380699	-0.670177
C158	C	1.475681	-0.047365	-0.336843
C159	C	1.809015	0.285968	-0.003510
C160	C	1.142377	-0.174614	-0.378230
C161	C	1.475711	0.158720	-0.044897
C162	C	1.809044	0.492053	0.288436
C163	C	1.142419	-0.086757	-0.378251
C164	C	1.475752	0.246576	-0.044917
C165	C	1.809086	0.579910	0.288416
C166	C	1.192929	-0.330144	-0.711185
C167	C	1.526262	0.003189	-0.377851
C168	C	1.859595	0.336523	-0.044518
C169	C	1.192938	-0.330118	-0.793165
C170	C	1.526272	0.003216	-0.459832
C171	C	1.859605	0.336549	-0.126499
C172	C	1.142370	-0.380651	-0.834136
C173	C	1.475704	-0.047317	-0.500803
C174	C	1.809037	0.286016	-0.167470
C175	C	1.091784	-0.431208	-0.793122
C176	C	1.425117	-0.097874	-0.459789
C177	C	1.758451	0.235459	-0.126456
C178	C	1.091771	-0.431230	-0.711143
C179	C	1.425105	-0.097896	-0.377810
C180	C	1.758438	0.235437	-0.044477
C181	C	1.091816	-0.431160	-0.963993
C182	C	1.425149	-0.097827	-0.630659
C183	C	1.758483	0.235506	-0.297326
C184	C	1.091830	-0.431140	-1.045977
C185	C	1.425163	-0.097806	-0.712644
C186	C	1.758496	0.235527	-0.379311
C187	C	1.192983	-0.330048	-1.046014
C188	C	1.526316	0.003285	-0.712681
C189	C	1.859650	0.336618	-0.379348
C190	C	1.192970	-0.330070	-0.964035
C191	C	1.526303	0.003263	-0.630702
C192	C	1.859637	0.336597	-0.297369
C193	C	1.142385	-0.380628	-0.923027
C194	C	1.475718	-0.047295	-0.589694
C195	C	1.809051	0.286038	-0.256361
C196	C	1.142278	-0.380783	-0.174235
C197	C	1.475611	-0.047449	0.159099
C198	C	1.808944	0.285884	0.492432
C199	C	1.142410	-0.380585	-0.086985
C200	C	1.475744	-0.047252	0.246348
C201	C	1.809077	0.286082	0.579681
H202	H	0.444044	-0.289198	-0.469437
H203	H	0.777377	0.044136	-0.136103
H204	H	1.110710	0.377469	0.197230
H205	H	1.050608	-0.472350	-0.826488
H206	H	1.383941	-0.139016	-0.493154
H207	H	1.717275	0.194317	-0.159821
H208	H	1.050600	-0.681812	-0.286995
H209	H	1.383933	-0.348479	0.046338
H210	H	1.717266	-0.015145	0.379672
H211	H	1.000134	-0.805716	-0.236770
H212	H	1.333467	-0.472383	0.096564
H213	H	1.666801	-0.139049	0.429897
H214	H	0.567908	-0.238694	-0.519724
H215	H	0.901242	0.094639	-0.186390
H216	H	1.234575	0.427972	0.146943
H217	H	0.841456	-0.289177	-0.469400
H218	H	1.174789	0.044156	-0.136067
H219	H	1.508122	0.377489	0.197267
H220	H	1.234151	-0.288926	-0.930679
H221	H	1.567485	0.044407	-0.597346
H222	H	1.900818	0.377741	-0.264012
H223	H	0.717670	-0.238693	-0.519697
H224	H	1.051004	0.094640	-0.186364
H225	H	1.384337	0.427973	0.146970
H226	H	1.050651	-0.472287	-1.079334
H227	H	1.383984	-0.138953	-0.746000
H228	H	1.717318	0.194380	-0.412667
H229	H	1.050575	-0.472388	-0.677756
H230	H	1.383908	-0.139055	-0.344422
H231	H	1.717242	0.194278	-0.011089
H232	H	0.717462	-0.522880	-0.236667
H233	H	1.050795	-0.189547	0.096666
H234	H	1.384129	0.143787	0.430000
H235	H	1.050611	-0.472318	-0.930606
H236	H	1.383945	-0.138985	-0.597273
H237	H	1.717278	0.194349	-0.263940
H238	H	0.443909	-0.472415	-0.286972
H239	H	0.777242	-0.139082	0.046362
H240	H	1.110576	0.194252	0.379695
H241	H	0.567684	-0.522890	-0.236674
H242	H	0.901017	-0.189556	0.096659
H243	H	1.234350	0.143777	0.429993
H244	H	1.234109	-0.288996	-0.677832
H245	H	1.567443	0.044337	-0.344499
H246	H	1.900776	0.377670	-0.011165
H247	H	0.841325	-0.472382	-0.286945
H248	H	1.174658	-0.139049	0.046389
H249	H	1.507992	0.194285	0.379722
H250	H	1.050759	-1.079226	-0.287076
H251	H	1.384092	-0.745893	0.046258
H252	H	1.717426	-0.412560	0.379591
H253	H	1.000190	-0.955492	-0.236805
H254	H	1.333523	-0.622159	0.096528
H255	H	1.666857	-0.288825	0.429861
H256	H	1.233891	-0.681535	-0.469334
H257	H	1.567224	-0.348201	-0.136000
H258	H	1.900558	-0.014868	0.197333
H259	H	1.234128	-0.288953	-0.826550
H260	H	1.567461	0.044381	-0.493217
H261	H	1.900795	0.377714	-0.159884
H262	H	1.284459	-0.805280	-0.519614
H263	H	1.617792	-0.471947	-0.186281
H264	H	1.951126	-0.138614	0.147052
H265	H	1.234055	-1.078944	-0.469429
H266	H	1.567388	-0.745611	-0.136096
H267	H	1.900721	-0.412277	0.197238
H268	H	1.284536	-0.955039	-0.519652
H269	H	1.617869	-0.621705	-0.186319
H270	H	1.951203	-0.288372	0.147014
H271	H	1.234170	-0.288881	-1.079407
H272	H	1.567503	0.044453	-0.746074
H273	H	1.900837	0.377786	-0.412740
