data_functionalizedCrystal
_audit_creation_method	'MofGen! by Chris Wilmer'
_symmetry_space_group_name_H-M	'P1'
_symmetry_Int_Tables_number	1
_symmetry_cell_setting	triclinic
loop_
_symmetry_equiv_pos_as_xyz
  x,y,z
_cell_length_a	14.044191
_cell_length_b	14.044190
_cell_length_c	10.268362
_cell_angle_alpha	89.989939
_cell_angle_beta	89.997935
_cell_angle_gamma	93.191777
loop_
_atom_site_label
_atom_site_type_symbol
_atom_site_fract_x
_atom_site_fract_y
_atom_site_fract_z
O1	O	1.277178	0.230201	-0.108264
O2	O	1.527178	0.480201	0.141736
O3	O	1.777178	0.730201	0.391736
O4	O	2.027178	0.980201	0.641736
O5	O	1.000506	0.221889	-0.108280
O6	O	1.250506	0.471889	0.141720
O7	O	1.500506	0.721889	0.391720
O8	O	1.750506	0.971889	0.641720
O9	O	1.134686	0.087709	-0.108247
O10	O	1.384686	0.337709	0.141753
O11	O	1.634686	0.587709	0.391753
O12	O	1.884686	0.837709	0.641753
O13	O	1.142998	0.364381	-0.108297
O14	O	1.392998	0.614381	0.141703
O15	O	1.642998	0.864381	0.391703
O16	O	1.892998	1.114381	0.641703
O17	O	1.134672	0.087702	0.108354
O18	O	1.384672	0.337702	0.358354
O19	O	1.634672	0.587702	0.608354
O20	O	1.884672	0.837702	0.858354
O21	O	1.000493	0.221882	0.108321
O22	O	1.250493	0.471882	0.358321
O23	O	1.500493	0.721882	0.608321
O24	O	1.750493	0.971882	0.858321
O25	O	1.277165	0.230194	0.108336
O26	O	1.527165	0.480194	0.358336
O27	O	1.777165	0.730194	0.608336
O28	O	2.027165	0.980194	0.858336
Cu29	Cu	1.138828	0.226037	0.128106
Cu30	Cu	1.388828	0.476037	0.378106
Cu31	Cu	1.638828	0.726037	0.628106
Cu32	Cu	1.888828	0.976037	0.878106
Cu33	Cu	1.138843	0.226046	-0.128049
Cu34	Cu	1.388843	0.476046	0.121951
Cu35	Cu	1.638843	0.726046	0.371951
Cu36	Cu	1.888843	0.976046	0.621951
O37	O	1.142985	0.364374	0.108303
O38	O	1.392985	0.614374	0.358303
O39	O	1.642985	0.864374	0.608303
O40	O	1.892985	1.114374	0.858303
C41	C	0.964877	0.218249	0.000019
C42	C	1.214877	0.468249	0.250019
C43	C	1.464877	0.718249	0.500019
C44	C	1.714877	0.968249	0.750019
C45	C	0.858734	0.207401	0.000014
C46	C	1.108734	0.457401	0.250014
C47	C	1.358734	0.707401	0.500014
C48	C	1.608734	0.957401	0.750014
C49	C	1.131043	0.052083	0.000057
C50	C	1.381043	0.302083	0.250057
C51	C	1.631043	0.552083	0.500057
C52	C	1.881043	0.802083	0.750057
C53	C	1.120195	-0.054060	0.000068
C54	C	1.370195	0.195940	0.250068
C55	C	1.620195	0.445940	0.500068
C56	C	1.870195	0.695940	0.750068
C57	C	0.613277	0.264502	0.000017
C58	C	0.863277	0.514502	0.250017
C59	C	1.113277	0.764502	0.500017
C60	C	1.363277	1.014502	0.750017
C61	C	0.664400	0.187585	0.000028
C62	C	0.914400	0.437585	0.250028
C63	C	1.164400	0.687585	0.500028
C64	C	1.414400	0.937585	0.750028
C65	C	0.772537	0.198614	0.000020
C66	C	1.022537	0.448614	0.250020
C67	C	1.272537	0.698614	0.500020
C68	C	1.522537	0.948614	0.750020
C69	C	0.505130	0.253475	0.000025
C70	C	0.755130	0.503475	0.250025
C71	C	1.005130	0.753475	0.500025
C72	C	1.255130	1.003475	0.750025
C73	C	1.177296	-0.299517	0.000020
C74	C	1.427296	-0.049517	0.250020
C75	C	1.677296	0.200483	0.500020
C76	C	1.927296	0.450483	0.750020
C77	C	1.100379	-0.248394	0.000025
C78	C	1.350379	0.001606	0.250025
C79	C	1.600379	0.251606	0.500025
C80	C	1.850379	0.501606	0.750025
C81	C	1.111408	-0.140257	0.000049
C82	C	1.361408	0.109743	0.250049
C83	C	1.611408	0.359743	0.500049
C84	C	1.861408	0.609743	0.750049
C85	C	1.166269	-0.407664	-0.000004
C86	C	1.416269	-0.157664	0.249996
C87	C	1.666269	0.092336	0.499996
C88	C	1.916269	0.342336	0.749996
C89	C	1.312794	0.233834	0.000035
C90	C	1.562794	0.483834	0.250035
C91	C	1.812794	0.733834	0.500035
C92	C	2.062794	0.983834	0.750035
C93	C	1.418937	0.244682	0.000031
C94	C	1.668937	0.494682	0.250031
C95	C	1.918937	0.744682	0.500031
C96	C	2.168937	0.994682	0.750031
C97	C	1.146628	0.400000	-0.000004
C98	C	1.396628	0.650000	0.249996
C99	C	1.646628	0.900000	0.499996
C100	C	1.896628	1.150000	0.749996
C101	C	1.157476	0.506143	-0.000023
C102	C	1.407476	0.756143	0.249977
C103	C	1.657476	1.006143	0.499977
C104	C	1.907476	1.256143	0.749977
N105	N	1.138824	0.226031	0.308272
N106	N	1.388824	0.476031	0.558272
N107	N	1.638824	0.726031	0.808272
N108	N	1.888824	0.976031	1.058272
N109	N	1.138854	0.226045	-0.308215
N110	N	1.388854	0.476045	-0.058215
N111	N	1.638854	0.726045	0.191785
N112	N	1.888854	0.976045	0.441785
C113	C	1.138838	0.226043	0.573942
C114	C	1.388838	0.476043	0.823942
C115	C	1.638838	0.726043	1.073942
C116	C	1.888838	0.976043	1.323942
C117	C	1.138827	0.226039	0.426104
C118	C	1.388827	0.476039	0.676104
C119	C	1.638827	0.726039	0.926104
C120	C	1.888827	0.976039	1.176104
H121	H	0.626955	0.113453	-0.000050
H122	H	0.876955	0.363453	0.249950
H123	H	1.126955	0.613453	0.499950
H124	H	1.376955	0.863453	0.749950
C125	C	0.663855	0.364647	-0.000029
C126	C	0.913855	0.614647	0.249971
C127	C	1.163855	0.864647	0.499971
C128	C	1.413855	1.114647	0.749971
C129	C	0.773563	0.375675	-0.000054
C130	C	1.023563	0.625675	0.249946
C131	C	1.273563	0.875675	0.499946
C132	C	1.523563	1.125675	0.749946
C133	C	0.824155	0.475818	-0.000111
C134	C	1.074155	0.725818	0.249889
C135	C	1.324155	0.975818	0.499889
C136	C	1.574155	1.225818	0.749889
C137	C	0.765038	0.564933	-0.000142
C138	C	1.015038	0.814933	0.249858
C139	C	1.265038	1.064933	0.499858
C140	C	1.515038	1.314933	0.749858
C141	C	0.655323	0.553907	-0.000116
C142	C	0.905323	0.803907	0.249884
C143	C	1.155323	1.053907	0.499884
C144	C	1.405323	1.303907	0.749884
C145	C	0.604731	0.453764	-0.000060
C146	C	0.854731	0.703764	0.249940
C147	C	1.104731	0.953764	0.499940
C148	C	1.354731	1.203764	0.749940
H149	H	0.817331	0.309705	-0.000031
H150	H	1.067331	0.559705	0.249969
H151	H	1.317331	0.809705	0.499969
H152	H	1.567331	1.059705	0.749969
H153	H	0.905374	0.483980	-0.000130
H154	H	1.155374	0.733980	0.249870
H155	H	1.405374	0.983980	0.499870
H156	H	1.655374	1.233980	0.749870
H157	H	0.802489	0.639065	-0.000184
H158	H	1.052489	0.889065	0.249816
H159	H	1.302489	1.139065	0.499816
H160	H	1.552489	1.389065	0.749816
H161	H	0.611555	0.619878	-0.000139
H162	H	0.861555	0.869878	0.249861
H163	H	1.111555	1.119878	0.499861
H164	H	1.361555	1.369878	0.749861
H165	H	0.523512	0.445603	-0.000041
H166	H	0.773512	0.695603	0.249959
H167	H	1.023512	0.945603	0.499959
H168	H	1.273512	1.195603	0.749959
C169	C	1.277440	-0.248939	0.000051
C170	C	1.527440	0.001061	0.250051
C171	C	1.777440	0.251061	0.500051
C172	C	2.027440	0.501061	0.750051
C173	C	1.288469	-0.139230	0.000084
C174	C	1.538469	0.110770	0.250084
C175	C	1.788469	0.360770	0.500084
C176	C	2.038469	0.610770	0.750084
C177	C	1.388612	-0.088639	0.000121
C178	C	1.638612	0.161361	0.250121
C179	C	1.888612	0.411361	0.500121
C180	C	2.138612	0.661361	0.750121
C181	C	1.477727	-0.147756	0.000125
C182	C	1.727727	0.102244	0.250125
C183	C	1.977727	0.352244	0.500125
C184	C	2.227727	0.602244	0.750125
C185	C	1.466701	-0.257471	0.000091
C186	C	1.716701	-0.007471	0.250091
C187	C	1.966701	0.242529	0.500091
C188	C	2.216701	0.492529	0.750091
C189	C	1.366558	-0.308063	0.000055
C190	C	1.616558	-0.058063	0.250055
C191	C	1.866558	0.191937	0.500055
C192	C	2.116558	0.441937	0.750055
H193	H	1.222498	-0.095463	0.000082
H194	H	1.472498	0.154537	0.250082
H195	H	1.722498	0.404537	0.500082
H196	H	1.972498	0.654537	0.750082
H197	H	1.396774	-0.007420	0.000146
H198	H	1.646774	0.242580	0.250146
H199	H	1.896774	0.492580	0.500146
H200	H	2.146774	0.742580	0.750146
H201	H	1.551859	-0.110305	0.000152
H202	H	1.801859	0.139695	0.250152
H203	H	2.051859	0.389695	0.500152
H204	H	2.301859	0.639695	0.750152
H205	H	1.532672	-0.301239	0.000094
H206	H	1.782672	-0.051239	0.250094
H207	H	2.032672	0.198761	0.500094
H208	H	2.282672	0.448761	0.750094
H209	H	1.358397	-0.389281	0.000030
H210	H	1.608397	-0.139281	0.250030
H211	H	1.858397	0.110719	0.500030
H212	H	2.108397	0.360719	0.750030
H213	H	1.026247	-0.285839	0.000013
H214	H	1.276247	-0.035839	0.250013
H215	H	1.526247	0.214161	0.500013
H216	H	1.776247	0.464161	0.750013
