data_functionalizedCrystal
_audit_creation_method	'MofGen! by Chris Wilmer'
_symmetry_space_group_name_H-M	'P1'
_symmetry_Int_Tables_number	1
_symmetry_cell_setting	triclinic
loop_
_symmetry_equiv_pos_as_xyz
  x,y,z
_cell_length_a	14.044220
_cell_length_b	10.489741
_cell_length_c	12.503572
_cell_angle_alpha	93.559494
_cell_angle_beta	86.164750
_cell_angle_gamma	88.864026
loop_
_atom_site_label
_atom_site_type_symbol
_atom_site_fract_x
_atom_site_fract_y
_atom_site_fract_z
O1	O	1.265220	0.300990	-0.089205
O2	O	1.765220	0.800990	0.410795
O3	O	0.989177	0.289883	-0.089232
O4	O	1.489177	0.789883	0.410768
O5	O	1.133479	0.110477	-0.089211
O6	O	1.633479	0.610477	0.410789
O7	O	1.120918	0.480397	-0.089225
O8	O	1.620918	0.980397	0.410775
O9	O	1.122627	0.123993	0.089429
O10	O	1.622627	0.623993	0.589429
O11	O	0.978325	0.303400	0.089408
O12	O	1.478325	0.803400	0.589408
O13	O	1.254368	0.314507	0.089436
O14	O	1.754368	0.814507	0.589436
Cu15	Cu	1.115355	0.310188	0.105733
Cu16	Cu	1.615355	0.810188	0.605733
Cu17	Cu	1.128189	0.294203	-0.105530
Cu18	Cu	1.628189	0.794203	0.394470
O19	O	1.110065	0.493914	0.089415
O20	O	1.610065	0.993914	0.589415
C21	C	0.948403	0.291780	0.000085
C22	C	1.448403	0.791780	0.500085
C23	C	0.843079	0.277280	0.000074
C24	C	1.343079	0.777280	0.500074
C25	C	0.650235	0.250773	0.000097
C26	C	1.150235	0.750773	0.500097
C27	C	0.593304	0.353611	0.000097
C28	C	1.093304	0.853611	0.500097
C29	C	0.485999	0.338862	0.000110
C30	C	0.985999	0.838862	0.500110
C31	C	0.757550	0.265520	0.000084
C32	C	1.257550	0.765520	0.500084
C33	C	1.127104	0.069607	0.000108
C34	C	1.627104	0.569607	0.500108
C35	C	1.124266	-0.072311	0.000106
C36	C	1.624266	0.427689	0.500106
C37	C	1.032451	-0.149764	0.000089
C38	C	1.532451	0.350236	0.500089
C39	C	1.070473	-0.230823	0.088172
C40	C	1.570473	0.269177	0.588172
C41	C	1.081194	-0.244122	-0.087953
C42	C	1.581194	0.255878	0.412047
C43	C	1.162321	-0.151494	0.088262
C44	C	1.662321	0.348506	0.588262
C45	C	1.173035	-0.164791	-0.087943
C46	C	1.673035	0.335209	0.412057
C47	C	1.211122	-0.245814	0.000162
C48	C	1.711122	0.254186	0.500162
C49	C	1.295142	0.312610	0.000116
C50	C	1.795142	0.812610	0.500116
C51	C	1.400466	0.327110	0.000120
C52	C	1.900466	0.827110	0.500120
C53	C	1.116440	0.534783	0.000093
C54	C	1.616440	1.034783	0.500093
C55	C	1.119279	0.676700	0.000088
C56	C	1.619279	1.176700	0.500088
N57	N	1.106335	0.321431	0.254324
N58	N	1.606335	0.821431	0.754324
N59	N	1.137217	0.282950	-0.254121
N60	N	1.637217	0.782950	0.245879
C61	C	1.093067	0.337981	0.473438
C62	C	1.593067	0.837981	0.973438
C63	C	1.150482	0.266404	0.526773
C64	C	1.650482	0.766404	1.026773
C65	C	1.143099	0.275613	0.648695
C66	C	1.643099	0.775613	1.148695
C67	C	1.100449	0.328774	0.351504
C68	C	1.600449	0.828774	0.851504
H69	H	0.625152	0.452730	0.000088
H70	H	1.125152	0.952730	0.500088
H71	H	1.038372	0.406172	0.519337
H72	H	1.538372	0.906172	1.019337
C73	C	0.507728	0.128077	0.000098
C74	C	1.007728	0.628077	0.500098
C75	C	0.607250	0.116971	0.000095
C76	C	1.107250	0.616971	0.500095
H77	H	0.481185	0.045472	0.000087
H78	H	0.981185	0.545472	0.500087
H79	H	0.483476	0.177836	0.062395
H80	H	0.983476	0.677836	0.562395
H81	H	0.491032	0.168438	-0.062197
H82	H	0.991032	0.668438	0.437803
H83	H	0.623947	0.076618	0.062395
H84	H	1.123947	0.576618	0.562395
H85	H	0.631511	0.067192	-0.062208
H86	H	1.131511	0.567192	0.437792
C87	C	1.301862	-0.146609	0.189267
C88	C	1.801862	0.353391	0.689267
C89	C	1.208607	-0.096953	0.188906
C90	C	1.708607	0.403047	0.688906
H91	H	1.330434	-0.112927	0.251398
H92	H	1.830434	0.387073	0.751398
H93	H	1.300355	-0.237048	0.189859
H94	H	1.800355	0.262952	0.689859
H95	H	1.338045	-0.123506	0.126795
H96	H	1.838045	0.376494	0.626795
H97	H	1.172422	-0.120063	0.251375
H98	H	1.672422	0.379937	0.751375
H99	H	1.210108	-0.006493	0.188324
H100	H	1.710108	0.493507	0.688324
C101	C	0.877080	-0.126036	0.092543
C102	C	1.377080	0.373964	0.592543
C103	C	0.930539	-0.093052	0.000194
C104	C	1.430539	0.406948	0.500194
H105	H	0.814169	-0.091014	0.092612
H106	H	1.314169	0.408986	0.592612
H107	H	0.874537	-0.216404	0.093172
H108	H	1.374537	0.283596	0.593172
H109	H	0.906273	-0.093038	0.154476
H110	H	1.406273	0.406962	0.654476
H111	H	0.901350	-0.126058	-0.061739
H112	H	1.401350	0.373942	0.438261
H113	H	0.933078	-0.002665	-0.000445
H114	H	1.433078	0.497335	0.499555
H115	H	1.216375	-0.135444	-0.162407
H116	H	1.716375	0.364556	0.337593
C117	C	1.010619	-0.403897	0.188091
C118	C	1.510619	0.096103	0.688091
C119	C	1.011926	-0.270415	0.188689
C120	C	1.511926	0.229585	0.688689
H121	H	0.974475	-0.428333	0.250147
H122	H	1.474475	0.071667	0.750147
H123	H	0.982409	-0.436983	0.125549
H124	H	1.482409	0.063017	0.625549
H125	H	1.074090	-0.436898	0.188192
H126	H	1.574090	0.063102	0.688192
H127	H	0.948455	-0.237414	0.188581
H128	H	1.448455	0.262586	0.688581
H129	H	1.040134	-0.237316	0.251248
H130	H	1.540134	0.262684	0.751248
H131	H	1.286677	-0.287570	0.000218
H132	H	1.786677	0.212430	0.500218
C133	C	0.941281	-0.250146	-0.188313
C134	C	1.441281	0.249854	0.311687
C135	C	1.034843	-0.298866	-0.188487
C136	C	1.534843	0.201134	0.311513
H137	H	0.912665	-0.283934	-0.250379
H138	H	1.412665	0.216066	0.249621
H139	H	0.905485	-0.273812	-0.125780
H140	H	1.405485	0.226188	0.374220
H141	H	0.942242	-0.159649	-0.188681
H142	H	1.442242	0.340351	0.311319
H143	H	1.033881	-0.389363	-0.188111
H144	H	1.533881	0.110637	0.311889
H145	H	1.070647	-0.275209	-0.251036
H146	H	1.570647	0.224791	0.248964
C147	C	1.217145	0.182490	0.354274
C148	C	1.717145	0.682490	0.854274
C149	C	1.224121	0.174045	0.464812
C150	C	1.724121	0.674045	0.964812
H151	H	1.262548	0.125390	0.316021
H152	H	1.762548	0.625390	0.816021
H153	H	1.154727	0.160434	0.336047
H154	H	1.654727	0.660434	0.836047
H155	H	1.229448	0.267372	0.335787
H156	H	1.729448	0.767372	0.835787
H157	H	1.211811	0.089165	0.483300
H158	H	1.711811	0.589165	0.983300
H159	H	1.286554	0.196093	0.483046
H160	H	1.786554	0.696093	0.983046
