data_functionalizedCrystal
_audit_creation_method	'MofGen! by Chris Wilmer'
_symmetry_space_group_name_H-M	'P1'
_symmetry_Int_Tables_number	1
_symmetry_cell_setting	triclinic
loop_
_symmetry_equiv_pos_as_xyz
  x,y,z
_cell_length_a	16.992694
_cell_length_b	14.971486
_cell_length_c	14.048226
_cell_angle_alpha	90.006640
_cell_angle_beta	89.999324
_cell_angle_gamma	92.858824
loop_
_atom_site_label
_atom_site_type_symbol
_atom_site_fract_x
_atom_site_fract_y
_atom_site_fract_z
O1	O	1.040571	-0.189676	-0.079042
O2	O	0.812284	-0.187595	-0.079070
O3	O	0.932546	-0.058866	-0.079049
O4	O	0.920309	-0.318406	-0.079064
O5	O	0.932532	-0.058856	0.079273
O6	O	0.812269	-0.187586	0.079251
O7	O	1.040557	-0.189667	0.079279
Zn8	Zn	0.926411	-0.188625	0.104402
Zn9	Zn	0.926430	-0.188637	-0.104193
O10	O	0.920294	-0.318397	0.079257
C11	C	0.783062	-0.184914	0.000087
C12	C	0.696010	-0.176927	0.000076
C13	C	0.645842	-0.253991	0.000073
C14	C	0.564048	-0.246481	0.000086
C15	C	0.532424	-0.161906	0.000097
C16	C	0.582599	-0.084836	0.000103
C17	C	0.664391	-0.092347	0.000096
C18	C	0.288797	-0.130776	0.000124
C19	C	0.206999	-0.123271	0.000128
C20	C	0.188454	-0.284917	0.000112
C21	C	0.270248	-0.292421	0.000100
C22	C	0.320416	-0.215351	0.000112
N23	N	0.448818	-0.154227	0.000107
N24	N	0.404020	-0.223030	0.000108
C25	C	0.931992	-0.025498	0.000111
C26	C	0.930352	0.073914	0.000110
C27	C	1.069779	-0.192349	0.000120
C28	C	1.156831	-0.200336	0.000124
C29	C	0.920849	-0.351765	0.000095
C30	C	0.922489	-0.451177	0.000090
N31	N	0.926403	-0.188617	0.246763
C32	C	1.001003	0.126176	0.000120
C33	C	0.999457	0.219584	0.000110
C34	C	0.927260	0.260729	0.000098
C35	C	0.856603	0.208461	0.000086
C36	C	0.858150	0.115054	0.000088
C37	C	0.853385	0.403149	0.000082
C38	C	0.851838	0.496562	0.000080
C39	C	0.994692	0.507679	0.000103
C40	C	0.996239	0.414272	0.000106
C41	C	0.925582	0.362011	0.000096
N42	N	0.926443	-0.188639	-0.246554
C43	C	0.979672	-0.131642	0.296590
C44	C	0.979678	-0.131641	0.396248
C45	C	0.926417	-0.188622	0.446076
C46	C	0.873143	-0.245600	0.396242
C47	C	0.873134	-0.245594	0.296586
C48	C	0.873165	-0.245608	0.603956
C49	C	0.873174	-0.245614	0.703618
C50	C	0.979709	-0.131655	0.703618
C51	C	0.979700	-0.131650	0.603962
C52	C	0.926426	-0.188629	0.554134
H53	H	0.523204	-0.309235	0.000082
O54	O	0.304344	-0.383648	0.000098
H55	H	0.341155	-0.390948	-0.064439
O56	O	1.037146	-0.070207	0.449994
H57	H	1.074191	-0.030599	0.398603
O58	O	1.037140	-0.070188	0.550215
H59	H	1.098280	-0.085988	0.569330
H60	H	0.800618	0.072504	0.000081
H61	H	1.059794	0.092683	0.000136
H62	H	1.023086	-0.085260	0.744193
H63	H	0.705238	-0.029592	0.000099
O64	O	0.342900	-0.047653	0.000127
H65	H	0.380603	-0.047201	0.064660
O66	O	0.778733	0.252838	0.000083
H67	H	0.774617	0.295130	-0.064440
H68	H	0.795849	0.360600	0.000071
O69	O	0.172890	-0.032045	0.000154
H70	H	0.136072	-0.024751	-0.064375
O71	O	0.815715	-0.307050	0.757368
H72	H	0.778657	-0.346655	0.705980
O73	O	1.075658	0.275955	0.000136
H74	H	1.126121	0.231652	0.000162
H75	H	1.055028	0.380775	0.000123
H76	H	0.829773	-0.291991	0.436817
O77	O	0.548497	0.006388	0.000118
H78	H	0.483193	-0.001334	0.000113
O79	O	0.773971	0.540946	0.000051
H80	H	0.725098	0.488915	0.000026
O81	O	0.815684	-0.307050	0.242835
H82	H	0.778655	-0.346680	0.294224
O83	O	1.037115	-0.070180	0.242847
H84	H	1.074150	-0.030555	0.294243
O85	O	1.070906	0.564036	0.000112
H86	H	1.073635	0.606841	-0.064424
H87	H	0.829781	-0.292003	0.563389
H88	H	0.671583	-0.322861	0.000063
H89	H	0.147599	-0.347663	0.000105
