data_functionalizedCrystal
_audit_creation_method	'MofGen! by Chris Wilmer'
_symmetry_space_group_name_H-M	'P1'
_symmetry_Int_Tables_number	1
_symmetry_cell_setting	triclinic
loop_
_symmetry_equiv_pos_as_xyz
  x,y,z
_cell_length_a	8.559649
_cell_length_b	23.532407
_cell_length_c	7.681481
_cell_angle_alpha	84.289450
_cell_angle_beta	94.913240
_cell_angle_gamma	76.313671
loop_
_atom_site_label
_atom_site_type_symbol
_atom_site_fract_x
_atom_site_fract_y
_atom_site_fract_z
O1	O	2.105234	-0.013278	-0.146397
O2	O	1.639561	0.016154	-0.146414
O3	O	1.886443	-0.082081	-0.146373
O4	O	1.858352	0.084957	-0.146438
O5	O	1.916831	-0.094196	0.146490
O6	O	1.669949	0.004039	0.146449
O7	O	2.135622	-0.025394	0.146466
Zn8	Zn	1.907610	-0.012601	0.192956
Zn9	Zn	1.867573	0.003362	-0.192904
O10	O	1.888739	0.072842	0.146425
C11	C	1.595190	0.012327	0.000016
C12	C	1.417704	0.018967	0.000010
C13	C	1.900922	-0.109325	0.000063
C14	C	1.898774	-0.172453	0.000077
C15	C	2.031375	-0.577085	-0.000015
C16	C	2.029376	-0.636401	-0.000028
O17	O	2.152301	-0.678272	-0.000089
N18	N	1.882607	-0.652904	-0.000032
C19	C	1.737825	-0.610085	-0.000041
O20	O	1.612803	-0.629568	-0.000048
C21	C	1.739824	-0.550770	-0.000040
C22	C	1.886605	-0.534272	-0.000018
C23	C	2.178143	-0.560586	0.000005
C24	C	2.180142	-0.501274	0.000022
C25	C	2.035372	-0.458460	0.000019
C26	C	1.888603	-0.474960	-0.000002
C27	C	1.595043	-0.507952	-0.000062
C28	C	1.597055	-0.448633	-0.000062
C29	C	1.743835	-0.432135	-0.000040
C30	C	1.745832	-0.372834	0.000012
N31	N	1.892601	-0.356332	0.000016
C32	C	2.037371	-0.399145	0.000019
C33	C	1.733637	-0.734653	-0.000046
C34	C	1.731638	-0.793968	-0.000034
C35	C	2.023189	-0.820279	-0.000025
C36	C	2.025188	-0.760964	-0.000024
C37	C	1.880407	-0.718150	-0.000042
C38	C	2.041557	-0.274584	0.000056
C39	C	2.043544	-0.215266	0.000080
C40	C	1.751992	-0.188959	0.000061
C41	C	1.750006	-0.248272	0.000046
C42	C	1.894801	-0.291084	0.000038
O43	O	1.622970	-0.330931	0.000065
O44	O	2.162370	-0.379651	0.000003
C45	C	2.179993	-0.021566	0.000033
C46	C	2.357478	-0.028205	0.000026
C47	C	1.874260	0.100086	-0.000015
C48	C	1.876408	0.163214	-0.000040
N49	N	1.934946	-0.023496	0.456295
N50	N	1.840250	0.014252	-0.456243
H51	H	1.441697	-0.073670	0.000035
H52	H	1.333473	0.064435	-0.000017
C53	C	2.148978	-0.108808	0.438166
C54	C	2.065457	-0.075513	0.557825
H55	H	2.229552	-0.140918	0.500851
H56	H	2.075249	-0.123418	0.366282
H57	H	2.198799	-0.084669	0.366234
H58	H	2.015626	-0.099651	0.629749
H59	H	2.139198	-0.060903	0.629739
H60	H	2.163075	-0.201838	0.000103
H61	H	2.299665	-0.487847	0.000033
H62	H	1.743585	0.052781	0.468544
H63	H	2.159463	-0.309436	0.000042
C64	C	1.330321	-0.497527	-0.150672
C65	C	1.433692	-0.526074	-0.000104
H66	H	1.230707	-0.508716	-0.150703
H67	H	1.310826	-0.456080	-0.150651
H68	H	1.379320	-0.508433	-0.252777
H69	H	1.384697	-0.515164	0.102001
H70	H	1.453184	-0.567530	-0.000109
C71	C	2.410434	-0.595029	-0.150515
C72	C	2.337298	-0.607640	0.000019
H73	H	2.508703	-0.624074	-0.150487
H74	H	2.339634	-0.595127	-0.252631
H75	H	2.432589	-0.557335	-0.150498
H76	H	2.315132	-0.645332	-0.000005
H77	H	2.408114	-0.607548	0.102162
H78	H	2.144710	-0.747536	-0.000007
H79	H	2.141068	-0.855149	-0.000029
H80	H	1.612118	-0.807395	-0.000022
C81	C	1.414526	-0.360428	-0.150626
C82	C	1.437901	-0.401573	-0.000080
H83	H	1.316268	-0.331379	-0.150636
H84	H	1.502208	-0.342112	-0.150596
H85	H	1.409223	-0.379891	-0.252745
H86	H	1.443217	-0.382111	0.102040
H87	H	1.350197	-0.419891	-0.000093
H88	H	1.630490	-0.261707	0.000077
C89	C	1.569521	-0.100751	-0.150508
C90	C	1.592865	-0.141891	0.000045
H91	H	1.471276	-0.071694	-0.150529
H92	H	1.657221	-0.082443	-0.150476
H93	H	1.564209	-0.120216	-0.252622
H94	H	1.598188	-0.122427	0.102160
H95	H	1.505142	-0.160200	0.000030
H96	H	1.615733	-0.699796	-0.000046
