data_functionalizedCrystal
_audit_creation_method	'MofGen! by Chris Wilmer'
_symmetry_space_group_name_H-M	'P1'
_symmetry_Int_Tables_number	1
_symmetry_cell_setting	triclinic
loop_
_symmetry_equiv_pos_as_xyz
  x,y,z
_cell_length_a	8.634740
_cell_length_b	14.853559
_cell_length_c	13.330367
_cell_angle_alpha	89.997552
_cell_angle_beta	89.993125
_cell_angle_gamma	92.100880
loop_
_atom_site_label
_atom_site_type_symbol
_atom_site_fract_x
_atom_site_fract_y
_atom_site_fract_z
O1	O	2.046682	0.293989	-0.083410
O2	O	2.546682	0.793989	0.416590
O3	O	1.597679	0.269337	-0.083413
O4	O	2.097679	0.769337	0.416587
O5	O	1.834181	0.151467	-0.083411
O6	O	2.334181	0.651467	0.416589
O7	O	1.810180	0.411860	-0.083413
O8	O	2.310180	0.911860	0.416587
O9	O	1.834146	0.151461	0.083436
O10	O	2.334146	0.651461	0.583436
O11	O	1.597644	0.269331	0.083434
O12	O	2.097644	0.769331	0.583434
O13	O	2.046648	0.293983	0.083437
O14	O	2.546648	0.793983	0.583437
Cu15	Cu	1.822143	0.281657	0.098670
Cu16	Cu	2.322143	0.781657	0.598670
Cu17	Cu	1.822184	0.281664	-0.098646
Cu18	Cu	2.322184	0.781664	0.401354
O19	O	1.810146	0.411854	0.083434
O20	O	2.310146	0.911854	0.583434
C21	C	1.540200	0.263749	0.000010
C22	C	2.040200	0.763749	0.500010
C23	C	1.368982	0.247098	0.000008
C24	C	1.868982	0.747098	0.500008
C25	C	1.833079	0.117781	0.000011
C26	C	2.333079	0.617781	0.500011
C27	C	1.829827	0.017417	0.000005
C28	C	2.329827	0.517417	0.500005
C29	C	1.816050	-0.406943	-0.090943
C30	C	2.316050	0.093057	0.409057
C31	C	1.816013	-0.406944	0.090960
C32	C	2.316013	0.093056	0.590960
C33	C	1.819081	-0.312647	0.090961
C34	C	2.319081	0.187353	0.590961
C35	C	1.820631	-0.265493	0.000008
C36	C	2.320631	0.234507	0.500008
C37	C	1.819114	-0.312637	-0.090945
C38	C	2.319114	0.187363	0.409055
C39	C	1.820583	-0.265496	0.181913
C40	C	2.320583	0.234504	0.681913
C41	C	1.823649	-0.171193	0.181917
C42	C	2.323649	0.328807	0.681917
C43	C	1.825211	-0.124037	0.090963
C44	C	2.325211	0.375963	0.590963
C45	C	1.823695	-0.171187	0.000006
C46	C	2.323695	0.328813	0.500006
C47	C	1.825246	-0.124033	-0.090946
C48	C	2.325246	0.375967	0.409054
C49	C	1.823741	-0.171181	-0.181904
C50	C	2.323741	0.328819	0.318096
C51	C	1.820676	-0.265481	-0.181899
C52	C	2.320676	0.234519	0.318101
C53	C	1.828276	-0.029737	0.090958
C54	C	2.328276	0.470263	0.590958
C55	C	1.828309	-0.029727	-0.090948
C56	C	2.328309	0.470273	0.409052
C57	C	2.104127	0.299571	0.000012
C58	C	2.604127	0.799571	0.500012
C59	C	2.275345	0.316222	0.000006
C60	C	2.775345	0.816222	0.500006
C61	C	1.811248	0.445539	0.000010
C62	C	2.311248	0.945539	0.500010
C63	C	1.814500	0.545903	0.000009
C64	C	2.314500	1.045903	0.500009
N65	N	1.822126	0.281652	0.237451
N66	N	2.322126	0.781652	0.737451
N67	N	1.822213	0.281662	-0.237428
N68	N	2.322213	0.781662	0.262572
C69	C	1.717456	0.333832	0.710073
C70	C	2.217456	0.833832	1.210073
C71	C	1.926953	0.229492	0.710043
C72	C	2.426953	0.729492	1.210043
C73	C	1.926935	0.229487	0.605025
C74	C	2.426935	0.729487	1.105025
C75	C	1.822178	0.281657	0.552526
C76	C	2.322178	0.781657	1.052526
C77	C	1.717438	0.333832	0.605045
C78	C	2.217438	0.833832	1.105045
C79	C	2.031684	0.177321	0.552498
C80	C	2.531684	0.677321	1.052498
C81	C	2.031672	0.177316	0.447473
C82	C	2.531672	0.677316	0.947473
C83	C	1.926906	0.229481	0.394972
C84	C	2.426906	0.729481	0.894972
C85	C	1.822161	0.281657	0.447498
C86	C	2.322161	0.781657	0.947498
C87	C	1.717403	0.333827	0.394998
C88	C	2.217403	0.833827	0.894998
C89	C	1.612649	0.385998	0.447522
C90	C	2.112649	0.885998	0.947522
C91	C	1.612672	0.385998	0.552544
C92	C	2.112672	0.885998	1.052544
C93	C	1.926883	0.229482	0.289951
C94	C	2.426883	0.729482	0.789951
C95	C	1.717386	0.333826	0.289970
C96	C	2.217386	0.833826	0.789970
H97	H	1.318161	0.175179	-0.000017
H98	H	1.818161	0.675179	0.499983
H99	H	1.819312	-0.303896	0.255961
H100	H	2.319312	0.196104	0.755961
H101	H	2.116982	0.134851	0.595246
H102	H	2.616982	0.634851	1.095246
H103	H	1.824992	-0.132776	-0.255958
H104	H	2.324992	0.367224	0.244042
H105	H	1.326172	0.388146	0.000012
H106	H	1.826172	0.888146	0.500012
H107	H	1.829579	0.008659	-0.165014
H108	H	2.329579	0.508659	0.334986
H109	H	2.116966	0.134834	0.404715
H110	H	2.616966	0.634834	0.904715
Cl111	Cl	1.818790	-0.324757	-0.296235
Cl112	Cl	2.318790	0.175243	0.203765
Cl113	Cl	1.825535	-0.111930	0.296262
Cl114	Cl	2.325535	0.388070	0.796262
Cl115	Cl	1.814175	-0.466211	-0.205285
Cl116	Cl	2.314175	0.033789	0.294715
Cl117	Cl	1.814037	-0.466224	0.205294
Cl118	Cl	2.314037	0.033776	0.705294
H119	H	1.829466	0.008646	0.165015
H120	H	2.329466	0.508646	0.665015
H121	H	1.632074	0.376306	0.247232
H122	H	2.132074	0.876306	0.747232
H123	H	2.012179	0.187010	0.247191
H124	H	2.512179	0.687010	0.747191
H125	H	1.527387	0.428474	0.595315
H126	H	2.027387	0.928474	1.095315
Cl127	Cl	1.585765	0.399413	0.776097
Cl128	Cl	2.085765	0.899413	1.276097
H129	H	1.527362	0.428480	0.404765
H130	H	2.027362	0.928480	0.904765
H131	H	2.012251	0.187021	0.752792
H132	H	2.512251	0.687021	1.252792
