data_functionalizedCrystal
_audit_creation_method	'MofGen! by Chris Wilmer'
_symmetry_space_group_name_H-M	'P1'
_symmetry_Int_Tables_number	1
_symmetry_cell_setting	triclinic
loop_
_symmetry_equiv_pos_as_xyz
  x,y,z
_cell_length_a	23.532407
_cell_length_b	23.532407
_cell_length_c	22.610064
_cell_angle_alpha	90.000603
_cell_angle_beta	89.997161
_cell_angle_gamma	97.151322
loop_
_atom_site_label
_atom_site_type_symbol
_atom_site_fract_x
_atom_site_fract_y
_atom_site_fract_z
O1	O	0.755263	-0.069127	-0.049117
O2	O	0.589400	-0.079130	-0.049135
O3	O	0.677333	0.008803	-0.049114
O4	O	0.667330	-0.157060	-0.049137
O5	O	0.677318	0.008790	0.049255
O6	O	0.589385	-0.079143	0.049234
O7	O	0.755248	-0.069140	0.049252
Zn8	Zn	0.672314	-0.074144	0.064862
Zn9	Zn	0.672334	-0.074127	-0.064744
O10	O	0.667315	-0.157073	0.049232
C11	C	0.568176	-0.078882	0.000048
C12	C	0.504959	-0.078116	0.000041
C13	C	0.105856	-0.125350	0.000061
C14	C	0.046456	-0.124638	0.000065
O15	O	0.009711	-0.168424	0.000081
N16	N	0.023830	-0.072362	0.000071
C17	C	0.060607	-0.020794	0.000080
O18	O	0.035908	0.023737	0.000086
C19	C	0.120006	-0.021506	0.000080
C20	C	0.142629	-0.073785	0.000068
C21	C	0.128479	-0.177625	0.000050
C22	C	0.187876	-0.178336	0.000045
C23	C	0.224649	-0.126772	0.000052
C24	C	0.202025	-0.074497	0.000063
C25	C	0.156783	0.030062	0.000093
C26	C	0.216185	0.029345	0.000094
C27	C	0.238808	-0.022934	0.000082
C28	C	0.298194	-0.023643	0.000065
N29	N	0.320820	-0.075920	0.000059
C30	C	0.284048	-0.127484	0.000052
C31	C	-0.064135	-0.019302	0.000080
C32	C	-0.123533	-0.018589	0.000075
C33	C	-0.137680	-0.122434	0.000061
C34	C	-0.078281	-0.123146	0.000062
C35	C	-0.041509	-0.071578	0.000074
C36	C	0.408784	-0.128974	0.000042
C37	C	0.468186	-0.129680	0.000034
C38	C	0.482329	-0.025836	0.000051
C39	C	0.422932	-0.025129	0.000055
C40	C	0.386160	-0.076702	0.000052
O41	O	0.334974	0.020119	0.000052
O42	O	0.308755	-0.172007	0.000054
C43	C	0.677071	0.030013	0.000072
C44	C	0.676305	0.093230	0.000076
C45	C	0.776472	-0.069388	0.000069
C46	C	0.839689	-0.070154	0.000071
C47	C	0.667577	-0.178283	0.000045
C48	C	0.668343	-0.241500	0.000036
N49	N	0.672304	-0.074155	0.153314
C50	C	0.723539	0.492333	0.000049
C51	C	0.722827	0.551733	0.000044
O52	O	0.766613	0.588478	0.000027
N53	N	0.670551	0.574359	0.000039
C54	C	0.618983	0.537582	0.000032
O55	O	0.574452	0.562281	0.000027
C56	C	0.619695	0.478182	0.000033
C57	C	0.671974	0.455560	0.000044
C58	C	0.775814	0.469710	0.000060
C59	C	0.776525	0.410313	0.000065
C60	C	0.724961	0.373540	0.000060
C61	C	0.672685	0.396164	0.000050
C62	C	0.568127	0.441406	0.000022
C63	C	0.568844	0.382004	0.000021
C64	C	0.621123	0.359381	0.000033
C65	C	0.621832	0.299995	0.000050
N66	N	0.674109	0.277368	0.000056
C67	C	0.725673	0.314141	0.000061
C68	C	0.617491	0.662324	0.000031
C69	C	0.616778	0.721722	0.000034
C70	C	0.720623	0.735869	0.000045
C71	C	0.721335	0.676470	0.000046
C72	C	0.669767	0.639698	0.000036
C73	C	0.727163	0.189405	0.000073
C74	C	0.727869	0.130003	0.000081
C75	C	0.624025	0.115860	0.000067
C76	C	0.623318	0.175257	0.000062
C77	C	0.674891	0.212029	0.000063
O78	O	0.578070	0.263215	0.000065
O79	O	0.770196	0.289433	0.000058
N80	N	0.672349	-0.074111	-0.153196
C81	C	0.711273	-0.035196	0.561965
C82	C	0.711276	-0.035192	0.623884
O83	O	0.744384	-0.002076	0.655911
N84	N	0.672334	-0.074115	0.654851
C85	C	0.633383	-0.113041	0.623895
O86	O	0.600259	-0.146147	0.655920
C87	C	0.633377	-0.113042	0.561976
C88	C	0.672326	-0.074120	0.531013
C89	C	0.750218	0.003724	0.531001
C90	C	0.750215	0.003719	0.469085
C91	C	0.711268	-0.035206	0.438133
C92	C	0.672323	-0.074125	0.469097
C93	C	0.594424	-0.151965	0.531021
C94	C	0.594422	-0.151962	0.469098
C95	C	0.633370	-0.113040	0.438134
C96	C	0.633374	-0.113054	0.376229
N97	N	0.672316	-0.074131	0.345262
C98	C	0.711263	-0.035207	0.376214
C99	C	0.633396	-0.113035	0.753928
C100	C	0.633403	-0.113037	0.815846
C101	C	0.711296	-0.035187	0.815831
C102	C	0.711291	-0.035188	0.753913
C103	C	0.672338	-0.074112	0.722962
C104	C	0.711255	-0.035220	0.246187
C105	C	0.711251	-0.035230	0.184266
C106	C	0.633357	-0.113078	0.184286
C107	C	0.633363	-0.113071	0.246202
C108	C	0.672314	-0.074137	0.277151
O109	O	0.600281	-0.146152	0.344163
O110	O	0.744376	-0.002101	0.344182
H111	H	-0.059867	-0.165717	0.000055
C112	C	0.364344	0.035910	0.050637
C113	C	0.398061	0.032337	0.000064
H114	H	0.348992	0.071387	0.050644
H115	H	0.387226	0.033470	0.084930
H116	H	0.333941	0.005301	0.050630
H117	H	0.428467	0.062944	0.000073
H118	H	0.375178	0.034783	-0.034237
H119	H	0.781929	0.035414	0.443878
C120	C	0.620588	-0.190620	0.684305
C121	C	0.590583	-0.155832	0.719909
H122	H	0.594157	-0.217037	0.663303
H123	H	0.644177	-0.210978	0.708458
H124	H	0.643774	-0.167435	0.656999
H125	H	0.567400	-0.179017	0.747218
H126	H	0.566984	-0.135472	0.695753
C127	C	0.516843	-0.164711	0.600648
C128	C	0.551606	-0.194746	0.565045
H129	H	0.490409	-0.191124	0.621653
H130	H	0.496503	-0.141107	0.576492
H131	H	0.540043	-0.141538	0.627950
H132	H	0.528406	-0.217916	0.537740
H133	H	0.571948	-0.218360	0.589203
H134	H	0.601648	-0.144772	0.159075
H135	H	0.781933	0.035423	0.556197
C136	C	0.579669	0.019171	0.000063
C137	C	0.522757	0.030842	0.000063
H138	H	0.604628	0.054162	0.000078
H139	H	0.586494	-0.002267	-0.034245
H140	H	0.586484	-0.002291	0.034362
H141	H	0.515941	0.052300	-0.034239
H142	H	0.515929	0.052289	0.034375
H143	H	0.575496	0.632386	0.000028
H144	H	-0.141947	0.023982	0.000076
H145	H	0.743005	-0.003494	0.728706
C146	C	0.246532	0.117647	-0.050461
C147	C	0.256607	0.086031	0.000101
H148	H	0.271489	0.152640	-0.050459
H149	H	0.207923	0.125549	-0.050452
H150	H	0.253363	0.096196	-0.084765
H151	H	0.249772	0.107481	0.034405
H152	H	0.295226	0.078130	0.000097
C153	C	0.782391	0.617885	-0.050516
C154	C	0.778801	0.651604	0.000052
H155	H	0.817868	0.602533	-0.050510
H156	H	0.779960	0.640765	-0.084812
H157	H	0.751782	0.587481	-0.050514
H158	H	0.809407	0.682010	0.000048
H159	H	0.781237	0.628723	0.034357
H160	H	0.486602	-0.172255	0.000024
C161	C	0.053485	-0.237066	-0.050533
C162	C	0.088064	-0.234311	0.000038
H163	H	0.028535	-0.272063	-0.050541
H164	H	0.076957	-0.235174	-0.084827
H165	H	0.031504	-0.205834	-0.050520
H166	H	0.110047	-0.265541	0.000022
H167	H	0.064589	-0.236209	0.034341
H168	H	0.817806	0.499645	0.000061
C169	C	0.517426	-0.228913	0.475337
C170	C	0.551605	-0.194753	0.435078
H171	H	0.490997	-0.255332	0.454334
H172	H	0.497080	-0.205306	0.499485
H173	H	0.541022	-0.249274	0.499488
H174	H	0.528009	-0.174388	0.410929
H175	H	0.571953	-0.218363	0.410919
H176	H	0.770443	0.111587	0.000092
H177	H	-0.167632	-0.164421	0.000059
C178	C	-0.056127	0.083416	0.000081
C179	C	-0.023717	0.037387	0.000080
H180	H	-0.031175	0.118412	0.000078
H181	H	-0.079588	0.081530	0.034384
H182	H	-0.079591	0.081527	-0.034223
H183	H	-0.000256	0.039273	0.034387
H184	H	-0.000246	0.039274	-0.034226
C185	C	0.556363	-0.190016	0.239994
C186	C	0.590549	-0.155851	0.280241
H187	H	0.529925	-0.216420	0.261006
H188	H	0.579949	-0.210390	0.215850
H189	H	0.536022	-0.166406	0.215836
H190	H	0.610893	-0.179461	0.304396
H191	H	0.566959	-0.135476	0.304394
H192	H	0.526850	0.352066	0.000013
H193	H	0.138375	0.072634	0.000103
C194	C	0.829881	0.197406	0.000093
C195	C	0.783853	0.229818	0.000079
H196	H	0.864878	0.222356	0.000103
H197	H	0.828003	0.173945	-0.034208
H198	H	0.827982	0.173943	0.034399
H199	H	0.785750	0.253278	-0.034230
H200	H	0.785731	0.253289	0.034383
C201	C	0.723958	0.042409	0.114725
C202	C	0.754025	0.007633	0.150275
H203	H	0.750353	0.068890	0.093753
H204	H	0.700331	0.062695	0.138912
H205	H	0.700806	0.019225	0.087393
H206	H	0.777174	0.030816	0.177610
H207	H	0.777662	-0.012655	0.126086
C208	C	0.400783	-0.231692	0.000016
C209	C	0.368371	-0.185664	0.000031
H210	H	0.375833	-0.266689	0.000003
H211	H	0.424241	-0.229815	0.034318
H212	H	0.424250	-0.229792	-0.034289
H213	H	0.344908	-0.187561	0.034339
H214	H	0.344903	-0.187542	-0.034274
C215	C	0.167907	-0.280907	0.000042
C216	C	0.212737	-0.235804	0.000042
H217	H	0.183254	-0.316387	0.000046
H218	H	0.145039	-0.278465	-0.034260
H219	H	0.145031	-0.278461	0.034347
H220	H	0.235611	-0.238247	-0.034265
H221	H	0.235615	-0.238247	0.034348
H222	H	0.819097	0.391900	0.000072
H223	H	0.574207	0.740136	0.000035
C224	C	0.780068	0.810875	-0.050531
C225	C	0.777307	0.776296	0.000042
H226	H	0.815062	0.835830	-0.050534
H227	H	0.748834	0.832845	-0.050529
H228	H	0.778191	0.787398	-0.084827
H229	H	0.779180	0.799773	0.034339
H230	H	0.808549	0.754324	0.000045
C231	C	0.521306	0.107828	0.000047
C232	C	0.567347	0.075433	0.000058
H233	H	0.486316	0.082867	0.000041
H234	H	0.523195	0.131290	-0.034254
H235	H	0.523179	0.131291	0.034353
H236	H	0.565476	0.051973	-0.034251
H237	H	0.565456	0.051961	0.034362
H238	H	0.525555	0.459814	0.000009
H239	H	0.580748	0.193677	0.000069
H240	H	0.601694	-0.144737	0.841052
C241	C	0.788251	0.041729	0.239936
C242	C	0.754072	0.007575	0.280200
H243	H	0.814686	0.068145	0.260935
H244	H	0.764659	0.062090	0.215788
H245	H	0.808594	0.018114	0.215785
H246	H	0.733725	0.031190	0.304349
H247	H	0.777667	-0.012787	0.304358
C248	C	0.724092	0.042390	0.885461
C249	C	0.754104	0.007606	0.849860
H250	H	0.750520	0.068809	0.906467
H251	H	0.700904	0.019207	0.912758
H252	H	0.700505	0.062753	0.861300
H253	H	0.777689	-0.012760	0.874022
H254	H	0.777302	0.030792	0.822560
