data_functionalizedCrystal
_audit_creation_method	'MofGen! by Chris Wilmer'
_symmetry_space_group_name_H-M	'P1'
_symmetry_Int_Tables_number	1
_symmetry_cell_setting	triclinic
loop_
_symmetry_equiv_pos_as_xyz
  x,y,z
_cell_length_a	17.077404
_cell_length_b	21.295411
_cell_length_c	17.077402
_cell_angle_alpha	89.981763
_cell_angle_beta	90.020853
_cell_angle_gamma	89.976695
loop_
_atom_site_label
_atom_site_type_symbol
_atom_site_fract_x
_atom_site_fract_y
_atom_site_fract_z
Zn1	Zn	1.200093	-0.355905	-0.312640
Zn2	Zn	1.199989	-0.250637	-0.443888
Zn3	Zn	1.068813	-0.250653	-0.312636
Zn4	Zn	1.068793	-0.355871	-0.443863
O5	O	1.134422	-0.303266	-0.378257
O6	O	1.309926	-0.341949	-0.330063
O7	O	1.182553	-0.162550	-0.426486
O8	O	1.086280	-0.264635	-0.202790
O9	O	1.309849	-0.264609	-0.426490
O10	O	1.182731	-0.341964	-0.202793
O11	O	1.086179	-0.162561	-0.330056
O12	O	0.958964	-0.264602	-0.330031
O13	O	1.086245	-0.443965	-0.426447
O14	O	0.958949	-0.341906	-0.426443
O15	O	1.182711	-0.443990	-0.330038
O16	O	1.182533	-0.264575	-0.553732
O17	O	1.086144	-0.341890	-0.553713
C18	C	0.930474	-0.303252	-0.378235
C19	C	0.843224	-0.303261	-0.378244
C20	C	0.802275	-0.343594	-0.328124
C21	C	0.720294	-0.343597	-0.328129
C22	C	0.679265	-0.303270	-0.378259
C23	C	0.720220	-0.262933	-0.428382
C24	C	0.802199	-0.262927	-0.428372
C25	C	0.549350	-0.262948	-0.428399
C26	C	0.467365	-0.262955	-0.428410
C27	C	0.467445	-0.343618	-0.328156
C28	C	0.549424	-0.343612	-0.328146
C29	C	0.590374	-0.303276	-0.378270
C30	C	1.134487	-0.467457	-0.378240
C31	C	1.134515	-0.537425	-0.378233
C32	C	1.184742	-0.570306	-0.328031
C33	C	1.184741	-0.636048	-0.327997
C34	C	1.134521	-0.668907	-0.378179
C35	C	1.084284	-0.636019	-0.428385
C36	C	1.084281	-0.570277	-0.428412
N37	N	1.128474	-0.772126	-0.446848
N38	N	1.128481	-0.834578	-0.446820
C39	C	1.134526	-0.866982	-0.378100
N40	N	1.140578	-0.834576	-0.309406
N41	N	1.140575	-0.772119	-0.309435
C42	C	1.134518	-0.740193	-0.378155
C43	C	1.184755	-0.971149	-0.327856
C44	C	1.184748	-1.036892	-0.327821
C45	C	1.084295	-1.036862	-0.428216
C46	C	1.084297	-0.971119	-0.428244
C47	C	1.134531	-0.938267	-0.378066
C48	C	1.339166	-0.303281	-0.378280
C49	C	1.426416	-0.303287	-0.378290
C50	C	1.134346	-0.303241	-0.582205
C51	C	1.134386	-0.303252	-0.669455
C52	C	1.134402	-0.139715	-0.378217
C53	C	1.134527	-0.069747	-0.378003
C54	C	1.184627	-0.263037	-0.710428
C55	C	1.184665	-0.263053	-0.792409
C56	C	1.134458	-0.303281	-0.833414
C57	C	1.084214	-0.343500	-0.792434
C58	C	1.084181	-0.343487	-0.710456
C59	C	1.084287	-0.343524	-0.963304
C60	C	1.084320	-0.343537	-1.045289
C61	C	1.184772	-0.263090	-1.045258
C62	C	1.184738	-0.263077	-0.963279
C63	C	1.134493	-0.303295	-0.922305
C64	C	1.134519	-0.303305	-0.173513
C65	C	1.134561	-0.303322	-0.086263
H66	H	0.434100	-0.376460	-0.287342
H67	H	1.043396	-1.063615	-0.469068
H68	H	0.835675	-0.376434	-0.287304
O69	O	0.589096	-0.223836	-0.477204
C70	C	0.569037	-0.237476	-0.555465
H71	H	0.546527	-0.287760	-0.559517
H72	H	0.521428	-0.203700	-0.575931
C73	C	0.669491	-0.168318	-0.602854
C74	C	0.641851	-0.230080	-0.607833
H75	H	0.714404	-0.163753	-0.635159
H76	H	0.683004	-0.159126	-0.550129
H77	H	0.629811	-0.140179	-0.619908
H78	H	0.681527	-0.258218	-0.590770
H79	H	0.628346	-0.239277	-0.660557
H80	H	1.043376	-0.543506	-0.469292
O81	O	0.842014	-0.223683	-0.476950
C82	C	0.889434	-0.183096	-0.432179
H83	H	0.864742	-0.179299	-0.370350
H84	H	0.951577	-0.202558	-0.429504
C85	C	0.920969	-0.122265	-0.546346
C86	C	0.890638	-0.117597	-0.470409
H87	H	0.921716	-0.081862	-0.569930
H88	H	0.889024	-0.149610	-0.576510
H89	H	0.972753	-0.138485	-0.544107
H90	H	0.838852	-0.101384	-0.472651
H91	H	0.922574	-0.090247	-0.440246
O92	O	0.680554	-0.382868	-0.279526
C93	C	0.700636	-0.445579	-0.296788
H94	H	0.723153	-0.448663	-0.359503
H95	H	0.748247	-0.462092	-0.254733
C96	C	0.600188	-0.483825	-0.210706
C97	C	0.627836	-0.487612	-0.287737
H98	H	0.555283	-0.509754	-0.205120
H99	H	0.586659	-0.441575	-0.199074
H100	H	0.639870	-0.497584	-0.175670
H101	H	0.588158	-0.473846	-0.322771
H102	H	0.641356	-0.529861	-0.299375
O103	O	1.233631	-0.939205	-0.279223
C104	C	1.284298	-0.901187	-0.323937
H105	H	1.289114	-0.921002	-0.385754
H106	H	1.260031	-0.851353	-0.326660
C107	C	1.360006	-0.875869	-0.209676
C108	C	1.365926	-0.900210	-0.285598
H109	H	1.410357	-0.875263	-0.186026
H110	H	1.325869	-0.901481	-0.179550
H111	H	1.339780	-0.834343	-0.211956
H112	H	1.386142	-0.941737	-0.283317
H113	H	1.400068	-0.874605	-0.315723
H114	H	0.582828	-0.376454	-0.287331
H115	H	1.043401	-0.944347	-0.469130
O116	O	1.233558	-0.538491	-0.279209
C117	C	1.277903	-0.581616	-0.234905
H118	H	1.245755	-0.628469	-0.232166
H119	H	1.337507	-0.588624	-0.263655
C120	C	1.328742	-0.498418	-0.154734
C121	C	1.289253	-0.555963	-0.151365
H122	H	1.335747	-0.482594	-0.103203
H123	H	1.298868	-0.469364	-0.184584
H124	H	1.378407	-0.504266	-0.178696
H125	H	1.239586	-0.550113	-0.127412
H126	H	1.319120	-0.585016	-0.121509
O127	O	1.233616	-1.068738	-0.279026
C128	C	1.277936	-1.025640	-0.234733
H129	H	1.280636	-0.978780	-0.266907
H130	H	1.249225	-1.018637	-0.175113
C131	C	1.358171	-1.108880	-0.183908
C132	C	1.361493	-1.051326	-0.223428
H133	H	1.409712	-1.124724	-0.176931
H134	H	1.328310	-1.137916	-0.213746
H135	H	1.334242	-1.103035	-0.134229
H136	H	1.385413	-1.057173	-0.273110
H137	H	1.391360	-1.022291	-0.193598
O138	O	1.233426	-0.668027	-0.279149
C139	C	1.188770	-0.706056	-0.228440
H140	H	1.126948	-0.686226	-0.223579
H141	H	1.186051	-0.755877	-0.252696
C142	C	1.303103	-0.731441	-0.152818
C143	C	1.227174	-0.707082	-0.146842
H144	H	1.326794	-0.732077	-0.102485
H145	H	1.333190	-0.705822	-0.186983
H146	H	1.300827	-0.772957	-0.173035
H147	H	1.229452	-0.665565	-0.126635
H148	H	1.197089	-0.732694	-0.112671
O149	O	0.427470	-0.223868	-0.477182
C150	C	0.380044	-0.259634	-0.527943
H151	H	0.404784	-0.309201	-0.532893
H152	H	0.317924	-0.261850	-0.503677
C153	C	0.348345	-0.167872	-0.603402
C154	C	0.378736	-0.228750	-0.609487
H155	H	0.347535	-0.148821	-0.653702
H156	H	0.380294	-0.143775	-0.569202
H157	H	0.296581	-0.169727	-0.583177
H158	H	0.430502	-0.226893	-0.629702
H159	H	0.346795	-0.252846	-0.643693
O160	O	1.035334	-0.382549	-0.832177
C161	C	0.957098	-0.368723	-0.812227
H162	H	0.955462	-0.344513	-0.752722
H163	H	0.930696	-0.336349	-0.858407
C164	C	0.911522	-0.459792	-0.881519
C165	C	0.909512	-0.430062	-0.808431
H166	H	0.882167	-0.497628	-0.879181
H167	H	0.964230	-0.469106	-0.894963
H168	H	0.889521	-0.432807	-0.919995
H169	H	0.931522	-0.457043	-0.769959
H170	H	0.856806	-0.420754	-0.794981
H171	H	1.225508	-0.230276	-0.677047
O172	O	1.035614	-0.667963	-0.477219
C173	C	1.080283	-0.706013	-0.527897
H174	H	1.142103	-0.686218	-0.532760
H175	H	1.083003	-0.755838	-0.503609
C176	C	0.965966	-0.731323	-0.603523
C177	C	1.041893	-0.707007	-0.609501
H178	H	0.942284	-0.731939	-0.653859
H179	H	0.935870	-0.705690	-0.569378
H180	H	0.968243	-0.772842	-0.583280
H181	H	1.039615	-0.665487	-0.629734
H182	H	1.071987	-0.732634	-0.643650
H183	H	1.225576	-0.230306	-0.825766
O184	O	1.233582	-0.223980	-0.923566
C185	C	1.277924	-0.188475	-0.977308
H186	H	1.280653	-0.214267	-1.035728
H187	H	1.249213	-0.140646	-0.986077
C188	C	1.358108	-0.147782	-0.873495
C189	C	1.361465	-0.179462	-0.945247
H190	H	1.409639	-0.142220	-0.853718
H191	H	1.328232	-0.171700	-0.837288
H192	H	1.334178	-0.107928	-0.880813
H193	H	1.385385	-0.219318	-0.937927
H194	H	1.391347	-0.155550	-0.981453
O195	O	1.035532	-0.382679	-1.085002
C196	C	0.991171	-0.418169	-1.031260
H197	H	1.023294	-0.420359	-0.972794
H198	H	0.931558	-0.395083	-1.022607
C199	C	0.940396	-0.482474	-1.135034
C200	C	0.979853	-0.485168	-1.063227
H201	H	0.933411	-0.523801	-1.154753
H202	H	0.970280	-0.458562	-1.171242
H203	H	0.890722	-0.463233	-1.127813
H204	H	1.029529	-0.504401	-1.070451
H205	H	0.949976	-0.509084	-1.027021
O206	O	1.035488	-0.382617	-0.670614
C207	C	1.080139	-0.423287	-0.623120
H208	H	1.141970	-0.427222	-0.647779
H209	H	1.082832	-0.403815	-0.561001
C210	C	0.965811	-0.483867	-0.591560
C211	C	1.041751	-0.488704	-0.621849
H212	H	0.942130	-0.524219	-0.590772
H213	H	0.935728	-0.456466	-0.623554
H214	H	0.968065	-0.467638	-0.539796
H215	H	1.039495	-0.504926	-0.673615
H216	H	1.071833	-0.516110	-0.589863
H217	H	0.686807	-0.230095	-0.469195
H218	H	1.225685	-0.230345	-1.078623
H219	H	1.043375	-0.376276	-0.929946
