data_functionalizedCrystal
_audit_creation_method	'MofGen! by Chris Wilmer'
_symmetry_space_group_name_H-M	'P1'
_symmetry_Int_Tables_number	1
_symmetry_cell_setting	triclinic
loop_
_symmetry_equiv_pos_as_xyz
  x,y,z
_cell_length_a	19.805407
_cell_length_b	16.120484
_cell_length_c	19.805399
_cell_angle_alpha	87.128957
_cell_angle_beta	90.019573
_cell_angle_gamma	92.925608
loop_
_atom_site_label
_atom_site_type_symbol
_atom_site_fract_x
_atom_site_fract_y
_atom_site_fract_z
Zn1	Zn	1.021075	-0.331927	0.396377
Zn2	Zn	1.521075	0.168073	0.896377
Zn3	Zn	1.015252	-0.471346	0.288925
Zn4	Zn	1.515252	0.028654	0.788925
Zn5	Zn	0.907889	-0.331950	0.283203
Zn6	Zn	1.407889	0.168050	0.783203
Zn7	Zn	0.902117	-0.471302	0.402070
Zn8	Zn	1.402117	0.028698	0.902070
O9	O	0.961584	-0.401631	0.342644
O10	O	1.461584	0.098369	0.842644
O11	O	1.115019	-0.350431	0.382136
O12	O	1.615019	0.149569	0.882136
O13	O	1.000989	-0.452883	0.193451
O14	O	1.500989	0.047117	0.693451
O15	O	0.927756	-0.215281	0.293438
O16	O	1.427756	0.284719	0.793438
O17	O	1.110741	-0.452861	0.303191
O18	O	1.610741	0.047139	0.803191
O19	O	1.010913	-0.215264	0.376587
O20	O	1.510913	0.284736	0.876587
O21	O	0.922109	-0.350470	0.189246
O22	O	1.422109	0.149530	0.689246
O23	O	0.812407	-0.350427	0.298958
O24	O	1.312407	0.149573	0.798958
O25	O	0.917919	-0.452785	0.496030
O26	O	1.417919	0.047215	0.996030
O27	O	0.808167	-0.452807	0.386290
O28	O	1.308167	0.047193	0.886290
O29	O	1.005317	-0.350388	0.491848
O30	O	1.505317	0.149612	0.991848
O31	O	0.995392	-0.588006	0.308712
O32	O	1.495392	-0.088006	0.808712
O33	O	0.912273	-0.587974	0.391839
O34	O	1.412273	-0.087974	0.891839
C35	C	0.785728	-0.401615	0.342621
C36	C	1.285728	0.098385	0.842621
C37	C	0.710496	-0.401629	0.342628
C38	C	1.210496	0.098371	0.842628
C39	C	0.952593	-0.618240	0.351529
C40	C	1.452593	-0.118240	0.851529
C41	C	0.948809	-0.710906	0.355353
C42	C	1.448809	-0.210906	0.855353
C43	C	0.672958	-0.455019	0.388035
C44	C	1.172958	0.044981	0.888035
C45	C	0.602269	-0.455020	0.388045
C46	C	1.102269	0.044980	0.888045
C47	C	0.569120	-0.401635	0.342644
C48	C	1.069120	0.098365	0.842644
C49	C	0.606663	-0.348239	0.297235
C50	C	1.106663	0.151761	0.797235
C51	C	0.677350	-0.348234	0.297229
C52	C	1.177350	0.151766	0.797229
C53	C	0.321589	-0.348258	0.297258
C54	C	0.821589	0.151742	0.797258
C55	C	0.250896	-0.348269	0.297266
C56	C	0.750896	0.151731	0.797266
C57	C	0.246508	-0.455043	0.388074
C58	C	0.746508	0.044957	0.888074
C59	C	0.317195	-0.455038	0.388068
C60	C	0.817195	0.044962	0.888068
C61	C	0.354732	-0.401640	0.342662
C62	C	0.854732	0.098360	0.842662
C63	C	0.431381	-0.401638	0.342653
C64	C	0.931381	0.098362	0.842653
C65	C	0.492472	-0.401641	0.342649
C66	C	0.992472	0.098359	0.842649
C67	C	0.941903	-0.880568	0.362347
C68	C	1.441903	-0.380568	0.862347
C69	C	0.981385	-0.921854	0.322951
C70	C	1.481385	-0.421854	0.822951
C71	C	0.977543	-1.016260	0.326843
C72	C	1.477543	-0.516260	0.826843
C73	C	0.945745	-0.786154	0.358456
C74	C	1.445745	-0.286154	0.858456
C75	C	1.138126	-0.401648	0.342667
C76	C	1.638126	0.098352	0.842667
C77	C	1.213357	-0.401655	0.342677
C78	C	1.713357	0.098345	0.842677
C79	C	0.961624	-0.401579	0.519184
C80	C	1.461624	0.098421	1.019184
C81	C	0.961641	-0.401556	0.594416
C82	C	1.461641	0.098444	1.094416
C83	C	0.970628	-0.184177	0.333739
C84	C	1.470628	0.315823	0.833739
C85	C	0.974482	-0.091511	0.329944
C86	C	1.474482	0.408489	0.829944
C87	C	0.961585	-0.401623	0.166787
C88	C	1.461585	0.098377	0.666787
C89	C	0.961709	-0.401411	0.091547
C90	C	1.461709	0.098589	0.591547
C91	C	1.007150	-0.348235	0.627583
C92	C	1.507150	0.151765	1.127583
C93	C	1.007158	-0.348211	0.698270
C94	C	1.507158	0.151789	1.198270
C95	C	0.961659	-0.401513	0.735789
C96	C	1.461659	0.098487	1.235789
C97	C	0.916145	-0.454836	0.702617
C98	C	1.416145	0.045164	1.202617
C99	C	0.916135	-0.454856	0.631931
C100	C	1.416135	0.045144	1.131931
C101	C	0.916187	-0.454759	0.987688
C102	C	1.416187	0.045241	1.487688
C103	C	0.916202	-0.454737	1.058379
C104	C	1.416202	0.045263	1.558379
C105	C	1.007210	-0.348114	1.054027
C106	C	1.507210	0.151886	1.554027
C107	C	1.007199	-0.348133	0.983340
C108	C	1.507199	0.151867	1.483340
C109	C	0.961683	-0.401453	0.950174
C110	C	1.461683	0.098547	1.450174
C111	C	0.961674	-0.401478	0.873527
C112	C	1.461674	0.098522	1.373527
C113	C	0.961671	-0.401493	0.812436
C114	C	1.461671	0.098507	1.312436
H115	H	0.571709	-0.498496	0.425019
H116	H	1.071709	0.001504	0.925019
N117	N	0.893300	-0.927653	0.410887
N118	N	1.393300	-0.427653	0.910887
H119	H	0.904380	-0.912506	0.458648
H120	H	1.404380	-0.412506	0.958648
H121	H	0.897431	-0.989380	0.406758
H122	H	1.397431	-0.489380	0.906758
N123	N	1.056291	-0.290588	1.089800
N124	N	1.556291	0.209412	1.589800
H125	H	1.085113	-0.256827	1.055305
H126	H	1.585113	0.243173	1.555305
H127	H	1.086208	-0.324514	1.120528
H128	H	1.586208	0.175486	1.620528
H129	H	0.223908	-0.304791	0.260295
H130	H	0.723908	0.195209	0.760295
H131	H	1.018071	-0.886299	0.286299
H132	H	1.518071	-0.386299	0.786299
H133	H	1.044202	-0.304833	0.597039
H134	H	1.544202	0.195167	1.097039
H135	H	1.044217	-0.304794	0.725272
H136	H	1.544217	0.195206	1.225272
H137	H	0.344182	-0.498513	0.425036
H138	H	0.844182	0.001487	0.925036
N139	N	1.056275	-0.290649	0.942873
N140	N	1.556275	0.209351	1.442873
H141	H	1.085107	-0.256864	0.974611
H142	H	1.585107	0.243136	1.474611
H143	H	1.030323	-0.252073	0.911960
H144	H	1.530323	0.247927	1.411960
N145	N	0.867127	-0.512229	1.098849
N146	N	1.367127	-0.012229	1.598849
H147	H	0.838289	-0.546009	1.067113
H148	H	1.338289	-0.046009	1.567113
H149	H	0.837225	-0.478277	1.126783
H150	H	1.337225	0.021723	1.626783
N151	N	0.867068	-0.512332	0.743072
N152	N	1.367068	-0.012332	1.243072
H153	H	0.819246	-0.499377	0.730227
H154	H	1.319246	0.000623	1.230227
H155	H	0.874032	-0.504213	0.792874
H156	H	1.374032	-0.004213	1.292874
N157	N	0.867076	-0.512238	0.951919
N158	N	1.367076	-0.012238	1.451919
H159	H	0.838251	-0.545992	0.986415
H160	H	1.338251	-0.045992	1.486415
H161	H	0.892992	-0.550842	0.924162
H162	H	1.392992	-0.050842	1.424162
H163	H	0.707913	-0.304754	0.260258
H164	H	1.207913	0.195246	0.760258
N165	N	0.867044	-0.512358	0.596154
N166	N	1.367044	-0.012358	1.096154
H167	H	0.838222	-0.546121	0.630647
H168	H	1.338222	-0.046121	1.130647
H169	H	0.892980	-0.550953	0.568407
H170	H	1.392980	-0.050953	1.068407
H171	H	0.215937	-0.498520	0.425048
H172	H	0.715937	0.001480	0.925048
N173	N	0.708706	-0.512605	0.437002
N174	N	1.208706	-0.012605	0.937002
H175	H	0.696960	-0.499736	0.484853
H176	H	1.196960	0.000264	0.984853
H177	H	0.759171	-0.504479	0.430050
H178	H	1.259171	-0.004479	0.930050
N179	N	0.362058	-0.290653	0.248288
N180	N	0.862058	0.209347	0.748288
H181	H	0.349202	-0.303518	0.200438
H182	H	0.849202	0.196482	0.700438
H183	H	0.411858	-0.298758	0.255226
H184	H	0.911858	0.201242	0.755226
N185	N	0.570912	-0.290674	0.248254
N186	N	1.070912	0.209326	0.748254
H187	H	0.520435	-0.298786	0.255140
H188	H	1.020435	0.201214	0.755140
H189	H	0.582722	-0.303591	0.200432
H190	H	1.082722	0.196409	0.700432
