data_functionalizedCrystal
_audit_creation_method	'MofGen! by Chris Wilmer'
_symmetry_space_group_name_H-M	'P1'
_symmetry_Int_Tables_number	1
_symmetry_cell_setting	triclinic
loop_
_symmetry_equiv_pos_as_xyz
  x,y,z
_cell_length_a	27.731994
_cell_length_b	27.732048
_cell_length_c	9.730217
_cell_angle_alpha	89.991832
_cell_angle_beta	90.004689
_cell_angle_gamma	82.631595
loop_
_atom_site_label
_atom_site_type_symbol
_atom_site_fract_x
_atom_site_fract_y
_atom_site_fract_z
O1	O	0.640942	0.057391	-0.114109
O2	O	0.500145	0.066164	-0.114156
O3	O	0.574917	-0.008620	-0.114105
O4	O	0.566171	0.132175	-0.114160
O5	O	0.574914	-0.008620	0.114475
O6	O	0.500143	0.066164	0.114424
O7	O	0.640940	0.057391	0.114471
Zn8	Zn	0.570541	0.061777	0.150740
Zn9	Zn	0.570544	0.061778	-0.150425
O10	O	0.566169	0.132175	0.114420
C11	C	0.482137	0.065984	0.000128
C12	C	0.428480	0.065442	0.000111
C13	C	0.095761	0.062025	0.124764
C14	C	-0.105898	0.059964	0.124781
O15	O	-0.131971	0.059676	0.230747
N16	N	-0.131111	0.059708	0.000182
C17	C	-0.105907	0.059965	-0.124430
O18	O	-0.131979	0.059695	-0.230409
C19	C	0.095751	0.062023	-0.124445
C20	C	0.120961	0.062283	0.000162
C21	C	0.120971	0.062286	0.249361
C22	C	0.171382	0.062804	0.249356
C23	C	0.196583	0.063062	0.124753
C24	C	0.171372	0.062801	0.000157
C25	C	0.120955	0.062276	-0.249055
C26	C	0.171373	0.062789	-0.249048
C27	C	0.196583	0.063050	-0.124441
C28	C	0.246984	0.063578	-0.124451
N29	N	0.272198	0.063833	0.000148
C30	C	0.246997	0.063575	0.124750
C31	C	-0.211780	0.058885	-0.124413
C32	C	-0.262194	0.058371	-0.124410
C33	C	-0.262182	0.058370	0.124801
C34	C	-0.211767	0.058887	0.124796
C35	C	-0.186566	0.059141	0.000185
C36	C	0.352864	0.064664	0.124729
C37	C	0.403279	0.065184	0.124713
C38	C	0.403263	0.065183	-0.124497
C39	C	0.352851	0.064665	-0.124482
C40	C	0.327654	0.064404	0.000143
O41	O	0.273090	0.063860	-0.230362
O42	O	0.273080	0.063834	0.230713
C43	C	0.045349	0.061507	0.124770
C44	C	0.020139	0.061247	0.000173
C45	C	0.045340	0.061505	-0.124429
C46	C	-0.030275	0.060734	0.000176
C47	C	-0.055476	0.060476	0.124778
C48	C	-0.030262	0.060731	0.249377
C49	C	0.020149	0.061249	0.249372
C50	C	0.020126	0.061250	-0.249028
C51	C	-0.030285	0.060732	-0.249013
C52	C	-0.055486	0.060474	-0.124411
C53	C	0.574732	-0.026627	0.000189
C54	C	0.574179	-0.080282	0.000200
C55	C	0.614884	-0.419105	0.000143
C56	C	0.612833	-0.620764	0.000123
O57	O	0.650055	-0.652027	0.000076
N58	N	0.568496	-0.639879	0.000110
C59	C	0.524670	-0.608576	0.000092
O60	O	0.486912	-0.629462	0.000066
C61	C	0.526721	-0.406918	0.000102
C62	C	0.571061	-0.387805	0.000130
C63	C	0.659220	-0.399992	0.000169
C64	C	0.659732	-0.349580	0.000182
C65	C	0.615908	-0.318281	0.000168
C66	C	0.571573	-0.337394	0.000142
C67	C	0.482895	-0.375615	0.000074
C68	C	0.483412	-0.325198	0.000073
C69	C	0.527751	-0.306086	0.000101
C70	C	0.528262	-0.255683	0.000141
N71	N	0.572598	-0.236567	0.000155
C72	C	0.616421	-0.267867	0.000168
C73	C	0.523596	-0.714450	0.000089
C74	C	0.523083	-0.764864	0.000089
C75	C	0.611246	-0.777049	0.000118
C76	C	0.611759	-0.726633	0.000128
C77	C	0.567932	-0.695335	0.000103
C78	C	0.617494	-0.161998	0.000196
C79	C	0.618002	-0.111581	0.000214
C80	C	0.529839	-0.099401	0.000177
C81	C	0.529331	-0.149813	0.000167
C82	C	0.573162	-0.181111	0.000171
O83	O	0.491060	-0.224391	0.000173
O84	O	0.654174	-0.246971	0.000164
C85	C	0.614372	-0.469517	0.000131
C86	C	0.570036	-0.488629	0.000105
C87	C	0.526213	-0.457330	0.000091
C88	C	0.569523	-0.539043	0.000105
C89	C	0.613346	-0.570343	0.000118
C90	C	0.657683	-0.551228	0.000132
C91	C	0.658195	-0.500816	0.000145
C92	C	0.481876	-0.476445	0.000077
C93	C	0.481367	-0.526857	0.000066
C94	C	0.525191	-0.558157	0.000080
C95	C	0.658949	0.057571	0.000184
C96	C	0.712605	0.058114	0.000192
C97	C	0.566353	0.150182	0.000123
C98	C	0.566906	0.203837	0.000103
N99	N	0.570543	0.061776	0.356276
N100	N	0.570546	0.061775	-0.355961
C101	C	0.636779	-0.004426	0.356312
C102	C	0.669901	-0.037526	0.428270
C103	C	0.669906	-0.037527	0.572150
C104	C	0.636785	-0.004424	0.644075
C105	C	0.603663	0.028675	0.572117
C106	C	0.603663	0.028673	0.428234
C107	C	0.537425	0.094875	0.572081
C108	C	0.537421	0.094878	0.428201
C109	C	0.504304	0.127977	0.644006
C110	C	0.471184	0.161080	0.572048
C111	C	0.471180	0.161079	0.428159
C112	C	0.504300	0.127978	0.356243
H113	H	-0.282709	0.058161	0.226257
C114	C	0.660535	-0.705615	0.000147
N115	N	0.697275	-0.689787	0.000155
H116	H	0.444217	0.188027	0.630618
H117	H	-0.191266	0.059092	-0.225892
H118	H	0.504307	0.127973	0.761160
H119	H	0.444207	0.188032	0.369579
C120	C	0.093257	0.062008	0.386446
N121	N	0.072386	0.061806	0.489707
C122	C	0.475380	-0.680027	0.000063
N123	N	0.439063	-0.654101	0.000047
H124	H	0.423790	0.065395	-0.225945
C125	C	0.434117	-0.396627	0.000034
N126	N	0.397375	-0.412451	-0.000000
C127	C	0.705889	-0.585666	0.000145
N128	N	0.742195	-0.611608	0.000146
C129	C	0.636780	-0.004426	0.198041
N130	N	0.636781	-0.004427	0.078828
H131	H	0.504302	0.127977	0.239089
C132	C	0.435198	-0.290772	0.000050
N133	N	0.398883	-0.264843	0.000038
H134	H	0.654110	-0.096023	0.000240
H135	H	-0.191244	0.059100	0.226262
C136	C	0.708509	-0.328564	0.000198
N137	N	0.745250	-0.312738	0.000204
H138	H	0.694301	-0.485260	0.000167
H139	H	0.040670	0.061462	0.350840
H140	H	-0.282717	0.058167	-0.225877
C141	C	0.325119	0.064384	-0.261555
N142	N	0.304234	0.064168	-0.364801
C143	C	0.431008	0.065468	0.261796
N144	N	0.451892	0.065680	0.365044
H145	H	0.636787	-0.004431	0.761230
H146	H	0.646929	-0.802541	0.000130
H147	H	0.696867	-0.064479	0.369697
H148	H	0.696874	-0.064481	0.630739
H149	H	0.332353	0.064455	0.226210
H150	H	0.445258	-0.542413	0.000056
H151	H	0.100437	0.062063	-0.350524
C152	C	0.199108	0.063083	0.386434
N153	N	0.219988	0.063291	0.489690
H154	H	0.191888	0.062996	-0.350524
H155	H	-0.050790	0.060524	0.350833
C156	C	-0.058011	0.060444	-0.386100
N157	N	-0.078891	0.060221	-0.489352
C158	C	0.665711	-0.196418	0.000213
N159	N	0.702028	-0.222344	0.000238
C160	C	0.707433	-0.434414	0.000199
N161	N	0.743751	-0.460338	0.000237
H162	H	0.040640	0.061458	-0.350497
C163	C	0.474306	-0.785881	0.000076
N164	N	0.437566	-0.801709	0.000057
C165	C	0.480556	-0.170837	0.000145
N166	N	0.443817	-0.186669	0.000114
H167	H	0.494160	-0.073908	0.000171
H168	H	0.446189	-0.450966	0.000063
