data_functionalizedCrystal
_audit_creation_method	'MofGen! by Chris Wilmer'
_symmetry_space_group_name_H-M	'P1'
_symmetry_Int_Tables_number	1
_symmetry_cell_setting	triclinic
loop_
_symmetry_equiv_pos_as_xyz
  x,y,z
_cell_length_a	14.044191
_cell_length_b	16.992695
_cell_length_c	16.053802
_cell_angle_alpha	87.258926
_cell_angle_beta	87.188547
_cell_angle_gamma	88.070000
loop_
_atom_site_label
_atom_site_type_symbol
_atom_site_fract_x
_atom_site_fract_y
_atom_site_fract_z
O1	O	1.275871	-0.187036	-0.069354
O2	O	0.999382	-0.180171	-0.069372
O3	O	1.136518	-0.069383	-0.069356
O4	O	1.138735	-0.297823	-0.069369
O5	O	1.128968	-0.075454	0.069502
O6	O	0.991832	-0.186242	0.069486
O7	O	1.268321	-0.193106	0.069504
Zn8	Zn	1.128878	-0.190638	0.091542
Zn9	Zn	1.138826	-0.182640	-0.091410
O10	O	1.131185	-0.303894	0.069489
C11	C	0.960065	-0.180204	0.000055
C12	C	0.854161	-0.171247	0.000048
C13	C	1.307638	-0.193073	0.000076
C14	C	1.413542	-0.202030	0.000077
C15	C	1.660258	-0.154883	0.000063
C16	C	1.607440	-0.218391	0.000062
C17	C	1.499545	-0.209285	0.000071
C18	C	1.768162	-0.163987	0.000055
C19	C	1.129891	-0.043007	0.000072
C20	C	1.121382	0.044633	0.000072
C21	C	1.137812	-0.330271	0.000058
C22	C	1.146321	-0.417910	0.000053
N23	N	1.122095	-0.196096	0.216401
C24	C	1.203479	0.089129	0.000078
C25	C	1.195479	0.171476	0.000070
C26	C	1.105381	0.209324	0.000061
C27	C	1.023279	0.164822	0.000052
C28	C	1.031280	0.082477	0.000054
C29	C	1.072220	0.455243	0.000047
C30	C	1.064224	0.537594	0.000047
C31	C	1.236426	0.544242	0.000063
C32	C	1.244419	0.461895	0.000071
C33	C	1.162316	0.417400	0.000057
N34	N	1.097202	0.293496	0.000055
N35	N	1.170497	0.333230	0.000057
N36	N	1.145615	-0.177175	-0.216269
C37	C	1.180471	-0.148976	0.260102
C38	C	1.175736	-0.152803	0.347508
C39	C	1.112630	-0.203754	0.391212
C40	C	1.054248	-0.250876	0.347506
C41	C	1.058979	-0.247045	0.260101
C42	C	1.091964	-0.220466	0.652620
C43	C	1.087239	-0.224296	0.740030
C44	C	1.208727	-0.126220	0.740027
C45	C	1.213456	-0.122397	0.652621
C46	C	1.155070	-0.169516	0.608922
N47	N	1.107791	-0.207668	0.480556
N48	N	1.159905	-0.165597	0.519580
H49	H	1.643252	-0.279600	0.000055
H50	H	0.990852	0.568407	0.000053
H51	H	1.276846	0.058319	0.000090
H52	H	1.624448	-0.093679	0.000070
H53	H	0.949919	0.195645	0.000039
H54	H	1.264842	-0.080908	0.617039
H55	H	1.256260	-0.087857	0.775615
H56	H	1.035848	-0.265790	0.775610
H57	H	1.223269	-0.114433	0.383089
H58	H	1.044426	-0.258834	0.617047
C59	C	1.326733	0.593193	0.000070
N60	N	1.394755	0.630064	0.000071
H61	H	0.964428	0.046249	0.000049
C62	C	1.285792	0.220418	0.000090
N63	N	1.353820	0.257280	0.000110
C64	C	1.343533	0.420268	0.000081
N65	N	1.418188	0.388914	0.000093
C66	C	0.981903	0.406309	0.000028
N67	N	0.913873	0.369450	0.000011
C68	C	0.984821	-0.306916	0.395583
N69	N	0.932526	-0.349126	0.431794
C70	C	1.249892	-0.092924	0.212036
N71	N	1.302180	-0.050702	0.175835
H72	H	1.011442	-0.285415	0.224521
