data_functionalizedCrystal
_audit_creation_method	'MofGen! by Chris Wilmer'
_symmetry_space_group_name_H-M	'P1'
_symmetry_Int_Tables_number	1
_symmetry_cell_setting	triclinic
loop_
_symmetry_equiv_pos_as_xyz
  x,y,z
_cell_length_a	21.606444
_cell_length_b	27.440280
_cell_length_c	21.606444
_cell_angle_alpha	89.997894
_cell_angle_beta	120.000728
_cell_angle_gamma	119.991845
loop_
_atom_site_label
_atom_site_type_symbol
_atom_site_fract_x
_atom_site_fract_y
_atom_site_fract_z
Zr1	Zr	-0.677285	0.469643	-0.081178
O2	O	-0.806392	0.391851	-0.179990
O3	O	-0.548186	0.493470	-0.050895
O4	O	-0.677287	0.493494	-0.180006
O5	O	-0.677287	0.391830	0.050974
O6	O	-0.677279	0.573695	-0.180009
O7	O	-0.677291	0.391826	-0.050880
O8	O	-0.446341	0.573652	0.050947
O9	O	-0.908224	0.391874	-0.179981
O10	O	-0.601277	0.563509	-0.037972
O11	O	-0.601280	0.503659	0.038043
O12	O	-0.753280	0.503688	-0.113969
O13	O	-0.753282	0.443837	-0.037954
Zr14	Zr	-0.677266	0.597561	0.081263
Zr15	Zr	-0.677273	0.597554	-0.081183
Zr16	Zr	-0.677278	0.469649	0.081267
Zr17	Zr	-0.839696	0.469679	-0.081163
Zr18	Zr	-0.514854	0.597524	0.081248
O19	O	-0.806364	0.573733	0.050980
O20	O	-0.806374	0.573724	-0.179997
O21	O	-0.806382	0.391860	0.050986
O22	O	-0.548159	0.675352	0.180075
O23	O	-0.548169	0.675343	-0.050902
O24	O	-0.548176	0.493479	0.180082
O25	O	-0.677264	0.675373	-0.050890
O26	O	-0.677264	0.573709	0.180090
O27	O	-0.677271	0.493508	0.180093
O28	O	-0.677259	0.675377	0.050964
O29	O	-0.908215	0.493546	-0.179985
O30	O	-0.446336	0.573657	0.180070
O31	O	-0.446326	0.675329	0.180066
O32	O	-0.446332	0.675324	0.050943
O33	O	-0.908219	0.391879	-0.050859
O34	O	-0.908209	0.493551	-0.050862
O35	O	-0.601271	0.563515	0.114053
O36	O	-0.601268	0.623366	0.038038
O37	O	-0.753271	0.563544	-0.037958
O38	O	-0.753273	0.503694	0.038057
C39	C	-0.474124	0.533555	0.000024
C40	C	-0.405176	0.533540	0.000018
C41	C	0.074286	0.577796	0.056162
C42	C	0.009480	0.577785	0.056155
C43	C	-0.079014	0.533605	0.000045
C44	C	-0.102701	0.489436	-0.056066
C45	C	-0.037895	0.489450	-0.056061
C46	C	-0.364057	0.489381	-0.056086
C47	C	-0.428863	0.489370	-0.056085
C48	C	-0.316682	0.577717	0.056130
C49	C	-0.251876	0.577730	0.056135
C50	C	-0.275569	0.533563	0.000022
C51	C	-0.205298	0.533576	0.000029
C52	C	-0.149284	0.533590	0.000040
C53	C	-0.677291	0.373604	0.000048
C54	C	-0.677296	0.319302	0.000050
C55	C	0.119566	0.533639	0.000058
C56	C	0.050598	0.533629	0.000057
C57	C	-0.677284	0.533593	-0.203152
C58	C	-0.677287	0.533591	-0.272115
C59	C	-0.677261	0.084617	0.056171
C60	C	-0.677263	0.135637	0.056172
O61	O	-0.677232	0.162039	0.103908
N62	N	-0.677272	0.161148	0.000056
C63	C	-0.677270	0.135640	-0.056061
O64	O	-0.677277	0.162024	-0.103791
C65	C	-0.677262	0.084624	-0.056058
C66	C	-0.677262	0.059112	0.000057
C67	C	-0.677260	0.059106	0.112282
C68	C	-0.677259	0.008089	0.112279
C69	C	-0.677260	-0.017416	0.056165
C70	C	-0.677261	0.008095	0.000054
C71	C	-0.677253	0.059119	-0.112171
C72	C	-0.677244	0.008100	-0.112164
C73	C	-0.677244	-0.017412	-0.056049
C74	C	-0.677261	-0.068427	-0.056062
N75	N	-0.677252	-0.093937	0.000054
C76	C	-0.677251	-0.068432	0.056168
C77	C	-0.677286	0.242778	-0.056060
C78	C	-0.677301	0.293790	-0.056066
C79	C	-0.677292	0.293784	0.056167
C80	C	-0.677284	0.242768	0.056170
C81	C	-0.677277	0.217267	0.000056
C82	C	-0.677251	-0.175571	0.056158
C83	C	-0.677254	-0.226594	0.056148
C84	C	-0.677258	-0.226581	-0.056083
C85	C	-0.677260	-0.175565	-0.056076
C86	C	-0.677253	-0.150060	0.000051
O87	O	-0.677289	-0.094860	-0.103772
O88	O	-0.677233	-0.094818	0.103896
C89	C	-0.677260	0.693599	0.000037
C90	C	-0.677255	0.747901	0.000035
C91	C	-0.756630	0.502364	-0.344183
C92	C	-0.756627	0.502369	-0.408978
C93	C	-0.677281	0.533598	-0.401703
C94	C	-0.597932	0.564828	-0.329627
C95	C	-0.597935	0.564826	-0.264834
C96	C	-0.597917	0.564838	-0.590930
C97	C	-0.597920	0.564836	-0.655731
C98	C	-0.756609	0.502381	-0.735074
C99	C	-0.756612	0.502379	-0.670281
C100	C	-0.677264	0.533611	-0.598211
C101	C	-0.677267	0.533606	-0.527953
C102	C	-0.677277	0.533600	-0.471959
C103	C	-0.677267	0.533610	0.203237
C104	C	-0.677264	0.533612	0.272199
C105	C	-0.474108	0.693553	0.000018
C106	C	-0.405155	0.747839	0.000010
C107	C	-0.474115	0.533563	0.203219
C108	C	-0.405164	0.533550	0.272175
C109	C	-0.474099	0.693561	0.203213
C110	C	-0.405144	0.747850	0.272167
C111	C	-0.880451	0.373642	-0.203128
C112	C	-0.949407	0.319353	-0.272082
C113	C	-0.880442	0.373650	0.000067
C114	C	-0.949395	0.319364	0.000075
C115	C	-0.880436	0.533640	-0.203134
C116	C	-0.949386	0.533653	-0.272090
C117	C	-0.372779	0.742088	-0.039677
C118	C	-0.307999	0.793091	-0.039700
C119	C	-0.275593	0.849844	-0.000031
C120	C	-0.307975	0.855594	0.039658
C121	C	-0.372758	0.804592	0.039676
C122	C	-0.372779	0.564789	0.344241
C123	C	-0.308002	0.564774	0.409038
C124	C	-0.275606	0.533525	0.401769
C125	C	-0.307997	0.502283	0.329695
C126	C	-0.372778	0.502294	0.264899
C127	C	-0.372760	0.804591	0.264870
C128	C	-0.307977	0.855606	0.329653
C129	C	-0.275575	0.849879	0.401733
C130	C	-0.307965	0.793132	0.409029
C131	C	-0.372751	0.742118	0.344246
C132	C	-0.981799	0.262612	-0.264785
C133	C	-1.046601	0.211597	-0.329569
C134	C	-1.079007	0.217324	-0.401649
C135	C	-1.046612	0.274071	-0.408944
C136	C	-0.981815	0.325085	-0.344162
C137	C	-0.981778	0.325115	0.039755
C138	C	-1.046576	0.274112	0.039760
C139	C	-1.078985	0.217359	0.000089
C140	C	-1.046599	0.211609	-0.039597
C141	C	-0.981807	0.262611	-0.039606
C142	C	-0.981762	0.564908	-0.264796
C143	C	-1.046540	0.564932	-0.329581
C144	C	-1.078946	0.533696	-0.401660
C145	C	-1.046564	0.502440	-0.408953
C146	C	-0.981782	0.502420	-0.344168
H147	H	-0.179822	0.613705	0.101828
F148	F	-0.407204	0.810722	0.081923
F149	F	-1.081064	0.151208	-0.321788
H150	H	-0.500922	0.453389	-0.101777
F151	F	-0.407206	0.681731	0.352024
H152	H	-1.072996	0.165394	-0.071896
H153	H	-0.533303	0.590268	-0.649799
F154	F	-0.677234	-0.019036	-0.171889
F155	F	-0.841075	0.469133	-0.485678
H156	H	-1.131768	0.175781	-0.454393
H157	H	-1.131743	0.175835	0.000102
H158	H	-0.677256	0.079869	0.157979
F159	F	-0.407237	0.810700	0.188163
H160	H	-0.821224	0.476947	-0.676211
H161	H	-0.281574	0.788477	0.467725
F162	F	-1.081067	0.469194	-0.485671
H163	H	-0.955443	0.257920	-0.071916
F164	F	-0.513488	0.598067	-0.188131
H165	H	-0.222841	0.891368	-0.000051
F166	F	-0.291470	0.624725	0.115850
H167	H	-0.955387	0.590344	-0.206111
H168	H	-1.072898	0.590384	-0.323629
H169	H	-0.281580	0.901809	0.071955
F170	F	-0.947300	0.385511	0.081980
H171	H	0.146339	0.613770	0.101857
F172	F	-0.677252	0.086262	-0.171896
H173	H	-0.677272	-0.154798	-0.101776
H174	H	-1.073005	0.278728	-0.467640
H175	H	-0.222857	0.533520	0.454536
F176	F	-0.677282	0.215622	0.115895
F177	F	0.034696	0.624792	0.115872
F178	F	-0.407259	0.681692	-0.081904
H179	H	-0.677290	0.314561	0.101859
F180	F	-0.273509	0.469027	0.321970
H181	H	-0.955418	0.257937	-0.206100
F182	F	-1.147894	0.533722	-0.470604
H183	H	-0.955443	0.371285	-0.350112
H184	H	-1.072934	0.278805	0.072080
H185	H	-0.955430	0.476965	-0.350118
F186	F	-0.407243	0.598053	0.351995
F187	F	-0.389281	0.442371	-0.115802
F188	F	-0.196884	0.442418	-0.115785
H189	H	-0.281637	0.590217	0.467717
H190	H	-0.399137	0.476858	0.206222
H191	H	-0.281612	0.901808	0.323699
H192	H	-0.222823	0.891422	0.454478
H193	H	-0.057188	0.453486	-0.101749
F194	F	-0.513486	0.598066	-0.321886
H195	H	-0.677244	-0.154810	0.101862
F196	F	-0.841083	0.469124	-0.351934
H197	H	-0.677262	-0.247357	-0.101772
H198	H	-0.677256	-0.247365	0.101844
H199	H	-0.821218	0.476951	-0.793763
F200	F	-0.677317	0.320930	-0.115800
F201	F	-0.677288	0.215638	-0.115793
F202	F	-0.677253	-0.019055	0.172007
H203	H	-0.533307	0.590270	-0.532256
H204	H	-0.281641	0.788398	-0.072019
