data_functionalizedCrystal
_audit_creation_method	'MofGen! by Chris Wilmer'
_symmetry_space_group_name_H-M	'P1'
_symmetry_Int_Tables_number	1
_symmetry_cell_setting	triclinic
loop_
_symmetry_equiv_pos_as_xyz
  x,y,z
_cell_length_a	17.052750
_cell_length_b	23.196402
_cell_length_c	23.196402
_cell_angle_alpha	60.002465
_cell_angle_beta	77.685481
_cell_angle_gamma	53.478584
loop_
_atom_site_label
_atom_site_type_symbol
_atom_site_fract_x
_atom_site_fract_y
_atom_site_fract_z
Zr1	Zr	0.773257	0.631005	-0.196883
O2	O	0.645096	0.751269	-0.268832
O3	O	0.812543	0.510740	-0.174830
O4	O	0.812543	0.631005	-0.295095
O5	O	0.645099	0.631003	-0.053697
O6	O	0.944631	0.631006	-0.315808
O7	O	0.645096	0.631004	-0.148568
O8	O	0.944631	0.415874	-0.100677
O9	O	0.645100	0.846136	-0.268828
O10	O	0.927877	0.560208	-0.180879
O11	O	0.829303	0.560207	-0.094621
O12	O	0.829304	0.701804	-0.236217
O13	O	0.730730	0.701803	-0.149958
Zr14	Zr	0.983928	0.631006	-0.078612
Zr15	Zr	0.983923	0.631007	-0.229918
Zr16	Zr	0.773263	0.631005	-0.045576
Zr17	Zr	0.773263	0.782307	-0.196878
Zr18	Zr	0.983923	0.479704	-0.078617
O19	O	0.944643	0.751271	-0.100665
O20	O	0.944636	0.751272	-0.315804
O21	O	0.645104	0.751269	-0.053693
O22	O	1.112090	0.510742	-0.006663
O23	O	1.112082	0.510742	-0.221802
O24	O	0.812550	0.510740	0.040309
O25	O	1.112087	0.631008	-0.221798
O26	O	0.944643	0.631006	0.019600
O27	O	0.812555	0.631005	0.040313
O28	O	1.112090	0.631008	-0.126927
O29	O	0.812551	0.846138	-0.295087
O30	O	0.944635	0.415873	0.019592
O31	O	1.112086	0.415875	-0.006666
O32	O	1.112082	0.415875	-0.126935
O33	O	0.645104	0.846136	-0.148560
O34	O	0.812555	0.846138	-0.174818
O35	O	0.927882	0.560208	-0.039278
O36	O	1.026456	0.560208	-0.125537
O37	O	0.927882	0.701804	-0.180874
O38	O	0.829309	0.701804	-0.094616
C39	C	0.878586	0.441749	-0.137754
C40	C	0.878583	0.377518	-0.137757
C41	C	0.615082	0.631003	-0.096426
C42	C	0.525649	0.631002	-0.082401
C43	C	0.930031	0.347348	-0.182784
C44	C	0.930040	0.286987	-0.182780
C45	C	0.878583	0.256809	-0.137755
C46	C	0.827133	0.286983	-0.092719
C47	C	0.827133	0.347337	-0.092720
C48	C	0.792393	0.194779	-0.129514
C49	C	0.792390	0.134430	-0.129517
C50	C	0.878584	0.070655	-0.137748
C51	C	0.964780	0.067244	-0.145989
C52	C	0.964780	0.127598	-0.145990
C53	C	0.878578	0.191365	-0.137749
C54	C	0.930047	-0.024967	-0.182773
C55	C	0.930059	-0.085332	-0.182765
C56	C	0.827142	-0.085329	-0.092706
C57	C	0.827140	-0.024970	-0.092712
C58	C	0.878590	0.005210	-0.137749
C59	C	0.483636	0.631000	-0.023545
C60	C	0.399606	0.631004	-0.010371
C61	C	0.357585	0.631005	-0.056050
C62	C	0.399602	0.631002	-0.114906
C63	C	0.483636	0.631004	-0.128083
C64	C	0.357584	0.631009	-0.160589
C65	C	0.399601	0.631006	-0.219445
C66	C	0.483628	0.631008	-0.232619
C67	C	0.525649	0.631007	-0.186940
C68	C	0.273550	0.631007	-0.147412
C69	C	0.273550	0.631012	-0.251950
C70	C	0.357580	0.631007	-0.265124
C71	C	1.142104	0.631008	-0.179069
C72	C	1.231537	0.631009	-0.193094
C73	C	0.878586	0.631006	-0.327009
C74	C	0.878584	0.631006	-0.391243
C75	C	0.878600	0.820262	-0.137740
C76	C	0.878603	0.884494	-0.137738
C77	C	0.805826	0.631015	-0.842674
C78	C	0.805826	0.631009	-0.782317
C79	C	0.878594	0.631010	-0.763546
C80	C	0.951382	0.630997	-0.805130
C81	C	0.951386	0.630994	-0.865483
C82	C	0.901272	0.678516	-0.695234
C83	C	0.901262	0.678524	-0.634884
C84	C	0.878588	0.631014	-0.577396
C85	C	0.855904	0.583508	-0.580268
C86	C	0.855907	0.583506	-0.640621
C87	C	0.878599	0.631013	-0.698104
C88	C	0.805808	0.631016	-0.470371
C89	C	0.805814	0.631006	-0.410010
C90	C	0.951367	0.631002	-0.432829
C91	C	0.951364	0.631004	-0.493184
C92	C	0.878580	0.631015	-0.511953
C93	C	0.878600	0.631005	0.051514
C94	C	0.878602	0.631005	0.115748
C95	C	1.142096	0.441752	-0.179076
C96	C	1.231527	0.377521	-0.193103
C97	C	0.878592	0.441749	0.051508
C98	C	0.878592	0.377517	0.115739
C99	C	1.142103	0.441752	0.010186
C100	C	1.231536	0.377520	0.060393
C101	C	0.615083	0.820260	-0.285681
C102	C	0.525650	0.884491	-0.335888
C103	C	0.615090	0.820260	-0.096419
C104	C	0.525659	0.884491	-0.082392
C105	C	0.878594	0.820262	-0.327002
C106	C	0.878594	0.884494	-0.391234
C107	C	1.222068	0.347357	-0.228585
C108	C	1.306089	0.287013	-0.241777
C109	C	1.399569	0.256831	-0.219483
C110	C	1.409027	0.287001	-0.184000
C111	C	1.325006	0.347347	-0.170812
C112	C	0.930049	0.347354	0.174797
C113	C	0.930045	0.287010	0.235156
C114	C	0.878589	0.256826	0.236454
C115	C	0.827126	0.286995	0.177389
C116	C	0.827125	0.347343	0.117033
C117	C	1.324998	0.347357	0.038943
C118	C	1.409038	0.287014	0.086111
C119	C	1.399613	0.256830	0.154728
C120	C	1.306142	0.286999	0.176178
C121	C	1.222104	0.347346	0.129011
C122	C	0.432188	0.914661	-0.314438
C123	C	0.348148	0.975024	-0.361606
C124	C	0.357573	1.005210	-0.430223
C125	C	0.451044	0.975037	-0.451673
C126	C	0.535082	0.914680	-0.404505
C127	C	0.535118	0.914661	-0.046917
C128	C	0.451097	0.975021	-0.033741
C129	C	0.357617	1.005206	-0.056037
C130	C	0.348159	0.975033	-0.091517
C131	C	0.432180	0.914678	-0.104697
C132	C	0.930059	0.914659	-0.392511
C133	C	0.930079	0.975003	-0.452860
C134	C	0.878626	1.005186	-0.511931
C135	C	0.827159	0.975016	-0.510653
C136	C	0.827146	0.914668	-0.450305
H137	H	0.971927	0.371917	-0.219455
H138	H	0.289136	1.054356	-0.468623
H139	H	0.517851	0.631005	0.013640
H140	H	1.034971	0.015310	-0.152683
H141	H	0.611227	0.890089	-0.028754
H142	H	1.467976	0.207692	-0.230225
H143	H	1.298483	0.262415	0.232052
H144	H	0.785232	0.262411	0.178456
H145	H	0.971958	0.890093	-0.344418
H146	H	0.785232	0.890115	-0.449274
H147	H	1.145959	0.371931	-0.246750
H148	H	0.458816	0.999578	-0.004849
H149	H	1.485149	0.262417	-0.165851
H150	H	1.010622	0.631002	-0.527041
H151	H	0.289163	0.631008	-0.045322
H152	H	1.034965	0.124816	-0.152698
H153	H	1.332722	0.371899	-0.141917
H154	H	0.289210	1.054351	-0.045301
H155	H	0.785237	0.262408	-0.056058
H156	H	0.785226	0.371894	0.068947
H157	H	0.971951	0.371923	0.173753
H158	H	1.332690	0.371924	-0.016926
H159	H	1.146006	0.371897	0.146485
H160	H	0.594076	0.631000	-0.197664
H161	H	0.611181	0.890116	-0.421979
H162	H	0.272037	0.999619	-0.109668
H163	H	0.971956	0.262453	0.283242
H164	H	0.971988	0.999562	-0.453888
H165	H	0.424496	0.890087	-0.258569
H166	H	0.878598	0.207687	0.285604
H167	H	0.239335	0.631015	-0.289147
H168	H	0.424464	0.890115	-0.133581
H169	H	0.785268	0.999600	-0.558756
H170	H	0.971937	0.262418	-0.219448
H171	H	1.485139	0.262456	0.068635
H172	H	0.878645	1.054326	-0.561066
H173	H	0.746563	0.631021	-0.857952
H174	H	0.391801	0.631005	-0.313045
H175	H	0.746562	0.631016	-0.748458
H176	H	0.458706	0.999623	-0.507547
H177	H	0.971944	-0.000395	-0.219444
H178	H	0.272048	0.999580	-0.344128
H179	H	0.239347	0.631010	-0.099491
H180	H	0.837440	0.544823	-0.642956
H181	H	0.971960	-0.109901	-0.219429
H182	H	0.785245	-0.109898	-0.056046
H183	H	0.722204	0.137216	-0.122810
H184	H	0.785241	-0.000402	-0.056048
H185	H	0.837437	0.544824	-0.533461
H186	H	0.919728	0.717209	-0.632552
H187	H	0.722194	0.246715	-0.122824
H188	H	0.365398	0.631007	0.037548
H189	H	0.785236	0.371902	-0.056052
H190	H	0.746545	0.631022	-0.485651
H191	H	0.517832	0.631015	-0.280547
H192	H	0.746554	0.631008	-0.376154
H193	H	1.010619	0.630998	-0.417544
H194	H	1.010633	0.630996	-0.789844
H195	H	1.468050	0.207692	0.193128
H196	H	0.919734	0.717209	-0.742041
H197	H	1.010650	0.630987	-0.899338
H198	H	1.298370	0.262456	-0.270668
