data_functionalizedCrystal
_audit_creation_method	'MofGen! by Chris Wilmer'
_symmetry_space_group_name_H-M	'P1'
_symmetry_Int_Tables_number	1
_symmetry_cell_setting	triclinic
loop_
_symmetry_equiv_pos_as_xyz
  x,y,z
_cell_length_a	6.817900
_cell_length_b	9.541902
_cell_length_c	11.102288
_cell_angle_alpha	88.802011
_cell_angle_beta	108.605689
_cell_angle_gamma	69.436382
loop_
_atom_site_label
_atom_site_type_symbol
_atom_site_fract_x
_atom_site_fract_y
_atom_site_fract_z
V1	V	-4.134753	0.466603	-0.175309
O2	O	-4.093344	0.457720	0.008970
O3	O	-4.111372	0.463412	-0.348133
O4	O	-4.121663	0.670104	-0.172373
O5	O	-4.082981	0.249597	-0.168007
V6	V	-4.610564	0.440647	-0.153295
O7	O	-4.412929	0.523539	-0.223598
O8	O	-4.782586	0.383711	-0.105007
O9	O	-4.410739	0.443838	0.019528
O10	O	-4.769371	0.449530	-0.337574
O11	O	-4.779733	0.657653	-0.160598
O12	O	-4.400448	0.237146	-0.156231
C13	C	-3.961316	0.456051	-0.390271
C14	C	-4.023721	0.454798	-0.531555
C15	C	-4.211010	0.187536	-0.162538
C16	C	-4.119502	0.021171	-0.163789
C17	C	-4.237418	0.461676	-0.604396
C18	C	-4.296048	0.460511	-0.737149
C19	C	-3.927259	0.445584	-0.724207
C20	C	-3.868638	0.446760	-0.591459
C21	C	-3.974442	0.719706	-0.166070
C22	C	-4.045188	0.886069	-0.164814
C23	C	-4.224137	0.451195	0.061660
C24	C	-4.140972	0.452457	0.202943
H25	H	-4.363700	0.468220	-0.555627
C26	C	-3.853362	0.437137	-0.921955
C27	C	-3.756791	0.436727	-0.790055
H28	H	-3.748108	0.431656	-0.962600
H29	H	-3.981569	0.527681	-0.957874
H30	H	-3.895869	0.352331	-0.934842
H31	H	-3.714298	0.521539	-0.777168
H32	H	-3.628543	0.346173	-0.754126
H33	H	-3.694616	0.441164	-0.532150
H34	H	-4.470057	0.466114	-0.796450
