data_functionalizedCrystal
_audit_creation_method	'MofGen! by Chris Wilmer'
_symmetry_space_group_name_H-M	'P1'
_symmetry_Int_Tables_number	1
_symmetry_cell_setting	triclinic
loop_
_symmetry_equiv_pos_as_xyz
  x,y,z
_cell_length_a	10.654550
_cell_length_b	11.792241
_cell_length_c	9.130313
_cell_angle_alpha	89.998583
_cell_angle_beta	89.996220
_cell_angle_gamma	84.339159
loop_
_atom_site_label
_atom_site_type_symbol
_atom_site_fract_x
_atom_site_fract_y
_atom_site_fract_z
O1	O	1.667383	0.159415	-0.121920
O2	O	1.301862	0.174603	-0.121897
O3	O	1.493493	0.001859	-0.121899
O4	O	1.475752	0.332159	-0.121918
O5	O	1.493490	0.001864	0.121700
O6	O	1.301859	0.174608	0.121702
O7	O	1.667381	0.159419	0.121678
Cu8	Cu	1.484620	0.167014	0.143933
Cu9	Cu	1.484623	0.167008	-0.144151
O10	O	1.475750	0.332164	0.121680
C11	C	1.255066	0.173490	-0.000095
C12	C	1.115632	0.170154	-0.000085
C13	C	1.035858	0.271863	-0.000113
C14	C	0.904847	0.268721	-0.000138
C15	C	0.933394	0.062152	-0.000114
C16	C	1.064404	0.065295	-0.000079
C17	C	1.087087	0.376722	-0.000119
C18	C	1.007312	0.478439	-0.000148
C19	C	0.876300	0.475297	-0.000173
C20	C	0.825063	0.370438	-0.000170
C21	C	1.492377	-0.040432	-0.000100
C22	C	1.489042	-0.166454	-0.000101
C23	C	1.482908	-0.397180	-0.000125
C24	C	1.486316	-0.268787	-0.000112
C25	C	1.714177	0.160532	-0.000127
C26	C	1.853611	0.163869	-0.000146
C27	C	1.476865	0.374455	-0.000122
C28	C	1.480201	0.500476	-0.000130
N29	N	1.484627	0.167017	0.346555
N30	N	1.484625	0.166996	-0.346774
C31	C	1.569503	0.090552	0.423206
C32	C	1.569500	0.090539	0.576543
C33	C	1.399740	0.243465	0.576564
C34	C	1.399739	0.243472	0.423230
C35	C	1.654392	0.014097	0.346531
C36	C	1.739275	-0.062373	0.423182
C37	C	1.739272	-0.062387	0.576519
C38	C	1.654385	0.014070	0.653205
H39	H	0.811350	0.558120	-0.000182
H40	H	0.718383	0.367888	-0.000167
C41	C	0.877839	-0.051722	0.000173
C42	C	0.918254	-0.113259	0.125529
C43	C	0.867092	-0.218160	0.125847
H44	H	0.905163	-0.093781	-0.084668
H45	H	0.788384	-0.039075	0.000223
H46	H	1.007690	-0.125910	0.125466
H47	H	0.890932	-0.071235	0.210391
H48	H	0.777636	-0.205513	0.125896
H49	H	0.894419	-0.260208	0.041000
H50	H	0.894496	-0.259921	0.210905
H51	H	1.049039	0.563812	-0.000139
H52	H	1.193762	0.379291	-0.000106
C53	C	1.150967	-0.045165	-0.000363
C54	C	1.127771	-0.108231	-0.125713
C55	C	1.207503	-0.209987	-0.126030
H56	H	1.135418	-0.088254	0.084482
H57	H	1.236344	-0.028317	-0.000419
H58	H	1.042414	-0.125082	-0.125644
H59	H	1.143328	-0.065177	-0.210578
H60	H	1.292881	-0.193138	-0.126086
H61	H	1.191948	-0.253065	-0.041180
H62	H	1.191784	-0.252784	-0.211085
H63	H	1.654404	0.014104	0.221677
H64	H	1.808381	-0.124628	0.360737
C65	C	1.307386	0.326342	0.659744
C66	C	1.183855	0.306877	0.622489
C67	C	1.098747	0.383195	0.699099
H68	H	1.321362	0.402261	0.634683
H69	H	1.319462	0.315379	0.762056
H70	H	1.171785	0.317850	0.520201
H71	H	1.169840	0.230974	0.647555
H72	H	1.110823	0.372232	0.801411
H73	H	1.112734	0.459109	0.674032
H74	H	1.014922	0.369991	0.673843
C75	C	1.831360	-0.145592	0.659556
C76	C	1.810273	-0.257300	0.622217
C77	C	1.895098	-0.333977	0.698663
H78	H	1.819294	-0.134812	0.761880
H79	H	1.915280	-0.132622	0.634390
H80	H	1.726373	-0.270266	0.647392
H81	H	1.822349	-0.268117	0.519906
H82	H	1.979018	-0.321007	0.673497
H83	H	1.883025	-0.323186	0.800984
H84	H	1.880810	-0.409779	0.673329
H85	H	1.330624	0.305736	0.360820
H86	H	1.654381	0.014045	0.778062
