data_functionalizedCrystal
_audit_creation_method	'MofGen! by Chris Wilmer'
_symmetry_space_group_name_H-M	'P1'
_symmetry_Int_Tables_number	1
_symmetry_cell_setting	triclinic
loop_
_symmetry_equiv_pos_as_xyz
  x,y,z
_cell_length_a	14.908571
_cell_length_b	16.994746
_cell_length_c	14.908308
_cell_angle_alpha	86.704843
_cell_angle_beta	89.824947
_cell_angle_gamma	86.707907
loop_
_atom_site_label
_atom_site_type_symbol
_atom_site_fract_x
_atom_site_fract_y
_atom_site_fract_z
Zn1	Zn	1.345367	-0.411654	0.587812
Zn2	Zn	1.353969	-0.536423	0.437522
Zn3	Zn	1.203680	-0.396503	0.428801
Zn4	Zn	1.194997	-0.535486	0.579173
O5	O	1.274503	-0.470016	0.508327
O6	O	1.472335	-0.434938	0.575140
O7	O	1.341267	-0.511914	0.310537
O8	O	1.222509	-0.288131	0.449860
O9	O	1.478655	-0.526605	0.464723
O10	O	1.326606	-0.299263	0.566684
O11	O	1.230850	-0.409115	0.304130
O12	O	1.076701	-0.408206	0.441483
O13	O	1.207710	-0.525008	0.706147
O14	O	1.070321	-0.510316	0.551961
O15	O	1.318186	-0.434029	0.712494
O16	O	1.332847	-0.646680	0.456346
O17	O	1.216051	-0.645991	0.560417
C18	C	1.040885	-0.457516	0.494839
C19	C	0.940941	-0.452188	0.489090
C20	C	1.274451	-0.674957	0.508388
C21	C	1.274459	-0.764279	0.508396
Zn22	Zn	1.203836	-1.027568	0.428655
Zn23	Zn	1.354104	-0.903674	0.437630
Zn24	Zn	1.345279	-1.042740	0.587884
Zn25	Zn	1.194913	-0.902883	0.579036
O26	O	1.274533	-0.969216	0.508301
O27	O	1.231198	-1.005115	0.304029
O28	O	1.478749	-0.928803	0.465020
O29	O	1.326557	-1.151108	0.566709
O30	O	1.341598	-0.914091	0.310623
O31	O	1.222640	-1.139961	0.449724
O32	O	1.472265	-1.030974	0.575411
O33	O	1.317904	-1.030206	0.712527
O34	O	1.070281	-0.912741	0.551628
O35	O	1.207431	-0.927453	0.706026
O36	O	1.076837	-1.004347	0.441144
O37	O	1.332946	-0.793189	0.456441
O38	O	1.215989	-0.792607	0.560331
C39	C	0.746551	-0.548654	0.593173
C40	C	0.652644	-0.543650	0.587774
C41	C	0.659220	-0.437175	0.472899
C42	C	0.753127	-0.442179	0.478298
C43	C	0.796789	-0.497920	0.538436
C44	C	0.890697	-0.502927	0.543829
C45	C	0.897271	-0.396449	0.428959
C46	C	0.803364	-0.391445	0.423561
C47	C	1.509033	-0.482566	0.521868
C48	C	1.608976	-0.487914	0.527639
C49	C	1.261020	-0.481104	0.742858
C50	C	1.255274	-0.485829	0.842802
C51	C	1.274560	-0.264276	0.508260
C52	C	1.274588	-0.174954	0.508232
C53	C	1.287986	-0.458918	0.274711
C54	C	1.293906	-0.453980	0.174778
C55	C	1.359514	-0.399953	1.037216
C56	C	1.354118	-0.404390	1.131122
C57	C	1.239083	-0.499135	1.124521
C58	C	1.244479	-0.494698	1.030615
C59	C	1.304697	-0.445106	0.986966
C60	C	1.310097	-0.440674	0.893059
C61	C	1.195058	-0.535414	0.886459
C62	C	1.189662	-0.539851	0.980364
C63	C	1.260741	-0.980390	0.741899
C64	C	1.254820	-0.985150	0.841832
C65	C	1.040024	-0.956763	0.494398
C66	C	0.940090	-0.951457	0.488474
C67	C	1.288378	-0.957999	0.273791
C68	C	1.294278	-0.953218	0.173857
C69	C	1.508133	-0.981674	0.522099
C70	C	1.608076	-0.987193	0.527852
C71	C	1.194605	-0.933812	0.885362
C72	C	1.189024	-0.938283	0.979259
C73	C	1.243662	-0.994089	1.029624
C74	C	1.303879	-1.045432	0.986088
C75	C	1.309456	-1.040964	0.892193
C76	C	0.896569	-0.996665	0.428168
C77	C	0.802671	-0.991695	0.422601
C78	C	0.752296	-0.941512	0.477337
C79	C	0.795823	-0.896302	0.537649
C80	C	0.889720	-0.901277	0.543220
C81	C	1.354566	-1.004477	0.130306
C82	C	1.360110	-1.000002	0.036407
C83	C	1.305369	-0.944263	-0.013939
C84	C	1.245073	-0.893002	0.029617
C85	C	1.239526	-0.897482	0.123514
C86	C	1.651870	-0.941719	0.587679
C87	C	1.745776	-0.946905	0.593103
C88	C	1.795888	-0.997561	0.538693
C89	C	1.752088	-1.043040	0.478863
C90	C	1.658182	-1.037858	0.473445
H91	H	0.782101	-0.594045	0.642134
H92	H	0.675840	-0.937468	0.472792
H93	H	1.409214	-1.041744	0.000958
C94	C	0.611185	-0.375860	0.406761
H95	H	0.654553	-0.346354	0.374937
H96	H	0.576790	-0.402171	0.365437
H97	H	0.572588	-0.341213	0.439114
H98	H	0.926245	-0.548316	0.592795
H99	H	1.622534	-1.074888	0.424722
C100	C	1.425753	-0.345412	0.989196
H101	H	1.421120	-0.349242	0.926072
H102	H	1.411731	-0.292436	1.003806
H103	H	1.485283	-0.360925	1.008076
H104	H	1.872351	-1.001770	0.543110
H105	H	0.754794	-0.855444	0.582213
C106	C	1.793939	-0.896867	0.658909
H107	H	1.750641	-0.865948	0.690522
H108	H	1.828233	-0.930687	0.700439
H109	H	1.832646	-0.863083	0.626356
C110	C	1.807219	-1.098750	0.419011
H111	H	1.869416	-1.095310	0.430805
H112	H	1.790931	-1.151462	0.431673
H113	H	1.795333	-1.083832	0.357619
C114	C	1.414787	-1.065794	0.185671
H115	H	1.451476	-1.095681	0.146274
H116	H	1.451792	-1.039456	0.224635
H117	H	1.378238	-1.100089	0.220246
C118	C	1.184872	-0.831688	-0.025772
H119	H	1.196826	-0.836361	-0.087928
H120	H	1.123554	-0.840745	-0.013983
H121	H	1.197117	-0.780121	-0.009586
C122	C	0.937584	-0.851535	0.609549
H123	H	0.894129	-0.820932	0.641338
H124	H	0.971919	-0.885512	0.650889
H125	H	0.976220	-0.817456	0.577335
H126	H	1.150424	-0.572184	0.845535
C127	C	1.414421	-0.354725	1.186395
H128	H	1.451060	-0.324561	1.146947
H129	H	1.377931	-0.320249	1.221034
H130	H	1.451490	-0.388731	1.225296
H131	H	1.190435	-0.855735	0.158965
C132	C	0.597384	-0.599441	0.648003
H133	H	0.636840	-0.633352	0.684592
H134	H	0.558517	-0.569206	0.685110
H135	H	0.562714	-0.630195	0.611466
H136	H	0.767802	-0.346060	0.374601
C137	C	1.596763	-0.886002	0.647544
H138	H	1.636305	-0.859675	0.683956
H139	H	1.562201	-0.848168	0.610788
H140	H	1.557799	-0.915800	0.684841
H141	H	0.938185	-0.355139	0.384386
H142	H	0.937572	-1.037530	0.383592
H143	H	1.140632	-0.580226	1.015916
H144	H	1.359131	-0.400295	0.857522
H145	H	1.239114	-0.997718	1.106079
H146	H	1.190056	-0.539510	1.160076
H147	H	1.150111	-0.888365	0.844366
H148	H	1.139989	-0.896469	1.014692
H149	H	1.358495	-1.082768	0.856759
C150	C	1.363983	-1.106807	1.041498
H151	H	1.352039	-1.102102	1.103652
H152	H	1.351677	-1.158358	1.025323
H153	H	1.425323	-1.097811	1.029717
H154	H	0.767244	-1.028510	0.373486
H155	H	1.309894	-0.940625	-0.090396
