data_functionalizedCrystal
_audit_creation_method	'MofGen! by Chris Wilmer'
_symmetry_space_group_name_H-M	'P1'
_symmetry_Int_Tables_number	1
_symmetry_cell_setting	triclinic
loop_
_symmetry_equiv_pos_as_xyz
  x,y,z
_cell_length_a	6.817900
_cell_length_b	16.418049
_cell_length_c	14.125465
_cell_angle_alpha	95.891231
_cell_angle_beta	100.398878
_cell_angle_gamma	103.389670
loop_
_atom_site_label
_atom_site_type_symbol
_atom_site_fract_x
_atom_site_fract_y
_atom_site_fract_z
V1	V	-3.990825	-0.115166	-0.300313
O2	O	-3.979535	0.006275	-0.294248
O3	O	-3.942095	-0.229066	-0.298594
O4	O	-3.926976	-0.113069	-0.431137
O5	O	-3.994759	-0.110525	-0.160788
V6	V	-4.476498	-0.100678	-0.283584
O7	O	-4.247369	-0.146945	-0.337010
O8	O	-4.670152	-0.068899	-0.246887
O9	O	-4.302021	0.013222	-0.285303
O10	O	-4.605185	-0.222119	-0.289649
O11	O	-4.589961	-0.105319	-0.423109
O12	O	-4.317140	-0.102775	-0.152760
C13	C	-3.787516	-0.256843	-0.293943
C14	C	-3.828857	-0.349956	-0.293410
C15	C	-4.105464	-0.568437	-0.297014
C16	C	-4.144296	-0.655927	-0.296522
C17	C	-3.781216	-0.647406	-0.286889
C18	C	-3.742389	-0.559918	-0.287388
C19	C	-3.904519	-0.520435	-0.292446
C20	C	-3.982178	-0.695414	-0.291454
C21	C	-4.024280	-0.790275	-0.290920
C22	C	-3.862415	-0.425569	-0.292982
C23	C	-3.768229	-0.108876	-0.463013
C24	C	-3.797307	-0.107916	-0.569965
C25	C	-3.850605	-0.106155	-0.765783
C26	C	-4.036087	-0.109688	-0.818114
C27	C	-4.065745	-0.108708	-0.927074
C28	C	-3.820939	-0.107135	-0.656813
C29	C	-4.119943	0.040994	-0.289951
C30	C	-4.057839	0.134107	-0.290490
C31	C	-4.139230	-0.106971	-0.120879
C32	C	-4.089391	-0.107927	-0.013926
H33	H	-4.237482	-0.536293	-0.301131
O34	O	-4.339473	-0.702492	-0.300782
C35	C	-4.412129	-0.672526	-0.220098
H36	H	-4.275450	-0.638188	-0.158887
H37	H	-4.509168	-0.626917	-0.242320
C38	C	-4.712913	-0.789966	-0.259813
C39	C	-4.545041	-0.747796	-0.184629
H40	H	-4.794907	-0.836394	-0.237936
H41	H	-4.663969	-0.810153	-0.314174
H42	H	-4.793756	-0.751950	-0.278324
H43	H	-4.464188	-0.785809	-0.166128
H44	H	-4.593975	-0.727617	-0.130264
O45	O	-4.198772	-0.114219	-0.773803
C46	C	-4.132485	-0.114196	-0.673298
H47	H	-3.986005	-0.137352	-0.660319
H48	H	-4.099607	-0.047173	-0.632706
C49	C	-4.482267	-0.144988	-0.651817
C50	C	-4.302368	-0.173435	-0.635877
H51	H	-4.587061	-0.181526	-0.628732
H52	H	-4.526927	-0.145001	-0.719528
H53	H	-4.454841	-0.089136	-0.617990
H54	H	-4.329790	-0.229282	-0.669714
H55	H	-4.257716	-0.173434	-0.568170
H56	H	-3.714093	-0.102396	-0.802810
O57	O	-3.623718	-0.685743	-0.282135
C58	C	-3.532042	-0.672919	-0.363056
H59	H	-3.647360	-0.659168	-0.424549
H60	H	-3.389919	-0.616954	-0.341408
C61	C	-3.326472	-0.769976	-0.322096
C62	C	-3.468115	-0.753094	-0.397627
H63	H	-3.287029	-0.819429	-0.343419
H64	H	-3.388229	-0.778614	-0.267576
H65	H	-3.208054	-0.723332	-0.304064
H66	H	-3.586539	-0.799732	-0.415649
H67	H	-3.406376	-0.744465	-0.452151
H68	H	-3.578750	-0.520834	-0.283672
