data_functionalizedCrystal
_audit_creation_method	'MofGen! by Chris Wilmer'
_symmetry_space_group_name_H-M	'P1'
_symmetry_Int_Tables_number	1
_symmetry_cell_setting	triclinic
loop_
_symmetry_equiv_pos_as_xyz
  x,y,z
_cell_length_a	16.109295
_cell_length_b	9.798715
_cell_length_c	16.109301
_cell_angle_alpha	90.004570
_cell_angle_beta	96.539666
_cell_angle_gamma	89.999244
loop_
_atom_site_label
_atom_site_type_symbol
_atom_site_fract_x
_atom_site_fract_y
_atom_site_fract_z
O1	O	-1.103134	0.113402	0.106843
O2	O	-0.861071	0.113426	0.120147
O3	O	-0.988752	0.113400	-0.007536
O4	O	-0.975453	0.113429	0.234526
O5	O	-0.988743	-0.113582	-0.007536
O6	O	-0.861062	-0.113556	0.120147
O7	O	-1.103125	-0.113580	0.106843
Zn8	Zn	-0.982092	-0.149606	0.113495
Zn9	Zn	-0.982104	0.149453	0.113495
O10	O	-0.975444	-0.113553	0.234526
C11	C	-0.830092	-0.000062	0.119609
C12	C	-0.737796	-0.000054	0.117996
N13	N	-0.982089	-0.353706	0.113494
C14	C	-0.515523	-0.000059	0.190008
C15	C	-0.428803	-0.000068	0.188486
C16	C	-0.448677	-0.000080	0.036996
C17	C	-0.535396	-0.000082	0.038520
C18	C	-0.568816	-0.000064	0.115028
C19	C	-0.395377	-0.000071	0.111982
C20	C	-0.301351	-0.000080	0.110331
C21	C	-0.662849	-0.000058	0.116679
C22	C	-1.035701	-0.421494	0.059649
C23	C	-1.035714	-0.578657	0.059646
C24	C	-0.134104	-0.000087	0.107386
C25	C	-0.226397	-0.000082	0.109014
C26	C	-0.988209	-0.000092	-0.038511
C27	C	-0.986594	-0.000094	-0.130806
N28	N	-0.982113	0.353552	0.113489
C29	C	-1.058602	-0.000079	-0.353080
C30	C	-1.057078	-0.000068	-0.439800
C31	C	-0.905588	-0.000058	-0.419923
C32	C	-0.907113	-0.000060	-0.333204
C33	C	-0.983622	-0.000077	-0.299785
C34	C	-0.980573	-0.000064	-0.473225
C35	C	-0.978920	-0.000052	-0.567251
C36	C	-0.985276	-0.000087	-0.205754
C37	C	-0.975987	-0.000059	0.265501
C38	C	-0.977602	-0.000048	0.357796
H39	H	-0.385414	-0.000067	0.249542
H40	H	-0.936197	-0.412021	0.159588
N41	N	-0.412630	-0.000106	-0.045520
H42	H	-0.349607	-0.000104	-0.035109
H43	H	-0.432128	0.084032	-0.078332
H44	H	-1.120900	-0.000090	-0.325874
H45	H	-0.578790	-0.000090	-0.022542
N46	N	-1.096470	-0.344265	-0.001435
H47	H	-1.087838	-0.242940	0.007217
H48	H	-1.155514	-0.369136	0.007985
N49	N	-1.096523	-0.655861	-0.001416
H50	H	-1.087914	-0.757188	0.007239
H51	H	-1.086783	-0.630968	-0.060369
H52	H	-1.118133	-0.000066	-0.483190
H53	H	-0.542731	-0.000055	0.252306
H54	H	-0.936215	-0.588162	0.159594
H55	H	-0.843297	-0.000047	-0.447144
H56	H	-0.846052	-0.000054	-0.289809
