data_functionalizedCrystal
_audit_creation_method	'MofGen! by Chris Wilmer'
_symmetry_space_group_name_H-M	'P1'
_symmetry_Int_Tables_number	1
_symmetry_cell_setting	triclinic
loop_
_symmetry_equiv_pos_as_xyz
  x,y,z
_cell_length_a	14.971482
_cell_length_b	15.944551
_cell_length_c	14.048226
_cell_angle_alpha	89.992615
_cell_angle_beta	89.994098
_cell_angle_gamma	83.555673
loop_
_atom_site_label
_atom_site_type_symbol
_atom_site_fract_x
_atom_site_fract_y
_atom_site_fract_z
O1	O	1.186831	0.109448	-0.079150
O2	O	0.926416	0.122560	-0.079155
O3	O	1.063735	-0.006264	-0.079144
O4	O	1.049512	0.238272	-0.079161
O5	O	1.063718	-0.006272	0.079177
O6	O	0.926400	0.122552	0.079166
O7	O	1.186814	0.109441	0.079171
Zn8	Zn	1.056604	0.115995	0.104305
Zn9	Zn	1.056626	0.116005	-0.104290
O10	O	1.049496	0.238265	0.079160
C11	C	0.893084	0.121970	0.000005
C12	C	0.793788	0.120215	0.000003
C13	C	1.063136	-0.037562	0.000017
C14	C	1.061366	-0.130810	0.000017
C15	C	0.747136	0.119384	0.086305
C16	C	0.653839	0.117721	0.086306
C17	C	0.607196	0.116895	0.000005
C18	C	0.653856	0.117724	-0.086304
C19	C	0.747151	0.119381	-0.086304
C20	C	0.459397	0.114272	-0.086298
C21	C	0.366095	0.112617	-0.086298
C22	C	0.366085	0.112613	0.086313
C23	C	0.459381	0.114270	0.086313
C24	C	0.506034	0.115100	0.000004
C25	C	0.972018	-0.345751	0.000002
C26	C	1.013500	-0.406733	0.078065
C27	C	1.058164	-0.301539	0.000010
C28	C	1.013537	-0.406709	-0.078027
C29	C	1.055064	-0.466454	-0.000001
C30	C	1.099669	-0.361293	0.078137
C31	C	1.099694	-0.361262	-0.078025
C32	C	1.141238	-0.422227	0.000056
C33	C	1.059947	-0.206535	0.000017
C34	C	1.053288	-0.561457	-0.000002
C35	C	1.220147	0.110030	0.000009
C36	C	1.319442	0.111786	0.000004
C37	C	1.050094	0.269563	-0.000003
C38	C	1.051865	0.362811	-0.000010
N39	N	1.056596	0.115988	0.246666
N40	N	1.056642	0.116006	-0.246650
C41	C	1.117420	0.058968	0.296489
C42	C	1.117426	0.058968	0.396147
C43	C	1.056612	0.115992	0.445980
C44	C	0.995782	0.173014	0.396150
C45	C	0.995772	0.173010	0.296494
C46	C	0.995807	0.173020	0.603864
C47	C	0.995818	0.173026	0.703527
C48	C	1.117461	0.058978	0.703517
C49	C	1.117452	0.058974	0.603861
C50	C	1.056622	0.115998	0.554038
H51	H	0.785105	0.120063	0.156583
C52	C	1.237917	-0.466939	0.000115
C53	C	1.254214	-0.564030	-0.000655
C54	C	1.350891	-0.608743	-0.000589
C55	C	1.431271	-0.556366	0.000246
C56	C	1.414977	-0.459269	0.001016
C57	C	1.318300	-0.414556	0.000951
H58	H	1.194710	-0.602808	-0.001273
H59	H	1.362953	-0.680621	-0.001159
H60	H	1.502837	-0.589465	0.000294
H61	H	1.474481	-0.420491	0.001634
H62	H	1.306238	-0.342678	0.001521
C63	C	1.148839	-0.334254	0.167396
C64	C	1.099236	-0.272435	0.239025
C65	C	1.148402	-0.245395	0.328284
C66	C	1.247170	-0.280174	0.345914
C67	C	1.296778	-0.341997	0.274284
C68	C	1.247613	-0.369037	0.185025
H69	H	1.026117	-0.246686	0.225975
H70	H	1.111678	-0.199630	0.381309
H71	H	1.283565	-0.260158	0.411989
H72	H	1.369897	-0.367746	0.287333
H73	H	1.284336	-0.414803	0.131999
C74	C	0.964276	-0.433956	0.167220
C75	C	0.954311	-0.527899	0.183980
C76	C	0.905081	-0.555118	0.273131
C77	C	0.865817	-0.488395	0.345523
C78	C	0.875781	-0.394446	0.328765
C79	C	0.925011	-0.367227	0.239613
H80	H	0.983377	-0.577297	0.130390
H81	H	0.897706	-0.624666	0.285536
H82	H	0.829375	-0.508544	0.411518
H83	H	0.846715	-0.345048	0.382355
H84	H	0.932386	-0.297679	0.227209
C85	C	0.928866	0.235735	0.241685
C86	C	0.862002	0.298490	0.296496
C87	C	0.795091	0.361213	0.241690
C88	C	0.795043	0.361182	0.132072
C89	C	0.861909	0.298424	0.077255
C90	C	0.928821	0.235701	0.132062
H91	H	0.862035	0.298515	0.377647
H92	H	0.745592	0.407670	0.282269
H93	H	0.745511	0.407614	0.091501
H94	H	0.861876	0.298399	-0.003896
H95	H	0.978319	0.189244	0.091482
C96	C	1.148884	-0.334007	-0.167181
C97	C	1.112732	-0.351612	-0.266972
C98	C	1.161914	-0.324353	-0.356137
C99	C	1.247247	-0.279489	-0.345510
C100	C	1.283404	-0.261882	-0.245715
C101	C	1.234222	-0.289140	-0.156551
H102	H	1.049559	-0.384825	-0.274842
H103	H	1.135148	-0.337388	-0.430011
H104	H	1.283655	-0.259310	-0.411515
H105	H	1.346577	-0.228668	-0.237845
H106	H	1.260988	-0.276106	-0.082676
H107	H	0.615861	0.117030	0.156582
H108	H	1.166946	0.012537	0.255922
H109	H	0.497354	0.114947	0.156588
H110	H	0.977097	-0.426816	-0.144028
H111	H	1.166953	0.012538	0.436712
H112	H	0.328096	0.111937	0.156589
C113	C	0.875425	-0.300838	0.000100
C114	C	0.842928	-0.241616	-0.082496
C115	C	0.746338	-0.196702	-0.082394
C116	C	0.682243	-0.211010	0.000305
C117	C	0.714738	-0.270234	0.082906
C118	C	0.811329	-0.315148	0.082804
H119	H	0.890376	-0.231022	-0.143720
H120	H	0.722283	-0.152860	-0.143541
H121	H	0.610741	-0.177762	0.000380
H122	H	0.667290	-0.280828	0.144130
H123	H	0.835383	-0.358990	0.143952
H124	H	1.166975	0.012545	0.563287
H125	H	1.166990	0.012548	0.744089
H126	H	0.328121	0.111945	-0.156573
H127	H	0.497379	0.114948	-0.156580
C128	C	0.928915	0.235748	0.758340
C129	C	0.827065	0.234167	0.744665
C130	C	0.760160	0.296890	0.799476
C131	C	0.795104	0.361195	0.867963
C132	C	0.896960	0.362778	0.881641
C133	C	0.963865	0.300055	0.826829
H134	H	0.801192	0.186563	0.693965
H135	H	0.684759	0.295718	0.789350
H136	H	0.745577	0.407626	0.908537
H137	H	0.922832	0.410382	0.932341
H138	H	1.039265	0.301228	0.836955
H139	H	0.946270	0.219452	0.563301
H140	H	0.946261	0.219441	0.436729
H141	H	0.785135	0.120059	-0.156580
C142	C	0.602549	0.116815	-0.181238
C143	C	0.548566	0.042798	-0.204966
C144	C	0.497260	0.041893	-0.299901
C145	C	0.499939	0.115005	-0.371108
C146	C	0.553924	0.189028	-0.347382
C147	C	0.605230	0.189933	-0.252446
H148	H	0.546581	-0.011328	-0.152253
H149	H	0.457297	-0.012903	-0.317465
H150	H	0.461960	0.114335	-0.441385
H151	H	0.555909	0.243154	-0.400095
H152	H	0.645194	0.244729	-0.234883
