data_functionalizedCrystal
_audit_creation_method	'MofGen! by Chris Wilmer'
_symmetry_space_group_name_H-M	'P1'
_symmetry_Int_Tables_number	1
_symmetry_cell_setting	triclinic
loop_
_symmetry_equiv_pos_as_xyz
  x,y,z
_cell_length_a	10.654549
_cell_length_b	14.044190
_cell_length_c	9.130313
_cell_angle_alpha	89.990619
_cell_angle_beta	89.997498
_cell_angle_gamma	88.838277
loop_
_atom_site_label
_atom_site_type_symbol
_atom_site_fract_x
_atom_site_fract_y
_atom_site_fract_z
O1	O	1.681232	0.133230	-0.121784
O2	O	2.181232	0.633230	0.378216
O3	O	1.317030	0.145924	-0.121796
O4	O	1.817030	0.645924	0.378204
O5	O	1.493660	0.001556	-0.121761
O6	O	1.993660	0.501556	0.378239
O7	O	1.504602	0.277598	-0.121818
O8	O	2.004602	0.777598	0.378182
O9	O	1.493646	0.001552	0.121838
O10	O	1.993646	0.501552	0.621838
O11	O	1.317016	0.145920	0.121803
O12	O	1.817016	0.645920	0.621803
O13	O	1.681219	0.133226	0.121815
O14	O	2.181219	0.633226	0.621815
Cu15	Cu	1.499116	0.139572	0.144052
Cu16	Cu	1.999116	0.639572	0.644052
Cu17	Cu	1.499132	0.139577	-0.144032
Cu18	Cu	1.999132	0.639577	0.355968
O19	O	1.504589	0.277594	0.121780
O20	O	2.004589	0.777594	0.621780
C21	C	1.270131	0.144990	0.000002
C22	C	1.770131	0.644990	0.500002
C23	C	1.130408	0.142202	-0.000001
C24	C	1.630408	0.642202	0.499999
C25	C	0.928174	0.224576	-0.000012
C26	C	1.428174	0.724576	0.499988
C27	C	1.059458	0.227203	-0.000021
C28	C	1.559458	0.727203	0.499979
C29	C	1.070066	0.054567	0.000014
C30	C	1.570066	0.554567	0.500014
C31	C	0.938784	0.051941	0.000013
C32	C	1.438784	0.551941	0.500013
C33	C	1.488866	-0.033792	0.000042
C34	C	1.988866	0.466208	0.500042
C35	C	1.474587	-0.139112	0.000055
C36	C	1.974587	0.360888	0.500055
C37	C	1.549752	-0.388904	-0.000000
C38	C	2.049752	0.111096	0.500000
C39	C	1.448502	-0.331940	0.000007
C40	C	1.948502	0.168060	0.500007
C41	C	1.463019	-0.224641	0.000033
C42	C	1.963019	0.275359	0.500033
C43	C	1.535237	-0.496214	-0.000027
C44	C	2.035237	0.003786	0.499973
C45	C	1.728117	0.134160	0.000014
C46	C	2.228117	0.634160	0.500014
C47	C	1.867841	0.136948	0.000007
C48	C	2.367841	0.636948	0.500007
C49	C	1.509383	0.312942	-0.000026
C50	C	2.009383	0.812942	0.499974
C51	C	1.523662	0.418261	-0.000048
C52	C	2.023662	0.918261	0.499952
N53	N	1.499114	0.139568	0.346674
N54	N	1.999114	0.639568	0.846674
N55	N	1.499144	0.139574	-0.346655
N56	N	1.999144	0.639574	0.153345
C57	C	1.577357	0.075670	0.423341
C58	C	2.077357	0.575670	0.923341
C59	C	1.577369	0.075670	0.576678
C60	C	2.077369	0.575670	1.076678
C61	C	1.420892	0.203476	0.576667
C62	C	1.920892	0.703476	1.076667
C63	C	1.420874	0.203470	0.423333
C64	C	1.920874	0.703470	0.923333
H65	H	1.127844	-0.014642	0.000022
H66	H	1.627844	0.485358	0.500022
Cl67	Cl	1.297835	-0.381059	-0.000000
Cl68	Cl	1.797835	0.118941	0.500000
H69	H	1.357153	0.255505	0.360906
H70	H	1.857153	0.755505	0.860906
Cl71	Cl	1.700409	-0.339784	0.000028
Cl72	Cl	2.200409	0.160216	0.500028
H73	H	1.641063	0.023635	0.360929
H74	H	2.141063	0.523635	0.860929
Cl75	Cl	1.675734	-0.004666	0.673056
Cl76	Cl	2.175734	0.495334	1.173056
H77	H	0.870415	0.293794	-0.000018
H78	H	1.370415	0.793794	0.499982
Cl79	Cl	1.135300	0.337368	-0.000052
Cl80	Cl	1.635300	0.837368	0.499948
Cl81	Cl	0.862931	-0.058228	0.000018
Cl82	Cl	1.362931	0.441772	0.500018
Cl83	Cl	1.322542	0.283810	0.673045
Cl84	Cl	1.822542	0.783810	1.173045
