data_functionalizedCrystal
_audit_creation_method	'MofGen! by Chris Wilmer'
_symmetry_space_group_name_H-M	'P1'
_symmetry_Int_Tables_number	1
_symmetry_cell_setting	triclinic
loop_
_symmetry_equiv_pos_as_xyz
  x,y,z
_cell_length_a	23.532361
_cell_length_b	23.532407
_cell_length_c	22.010155
_cell_angle_alpha	90.001349
_cell_angle_beta	89.995857
_cell_angle_gamma	97.160831
loop_
_atom_site_label
_atom_site_type_symbol
_atom_site_fract_x
_atom_site_fract_y
_atom_site_fract_z
O1	O	0.755281	-0.069000	-0.050472
O2	O	1.088614	0.264333	0.282861
O3	O	1.421948	0.597666	0.616195
O4	O	0.589414	-0.079031	-0.050488
O5	O	0.922747	0.254302	0.282846
O6	O	1.256080	0.587635	0.616179
O7	O	0.677349	0.008917	-0.050466
O8	O	1.010682	0.342250	0.282867
O9	O	1.344016	0.675583	0.616200
O10	O	0.667346	-0.156948	-0.050494
O11	O	1.000679	0.176385	0.282840
O12	O	1.334012	0.509718	0.616173
O13	O	0.677333	0.008903	0.050584
O14	O	1.010666	0.342236	0.383917
O15	O	1.344000	0.675570	0.717251
O16	O	0.589398	-0.079045	0.050563
O17	O	0.922731	0.254288	0.383896
O18	O	1.256064	0.587622	0.717229
O19	O	0.755265	-0.069014	0.050578
O20	O	1.088598	0.264319	0.383912
O21	O	1.421932	0.597653	0.717245
Cu22	Cu	0.672330	-0.074031	0.059797
Cu23	Cu	1.005663	0.259302	0.393130
Cu24	Cu	1.338997	0.592636	0.726464
Cu25	Cu	0.672349	-0.074014	-0.059707
Cu26	Cu	1.005682	0.259319	0.273627
Cu27	Cu	1.339016	0.592652	0.606960
O28	O	0.667330	-0.156962	0.050557
O29	O	1.000663	0.176371	0.383890
O30	O	1.333996	0.509705	0.717223
C31	C	0.568189	-0.078787	0.000036
C32	C	0.901523	0.254546	0.333369
C33	C	1.234856	0.587880	0.666702
C34	C	0.504971	-0.078032	0.000030
C35	C	0.838304	0.255302	0.333364
C36	C	1.171637	0.588635	0.666697
C37	C	0.231736	-0.074721	-0.055048
C38	C	0.565069	0.258613	0.278285
C39	C	0.898402	0.591946	0.611619
C40	C	0.291136	-0.075436	-0.055050
C41	C	0.624469	0.257898	0.278284
C42	C	0.957802	0.591231	0.611617
O43	O	0.321869	-0.075779	-0.101894
O44	O	0.655202	0.257554	0.231439
O45	O	0.988536	0.590887	0.564772
N46	N	0.320832	-0.075804	0.000033
N47	N	0.654166	0.257529	0.333366
N48	N	0.987499	0.590862	0.666700
C49	C	0.291127	-0.075452	0.055121
C50	C	0.624461	0.257881	0.388454
C51	C	0.957794	0.591214	0.721788
O52	O	0.321841	-0.075831	0.101973
O53	O	0.655175	0.257502	0.435306
O54	O	0.988508	0.590836	0.768640
C55	C	0.231729	-0.074733	0.055122
C56	C	0.565063	0.258600	0.388455
C57	C	0.898396	0.591933	0.721789
C58	C	0.202035	-0.074370	0.000036
C59	C	0.535368	0.258963	0.333369
C60	C	0.868701	0.592296	0.666702
C61	C	0.202041	-0.074357	-0.110130
C62	C	0.535375	0.258976	0.223203
C63	C	0.868708	0.592310	0.556537
C64	C	0.142645	-0.073643	-0.110128
C65	C	0.475979	0.259690	0.223205
C66	C	0.809312	0.593023	0.556539
C67	C	0.112944	-0.073293	-0.055044
C68	C	0.446278	0.260040	0.278289
C69	C	0.779611	0.593374	0.611622
C70	C	0.142639	-0.073657	0.000037
C71	C	0.475972	0.259677	0.333371
C72	C	0.809305	0.593010	0.666704
C73	C	0.202026	-0.074377	0.110209
C74	C	0.535359	0.258956	0.443542
C75	C	0.868692	0.592290	0.776876
C76	C	0.142624	-0.073658	0.110205
C77	C	0.475957	0.259676	0.443539
C78	C	0.809290	0.593009	0.776872
C79	C	0.112929	-0.073295	0.055119
C80	C	0.446262	0.260039	0.388452
C81	C	0.779596	0.593372	0.721786
C82	C	0.053542	-0.072592	0.055123
C83	C	0.386875	0.260741	0.388456
C84	C	0.720208	0.594074	0.721790
N85	N	0.023845	-0.072224	0.000040
N86	N	0.357178	0.261110	0.333374
N87	N	0.690512	0.594443	0.666707
C88	C	0.053546	-0.072574	-0.055043
C89	C	0.386879	0.260759	0.278290
C90	C	0.720213	0.594093	0.611623
C91	C	0.415867	-0.076961	0.055115
C92	C	0.749201	0.256372	0.388448
C93	C	1.082534	0.589705	0.721781
C94	C	0.475264	-0.077684	0.055114
C95	C	0.808597	0.255649	0.388448
C96	C	1.141931	0.588982	0.721781
C97	C	0.475268	-0.077667	-0.055057
C98	C	0.808602	0.255667	0.278277
C99	C	1.141935	0.589000	0.611610
C100	C	0.415870	-0.076948	-0.055056
C101	C	0.749203	0.256386	0.278278
C102	C	1.082537	0.589719	0.611611
C103	C	0.386171	-0.076593	0.000032
C104	C	0.719504	0.256741	0.333365
C105	C	1.052837	0.590074	0.666699
C106	C	-0.071189	-0.071075	-0.055035
C107	C	0.262144	0.262258	0.278298
C108	C	0.595477	0.595591	0.611631
C109	C	-0.130591	-0.070364	-0.055029
C110	C	0.202742	0.262969	0.278305
C111	C	0.536076	0.596303	0.611638
C112	C	-0.130590	-0.070379	0.055142
C113	C	0.202744	0.262955	0.388475
C114	C	0.536077	0.596288	0.721808
C115	C	-0.071194	-0.071093	0.055135
C116	C	0.262140	0.262240	0.388469
C117	C	0.595473	0.595573	0.721802
C118	C	-0.041495	-0.071440	0.000042
C119	C	0.291838	0.261894	0.333375
C120	C	0.625172	0.595227	0.666709
O121	O	0.022771	-0.072246	0.101944
O122	O	0.356104	0.261087	0.435277
O123	O	0.689438	0.594421	0.768610
O124	O	0.022826	-0.072188	-0.101888
O125	O	0.356159	0.261146	0.231446
O126	O	0.689493	0.594479	0.564779
C127	C	0.677086	0.030126	0.000061
C128	C	1.010420	0.363459	0.333394
C129	C	1.343753	0.696793	0.666728
C130	C	0.676320	0.093343	0.000067
C131	C	1.009654	0.426676	0.333401
C132	C	1.342987	0.760009	0.666734
C133	C	0.776489	-0.069258	0.000054
C134	C	1.109823	0.264075	0.333387
C135	C	1.443156	0.597408	0.666720
C136	C	0.839708	-0.070014	0.000055
C137	C	1.173041	0.263320	0.333388
C138	C	1.506375	0.596653	0.666722
N139	N	0.672321	-0.074042	0.143850
N140	N	1.005654	0.259291	0.477183
N141	N	1.338987	0.592625	0.810516
C142	C	0.723555	0.492454	0.000048
C143	C	1.056888	0.825787	0.333382
C144	C	1.390222	1.159120	0.666715
C145	C	0.722844	0.551854	0.000045
C146	C	1.056177	0.885187	0.333378
C147	C	1.389510	1.218521	0.666712
O148	O	0.766630	0.588606	0.000028
O149	O	1.099964	0.921939	0.333361
O150	O	1.433297	1.255272	0.666694
N151	N	0.670566	0.574471	0.000041
N152	N	1.003899	0.907805	0.333375
N153	N	1.337233	1.241138	0.666708
C154	C	0.618997	0.537685	0.000034
C155	C	0.952330	0.871018	0.333368
C156	C	1.285663	1.204352	0.666701
O157	O	0.574465	0.562377	0.000030
O158	O	0.907799	0.895711	0.333364
O159	O	1.241132	1.229044	0.666697
C160	C	0.619709	0.478286	0.000033
C161	C	0.953042	0.811619	0.333367
C162	C	1.286375	1.144953	0.666700
C163	C	0.671990	0.455672	0.000043
C164	C	1.005323	0.789006	0.333377
C165	C	1.338656	1.122339	0.666710
C166	C	0.775832	0.469839	0.000058
C167	C	1.109165	0.803173	0.333391
C168	C	1.442498	1.136506	0.666724
C169	C	0.776543	0.410443	0.000062
C170	C	1.109876	0.743777	0.333395
C171	C	1.443210	1.077110	0.666729
C172	C	0.724977	0.373662	0.000057
C173	C	1.058311	0.706995	0.333390
C174	C	1.391644	1.040328	0.666724
C175	C	0.672701	0.396276	0.000048
C176	C	1.006034	0.729610	0.333381
C177	C	1.339368	1.062943	0.666714
C178	C	0.568140	0.441501	0.000022
C179	C	0.901473	0.774834	0.333355
C180	C	1.234807	1.108168	0.666689
C181	C	0.568857	0.382099	0.000020
C182	C	0.902190	0.715432	0.333354
C183	C	1.235523	1.048765	0.666687
C184	C	0.621137	0.359485	0.000030
C185	C	0.954471	0.692818	0.333364
C186	C	1.287804	1.026151	0.666697
C187	C	0.621847	0.300099	0.000047
C188	C	0.955180	0.633432	0.333380
C189	C	1.288513	0.966765	0.666714
N190	N	0.674124	0.277481	0.000051
N191	N	1.007457	0.610815	0.333384
N192	N	1.340791	0.944148	0.666717
C193	C	0.725690	0.314263	0.000056
C194	C	1.059023	0.647596	0.333389
C195	C	1.392356	0.980929	0.666722
C196	C	0.617505	0.662427	0.000036
C197	C	0.950839	0.995761	0.333369
C198	C	1.284172	1.329094	0.666702
C199	C	0.616793	0.721825	0.000041
C200	C	0.950126	1.055158	0.333375
C201	C	1.283459	1.388492	0.666708
C202	C	0.720640	0.735990	0.000051
C203	C	1.053973	1.069323	0.333384
C204	C	1.387306	1.402657	0.666717
C205	C	0.721352	0.676591	0.000050
C206	C	1.054685	1.009924	0.333383
C207	C	1.388018	1.343258	0.666716
C208	C	0.669783	0.639810	0.000040
C209	C	1.003116	0.973143	0.333373
C210	C	1.336449	1.306477	0.666706
C211	C	0.727179	0.189526	0.000065
C212	C	1.060513	0.522860	0.333399
C213	C	1.393846	0.856193	0.666732
C214	C	0.727886	0.130124	0.000072
C215	C	1.061219	0.463458	0.333406
C216	C	1.394553	0.796791	0.666739
C217	C	0.624039	0.115965	0.000059
C218	C	0.957372	0.449298	0.333393
C219	C	1.290706	0.782631	0.666726
C220	C	0.623332	0.175361	0.000056
C221	C	0.956665	0.508695	0.333389
C222	C	1.289999	0.842028	0.666722
C223	C	0.674907	0.212141	0.000057
C224	C	1.008240	0.545475	0.333390
C225	C	1.341574	0.878808	0.666723
O226	O	0.578083	0.263312	0.000062
O227	O	0.911416	0.596645	0.333395
O228	O	1.244749	0.929979	0.666728
O229	O	0.770214	0.289562	0.000052
O230	O	1.103547	0.622896	0.333385
O231	O	1.436880	0.956229	0.666719
C232	C	0.667592	0.821829	0.000034
C233	C	1.000926	1.155162	0.333368
C234	C	1.334259	1.488495	0.666701
C235	C	0.668358	0.758612	0.000043
C236	C	1.001692	1.091945	0.333376
C237	C	1.335025	1.425279	0.666710
C238	C	0.711288	-0.035081	0.563639
C239	C	1.044621	0.298252	0.896972
C240	C	1.377955	0.631586	1.230305
C241	C	0.711291	-0.035077	0.627246
C242	C	1.044624	0.298256	0.960579
C243	C	1.377957	0.631589	1.293913
O244	O	0.744400	-0.001956	0.660146
O245	O	1.077733	0.331377	0.993479
O246	O	1.411066	0.664710	1.326812
N247	N	0.672348	-0.074008	0.659057
N248	N	1.005681	0.259326	0.992390
N249	N	1.339014	0.592659	1.325723
C250	C	0.633396	-0.112940	0.627256
C251	C	0.966729	0.220394	0.960590
C252	C	1.300063	0.553727	1.293923
O253	O	0.600272	-0.146052	0.660155
O254	O	0.933605	0.187281	0.993488
O255	O	1.266938	0.520614	1.326821
C256	C	0.633391	-0.112940	0.563650
C257	C	0.966724	0.220393	0.896983
C258	C	1.300058	0.553727	1.230317
C259	C	0.672340	-0.074011	0.531843
C260	C	1.005674	0.259322	0.865176
C261	C	1.339007	0.592655	1.198509
C262	C	0.750234	0.003845	0.531831
C263	C	1.083567	0.337179	0.865164
C264	C	1.416901	0.670512	1.198498
C265	C	0.750232	0.003841	0.468228
C266	C	1.083565	0.337174	0.801561
C267	C	1.416899	0.670507	1.134895
C268	C	0.711284	-0.035090	0.436432
C269	C	1.044617	0.298244	0.769765
C270	C	1.377951	0.631577	1.103099
C271	C	0.672338	-0.074016	0.468239
C272	C	1.005672	0.259318	0.801573
C273	C	1.339005	0.592651	1.134906
C274	C	0.594437	-0.151869	0.531851
C275	C	0.927770	0.181464	0.865184
C276	C	1.261103	0.514797	1.198518
C277	C	0.594435	-0.151866	0.468240
C278	C	0.927768	0.181467	0.801573
C279	C	1.261102	0.514801	1.134907
C280	C	0.633384	-0.112937	0.436433
C281	C	0.966718	0.220396	0.769766
C282	C	1.300051	0.553730	1.103099
C283	C	0.633389	-0.112950	0.372840
C284	C	0.966722	0.220383	0.706174
C285	C	1.300055	0.553716	1.039507
N286	N	0.672331	-0.074020	0.341030
N287	N	1.005665	0.259313	0.674363
N288	N	1.338998	0.592646	1.007696
C289	C	0.711279	-0.035090	0.372826
C290	C	1.044613	0.298243	0.706159
C291	C	1.377946	0.631577	1.039492
C292	C	0.633408	-0.112936	0.760834
C293	C	0.966742	0.220398	1.094168
C294	C	1.300075	0.553731	1.427501
C295	C	0.633415	-0.112938	0.824440
C296	C	0.966749	0.220395	1.157773
C297	C	1.300082	0.553728	1.491106
C298	C	0.711310	-0.035075	0.824425
C299	C	1.044643	0.298258	1.157758
C300	C	1.377976	0.631592	1.491091
C301	C	0.711305	-0.035075	0.760818
C302	C	1.044638	0.298258	1.094152
C303	C	1.377972	0.631591	1.427485
C304	C	0.672351	-0.074005	0.729024
C305	C	1.005685	0.259328	1.062357
C306	C	1.339018	0.592661	1.395690
C307	C	0.711272	-0.035102	0.239254
C308	C	1.044606	0.298231	0.572588
C309	C	1.377939	0.631564	0.905921
C310	C	0.711268	-0.035112	0.175645
C311	C	1.044602	0.298222	0.508979
C312	C	1.377935	0.631555	0.842312
C313	C	0.633372	-0.112973	0.175666
C314	C	0.966706	0.220361	0.508999
C315	C	1.300039	0.553694	0.842332
C316	C	0.633378	-0.112966	0.239269
C317	C	0.966711	0.220368	0.572602
C318	C	1.300045	0.553701	0.905936
C319	C	0.672330	-0.074026	0.271062
C320	C	1.005664	0.259308	0.604395
C321	C	1.338997	0.592641	0.937728
O322	O	0.600295	-0.146053	0.339900
O323	O	0.933628	0.187280	0.673234
O324	O	1.266962	0.520614	1.006567
O325	O	0.744393	-0.001978	0.339920
O326	O	1.077726	0.331355	0.673253
O327	O	1.411060	0.664689	1.006586
N328	N	0.672361	-0.074006	0.856241
N329	N	1.005695	0.259328	1.189574
N330	N	1.339028	0.592661	1.522908
H331	H	0.226193	-0.074671	0.155066
H332	H	0.559526	0.258663	0.488400
H333	H	0.892860	0.591996	0.821733
O334	O	0.113859	-0.073340	0.163774
O335	O	0.447192	0.259993	0.497107
O336	O	0.780525	0.593326	0.830440
C337	C	0.152812	-0.073799	0.212388
C338	C	0.486146	0.259534	0.545721
C339	C	0.819479	0.592867	0.879055
H340	H	0.192692	-0.092340	0.196233
H341	H	0.526026	0.240993	0.529566
H342	H	0.859359	0.574326	0.862899
H343	H	0.131876	-0.101250	0.250912
H344	H	0.465210	0.232084	0.584246
H345	H	0.798543	0.565417	0.917579
H346	H	0.165367	-0.028181	0.229330
H347	H	0.498700	0.305153	0.562663
H348	H	0.832033	0.638486	0.895996
O349	O	0.556544	-0.189706	0.562644
O350	O	0.889878	0.143628	0.895978
O351	O	1.223211	0.476961	1.229311
C352	C	0.522180	-0.224068	0.520928
C353	C	0.855514	0.109265	0.854262
C354	C	1.188847	0.442598	1.187595
H355	H	0.521678	-0.200716	0.475590
H356	H	0.855011	0.132617	0.808924
H357	H	1.188344	0.465950	1.142257
H358	H	0.476648	-0.232993	0.539304
H359	H	0.809981	0.100341	0.872637
H360	H	1.143314	0.433674	1.205970
H361	H	0.540427	-0.266282	0.514159
H362	H	0.873760	0.067052	0.847492
H363	H	1.207093	0.400385	1.180826
H364	H	0.391697	-0.076652	-0.099912
H365	H	0.725030	0.256681	0.233422
H366	H	1.058363	0.590015	0.566755
O367	O	0.386945	-0.076699	0.108591
O368	O	0.720278	0.256635	0.441925
O369	O	1.053611	0.589968	0.775258
C370	C	0.345860	-0.125621	0.111890
C371	C	0.679193	0.207712	0.445223
C372	C	1.012527	0.541045	0.778557
H373	H	0.334714	-0.141953	0.064062
H374	H	0.668047	0.191381	0.397395
H375	H	1.001381	0.524714	0.730729
H376	H	0.305607	-0.114025	0.135212
H377	H	0.638940	0.219308	0.468545
H378	H	0.972274	0.552642	0.801878
H379	H	0.364036	-0.160446	0.139063
H380	H	0.697369	0.172887	0.472397
H381	H	1.030703	0.506221	0.805730
H382	H	0.762627	0.765949	0.000053
H383	H	1.095960	1.099282	0.333386
H384	H	1.429294	1.432615	0.666719
O385	O	0.595467	-0.150724	0.270146
O386	O	0.928801	0.182610	0.603479
O387	O	1.262134	0.515943	0.936812
C388	C	0.539147	-0.141767	0.254591
C389	C	0.872480	0.191567	0.587924
C390	C	1.205814	0.524900	0.921257
H391	H	0.539134	-0.096172	0.237097
H392	H	0.872468	0.237161	0.570430
H393	H	1.205801	0.570495	0.903764
H394	H	0.510526	-0.148457	0.296422
H395	H	0.843860	0.184877	0.629756
H396	H	1.177193	0.518210	0.963089
H397	H	0.522237	-0.173427	0.217676
H398	H	0.855571	0.159906	0.551009
H399	H	1.188904	0.493240	0.884343
H400	H	0.601689	-0.144642	0.734950
H401	H	0.935022	0.188692	1.068283
H402	H	1.268356	0.522025	1.401617
H403	H	0.743022	-0.003375	0.850325
H404	H	1.076356	0.329958	1.183658
H405	H	1.409689	0.663292	1.516991
O406	O	0.230939	-0.074777	-0.163604
O407	O	0.564272	0.258556	0.169729
O408	O	0.897606	0.591889	0.503062
C409	C	0.258545	-0.124533	-0.166920
C410	C	0.591879	0.208800	0.166413
C411	C	0.925212	0.542134	0.499747
H412	H	0.265205	-0.141090	-0.119097
H413	H	0.598538	0.192244	0.214236
H414	H	0.931871	0.525577	0.547570
H415	H	0.301826	-0.113945	-0.190244
H416	H	0.635159	0.219388	0.143089
H417	H	0.968492	0.552721	0.476423
H418	H	0.230930	-0.158796	-0.194099
H419	H	0.564264	0.174537	0.139234
H420	H	0.897597	0.507870	0.472568
O421	O	-0.042430	-0.071422	0.108699
O422	O	0.290904	0.261911	0.442032
O423	O	0.624237	0.595245	0.775366
C424	C	-0.081388	-0.070977	0.157317
C425	C	0.251946	0.262357	0.490650
C426	C	0.585279	0.595690	0.823984
H427	H	-0.121270	-0.052439	0.141170
H428	H	0.212063	0.280894	0.474503
H429	H	0.545397	0.614228	0.807836
H430	H	-0.060458	-0.043530	0.195846
H431	H	0.272875	0.289803	0.529179
H432	H	0.606208	0.623137	0.862512
H433	H	-0.093937	-0.116599	0.174249
H434	H	0.239396	0.216734	0.507583
H435	H	0.572730	0.550068	0.840916
H436	H	-0.047016	-0.071358	-0.099898
H437	H	0.286318	0.261975	0.233436
H438	H	0.619651	0.595308	0.566769
O439	O	0.556673	-0.189709	0.437289
O440	O	0.890007	0.143625	0.770622
O441	O	1.223340	0.476958	1.103955
C442	C	0.586967	-0.224700	0.400506
C443	C	0.920301	0.108633	0.733840
C444	C	1.253634	0.441966	1.067173
H445	H	0.631661	-0.201786	0.390968
H446	H	0.964994	0.131547	0.724301
H447	H	1.298327	0.464880	1.057635
H448	H	0.563141	-0.233839	0.355783
H449	H	0.896475	0.099495	0.689116
H450	H	1.229808	0.432828	1.022449
H451	H	0.590596	-0.266770	0.425023
H452	H	0.923930	0.066563	0.758357
H453	H	1.257263	0.399897	1.091690
H454	H	0.601705	-0.144644	0.850333
H455	H	0.935039	0.188690	1.183666
H456	H	1.268372	0.522023	1.516999
H457	H	0.499462	-0.077951	-0.099909
H458	H	0.832795	0.255382	0.233425
H459	H	1.166128	0.588715	0.566758
H460	H	0.499435	-0.077989	0.099971
H461	H	0.832768	0.255344	0.433304
H462	H	1.166102	0.588678	0.766638
H463	H	0.743020	-0.003376	0.734925
H464	H	1.076354	0.329957	1.068258
H465	H	1.409687	0.663291	1.401591
H466	H	0.582056	0.086007	0.000058
H467	H	0.915389	0.419340	0.333391
H468	H	1.248723	0.752673	0.666724
O469	O	0.113897	-0.073258	-0.163694
O470	O	0.447230	0.260076	0.169640
O471	O	0.780564	0.593409	0.502973
C472	C	0.152858	-0.073732	-0.212305
C473	C	0.486191	0.259602	0.121028
C474	C	0.819524	0.592935	0.454361
H475	H	0.197658	-0.056218	-0.196144
H476	H	0.530991	0.277116	0.137190
H477	H	0.864324	0.610449	0.470523
H478	H	0.139483	-0.045859	-0.250825
H479	H	0.472816	0.287475	0.082508
H480	H	0.806150	0.620808	0.415842
H481	H	0.152937	-0.119500	-0.229257
H482	H	0.486270	0.213834	0.104077
H483	H	0.819604	0.547167	0.437410
H484	H	0.781950	0.035550	0.557714
H485	H	1.115283	0.368883	0.891047
H486	H	1.448617	0.702216	1.224380
H487	H	0.817825	0.499782	0.000059
H488	H	1.151158	0.833115	0.333393
H489	H	1.484492	1.166448	0.666726
H490	H	-0.154783	-0.070096	0.099989
H491	H	0.178550	0.263237	0.433323
H492	H	0.511883	0.596571	0.766656
O493	O	0.595617	-0.150809	0.144705
O494	O	0.928950	0.182524	0.478038
O495	O	1.262283	0.515858	0.811372
C496	C	0.625911	-0.185796	0.107917
C497	C	0.959244	0.147537	0.441251
C498	C	1.292578	0.480870	0.774584
H499	H	0.670607	-0.162885	0.098390
H500	H	1.003940	0.170449	0.431723
H501	H	1.337274	0.503782	0.765056
H502	H	0.602090	-0.194922	0.063189
H503	H	0.935423	0.138411	0.396522
H504	H	1.268756	0.471744	0.729856
H505	H	0.629532	-0.227872	0.132425
H506	H	0.962866	0.105461	0.465758
H507	H	1.296199	0.438794	0.799091
H508	H	0.574220	0.740232	0.000044
H509	H	0.907554	1.073565	0.333377
H510	H	1.240887	1.406898	0.666710
O511	O	-0.159344	-0.069986	-0.108597
O512	O	0.173989	0.263347	0.224737
O513	O	0.507323	0.596681	0.558070
C514	C	-0.120388	-0.070461	-0.157213
C515	C	0.212945	0.262872	0.176120
C516	C	0.546278	0.596206	0.509454
H517	H	-0.075588	-0.052939	-0.141059
H518	H	0.257745	0.280394	0.192274
H519	H	0.591079	0.613727	0.525608
H520	H	-0.133772	-0.042596	-0.195735
H521	H	0.199561	0.290738	0.137599
H522	H	0.532895	0.624071	0.470932
H523	H	-0.120305	-0.116231	-0.174158
H524	H	0.213028	0.217103	0.159175
H525	H	0.546362	0.550436	0.492508
O526	O	0.778724	0.108253	0.000053
O527	O	1.112058	0.441586	0.333386
O528	O	1.445391	0.774920	0.666719
C529	C	0.824083	0.153459	0.000069
C530	C	1.157416	0.486793	0.333402
C531	C	1.490749	0.820126	0.666736
H532	H	0.808353	0.193722	-0.019066
H533	H	1.141687	0.527055	0.314267
H534	H	1.475020	0.860389	0.647601
H535	H	0.860608	0.141253	-0.029265
H536	H	1.193941	0.474586	0.304069
H537	H	1.527274	0.807919	0.637402
H538	H	0.839965	0.161959	0.048549
H539	H	1.173298	0.495292	0.381882
H540	H	1.506632	0.828625	0.715215
H541	H	0.769176	0.219466	0.000064
H542	H	1.102510	0.552799	0.333397
H543	H	1.435843	0.886133	0.666730
H544	H	0.763923	0.658183	0.000057
H545	H	1.097257	0.991517	0.333391
H546	H	1.430590	1.324850	0.666724
H547	H	0.781946	0.035542	0.442334
H548	H	1.115279	0.368875	0.775667
H549	H	1.448613	0.702208	1.109001
O550	O	0.827379	0.388575	0.000040
O551	O	1.160712	0.721909	0.333373
O552	O	1.494046	1.055242	0.666706
C553	C	0.872733	0.433786	0.000058
C554	C	1.206066	0.767119	0.333391
C555	C	1.539400	1.100453	0.666724
H556	H	0.856998	0.474047	-0.019074
H557	H	1.190332	0.807381	0.314259
H558	H	1.523665	1.140714	0.647593
H559	H	0.909259	0.421585	-0.029278
H560	H	1.242593	0.754919	0.304055
H561	H	1.575926	1.088252	0.637389
H562	H	0.888615	0.442284	0.048538
H563	H	1.221949	0.775618	0.381871
H564	H	1.555282	1.108951	0.715204
H565	H	0.575509	0.632483	0.000033
H566	H	0.908842	0.965816	0.333366
H567	H	1.242175	1.299149	0.666699
O568	O	0.749164	0.002746	0.270038
O569	O	1.082498	0.336079	0.603371
O570	O	1.415831	0.669412	0.936704
C571	C	0.783524	0.037108	0.228314
C572	C	1.116857	0.370441	0.561647
C573	C	1.450190	0.703774	0.894980
H574	H	0.784027	0.013752	0.182977
H575	H	1.117360	0.347085	0.516310
H576	H	1.450694	0.680418	0.849644
H577	H	0.829057	0.046039	0.246680
H578	H	1.162390	0.379372	0.580013
H579	H	1.495723	0.712705	0.913347
H580	H	0.765272	0.079318	0.221546
H581	H	1.098605	0.412651	0.554879
H582	H	1.431939	0.745984	0.888212
H583	H	0.525567	0.459902	0.000010
H584	H	0.858901	0.793236	0.333344
H585	H	1.192234	1.126569	0.666677
H586	H	0.526862	0.352154	0.000011
H587	H	0.860195	0.685487	0.333345
H588	H	1.193528	1.018820	0.666678
H589	H	0.580761	0.193774	0.000065
H590	H	0.914094	0.527108	0.333398
H591	H	1.247427	0.860441	0.666731
O592	O	0.748994	0.002793	0.144720
O593	O	1.082328	0.336127	0.478053
O594	O	1.415661	0.669460	0.811387
C595	C	0.718637	0.037771	0.107996
C596	C	1.051970	0.371104	0.441329
C597	C	1.385304	0.704438	0.774662
H598	H	0.673975	0.014796	0.098432
H599	H	1.007309	0.348129	0.431765
H600	H	1.340642	0.681463	0.765099
H601	H	0.742457	0.047007	0.063281
H602	H	1.075791	0.380340	0.396615
H603	H	1.409124	0.713673	0.729948
H604	H	0.714930	0.079794	0.132576
H605	H	1.048263	0.413127	0.465910
H606	H	1.381597	0.746460	0.799243
