data_functionalizedCrystal
_audit_creation_method	'MofGen! by Chris Wilmer'
_symmetry_space_group_name_H-M	'P1'
_symmetry_Int_Tables_number	1
_symmetry_cell_setting	triclinic
loop_
_symmetry_equiv_pos_as_xyz
  x,y,z
_cell_length_a	27.732048
_cell_length_b	14.971486
_cell_length_c	26.809956
_cell_angle_alpha	90.018941
_cell_angle_beta	89.988846
_cell_angle_gamma	96.871608
loop_
_atom_site_label
_atom_site_type_symbol
_atom_site_fract_x
_atom_site_fract_y
_atom_site_fract_z
O1	O	0.062989	-1.185975	-0.041428
O2	O	0.070532	-0.925455	-0.041442
O3	O	-0.003599	-1.063806	-0.041425
O4	O	0.137120	-1.047624	-0.041445
O5	O	-0.003600	-1.063744	0.041534
O6	O	0.070531	-0.925393	0.041517
O7	O	0.062988	-1.185912	0.041531
Zn8	Zn	0.066760	-1.055643	0.054696
Zn9	Zn	0.066761	-1.055725	-0.054607
O10	O	0.137119	-1.047561	0.041514
C11	C	0.070195	-0.892105	0.000036
C12	C	0.069184	-0.792824	0.000031
C13	C	-0.021608	-1.063435	0.000056
C14	C	-0.075267	-1.062412	0.000060
C15	C	0.063326	-1.219263	0.000052
C16	C	0.064337	-1.318544	0.000054
C17	C	-0.413735	-1.137729	0.000038
C18	C	-0.615412	-1.133934	0.000031
O19	O	-0.646350	-1.202806	0.000013
N20	N	-0.634914	-1.051898	0.000027
C21	C	-0.603994	-0.970804	0.000022
O22	O	-0.625209	-0.900940	0.000013
C23	C	-0.402318	-0.974601	0.000025
C24	C	-0.382818	-1.056642	0.000034
C25	C	-0.394235	-1.219764	0.000047
C26	C	-0.343819	-1.220712	0.000052
C27	C	-0.312902	-1.139625	0.000048
C28	C	-0.332402	-1.057590	0.000039
C29	C	-0.371398	-0.893508	0.000016
C30	C	-0.320976	-0.894464	0.000016
C31	C	-0.301477	-0.976506	0.000025
C32	C	-0.251069	-0.977451	0.000039
N33	N	-0.231567	-1.059487	0.000043
C34	C	-0.262483	-1.140574	0.000048
C35	C	-0.709877	-0.968817	0.000021
C36	C	-0.760296	-0.967868	0.000021
C37	C	-0.771710	-1.130998	0.000029
C38	C	-0.721291	-1.131946	0.000033
C39	C	-0.690375	-1.050854	0.000025
C40	C	-0.156605	-1.142559	0.000057
C41	C	-0.106184	-1.143499	0.000064
C42	C	-0.094773	-0.980370	0.000053
C43	C	-0.145190	-0.979429	0.000049
C44	C	-0.176105	-1.060530	0.000049
O45	O	-0.220103	-0.908616	0.000052
O46	O	-0.241258	-1.210428	0.000045
C47	C	-0.464151	-1.136781	0.000034
C48	C	-0.483651	-1.054746	0.000025
C49	C	-0.452734	-0.973659	0.000021
C50	C	-0.534070	-1.053797	0.000025
C51	C	-0.564986	-1.134884	0.000029
C52	C	-0.545484	-1.216921	0.000033
C53	C	-0.495067	-1.217868	0.000038
C54	C	-0.472237	-0.891623	0.000017
C55	C	-0.522654	-0.890682	0.000013
C56	C	-0.553570	-0.971769	0.000017
C57	C	0.155128	-1.047932	0.000032
C58	C	0.208788	-1.048955	0.000025
N59	N	0.066758	-1.055593	0.129292
C60	C	0.112734	-0.734910	0.000025
C61	C	0.111781	-0.641626	0.000033
C62	C	0.067278	-0.606257	0.000042
C63	C	0.023724	-0.664177	0.000049
C64	C	0.024678	-0.757460	0.000045
C65	C	0.021741	-0.469746	0.000056
C66	C	0.020787	-0.376457	0.000060
C67	C	0.108844	-0.353912	0.000044
C68	C	0.109797	-0.447195	0.000040
C69	C	0.066243	-0.505109	0.000046
N70	N	0.066758	-1.055782	-0.129203
C71	C	0.099570	-0.994402	0.526168
C72	C	0.099570	-0.994355	0.317290
O73	O	0.127463	-0.942215	0.290283
N74	N	0.066757	-1.055624	0.291170
C75	C	0.033939	-1.116906	0.317273
O76	O	0.006026	-1.169012	0.290264
C77	C	0.033937	-1.116947	0.526150
C78	C	0.066756	-1.055680	0.552267
C79	C	0.132386	-0.933139	0.552284
C80	C	0.132388	-0.933154	0.604501
C81	C	0.099573	-0.994433	0.630600
C82	C	0.066757	-1.055696	0.604483
C83	C	0.001117	-1.178224	0.552252
C84	C	0.001119	-1.178227	0.604475
C85	C	0.033938	-1.116960	0.630592
C86	C	0.033944	-1.116990	0.682799
N87	N	0.066758	-1.055720	0.708919
C88	C	0.099572	-0.994442	0.682819
C89	C	0.033943	-1.116881	0.207610
C90	C	0.033944	-1.116872	0.155391
C91	C	0.099575	-0.994319	0.155411
C92	C	0.099576	-0.994334	0.207631
C93	C	0.066756	-1.055611	0.233730
C94	C	0.099573	-0.994480	0.792477
C95	C	0.099573	-0.994503	0.844698
C96	C	0.033940	-1.117052	0.844673
C97	C	0.033942	-1.117032	0.792457
C98	C	0.066760	-1.055738	0.766360
O99	O	0.006063	-1.169095	0.709838
O100	O	0.127474	-0.942331	0.709837
C101	C	0.099569	-0.994386	0.473951
C102	C	0.066753	-1.055649	0.447834
C103	C	0.033939	-1.116928	0.473934
C104	C	0.066754	-1.055640	0.395615
C105	C	0.099568	-0.994362	0.369516
C106	C	0.132382	-0.933092	0.395636
C107	C	0.132383	-0.933108	0.447852
C108	C	0.001125	-1.178197	0.447814
C109	C	0.001127	-1.178177	0.395598
C110	C	0.033941	-1.116899	0.369499
H111	H	-0.090310	-1.210310	0.000073
H112	H	0.007217	-1.166783	0.228856
H113	H	-0.025597	-1.228096	0.469060
H114	H	-0.479196	-1.284675	0.000045
Cl115	Cl	-0.395899	-0.790363	0.000002
H116	H	0.159103	-0.883200	0.374377
Cl117	Cl	0.166532	-0.568823	0.000023
H118	H	0.159110	-0.883263	0.625762
H119	H	-0.010785	-0.804613	0.000049
Cl120	Cl	-0.040144	-1.255247	0.519430
Cl121	Cl	-0.282113	-0.792512	0.000005
Cl122	Cl	-0.810586	-1.232935	0.000032
H123	H	-0.705418	-1.198752	0.000040
Cl124	Cl	-0.547160	-0.787533	0.000004
H125	H	-0.025608	-1.228126	0.625722
H126	H	-0.447069	-0.825590	0.000013
Cl127	Cl	-0.007312	-1.194065	0.759626
H128	H	0.159108	-0.883234	0.531039
Cl129	Cl	-0.319313	-1.323856	0.000049
Cl130	Cl	0.140835	-0.917477	0.877528
Cl131	Cl	-0.169704	-0.876290	0.000047
H132	H	-0.069592	-0.914351	0.000051
Cl133	Cl	0.165745	-0.491657	0.000023
Cl134	Cl	-0.035161	-0.331994	0.000088
H135	H	-0.570665	-1.282944	0.000039
H136	H	0.144307	-0.306753	0.000041
Cl137	Cl	-0.040134	-1.255210	0.362771
H138	H	-0.419403	-1.285799	0.000048
Cl139	Cl	0.168684	-0.779364	0.000010
Cl140	Cl	-0.784803	-0.864726	0.000019
H141	H	-0.013726	-0.516899	0.000062
Cl142	Cl	-0.007310	-1.194085	0.877492
H143	H	-0.684709	-0.902778	0.000014
Cl144	Cl	-0.032223	-0.619713	0.000064
Cl145	Cl	0.140832	-0.917425	0.759678
H146	H	0.126299	-0.944444	0.228892
Cl147	Cl	0.140826	-0.917283	0.122590
H148	H	0.159107	-0.883218	0.469112
H149	H	-0.181771	-1.208600	0.000056
Cl150	Cl	-0.007309	-1.193908	0.122565
