data_functionalizedCrystal
_audit_creation_method	'MofGen! by Chris Wilmer'
_symmetry_space_group_name_H-M	'P1'
_symmetry_Int_Tables_number	1
_symmetry_cell_setting	triclinic
loop_
_symmetry_equiv_pos_as_xyz
  x,y,z
_cell_length_a	12.759401
_cell_length_b	21.295417
_cell_length_c	12.759393
_cell_angle_alpha	89.962952
_cell_angle_beta	89.979062
_cell_angle_gamma	90.031227
loop_
_atom_site_label
_atom_site_type_symbol
_atom_site_fract_x
_atom_site_fract_y
_atom_site_fract_z
Zn1	Zn	1.606157	-0.250553	-0.593972
Zn2	Zn	2.106157	0.249447	-0.093972
Zn3	Zn	1.606002	-0.355835	-0.418272
Zn4	Zn	2.106002	0.144165	0.081728
Zn5	Zn	1.430456	-0.250587	-0.418307
Zn6	Zn	1.930456	0.249413	0.081693
Zn7	Zn	1.430401	-0.355791	-0.593909
Zn8	Zn	1.930401	0.144209	-0.093909
O9	O	1.518254	-0.303192	-0.506115
O10	O	2.018254	0.196808	-0.006115
O11	O	1.753157	-0.264523	-0.570677
O12	O	2.253157	0.235477	-0.070677
O13	O	1.582673	-0.341906	-0.271256
O14	O	2.082673	0.158094	0.228744
O15	O	1.453850	-0.162493	-0.441651
O16	O	1.953850	0.337507	0.058349
O17	O	1.753043	-0.341874	-0.441591
O18	O	2.253043	0.158126	0.058409
O19	O	1.582937	-0.162468	-0.570711
O20	O	2.082937	0.337532	-0.070711
O21	O	1.453700	-0.264581	-0.271282
O22	O	1.953700	0.235419	0.228718
O23	O	1.283427	-0.264538	-0.441590
O24	O	1.783427	0.235462	0.058410
O25	O	1.453758	-0.341799	-0.740939
O26	O	1.953758	0.158201	-0.240939
O27	O	1.283388	-0.341831	-0.570604
O28	O	1.783388	0.158169	-0.070604
O29	O	1.582885	-0.264481	-0.740985
O30	O	2.082885	0.235519	-0.240985
O31	O	1.582621	-0.443919	-0.441530
O32	O	2.082621	0.056081	0.058470
O33	O	1.453608	-0.443886	-0.570570
O34	O	1.953608	0.056114	-0.070570
C35	C	1.245287	-0.303184	-0.506095
C36	C	1.745287	0.196816	-0.006095
C37	C	1.128510	-0.303196	-0.506111
C38	C	1.628510	0.196804	-0.006111
C39	C	1.073655	-0.343504	-0.573182
C40	C	1.573655	0.156496	-0.073182
C41	C	0.963931	-0.343506	-0.573203
C42	C	1.463931	0.156494	-0.073203
C43	C	0.963927	-0.262891	-0.439071
C44	C	1.463927	0.237109	0.060929
C45	C	1.073649	-0.262886	-0.439057
C46	C	1.573649	0.237114	0.060943
C47	C	1.518120	-0.466743	-0.506062
C48	C	2.018120	0.033257	-0.006062
C49	C	1.518159	-0.536711	-0.506075
C50	C	2.018159	-0.036711	-0.006075
C51	C	1.585336	-0.569508	-0.573324
C52	C	2.085336	-0.069508	-0.073324
C53	C	1.585373	-0.635250	-0.573350
C54	C	2.085373	-0.135250	-0.073350
C55	C	1.518244	-0.668194	-0.506108
C56	C	2.018244	-0.168194	-0.006108
C57	C	1.451054	-0.635389	-0.438853
C58	C	1.951054	-0.135389	0.061147
C59	C	1.451011	-0.569648	-0.438837
C60	C	1.951011	-0.069648	0.061163
N61	N	1.510303	-0.771462	-0.414161
N62	N	2.010303	-0.271462	0.085839
N63	N	1.510350	-0.833913	-0.414180
N64	N	2.010350	-0.333913	0.085820
C65	C	1.518367	-0.866268	-0.506155
C66	C	2.018367	-0.366268	-0.006155
N67	N	1.526356	-0.833813	-0.598113
N68	N	2.026356	-0.333813	-0.098113
N69	N	1.526315	-0.771356	-0.598093
N70	N	2.026315	-0.271356	-0.098093
C71	C	1.518282	-0.739479	-0.506119
C72	C	2.018282	-0.239479	-0.006119
C73	C	1.585588	-0.970351	-0.573439
C74	C	2.085588	-0.470351	-0.073439
C75	C	1.585617	-1.036094	-0.573466
C76	C	2.085617	-0.536094	-0.073466
C77	C	1.451304	-1.036232	-0.438960
C78	C	1.951304	-0.536232	0.061040
C79	C	1.451269	-0.970489	-0.438942
C80	C	1.951269	-0.470489	0.061058
C81	C	1.518416	-0.937553	-0.506180
C82	C	2.018416	-0.437553	-0.006180
C83	C	1.792287	-0.303200	-0.506137
C84	C	2.292287	0.196800	-0.006137
C85	C	1.909064	-0.303203	-0.506146
C86	C	2.409064	0.196797	-0.006146
C87	C	1.518333	-0.303131	-0.780149
C88	C	2.018333	0.196869	-0.280149
C89	C	1.518366	-0.303105	-0.896926
C90	C	2.018366	0.196895	-0.396926
C91	C	1.518417	-0.139001	-0.506192
C92	C	2.018417	0.360999	-0.006192
C93	C	1.518486	-0.069033	-0.506224
C94	C	2.018486	0.430967	-0.006224
C95	C	1.585607	-0.262839	-0.951813
C96	C	2.085607	0.237161	-0.451813
C97	C	1.585625	-0.262812	-1.061537
C98	C	2.085625	0.237188	-0.561537
C99	C	1.451157	-0.343322	-1.061477
C100	C	1.951157	0.156678	-0.561477
C101	C	1.451135	-0.343346	-0.951754
C102	C	1.951135	0.156654	-0.451754
C103	C	1.518236	-0.303206	-0.233148
C104	C	2.018236	0.196794	0.266852
C105	C	1.518406	-0.303055	-0.116372
C106	C	2.018406	0.196945	0.383628
H107	H	0.919245	-0.230073	-0.384477
H108	H	1.419245	0.269927	0.115523
O109	O	1.132823	-0.386965	-0.645531
O110	O	1.632823	0.113035	-0.145531
H111	H	1.218337	-0.380191	-0.634255
H112	H	1.718337	0.119809	-0.134255
H113	H	1.396372	-0.376135	-0.907064
H114	H	1.896372	0.123865	-0.407064
H115	H	1.118313	-0.230058	-0.384438
H116	H	1.618313	0.269942	0.115562
O117	O	1.378647	-0.670915	-0.366325
O118	O	1.878647	-0.170915	0.133675
H119	H	1.396696	-0.658318	-0.283883
H120	H	1.896696	-0.158318	0.216117
O121	O	0.904830	-0.387016	-0.645540
O122	O	1.404830	0.112984	-0.145540
H123	H	0.854887	-0.358921	-0.699140
H124	H	1.354887	0.141079	-0.199140
O125	O	1.378893	-1.071754	-0.366435
O126	O	1.878893	-0.571754	0.133565
H127	H	1.396943	-1.059161	-0.283992
H128	H	1.896943	-0.559161	0.216008
O129	O	1.657830	-0.670631	-0.645893
O130	O	2.157830	-0.170631	-0.145893
H131	H	1.646570	-0.721879	-0.634613
H132	H	2.146570	-0.221879	-0.134613
H133	H	1.640009	-0.542693	-0.628076
H134	H	2.140009	-0.042693	-0.128076
H135	H	1.396306	-0.542944	-0.384073
H136	H	1.896306	-0.042944	0.115927
O137	O	1.657997	-0.934818	-0.645962
O138	O	2.157997	-0.434818	-0.145962
H139	H	1.704706	-0.968672	-0.692744
H140	H	2.204706	-0.468672	-0.192744
H141	H	1.640321	-1.062796	-0.628234
H142	H	2.140321	-0.562796	-0.128234
O143	O	1.378829	-0.935114	-0.366384
O144	O	1.878829	-0.435114	0.133616
H145	H	1.296369	-0.947772	-0.384319
H146	H	1.796369	-0.447772	0.115681
O147	O	1.658108	-0.219435	-0.892671
O148	O	2.158108	0.280565	-0.392671
H149	H	1.704861	-0.191427	-0.949276
H150	H	2.204861	0.308573	-0.449276
H151	H	1.396423	-0.376086	-1.106132
H152	H	1.896423	0.123914	-0.606132
O153	O	1.658155	-0.219387	-1.120742
O154	O	2.158155	0.280613	-0.620742
H155	H	1.704903	-0.191415	-1.064179
H156	H	2.204903	0.308585	-0.564179
