data_functionalizedCrystal
_audit_creation_method	'MofGen! by Chris Wilmer'
_symmetry_space_group_name_H-M	'P1'
_symmetry_Int_Tables_number	1
_symmetry_cell_setting	triclinic
loop_
_symmetry_equiv_pos_as_xyz
  x,y,z
_cell_length_a	14.908571
_cell_length_b	12.759394
_cell_length_c	14.908308
_cell_angle_alpha	86.731597
_cell_angle_beta	89.824947
_cell_angle_gamma	86.711101
loop_
_atom_site_label
_atom_site_type_symbol
_atom_site_fract_x
_atom_site_fract_y
_atom_site_fract_z
Zn1	Zn	1.345341	-0.548282	0.587592
Zn2	Zn	1.353935	-0.714462	0.437236
Zn3	Zn	1.203654	-0.528102	0.428590
Zn4	Zn	1.194963	-0.713213	0.578887
O5	O	1.274473	-0.626015	0.508076
O6	O	1.472308	-0.579294	0.574908
O7	O	1.341234	-0.681818	0.310264
O8	O	1.222490	-0.383762	0.449706
O9	O	1.478622	-0.701385	0.464442
O10	O	1.326587	-0.398588	0.566525
O11	O	1.230824	-0.544900	0.303912
O12	O	1.076675	-0.543690	0.441266
O13	O	1.207676	-0.699258	0.705867
O14	O	1.070289	-0.679690	0.551688
O15	O	1.318159	-0.578083	0.712262
O16	O	1.332806	-0.861313	0.456001
O17	O	1.216010	-0.860396	0.560072
C18	C	1.040856	-0.609365	0.494595
C19	C	0.940913	-0.602270	0.488849
C20	C	0.746516	-0.730752	0.592880
C21	C	0.652610	-0.724088	0.587484
C22	C	0.659192	-0.582274	0.472666
C23	C	0.753098	-0.588938	0.478062
C24	C	0.796757	-0.663180	0.538170
C25	C	0.890665	-0.669848	0.543561
C26	C	0.897246	-0.528030	0.428748
C27	C	0.803340	-0.521366	0.423352
C28	C	1.274420	-0.898977	0.508051
C29	C	1.274478	-1.015759	0.508075
C30	C	1.396180	-1.016672	0.399798
C31	C	1.457053	-1.071992	0.345671
C32	C	1.457105	-1.181719	0.345698
C33	C	1.396278	-1.236129	0.399860
C34	C	1.335404	-1.180809	0.453987
C35	C	1.335358	-1.071079	0.453952
C36	C	1.213709	-1.179897	0.562269
C37	C	1.213651	-1.070169	0.562238
C38	C	1.152882	-1.234306	0.616431
C39	C	1.092002	-1.178986	0.670555
C40	C	1.091953	-1.069252	0.670524
C41	C	1.152778	-1.014849	0.616365
C42	C	1.509002	-0.642730	0.521611
C43	C	1.608945	-0.649853	0.527378
C44	C	1.260989	-0.640782	0.742602
C45	C	1.255243	-0.647075	0.842543
C46	C	1.274549	-0.351989	0.508122
C47	C	1.274582	-0.235216	0.508142
C48	C	1.287956	-0.611232	0.274466
C49	C	1.293877	-0.604656	0.174536
C50	C	1.359488	-0.532697	1.037003
C51	C	1.354092	-0.538606	1.130907
C52	C	1.239051	-0.664798	1.124254
C53	C	1.244447	-0.658888	1.030351
C54	C	1.304669	-0.592837	0.986729
C55	C	1.310069	-0.586934	0.892824
C56	C	1.195024	-0.713118	0.886173
C57	C	1.189627	-0.719028	0.980077
H58	H	0.623629	-0.521823	0.423735
C59	C	1.577349	-1.083913	0.238631
C60	C	1.523909	-1.012184	0.286132
H61	H	1.618626	-1.046991	0.201880
H62	H	1.540194	-1.121812	0.201968
H63	H	1.609483	-1.131572	0.279835
H64	H	1.491771	-0.964530	0.244928
H65	H	1.561069	-0.974267	0.322798
C66	C	1.423230	-0.462783	0.908834
C67	C	1.376259	-0.514327	0.844871
H68	H	1.464088	-0.417951	0.879230
H69	H	1.455511	-0.513308	0.947434
H70	H	1.381945	-0.422118	0.943207
H71	H	1.417543	-0.554998	0.810502
H72	H	1.343977	-0.463794	0.806255
H73	H	1.506677	-1.226761	0.301628
C74	C	0.934868	-0.469052	0.278223
C75	C	0.952472	-0.453747	0.368605
H76	H	0.968967	-0.423199	0.241094
H77	H	0.872700	-0.454455	0.266417
H78	H	0.951015	-0.539880	0.265858
H79	H	0.936319	-0.382921	0.380971
H80	H	1.014654	-0.468336	0.380415
C81	C	0.540086	-0.739015	0.702345
C82	C	0.597383	-0.798364	0.647622
H83	H	0.505996	-0.784874	0.739477
H84	H	0.500647	-0.693861	0.665776
H85	H	0.574761	-0.698074	0.738906
H86	H	0.562708	-0.839300	0.611056
H87	H	0.636826	-0.843537	0.684196
C88	C	0.910865	-0.732913	0.697407
C89	C	0.938659	-0.751447	0.609634
H90	H	0.940498	-0.783286	0.738199
H91	H	0.847755	-0.738619	0.702017
H92	H	0.925506	-0.664269	0.711535
H93	H	0.924011	-0.820089	0.595503
H94	H	1.001783	-0.745751	0.605020
H95	H	1.396133	-0.927325	0.399758
C96	C	1.134774	-0.850721	0.529447
C97	C	1.152728	-0.894236	0.616328
H98	H	1.134752	-0.776260	0.529425
H99	H	1.077669	-0.870488	0.510529
H100	H	1.179735	-0.875894	0.489468
H101	H	1.107763	-0.869069	0.656307
H102	H	1.209840	-0.874460	0.635258
H103	H	0.767780	-0.460918	0.374416
H104	H	1.396332	-1.325475	0.399886
C105	C	1.068749	-1.384048	0.588575
C106	C	1.152935	-1.354920	0.616472
H107	H	1.068780	-1.458511	0.588608
H108	H	1.056576	-1.354524	0.529642
H109	H	1.023800	-1.358876	0.628567
H110	H	1.197884	-1.380086	0.576476
H111	H	1.165118	-1.384457	0.675414
H112	H	1.042486	-1.223296	0.714653
C113	C	0.971668	-1.079383	0.777567
C114	C	1.025040	-1.008449	0.730026
H115	H	0.930356	-1.041846	0.814298
H116	H	1.008865	-1.127076	0.814254
H117	H	0.939576	-1.117322	0.736388
H118	H	1.057137	-0.970516	0.771206
H119	H	0.987838	-0.960738	0.693336
C120	C	1.468351	-0.413286	1.128046
C121	C	1.414356	-0.472504	1.186169
H122	H	1.505560	-0.372481	1.162165
H123	H	1.431289	-0.368007	1.089170
H124	H	1.504837	-0.459216	1.093395
H125	H	1.377865	-0.426575	1.220816
H126	H	1.451422	-0.517788	1.225062
C127	C	1.179682	-0.729851	1.265252
C128	C	1.172846	-0.737379	1.172214
H129	H	1.138809	-0.774661	1.294859
H130	H	1.165667	-0.659294	1.279874
H131	H	1.239208	-0.750511	1.284122
H132	H	1.113322	-0.716711	1.153343
H133	H	1.186856	-0.807950	1.157586
H134	H	1.408528	-0.478921	1.001486
C135	C	1.144129	-0.895628	1.006438
C136	C	1.123436	-0.791631	1.028030
H137	H	1.103261	-0.940450	1.036038
H138	H	1.203648	-0.916260	1.025315
H139	H	1.139496	-0.900703	0.943315
H140	H	1.128075	-0.786555	1.091152
H141	H	1.063902	-0.770993	1.009158
H142	H	0.782063	-0.791208	0.641817
C143	C	1.152211	-0.760098	0.739274
C144	C	1.134759	-0.779229	0.830909
H145	H	1.115005	-0.800910	0.705158
H146	H	1.213499	-0.778808	0.727375
H147	H	1.139949	-0.687602	0.723141
H148	H	1.147028	-0.851724	0.847043
H149	H	1.073457	-0.760526	0.842813
