data_functionalizedCrystal
_audit_creation_method	'MofGen! by Chris Wilmer'
_symmetry_space_group_name_H-M	'P1'
_symmetry_Int_Tables_number	1
_symmetry_cell_setting	triclinic
loop_
_symmetry_equiv_pos_as_xyz
  x,y,z
_cell_length_a	12.827892
_cell_length_b	21.395364
_cell_length_c	21.395355
_cell_angle_alpha	90.025298
_cell_angle_beta	89.986862
_cell_angle_gamma	89.967907
loop_
_atom_site_label
_atom_site_type_symbol
_atom_site_fract_x
_atom_site_fract_y
_atom_site_fract_z
Zn1	Zn	-0.415688	-0.957926	-0.354297
Zn2	Zn	-0.590415	-0.957856	-0.249530
Zn3	Zn	-0.415740	-0.853141	-0.249533
Zn4	Zn	-0.590439	-0.853138	-0.354269
O5	O	-0.503070	-0.905515	-0.301907
O6	O	-0.438835	-1.045595	-0.340411
O7	O	-0.567255	-0.943938	-0.161852
O8	O	-0.269497	-0.867071	-0.263443
O9	O	-0.567206	-1.045543	-0.263438
O10	O	-0.269459	-0.944056	-0.340413
O11	O	-0.438922	-0.867004	-0.161854
O12	O	-0.438945	-0.765463	-0.263415
O13	O	-0.567247	-0.867066	-0.441950
O14	O	-0.567296	-0.765461	-0.340364
O15	O	-0.438858	-0.944053	-0.441971
O16	O	-0.736654	-0.943935	-0.263410
O17	O	-0.736672	-0.866999	-0.340361
C18	C	-0.503130	-0.742728	-0.301887
C19	C	-0.503180	-0.673086	-0.301894
C20	C	-0.436448	-0.640422	-0.342035
C21	C	-0.436424	-0.574987	-0.342036
C22	C	-0.503150	-0.542218	-0.301904
C23	C	-0.569886	-0.574890	-0.261755
C24	C	-0.569901	-0.640324	-0.261750
C25	C	-0.597265	-0.438509	-0.296870
C26	C	-0.597251	-0.373076	-0.296879
C27	C	-0.503103	-0.340397	-0.301915
C28	C	-0.408964	-0.373160	-0.306954
C29	C	-0.408980	-0.438594	-0.306950
C30	C	-0.503140	-0.471266	-0.301904
C31	C	-0.436339	-0.236781	-0.342060
C32	C	-0.436313	-0.171344	-0.342057
C33	C	-0.569784	-0.171249	-0.261778
C34	C	-0.569801	-0.236684	-0.261778
C35	C	-0.503080	-0.269446	-0.301922
C36	C	-0.774580	-0.905476	-0.301896
C37	C	-0.890733	-0.905517	-0.301912
C38	C	-0.942475	-0.943632	-0.263877
C39	C	-1.062525	-0.943675	-0.263893
C40	C	-0.230500	-0.905572	-0.301932
C41	C	-0.114347	-0.905596	-0.301942
C42	C	-0.503049	-0.905567	-0.465330
C43	C	-0.503040	-0.905589	-0.534972
C44	C	-0.503025	-0.068939	-0.301924
C45	C	-0.503038	-0.138580	-0.301923
C46	C	-0.436186	-0.945675	-0.567697
C47	C	-0.436141	-0.945674	-0.633132
C48	C	-0.502969	-0.905594	-0.665840
C49	C	-0.569828	-0.865501	-0.633107
C50	C	-0.569864	-0.865499	-0.567673
C51	C	-0.597065	-0.900633	-0.769511
C52	C	-0.597031	-0.900640	-0.834944
C53	C	-0.502859	-0.905598	-0.867661
C54	C	-0.408717	-0.910562	-0.834937
C55	C	-0.408752	-0.910560	-0.769503
C56	C	-0.502937	-0.905592	-0.736793
C57	C	-0.435950	-0.945685	-0.971339
C58	C	-0.435903	-0.945680	-1.036775
C59	C	-0.569600	-0.865510	-1.036749
C60	C	-0.569637	-0.865512	-0.971313
C61	C	-0.502814	-0.905603	-0.938612
C62	C	-0.503016	-0.905500	-0.139120
C63	C	-0.502731	-0.905599	-0.069479
H64	H	-0.332300	-0.346554	-0.311055
H65	H	-0.624002	-0.832870	-1.063379
H66	H	-0.673904	-0.346406	-0.292779
C67	C	-0.643186	-0.821422	-0.935314
H68	H	-0.682987	-0.797554	-0.964163
H69	H	-0.603235	-0.794131	-0.909774
H70	H	-0.688729	-0.845383	-0.909802
C71	C	-0.643312	-0.676259	-0.217597
H72	H	-0.633762	-0.719922	-0.223341
H73	H	-0.713546	-0.665509	-0.226693
H74	H	-0.627904	-0.665523	-0.175513
H75	H	-0.935312	-0.872919	-0.334490
C76	C	-0.362606	-0.989775	-0.669138
H77	H	-0.322819	-1.013653	-0.640290
H78	H	-0.317066	-0.965823	-0.694655
H79	H	-0.402577	-1.017065	-0.694673
C80	C	-0.362674	-0.989768	-0.531729
H81	H	-0.322845	-1.013638	-0.560595
H82	H	-0.402651	-1.017058	-0.506215
H83	H	-0.317157	-0.965805	-0.506193
H84	H	-0.673937	-0.465110	-0.292769
H85	H	-0.381456	-0.978321	-1.063419
C86	C	-0.700579	-0.895188	-0.870937
H87	H	-0.687074	-0.895909	-0.914593
H88	H	-0.734016	-0.857037	-0.860204
H89	H	-0.744527	-0.929266	-0.860226
H90	H	-0.332099	-0.914600	-0.742862
H91	H	-0.381532	-0.978326	-0.944712
C92	C	-0.882263	-0.987675	-0.219869
H93	H	-0.809474	-0.981866	-0.225629
H94	H	-0.900012	-1.029784	-0.229070
H95	H	-0.900146	-0.978538	-0.177753
H96	H	-0.624214	-0.548206	-0.229078
H97	H	-0.382004	-0.263457	-0.374743
C98	C	-0.305183	-0.916424	-0.870916
H99	H	-0.318658	-0.915831	-0.914572
H100	H	-0.272218	-0.954673	-0.860055
H101	H	-0.260824	-0.882494	-0.860325
H102	H	-0.382118	-0.667093	-0.374723
C103	C	-0.700642	-0.895043	-0.733528
H104	H	-0.756696	-0.892055	-0.762387
H105	H	-0.699162	-0.858691	-0.708038
H106	H	-0.709967	-0.930904	-0.707968
H107	H	-0.624237	-0.832866	-0.659742
C108	C	-0.362906	-0.135410	-0.386213
H109	H	-0.372443	-0.091747	-0.380463
H110	H	-0.378313	-0.146147	-0.428294
H111	H	-0.292668	-0.146160	-0.377116
H112	H	-0.624113	-0.144569	-0.229101
C113	C	-0.363028	-0.539049	-0.386200
H114	H	-0.323301	-0.567932	-0.410111
H115	H	-0.317427	-0.513525	-0.362289
H116	H	-0.403087	-0.513525	-0.413458
H117	H	-1.069858	-0.872959	-0.334506
C118	C	-0.643422	-0.821412	-0.531674
H119	H	-0.683224	-0.797544	-0.560522
H120	H	-0.603482	-0.794120	-0.506128
H121	H	-0.688963	-0.845380	-0.506167
C122	C	-0.643215	-0.272619	-0.217630
H123	H	-0.633663	-0.316282	-0.223372
H124	H	-0.713448	-0.261871	-0.226728
H125	H	-0.627809	-0.261881	-0.175546
C126	C	-0.305440	-0.474634	-0.312488
H127	H	-0.318938	-0.518283	-0.311768
H128	H	-0.261394	-0.463913	-0.278451
H129	H	-0.272117	-0.463946	-0.350670
C130	C	-1.122628	-0.987758	-0.219898
H131	H	-1.195430	-0.982005	-0.225681
H132	H	-1.104838	-0.978612	-0.177780
H133	H	-1.104707	-1.029857	-0.229097
