data_functionalizedCrystal
_audit_creation_method	'MofGen! by Chris Wilmer'
_symmetry_space_group_name_H-M	'P1'
_symmetry_Int_Tables_number	1
_symmetry_cell_setting	triclinic
loop_
_symmetry_equiv_pos_as_xyz
  x,y,z
_cell_length_a	14.044220
_cell_length_b	12.837943
_cell_length_c	11.892095
_cell_angle_alpha	85.689438
_cell_angle_beta	94.243827
_cell_angle_gamma	94.008909
loop_
_atom_site_label
_atom_site_type_symbol
_atom_site_fract_x
_atom_site_fract_y
_atom_site_fract_z
O1	O	0.242985	1.404549	-0.093990
O2	O	0.230709	1.101609	-0.093996
O3	O	0.098452	1.248531	-0.093982
O4	O	0.375241	1.257627	-0.094004
O5	O	0.109461	1.236280	0.094025
O6	O	0.241718	1.089357	0.094010
O7	O	0.253993	1.392297	0.094017
Zn8	Zn	0.249603	1.238882	0.123864
Zn9	Zn	0.235099	1.255024	-0.123843
O10	O	0.386250	1.245375	0.094002
C11	C	0.232067	1.056479	0.000007
C12	C	0.219699	0.940259	0.000005
C13	C	0.068282	1.238425	0.000022
C14	C	-0.038016	1.226550	0.000023
C15	C	0.368378	0.713048	0.000009
C16	C	0.356763	0.603848	0.000008
C17	C	0.184853	0.612657	0.000009
C18	C	0.196469	0.721856	0.000011
C19	C	0.288234	0.772048	0.000008
C20	C	0.299849	0.881251	0.000001
C21	C	0.127940	0.890056	0.000011
C22	C	0.116324	0.780857	0.000010
C23	C	-0.232639	1.204843	0.000006
C24	C	-0.282665	1.289060	0.000005
C25	C	-0.390960	1.276982	-0.000005
C26	C	-0.124334	1.216919	0.000016
C27	C	0.416420	1.255482	-0.000004
C28	C	0.522717	1.267357	-0.000012
C29	C	0.252635	1.437428	0.000012
C30	C	0.265002	1.553649	0.000006
N31	N	0.259502	1.227873	0.292917
N32	N	0.225193	1.266041	-0.292896
C33	C	0.156258	1.342643	0.529576
C34	C	0.163185	1.334956	0.647917
C35	C	0.280277	1.204807	0.647942
C36	C	0.273350	1.212494	0.529601
C37	C	0.211340	1.281415	0.470422
C38	C	0.204418	1.289107	0.352079
C39	C	0.321505	1.158954	0.352106
C40	C	0.328432	1.151267	0.470447
H41	H	0.374569	0.922115	0.000002
H42	H	-0.244167	1.370237	-0.000070
N43	N	-0.283630	1.097325	0.000003
H44	H	-0.354885	1.103830	0.000000
H45	H	-0.260939	1.053576	0.069704
H46	H	0.118331	1.384812	0.696076
N47	N	0.137544	1.363443	0.288245
H48	H	0.103699	1.401061	0.343681
H49	H	0.088779	1.322704	0.239154
N50	N	0.395306	1.076928	0.534279
H51	H	0.391336	1.081346	0.618224
H52	H	0.463002	1.096621	0.513590
H53	H	0.443098	0.753915	0.000005
N54	N	0.089391	1.416985	0.465737
H55	H	0.055551	1.454612	0.521170
H56	H	0.040623	1.376251	0.416647
N57	N	0.347142	1.130463	0.711780
H58	H	0.343164	1.134882	0.795724
H59	H	0.414842	1.150146	0.691101
N60	N	0.380927	1.092917	0.288306
H61	H	0.367134	1.108246	0.204357
H62	H	0.364366	1.016392	0.309004
H63	H	0.422025	0.555814	0.000011
H64	H	0.062681	0.938107	0.000003
N65	N	0.085886	0.558510	0.000044
H66	H	0.090694	0.480379	0.000054
H67	H	0.046289	0.584047	-0.069646
N68	N	0.017358	0.726706	0.000008
H69	H	-0.022274	0.752173	-0.069688
H70	H	-0.014045	0.743108	0.069746
