data_functionalizedCrystal
_audit_creation_method	'MofGen! by Chris Wilmer'
_symmetry_space_group_name_H-M	'P1'
_symmetry_Int_Tables_number	1
_symmetry_cell_setting	triclinic
loop_
_symmetry_equiv_pos_as_xyz
  x,y,z
_cell_length_a	29.839134
_cell_length_b	19.805405
_cell_length_c	29.839135
_cell_angle_alpha	90.015205
_cell_angle_beta	90.023549
_cell_angle_gamma	90.021271
loop_
_atom_site_label
_atom_site_type_symbol
_atom_site_fract_x
_atom_site_fract_y
_atom_site_fract_z
Zn1	Zn	0.686773	-0.269666	0.254126
Zn2	Zn	0.686723	-0.382826	0.178996
Zn3	Zn	0.611654	-0.269646	0.178995
Zn4	Zn	0.611624	-0.382808	0.254084
O5	O	0.649194	-0.326237	0.216550
O6	O	0.749634	-0.284693	0.244177
O7	O	0.676757	-0.367812	0.116129
O8	O	0.621653	-0.174932	0.188979
O9	O	0.749597	-0.367831	0.188980
O10	O	0.676842	-0.174947	0.244177
O11	O	0.621604	-0.284660	0.116128
O12	O	0.548783	-0.284642	0.188939
O13	O	0.621601	-0.367800	0.316957
O14	O	0.548761	-0.367781	0.244106
O15	O	0.676813	-0.284675	0.316987
O16	O	0.676727	-0.477540	0.188940
O17	O	0.621552	-0.477527	0.244107
C18	C	0.649143	-0.502093	0.216529
C19	C	0.649163	-0.577325	0.216534
C20	C	0.532471	-0.326208	0.216518
C21	C	0.482537	-0.326212	0.216515
C22	C	0.677920	-0.612653	0.187839
C23	C	0.677939	-0.683342	0.187849
C24	C	0.649198	-0.718700	0.216552
C25	C	0.620439	-0.683367	0.245251
C26	C	0.620423	-0.612679	0.245243
C27	C	0.620505	-0.968440	0.245284
C28	C	0.620523	-1.039132	0.245289
C29	C	0.678022	-1.039102	0.187890
C30	C	0.678006	-0.968415	0.187882
C31	C	0.649248	-0.933088	0.216582
C32	C	0.649229	-0.856439	0.216572
C33	C	0.649215	-0.795347	0.216561
C34	C	0.172891	-0.369591	0.245241
C35	C	-0.014782	-0.369610	0.245261
O36	O	-0.039049	-0.406461	0.269666
N37	N	-0.038248	-0.326262	0.216584
C38	C	-0.014794	-0.282902	0.187903
O39	O	-0.039060	-0.246026	0.163515
C40	C	0.172878	-0.282880	0.187885
C41	C	0.196342	-0.326236	0.216561
C42	C	0.196355	-0.412944	0.273914
C43	C	0.243271	-0.412941	0.273907
C44	C	0.266722	-0.369586	0.245227
C45	C	0.243258	-0.326234	0.216554
C46	C	0.196332	-0.239517	0.159206
C47	C	0.243253	-0.239514	0.159205
C48	C	0.266717	-0.282871	0.187881
C49	C	0.313625	-0.282876	0.187866
N50	N	0.337091	-0.326225	0.216543
C51	C	0.313640	-0.369580	0.245223
C52	C	-0.113324	-0.282917	0.187913
C53	C	-0.160242	-0.282923	0.187917
C54	C	-0.160227	-0.369631	0.245276
C55	C	-0.113309	-0.369628	0.245270
C56	C	-0.089858	-0.326266	0.216590
C57	C	0.412166	-0.369572	0.245206
C58	C	0.459085	-0.369567	0.245195
C59	C	0.459066	-0.282857	0.187838
C60	C	0.412151	-0.282863	0.187847
C61	C	0.388702	-0.326223	0.216535
O62	O	0.337920	-0.246039	0.163478
O63	O	0.337914	-0.406439	0.269614
C64	C	0.125976	-0.369594	0.245248
C65	C	0.102512	-0.326241	0.216575
C66	C	0.125963	-0.282886	0.187894
C67	C	0.055594	-0.326248	0.216578
C68	C	0.032142	-0.369603	0.245259
C69	C	0.055609	-0.412952	0.273935
C70	C	0.102524	-0.412949	0.273928
C71	C	0.102497	-0.239537	0.159217
C72	C	0.055581	-0.239544	0.159226
C73	C	0.032130	-0.282899	0.187907
C74	C	0.766372	-0.326266	0.216583
C75	C	0.816306	-0.326278	0.216597
C76	C	0.649209	-0.326237	0.333729
C77	C	0.649216	-0.326238	0.383663
C78	C	0.649257	-0.149694	0.216582
C79	C	0.649283	-0.074462	0.216596
C80	C	0.620473	-0.282943	0.693309
C81	C	0.620466	-0.282939	0.880982
O82	O	0.596032	-0.246141	0.905249
N83	N	0.649181	-0.326230	0.904448
C84	C	0.677898	-0.369528	0.880993
O85	O	0.702319	-0.406354	0.905259
C86	C	0.677903	-0.369535	0.693321
C87	C	0.649189	-0.326236	0.669857
C88	C	0.591762	-0.239649	0.669846
C89	C	0.591765	-0.239648	0.622930
C90	C	0.620481	-0.282941	0.599478
C91	C	0.649193	-0.326235	0.622942
C92	C	0.706617	-0.412836	0.669867
C93	C	0.706615	-0.412835	0.622946
C94	C	0.677901	-0.369536	0.599482
C95	C	0.677913	-0.369527	0.552575
N96	N	0.649197	-0.326237	0.529109
C97	C	0.620482	-0.282943	0.552560
C98	C	0.677895	-0.369520	0.979524
C99	C	0.677894	-0.369518	1.026442
C100	C	0.620461	-0.282930	1.026427
C101	C	0.620464	-0.282929	0.979509
C102	C	0.649179	-0.326229	0.956058
C103	C	0.620492	-0.282944	0.454035
C104	C	0.620500	-0.282945	0.407115
C105	C	0.677931	-0.369535	0.407133
C106	C	0.677925	-0.369532	0.454049
C107	C	0.649202	-0.326234	0.477498
O108	O	0.702331	-0.406311	0.528279
O109	O	0.596058	-0.246133	0.528287
C110	C	0.620470	-0.282944	0.740225
C111	C	0.649182	-0.326239	0.763688
C112	C	0.677897	-0.369532	0.740236
C113	C	0.649181	-0.326236	0.810606
C114	C	0.620465	-0.282943	0.834058
C115	C	0.591750	-0.239652	0.810592
C116	C	0.591754	-0.239651	0.763676
C117	C	0.706612	-0.412823	0.763703
C118	C	0.706607	-0.412820	0.810618
C119	C	0.677891	-0.369526	0.834070
C120	C	0.649177	-0.326244	1.099828
C121	C	0.649178	-0.326224	1.049893
H122	H	0.701356	-0.712103	0.164482
H123	H	0.597006	-0.583915	0.268610
H124	H	0.478188	-0.404876	0.268547
H125	H	0.730002	-0.448092	0.603854
C126	C	0.268691	-0.192522	0.127988
C127	C	0.257257	-0.207169	0.083523
C128	C	0.280685	-0.163904	0.054752
H129	H	0.261035	-0.147036	0.134559
H130	H	0.299998	-0.198733	0.132059
H131	H	0.225956	-0.200952	0.079454
H132	H	0.264914	-0.252647	0.076937
H133	H	0.311992	-0.170115	0.058823
H134	H	0.273027	-0.118420	0.061327
H135	H	0.272933	-0.173840	0.024579
H136	H	0.568372	-0.204393	0.744577
H137	H	0.701311	-0.404781	0.473154
H138	H	0.729995	-0.448080	0.744613
C139	C	0.030061	-0.459949	0.305059
C140	C	-0.016049	-0.450653	0.298930
C141	C	-0.039600	-0.493922	0.327598
H142	H	0.037679	-0.505440	0.298460
H143	H	0.037740	-0.450104	0.335265
H144	H	-0.023725	-0.460502	0.268731
H145	H	-0.023680	-0.405170	0.305533
H146	H	-0.031921	-0.484078	0.357804
H147	H	-0.031978	-0.539410	0.320996
H148	H	-0.070888	-0.487616	0.323447
C149	C	0.268798	-0.459897	0.305074
C150	C	0.295761	-0.421637	0.333907
C151	C	0.319283	-0.464869	0.362624
H152	H	0.248156	-0.485727	0.322197
H153	H	0.287113	-0.489343	0.287870
H154	H	0.277447	-0.392203	0.351109
H155	H	0.316411	-0.395808	0.316796
H156	H	0.337599	-0.494314	0.345420
H157	H	0.298639	-0.490697	0.379744
H158	H	0.337584	-0.438916	0.382187
C159	C	0.170980	-0.460097	0.305072
C160	C	0.201580	-0.498067	0.330170
C161	C	0.178224	-0.541525	0.358871
H162	H	0.152689	-0.434338	0.324723
H163	H	0.152675	-0.489589	0.287862
H164	H	0.219877	-0.468578	0.347378
H165	H	0.219872	-0.523840	0.310531
H166	H	0.159919	-0.571017	0.341662
H167	H	0.159934	-0.515760	0.378519
H168	H	0.198983	-0.567297	0.375901
C169	C	0.589272	-0.235909	0.381722
C170	C	0.564115	-0.198011	0.412306
C171	C	0.535340	-0.154685	0.388932
H172	H	0.606418	-0.206360	0.363431
H173	H	0.569665	-0.261781	0.363415
H174	H	0.583719	-0.172142	0.430605
H175	H	0.546960	-0.227543	0.430598
H176	H	0.515733	-0.180556	0.370625
H177	H	0.552489	-0.125140	0.370642
H178	H	0.518264	-0.128970	0.409680
H179	H	0.597103	-0.247686	0.473122
C180	C	0.560654	-0.192604	0.695362
C181	C	0.586102	-0.149233	0.722323
C182	C	0.557461	-0.105887	0.745837
H183	H	0.543545	-0.166759	0.674715
H184	H	0.541075	-0.218468	0.713678
H185	H	0.605674	-0.123371	0.704009
H186	H	0.603211	-0.175059	0.742978
H187	H	0.537882	-0.131751	0.764153
H188	H	0.540354	-0.080047	0.725187
H189	H	0.574724	-0.076459	0.764136
C190	C	-0.185733	-0.235975	0.156715
C191	C	-0.212676	-0.274241	0.127866
C192	C	-0.236156	-0.231015	0.099110
H193	H	-0.204061	-0.206504	0.173875
H194	H	-0.165053	-0.210174	0.139609
H195	H	-0.233354	-0.300031	0.144970
H196	H	-0.194359	-0.303710	0.110696
H197	H	-0.215476	-0.205213	0.082004
H198	H	-0.254481	-0.201546	0.116274
H199	H	-0.254436	-0.256972	0.079530
H200	H	0.393079	-0.404878	0.268567
C201	C	0.560515	-0.192763	0.836082
C202	C	0.531701	-0.231091	0.862987
C203	C	0.502916	-0.187926	0.886473
H204	H	0.577656	-0.163264	0.854437
H205	H	0.543385	-0.166989	0.815405
H206	H	0.548829	-0.256853	0.883662
H207	H	0.514550	-0.260588	0.844644
H208	H	0.485787	-0.162152	0.865796
H209	H	0.520062	-0.158429	0.904825
H210	H	0.483361	-0.213925	0.904727
C211	C	-0.185775	-0.416626	0.276401
C212	C	-0.231885	-0.407333	0.270271
C213	C	-0.255435	-0.450599	0.298941
H214	H	-0.178156	-0.462118	0.269805
H215	H	-0.178096	-0.406777	0.306606
H216	H	-0.239560	-0.417187	0.240073
H217	H	-0.239517	-0.361850	0.276871
H218	H	-0.247756	-0.440750	0.329147
H219	H	-0.247812	-0.496088	0.292343
H220	H	-0.286723	-0.444296	0.294789
C221	C	0.709174	-0.574389	0.156656
C222	C	0.734371	-0.620462	0.131537
C223	C	0.763172	-0.585241	0.102811
H224	H	0.692045	-0.546844	0.137020
H225	H	0.728755	-0.546796	0.173849
H226	H	0.714792	-0.648045	0.114345
H227	H	0.751508	-0.648009	0.151161
H228	H	0.782753	-0.557647	0.120004
H229	H	0.746040	-0.557697	0.083177
H230	H	0.780274	-0.616496	0.085767
H231	H	0.597083	-0.247671	0.960408
C232	C	0.709260	-0.930149	0.156702
C233	C	0.734459	-0.976218	0.131582
C234	C	0.763262	-0.940993	0.102859
H235	H	0.692133	-0.902601	0.137066
H236	H	0.728840	-0.902556	0.173897
H237	H	0.714882	-1.003799	0.114388
H238	H	0.751596	-1.003767	0.151206
H239	H	0.782841	-0.913401	0.120054
H240	H	0.746131	-0.913447	0.083226
H241	H	0.780365	-0.972246	0.085815
H242	H	0.597119	-1.067919	0.268666
C243	C	-0.087948	-0.235812	0.156721
C244	C	-0.118547	-0.197869	0.131603
C245	C	-0.095190	-0.154477	0.102859
H246	H	-0.069630	-0.206294	0.173887
H247	H	-0.069670	-0.261638	0.137088
H248	H	-0.136817	-0.172044	0.151234
H249	H	-0.136866	-0.227369	0.114428
H250	H	-0.076912	-0.180303	0.083226
H251	H	-0.076872	-0.124964	0.120029
H252	H	-0.115947	-0.128732	0.085810
H253	H	0.701439	-1.067874	0.164523
C254	C	0.170853	-0.192567	0.127999
C255	C	0.143914	-0.230834	0.099147
C256	C	0.120446	-0.187611	0.070379
H257	H	0.152522	-0.163088	0.145151
H258	H	0.191540	-0.166774	0.110897
H259	H	0.123229	-0.256616	0.116248
H260	H	0.162233	-0.260312	0.081985
H261	H	0.141134	-0.161818	0.053277
H262	H	0.102119	-0.158134	0.087535
H263	H	0.102169	-0.213569	0.050797
H264	H	0.597090	-0.939682	0.268652
H265	H	0.597039	-0.712161	0.268624
C266	C	0.589207	-0.235967	1.051835
C267	C	0.544754	-0.250694	1.040393
C268	C	0.515949	-0.207447	1.063786
H269	H	0.593258	-0.242126	1.083145
H270	H	0.595765	-0.190478	1.044149
H271	H	0.538198	-0.296173	1.048082
H272	H	0.540688	-0.244531	1.009087
H273	H	0.522508	-0.161958	1.056100
H274	H	0.520005	-0.213610	1.095095
H275	H	0.485785	-0.217429	1.056023
H276	H	0.701278	-0.404784	0.960434
C277	C	0.709148	-0.416483	1.051854
C278	C	0.753601	-0.401766	1.040450
C279	C	0.782403	-0.445027	1.063843
H280	H	0.705101	-0.410331	1.083164
H281	H	0.702582	-0.461969	1.044142
H282	H	0.760164	-0.356291	1.048164
H283	H	0.757662	-0.407922	1.009144
H284	H	0.775838	-0.490513	1.056131
H285	H	0.778352	-0.438871	1.095152
H286	H	0.812567	-0.435052	1.056105
H287	H	0.393045	-0.247560	0.164496
C288	C	0.484474	-0.235678	0.156724
C289	C	0.473074	-0.168734	0.166582
C290	C	0.496466	-0.125252	0.137926
H291	H	0.515784	-0.241794	0.160800
H292	H	0.476758	-0.245472	0.126520
H293	H	0.480793	-0.158944	0.196778
H294	H	0.441768	-0.162596	0.162503
H295	H	0.488750	-0.135046	0.107722
H296	H	0.527775	-0.131374	0.142004
H297	H	0.488732	-0.079826	0.144608
H298	H	-0.094207	-0.404932	0.268620
C299	C	0.030172	-0.192506	0.128013
C300	C	0.041573	-0.207131	0.083546
C301	C	0.018184	-0.163805	0.054783
H302	H	-0.001138	-0.198662	0.132056
H303	H	0.037890	-0.147036	0.134617
H304	H	0.033851	-0.252590	0.076944
H305	H	0.072879	-0.200970	0.079489
H306	H	0.025902	-0.118334	0.061387
H307	H	-0.013125	-0.169964	0.058830
H308	H	0.025919	-0.173717	0.024609
C309	C	0.560537	-0.192616	0.597540
C310	C	0.535383	-0.154721	0.628128
C311	C	0.506604	-0.111394	0.604759
H312	H	0.577680	-0.163065	0.579248
H313	H	0.540928	-0.218488	0.579235
H314	H	0.554989	-0.128851	0.646426
H315	H	0.518231	-0.184254	0.646422
H316	H	0.486995	-0.137266	0.586454
H317	H	0.523750	-0.081848	0.586468
H318	H	0.489531	-0.085682	0.625509
C319	C	0.737808	-0.459926	0.695252
C320	C	0.762940	-0.497851	0.664663
C321	C	0.791674	-0.541247	0.688031
H322	H	0.757435	-0.434125	0.713571
H323	H	0.720619	-0.489450	0.713530
H324	H	0.780128	-0.468330	0.646393
H325	H	0.743325	-0.523665	0.646343
H326	H	0.774485	-0.570772	0.706309
H327	H	0.811298	-0.515441	0.706349
H328	H	0.808727	-0.566989	0.667280
C329	C	0.709076	-0.416651	0.381721
C330	C	0.699270	-0.483615	0.393125
C331	C	0.727952	-0.527042	0.369727
H332	H	0.704989	-0.410539	0.350412
H333	H	0.739275	-0.406804	0.389430
H334	H	0.669079	-0.493459	0.385413
H335	H	0.703361	-0.489748	0.424430
H336	H	0.758151	-0.517194	0.377436
H337	H	0.723862	-0.520924	0.338419
H338	H	0.721306	-0.572481	0.377464
C339	C	0.737859	-0.459794	0.836030
C340	C	0.782314	-0.445081	0.824630
C341	C	0.811112	-0.488349	0.848023
H342	H	0.733810	-0.453646	0.867340
H343	H	0.731292	-0.505278	0.828315
H344	H	0.788879	-0.399608	0.832348
H345	H	0.786377	-0.451233	0.793324
H346	H	0.804545	-0.533833	0.840308
H347	H	0.807059	-0.482197	0.879332
H348	H	0.841277	-0.478376	0.840288
H349	H	0.121624	-0.448254	0.297279
H350	H	0.121586	-0.204232	0.135862
