data_functionalizedCrystal
_audit_creation_method	'MofGen! by Chris Wilmer'
_symmetry_space_group_name_H-M	'P1'
_symmetry_Int_Tables_number	1
_symmetry_cell_setting	triclinic
loop_
_symmetry_equiv_pos_as_xyz
  x,y,z
_cell_length_a	19.121073
_cell_length_b	19.121321
_cell_length_c	12.827885
_cell_angle_alpha	87.580249
_cell_angle_beta	87.598258
_cell_angle_gamma	89.931363
loop_
_atom_site_label
_atom_site_type_symbol
_atom_site_fract_x
_atom_site_fract_y
_atom_site_fract_z
Zn1	Zn	-0.324722	1.059813	0.544113
Zn2	Zn	-0.441972	1.054712	0.377110
Zn3	Zn	-0.319763	0.942576	0.376514
Zn4	Zn	-0.436928	0.937540	0.558927
O5	O	-0.380846	0.998661	0.464166
O6	O	-0.344462	1.157238	0.516010
O7	O	-0.425795	1.039810	0.230798
O8	O	-0.222317	0.962370	0.392298
O9	O	-0.430605	1.153490	0.393313
O10	O	-0.225961	1.048504	0.515432
O11	O	-0.336009	0.957424	0.230361
O12	O	-0.331119	0.843807	0.406662
O13	O	-0.422009	0.953787	0.703194
O14	O	-0.417200	0.840107	0.540680
O15	O	-0.339572	1.043621	0.692311
O16	O	-0.539406	1.034927	0.407677
O17	O	-0.535701	0.948841	0.541258
C18	C	-0.373074	0.816521	0.475215
C19	C	-0.369766	0.738600	0.479967
C20	C	-0.348756	0.297995	0.510102
C21	C	-0.351877	0.371209	0.505632
C22	C	-0.398213	0.405859	0.439401
C23	C	-0.441437	0.367291	0.377646
C24	C	-0.438319	0.294078	0.382122
C25	C	-0.409872	0.626818	0.422688
C26	C	-0.412985	0.700037	0.418214
C27	C	-0.323426	0.703950	0.546202
C28	C	-0.320309	0.630735	0.550668
C29	C	-0.363534	0.592173	0.488916
C30	C	-0.401403	0.480696	0.434828
C31	C	-0.360348	0.517337	0.493496
C32	C	-0.562991	0.990803	0.476161
C33	C	-0.640916	0.987506	0.481323
C34	C	-1.081551	0.966630	0.514090
C35	C	-1.008332	0.969728	0.509227
C36	C	-0.973632	1.016131	0.437294
C37	C	-1.012155	1.059443	0.370225
C38	C	-1.085373	1.056348	0.375093
C39	C	-0.752657	1.027723	0.419123
C40	C	-0.679434	1.030814	0.414258
C41	C	-0.675616	0.941098	0.553262
C42	C	-0.748835	0.938004	0.558119
C43	C	-0.787352	0.981320	0.491055
C44	C	-0.898791	1.019297	0.432320
C45	C	-0.862193	0.978156	0.496034
C46	C	-0.197991	1.006568	0.452146
C47	C	-0.120069	1.009938	0.447024
C48	C	-0.380781	0.998711	0.736729
C49	C	-0.380753	0.998733	0.852879
C50	C	-0.388649	1.181512	0.453075
C51	C	-0.391974	1.259432	0.448349
C52	C	-0.380862	0.998653	0.192658
C53	C	-0.380699	0.998775	0.076487
C54	C	-0.339952	1.043190	0.899278
C55	C	-0.339923	1.043213	1.019325
H56	H	-0.450720	0.728247	0.364280
H57	H	-0.777082	0.900210	0.616684
H58	H	-0.479168	0.395509	0.323724
H59	H	-0.976971	0.934464	0.563838
N60	N	-0.279268	0.743341	0.609266
N61	N	-0.236302	0.786108	0.567169
H62	H	-0.205114	0.813928	0.611711
H63	H	-0.415634	0.960714	1.036572
H64	H	-1.116734	1.091616	0.320484
N65	N	-0.636261	0.896860	0.621754
N66	N	-0.570889	0.899626	0.617401
H67	H	-0.543093	0.868383	0.665778
H68	H	-0.651185	1.068602	0.355677
N69	N	-0.792011	1.071961	0.350633
N70	N	-0.834707	1.114895	0.387459
H71	H	-0.862506	1.146138	0.339088
N72	N	-0.424536	0.950993	0.914531
N73	N	-0.397907	0.907439	0.976534
H74	H	-0.428828	0.873720	1.020076
H75	H	-0.870532	1.057078	0.373748
N76	N	-1.116981	0.919219	0.587566
N77	N	-1.082578	0.880555	0.647439
H78	H	-1.107598	0.847070	0.699336
N79	N	-0.301421	0.262615	0.577765
N80	N	-0.262843	0.297058	0.632905
H81	H	-0.229415	0.272073	0.680700
N82	N	-0.296088	1.090963	1.069380
N83	N	-0.257750	1.132738	1.015691
H84	H	-0.226789	1.166462	1.051043
H85	H	-0.473513	0.262680	0.331838
N86	N	-0.296146	1.090918	0.837643
N87	N	-0.231249	1.089074	0.845783
H88	H	-0.200308	1.122782	0.802256
H89	H	-0.322623	0.489122	0.547424
N90	N	-0.307719	0.410586	0.568713
N91	N	-0.242675	0.405196	0.558182
H92	H	-0.211486	0.433004	0.602739
N93	N	-0.272959	0.595367	0.618320
N94	N	-0.278016	0.603380	0.714546
H95	H	-0.244566	0.578407	0.762318
N96	N	-0.454031	0.587445	0.359609
N97	N	-0.495399	0.618394	0.300481
H98	H	-0.526590	0.590584	0.255929
H99	H	-0.439128	0.508917	0.380899
N100	N	-0.976702	1.106848	0.296765
N101	N	-0.911330	1.109609	0.292430
H102	H	-0.886291	1.143090	0.240547
N103	N	-0.897646	0.930757	0.569496
N104	N	-0.936665	0.884375	0.538092
H105	H	-0.961711	0.850896	0.589971
