data_functionalizedCrystal
_audit_creation_method	'MofGen! by Chris Wilmer'
_symmetry_space_group_name_H-M	'P1'
_symmetry_Int_Tables_number	1
_symmetry_cell_setting	triclinic
loop_
_symmetry_equiv_pos_as_xyz
  x,y,z
_cell_length_a	15.297475
_cell_length_b	18.101395
_cell_length_c	15.298159
_cell_angle_alpha	80.338715
_cell_angle_beta	88.366721
_cell_angle_gamma	80.333681
loop_
_atom_site_label
_atom_site_type_symbol
_atom_site_fract_x
_atom_site_fract_y
_atom_site_fract_z
Zn1	Zn	1.253123	-0.576513	0.726549
Zn2	Zn	1.753123	-0.076513	1.226549
Zn3	Zn	1.278401	-0.683113	0.580067
Zn4	Zn	1.778401	-0.183113	1.080067
Zn5	Zn	1.132049	-0.534871	0.554798
Zn6	Zn	1.632049	-0.034871	1.054798
Zn7	Zn	1.106600	-0.675862	0.701191
Zn8	Zn	1.606600	-0.175862	1.201191
O9	O	1.192543	-0.617590	0.640652
O10	O	1.692543	-0.117590	1.140652
O11	O	1.379045	-0.611116	0.728306
O12	O	1.879045	-0.111116	1.228306
O13	O	1.280217	-0.649056	0.454146
O14	O	1.780217	-0.149056	0.954146
O15	O	1.148182	-0.436778	0.577619
O16	O	1.648182	0.063222	1.077619
O17	O	1.397617	-0.689434	0.620686
O18	O	1.897617	-0.189434	1.120686
O19	O	1.237134	-0.467372	0.703803
O20	O	1.737134	0.032628	1.203803
O21	O	1.172693	-0.540144	0.435581
O22	O	1.672693	-0.040144	0.935581
O23	O	1.006104	-0.533112	0.553030
O24	O	1.506104	-0.033112	1.053030
O25	O	1.104807	-0.677075	0.827124
O26	O	1.604807	-0.177075	1.327124
O27	O	0.987406	-0.636697	0.660584
O28	O	1.487406	-0.136697	1.160584
O29	O	1.212457	-0.604084	0.845754
O30	O	1.712457	-0.104084	1.345754
O31	O	1.255539	-0.785769	0.596097
O32	O	1.755539	-0.285769	1.096097
O33	O	1.129318	-0.780441	0.685087
O34	O	1.629318	-0.280441	1.185087
C35	C	0.964974	-0.579600	0.601314
C36	C	1.464974	-0.079600	1.101314
C37	C	0.867616	-0.563367	0.584506
C38	C	1.367616	-0.063367	1.084506
C39	C	0.554397	-0.733608	0.760783
C40	C	1.054397	-0.233608	1.260783
C41	C	0.645870	-0.748864	0.776573
C42	C	1.145870	-0.248864	1.276573
C43	C	0.701311	-0.702491	0.728558
C44	C	1.201311	-0.202491	1.228558
C45	C	0.665269	-0.640860	0.664750
C46	C	1.165269	-0.140860	1.164750
C47	C	0.573788	-0.625606	0.648954
C48	C	1.073788	-0.125606	1.148954
C49	C	0.720702	-0.594489	0.616728
C50	C	1.220702	-0.094489	1.116728
C51	C	0.684660	-0.532857	0.552921
C52	C	1.184660	-0.032857	1.052921
C53	C	0.593187	-0.517606	0.537128
C54	C	1.093187	-0.017606	1.037128
C55	C	0.537747	-0.563979	0.585143
C56	C	1.037747	-0.063979	1.085143
C57	C	0.812184	-0.609743	0.632524
C58	C	1.312184	-0.109743	1.132524
C59	C	0.831575	-0.501740	0.520695
C60	C	1.331575	-0.001740	1.020695
C61	C	0.740101	-0.486484	0.504906
C62	C	1.240101	0.013516	1.004906
C63	C	1.192431	-0.809978	0.640606
C64	C	1.692431	-0.309978	1.140606
C65	C	1.192457	-0.892299	0.640629
C66	C	1.692457	-0.392299	1.140629
C67	C	1.192641	-1.191427	0.640709
C68	C	1.692641	-0.691427	1.140709
C69	C	1.113354	-1.156827	0.696894
C70	C	1.613354	-0.656827	1.196894
C71	C	1.113070	-1.071131	0.696626
C72	C	1.613070	-0.571131	1.196626
C73	C	1.192550	-1.043026	0.640670
C74	C	1.692550	-0.543026	1.140670
C75	C	1.183569	-1.059150	0.544046
C76	C	1.683569	-0.559150	1.044046
C77	C	1.183063	-1.144770	0.544377
C78	C	1.683063	-0.644770	1.044377
C79	C	1.281199	-1.178014	0.680362
C80	C	1.781199	-0.678014	1.180362
C81	C	1.280303	-1.092510	0.682292
C82	C	1.780303	-0.592510	1.182292
C83	C	1.192501	-0.959156	0.640643
C84	C	1.692501	-0.459156	1.140643
C85	C	1.192689	-1.275297	0.640730
C86	C	1.692689	-0.775297	1.140730
C87	C	1.421001	-0.655729	0.680143
C88	C	1.921001	-0.155729	1.180143
C89	C	1.518356	-0.671981	0.696972
C90	C	2.018356	-0.171981	1.196972
C91	C	1.152973	-0.644416	0.869109
C92	C	1.652973	-0.144416	1.369109
C93	C	1.136111	-0.655847	0.966463
C94	C	1.636111	-0.155847	1.466463
C95	C	1.192677	-0.424457	0.640721
C96	C	1.692677	0.075543	1.140721
C97	C	1.192734	-0.342155	0.640751
C98	C	1.692734	0.157845	1.140751
C99	C	1.312776	-0.536068	1.279691
C100	C	1.812776	-0.036068	1.779691
C101	C	1.328625	-0.525330	1.188222
C102	C	1.828625	-0.025330	1.688222
C103	C	1.280498	-0.557958	1.132778
C104	C	1.780498	-0.057958	1.632778
C105	C	1.216519	-0.601327	1.168812
C106	C	1.716519	-0.101327	1.668812
C107	C	1.200674	-0.612071	1.260290
C108	C	1.700674	-0.112071	1.760290
C109	C	1.168395	-0.633961	1.113377
C110	C	1.668395	-0.133961	1.613377
C111	C	1.104417	-0.677330	1.149410
C112	C	1.604417	-0.177330	1.649410
C113	C	1.088574	-0.688072	1.240880
C114	C	1.588574	-0.188072	1.740880
C115	C	1.136702	-0.655444	1.296324
C116	C	1.636702	-0.155444	1.796324
C117	C	1.184241	-0.623217	1.021899
C118	C	1.684241	-0.123217	1.521899
C119	C	1.072138	-0.699220	1.002498
C120	C	1.572138	-0.199220	1.502498
C121	C	1.056290	-0.709958	1.093966
C122	C	1.556290	-0.209958	1.593966
C123	C	1.231950	-0.590881	1.413082
C124	C	1.731950	-0.090881	1.913082
C125	C	1.248804	-0.579440	1.315725
C126	C	1.748804	-0.079440	1.815725
H127	H	0.775792	-0.714916	0.741418
H128	H	1.275792	-0.214916	1.241418
Cl129	Cl	1.118877	-1.055063	0.806470
Cl130	Cl	1.618877	-0.555063	1.306470
Cl131	Cl	0.422744	-0.544799	0.565301
Cl132	Cl	0.922744	-0.044799	1.065301
Cl133	Cl	0.975864	-0.764479	1.139277
Cl134	Cl	1.475864	-0.264479	1.639277
H135	H	0.710743	-0.436304	0.452952
H136	H	1.210743	0.063696	0.952952
H137	H	1.341216	-1.074546	0.645627
H138	H	1.841216	-0.574546	1.145627
Cl139	Cl	1.409051	-0.470811	1.142930
Cl140	Cl	1.909051	0.029189	1.642930
Cl141	Cl	0.691174	-0.826341	0.856783
Cl142	Cl	1.191174	-0.326341	1.356783
H143	H	1.047106	-1.037405	0.669099
H144	H	1.547106	-0.537405	1.169099
Cl145	Cl	0.484701	-0.791912	0.821118
Cl146	Cl	0.984701	-0.291912	1.321118
H147	H	1.239175	-1.167189	0.500227
H148	H	1.739175	-0.667189	1.000227
Cl149	Cl	1.300420	-0.544454	1.017787
Cl150	Cl	1.800420	-0.044454	1.517787
H151	H	1.340074	-1.200845	0.639636
H152	H	1.840074	-0.700845	1.139636
Cl153	Cl	1.373279	-0.495063	1.349396
Cl154	Cl	1.873279	0.004937	1.849396
Cl155	Cl	1.011637	-0.740246	0.932803
Cl156	Cl	1.511637	-0.240246	1.432803
H157	H	1.123801	-0.664185	1.370806
H158	H	1.623801	-0.164185	1.870806
H159	H	0.876715	-0.463981	0.481596
H160	H	1.376715	0.036019	0.981596
H161	H	1.240207	-1.040619	0.500343
H162	H	1.740207	-0.540619	1.000343
Cl163	Cl	0.547881	-0.440131	0.456905
Cl164	Cl	1.047881	0.059869	0.956905
H165	H	1.120089	-1.024185	0.512079
H166	H	1.620089	-0.524185	1.012079
H167	H	0.841519	-0.659924	0.684478
H168	H	1.341519	-0.159924	1.184478
Cl169	Cl	1.118860	-1.205011	0.807041
Cl170	Cl	1.618860	-0.705011	1.307041
H171	H	1.292508	-1.211146	0.750462
H172	H	1.792508	-0.711146	1.250462
Cl173	Cl	1.291213	-1.078265	0.792203
Cl174	Cl	1.791213	-0.578265	1.292203
Cl175	Cl	1.008159	-0.742608	1.286179
Cl176	Cl	1.508159	-0.242608	1.786179
Cl177	Cl	1.012101	-1.169778	0.654829
Cl178	Cl	1.512101	-0.669778	1.154829
Cl179	Cl	1.264667	-0.568697	0.976611
Cl180	Cl	1.764667	-0.068697	1.476611
Cl181	Cl	1.083852	-1.154632	0.495387
Cl182	Cl	1.583852	-0.654632	0.995387
