data_functionalizedCrystal
_audit_creation_method	'MofGen! by Chris Wilmer'
_symmetry_space_group_name_H-M	'P1'
_symmetry_Int_Tables_number	1
_symmetry_cell_setting	triclinic
loop_
_symmetry_equiv_pos_as_xyz
  x,y,z
_cell_length_a	14.519731
_cell_length_b	10.540539
_cell_length_c	12.996460
_cell_angle_alpha	89.996006
_cell_angle_beta	89.994327
_cell_angle_gamma	84.107172
loop_
_atom_site_label
_atom_site_type_symbol
_atom_site_fract_x
_atom_site_fract_y
_atom_site_fract_z
O1	O	1.224754	0.166529	-0.085564
O2	O	1.724754	0.666529	0.414436
O3	O	0.956385	0.186096	-0.085565
O4	O	1.456385	0.686096	0.414435
O5	O	1.096692	-0.008456	-0.085563
O6	O	1.596692	0.491544	0.414437
O7	O	1.084447	0.361081	-0.085566
O8	O	1.584447	0.861081	0.414434
O9	O	1.096677	-0.008467	0.085571
O10	O	1.596677	0.491533	0.585571
O11	O	0.956370	0.186085	0.085569
O12	O	1.456370	0.686085	0.585569
O13	O	1.224739	0.166518	0.085570
O14	O	1.724739	0.666518	0.585570
Cu15	Cu	1.090553	0.176301	0.101195
Cu16	Cu	1.590553	0.676301	0.601195
Cu17	Cu	1.090571	0.176313	-0.101190
Cu18	Cu	1.590571	0.676313	0.398810
O19	O	1.084432	0.361070	0.085568
O20	O	1.584432	0.861070	0.585568
C21	C	0.922013	0.185174	0.000002
C22	C	1.422013	0.685174	0.500002
C23	C	0.819618	0.182426	0.000001
C24	C	1.319618	0.682426	0.500001
C25	C	0.736462	0.180194	-0.000003
C26	C	1.236462	0.680194	0.499997
C27	C	0.632138	0.177405	-0.000003
C28	C	1.132138	0.677405	0.499997
C29	C	0.548987	0.175191	-0.000003
C30	C	1.048987	0.675191	0.499997
C31	C	0.444657	0.172402	-0.000006
C32	C	0.944657	0.672402	0.499994
C33	C	1.095766	-0.055755	0.000002
C34	C	1.595766	0.444245	0.500002
C35	C	1.093019	-0.196675	-0.000004
C36	C	1.593019	0.303325	0.499996
C37	C	0.987741	-0.379038	-0.000388
C38	C	1.487741	0.120962	0.499612
C39	C	0.990526	-0.232449	-0.000003
C40	C	1.490526	0.267551	0.499997
C41	C	1.142335	-0.258837	0.097722
C42	C	1.642335	0.241163	0.597722
C43	C	1.138837	-0.405347	0.097805
C44	C	1.638837	0.094653	0.597805
C45	C	1.140938	-0.405874	-0.096807
C46	C	1.640938	0.094126	0.403193
C47	C	1.141882	-0.258901	-0.098099
C48	C	1.641882	0.241099	0.401901
C49	C	1.259111	0.167440	0.000001
C50	C	1.759111	0.667440	0.500001
C51	C	1.361506	0.170188	-0.000005
C52	C	1.861506	0.670188	0.499995
C53	C	1.085358	0.408369	0.000001
C54	C	1.585358	0.908369	0.500001
C55	C	1.088105	0.549289	-0.000001
C56	C	1.588105	1.049289	0.499999
N57	N	1.090548	0.176291	0.243542
N58	N	1.590548	0.676291	0.743542
N59	N	1.090584	0.176313	-0.243538
N60	N	1.590584	0.676313	0.256462
C61	C	1.090570	0.176315	0.663356
C62	C	1.590570	0.676315	1.163356
C63	C	1.090561	0.176312	0.546551
C64	C	1.590561	0.676312	1.046551
C65	C	1.090559	0.176304	0.453453
C66	C	1.590559	0.676304	0.953453
C67	C	1.090549	0.176299	0.336640
C68	C	1.590549	0.676299	0.836640
H69	H	0.951721	-0.189449	-0.070057
H70	H	1.451721	0.310551	0.429943
H71	H	1.107773	-0.437087	-0.170877
H72	H	1.607773	0.062913	0.329123
C73	C	0.933044	-0.417107	-0.095057
C74	C	1.433044	0.082893	0.404943
H75	H	0.872674	-0.372810	-0.093854
H76	H	1.372674	0.127190	0.406146
H77	H	0.928595	-0.506379	-0.093764
H78	H	1.428595	-0.006379	0.406236
H79	H	0.964116	-0.395595	-0.155967
H80	H	1.464116	0.104405	0.344033
H81	H	1.102378	-0.433182	0.170856
H82	H	1.602378	0.066818	0.670856
H83	H	0.947412	-0.408843	0.069300
H84	H	1.447412	0.091157	0.569300
H85	H	1.105798	-0.217674	-0.170394
H86	H	1.605798	0.282326	0.329606
H87	H	1.214969	-0.453848	-0.097464
H88	H	1.714969	0.046152	0.402536
C89	C	1.096043	-0.200845	0.195972
C90	C	1.596043	0.299155	0.695972
H91	H	1.126379	-0.239076	0.254701
H92	H	1.626379	0.260924	0.754701
H93	H	1.032698	-0.216112	0.196849
H94	H	1.532698	0.283888	0.696849
H95	H	1.100508	-0.111565	0.196984
H96	H	1.600508	0.388435	0.696984
H97	H	1.212548	-0.454060	0.102238
H98	H	1.712548	0.045940	0.602238
H99	H	1.216608	-0.235434	-0.104000
H100	H	1.716608	0.264566	0.396000
H101	H	0.951437	-0.190302	0.070167
H102	H	1.451437	0.309698	0.570167
C103	C	1.244012	-0.229663	0.102643
C104	C	1.744012	0.270337	0.602643
H105	H	1.257321	-0.179186	0.045006
H106	H	1.757321	0.320814	0.545006
H107	H	1.283489	-0.307320	0.101739
H108	H	1.783489	0.192680	0.601739
H109	H	1.253950	-0.184455	0.164219
H110	H	1.753950	0.315545	0.664219
