data_functionalizedCrystal
_audit_creation_method	'MofGen! by Chris Wilmer'
_symmetry_space_group_name_H-M	'P1'
_symmetry_Int_Tables_number	1
_symmetry_cell_setting	triclinic
loop_
_symmetry_equiv_pos_as_xyz
  x,y,z
_cell_length_a	6.817900
_cell_length_b	12.840933
_cell_length_c	10.773893
_cell_angle_alpha	82.062801
_cell_angle_beta	82.583035
_cell_angle_gamma	88.345099
loop_
_atom_site_label
_atom_site_type_symbol
_atom_site_fract_x
_atom_site_fract_y
_atom_site_fract_z
V1	V	-3.865450	0.282170	0.175519
O2	O	-3.889317	0.320350	-0.005411
O3	O	-3.786060	0.238354	0.345116
O4	O	-3.761300	0.424344	0.174146
O5	O	-3.914248	0.133073	0.166743
V6	V	-4.360317	0.269425	0.153721
O7	O	-4.101823	0.310127	0.223335
O8	O	-4.574141	0.241468	0.105905
O9	O	-4.216501	0.313241	-0.015877
O10	O	-4.453847	0.231245	0.334650
O11	O	-4.428916	0.418522	0.162496
O12	O	-4.241261	0.127252	0.155094
C13	C	-3.625325	0.223095	0.386419
C14	C	-3.641330	0.188218	0.525076
C15	C	-3.649829	0.080891	0.571520
C16	C	-3.664897	0.048106	0.701801
C17	C	-3.671450	0.122651	0.785635
C18	C	-3.662955	0.229988	0.739183
C19	C	-3.647902	0.262771	0.608905
C20	C	-3.593754	0.460343	0.168323
C21	C	-3.589602	0.578475	0.168321
C22	C	-4.072148	0.091247	0.160914
C23	C	-4.055153	-0.026885	0.160913
V24	V	-3.848397	0.768332	0.175527
O25	O	-3.886577	0.921691	0.166750
O26	O	-3.754393	0.621485	0.174155
O27	O	-3.767468	0.768145	0.345123
O28	O	-3.873412	0.774015	-0.005401
V29	V	-4.341317	0.811121	0.153737
O30	O	-4.086707	0.741079	0.223347
O31	O	-4.552408	0.861059	0.105924
O32	O	-4.212508	0.946722	0.155105
O33	O	-4.420326	0.663678	0.162516
O34	O	-4.433491	0.811354	0.334667
O35	O	-4.199433	0.800061	-0.015862
C36	C	-4.040577	0.328496	-0.057173
C37	C	-4.003808	0.363379	-0.195828
C38	C	-3.606286	0.765553	0.386416
C39	C	-3.620956	0.768542	0.525071
C40	C	-4.024551	0.785688	-0.057168
C41	C	-3.989158	0.781664	-0.195825
C42	C	-3.797464	0.773558	0.592971
C43	C	-3.812630	0.776647	0.736278
C44	C	-4.162404	0.376120	-0.267350
C45	C	-4.127880	0.408880	-0.397635
C46	C	-3.934759	0.428906	-0.456396
C47	C	-3.776151	0.416160	-0.384866
C48	C	-3.810675	0.383393	-0.254584
H49	H	-3.640975	0.350168	0.571102
C50	C	-4.302369	0.422908	-0.476296
C51	C	-4.469780	0.502043	-0.445849
C52	C	-4.644270	0.516071	-0.524504
C53	C	-4.651349	0.450964	-0.633607
C54	C	-4.483932	0.371823	-0.664060
C55	C	-4.309442	0.357795	-0.585405
H56	H	-4.464546	0.550244	-0.365079
H57	H	-4.768203	0.574656	-0.501960
H58	H	-4.780517	0.461348	-0.691833
H59	H	-4.489167	0.323622	-0.744829
H60	H	-4.185509	0.299210	-0.607949
H61	H	-3.618912	0.432469	-0.432729
H62	H	-3.644485	0.020178	0.503277
H63	H	-3.671805	-0.039296	0.739601
H64	H	-3.683706	0.095942	0.891713
H65	H	-3.668296	0.290674	0.807459
H66	H	-3.937351	0.775572	0.545007
H67	H	-3.672729	0.774645	0.784234
H68	H	-4.129060	0.783675	0.756219
H69	H	-3.481068	0.766540	0.573032
H70	H	-4.319667	0.359820	-0.219524
H71	H	-3.906675	0.455586	-0.562481
H72	H	-3.681519	0.373031	-0.196359
