data_functionalizedCrystal
_audit_creation_method	'MofGen! by Chris Wilmer'
_symmetry_space_group_name_H-M	'P1'
_symmetry_Int_Tables_number	1
_symmetry_cell_setting	triclinic
loop_
_symmetry_equiv_pos_as_xyz
  x,y,z
_cell_length_a	16.109301
_cell_length_b	14.472310
_cell_length_c	16.109301
_cell_angle_alpha	89.997506
_cell_angle_beta	96.538519
_cell_angle_gamma	90.010306
loop_
_atom_site_label
_atom_site_type_symbol
_atom_site_fract_x
_atom_site_fract_y
_atom_site_fract_z
O1	O	1.103143	0.076785	-0.106861
O2	O	1.353143	0.326785	0.143139
O3	O	1.603143	0.576785	0.393139
O4	O	1.853143	0.826785	0.643139
O5	O	0.861081	0.076801	-0.120161
O6	O	1.111081	0.326801	0.129839
O7	O	1.361081	0.576801	0.379839
O8	O	1.611081	0.826801	0.629839
O9	O	0.988761	0.076783	0.007520
O10	O	1.238761	0.326783	0.257520
O11	O	1.488761	0.576783	0.507520
O12	O	1.738761	0.826783	0.757520
O13	O	0.975462	0.076803	-0.234542
O14	O	1.225462	0.326803	0.015458
O15	O	1.475462	0.576803	0.265458
O16	O	1.725462	0.826803	0.515458
O17	O	0.988729	-0.076899	0.007512
O18	O	1.238729	0.173101	0.257512
O19	O	1.488729	0.423101	0.507512
O20	O	1.738729	0.673101	0.757512
O21	O	0.861048	-0.076881	-0.120168
O22	O	1.111048	0.173119	0.129832
O23	O	1.361048	0.423119	0.379832
O24	O	1.611048	0.673119	0.629832
O25	O	1.103110	-0.076897	-0.106869
O26	O	1.353110	0.173103	0.143131
O27	O	1.603110	0.423103	0.393131
O28	O	1.853110	0.673103	0.643131
Cu29	Cu	0.982076	-0.090921	-0.113519
Cu30	Cu	1.232076	0.159079	0.136481
Cu31	Cu	1.482076	0.409079	0.386481
Cu32	Cu	1.732076	0.659079	0.636481
Cu33	Cu	0.982115	0.090825	-0.113510
Cu34	Cu	1.232115	0.340825	0.136490
Cu35	Cu	1.482115	0.590825	0.386490
Cu36	Cu	1.732115	0.840825	0.636490
O37	O	0.975429	-0.076879	-0.234550
O38	O	1.225429	0.173121	0.015450
O39	O	1.475429	0.423121	0.265450
O40	O	1.725429	0.673121	0.515450
C41	C	0.830090	-0.000039	-0.119626
C42	C	1.080090	0.249961	0.130374
C43	C	1.330090	0.499961	0.380374
C44	C	1.580090	0.749961	0.630374
C45	C	0.737794	-0.000033	-0.118011
C46	C	0.987794	0.249967	0.131989
C47	C	1.237794	0.499967	0.381989
C48	C	1.487794	0.749967	0.631989
N49	N	0.982055	-0.218752	-0.113525
N50	N	1.232055	0.031248	0.136475
N51	N	1.482055	0.281248	0.386475
N52	N	1.732055	0.531248	0.636475
C53	C	0.515522	-0.000038	-0.190018
C54	C	0.765522	0.249962	0.059982
C55	C	1.015522	0.499962	0.309982
C56	C	1.265522	0.749962	0.559982
C57	C	0.428801	-0.000044	-0.188494
C58	C	0.678801	0.249956	0.061506
C59	C	0.928801	0.499956	0.311506
C60	C	1.178801	0.749956	0.561506
C61	C	0.448676	-0.000053	-0.037006
C62	C	0.698676	0.249947	0.212994
C63	C	0.948676	0.499947	0.462994
C64	C	1.198676	0.749947	0.712994
C65	C	0.535394	-0.000053	-0.038530
C66	C	0.785394	0.249947	0.211470
C67	C	1.035394	0.499947	0.461470
C68	C	1.285394	0.749947	0.711470
C69	C	0.568815	-0.000041	-0.115039
C70	C	0.818815	0.249959	0.134961
C71	C	1.068815	0.499959	0.384961
C72	C	1.318815	0.749959	0.634961
C73	C	0.395376	-0.000047	-0.111990
C74	C	0.645376	0.249953	0.138010
C75	C	0.895376	0.499953	0.388010
C76	C	1.145376	0.749953	0.638010
C77	C	0.301350	-0.000053	-0.110337
C78	C	0.551350	0.249947	0.139663
C79	C	0.801350	0.499947	0.389663
C80	C	1.051350	0.749947	0.639663
C81	C	0.662847	-0.000036	-0.116693
C82	C	0.912847	0.249964	0.133307
C83	C	1.162847	0.499964	0.383307
C84	C	1.412847	0.749964	0.633307
C85	C	0.982114	-0.592844	-0.113507
C86	C	1.232114	-0.342844	0.136493
C87	C	1.482114	-0.092844	0.386493
C88	C	1.732114	0.157156	0.636493
C89	C	0.913565	-0.553668	-0.181597
C90	C	1.163565	-0.303668	0.068403
C91	C	1.413565	-0.053668	0.318403
C92	C	1.663565	0.196332	0.568403
C93	C	0.913723	-0.446580	-0.181846
C94	C	1.163723	-0.196580	0.068154
C95	C	1.413723	0.053420	0.318154
C96	C	1.663723	0.303420	0.568154
C97	C	0.982084	-0.407252	-0.113516
C98	C	1.232084	-0.157252	0.136484
C99	C	1.482084	0.092748	0.386484
C100	C	1.732084	0.342748	0.636484
C101	C	1.068828	-0.446093	-0.132440
C102	C	1.318828	-0.196093	0.117560
C103	C	1.568828	0.053907	0.367560
C104	C	1.818828	0.303907	0.617560
C105	C	1.068443	-0.553215	-0.132924
C106	C	1.318443	-0.303215	0.117076
C107	C	1.568443	-0.053215	0.367076
C108	C	1.818443	0.196785	0.617076
C109	C	0.964692	-0.553379	-0.026291
C110	C	1.214692	-0.303379	0.223709
C111	C	1.464692	-0.053379	0.473709
C112	C	1.714692	0.196621	0.723709
C113	C	0.962702	-0.446251	-0.026873
C114	C	1.212702	-0.196251	0.223127
C115	C	1.462702	0.053749	0.473127
C116	C	1.712702	0.303749	0.723127
C117	C	0.982072	-0.302364	-0.113519
C118	C	1.232072	-0.052364	0.136481
C119	C	1.482072	0.197636	0.386481
C120	C	1.732072	0.447636	0.636481
C121	C	0.982131	-0.697732	-0.113506
C122	C	1.232131	-0.447732	0.136494
C123	C	1.482131	-0.197732	0.386494
C124	C	1.732131	0.052268	0.636494
C125	C	1.134101	-0.000055	-0.107404
C126	C	1.384101	0.249945	0.142596
C127	C	1.634101	0.499945	0.392596
C128	C	1.884101	0.749945	0.642596
C129	C	1.226397	-0.000055	-0.109019
C130	C	1.476397	0.249945	0.140981
C131	C	1.726397	0.499945	0.390981
C132	C	1.976397	0.749945	0.640981
N133	N	0.982143	0.218656	-0.113498
N134	N	1.232143	0.468656	0.136502
N135	N	1.482143	0.718656	0.386502
N136	N	1.732143	0.968656	0.636502
C137	C	0.988206	-0.000058	0.038491
C138	C	1.238206	0.249942	0.288491
C139	C	1.488206	0.499942	0.538491
C140	C	1.738206	0.749942	0.788491
C141	C	0.986591	-0.000059	0.130786
C142	C	1.236591	0.249941	0.380786
C143	C	1.486591	0.499941	0.630786
C144	C	1.736591	0.749941	0.880786
C145	C	0.975984	-0.000036	-0.265521
C146	C	1.225984	0.249964	-0.015521
C147	C	1.475984	0.499964	0.234479
C148	C	1.725984	0.749964	0.484479
C149	C	0.977600	-0.000028	-0.357816
C150	C	1.227600	0.249972	-0.107816
C151	C	1.477600	0.499972	0.142184
C152	C	1.727600	0.749972	0.392184
C153	C	1.058599	-0.000049	0.353059
C154	C	1.308599	0.249951	0.603059
C155	C	1.558599	0.499951	0.853059
C156	C	1.808599	0.749951	1.103059
C157	C	1.057075	-0.000042	0.439779
C158	C	1.307075	0.249958	0.689779
C159	C	1.557075	0.499958	0.939779
C160	C	1.807075	0.749958	1.189779
C161	C	0.905586	-0.000036	0.419905
C162	C	1.155586	0.249964	0.669905
C163	C	1.405586	0.499964	0.919905
C164	C	1.655586	0.749964	1.169905
C165	C	0.907111	-0.000037	0.333186
C166	C	1.157111	0.249963	0.583186
C167	C	1.407111	0.499963	0.833186
C168	C	1.657111	0.749963	1.083186
C169	C	0.983620	-0.000048	0.299766
C170	C	1.233620	0.249952	0.549766
C171	C	1.483620	0.499952	0.799766
C172	C	1.733620	0.749952	1.049766
C173	C	0.980571	-0.000040	0.473205
C174	C	1.230571	0.249960	0.723205
C175	C	1.480571	0.499960	0.973205
C176	C	1.730571	0.749960	1.223205
C177	C	0.978918	-0.000031	0.567231
C178	C	1.228918	0.249969	0.817231
C179	C	1.478918	0.499969	1.067231
C180	C	1.728918	0.749969	1.317231
C181	C	0.985273	-0.000055	0.205734
C182	C	1.235273	0.249945	0.455734
C183	C	1.485273	0.499945	0.705734
C184	C	1.735273	0.749945	0.955734
H185	H	0.542730	-0.000035	-0.252317
H186	H	0.792730	0.249965	-0.002317
H187	H	1.042730	0.499965	0.247683
H188	H	1.292730	0.749965	0.497683
H189	H	1.009388	-0.419484	0.026169
H190	H	1.259388	-0.169484	0.276169
H191	H	1.509388	0.080516	0.526169
H192	H	1.759388	0.330516	0.776169
H193	H	0.898892	-0.420866	-0.012511
H194	H	1.148892	-0.170866	0.237489
H195	H	1.398892	0.079134	0.487489
H196	H	1.648892	0.329134	0.737489
H197	H	1.083799	-0.578186	-0.196529
H198	H	1.333799	-0.328186	0.053471
H199	H	1.583799	-0.078186	0.303471
H200	H	1.833799	0.171814	0.553471
H201	H	1.014681	-0.578712	0.024379
H202	H	1.264681	-0.328712	0.274379
H203	H	1.514681	-0.078712	0.524379
H204	H	1.764681	0.171288	0.774379
H205	H	0.385413	-0.000043	-0.249550
H206	H	0.635413	0.249957	0.000450
H207	H	0.885413	0.499957	0.250450
H208	H	1.135413	0.749957	0.500450
H209	H	0.421454	-0.000068	0.025285
H210	H	0.671454	0.249932	0.275285
H211	H	0.921454	0.499932	0.525285
H212	H	1.171454	0.749932	0.775285
H213	H	0.578788	-0.000058	0.022530
H214	H	0.828788	0.249942	0.272530
H215	H	1.078788	0.499942	0.522530
H216	H	1.328788	0.749942	0.772530
H217	H	1.084551	-0.419252	-0.195320
H218	H	1.334551	-0.169252	0.054680
H219	H	1.584551	0.080748	0.304680
H220	H	1.834551	0.330748	0.554680
H221	H	0.849244	-0.420321	-0.170574
H222	H	1.099244	-0.170321	0.079426
H223	H	1.349244	0.079679	0.329426
H224	H	1.599244	0.329679	0.579426
H225	H	0.848877	-0.579453	-0.170512
H226	H	1.098877	-0.329453	0.079488
H227	H	1.348877	-0.079453	0.329488
H228	H	1.598877	0.170547	0.579488
H229	H	0.924534	-0.580573	-0.245955
H230	H	1.174534	-0.330573	0.004045
H231	H	1.424534	-0.080573	0.254045
H232	H	1.674534	0.169427	0.504045
H233	H	0.924846	-0.420942	-0.246568
H234	H	1.174846	-0.170942	0.003432
H235	H	1.424846	0.079058	0.253432
H236	H	1.674846	0.329058	0.503432
H237	H	1.121043	-0.579127	-0.085284
H238	H	1.371043	-0.329127	0.164716
H239	H	1.621043	-0.079127	0.414716
H240	H	1.871043	0.170873	0.664716
H241	H	1.121055	-0.420617	-0.084164
H242	H	1.371055	-0.170617	0.165836
H243	H	1.621055	0.079383	0.415836
H244	H	1.871055	0.329383	0.665836
H245	H	0.902813	-0.580444	-0.008088
H246	H	1.152813	-0.330444	0.241912
H247	H	1.402813	-0.080444	0.491912
H248	H	1.652813	0.169556	0.741912
H249	H	1.120897	-0.000057	0.325851
H250	H	1.370897	0.249943	0.575851
H251	H	1.620897	0.499943	0.825851
H252	H	1.870897	0.749943	1.075851
H253	H	0.846050	-0.000033	0.289792
H254	H	1.096050	0.249967	0.539792
H255	H	1.346050	0.499967	0.789792
H256	H	1.596050	0.749967	1.039792
H257	H	1.118130	-0.000040	0.483168
H258	H	1.368130	0.249960	0.733168
H259	H	1.618130	0.499960	0.983168
H260	H	1.868130	0.749960	1.233168
H261	H	0.843295	-0.000028	0.447127
H262	H	1.093295	0.249972	0.697127
H263	H	1.343295	0.499972	0.947127
H264	H	1.593295	0.749972	1.197127
