data_functionalizedCrystal
_audit_creation_method	'MofGen! by Chris Wilmer'
_symmetry_space_group_name_H-M	'P1'
_symmetry_Int_Tables_number	1
_symmetry_cell_setting	triclinic
loop_
_symmetry_equiv_pos_as_xyz
  x,y,z
_cell_length_a	14.971482
_cell_length_b	11.792254
_cell_length_c	14.048226
_cell_angle_alpha	89.993407
_cell_angle_beta	89.994098
_cell_angle_gamma	83.905603
loop_
_atom_site_label
_atom_site_type_symbol
_atom_site_fract_x
_atom_site_fract_y
_atom_site_fract_z
O1	O	1.187547	0.147888	-0.079149
O2	O	0.927218	0.165605	-0.079153
O3	O	1.063694	-0.008464	-0.079144
O4	O	1.051071	0.321957	-0.079158
O5	O	1.063677	-0.008474	0.079177
O6	O	0.927201	0.165595	0.079168
O7	O	1.187530	0.147878	0.079173
Zn8	Zn	1.057363	0.156735	0.104307
Zn9	Zn	1.057385	0.156748	-0.104288
O10	O	1.051054	0.321947	0.079163
C11	C	0.893882	0.164808	0.000007
C12	C	0.794575	0.162436	0.000005
C13	C	0.747917	0.161313	0.086307
C14	C	0.654609	0.159066	0.086308
C15	C	0.607961	0.157950	0.000006
C16	C	0.654626	0.159070	-0.086302
C17	C	0.747932	0.161309	-0.086302
C18	C	0.460145	0.154406	-0.086296
C19	C	0.366832	0.152169	-0.086296
C20	C	0.366822	0.152164	0.086315
C21	C	0.460128	0.154403	0.086315
C22	C	0.506787	0.155524	0.000006
C23	C	1.062891	-0.050755	0.000016
C24	C	1.060510	-0.176752	0.000015
C25	C	1.058577	-0.279076	0.000012
C26	C	1.056159	-0.407447	0.000003
C27	C	1.220867	0.148675	0.000010
C28	C	1.320173	0.151047	0.000006
C29	C	1.051858	0.364237	0.000001
C30	C	1.054238	0.490235	-0.000004
N31	N	1.057355	0.156725	0.246668
N32	N	1.057400	0.156749	-0.246649
C33	C	1.117806	0.079679	0.296490
C34	C	1.117812	0.079678	0.396148
C35	C	1.057371	0.156730	0.445981
C36	C	0.996913	0.233779	0.396152
C37	C	0.996904	0.233773	0.296496
C38	C	0.996939	0.233787	0.603867
C39	C	0.996950	0.233795	0.703529
C40	C	1.117847	0.079692	0.703518
C41	C	1.117838	0.079687	0.603862
C42	C	1.057381	0.156738	0.554040
H43	H	0.498106	0.155318	0.156589
H44	H	0.785890	0.162231	0.156584
H45	H	0.328828	0.151251	0.156591
H46	H	1.167035	0.016941	0.436712
C47	C	1.184320	-0.005068	0.549046
H48	H	1.220321	-0.050964	0.592989
H49	H	1.221744	0.035836	0.510153
H50	H	1.151904	-0.052386	0.510187
C51	C	1.184291	-0.005081	0.241681
H52	H	1.220287	-0.050973	0.285631
H53	H	1.221718	0.035819	0.202790
H54	H	1.151877	-0.052400	0.202823
H55	H	0.498131	0.155320	-0.156578
C56	C	0.603288	0.157840	0.181240
H57	H	0.644432	0.158841	0.232638
H58	H	0.573390	0.090833	0.184839
H59	H	0.560387	0.223110	0.184819
C60	C	0.930464	0.318542	0.758349
H61	H	0.939138	0.307515	0.824836
H62	H	0.870710	0.306084	0.742038
H63	H	0.940541	0.394317	0.742005
C64	C	1.184341	-0.005071	0.758318
H65	H	1.175684	0.005954	0.824806
H66	H	1.244093	0.007378	0.741974
H67	H	1.174253	-0.080844	0.741993
H68	H	0.947677	0.296511	0.255932
H69	H	0.328853	0.151262	-0.156571
H70	H	0.616638	0.158153	-0.156571
H71	H	0.947696	0.296512	0.436733
C72	C	0.799256	0.162551	-0.181234
H73	H	0.758110	0.161578	-0.232633
H74	H	0.842157	0.097292	-0.184821
H75	H	0.829150	0.229569	-0.184823
C76	C	0.930442	0.318547	0.549064
H77	H	0.894454	0.364446	0.593014
H78	H	0.893007	0.277645	0.510199
H79	H	0.962852	0.365860	0.510178
