data_functionalizedCrystal
_audit_creation_method	'MofGen! by Chris Wilmer'
_symmetry_space_group_name_H-M	'P1'
_symmetry_Int_Tables_number	1
_symmetry_cell_setting	triclinic
loop_
_symmetry_equiv_pos_as_xyz
  x,y,z
_cell_length_a	14.519709
_cell_length_b	14.519731
_cell_length_c	7.540329
_cell_angle_alpha	89.995423
_cell_angle_beta	90.002655
_cell_angle_gamma	83.684499
loop_
_atom_site_label
_atom_site_type_symbol
_atom_site_fract_x
_atom_site_fract_y
_atom_site_fract_z
O1	O	1.223875	0.120889	-0.147256
O2	O	1.473875	0.370889	0.102744
O3	O	1.723875	0.620889	0.352744
O4	O	1.973875	0.870889	0.602744
O5	O	0.955399	0.135125	-0.147310
O6	O	1.205399	0.385125	0.102690
O7	O	1.455399	0.635125	0.352690
O8	O	1.705399	0.885125	0.602690
O9	O	1.096745	-0.006230	-0.147265
O10	O	1.346745	0.243770	0.102735
O11	O	1.596745	0.493770	0.352735
O12	O	1.846745	0.743770	0.602735
O13	O	1.082529	0.262244	-0.147300
O14	O	1.332529	0.512244	0.102700
O15	O	1.582529	0.762244	0.352700
O16	O	1.832529	1.012244	0.602700
O17	O	1.096737	-0.006232	0.147700
O18	O	1.346737	0.243768	0.397700
O19	O	1.596737	0.493768	0.647700
O20	O	1.846737	0.743768	0.897700
O21	O	0.955391	0.135123	0.147655
O22	O	1.205391	0.385123	0.397655
O23	O	1.455391	0.635123	0.647655
O24	O	1.705391	0.885123	0.897655
O25	O	1.223866	0.120887	0.147710
O26	O	1.473866	0.370887	0.397710
O27	O	1.723866	0.620887	0.647710
O28	O	1.973866	0.870887	0.897710
Cu29	Cu	1.089628	0.128005	0.174615
Cu30	Cu	1.339628	0.378005	0.424615
Cu31	Cu	1.589628	0.628005	0.674615
Cu32	Cu	1.839628	0.878005	0.924615
Cu33	Cu	1.089638	0.128007	-0.174216
Cu34	Cu	1.339638	0.378007	0.075784
Cu35	Cu	1.589638	0.628007	0.325784
Cu36	Cu	1.839638	0.878007	0.575784
O37	O	1.082520	0.262242	0.147665
O38	O	1.332520	0.512242	0.397665
O39	O	1.582520	0.762242	0.647665
O40	O	1.832520	1.012242	0.897665
C41	C	0.921035	0.134461	0.000165
C42	C	1.171035	0.384461	0.250165
C43	C	1.421035	0.634461	0.500165
C44	C	1.671035	0.884461	0.750165
C45	C	0.818654	0.132473	0.000145
C46	C	1.068654	0.382473	0.250145
C47	C	1.318654	0.632473	0.500145
C48	C	1.568654	0.882473	0.750145
C49	C	0.443757	0.125153	0.000227
C50	C	0.693757	0.375153	0.250227
C51	C	0.943757	0.625153	0.500227
C52	C	1.193757	0.875153	0.750227
C53	C	0.548065	0.127186	0.000203
C54	C	0.798065	0.377186	0.250203
C55	C	1.048065	0.627186	0.500203
C56	C	1.298065	0.877186	0.750203
C57	C	0.631202	0.128813	0.000184
C58	C	0.881202	0.378813	0.250184
C59	C	1.131202	0.628813	0.500184
C60	C	1.381202	0.878813	0.750184
C61	C	0.735517	0.130846	0.000164
C62	C	0.985517	0.380846	0.250164
C63	C	1.235517	0.630846	0.500164
C64	C	1.485517	0.880846	0.750164
C65	C	1.096075	-0.040591	0.000217
C66	C	1.346075	0.209409	0.250217
C67	C	1.596075	0.459409	0.500217
C68	C	1.846075	0.709409	0.750217
C69	C	1.094079	-0.142971	0.000218
C70	C	1.344079	0.107029	0.250218
C71	C	1.594079	0.357029	0.500218
C72	C	1.844079	0.607029	0.750218
C73	C	1.092457	-0.226115	0.000214
C74	C	1.342457	0.023885	0.250214
C75	C	1.592457	0.273885	0.500214
C76	C	1.842457	0.523885	0.750214
C77	C	1.090430	-0.330424	0.000200
C78	C	1.340430	-0.080424	0.250200
C79	C	1.590430	0.169576	0.500200
C80	C	1.840430	0.419576	0.750200
C81	C	1.088822	-0.413563	0.000188
C82	C	1.338822	-0.163563	0.250188
C83	C	1.588822	0.086437	0.500188
C84	C	1.838822	0.336437	0.750188
C85	C	1.086795	-0.517878	0.000177
C86	C	1.336795	-0.267878	0.250177
C87	C	1.586795	-0.017878	0.500177
C88	C	1.836795	0.232122	0.750177
C89	C	1.258230	0.121551	0.000230
C90	C	1.508230	0.371551	0.250230
C91	C	1.758230	0.621551	0.500230
C92	C	2.008230	0.871551	0.750230
C93	C	1.360612	0.123539	0.000239
C94	C	1.610612	0.373539	0.250239
C95	C	1.860612	0.623539	0.500239
C96	C	2.110612	0.873539	0.750239
C97	C	1.083191	0.296603	0.000178
C98	C	1.333191	0.546603	0.250178
C99	C	1.583191	0.796603	0.500178
C100	C	1.833191	1.046603	0.750178
C101	C	1.085187	0.398983	0.000166
C102	C	1.335187	0.648983	0.250166
C103	C	1.585187	0.898983	0.500166
C104	C	1.835187	1.148983	0.750166
N105	N	1.089627	0.128003	0.419963
N106	N	1.339627	0.378003	0.669963
N107	N	1.589627	0.628003	0.919963
N108	N	1.839627	0.878003	1.169963
N109	N	1.089645	0.128002	-0.419564
N110	N	1.339645	0.378002	-0.169564
N111	N	1.589645	0.628002	0.080436
N112	N	1.839645	0.878002	0.330436
