data_functionalizedCrystal
_audit_creation_method	'MofGen! by Chris Wilmer'
_symmetry_space_group_name_H-M	'P1'
_symmetry_Int_Tables_number	1
_symmetry_cell_setting	triclinic
loop_
_symmetry_equiv_pos_as_xyz
  x,y,z
_cell_length_a	14.044220
_cell_length_b	10.654541
_cell_length_c	9.130307
_cell_angle_alpha	90.003083
_cell_angle_beta	89.996652
_cell_angle_gamma	88.836403
loop_
_atom_site_label
_atom_site_type_symbol
_atom_site_fract_x
_atom_site_fract_y
_atom_site_fract_z
O1	O	-1.259693	-0.302984	-0.121643
O2	O	-0.983652	-0.292051	-0.121680
O3	O	-1.128020	-0.115416	-0.121651
O4	O	-1.115324	-0.479619	-0.121671
O5	O	-1.128015	-0.115413	0.121948
O6	O	-0.983647	-0.292048	0.121919
O7	O	-1.259688	-0.302982	0.121956
Cu8	Cu	-1.121667	-0.297515	0.144180
Cu9	Cu	-1.121672	-0.297518	-0.143904
O10	O	-1.115319	-0.479617	0.121928
C11	C	-0.948303	-0.287264	0.000115
C12	C	-0.842984	-0.272988	0.000101
C13	C	-1.295036	-0.307769	0.000158
C14	C	-1.400356	-0.322044	0.000163
C15	C	-1.127086	-0.068523	0.000147
C16	C	-1.124298	0.071201	0.000144
C17	C	-0.650151	-0.246889	0.000132
C18	C	-0.593183	-0.348138	0.000132
C19	C	-0.485884	-0.333616	0.000149
C20	C	-0.757460	-0.261409	0.000115
C21	C	-1.116253	-0.526510	0.000126
C22	C	-1.119041	-0.666233	0.000120
C23	C	-1.296930	0.081824	0.000186
C24	C	-1.381932	0.152776	0.000210
C25	C	-1.379307	0.284058	0.000205
C26	C	-1.291671	0.344390	0.000172
C27	C	-1.206668	0.273437	0.000148
C28	C	-1.209303	0.142153	0.000158
C29	C	-1.034039	0.262814	0.000096
C30	C	-1.036662	0.131533	0.000111
C31	C	-0.946402	0.323146	0.000063
C32	C	-0.861398	0.252194	0.000050
C33	C	-0.864026	0.120904	0.000056
C34	C	-0.951659	0.060580	0.000088
N35	N	-1.121670	-0.297513	0.346803
N36	N	-1.121677	-0.297511	-0.346526
C37	C	-1.249561	-0.141158	0.346818
C38	C	-1.313512	-0.062984	0.423493
C39	C	-1.313522	-0.062984	0.576826
C40	C	-1.249571	-0.141164	0.653489
C41	C	-1.185619	-0.219337	0.576814
C42	C	-1.185619	-0.219331	0.423478
C43	C	-1.057725	-0.375684	0.576799
C44	C	-1.057719	-0.375692	0.423466
C45	C	-0.993774	-0.453863	0.653462
C46	C	-0.929826	-0.532045	0.576788
C47	C	-0.929819	-0.532042	0.423445
C48	C	-0.993767	-0.453865	0.346792
H49	H	-0.624995	-0.445725	0.000120
C50	C	-0.803396	-0.686583	0.561380
C51	C	-0.859530	-0.617963	0.661054
H52	H	-0.759995	-0.739619	0.613409
H53	H	-0.843168	-0.736257	0.501586
H54	H	-0.768944	-0.630407	0.501564
H55	H	-0.893988	-0.674140	0.720863
H56	H	-0.819754	-0.568286	0.720873
C57	C	-1.013662	-0.574430	0.127125
C58	C	-0.993765	-0.453862	0.178245
H59	H	-1.013667	-0.574418	0.023070
H60	H	-0.966424	-0.632162	0.161795
H61	H	-1.074398	-0.598467	0.161822
H62	H	-0.933025	-0.429828	0.143556
H63	H	-1.041006	-0.396111	0.143560
C64	C	-1.442437	-0.050289	0.749275
C65	C	-1.383816	0.022947	0.661114
H66	H	-1.485828	0.002766	0.801315
H67	H	-1.476893	-0.106438	0.689451
H68	H	-1.404345	-0.096845	0.816866
H69	H	-1.421907	0.069497	0.593515
H70	H	-1.349358	0.079118	0.720944
H71	H	-1.299076	-0.025072	0.000210
C72	C	-0.848644	0.505420	0.000006
C73	C	-0.943512	0.467453	0.000046
H74	H	-0.846860	0.594510	-0.000013
H75	H	-0.817361	0.473773	0.084941
H76	H	-0.817379	0.473742	-0.084957
H77	H	-0.974776	0.499124	0.085014
H78	H	-0.974808	0.499114	-0.084898
H79	H	-0.953808	-0.046316	0.000102
H80	H	-1.249575	-0.141148	0.778341
H81	H	-0.993781	-0.453854	0.778314
C82	C	-0.713459	0.283555	-0.125232
C83	C	-0.765078	0.318514	0.000005
H84	H	-0.653997	0.324509	-0.125261
H85	H	-0.702855	0.195226	-0.125208
H86	H	-0.748513	0.307240	-0.210163
H87	H	-0.730026	0.294820	0.084937
H88	H	-0.775678	0.406862	-0.000005
C89	C	-0.791392	-0.085057	0.000036
C90	C	-0.770588	0.042916	0.000024
H91	H	-0.733705	-0.133197	0.000006
H92	H	-0.827270	-0.104378	0.084995
H93	H	-0.827300	-0.104387	-0.084903
H94	H	-0.734686	0.062248	0.084969
H95	H	-0.734695	0.062245	-0.084943
H96	H	-0.877739	-0.595696	0.361025
C97	C	-1.339089	-0.176614	0.127175
C98	C	-1.249559	-0.141164	0.178272
H99	H	-1.339089	-0.176609	0.023121
H100	H	-1.352575	-0.258398	0.161858
H101	H	-1.386320	-0.118861	0.161877
H102	H	-1.202328	-0.198922	0.143579
H103	H	-1.236062	-0.059368	0.143574
C104	C	-0.637449	-0.049763	0.125351
C105	C	-0.607214	-0.115155	0.000133
H106	H	-0.610927	0.031559	0.125347
H107	H	-0.704961	-0.042363	0.125333
H108	H	-0.616949	-0.094132	0.210294
H109	H	-0.627720	-0.070791	-0.084812
H110	H	-0.539688	-0.122550	0.000137
C111	C	-1.367840	0.148277	0.376196
C112	C	-1.383806	0.022915	0.339178
H113	H	-1.411232	0.201297	0.324126
H114	H	-1.377016	0.159486	0.478468
H115	H	-1.304444	0.169070	0.351073
H116	H	-1.447200	0.002118	0.364312
H117	H	-1.374637	0.011699	0.236884
C118	C	-1.552313	0.176462	0.000244
C119	C	-1.478261	0.086459	0.000235
H120	H	-1.611781	0.135521	0.000245
H121	H	-1.547694	0.227445	0.085187
H122	H	-1.547693	0.227444	-0.084711
H123	H	-1.482877	0.035482	0.085196
H124	H	-1.482882	0.035454	-0.084716
C125	C	-1.476507	0.437854	-0.125001
C126	C	-1.472741	0.362056	0.000227
H127	H	-1.534192	0.486000	-0.124989
H128	H	-1.423945	0.492562	-0.125005
H129	H	-1.473953	0.386399	-0.209938
H130	H	-1.475288	0.413512	0.085164
H131	H	-1.525317	0.307342	0.000244
H132	H	-1.289541	0.451287	0.000150
