data_functionalizedCrystal
_audit_creation_method	'MofGen! by Chris Wilmer'
_symmetry_space_group_name_H-M	'P1'
_symmetry_Int_Tables_number	1
_symmetry_cell_setting	triclinic
loop_
_symmetry_equiv_pos_as_xyz
  x,y,z
_cell_length_a	16.109301
_cell_length_b	15.186229
_cell_length_c	16.109295
_cell_angle_alpha	90.002834
_cell_angle_beta	83.460334
_cell_angle_gamma	89.997109
loop_
_atom_site_label
_atom_site_type_symbol
_atom_site_fract_x
_atom_site_fract_y
_atom_site_fract_z
O1	O	-1.103132	0.073167	-0.106862
O2	O	-0.603132	0.573167	0.393138
O3	O	-0.861069	0.073180	-0.120161
O4	O	-0.361069	0.573180	0.379839
O5	O	-0.988753	0.073174	0.007520
O6	O	-0.488753	0.573174	0.507520
O7	O	-0.975448	0.073173	-0.234543
O8	O	-0.475448	0.573173	0.265457
O9	O	-0.988738	-0.073283	0.007513
O10	O	-0.488738	0.426717	0.507513
O11	O	-0.861054	-0.073277	-0.120168
O12	O	-0.361054	0.426723	0.379832
O13	O	-1.103117	-0.073291	-0.106869
O14	O	-0.603117	0.426709	0.393131
Zn15	Zn	-0.982083	-0.096537	-0.113520
Zn16	Zn	-0.482083	0.403463	0.386480
Zn17	Zn	-0.982103	0.096427	-0.113510
Zn18	Zn	-0.482103	0.596427	0.386490
O19	O	-0.975433	-0.073285	-0.234550
O20	O	-0.475433	0.426715	0.265450
C21	C	-0.830087	-0.000047	-0.119626
C22	C	-0.330087	0.499953	0.380374
C23	C	-0.737792	-0.000042	-0.118011
C24	C	-0.237792	0.499958	0.381989
N25	N	-0.982076	-0.228230	-0.113526
N26	N	-0.482076	0.271770	0.386474
C27	C	-0.988207	-0.000052	0.038491
C28	C	-0.488207	0.499948	0.538491
C29	C	-0.986594	-0.000046	0.130787
C30	C	-0.486594	0.499954	0.630787
C31	C	-1.134099	-0.000062	-0.107404
C32	C	-0.634099	0.499938	0.392596
C33	C	-1.226394	-0.000061	-0.109019
C34	C	-0.726394	0.499939	0.390981
C35	C	-0.515518	-0.000052	-0.190019
C36	C	-0.015518	0.499948	0.309981
C37	C	-0.428798	-0.000058	-0.188495
C38	C	0.071202	0.499942	0.311505
C39	C	-0.448675	-0.000053	-0.037006
C40	C	0.051325	0.499947	0.462994
C41	C	-0.535394	-0.000054	-0.038531
C42	C	-0.035394	0.499946	0.461469
C43	C	-0.568813	-0.000049	-0.115040
C44	C	-0.068813	0.499951	0.384960
C45	C	-0.395374	-0.000054	-0.111991
C46	C	0.104626	0.499946	0.388009
C47	C	-0.301348	-0.000060	-0.110338
C48	C	0.198652	0.499940	0.389662
C49	C	-0.662845	-0.000044	-0.116693
C50	C	-0.162845	0.499956	0.383307
C51	C	-1.032499	-0.453956	-0.163954
C52	C	-0.532499	0.046044	0.336046
C53	C	-1.032508	-0.546146	-0.163948
C54	C	-0.532508	-0.046146	0.336052
C55	C	-0.931692	-0.546148	-0.063064
C56	C	-0.431692	-0.046148	0.436936
C57	C	-0.931688	-0.453960	-0.063066
C58	C	-0.431688	0.046040	0.436934
C59	C	-0.982090	-0.407866	-0.113516
C60	C	-0.482090	0.092134	0.386484
C61	C	-0.982103	-0.592244	-0.113508
C62	C	-0.482103	-0.092244	0.386492
C63	C	-0.982112	-0.692200	-0.113501
C64	C	-0.482112	-0.192200	0.386499
C65	C	-0.982082	-0.307904	-0.113522
C66	C	-0.482082	0.192096	0.386478
N67	N	-0.982117	0.228119	-0.113498
N68	N	-0.482117	0.728119	0.386502
C69	C	-1.058606	-0.000017	0.353060
C70	C	-0.558606	0.499983	0.853060
C71	C	-1.057084	-0.000003	0.439780
C72	C	-0.557084	0.499997	0.939780
C73	C	-0.905595	0.000001	0.419906
C74	C	-0.405595	0.500001	0.919906
C75	C	-0.907118	-0.000007	0.333187
C76	C	-0.407118	0.499993	0.833187
C77	C	-0.983626	-0.000021	0.299766
C78	C	-0.483626	0.499979	0.799766
C79	C	-0.980580	0.000002	0.473206
C80	C	-0.480580	0.500002	0.973206
C81	C	-0.978929	0.000018	0.567232
C82	C	-0.478929	0.500018	1.067232
C83	C	-0.985277	-0.000035	0.205734
C84	C	-0.485277	0.499965	0.705734
C85	C	-0.975984	-0.000035	0.734479
C86	C	-0.475984	0.499965	1.234479
C87	C	-0.977612	0.000027	0.642186
C88	C	-0.477612	0.500027	1.142186
H89	H	-0.542724	-0.000055	-0.252317
H90	H	-0.042724	0.499945	0.247683
H91	H	-0.385408	-0.000062	-0.249551
H92	H	0.114592	0.499938	0.250449
H93	H	-1.073539	-0.416429	-0.205034
H94	H	-0.573539	0.083571	0.294966
H95	H	-0.421454	-0.000063	0.025285
H96	H	0.078546	0.499937	0.525285
H97	H	-0.890639	-0.416433	-0.021989
H98	H	-0.390639	0.083567	0.478011
Cl99	Cl	-1.151349	0.000004	0.506775
Cl100	Cl	-0.651349	0.500004	1.006775
Cl101	Cl	-0.809418	0.000018	0.461927
Cl102	Cl	-0.309418	0.500018	0.961927
Cl103	Cl	-0.602398	-0.000057	0.055737
Cl104	Cl	-0.102398	0.499943	0.555737
H105	H	-0.846056	-0.000007	0.289793
H106	H	-0.346056	0.499993	0.789793
Cl107	Cl	-0.868327	-0.604101	0.000349
Cl108	Cl	-0.368327	-0.104101	0.500349
Cl109	Cl	-1.095883	-0.604083	-0.227358
Cl110	Cl	-0.595883	-0.104083	0.272642
H111	H	-1.120904	-0.000027	0.325852
H112	H	-0.620904	0.499973	0.825852
