data_functionalizedCrystal
_audit_creation_method	'MofGen! by Chris Wilmer'
_symmetry_space_group_name_H-M	'P1'
_symmetry_Int_Tables_number	1
_symmetry_cell_setting	triclinic
loop_
_symmetry_equiv_pos_as_xyz
  x,y,z
_cell_length_a	17.019311
_cell_length_b	17.019234
_cell_length_c	11.892095
_cell_angle_alpha	90.014016
_cell_angle_beta	82.237367
_cell_angle_gamma	83.127421
loop_
_atom_site_label
_atom_site_type_symbol
_atom_site_fract_x
_atom_site_fract_y
_atom_site_fract_z
O1	O	1.057606	0.089485	-0.205667
O2	O	0.826792	0.103427	-0.184559
O3	O	0.948047	-0.017818	-0.184546
O4	O	0.936351	0.210730	-0.205679
O5	O	0.937937	-0.007724	0.003462
O6	O	0.816682	0.113521	0.003449
O7	O	1.047496	0.099579	-0.017659
Zn8	Zn	0.930484	0.108152	0.022745
Zn9	Zn	0.943805	0.094853	-0.224963
O10	O	0.926241	0.220824	-0.017671
C11	C	0.792193	0.108144	-0.087647
C12	C	0.704159	0.107149	-0.078982
C13	C	0.205976	0.101826	-0.024834
C14	C	0.288694	0.102760	-0.032979
C15	C	0.335565	0.097719	-0.139536
C16	C	0.299713	0.091752	-0.237955
C17	C	0.216996	0.090823	-0.229810
C18	C	0.585590	0.100253	-0.169256
C19	C	0.668313	0.101179	-0.177393
C20	C	0.657288	0.112190	0.027584
C21	C	0.574571	0.111256	0.035720
C22	C	0.538726	0.105292	-0.062700
C23	C	0.420115	0.098672	-0.147863
C24	C	0.454176	0.104346	-0.054372
C25	C	0.942352	-0.042004	-0.087634
C26	C	0.940435	-0.129109	-0.078966
C27	C	0.929247	-0.621472	-0.024846
C28	C	0.931056	-0.539629	-0.032985
C29	C	0.937477	-0.504202	-0.139541
C30	C	0.942082	-0.550621	-0.237964
C31	C	0.940268	-0.632462	-0.229823
C32	C	0.943226	-0.257369	-0.169248
C33	C	0.945042	-0.175522	-0.177382
C34	C	0.934014	-0.164535	0.027598
C35	C	0.932205	-0.246379	0.035729
C36	C	0.936806	-0.292791	-0.062693
C37	C	0.939328	-0.420545	-0.147864
C38	C	0.934949	-0.376445	-0.054369
C39	C	1.082096	0.094862	-0.114573
C40	C	1.170131	0.095856	-0.123246
C41	C	0.931937	0.245010	-0.114586
C42	C	0.933854	0.332114	-0.123261
N43	N	0.921399	0.117228	0.191799
N44	N	0.952896	0.085772	-0.394017
C45	C	1.016114	0.022574	0.428452
C46	C	1.009769	0.028924	0.546793
C47	C	0.902362	0.136272	0.546824
C48	C	0.908707	0.129923	0.428484
C49	C	0.965585	0.073073	0.369301
C50	C	0.971933	0.066727	0.250958
C51	C	0.864523	0.174072	0.250993
C52	C	0.858178	0.180421	0.369333
H53	H	0.924021	-0.650311	0.061923
H54	H	0.927315	-0.501844	0.047154
C55	C	0.949147	-0.511654	-0.355173
H56	H	0.949577	-0.456266	-0.345929
H57	H	0.904930	-0.521041	-0.392073
H58	H	0.997310	-0.533609	-0.399824
C59	C	0.795594	0.242931	0.434439
H60	H	0.766400	0.272087	0.382260
H61	H	0.821751	0.277918	0.474662
H62	H	0.760002	0.217341	0.486549
H63	H	0.536416	0.115343	0.122491
H64	H	0.686482	0.117046	0.107711
H65	H	1.062432	-0.023710	0.380264
C66	C	1.034493	0.004193	0.185859
H67	H	1.063671	-0.024978	0.238042
H68	H	1.070093	0.029750	0.133726
H69	H	1.008304	-0.030787	0.145663
H70	H	0.556416	0.095394	-0.249396
H71	H	0.416009	0.108454	0.032385
H72	H	0.337881	0.087652	-0.324716
C73	C	0.808948	0.229631	0.185923
H74	H	0.820871	0.217710	0.106967
H75	H	0.816740	0.282991	0.199370
H76	H	0.754946	0.222460	0.211279
H77	H	0.926980	-0.275218	0.122498
H78	H	0.317876	0.107619	0.047159
C79	C	0.928944	-0.113484	0.135855
H80	H	0.924864	-0.146306	0.200480
H81	H	0.883235	-0.075048	0.140820
H82	H	0.975615	-0.087612	0.133064
H83	H	0.946979	-0.295149	-0.249391
C84	C	0.177562	0.084256	-0.338059
H85	H	0.121585	0.084434	-0.317949
H86	H	0.199237	0.036377	-0.377615
H87	H	0.187525	0.127924	-0.385392
C88	C	0.154426	0.107373	0.092379
H89	H	0.187623	0.111070	0.149821
H90	H	0.127785	0.061471	0.103716
H91	H	0.116073	0.153017	0.095919
H92	H	0.950271	-0.146680	-0.264157
H93	H	0.944015	-0.670251	-0.309963
C94	C	1.065352	-0.026623	0.611854
H95	H	1.100137	-0.061384	0.559654
H96	H	1.034222	-0.056647	0.663985
H97	H	1.096003	0.003897	0.652049
C98	C	0.927884	-0.415409	0.062838
H99	H	0.925396	-0.376047	0.120292
H100	H	0.973133	-0.453391	0.066387
H101	H	0.880752	-0.440821	0.074150
C102	C	0.839801	0.198798	0.611938
H103	H	0.843264	0.195346	0.690888
H104	H	0.787885	0.189544	0.598515
H105	H	0.849669	0.250086	0.586593
H106	H	0.706473	0.097081	-0.264169
H107	H	0.458287	0.094565	-0.234621
H108	H	0.944561	-0.391692	-0.234622
