data_functionalizedCrystal
_audit_creation_method	'MofGen! by Chris Wilmer'
_symmetry_space_group_name_H-M	'P1'
_symmetry_Int_Tables_number	1
_symmetry_cell_setting	triclinic
loop_
_symmetry_equiv_pos_as_xyz
  x,y,z
_cell_length_a	29.839135
_cell_length_b	29.839132
_cell_length_c	29.839125
_cell_angle_alpha	90.019925
_cell_angle_beta	89.984512
_cell_angle_gamma	89.952207
loop_
_atom_site_label
_atom_site_type_symbol
_atom_site_fract_x
_atom_site_fract_y
_atom_site_fract_z
Zn1	Zn	0.686708	0.178886	-0.254040
Zn2	Zn	0.936708	0.428886	-0.004040
Zn3	Zn	1.186708	0.678886	0.245960
Zn4	Zn	1.436708	0.928886	0.495960
Zn5	Zn	0.686635	0.253998	-0.178907
Zn6	Zn	0.936635	0.503998	0.071093
Zn7	Zn	1.186635	0.753998	0.321093
Zn8	Zn	1.436635	1.003998	0.571093
Zn9	Zn	0.611590	0.178886	-0.178918
Zn10	Zn	0.861590	0.428886	0.071082
Zn11	Zn	1.111590	0.678886	0.321082
Zn12	Zn	1.361590	0.928886	0.571082
Zn13	Zn	0.611533	0.253993	-0.254004
Zn14	Zn	0.861533	0.503993	-0.004004
Zn15	Zn	1.111533	0.753993	0.245996
Zn16	Zn	1.361533	1.003993	0.495996
O17	O	0.649116	0.216441	-0.216468
O18	O	0.899116	0.466441	0.033532
O19	O	1.149116	0.716441	0.283532
O20	O	1.399116	0.966441	0.533532
O21	O	0.749565	0.188852	-0.244084
O22	O	0.999565	0.438852	0.005916
O23	O	1.249565	0.688852	0.255916
O24	O	1.499565	0.938852	0.505916
O25	O	0.676673	0.244036	-0.116042
O26	O	0.926673	0.494036	0.133958
O27	O	1.176673	0.744036	0.383958
O28	O	1.426673	0.994036	0.633958
O29	O	0.621609	0.116019	-0.188903
O30	O	0.871609	0.366019	0.061097
O31	O	1.121609	0.616019	0.311097
O32	O	1.371609	0.866019	0.561097
O33	O	0.749512	0.244036	-0.188884
O34	O	0.999512	0.494036	0.061116
O35	O	1.249512	0.744036	0.311116
O36	O	1.499512	0.994036	0.561116
O37	O	0.676798	0.116019	-0.244095
O38	O	0.926798	0.366019	0.005905
O39	O	1.176798	0.616019	0.255905
O40	O	1.426798	0.866019	0.505905
O41	O	0.621539	0.188852	-0.116050
O42	O	0.871539	0.438852	0.133950
O43	O	1.121539	0.688852	0.383950
O44	O	1.371539	0.938852	0.633950
O45	O	0.548716	0.188847	-0.188868
O46	O	0.798716	0.438847	0.061132
O47	O	1.048716	0.688847	0.311132
O48	O	1.298716	0.938847	0.561132
O49	O	0.621512	0.244028	-0.316876
O50	O	0.871512	0.494028	-0.066876
O51	O	1.121512	0.744028	0.183124
O52	O	1.371512	0.994028	0.433124
O53	O	0.548674	0.244028	-0.244033
O54	O	0.798674	0.494028	0.005967
O55	O	1.048674	0.744028	0.255967
O56	O	1.298674	0.994028	0.505967
O57	O	0.676742	0.188847	-0.316903
O58	O	0.926742	0.438847	-0.066903
O59	O	1.176742	0.688847	0.183097
O60	O	1.426742	0.938847	0.433097
O61	O	0.676618	0.316865	-0.188849
O62	O	0.926618	0.566865	0.061151
O63	O	1.176618	0.816865	0.311151
O64	O	1.426618	1.066865	0.561151
O65	O	0.621441	0.316861	-0.244023
O66	O	0.871441	0.566861	0.005977
O67	O	1.121441	0.816861	0.255977
O68	O	1.371441	1.066861	0.505977
C69	C	0.532394	0.216437	-0.216448
C70	C	0.782394	0.466437	0.033552
C71	C	1.032394	0.716437	0.283552
C72	C	1.282394	0.966437	0.533552
C73	C	0.482459	0.216447	-0.216451
C74	C	0.732459	0.466447	0.033549
C75	C	0.982459	0.716447	0.283549
C76	C	1.232459	0.966447	0.533549
C77	C	0.649028	0.333163	-0.216441
C78	C	0.899028	0.583163	0.033559
C79	C	1.149028	0.833163	0.283559
C80	C	1.399028	1.083163	0.533559
C81	C	0.649031	0.383098	-0.216444
C82	C	0.899031	0.633098	0.033556
C83	C	1.149031	0.883098	0.283556
C84	C	1.399031	1.133098	0.533556
C85	C	0.172841	0.187750	-0.245252
C86	C	0.422841	0.437750	0.004748
C87	C	0.672841	0.687750	0.254748
C88	C	0.922841	0.937750	0.504748
C89	C	-0.014832	0.187753	-0.245265
C90	C	0.235168	0.437753	0.004735
C91	C	0.485168	0.687753	0.254735
C92	C	0.735168	0.937753	0.504735
O93	O	-0.039076	0.163344	-0.269732
O94	O	0.210924	0.413344	-0.019732
O95	O	0.460924	0.663344	0.230268
O96	O	0.710924	0.913344	0.480268
N97	N	-0.038326	0.216441	-0.216484
N98	N	0.211674	0.466441	0.033516
N99	N	0.461674	0.716441	0.283516
N100	N	0.711674	0.966441	0.533516
C101	C	-0.014898	0.245129	-0.187696
C102	C	0.235102	0.495129	0.062304
C103	C	0.485102	0.745129	0.312304
C104	C	0.735102	0.995129	0.562304
O105	O	-0.039187	0.269527	-0.163212
O106	O	0.210813	0.519527	0.086788
O107	O	0.460813	0.769527	0.336788
O108	O	0.710813	1.019527	0.586788
C109	C	0.172774	0.245123	-0.187681
C110	C	0.422774	0.495123	0.062319
C111	C	0.672774	0.745123	0.312319
C112	C	0.922774	0.995123	0.562319
C113	C	0.196265	0.216436	-0.216467
C114	C	0.446265	0.466436	0.033533
C115	C	0.696265	0.716436	0.283533
C116	C	0.946265	0.966436	0.533533
C117	C	0.196332	0.159065	-0.274036
C118	C	0.446332	0.409065	-0.024036
C119	C	0.696332	0.659065	0.225964
C120	C	0.946332	0.909065	0.475964
C121	C	0.243248	0.159066	-0.274034
C122	C	0.493248	0.409066	-0.024034
C123	C	0.743248	0.659066	0.225966
C124	C	0.993248	0.909066	0.475966
C125	C	0.266672	0.187752	-0.245249
C126	C	0.516672	0.437752	0.004751
C127	C	0.766672	0.687752	0.254751
C128	C	1.016672	0.937752	0.504751
C129	C	0.243181	0.216437	-0.216465
C130	C	0.493181	0.466437	0.033535
C131	C	0.743181	0.716437	0.283535
C132	C	0.993181	0.966437	0.533535
C133	C	0.196201	0.273808	-0.158890
C134	C	0.446201	0.523808	0.091110
C135	C	0.696201	0.773808	0.341110
C136	C	0.946201	1.023808	0.591110
C137	C	0.243122	0.273803	-0.158888
C138	C	0.493122	0.523803	0.091112
C139	C	0.743122	0.773803	0.341112
C140	C	0.993122	1.023803	0.591112
C141	C	0.266613	0.245116	-0.187675
C142	C	0.516613	0.495116	0.062325
C143	C	0.766613	0.745116	0.312325
C144	C	1.016613	0.995116	0.562325
C145	C	0.313521	0.245125	-0.187678
C146	C	0.563521	0.495125	0.062322
C147	C	0.813521	0.745125	0.312322
C148	C	1.063521	0.995125	0.562322
N149	N	0.337014	0.216437	-0.216459
N150	N	0.587014	0.466437	0.033541
N151	N	0.837014	0.716437	0.283541
N152	N	1.087014	0.966437	0.533541
C153	C	0.313590	0.187750	-0.245245
C154	C	0.563590	0.437750	0.004755
C155	C	0.813590	0.687750	0.254755
C156	C	1.063590	0.937750	0.504755
C157	C	-0.113429	0.245130	-0.187706
C158	C	0.136571	0.495130	0.062294
C159	C	0.386571	0.745130	0.312294
C160	C	0.636571	0.995130	0.562294
C161	C	-0.160346	0.245133	-0.187710
C162	C	0.089654	0.495133	0.062290
C163	C	0.339654	0.745133	0.312290
C164	C	0.589654	0.995133	0.562290
C165	C	-0.160277	0.187756	-0.245279
C166	C	0.089723	0.437756	0.004721
C167	C	0.339723	0.687756	0.254721
C168	C	0.589723	0.937756	0.504721
C169	C	-0.113359	0.187756	-0.245277
C170	C	0.136641	0.437756	0.004723
C171	C	0.386641	0.687756	0.254723
C172	C	0.636641	0.937756	0.504723
C173	C	-0.089935	0.216442	-0.216487
C174	C	0.160065	0.466442	0.033513
C175	C	0.410065	0.716442	0.283513
C176	C	0.660065	0.966442	0.533513
C177	C	0.412116	0.187755	-0.245239
C178	C	0.662116	0.437755	0.004761
C179	C	0.912116	0.687755	0.254761
C180	C	1.162116	0.937755	0.504761
C181	C	0.459035	0.187760	-0.245236
C182	C	0.709035	0.437760	0.004764
C183	C	0.959035	0.687760	0.254764
C184	C	1.209035	0.937760	0.504764
C185	C	0.458962	0.245135	-0.187665
C186	C	0.708962	0.495135	0.062335
C187	C	0.958962	0.745135	0.312335
C188	C	1.208962	0.995135	0.562335
C189	C	0.412046	0.245132	-0.187670
C190	C	0.662046	0.495132	0.062330
C191	C	0.912046	0.745132	0.312330
C192	C	1.162046	0.995132	0.562330
C193	C	0.388624	0.216438	-0.216458
C194	C	0.638624	0.466438	0.033542
C195	C	0.888624	0.716438	0.283542
C196	C	1.138624	0.966438	0.533542
O197	O	0.337793	0.269518	-0.163221
O198	O	0.587793	0.519518	0.086779
O199	O	0.837793	0.769518	0.336779
O200	O	1.087793	1.019518	0.586779
O201	O	0.337887	0.163349	-0.269717
O202	O	0.587887	0.413349	-0.019717
O203	O	0.837887	0.663349	0.230283
O204	O	1.087887	0.913349	0.480283
C205	C	0.125926	0.187749	-0.245254
C206	C	0.375926	0.437749	0.004746
C207	C	0.625926	0.687749	0.254746
C208	C	0.875926	0.937749	0.504746
C209	C	0.102434	0.216434	-0.216471
C210	C	0.352434	0.466434	0.033529
C211	C	0.602434	0.716434	0.283529
C212	C	0.852434	0.966434	0.533529
C213	C	0.125859	0.245120	-0.187685
C214	C	0.375859	0.495120	0.062315
C215	C	0.625859	0.745120	0.312315
C216	C	0.875859	0.995120	0.562315
C217	C	0.055517	0.216436	-0.216475
C218	C	0.305517	0.466436	0.033525
C219	C	0.555517	0.716436	0.283525
C220	C	0.805517	0.966436	0.533525
C221	C	0.032092	0.187749	-0.245260
C222	C	0.282092	0.437749	0.004740
C223	C	0.532092	0.687749	0.254740
C224	C	0.782092	0.937749	0.504740
C225	C	0.055586	0.159061	-0.274041
C226	C	0.305586	0.409061	-0.024041
C227	C	0.555586	0.659061	0.225959
C228	C	0.805586	0.909061	0.475959
C229	C	0.102501	0.159062	-0.274040
C230	C	0.352501	0.409062	-0.024040
C231	C	0.602501	0.659062	0.225960
C232	C	0.852501	0.909062	0.475960
C233	C	0.102365	0.273808	-0.158904
C234	C	0.352365	0.523808	0.091096
C235	C	0.602365	0.773808	0.341096
C236	C	0.852365	1.023808	0.591096
C237	C	0.055450	0.273805	-0.158909
C238	C	0.305450	0.523805	0.091091
C239	C	0.555450	0.773805	0.341091
C240	C	0.805450	1.023805	0.591091
C241	C	0.032025	0.245119	-0.187694
C242	C	0.282025	0.495119	0.062306
C243	C	0.532025	0.745119	0.312306
C244	C	0.782025	0.995119	0.562306
C245	C	0.677867	0.692730	-0.187762
C246	C	0.927867	0.942730	0.062238
C247	C	1.177867	1.192730	0.312238
C248	C	1.427867	1.442730	0.562238
C249	C	0.677910	0.880404	-0.187773
C250	C	0.927910	1.130404	0.062227
C251	C	1.177910	1.380404	0.312227
C252	C	1.427910	1.630404	0.562227
O253	O	0.702380	0.904659	-0.163378
O254	O	0.952380	1.154659	0.086622
O255	O	1.202380	1.404659	0.336622
O256	O	1.452380	1.654659	0.586622
N257	N	0.649164	0.903883	-0.216475
N258	N	0.899164	1.153883	0.033525
N259	N	1.149164	1.403883	0.283525
N260	N	1.399164	1.653883	0.533525
C261	C	0.620406	0.880441	-0.245179
C262	C	0.870406	1.130441	0.004821
C263	C	1.120406	1.380441	0.254821
C264	C	1.370406	1.630441	0.504821
O265	O	0.595960	0.904718	-0.269595
O266	O	0.845960	1.154718	-0.019595
O267	O	1.095960	1.404718	0.230405
O268	O	1.345960	1.654718	0.480405
C269	C	0.620366	0.692769	-0.245171
C270	C	0.870366	0.942769	0.004829
C271	C	1.120366	1.192769	0.254829
C272	C	1.370366	1.442769	0.504829
C273	C	0.649111	0.669292	-0.216463
C274	C	0.899111	0.919292	0.033537
C275	C	1.149111	1.169292	0.283537
C276	C	1.399111	1.419292	0.533537
C277	C	0.706611	0.669254	-0.159058
C278	C	0.956611	0.919254	0.090942
C279	C	1.206611	1.169254	0.340942
C280	C	1.456611	1.419254	0.590942
C281	C	0.706598	0.622338	-0.159054
C282	C	0.956598	0.872338	0.090946
C283	C	1.206598	1.122338	0.340946
C284	C	1.456598	1.372338	0.590946
C285	C	0.677842	0.598900	-0.187754
C286	C	0.927842	0.848900	0.062246
C287	C	1.177842	1.098900	0.312246
C288	C	1.427842	1.348900	0.562246
C289	C	0.649098	0.622377	-0.216459
C290	C	0.899098	0.872377	0.033541
C291	C	1.149098	1.122377	0.283541
C292	C	1.399098	1.372377	0.533541
C293	C	0.591611	0.669328	-0.273876
C294	C	0.841611	0.919328	-0.023876
C295	C	1.091611	1.169328	0.226124
C296	C	1.341611	1.419328	0.476124
C297	C	0.591604	0.622407	-0.273873
C298	C	0.841604	0.872407	-0.023873
C299	C	1.091604	1.122407	0.226127
C300	C	1.341604	1.372407	0.476127
C301	C	0.620350	0.598930	-0.245165
C302	C	0.870350	0.848930	0.004835
C303	C	1.120350	1.098930	0.254835
C304	C	1.370350	1.348930	0.504835
C305	C	0.620330	0.552023	-0.245156
C306	C	0.870330	0.802023	0.004844
C307	C	1.120330	1.052023	0.254844
C308	C	1.370330	1.302023	0.504844
N309	N	0.649076	0.528543	-0.216454
N310	N	0.899076	0.778543	0.033546
N311	N	1.149076	1.028543	0.283546
N312	N	1.399076	1.278543	0.533546
C313	C	0.677832	0.551982	-0.187753
C314	C	0.927832	0.801982	0.062247
C315	C	1.177832	1.051982	0.312247
C316	C	1.427832	1.301982	0.562247
C317	C	0.620429	0.978972	-0.245180
C318	C	0.870429	1.228972	0.004820
C319	C	1.120429	1.478972	0.254820
C320	C	1.370429	1.728972	0.504820
C321	C	0.620438	1.025890	-0.245182
C322	C	0.870438	1.275890	0.004818
C323	C	1.120438	1.525890	0.254818
C324	C	1.370438	1.775890	0.504818
C325	C	0.677943	1.025849	-0.187776
C326	C	0.927943	1.275849	0.062224
C327	C	1.177943	1.525849	0.312224
C328	C	1.427943	1.775849	0.562224
C329	C	0.677931	0.978930	-0.187773
C330	C	0.927931	1.228930	0.062227
C331	C	1.177931	1.478930	0.312227
C332	C	1.427931	1.728930	0.562227
C333	C	0.649175	0.955492	-0.216478
C334	C	0.899175	1.205492	0.033522
C335	C	1.149175	1.455492	0.283522
C336	C	1.399175	1.705492	0.533522
C337	C	0.677803	0.453456	-0.187746
C338	C	0.927803	0.703456	0.062254
C339	C	1.177803	0.953456	0.312254
C340	C	1.427803	1.203456	0.562254
C341	C	0.677787	0.406536	-0.187744
C342	C	0.927787	0.656536	0.062256
C343	C	1.177787	0.906536	0.312256
C344	C	1.427787	1.156536	0.562256
C345	C	0.620284	0.406581	-0.245151
C346	C	0.870284	0.656581	0.004849
C347	C	1.120284	0.906581	0.254849
C348	C	1.370284	1.156581	0.504849
C349	C	0.620298	0.453497	-0.245152
C350	C	0.870298	0.703497	0.004848
C351	C	1.120298	0.953497	0.254848
C352	C	1.370298	1.203497	0.504848
C353	C	0.649062	0.476933	-0.216448
C354	C	0.899062	0.726933	0.033552
C355	C	1.149062	0.976933	0.283552
C356	C	1.399062	1.226933	0.533552
O357	O	0.595876	0.527738	-0.269541
O358	O	0.845876	0.777738	-0.019541
O359	O	1.095876	1.027738	0.230459
O360	O	1.345876	1.277738	0.480459
O361	O	0.702282	0.527697	-0.163347
O362	O	0.952282	0.777697	0.086653
O363	O	1.202282	1.027697	0.336653
O364	O	1.452282	1.277697	0.586653
C365	C	0.677880	0.739646	-0.187766
C366	C	0.927880	0.989646	0.062234
C367	C	1.177880	1.239646	0.312234
C368	C	1.427880	1.489646	0.562234
C369	C	0.649137	0.763123	-0.216471
C370	C	0.899137	1.013123	0.033529
C371	C	1.149137	1.263123	0.283529
C372	C	1.399137	1.513123	0.533529
C373	C	0.620381	0.739684	-0.245172
C374	C	0.870381	0.989684	0.004828
C375	C	1.120381	1.239684	0.254828
C376	C	1.370381	1.489684	0.504828
C377	C	0.649146	0.810041	-0.216473
C378	C	0.899146	1.060041	0.033527
C379	C	1.149146	1.310041	0.283527
C380	C	1.399146	1.560041	0.533527
C381	C	0.677902	0.833479	-0.187772
C382	C	0.927902	1.083479	0.062228
C383	C	1.177902	1.333479	0.312228
C384	C	1.427902	1.583479	0.562228
C385	C	0.706649	0.810000	-0.159070
C386	C	0.956649	1.060000	0.090930
C387	C	1.206649	1.310000	0.340930
C388	C	1.456649	1.560000	0.590930
C389	C	0.706636	0.763084	-0.159066
C390	C	0.956636	1.013084	0.090934
C391	C	1.206636	1.263084	0.340934
C392	C	1.456636	1.513084	0.590934
C393	C	0.591634	0.763164	-0.273874
C394	C	0.841634	1.013164	-0.023874
C395	C	1.091634	1.263164	0.226126
C396	C	1.341634	1.513164	0.476126
C397	C	0.591649	0.810079	-0.273875
C398	C	0.841649	1.060079	-0.023875
C399	C	1.091649	1.310079	0.226125
C400	C	1.341649	1.560079	0.476125
C401	C	0.620405	0.833518	-0.245175
C402	C	0.870405	1.083518	0.004825
C403	C	1.120405	1.333518	0.254825
C404	C	1.370405	1.583518	0.504825
C405	C	0.766295	0.216445	-0.216487
C406	C	1.016295	0.466445	0.033513
C407	C	1.266295	0.716445	0.283513
C408	C	1.516295	0.966445	0.533513
C409	C	0.816229	0.216446	-0.216495
C410	C	1.066229	0.466446	0.033505
C411	C	1.316229	0.716446	0.283505
C412	C	1.566229	0.966446	0.533505
C413	C	0.649129	0.216437	-0.333646
C414	C	0.899129	0.466437	-0.083646
C415	C	1.149129	0.716437	0.166354
C416	C	1.399129	0.966437	0.416354
C417	C	0.649134	0.216435	-0.383580
C418	C	0.899134	0.466435	-0.133580
C419	C	1.149134	0.716435	0.116420
C420	C	1.399134	0.966435	0.366420
C421	C	0.649201	1.099262	-0.216495
C422	C	0.899201	1.349262	0.033505
C423	C	1.149201	1.599262	0.283505
C424	C	1.399201	1.849262	0.533505
C425	C	0.649194	1.049328	-0.216481
C426	C	0.899194	1.299328	0.033519
C427	C	1.149194	1.549328	0.283519
C428	C	1.399194	1.799328	0.533519
C429	C	0.677923	0.187627	-0.693241
C430	C	0.927923	0.437627	-0.443241
C431	C	1.177923	0.687627	-0.193241
C432	C	1.427923	0.937627	0.056759
C433	C	0.677945	0.187589	-0.880914
C434	C	0.927945	0.437589	-0.630914
C435	C	1.177945	0.687589	-0.380914
C436	C	1.427945	0.937589	-0.130914
O437	O	0.702389	0.163138	-0.905193
O438	O	0.952389	0.413138	-0.655193
O439	O	1.202389	0.663138	-0.405193
O440	O	1.452389	0.913138	-0.155193
N441	N	0.649193	0.216315	-0.904366
N442	N	0.899193	0.466315	-0.654366
N443	N	1.149193	0.716315	-0.404366
N444	N	1.399193	0.966315	-0.154366
C445	C	0.620432	0.245050	-0.880896
C446	C	0.870432	0.495050	-0.630896
C447	C	1.120432	0.745050	-0.380896
C448	C	1.370432	0.995050	-0.130896
O449	O	0.595975	0.269479	-0.905150
O450	O	0.845975	0.519479	-0.655150
O451	O	1.095975	0.769479	-0.405150
O452	O	1.345975	1.019479	-0.155150
C453	C	0.620408	0.245086	-0.693224
C454	C	0.870408	0.495086	-0.443224
C455	C	1.120408	0.745086	-0.193224
C456	C	1.370408	0.995086	0.056776
C457	C	0.649165	0.216361	-0.669775
C458	C	0.899165	0.466361	-0.419775
C459	C	1.149165	0.716361	-0.169775
C460	C	1.399165	0.966361	0.080225
C461	C	0.706676	0.158905	-0.669791
C462	C	0.956676	0.408905	-0.419791
C463	C	1.206676	0.658905	-0.169791
C464	C	1.456676	0.908905	0.080209
C465	C	0.706672	0.158916	-0.622876
C466	C	0.956672	0.408916	-0.372876
C467	C	1.206672	0.658916	-0.122876
C468	C	1.456672	0.908916	0.127124
C469	C	0.677914	0.187650	-0.599410
C470	C	0.927914	0.437650	-0.349410
C471	C	1.177914	0.687650	-0.099410
C472	C	1.427914	0.937650	0.150590
C473	C	0.649160	0.216373	-0.622859
C474	C	0.899160	0.466373	-0.372859
C475	C	1.149160	0.716373	-0.122859
C476	C	1.399160	0.966373	0.127141
C477	C	0.591645	0.273819	-0.669756
C478	C	0.841645	0.523819	-0.419756
C479	C	1.091645	0.773819	-0.169756
C480	C	1.341645	1.023819	0.080244
C481	C	0.591641	0.273824	-0.622835
C482	C	0.841641	0.523824	-0.372835
C483	C	1.091641	0.773824	-0.122835
C484	C	1.341641	1.023824	0.127165
C485	C	0.620397	0.245100	-0.599385
C486	C	0.870397	0.495100	-0.349385
C487	C	1.120397	0.745100	-0.099385
C488	C	1.370397	0.995100	0.150615
C489	C	0.620398	0.245119	-0.552478
C490	C	0.870398	0.495119	-0.302478
C491	C	1.120398	0.745119	-0.052478
C492	C	1.370398	0.995119	0.197522
N493	N	0.649150	0.216393	-0.529026
N494	N	0.899150	0.466393	-0.279026
N495	N	1.149150	0.716393	-0.029026
N496	N	1.399150	0.966393	0.220974
C497	C	0.677908	0.187659	-0.552492
C498	C	0.927908	0.437659	-0.302492
C499	C	1.177908	0.687659	-0.052492
C500	C	1.427908	0.937659	0.197508
C501	C	0.620448	0.245030	-0.979427
C502	C	0.870448	0.495030	-0.729427
C503	C	1.120448	0.745030	-0.479427
C504	C	1.370448	0.995030	-0.229427
C505	C	0.620454	0.245022	-1.026345
C506	C	0.870454	0.495022	-0.776345
C507	C	1.120454	0.745022	-0.526345
C508	C	1.370454	0.995022	-0.276345
C509	C	0.677966	0.187560	-1.026359
C510	C	0.927966	0.437560	-0.776359
C511	C	1.177966	0.687560	-0.526359
C512	C	1.427966	0.937560	-0.276359
C513	C	0.677962	0.187571	-0.979440
C514	C	0.927962	0.437571	-0.729440
C515	C	1.177962	0.687571	-0.479440
C516	C	1.427962	0.937571	-0.229440
C517	C	0.649199	0.216304	-0.955975
C518	C	0.899199	0.466304	-0.705975
C519	C	1.149199	0.716304	-0.455975
C520	C	1.399199	0.966304	-0.205975
C521	C	0.677897	0.187685	-0.453966
C522	C	0.927897	0.437685	-0.203966
C523	C	1.177897	0.687685	0.046034
C524	C	1.427897	0.937685	0.296034
C525	C	0.677892	0.187701	-0.407046
C526	C	0.927892	0.437701	-0.157046
C527	C	1.177892	0.687701	0.092954
C528	C	1.427892	0.937701	0.342954
C529	C	0.620378	0.245161	-0.407036
C530	C	0.870378	0.495161	-0.157036
C531	C	1.120378	0.745161	0.092964
C532	C	1.370378	0.995161	0.342964
C533	C	0.620385	0.245147	-0.453952
C534	C	0.870385	0.495147	-0.203952
C535	C	1.120385	0.745147	0.046048
C536	C	1.370385	0.995147	0.296048
C537	C	0.649146	0.216406	-0.477416
C538	C	0.899146	0.466406	-0.227416
C539	C	1.149146	0.716406	0.022584
C540	C	1.399146	0.966406	0.272584
O541	O	0.595964	0.269553	-0.528170
O542	O	0.845964	0.519553	-0.278170
O543	O	1.095964	0.769553	-0.028170
O544	O	1.345964	1.019553	0.221830
O545	O	0.702355	0.163226	-0.528230
O546	O	0.952355	0.413226	-0.278230
O547	O	1.202355	0.663226	-0.028230
O548	O	1.452355	0.913226	0.221770
C549	C	0.677927	0.187616	-0.740156
C550	C	0.927927	0.437616	-0.490156
C551	C	1.177927	0.687616	-0.240156
C552	C	1.427927	0.937616	0.009844
C553	C	0.649173	0.216338	-0.763606
C554	C	0.899173	0.466338	-0.513606
C555	C	1.149173	0.716338	-0.263606
C556	C	1.399173	0.966338	-0.013606
C557	C	0.620415	0.245072	-0.740140
C558	C	0.870415	0.495072	-0.490140
C559	C	1.120415	0.745072	-0.240140
C560	C	1.370415	0.995072	0.009860
C561	C	0.649179	0.216330	-0.810524
C562	C	0.899179	0.466330	-0.560524
C563	C	1.149179	0.716330	-0.310524
C564	C	1.399179	0.966330	-0.060524
C565	C	0.677937	0.187596	-0.833990
C566	C	0.927937	0.437596	-0.583990
C567	C	1.177937	0.687596	-0.333990
C568	C	1.427937	0.937596	-0.083990
C569	C	0.706689	0.158870	-0.810538
C570	C	0.956689	0.408870	-0.560538
C571	C	1.206689	0.658870	-0.310538
C572	C	1.456689	0.908870	-0.060538
C573	C	0.706685	0.158881	-0.763622
C574	C	0.956685	0.408881	-0.513622
C575	C	1.206685	0.658881	-0.263622
C576	C	1.456685	0.908881	-0.013622
C577	C	0.591664	0.273798	-0.763592
C578	C	0.841664	0.523798	-0.513592
C579	C	1.091664	0.773798	-0.263592
C580	C	1.341664	1.023798	-0.013592
C581	C	0.591670	0.273785	-0.810507
C582	C	0.841670	0.523785	-0.560507
C583	C	1.091670	0.773785	-0.310507
C584	C	1.341670	1.023785	-0.060507
C585	C	0.620428	0.245050	-0.833973
C586	C	0.870428	0.495050	-0.583973
C587	C	1.120428	0.745050	-0.333973
C588	C	1.370428	0.995050	-0.083973
C589	C	0.649130	0.216412	-0.099745
C590	C	0.899130	0.466412	0.150255
C591	C	1.149130	0.716412	0.400255
C592	C	1.399130	0.966412	0.650255
C593	C	0.649212	0.216288	-0.049811
C594	C	0.899212	0.466288	0.200189
C595	C	1.149212	0.716288	0.450189
C596	C	1.399212	0.966288	0.700189
H597	H	0.478160	0.164399	-0.268679
H598	H	0.728160	0.414399	-0.018679
H599	H	0.978160	0.664399	0.231321
H600	H	1.228160	0.914399	0.481321
H601	H	0.730106	0.135475	-0.829652
H602	H	0.980106	0.385475	-0.579652
H603	H	1.230106	0.635475	-0.329652
H604	H	1.480106	0.885475	-0.079652
O605	O	0.268387	0.304742	-0.127835
O606	O	0.518387	0.554742	0.122165
O607	O	0.768387	0.804742	0.372165
O608	O	1.018387	1.054742	0.622165
H609	H	0.259357	0.340014	-0.135474
H610	H	0.509357	0.590014	0.114526
H611	H	0.759357	0.840014	0.364526
H612	H	1.009357	1.090014	0.614526
O613	O	-0.088023	0.156813	-0.276323
O614	O	0.161977	0.406813	-0.026323
O615	O	0.411977	0.656813	0.223677
O616	O	0.661977	0.906813	0.473677
H617	H	-0.066636	0.133926	-0.256256
H618	H	0.183364	0.383926	-0.006256
H619	H	0.433364	0.633926	0.243744
H620	H	0.683364	0.883926	0.493744
O621	O	0.589369	0.276130	-0.479244
O622	O	0.839369	0.526130	-0.229244
O623	O	1.089369	0.776130	0.020756
O624	O	1.339369	1.026130	0.270756
H625	H	0.566533	0.256012	-0.500616
H626	H	0.816533	0.506012	-0.250616
H627	H	1.066533	0.756012	-0.000616
H628	H	1.316533	1.006012	0.249384
H629	H	0.036505	0.135705	-0.297481
H630	H	0.286505	0.385705	-0.047481
H631	H	0.536505	0.635705	0.202519
H632	H	0.786505	0.885705	0.452519
H633	H	0.036327	0.297170	-0.135468
H634	H	0.286327	0.547170	0.114532
H635	H	0.536327	0.797170	0.364532
H636	H	0.786327	1.047170	0.614532
H637	H	0.597011	0.959892	-0.268556
H638	H	0.847011	1.209892	-0.018556
H639	H	1.097011	1.459892	0.231444
H640	H	1.347011	1.709892	0.481444
H641	H	-0.179357	0.164399	-0.268718
H642	H	0.070643	0.414399	-0.018718
H643	H	0.320643	0.664399	0.231282
H644	H	0.570643	0.914399	0.481282
H645	H	0.701377	0.164180	-0.960351
H646	H	0.951377	0.414180	-0.710351
H647	H	1.201377	0.664180	-0.460351
H648	H	1.451377	0.914180	-0.210351
O649	O	0.737671	0.835290	-0.128123
O650	O	0.987671	1.085290	0.121877
O651	O	1.237671	1.335290	0.371877
O652	O	1.487671	1.585290	0.621877
H653	H	0.717589	0.856705	-0.105252
H654	H	0.967589	1.106705	0.144748
H655	H	1.217589	1.356705	0.394748
H656	H	1.467589	1.606705	0.644748
O657	O	0.127628	0.304749	-0.127855
O658	O	0.377628	0.554749	0.122145
O659	O	0.627628	0.804749	0.372145
O660	O	0.877628	1.054749	0.622145
H661	H	0.103405	0.324697	-0.107846
H662	H	0.353405	0.574697	0.142154
H663	H	0.603405	0.824697	0.392154
H664	H	0.853405	1.074697	0.642154
H665	H	0.597043	0.268417	-1.045434
H666	H	0.847043	0.518417	-0.795434
H667	H	1.097043	0.768417	-0.545434
H668	H	1.347043	1.018417	-0.295434
H669	H	-0.179469	0.268497	-0.164274
H670	H	0.070531	0.518497	0.085726
H671	H	0.320531	0.768497	0.335726
H672	H	0.570531	1.018497	0.585726
O673	O	0.560640	0.835395	-0.304842
O674	O	0.810640	1.085395	-0.054842
O675	O	1.060640	1.335395	0.195158
O676	O	1.310640	1.585395	0.445158
H677	H	0.537797	0.856802	-0.284718
H678	H	0.787797	1.106802	-0.034718
H679	H	1.037797	1.356802	0.215282
H680	H	1.287797	1.606802	0.465282
O681	O	0.589288	0.478824	-0.276105
O682	O	0.839288	0.728824	-0.026105
O683	O	1.089288	0.978824	0.223895
O684	O	1.339288	1.228824	0.473895
H685	H	0.609383	0.500171	-0.298982
H686	H	0.859383	0.750171	-0.048982
H687	H	1.109383	1.000171	0.201018
H688	H	1.359383	1.250171	0.451018
H689	H	-0.094361	0.268491	-0.164260
H690	H	0.155639	0.518491	0.085740
H691	H	0.405639	0.768491	0.335740
H692	H	0.655639	1.018491	0.585740
O693	O	0.170870	0.304743	-0.127836
O694	O	0.420870	0.554743	0.122164
O695	O	0.670870	0.804743	0.372164
O696	O	0.920870	1.054743	0.622164
H697	H	0.195048	0.324681	-0.107816
H698	H	0.445048	0.574681	0.142184
H699	H	0.695048	0.824681	0.392184
H700	H	0.945048	1.074681	0.642184
H701	H	0.701310	0.164310	-0.387956
H702	H	0.951310	0.414310	-0.137956
H703	H	1.201310	0.664310	0.112044
H704	H	1.451310	0.914310	0.362044
H705	H	0.597026	0.268431	-0.960326
H706	H	0.847026	0.518431	-0.710326
H707	H	1.097026	0.768431	-0.460326
H708	H	1.347026	1.018431	-0.210326
O709	O	0.560623	0.304795	-0.695041
O710	O	0.810623	0.554795	-0.445041
O711	O	1.060623	0.804795	-0.195041
O712	O	1.310623	1.054795	0.054959
H713	H	0.540622	0.324768	-0.670834
H714	H	0.790622	0.574768	-0.420834
H715	H	1.040622	0.824768	-0.170834
H716	H	1.290622	1.074768	0.079166
O717	O	0.386705	0.276073	-0.156624
O718	O	0.636705	0.526073	0.093376
O719	O	0.886705	0.776073	0.343376
O720	O	1.136705	1.026073	0.593376
H721	H	0.410878	0.296019	-0.136607
H722	H	0.660878	0.546019	0.113393
H723	H	0.910878	0.796019	0.363393
H724	H	1.160878	1.046019	0.613393
O725	O	0.484230	0.276071	-0.156615
O726	O	0.734230	0.526071	0.093385
O727	O	0.984230	0.776071	0.343385
O728	O	1.234230	1.026071	0.593385
H729	H	0.520801	0.271244	-0.161447
H730	H	0.770801	0.521244	0.088553
H731	H	1.020801	0.771244	0.338553
H732	H	1.270801	1.021244	0.588553
H733	H	0.596966	0.268557	-0.387922
H734	H	0.846966	0.518557	-0.137922
H735	H	1.096966	0.768557	0.112078
H736	H	1.346966	1.018557	0.362078
O737	O	0.560607	0.737886	-0.304822
O738	O	0.810607	0.987886	-0.054822
O739	O	1.060607	1.237886	0.195178
O740	O	1.310607	1.487886	0.445178
H741	H	0.540618	0.762099	-0.324773
H742	H	0.790618	1.012099	-0.074773
H743	H	1.040618	1.262099	0.175227
H744	H	1.290618	1.512099	0.425227
H745	H	0.121624	0.135702	-0.297480
H746	H	0.371624	0.385702	-0.047480
H747	H	0.621624	0.635702	0.202520
H748	H	0.871624	0.885702	0.452520
H749	H	0.701195	0.387423	-0.164365
H750	H	0.951195	0.637423	0.085635
H751	H	1.201195	0.887423	0.335635
H752	H	1.451195	1.137423	0.585635
H753	H	0.701382	0.164164	-1.045473
H754	H	0.951382	0.414164	-0.795473
H755	H	1.201382	0.664164	-0.545473
H756	H	1.451382	0.914164	-0.295473
O757	O	0.560612	0.304810	-0.597525
O758	O	0.810612	0.554810	-0.347525
O759	O	1.060612	0.804810	-0.097525
O760	O	1.310612	1.054810	0.152475
H761	H	0.540619	0.324780	-0.621716
H762	H	0.790619	0.574780	-0.371716
H763	H	1.040619	0.824780	-0.121716
H764	H	1.290619	1.074780	0.128284
O765	O	0.708920	0.156691	-0.479271
O766	O	0.958920	0.406691	-0.229271
O767	O	1.208920	0.656691	0.020729
O768	O	1.458920	0.906691	0.270729
H769	H	0.728915	0.136726	-0.455076
H770	H	0.978915	0.386726	-0.205076
H771	H	1.228915	0.636726	0.044924
H772	H	1.478915	0.886726	0.294924
H773	H	0.701226	0.472532	-0.164374
H774	H	0.951226	0.722532	0.085626
H775	H	1.201226	0.972532	0.335626
H776	H	1.451226	1.222532	0.585626
O777	O	0.737608	0.597019	-0.128097
O778	O	0.987608	0.847019	0.121903
O779	O	1.237608	1.097019	0.371903
O780	O	1.487608	1.347019	0.621903
H781	H	0.757608	0.621205	-0.108148
H782	H	1.007608	0.871205	0.141852
H783	H	1.257608	1.121205	0.391852
H784	H	1.507608	1.371205	0.641852
H785	H	0.262370	0.135705	-0.297474
H786	H	0.512370	0.385705	-0.047474
H787	H	0.762370	0.635705	0.202526
H788	H	1.012370	0.885705	0.452526
H789	H	0.730101	0.135491	-0.744534
H790	H	0.980101	0.385491	-0.494534
H791	H	1.230101	0.635491	-0.244534
H792	H	1.480101	0.885491	0.005466
H793	H	0.701357	1.044940	-0.164407
H794	H	0.951357	1.294940	0.085593
H795	H	1.201357	1.544940	0.335593
H796	H	1.451357	1.794940	0.585593
O797	O	0.560650	0.304765	-0.835798
O798	O	0.810650	0.554765	-0.585798
O799	O	1.060650	0.804765	-0.335798
O800	O	1.310650	1.054765	-0.085798
H801	H	0.540650	0.324742	-0.811593
H802	H	0.790650	0.574742	-0.561593
H803	H	1.040650	0.824742	-0.311593
H804	H	1.290650	1.074742	-0.061593
O805	O	0.737688	0.127932	-0.597589
O806	O	0.987688	0.377932	-0.347589
O807	O	1.237688	0.627932	-0.097589
O808	O	1.487688	0.877932	0.152411
H809	H	0.717600	0.105079	-0.576212
H810	H	0.967600	0.355079	-0.326212
H811	H	1.217600	0.605079	-0.076212
H812	H	1.467600	0.855079	0.173788
O813	O	0.737626	0.694530	-0.128096
O814	O	0.987626	0.944530	0.121904
O815	O	1.237626	1.194530	0.371904
O816	O	1.487626	1.444530	0.621904
H817	H	0.757605	0.670316	-0.108137
H818	H	1.007605	0.920316	0.141863
H819	H	1.257605	1.170316	0.391863
H820	H	1.507605	1.420316	0.641863
H821	H	0.730095	0.135503	-0.688892
H822	H	0.980095	0.385503	-0.438892
H823	H	1.230095	0.635503	-0.188892
H824	H	1.480095	0.885503	0.061108
O825	O	0.560630	0.304777	-0.738284
O826	O	0.810630	0.554777	-0.488284
O827	O	1.060630	0.804777	-0.238284
O828	O	1.310630	1.054777	0.011716
H829	H	0.540637	0.324743	-0.762478
H830	H	0.790637	0.574743	-0.512478
H831	H	1.040637	0.824743	-0.262478
H832	H	1.290637	1.074743	-0.012478
H833	H	0.701338	0.959818	-0.164397
H834	H	0.951338	1.209818	0.085603
H835	H	1.201338	1.459818	0.335603
H836	H	1.451338	1.709818	0.585603
H837	H	0.177265	0.135702	-0.297477
H838	H	0.427265	0.385702	-0.047477
H839	H	0.677265	0.635702	0.202523
H840	H	0.927265	0.885702	0.452523
O841	O	0.386856	0.156811	-0.276291
O842	O	0.636856	0.406811	-0.026291
O843	O	0.886856	0.656811	0.223709
O844	O	1.136856	0.906811	0.473709
H845	H	0.411079	0.136870	-0.296306
H846	H	0.661079	0.386870	-0.046306
H847	H	0.911079	0.636870	0.203694
H848	H	1.161079	0.886870	0.453694
O849	O	0.589430	1.051211	-0.276139
O850	O	0.839430	1.301211	-0.026139
O851	O	1.089430	1.551211	0.223861
O852	O	1.339430	1.801211	0.473861
H853	H	0.597111	1.042186	-0.311405
H854	H	0.847111	1.292186	-0.061405
H855	H	1.097111	1.542186	0.188595
H856	H	1.347111	1.792186	0.438595
O857	O	0.560610	0.694643	-0.304843
O858	O	0.810610	0.944643	-0.054843
O859	O	1.060610	1.194643	0.195157
O860	O	1.310610	1.444643	0.445157
H861	H	0.540620	0.670455	-0.324801
H862	H	0.790620	0.920455	-0.074801
H863	H	1.040620	1.170455	0.175199
H864	H	1.290620	1.420455	0.425199
O865	O	0.560582	0.597130	-0.304830
O866	O	0.810582	0.847130	-0.054830
O867	O	1.060582	1.097130	0.195170
O868	O	1.310582	1.347130	0.445170
H869	H	0.568261	0.606116	-0.340097
H870	H	0.818261	0.856116	-0.090097
H871	H	1.068261	1.106116	0.159903
H872	H	1.318261	1.356116	0.409903
O873	O	0.589271	0.381297	-0.276108
O874	O	0.839271	0.631297	-0.026108
O875	O	1.089271	0.881297	0.223892
O876	O	1.339271	1.131297	0.473892
H877	H	0.594098	0.344729	-0.271284
H878	H	0.844098	0.594729	-0.021284
H879	H	1.094098	0.844729	0.228716
H880	H	1.344098	1.094729	0.478716
O881	O	0.737645	0.737765	-0.128107
O882	O	0.987645	0.987765	0.121893
O883	O	1.237645	1.237765	0.371893
O884	O	1.487645	1.487765	0.621893
H885	H	0.757643	0.761952	-0.108157
H886	H	1.007643	1.011952	0.141843
H887	H	1.257643	1.261952	0.391843
H888	H	1.507643	1.511952	0.641843
