data_functionalizedCrystal
_audit_creation_method	'MofGen! by Chris Wilmer'
_symmetry_space_group_name_H-M	'P1'
_symmetry_Int_Tables_number	1
_symmetry_cell_setting	triclinic
loop_
_symmetry_equiv_pos_as_xyz
  x,y,z
_cell_length_a	13.339070
_cell_length_b	16.109302
_cell_length_c	15.186229
_cell_angle_alpha	89.994701
_cell_angle_beta	89.998719
_cell_angle_gamma	99.545538
loop_
_atom_site_label
_atom_site_type_symbol
_atom_site_fract_x
_atom_site_fract_y
_atom_site_fract_z
O1	O	0.130024	1.133153	-0.073266
O2	O	0.630024	1.633153	0.426734
O3	O	0.146204	0.894828	-0.073259
O4	O	0.646204	1.394828	0.426741
O5	O	-0.009140	0.986638	-0.073259
O6	O	0.490860	1.486638	0.426741
O7	O	0.285369	1.041343	-0.073266
O8	O	0.785369	1.541343	0.426734
O9	O	-0.009143	0.986629	0.073198
O10	O	0.490857	1.486629	0.573198
O11	O	0.146202	0.894819	0.073198
O12	O	0.646202	1.394819	0.573198
O13	O	0.130022	1.133144	0.073191
O14	O	0.630022	1.633144	0.573191
Zn15	Zn	0.138112	1.013980	0.096448
Zn16	Zn	0.638112	1.513980	0.596448
Zn17	Zn	0.138115	1.013992	-0.096516
Zn18	Zn	0.638115	1.513992	0.403484
O19	O	0.285367	1.041334	0.073191
O20	O	0.785367	1.541334	0.573191
C21	C	0.145548	0.863697	-0.000030
C22	C	0.645548	1.363697	0.499970
C23	C	0.143582	0.770948	-0.000027
C24	C	0.643582	1.270948	0.499973
C25	C	0.139037	0.557553	0.079798
C26	C	0.639037	1.057553	0.579798
C27	C	0.137179	0.470404	0.079795
C28	C	0.637179	0.970404	0.579795
C29	C	0.137187	0.470425	-0.079880
C30	C	0.637187	0.970425	0.420120
C31	C	0.139037	0.557572	-0.079876
C32	C	0.639037	1.057572	0.420124
C33	C	0.139967	0.601134	-0.000034
C34	C	0.639967	1.101134	0.499966
C35	C	0.136259	0.426838	-0.000041
C36	C	0.636259	0.926838	0.499959
C37	C	0.134245	0.332348	-0.000045
C38	C	0.634245	0.832348	0.499955
C39	C	0.141979	0.695630	-0.000030
C40	C	0.641979	1.195630	0.499970
C41	C	-0.046828	0.977393	-0.000031
C42	C	0.453172	1.477393	0.499969
C43	C	-0.159121	0.949849	-0.000034
C44	C	0.340879	1.449849	0.499966
C45	C	-0.523983	1.164017	-0.000040
C46	C	-0.023983	1.664017	0.499960
C47	C	-0.418479	1.189899	-0.000033
C48	C	0.081521	1.689899	0.499967
C49	C	-0.353634	1.129889	-0.000033
C50	C	0.146366	1.629889	0.499967
C51	C	-0.394304	1.043992	-0.000041
C52	C	0.105696	1.543992	0.499959
C53	C	-0.499819	1.018108	-0.000042
C54	C	0.000181	1.518108	0.499958
C55	C	-0.329470	0.983980	-0.000035
C56	C	0.170530	1.483980	0.499965
C57	C	-0.370139	0.898083	-0.000042
C58	C	0.129861	1.398083	0.499958
C59	C	-0.475644	0.872203	-0.000044
C60	C	0.024356	1.372203	0.499956
C61	C	-0.540489	0.932214	-0.000043
C62	C	-0.040489	1.432214	0.499957
C63	C	-0.223955	1.009864	-0.000034
C64	C	0.276045	1.509864	0.499966
C65	C	-0.199790	0.863955	-0.000036
C66	C	0.300210	1.363955	0.499964
C67	C	-0.305295	0.838073	-0.000043
C68	C	0.194705	1.338073	0.499957
C69	C	0.323054	1.050579	-0.000038
C70	C	0.823054	1.550579	0.499962
C71	C	0.435347	1.078123	-0.000041
C72	C	0.935347	1.578123	0.499959
C73	C	0.130679	1.164275	-0.000040
C74	C	0.630679	1.664275	0.499960
C75	C	0.132644	1.257024	-0.000049
C76	C	0.632644	1.757024	0.499951
N77	N	0.138109	1.013978	0.228141
N78	N	0.638109	1.513978	0.728141
N79	N	0.138109	1.013999	-0.228209
N80	N	0.638109	1.513999	0.271791
C81	C	0.069346	1.054656	0.453863
C82	C	0.569346	1.554656	0.953863
C83	C	0.069343	1.054658	0.546053
C84	C	0.569343	1.554658	1.046053
C85	C	0.206876	0.973315	0.546062
C86	C	0.706876	1.473315	1.046062
C87	C	0.206873	0.973309	0.453874
C88	C	0.706873	1.473309	0.953874
C89	C	0.138109	1.013984	0.407777
C90	C	0.638109	1.513984	0.907777
C91	C	0.138110	1.013993	0.592155
C92	C	0.638110	1.513993	1.092155
C93	C	0.138107	1.013995	0.692111
C94	C	0.638107	1.513995	1.192111
C95	C	0.138109	1.013981	0.307815
C96	C	0.638109	1.513981	0.807815
H97	H	0.136422	0.434924	0.144803
H98	H	0.636422	0.934924	0.644803
Cl99	Cl	-0.017104	1.105787	0.395917
Cl100	Cl	0.482896	1.605787	0.895917
H101	H	0.139792	0.593056	-0.144890
H102	H	0.639792	1.093056	0.355110
Cl103	Cl	0.293322	0.922187	0.604017
Cl104	Cl	0.793322	1.422187	1.104017
Cl105	Cl	-0.356435	0.730092	-0.000054
Cl106	Cl	0.143565	1.230092	0.499946
Cl107	Cl	-0.017107	1.105789	0.603987
Cl108	Cl	0.482893	1.605789	1.103987
Cl109	Cl	-0.172840	1.117843	-0.000025
Cl110	Cl	0.327160	1.617843	0.499975
Cl111	Cl	0.135993	0.415652	-0.180247
Cl112	Cl	0.635993	0.915652	0.319753
Cl113	Cl	0.140199	0.612313	0.180171
Cl114	Cl	0.640199	1.112313	0.680171
H115	H	0.262868	0.940184	0.416348
H116	H	0.762868	1.440184	0.916348
Cl117	Cl	-0.367359	1.297877	-0.000043
Cl118	Cl	0.132641	1.797877	0.499957
Cl119	Cl	-0.220999	1.162428	-0.000029
Cl120	Cl	0.279001	1.662428	0.499971
Cl121	Cl	-0.605505	1.239448	-0.000023
Cl122	Cl	-0.105505	1.739448	0.499977
Cl123	Cl	-0.526769	0.764220	-0.000040
Cl124	Cl	-0.026769	1.264220	0.499960
Cl125	Cl	-0.673129	0.899680	-0.000157
Cl126	Cl	-0.173129	1.399680	0.499843
H127	H	-0.146993	0.815089	-0.000032
H128	H	0.353007	1.315089	0.499968
