data_functionalizedCrystal
_audit_creation_method	'MofGen! by Chris Wilmer'
_symmetry_space_group_name_H-M	'P1'
_symmetry_Int_Tables_number	1
_symmetry_cell_setting	triclinic
loop_
_symmetry_equiv_pos_as_xyz
  x,y,z
_cell_length_a	12.827893
_cell_length_b	12.759394
_cell_length_c	12.827885
_cell_angle_alpha	90.029530
_cell_angle_beta	90.019272
_cell_angle_gamma	90.013826
loop_
_atom_site_label
_atom_site_type_symbol
_atom_site_fract_x
_atom_site_fract_y
_atom_site_fract_z
Zn1	Zn	1.597681	-0.418216	0.590851
Zn2	Zn	1.597580	-0.593932	0.416112
Zn3	Zn	1.422922	-0.418268	0.416124
Zn4	Zn	1.422912	-0.593854	0.590812
O5	O	1.510274	-0.506067	0.503474
O6	O	1.743903	-0.441537	0.567682
O7	O	1.574373	-0.570684	0.269877
O8	O	1.446151	-0.271240	0.439324
O9	O	1.743829	-0.570634	0.439302
O10	O	1.574545	-0.271202	0.567694
O11	O	1.446053	-0.441624	0.269886
O12	O	1.276685	-0.441548	0.439286
O13	O	1.446134	-0.570501	0.737053
O14	O	1.276677	-0.570551	0.567628
O15	O	1.574535	-0.441461	0.737081
O16	O	1.574363	-0.740943	0.439264
O17	O	1.446036	-0.740885	0.567616
C18	C	1.238764	-0.506047	0.503455
C19	C	1.122611	-0.506064	0.503471
C20	C	1.070850	-0.569998	0.566881
C21	C	0.950800	-0.570017	0.566899
C22	C	1.510216	-0.779035	0.503457
C23	C	1.510286	-0.895812	0.503485
C24	C	1.643883	-0.895614	0.637257
C25	C	1.710715	-0.950376	0.704152
C26	C	1.710777	-1.060098	0.704174
C27	C	1.643998	-1.115060	0.637298
C28	C	1.577167	-1.060298	0.570403
C29	C	1.577114	-0.950574	0.570386
C30	C	1.443566	-1.060495	0.436638
C31	C	1.443508	-0.950774	0.436608
C32	C	1.376787	-1.115457	0.369761
C33	C	1.309959	-1.060695	0.302860
C34	C	1.309901	-0.950967	0.302839
C35	C	1.376676	-0.896012	0.369714
C36	C	1.782844	-0.506089	0.503495
C37	C	1.898997	-0.506098	0.503504
C38	C	1.510345	-0.505967	0.776045
C39	C	1.510375	-0.505924	0.892198
C40	C	1.510360	-0.232034	0.503515
C41	C	1.510397	-0.115257	0.503532
C42	C	1.510263	-0.506092	0.231965
C43	C	1.510435	-0.505839	0.115812
C44	C	1.573919	-0.442058	0.943997
C45	C	1.573952	-0.442012	1.064047
H46	H	0.943503	-0.451362	0.449210
C47	C	1.646264	-0.369136	0.884497
C48	C	1.587046	-0.301889	0.821818
C49	C	1.653658	-0.234708	0.766984
H50	H	1.686163	-0.328961	0.932440
H51	H	1.691714	-0.409360	0.841855
H52	H	1.541615	-0.261668	0.864456
H53	H	1.547150	-0.342035	0.773856
H54	H	1.699108	-0.274933	0.724342
H55	H	1.693553	-0.194541	0.814934
H56	H	1.613489	-0.189080	0.724443
H57	H	1.455990	-0.560560	0.936728
H58	H	1.643849	-0.806273	0.637236
C59	C	1.237288	-1.120312	0.230389
C60	C	1.133868	-1.093702	0.253070
C61	C	1.066894	-1.148615	0.186339
H62	H	1.252467	-1.102422	0.160144
H63	H	1.246821	-1.193511	0.239998
H64	H	1.124339	-1.020520	0.243452
H65	H	1.118656	-1.111595	0.323302
H66	H	1.076427	-1.221814	0.195948
H67	H	1.082082	-1.130721	0.116098
H68	H	0.996716	-1.130576	0.201725
C69	C	1.646379	-0.369137	1.123623
C70	C	1.631985	-0.383552	1.230850
C71	C	1.698678	-0.316424	1.285765
H72	H	1.716643	-0.384437	1.105916
H73	H	1.631104	-0.298514	1.105855
H74	H	1.647268	-0.454159	1.248611
H75	H	1.561735	-0.368244	1.248588
H76	H	1.683402	-0.245801	1.267997
H77	H	1.768937	-0.331730	1.268050
H78	H	1.688914	-0.326189	1.358524
C79	C	1.063391	-0.432978	0.431058
C80	C	1.134410	-0.373973	0.372572
C81	C	1.079898	-0.306623	0.305862
H82	H	1.020781	-0.473041	0.385411
H83	H	1.020860	-0.387236	0.471133
H84	H	1.176923	-0.419708	0.332500
H85	H	1.177022	-0.333888	0.418191
H86	H	1.037367	-0.260881	0.345937
H87	H	1.037290	-0.346695	0.260222
H88	H	1.128076	-0.266573	0.266178
C89	C	1.130393	-0.642799	0.639314
C90	C	1.193112	-0.583324	0.706310
C91	C	1.247985	-0.650355	0.773042
H92	H	1.082473	-0.682939	0.679199
H93	H	1.173010	-0.688464	0.599243
H94	H	1.150498	-0.537677	0.746377
H95	H	1.241051	-0.543187	0.666454
H96	H	1.290602	-0.696020	0.732971
H97	H	1.200057	-0.690491	0.812920
H98	H	1.290553	-0.610012	0.818500
H99	H	1.456034	-0.560524	1.071273
H100	H	0.906286	-0.624756	0.621183
C101	C	1.376660	-1.234584	0.369666
C102	C	1.303858	-1.270993	0.296803
C103	C	1.303702	-1.380727	0.296692
H104	H	1.444055	-1.259497	0.351612
H105	H	1.358522	-1.259413	0.437075
H106	H	1.322002	-1.246175	0.229408
H107	H	1.236453	-1.246109	0.314840
H108	H	1.285564	-1.405555	0.364101
H109	H	1.371101	-1.405629	0.278640
H110	H	1.254301	-1.405444	0.247262
H111	H	1.765186	-1.104685	0.758656
C112	C	1.783045	-0.890565	0.776816
C113	C	1.723811	-0.827552	0.843718
C114	C	1.790402	-0.772431	0.910662
H115	H	1.822880	-0.938771	0.816760
H116	H	1.828554	-0.847695	0.736895
H117	H	1.678319	-0.870419	0.883635
H118	H	1.683978	-0.779327	0.803803
H119	H	1.835912	-0.729561	0.870741
H120	H	1.830234	-0.820645	0.950599
H121	H	1.750222	-0.729663	0.956056
C122	C	1.237208	-0.891458	0.230385
C123	C	1.170153	-0.828495	0.289492
C124	C	1.103164	-0.773675	0.222783
H125	H	1.277056	-0.848572	0.184851
H126	H	1.197388	-0.939874	0.190582
H127	H	1.209969	-0.780084	0.329276
H128	H	1.130281	-0.871355	0.335023
H129	H	1.063343	-0.822092	0.182980
H130	H	1.143020	-0.730795	0.177252
H131	H	1.057652	-0.730956	0.262877
C132	C	1.376719	-0.776885	0.369498
C133	C	1.403425	-0.740623	0.270030
C134	C	1.403488	-0.630889	0.269802
H135	H	1.309296	-0.751974	0.387450
H136	H	1.426089	-0.751956	0.418858
H137	H	1.354056	-0.765541	0.220686
H138	H	1.470848	-0.765505	0.252059
H139	H	1.452858	-0.605960	0.319162
H140	H	1.336063	-0.605988	0.287757
H141	H	1.421617	-0.606271	0.202317
H142	H	1.644046	-1.204401	0.637331
