data_functionalizedCrystal
_audit_creation_method	'MofGen! by Chris Wilmer'
_symmetry_space_group_name_H-M	'P1'
_symmetry_Int_Tables_number	1
_symmetry_cell_setting	triclinic
loop_
_symmetry_equiv_pos_as_xyz
  x,y,z
_cell_length_a	14.044220
_cell_length_b	17.038272
_cell_length_c	12.503572
_cell_angle_alpha	93.777379
_cell_angle_beta	86.164750
_cell_angle_gamma	92.150217
loop_
_atom_site_label
_atom_site_type_symbol
_atom_site_fract_x
_atom_site_fract_y
_atom_site_fract_z
O1	O	1.278116	0.185401	-0.089207
O2	O	1.001597	0.178559	-0.089234
O3	O	1.138213	0.068050	-0.089212
O4	O	1.141501	0.295910	-0.089229
O5	O	1.127940	0.076376	0.089428
O6	O	0.991324	0.186885	0.089406
O7	O	1.267843	0.193727	0.089433
Cu8	Cu	1.128646	0.191066	0.105731
Cu9	Cu	1.140795	0.181220	-0.105532
O10	O	1.131228	0.304236	0.089411
C11	C	0.960905	0.179728	0.000083
C12	C	0.854959	0.170796	0.000072
C13	C	1.130087	0.042876	0.000108
C14	C	1.121168	-0.044541	0.000106
C15	C	0.660980	0.154469	0.000095
C16	C	0.608455	0.217814	0.000095
C17	C	0.500518	0.208729	0.000107
C18	C	0.768927	0.163552	0.000082
C19	C	1.203055	-0.088926	0.000115
C20	C	1.194670	-0.171064	0.000104
C21	C	1.104395	-0.208815	0.000092
C22	C	1.022502	-0.164424	0.000080
C23	C	1.030888	-0.082288	0.000083
C24	C	1.074766	-0.456646	0.000074
C25	C	1.066385	-0.538788	0.000074
C26	C	1.238555	-0.545422	0.000097
C27	C	1.246933	-0.463284	0.000107
C28	C	1.165040	-0.418901	0.000089
C29	C	1.095822	-0.292772	0.000084
C30	C	1.173615	-0.334945	0.000089
C31	C	1.308536	0.192558	0.000114
C32	C	1.414481	0.201490	0.000117
C33	C	1.139354	0.329410	0.000089
C34	C	1.148273	0.416827	0.000083
N35	N	1.120107	0.197992	0.254322
N36	N	1.149340	0.174289	-0.254123
C37	C	1.107548	0.208186	0.473435
C38	C	1.161896	0.164097	0.526771
C39	C	1.154908	0.169769	0.648693
C40	C	1.114535	0.202515	0.351502
H41	H	0.644550	0.278868	0.000085
H42	H	0.624887	0.093419	0.000105
N43	N	1.295277	-0.050380	0.000143
N44	N	1.368382	-0.090023	0.000152
H45	H	1.433517	-0.062803	0.000170
H46	H	1.213675	0.122092	0.480866
N47	N	1.042612	0.260894	0.531009
N48	N	1.050637	0.333087	0.518552
H49	H	1.004778	0.370314	0.559223
H50	H	1.320444	-0.432554	0.000117
N51	N	0.947233	-0.036960	0.000060
N52	N	0.866636	-0.070673	0.000043
H53	H	0.807551	-0.038661	0.000019
N54	N	1.278327	-0.216390	0.000103
N55	N	1.358923	-0.182675	0.000116
H56	H	1.418011	-0.214686	0.000111
H57	H	1.305227	-0.581568	0.000110
N58	N	0.974158	-0.577337	0.000082
N59	N	0.901047	-0.537701	0.000078
H60	H	0.835913	-0.564926	0.000092
N61	N	0.991107	-0.411328	0.000064
N62	N	0.910512	-0.445047	0.000061
H63	H	0.851422	-0.413039	0.000057
H64	H	1.247117	-0.304206	0.000075
N65	N	0.930295	-0.202996	0.000054
N66	N	0.922817	-0.276331	0.000051
H67	H	0.857695	-0.303572	0.000034
H68	H	1.022319	-0.323518	0.000076
