data_functionalizedCrystal
_audit_creation_method	'MofGen! by Chris Wilmer'
_symmetry_space_group_name_H-M	'P1'
_symmetry_Int_Tables_number	1
_symmetry_cell_setting	triclinic
loop_
_symmetry_equiv_pos_as_xyz
  x,y,z
_cell_length_a	6.817900
_cell_length_b	11.102269
_cell_length_c	10.773894
_cell_angle_alpha	95.423960
_cell_angle_beta	96.645922
_cell_angle_gamma	108.605385
loop_
_atom_site_label
_atom_site_type_symbol
_atom_site_fract_x
_atom_site_fract_y
_atom_site_fract_z
V1	V	-3.974360	-0.171169	-0.388948
O2	O	-3.936004	0.013031	-0.381540
O3	O	-3.952074	-0.344022	-0.386291
O4	O	-3.891316	-0.166428	-0.558580
O5	O	-3.997183	-0.165793	-0.208059
V6	V	-4.459093	-0.149386	-0.367312
O7	O	-4.232964	-0.218953	-0.436408
O8	O	-4.650686	-0.101602	-0.319851
O9	O	-4.258172	0.023467	-0.369968
O10	O	-4.614845	-0.333587	-0.374719
O11	O	-4.553667	-0.154763	-0.548200
O12	O	-4.318930	-0.154128	-0.197680
C13	C	-3.804549	-0.386226	-0.380156
C14	C	-3.867384	-0.527521	-0.379115
C15	C	-3.975812	-0.743447	-0.491880
C16	C	-3.916789	-0.610686	-0.492864
C17	C	-3.877023	-0.577124	-0.264375
C18	C	-3.936059	-0.709884	-0.263393
C19	C	-3.976858	-0.453525	-0.635456
C20	C	-3.967192	-0.403926	-0.750192
C21	C	-3.887028	-0.457716	-0.846737
C22	C	-3.816482	-0.561103	-0.828549
C23	C	-3.826126	-0.610695	-0.713811
C24	C	-3.906339	-0.556908	-0.617272
C25	C	-3.875976	-0.867048	-0.120808
C26	C	-3.885608	-0.916641	-0.006068
C27	C	-3.965759	-0.862851	0.090488
C28	C	-4.036271	-0.759457	0.072313
C29	C	-4.026640	-0.709864	-0.042427
C30	C	-3.946496	-0.763663	-0.138983
C31	C	-3.727045	-0.159685	-0.599926
C32	C	-3.740604	-0.156952	-0.738601
C33	C	-3.919395	-0.161688	-0.806463
C34	C	-3.933413	-0.158864	-0.949791
C35	C	-4.069041	0.065664	-0.376099
C36	C	-3.985443	0.206958	-0.377149
C37	C	-4.146545	-0.160875	-0.156327
C38	C	-4.112224	-0.163601	-0.017651
H39	H	-3.879156	-0.417323	-0.940157
C40	C	-4.044225	-0.291856	-0.769968
C41	C	-4.256397	-0.326655	-0.757183
C42	C	-4.327424	-0.223456	-0.775412
H43	H	-3.965619	-0.220092	-0.708850
H44	H	-4.027120	-0.270024	-0.852142
H45	H	-4.273486	-0.348470	-0.675020
H46	H	-4.335055	-0.398404	-0.818297
H47	H	-4.310318	-0.201624	-0.857587
H48	H	-4.248803	-0.151698	-0.714292
H49	H	-4.471392	-0.247056	-0.766752
H50	H	-4.254932	-0.169753	-0.969648
C51	C	-3.975863	-0.916474	0.215186
C52	C	-3.855720	-0.819943	0.313202
C53	C	-3.864963	-0.869294	0.428084
H54	H	-4.117165	-0.946185	0.229557
H55	H	-3.922286	-0.985713	0.212263
H56	H	-3.909306	-0.750726	0.316126
H57	H	-3.714405	-0.790222	0.298873
H58	H	-3.811386	-0.938534	0.425161
H59	H	-4.006270	-0.899005	0.442442
H60	H	-3.783434	-0.803810	0.494600
C61	C	-3.743194	-0.150469	-1.013922
C62	C	-3.689217	-0.039003	-1.071575
C63	C	-3.514022	-0.031234	-1.130680
H64	H	-3.629019	-0.147789	-0.952888
H65	H	-3.775160	-0.223489	-1.075964
H66	H	-3.657240	0.033999	-1.009540
H67	H	-3.803341	-0.041657	-1.132627
H68	H	-3.545988	-0.104254	-1.192722
H69	H	-3.399862	-0.028559	-1.069638
H70	H	-3.477388	0.044388	-1.169814
H71	H	-3.597910	-0.150797	-0.786610
H72	H	-4.016022	-0.811152	-0.584507
H73	H	-4.062082	-0.167826	-0.758451
H74	H	-3.768678	-0.694866	-0.699000
H75	H	-3.751180	-0.604883	-0.907165
C76	C	-4.103656	-0.597789	-0.062204
C77	C	-4.315816	-0.632581	-0.049393
C78	C	-4.386849	-0.529384	-0.067627
H79	H	-4.025032	-0.526016	-0.001100
H80	H	-4.086579	-0.575972	-0.144386
H81	H	-4.332876	-0.654380	0.032777
H82	H	-4.394492	-0.704338	-0.110494
H83	H	-4.369772	-0.507568	-0.149810
H84	H	-4.308211	-0.457618	-0.006521
H85	H	-4.530810	-0.552980	-0.058949
H86	H	-4.042166	-0.409729	-0.556855
C87	C	-4.123689	-0.701270	0.177088
C88	C	-4.298009	-0.795262	0.206514
C89	C	-4.378607	-0.741705	0.303017
H90	H	-4.019407	-0.669832	0.249816
H91	H	-4.164435	-0.632626	0.149848
H92	H	-4.257258	-0.863883	0.233758
H93	H	-4.402334	-0.826708	0.133814
H94	H	-4.419352	-0.673061	0.275777
H95	H	-4.274311	-0.710268	0.375737
H96	H	-4.496902	-0.805467	0.322986
H97	H	-3.828157	-1.000819	0.008731
H98	H	-3.836805	-0.509401	-0.171760
H99	H	-3.810711	-0.910857	-0.199429
