data_functionalizedCrystal
_audit_creation_method	'MofGen! by Chris Wilmer'
_symmetry_space_group_name_H-M	'P1'
_symmetry_Int_Tables_number	1
_symmetry_cell_setting	triclinic
loop_
_symmetry_equiv_pos_as_xyz
  x,y,z
_cell_length_a	16.109301
_cell_length_b	16.109301
_cell_length_c	9.130307
_cell_angle_alpha	90.004342
_cell_angle_beta	90.000750
_cell_angle_gamma	83.461481
loop_
_atom_site_label
_atom_site_type_symbol
_atom_site_fract_x
_atom_site_fract_y
_atom_site_fract_z
O1	O	-1.103131	-0.106865	-0.121711
O2	O	-0.861069	-0.120164	-0.121735
O3	O	-0.988750	0.007516	-0.121708
O4	O	-0.975450	-0.234546	-0.121739
O5	O	-0.988741	0.007516	0.121891
O6	O	-0.861060	-0.120165	0.121864
O7	O	-1.103122	-0.106865	0.121888
Cu8	Cu	-0.982090	-0.113515	0.144118
Cu9	Cu	-0.982101	-0.113515	-0.143966
O10	O	-0.975441	-0.234546	0.121860
C11	C	-0.830090	-0.119626	0.000061
C12	C	-0.737794	-0.118011	0.000053
C13	C	-0.988206	0.038491	0.000092
C14	C	-0.986591	0.130786	0.000094
C15	C	-1.134101	-0.107404	0.000088
C16	C	-1.226397	-0.109019	0.000087
C17	C	-0.975984	-0.265521	0.000057
C18	C	-0.977600	-0.357816	0.000045
C19	C	-0.515522	-0.190018	0.000060
C20	C	-0.428801	-0.188494	0.000070
C21	C	-0.448676	-0.037006	0.000083
C22	C	-0.535394	-0.038530	0.000084
C23	C	-0.568815	-0.115039	0.000065
C24	C	-0.395376	-0.111990	0.000074
C25	C	-0.301350	-0.110337	0.000084
C26	C	-0.662847	-0.116693	0.000058
C27	C	-1.058599	0.353059	0.000078
C28	C	-1.057075	0.439779	0.000066
C29	C	-0.905586	0.419905	0.000057
C30	C	-0.907111	0.333186	0.000058
C31	C	-0.983620	0.299766	0.000077
C32	C	-0.980571	0.473205	0.000063
C33	C	-0.978918	0.567231	0.000050
C34	C	-0.985273	0.205734	0.000087
N35	N	-0.982089	-0.113515	0.346741
N36	N	-0.982109	-0.113508	-0.346589
C37	C	-1.095216	-0.000480	0.653395
C38	C	-1.151762	0.056037	0.576720
C39	C	-1.151751	0.056039	0.423386
C40	C	-1.095190	-0.000483	0.346724
C41	C	-1.038645	-0.057000	0.423399
C42	C	-1.038660	-0.056994	0.576736
C43	C	-0.925543	-0.170031	0.423416
C44	C	-0.925548	-0.170031	0.576749
C45	C	-0.868982	-0.226554	0.346754
C46	C	-0.812431	-0.283068	0.423429
C47	C	-0.812444	-0.283067	0.576772
C48	C	-0.869002	-0.226547	0.653424
H49	H	-0.542730	-0.252317	0.000056
H50	H	-0.421454	0.025285	0.000108
H51	H	-1.120897	0.325851	0.000090
H52	H	-1.118130	0.483168	0.000064
C53	C	-0.778456	0.289541	-0.125167
C54	C	-0.824686	0.274601	0.000058
H55	H	-0.727571	0.253376	-0.125163
H56	H	-0.809829	0.279406	-0.210097
H57	H	-0.766603	0.345972	-0.125150
H58	H	-0.836544	0.218171	0.000036
H59	H	-0.793306	0.284730	0.085010
C60	C	-1.078478	0.077869	0.873046
C61	C	-1.095221	-0.000474	0.821941
H62	H	-1.078486	0.077874	0.977100
H63	H	-1.025349	0.089253	0.838367
H64	H	-1.120254	0.119610	0.838346
H65	H	-1.053441	-0.042214	0.856633
H66	H	-1.148357	-0.011867	0.856635
H67	H	-0.578788	0.022530	0.000092
H68	H	-0.766400	-0.329093	0.639193
H69	H	-0.385413	-0.249550	0.000069
C70	C	-0.790639	-0.209773	0.127127
C71	C	-0.868968	-0.226563	0.178207
H72	H	-0.790628	-0.209786	0.023073
H73	H	-0.779291	-0.156631	0.161809
H74	H	-0.748876	-0.251524	0.161840
H75	H	-0.910730	-0.184809	0.143503
H76	H	-0.880326	-0.279712	0.143510
C77	C	-0.885765	-0.304886	0.873060
C78	C	-0.869016	-0.226546	0.821971
H79	H	-0.885770	-0.304884	0.977114
H80	H	-0.938889	-0.316273	0.838357
H81	H	-0.843984	-0.346628	0.838373
H82	H	-0.910801	-0.184804	0.856649
H83	H	-0.815884	-0.215149	0.856689
H84	H	-0.843295	0.447127	0.000045
C85	C	-1.200622	0.199959	0.623936
C86	C	-1.213923	0.118171	0.660992
H87	H	-1.239001	0.238316	0.675956
H88	H	-1.145146	0.208994	0.649080
H89	H	-1.208713	0.208036	0.521642
H90	H	-1.205826	0.110092	0.763286
H91	H	-1.269412	0.109132	0.635859
H92	H	-1.197798	0.102057	0.360957
H93	H	-1.095192	-0.000485	0.221872
H94	H	-0.766387	-0.329088	0.361001
