data_functionalizedCrystal
_audit_creation_method	'MofGen! by Chris Wilmer'
_symmetry_space_group_name_H-M	'P1'
_symmetry_Int_Tables_number	1
_symmetry_cell_setting	triclinic
loop_
_symmetry_equiv_pos_as_xyz
  x,y,z
_cell_length_a	23.532409
_cell_length_b	11.792241
_cell_length_c	10.868271
_cell_angle_alpha	90.000107
_cell_angle_beta	89.997933
_cell_angle_gamma	96.478512
loop_
_atom_site_label
_atom_site_type_symbol
_atom_site_fract_x
_atom_site_fract_y
_atom_site_fract_z
O1	O	0.078055	-1.505072	-0.102194
O2	O	0.578055	-1.005072	0.397806
O3	O	0.086099	-1.174542	-0.102222
O4	O	0.586099	-0.674542	0.397778
O5	O	-0.000796	-1.349773	-0.102208
O6	O	0.499204	-0.849773	0.397792
O7	O	0.164950	-1.329841	-0.102207
O8	O	0.664950	-0.829841	0.397793
O9	O	-0.000799	-1.349759	0.102436
O10	O	0.499201	-0.849759	0.602436
O11	O	0.086096	-1.174528	0.102423
O12	O	0.586096	-0.674528	0.602423
O13	O	0.078051	-1.505058	0.102451
O14	O	0.578051	-1.005058	0.602451
Zn15	Zn	0.082073	-1.339791	0.134929
Zn16	Zn	0.582073	-0.839791	0.634929
Zn17	Zn	0.082078	-1.339809	-0.134699
Zn18	Zn	0.582078	-0.839809	0.365301
O19	O	0.164946	-1.329827	0.102438
O20	O	0.664946	-0.829827	0.602438
C21	C	0.085592	-1.132256	0.000097
C22	C	0.585592	-0.632256	0.500097
C23	C	0.084080	-1.006278	0.000086
C24	C	0.584080	-0.506278	0.500086
C25	C	-0.022016	-1.349258	0.000111
C26	C	0.477984	-0.849258	0.500111
C27	C	-0.085242	-1.347731	0.000102
C28	C	0.414758	-0.847731	0.500102
C29	C	0.078558	-1.547344	0.000129
C30	C	0.578558	-1.047344	0.500129
C31	C	0.080071	-1.673322	0.000132
C32	C	0.580071	-1.173322	0.500132
C33	C	-0.358524	-1.341244	-0.111456
C34	C	0.141476	-0.841244	0.388544
C35	C	-0.299115	-1.342662	-0.111456
C36	C	0.200885	-0.842662	0.388544
O37	O	-0.268384	-1.343442	-0.206323
O38	O	0.231616	-0.843442	0.293677
N39	N	-0.269411	-1.343356	0.000098
N40	N	0.230589	-0.843356	0.500098
C41	C	-0.299119	-1.342644	0.111659
C42	C	0.200881	-0.842644	0.611659
O43	O	-0.268398	-1.343366	0.206544
O44	O	0.231602	-0.843366	0.706544
C45	C	-0.358527	-1.341234	0.111658
C46	C	0.141473	-0.841234	0.611658
C47	C	-0.388228	-1.340528	0.000097
C48	C	0.111772	-0.840528	0.500097
C49	C	-0.388225	-1.340540	-0.223008
C50	C	0.111775	-0.840540	0.276992
C51	C	-0.447629	-1.339119	-0.223007
C52	C	0.052371	-0.839119	0.276993
C53	C	-0.477333	-1.338404	-0.111455
C54	C	0.022667	-0.838404	0.388545
C55	C	-0.447632	-1.339108	0.000097
C56	C	0.052368	-0.839108	0.500097
C57	C	-0.388234	-1.340530	0.223217
C58	C	0.111766	-0.840530	0.723217
C59	C	-0.447647	-1.339120	0.223207
C60	C	0.052353	-0.839120	0.723207
C61	C	-0.477347	-1.338415	0.111646
C62	C	0.022653	-0.838415	0.611646
C63	C	-0.536740	-1.336972	0.111650
C64	C	-0.036740	-0.836972	0.611650
N65	N	-0.566444	-1.336278	0.000097
N66	N	-0.066444	-0.836278	0.500097
C67	C	-0.536741	-1.336994	-0.111456
C68	C	-0.036741	-0.836994	0.388544
C69	C	-0.174358	-1.345607	0.111653
C70	C	0.325642	-0.845607	0.611653
C71	C	-0.114951	-1.347009	0.111655
C72	C	0.385049	-0.847009	0.611655
C73	C	-0.114951	-1.347029	-0.111460
C74	C	0.385049	-0.847029	0.388540
C75	C	-0.174359	-1.345619	-0.111461
C76	C	0.325641	-0.845619	0.388539
C77	C	-0.204063	-1.344913	0.000099
C78	C	0.295937	-0.844913	0.500099
C79	C	-0.661494	-1.334010	-0.111446
C80	C	-0.161494	-0.834010	0.388554
C81	C	-0.720904	-1.332585	-0.111436
C82	C	-0.220904	-0.832585	0.388564
C83	C	-0.720898	-1.332571	0.111679
C84	C	-0.220898	-0.832571	0.611679
C85	C	-0.661494	-1.333990	0.111669
C86	C	-0.161494	-0.833990	0.611669
C87	C	-0.631793	-1.334713	0.000097
C88	C	-0.131793	-0.834713	0.500097
O89	O	-0.567509	-1.336196	0.206469
O90	O	-0.067509	-0.836196	0.706469
O91	O	-0.567470	-1.336287	-0.206325
O92	O	-0.067470	-0.836287	0.293675
C93	C	0.186167	-1.330342	0.000116
C94	C	0.686167	-0.830342	0.500116
C95	C	0.249393	-1.331869	0.000117
C96	C	0.749393	-0.831869	0.500117
N97	N	0.082070	-1.339786	0.318943
N98	N	0.582070	-0.839786	0.818943
C99	C	0.081299	-0.775631	0.000121
C100	C	0.581299	-0.275631	0.500121
C101	C	0.082844	-0.903980	0.000102
C102	C	0.582844	-0.403980	0.500102
N103	N	0.082076	-1.339823	-0.318714
N104	N	0.582076	-0.839823	0.181286
C105	C	0.082076	-1.339803	0.569949
C106	C	0.582076	-0.839803	1.069949
C107	C	0.082074	-1.339790	0.430271
C108	C	0.582074	-0.839790	0.930271
H109	H	-0.745083	-1.332006	-0.202286
H110	H	-0.245083	-0.832006	0.297714
H111	H	-0.637319	-1.334600	-0.202299
H112	H	-0.137319	-0.834600	0.297701
H113	H	-0.637307	-1.334519	0.202511
H114	H	-0.137307	-0.834519	0.702511
H115	H	-0.090756	-1.347608	-0.202293
H116	H	0.409244	-0.847608	0.297707
H117	H	-0.471828	-1.338546	0.314055
H118	H	0.028172	-0.838546	0.814055
C119	C	-0.753583	-1.331779	0.234381
C120	C	-0.253583	-0.831779	0.734381
N121	N	-0.778204	-1.331189	0.326801
N122	N	-0.278204	-0.831189	0.826801
H123	H	-0.471807	-1.338553	-0.313852
H124	H	0.028193	-0.838553	0.186148
C125	C	-0.082286	-1.347769	0.234381
C126	C	0.417714	-0.847769	0.734381
N127	N	-0.057685	-1.348349	0.326823
N128	N	0.442315	-0.848349	0.826823
C129	C	-0.207025	-1.344808	0.234386
C130	C	0.292975	-0.844808	0.734386
N131	N	-0.231627	-1.344205	0.326829
N132	N	0.268373	-0.844205	0.826829
H133	H	-0.198538	-1.345042	-0.202304
H134	H	0.301462	-0.845042	0.297696
C135	C	-0.355560	-1.341322	-0.345736
C136	C	0.144440	-0.841322	0.154264
N137	N	-0.330960	-1.341902	-0.438182
N138	N	0.169040	-0.841902	0.061818
C139	C	-0.355577	-1.341311	0.345946
C140	C	0.144423	-0.841311	0.845946
N141	N	-0.330981	-1.341902	0.438392
N142	N	0.169019	-0.841902	0.938392
