data_functionalizedCrystal
_audit_creation_method	'MofGen! by Chris Wilmer'
_symmetry_space_group_name_H-M	'P1'
_symmetry_Int_Tables_number	1
_symmetry_cell_setting	triclinic
loop_
_symmetry_equiv_pos_as_xyz
  x,y,z
_cell_length_a	6.817900
_cell_length_b	19.453114
_cell_length_c	19.453172
_cell_angle_alpha	96.317064
_cell_angle_beta	101.710488
_cell_angle_gamma	101.709288
loop_
_atom_site_label
_atom_site_type_symbol
_atom_site_fract_x
_atom_site_fract_y
_atom_site_fract_z
V1	V	-3.998005	-0.219330	-0.097914
O2	O	-3.995098	-0.214817	0.003953
O3	O	-3.941032	-0.218154	-0.193423
O4	O	-3.941025	-0.314839	-0.096738
O5	O	-3.995104	-0.117463	-0.093402
V6	V	-4.483855	-0.207106	-0.085691
O7	O	-4.254158	-0.246143	-0.124727
O8	O	-4.677900	-0.180293	-0.058877
O9	O	-4.317622	-0.208281	0.009819
O10	O	-4.604159	-0.211619	-0.187557
O11	O	-4.604153	-0.308973	-0.090203
O12	O	-4.317628	-0.111597	-0.086867
C13	C	-3.784225	-0.214778	-0.216696
C14	C	-3.818872	-0.214454	-0.294778
C15	C	-4.247899	-0.216325	-0.855852
C16	C	-4.215361	-0.216625	-0.782485
C17	C	-4.017282	-0.212598	-0.742102
C18	C	-3.851722	-0.208253	-0.775088
C19	C	-3.884261	-0.207947	-0.848452
N20	N	-3.850595	-0.250130	-0.630535
N21	N	-3.819697	-0.250423	-0.560842
C22	C	-3.919231	-0.213521	-0.521058
N23	N	-4.050866	-0.176325	-0.553601
N24	N	-4.081774	-0.176035	-0.623301
C25	C	-3.981978	-0.212930	-0.662549
C26	C	-4.049499	-0.218186	-0.408526
C27	C	-4.016951	-0.218482	-0.335157
C28	C	-3.653311	-0.210117	-0.327762
C29	C	-3.685861	-0.209815	-0.401129
C30	C	-3.883960	-0.213853	-0.441507
C31	C	-3.784216	-0.338108	-0.093364
C32	C	-3.818856	-0.416189	-0.093034
C33	C	-4.016595	-0.456457	-0.096405
C34	C	-4.049143	-0.529823	-0.096096
C35	C	-3.883948	-0.562920	-0.092429
C36	C	-3.686179	-0.522641	-0.089054
C37	C	-3.653632	-0.449276	-0.089356
N38	N	-3.820875	-0.681834	-0.129523
N39	N	-3.851806	-0.751529	-0.129238
C40	C	-3.981996	-0.783965	-0.091516
N41	N	-4.080122	-0.744076	-0.054100
N42	N	-4.049196	-0.674375	-0.054389
C43	C	-3.919218	-0.642472	-0.092100
C44	C	-4.215040	-0.903785	-0.094551
C45	C	-4.247579	-0.977151	-0.094237
C46	C	-3.884612	-0.969969	-0.087202
C47	C	-3.852075	-0.896603	-0.087509
C48	C	-4.017299	-0.863516	-0.091187
C49	C	-4.137771	-0.211656	0.033088
C50	C	-4.082361	-0.211984	0.111169
C51	C	-4.137780	-0.088324	-0.090243
C52	C	-4.082379	-0.010242	-0.090569
H53	H	-3.690442	-0.204974	-0.742202
H54	H	-3.691060	-0.863817	-0.084772
H55	H	-4.408603	-1.009936	-0.096977
H56	H	-3.750103	-0.996914	-0.084211
H57	H	-3.551676	-0.549593	-0.086067
H58	H	-3.492031	-0.206836	-0.294882
H59	H	-3.749455	-0.204414	-0.875303
H60	H	-4.350164	-0.220155	-0.755628
H61	H	-4.409203	-0.219611	-0.888724
H62	H	-4.210802	-0.221470	-0.441404
H63	H	-4.151759	-0.222013	-0.308307
H64	H	-3.551061	-0.206283	-0.427980
H65	H	-4.151135	-0.429523	-0.099397
H66	H	-4.210174	-0.562617	-0.098844
H67	H	-4.349574	-0.876844	-0.097543
H68	H	-3.492604	-0.416488	-0.086606
