data_functionalizedCrystal
_audit_creation_method	'MofGen! by Chris Wilmer'
_symmetry_space_group_name_H-M	'P1'
_symmetry_Int_Tables_number	1
_symmetry_cell_setting	triclinic
loop_
_symmetry_equiv_pos_as_xyz
  x,y,z
_cell_length_a	27.440280
_cell_length_b	27.440280
_cell_length_c	20.919309
_cell_angle_alpha	62.591134
_cell_angle_beta	90.005478
_cell_angle_gamma	60.004534
loop_
_atom_site_label
_atom_site_type_symbol
_atom_site_fract_x
_atom_site_fract_y
_atom_site_fract_z
Zr1	Zr	0.471965	0.528542	-0.080782
O2	O	0.397076	0.624374	-0.179184
O3	O	0.494913	0.428667	-0.050618
O4	O	0.498737	0.522702	-0.179169
O5	O	0.390246	0.536356	0.050772
O6	O	0.578939	0.522693	-0.179156
O7	O	0.393252	0.530340	-0.050632
O8	O	0.572099	0.354482	0.050798
O9	O	0.397086	0.704567	-0.179182
O10	O	0.564566	0.471238	-0.037742
O11	O	0.502468	0.475734	0.037925
O12	O	0.506970	0.586448	-0.113427
O13	O	0.444873	0.590944	-0.037759
Zr14	Zr	0.595084	0.538124	0.080967
Zr15	Zr	0.599878	0.528528	-0.080762
Zr16	Zr	0.467171	0.538137	0.080947
Zr17	Zr	0.471981	0.656440	-0.080780
Zr18	Zr	0.595068	0.410226	0.080965
O19	O	0.572136	0.637998	0.050803
O20	O	0.578952	0.624355	-0.179155
O21	O	0.390259	0.638018	0.050774
O22	O	0.669974	0.442291	0.179369
O23	O	0.676790	0.428647	-0.050589
O24	O	0.488097	0.442311	0.179340
O25	O	0.676803	0.530309	-0.050587
O26	O	0.568312	0.543964	0.179354
O27	O	0.488110	0.543972	0.179341
O28	O	0.673797	0.536326	0.050817
O29	O	0.498760	0.704556	-0.179166
O30	O	0.568289	0.362110	0.179351
O31	O	0.669963	0.362099	0.179367
O32	O	0.673774	0.354471	0.050815
O33	O	0.393275	0.712194	-0.050630
O34	O	0.494950	0.712183	-0.050614
O35	O	0.560079	0.480218	0.113612
O36	O	0.622176	0.475721	0.037944
O37	O	0.564581	0.590931	-0.037741
O38	O	0.502484	0.595428	0.037927
C39	C	0.533504	0.373352	0.000090
C40	C	0.533497	0.319056	0.000089
C41	C	0.565955	-0.020032	-0.039399
C42	C	0.565960	-0.071056	-0.039397
O43	O	0.593545	-0.099457	-0.072965
N44	N	0.533546	-0.094225	0.000100
C45	C	0.501128	-0.066372	0.039603
O46	O	0.473558	-0.090765	0.073198
C47	C	0.501127	-0.015353	0.039604
C48	C	0.533539	0.007818	0.000099
C49	C	0.598365	0.003138	-0.078900
C50	C	0.598359	0.054159	-0.078903
C51	C	0.565942	0.082010	-0.039405
C52	C	0.533532	0.058839	0.000096
C53	C	0.468713	0.012496	0.079111
C54	C	0.468715	0.063518	0.079110
C55	C	0.501127	0.086689	0.039605
C56	C	0.501110	0.137711	0.039591
N57	N	0.533524	0.160880	0.000095
C58	C	0.565941	0.133029	-0.039403
C59	C	0.501135	-0.173518	0.039597
C60	C	0.501133	-0.224533	0.039591
C61	C	0.565966	-0.229214	-0.039407
C62	C	0.565965	-0.178195	-0.039406
C63	C	0.533550	-0.150349	0.000100
C64	C	0.565924	0.240178	-0.039407
C65	C	0.565913	0.291206	-0.039409
C66	C	0.501083	0.295880	0.039592
C67	C	0.501091	0.244859	0.039591
C68	C	0.533517	0.217008	0.000090
O69	O	0.473541	0.166141	0.073145
O70	O	0.593513	0.157423	-0.072985
C71	C	0.373524	0.533350	0.000067
C72	C	0.319222	0.533356	0.000059
C73	C	0.012586	0.473184	0.039620
C74	C	-0.038432	0.473181	0.039627
O75	O	-0.039252	0.422037	0.073249
N76	N	-0.094013	0.533318	0.000119
C77	C	-0.098575	0.593464	-0.039391
O78	O	-0.150536	0.644615	-0.072994
C79	C	-0.047557	0.593467	-0.039393
C80	C	0.008023	0.533325	0.000111
C81	C	0.068164	0.413047	0.079121
C82	C	0.119180	0.413051	0.079113
C83	C	0.114617	0.473191	0.039604
C84	C	0.059039	0.533328	0.000103
C85	C	-0.052120	0.653612	-0.078899
C86	C	-0.001096	0.653610	-0.078897
C87	C	0.054485	0.593468	-0.039393
C88	C	0.105491	0.593473	-0.039415
N89	N	0.161072	0.533335	0.000093
C90	C	0.165635	0.473194	0.039602
C91	C	-0.205714	0.593453	-0.039383
C92	C	-0.256731	0.593450	-0.039386
C93	C	-0.196585	0.473167	0.039633
C94	C	-0.145567	0.473170	0.039631
C95	C	-0.150133	0.533315	0.000124
C96	C	0.272768	0.473206	0.039582
C97	C	0.323785	0.473215	0.039568
C98	C	0.263634	0.593498	-0.039448
C99	C	0.212621	0.593490	-0.039437
C100	C	0.217192	0.533338	0.000083
O101	O	0.106356	0.644591	-0.073017
O102	O	0.217597	0.422052	0.073208
C103	C	0.693525	0.533315	0.000118
C104	C	0.747828	0.533310	0.000126
C105	C	0.539521	0.521330	-0.202206
C106	C	0.541556	0.517256	-0.270864
C107	C	0.533545	0.693313	0.000095
C108	C	0.533552	0.747609	0.000096
C109	C	0.512449	0.575480	-0.342626
C110	C	0.514369	0.571648	-0.407135
C111	C	0.545393	0.509593	-0.399880
C112	C	0.574504	0.451365	-0.328110
C113	C	0.572587	0.455198	-0.263603
C114	C	0.552687	0.495014	-0.592674
C115	C	0.554600	0.491186	-0.657189
C116	C	0.494466	0.611469	-0.736210
C117	C	0.492549	0.615296	-0.671697
C118	C	0.521663	0.557068	-0.599933
C119	C	0.547354	0.505675	-0.465818
C120	C	0.519704	0.560987	-0.533997
C121	C	0.527528	0.545335	0.202391
C122	C	0.525493	0.549409	0.271049
C123	C	0.693504	0.373335	0.000115
C124	C	0.747800	0.319033	0.000123
C125	C	0.527508	0.385355	0.202388
C126	C	0.525465	0.335132	0.271045
C127	C	0.687508	0.385337	0.202413
C128	C	0.739769	0.335109	0.271079
C129	C	0.379541	0.681328	-0.202229
C130	C	0.327281	0.731556	-0.270894
C131	C	0.373545	0.693331	0.000069
C132	C	0.319249	0.747632	0.000062
C133	C	0.539542	0.681311	-0.202203
C134	C	0.541584	0.731533	-0.270861
C135	C	0.743226	0.291191	-0.039388
C136	C	0.794238	0.240175	-0.039395
C137	C	0.849824	0.216998	0.000112
C138	C	0.854397	0.244845	0.039624
C139	C	0.803385	0.295863	0.039627
C140	C	0.554579	0.313888	0.342802
C141	C	0.552657	0.266706	0.407319
C142	C	0.521626	0.240766	0.400078
C143	C	0.492509	0.262015	0.328314
C144	C	0.494428	0.309199	0.263798
C145	C	0.796730	0.309174	0.263828
C146	C	0.845840	0.261986	0.328341
C147	C	0.837986	0.240731	0.400104
C148	C	0.781018	0.266670	0.407354
C149	C	0.731910	0.313861	0.342842
C150	C	0.270319	0.757497	-0.263643
C151	C	0.221210	0.804701	-0.328156
C152	C	0.229063	0.825960	-0.399919
C153	C	0.286031	0.800017	-0.407169
C154	C	0.335139	0.752817	-0.342657
C155	C	0.323824	0.775479	0.039566
C156	C	0.272812	0.826508	0.039556
C157	C	0.217226	0.849687	0.000046
C158	C	0.212653	0.821838	-0.039463
C159	C	0.263664	0.770813	-0.039457
C160	C	0.572620	0.757459	-0.263595
C161	C	0.574550	0.804641	-0.328100
C162	C	0.545440	0.825901	-0.399869
C163	C	0.514403	0.799971	-0.407133
C164	C	0.512476	0.752786	-0.342629
H165	H	0.624765	-0.019535	-0.111063
H166	H	0.369041	0.424238	0.071739
F167	F	0.153490	0.846512	-0.081508
F168	F	0.162940	0.903992	0.000047
F169	F	0.459486	0.234400	0.320619
F170	F	0.607523	0.385321	-0.320390
H171	H	0.259931	0.748141	-0.071624
H172	H	0.899661	0.225967	0.071790
F173	F	0.684072	0.315850	-0.081443
H174	H	0.596325	0.740157	-0.205163
H175	H	0.774633	0.249357	0.465793
F176	F	0.808263	0.325486	0.081687
H177	H	0.487200	0.731682	-0.348555
H178	H	0.579848	0.335004	0.348713
H179	H	0.576370	0.249411	0.465746
H180	H	0.592329	0.217506	-0.071571
F181	F	0.906463	0.234385	0.320609
F182	F	0.382977	0.750821	0.081619
H183	H	0.547013	0.864323	-0.452386
H184	H	0.592307	0.310071	-0.071581
H185	H	0.292418	0.817331	-0.465607
H186	H	0.599823	0.825750	-0.322170
H187	H	0.442317	0.086189	0.111281
H188	H	0.520069	0.202346	0.452617
F189	F	0.261947	0.734880	-0.187273
F190	F	0.904110	0.162698	0.000103
F191	F	0.671288	0.341455	0.350572
F192	F	0.890257	0.190505	0.468758
H193	H	0.470722	0.326490	0.205373
F194	F	0.483420	0.822608	-0.483522
F195	F	0.073033	0.349032	0.121179
H196	H	0.624753	0.073020	-0.111069
H197	H	0.576394	0.447601	-0.534249
F198	F	0.153467	0.657498	-0.081495
F199	F	0.600462	-0.153540	-0.081450
H200	H	0.174829	0.825816	-0.322238
F201	F	0.483388	0.633617	-0.483510
H202	H	0.494447	0.611512	-0.539901
F203	F	0.176792	0.876194	-0.468573
H204	H	0.803136	0.326473	0.205400
F205	F	0.587622	0.425135	-0.649462
F206	F	0.178328	0.349039	0.121164
F207	F	0.466587	0.220205	0.081627
F208	F	0.277691	0.856136	0.081611
F209	F	0.600468	-0.258865	-0.081444
F210	F	0.466627	-0.249180	0.081626
H211	H	0.381518	0.731696	-0.348571
H212	H	0.474733	-0.150844	0.071763
H213	H	0.259929	0.642463	-0.071618
H214	H	0.442321	-0.006362	0.111282
H215	H	0.474689	0.318567	0.071748
H216	H	0.276498	0.424226	0.071764
F217	F	0.459507	0.681343	-0.679426
H218	H	-0.100314	0.424198	0.071805
H219	H	-0.192877	0.424197	0.071801
F220	F	-0.210582	0.657472	-0.081441
F221	F	-0.315880	0.657461	-0.081442
H222	H	-0.004820	0.702589	-0.111059
F223	F	0.479427	0.641528	-0.350356
F224	F	-0.111264	0.717625	-0.120939
H225	H	0.470764	0.658874	-0.794645
H226	H	0.596289	0.407786	-0.205170
H227	H	0.572614	0.455149	-0.459918
F228	F	0.789358	0.210546	-0.081448
