data_functionalizedCrystal
_audit_creation_method	'MofGen! by Chris Wilmer'
_symmetry_space_group_name_H-M	'P1'
_symmetry_Int_Tables_number	1
_symmetry_cell_setting	triclinic
loop_
_symmetry_equiv_pos_as_xyz
  x,y,z
_cell_length_a	12.759401
_cell_length_b	19.077068
_cell_length_c	12.759393
_cell_angle_alpha	87.739017
_cell_angle_beta	90.017380
_cell_angle_gamma	92.327081
loop_
_atom_site_label
_atom_site_type_symbol
_atom_site_fract_x
_atom_site_fract_y
_atom_site_fract_z
Zn1	Zn	1.589350	-0.280154	0.610733
Zn2	Zn	1.582149	-0.397870	0.442092
Zn3	Zn	1.413653	-0.280191	0.435075
Zn4	Zn	1.406545	-0.397816	0.617730
O5	O	1.497924	-0.339008	0.526407
O6	O	1.735415	-0.295777	0.588371
O7	O	1.559758	-0.382298	0.294142
O8	O	1.442948	-0.181696	0.452511
O9	O	1.730124	-0.382262	0.464471
O10	O	1.572031	-0.181668	0.581567
O11	O	1.435965	-0.295840	0.288987
O12	O	1.265689	-0.295787	0.459296
O13	O	1.430833	-0.382169	0.763821
O14	O	1.260467	-0.382205	0.593492
O15	O	1.565139	-0.295724	0.758680
O16	O	1.552866	-0.496353	0.471256
O17	O	1.423851	-0.496313	0.600296
C18	C	1.224957	-0.338995	0.526392
C19	C	1.108180	-0.339006	0.526412
C20	C	1.486834	-0.521871	0.537320
C21	C	1.482186	-0.600101	0.542023
C22	C	1.050622	-0.384076	0.596181
C23	C	0.940897	-0.384085	0.596193
C24	C	0.946299	-0.293952	0.456658
C25	C	1.056021	-0.293940	0.456652
C26	C	1.047503	-0.436116	0.676738
C27	C	0.937778	-0.436125	0.676750
C28	C	1.547226	-0.636851	0.477104
C29	C	1.542860	-0.710356	0.481534
C30	C	1.473449	-0.747109	0.550879
C31	C	1.408407	-0.710354	0.615805
C32	C	1.412778	-0.636850	0.611380
C33	C	1.453171	-0.966942	0.571318
C34	C	1.448802	-1.040451	0.575736
C35	C	1.583258	-1.040447	0.441466
C36	C	1.587619	-0.966942	0.437042
C37	C	1.522580	-0.930193	0.501972
N38	N	1.468983	-0.822243	0.555406
N39	N	1.527053	-0.855061	0.497449
C40	C	1.771956	-0.339021	0.526423
C41	C	1.888733	-0.339027	0.526430
C42	C	1.497996	-0.338936	0.800437
C43	C	1.498027	-0.338906	0.917212
C44	C	1.509086	-0.155431	0.515476
C45	C	1.513842	-0.077201	0.510817
C46	C	1.497915	-0.339028	0.253441
C47	C	1.498100	-0.338861	0.136655
C48	C	1.433597	-0.293879	0.969395
C49	C	1.433630	-0.293858	1.079118
C50	C	1.562533	-0.383893	1.084465
C51	C	1.562493	-0.383917	0.974744
C52	C	1.359180	-0.241895	0.966308
C53	C	1.359213	-0.241874	1.076031
H54	H	1.102882	-0.257235	0.399845
H55	H	0.903818	-0.257261	0.399862
H56	H	1.280739	-0.261386	1.111224
C57	C	1.393161	-0.168230	1.111887
N58	N	1.418734	-0.112764	1.138894
C59	C	1.089244	-0.506030	0.641360
N60	N	1.120684	-0.558690	0.614711
H61	H	1.078186	-0.421579	0.757275
H62	H	0.904952	-0.416668	0.752938
H63	H	1.636210	-1.070376	0.388605
H64	H	0.904696	-0.490621	0.658076
C65	C	1.623582	-0.596428	0.400817
N66	N	1.681099	-0.565984	0.343357
H67	H	1.391466	-0.190126	0.929197
H68	H	1.615019	-0.420538	1.131321
H69	H	1.392291	-1.070374	0.632223
H70	H	1.595822	-0.740274	0.428669
C71	C	1.341229	-0.596426	0.682796
N72	N	1.287339	-0.565979	0.736593
C73	C	1.663950	-0.926519	0.360731
N74	N	1.721431	-0.896071	0.303240
H75	H	1.351895	-0.740285	0.672271
C76	C	1.381679	-0.926528	0.642797
N77	N	1.327849	-0.896086	0.696659
H78	H	1.614943	-0.420592	0.932262
C79	C	1.248041	-0.261621	0.927255
N80	N	1.164334	-0.276479	0.897840
