data_functionalizedCrystal
_audit_creation_method	'MofGen! by Chris Wilmer'
_symmetry_space_group_name_H-M	'P1'
_symmetry_Int_Tables_number	1
_symmetry_cell_setting	triclinic
loop_
_symmetry_equiv_pos_as_xyz
  x,y,z
_cell_length_a	6.817900
_cell_length_b	7.076028
_cell_length_c	23.753515
_cell_angle_alpha	92.840650
_cell_angle_beta	100.076835
_cell_angle_gamma	117.700652
loop_
_atom_site_label
_atom_site_type_symbol
_atom_site_fract_x
_atom_site_fract_y
_atom_site_fract_z
V1	V	-4.183403	-0.666194	-0.078248
O2	O	-4.184822	-0.652272	0.004698
O3	O	-4.117607	-0.662830	-0.156054
O4	O	-4.210729	-0.956200	-0.076633
O5	O	-4.091055	-0.356871	-0.075273
V6	V	-4.659473	-0.629051	-0.068375
O7	O	-4.461011	-0.747668	-0.099904
O8	O	-4.832062	-0.547577	-0.046719
O9	O	-4.502062	-0.632415	0.009431
O10	O	-4.775450	-0.642973	-0.151321
O11	O	-4.869217	-0.938373	-0.071350
O12	O	-4.408940	-0.339045	-0.069990
C13	C	-3.955925	-0.652628	-0.175035
C14	C	-3.983921	-0.651811	-0.238640
C15	C	-4.015418	-0.452910	-0.505658
C16	C	-3.989128	-0.453659	-0.445894
O17	O	-3.899449	-0.287834	-0.408260
N18	N	-4.065376	-0.649478	-0.423909
C19	C	-4.167899	-0.844560	-0.461691
O20	O	-4.230337	-1.011188	-0.437504
C21	C	-4.194172	-0.843808	-0.521454
C22	C	-4.117939	-0.647977	-0.543436
C23	C	-3.939189	-0.257095	-0.527640
C24	C	-3.965481	-0.256347	-0.587400
C25	C	-4.068002	-0.451414	-0.625178
C26	C	-4.144230	-0.647229	-0.603196
C27	C	-4.296680	-1.038886	-0.559235
C28	C	-4.322946	-1.038117	-0.619002
C29	C	-4.246712	-0.842286	-0.640983
C30	C	-4.273043	-0.841548	-0.700734
N31	N	-4.196796	-0.645728	-0.722719
C32	C	-4.094275	-0.450661	-0.684941
C33	C	-4.112713	-0.846125	-0.336185
C34	C	-4.086455	-0.846880	-0.276423
C35	C	-3.907682	-0.455978	-0.260630
C36	C	-3.933956	-0.455225	-0.320392
C37	C	-4.036465	-0.650305	-0.358170
C38	C	-4.149498	-0.449105	-0.810442
C39	C	-4.175809	-0.448375	-0.870209
C40	C	-4.354568	-0.839275	-0.885997
C41	C	-4.328271	-0.840007	-0.826236
C42	C	-4.225722	-0.644905	-0.788459
O43	O	-4.362692	-1.007287	-0.738402
O44	O	-4.031826	-0.284059	-0.709137
C45	C	-4.208283	-0.268386	-0.072900
C46	C	-4.081678	-0.026840	-0.073720
C47	C	-4.327083	-0.642611	0.028409
C48	C	-4.278330	-0.643442	0.092013
H49	H	-4.065988	-0.290233	-0.779691
H50	H	-4.406412	-1.196978	-0.649758
H51	H	-4.390412	-0.999473	-0.808339
C52	C	-4.033581	-0.237655	-0.381170
C53	C	-3.850149	-0.239960	-0.344549
H54	H	-3.981835	-0.104745	-0.396077
H55	H	-4.098361	-0.353690	-0.412224
H56	H	-4.144934	-0.252933	-0.360040
H57	H	-3.738804	-0.224698	-0.365681
H58	H	-3.785335	-0.123892	-0.313490
H59	H	-4.358748	-1.198352	-0.541349
H60	H	-4.438054	-0.998094	-0.916767
C61	C	-4.205303	-0.125016	-0.877869
C62	C	-4.091996	-0.233094	-0.894365
H63	H	-4.153547	0.007892	-0.892777
H64	H	-4.364206	-0.212027	-0.892772
H65	H	-4.174964	-0.097584	-0.836868
H66	H	-4.122349	-0.260540	-0.935366
H67	H	-3.933057	-0.146063	-0.879465
C68	C	-3.787993	-0.283585	-0.161999
C69	C	-3.794960	-0.241549	-0.219095
H70	H	-3.718394	-0.151212	-0.136358
H71	H	-3.938293	-0.370830	-0.157314
H72	H	-3.702528	-0.357195	-0.153602
H73	H	-3.880439	-0.167953	-0.227494
H74	H	-3.644633	-0.154270	-0.223783
H75	H	-3.903393	-0.096880	-0.605292
H76	H	-3.855697	-0.098238	-0.496886
H77	H	-4.148572	-1.006347	-0.258532
H78	H	-4.196205	-1.004993	-0.366941
