data_functionalizedCrystal
_audit_creation_method	'MofGen! by Chris Wilmer'
_symmetry_space_group_name_H-M	'P1'
_symmetry_Int_Tables_number	1
_symmetry_cell_setting	triclinic
loop_
_symmetry_equiv_pos_as_xyz
  x,y,z
_cell_length_a	16.109301
_cell_length_b	10.654549
_cell_length_c	9.730223
_cell_angle_alpha	89.997731
_cell_angle_beta	89.994178
_cell_angle_gamma	83.973129
loop_
_atom_site_label
_atom_site_type_symbol
_atom_site_fract_x
_atom_site_fract_y
_atom_site_fract_z
O1	O	0.116772	1.666255	-0.114263
O2	O	0.127898	1.300626	-0.114273
O3	O	0.001364	1.493485	-0.114254
O4	O	0.243307	1.473396	-0.114282
O5	O	0.001360	1.493472	0.114326
O6	O	0.127895	1.300613	0.114307
O7	O	0.116769	1.666243	0.114317
Zn8	Zn	0.122331	1.483426	0.150604
Zn9	Zn	0.122336	1.483442	-0.150560
O10	O	0.243303	1.473384	0.114297
C11	C	0.127080	1.253833	0.000016
C12	C	0.124636	1.114422	0.000012
C13	C	0.196834	0.902928	0.000009
C14	C	0.199137	1.033918	0.000001
C15	C	0.047827	1.063932	0.000018
C16	C	0.045525	0.932945	0.000017
C17	C	-0.029617	1.492665	0.000037
C18	C	-0.121927	1.490225	0.000039
C19	C	-0.343553	1.598991	0.000020
C20	C	-0.430287	1.596689	0.000008
C21	C	-0.411773	1.367869	0.000008
C22	C	-0.325041	1.370172	0.000009
C23	C	-0.290933	1.485737	0.000022
C24	C	-0.464400	1.481132	0.000009
C25	C	-0.558441	1.478635	-0.000003
C26	C	-0.196886	1.488234	0.000032
C27	C	0.274284	1.474204	0.000004
C28	C	0.366594	1.476643	-0.000007
C29	C	0.117587	1.713036	0.000025
C30	C	0.120031	1.852446	0.000019
N31	N	0.122328	1.483424	0.356140
N32	N	0.122333	1.483454	-0.356097
C33	C	0.066322	1.568851	0.428075
C34	C	0.066322	1.568863	0.571958
C35	C	0.178341	1.398018	0.571959
C36	C	0.178336	1.398001	0.428079
H37	H	0.257502	0.837389	0.000010
O38	O	0.011959	1.651721	0.357980
C39	C	0.023929	1.633344	0.215560
H40	H	0.089756	1.586449	0.195876
H41	H	0.015199	1.728423	0.160833
H42	H	-0.023489	1.570303	0.174808
H43	H	-0.439554	1.273779	-0.000000
O44	O	-0.481435	1.706672	-0.000235
C45	C	-0.532161	1.712180	-0.118607
H46	H	-0.500764	1.647952	-0.201348
H47	H	-0.541325	1.813344	-0.158343
H48	H	-0.595411	1.679702	-0.091850
O49	O	0.232824	1.314966	0.358405
C50	C	0.282250	1.239559	0.452749
H51	H	0.283516	1.291052	0.555303
H52	H	0.348527	1.220360	0.411155
H53	H	0.254678	1.146291	0.468077
H54	H	0.261677	1.075013	-0.000009
H55	H	-0.282195	1.277941	0.000007
H56	H	0.223943	1.328470	0.630545
O57	O	0.011890	1.651971	0.641621
C58	C	-0.037557	1.727335	0.547267
H59	H	-0.003461	1.728722	0.444697
H60	H	-0.049620	1.827631	0.588824
H61	H	-0.099573	1.686595	0.531985
H62	H	-0.017021	0.891843	0.000021
O63	O	-0.024467	1.142310	0.000090
C64	C	-0.005968	1.268749	0.000059
H65	H	0.059364	1.273739	0.043323
H66	H	-0.053410	1.328110	0.066432
H67	H	-0.008902	1.306641	-0.109600
H68	H	-0.315786	1.693092	0.000028
