data_functionalizedCrystal
_audit_creation_method	'MofGen! by Chris Wilmer'
_symmetry_space_group_name_H-M	'P1'
_symmetry_Int_Tables_number	1
_symmetry_cell_setting	triclinic
loop_
_symmetry_equiv_pos_as_xyz
  x,y,z
_cell_length_a	12.837932
_cell_length_b	14.044190
_cell_length_c	11.295483
_cell_angle_alpha	94.464886
_cell_angle_beta	85.460332
_cell_angle_gamma	94.010740
loop_
_atom_site_label
_atom_site_type_symbol
_atom_site_fract_x
_atom_site_fract_y
_atom_site_fract_z
O1	O	1.404888	0.242697	-0.099055
O2	O	1.904888	0.742697	0.400945
O3	O	1.101947	0.230420	-0.099056
O4	O	1.601947	0.730420	0.400944
O5	O	1.248865	0.098164	-0.099032
O6	O	1.748865	0.598164	0.400968
O7	O	1.257970	0.374953	-0.099079
O8	O	1.757970	0.874953	0.400921
O9	O	1.235959	0.109761	0.099017
O10	O	1.735959	0.609761	0.599017
O11	O	1.089041	0.242017	0.098993
O12	O	1.589041	0.742017	0.598993
O13	O	1.391982	0.254294	0.098993
O14	O	1.891982	0.754294	0.598993
Cu15	Cu	1.239333	0.249214	0.117077
Cu16	Cu	1.739333	0.749214	0.617077
Cu17	Cu	1.254596	0.235500	-0.117139
Cu18	Cu	1.754596	0.735500	0.382861
O19	O	1.245064	0.386550	0.098970
O20	O	1.745064	0.886550	0.598970
C21	C	1.056489	0.232072	-0.000031
C22	C	1.556489	0.732072	0.499969
C23	C	0.940268	0.219704	-0.000030
C24	C	1.440268	0.719704	0.499970
C25	C	0.780862	0.116330	-0.000010
C26	C	1.280862	0.616330	0.499990
C27	C	0.890063	0.127945	-0.000013
C28	C	1.390063	0.627945	0.499987
C29	C	0.881265	0.299854	-0.000041
C30	C	1.381265	0.799854	0.499959
C31	C	0.772064	0.288239	-0.000039
C32	C	1.272064	0.788239	0.499961
C33	C	0.721867	0.196474	-0.000025
C34	C	1.221867	0.696474	0.499975
C35	C	0.612665	0.184860	-0.000031
C36	C	1.112665	0.684860	0.499969
C37	C	0.603868	0.356769	-0.000051
C38	C	1.103868	0.856769	0.499949
C39	C	0.713068	0.368384	-0.000054
C40	C	1.213068	0.868384	0.499946
C41	C	1.238430	0.068289	-0.000004
C42	C	1.738430	0.568289	0.499996
C43	C	1.226552	-0.038009	0.000006
C44	C	1.726552	0.461991	0.500006
C45	C	1.289077	-0.282651	-0.000040
C46	C	1.789077	0.217349	0.499960
C47	C	1.204857	-0.232629	-0.000032
C48	C	1.704857	0.267371	0.499968
C49	C	1.216931	-0.124333	-0.000011
C50	C	1.716931	0.375667	0.499989
C51	C	1.277005	-0.390957	-0.000062
C52	C	1.777005	0.109043	0.499938
C53	C	1.437439	0.252642	-0.000034
C54	C	1.937439	0.752642	0.499966
C55	C	1.553661	0.265010	-0.000043
C56	C	2.053661	0.765010	0.499957
C57	C	1.255499	0.416426	-0.000061
C58	C	1.755499	0.916426	0.499939
C59	C	1.267378	0.522723	-0.000079
C60	C	1.767378	1.022723	0.499921
N61	N	1.228606	0.258860	0.281811
N62	N	1.728606	0.758860	0.781811
N63	N	1.265331	0.225847	-0.281873
N64	N	1.765331	0.725847	0.218127
C65	C	1.342548	0.156357	0.531119
C66	C	1.842548	0.656357	1.031119
C67	C	1.334449	0.163654	0.655781
C68	C	1.834449	0.663654	1.155781
C69	C	1.204304	0.280745	0.655801
C70	C	1.704304	0.780745	1.155801
C71	C	1.212403	0.273449	0.531138
C72	C	1.712403	0.773449	1.031138
C73	C	1.281528	0.211253	0.468802
C74	C	1.781528	0.711253	0.968802
C75	C	1.289632	0.203962	0.344137
C76	C	1.789632	0.703962	0.844137
C77	C	1.159482	0.321048	0.344159
C78	C	1.659482	0.821048	0.844159
C79	C	1.151383	0.328345	0.468821
C80	C	1.651383	0.828345	0.968821
H81	H	0.739992	0.041611	-0.000011
H82	H	1.239992	0.541611	0.499989
Br83	Br	1.069565	-0.296806	-0.000038
Br84	Br	1.569565	0.203194	0.499962
H85	H	1.370241	-0.244145	-0.000028
H86	H	1.870241	0.255855	0.499972
Br87	Br	1.383449	0.119561	0.259539
Br88	Br	1.883449	0.619561	0.759539
Br89	Br	1.436374	0.071966	0.446517
Br90	Br	1.936374	0.571966	0.946517
Br91	Br	1.417260	0.089144	0.740353
Br92	Br	1.917260	0.589144	1.240353
H93	H	1.148017	0.331376	0.706571
H94	H	1.648017	0.831376	1.206571
H95	H	0.938093	0.062683	-0.000000
H96	H	1.438093	0.562683	0.500000
H97	H	1.095100	0.378980	0.519590
H98	H	1.595100	0.878980	1.019590
H99	H	0.922153	0.374566	-0.000042
H100	H	1.422153	0.874566	0.499958
H101	H	0.555822	0.422028	-0.000064
H102	H	1.055822	0.922028	0.499936
Br103	Br	0.544541	0.060324	-0.000016
Br104	Br	1.044541	0.560324	0.499984
Br105	Br	0.781202	0.492916	-0.000071
Br106	Br	1.281202	0.992916	0.499929
Br107	Br	1.076676	0.395562	0.259574
Br108	Br	1.576676	0.895562	0.759574
