data_functionalizedCrystal
_audit_creation_method	'MofGen! by Chris Wilmer'
_symmetry_space_group_name_H-M	'P1'
_symmetry_Int_Tables_number	1
_symmetry_cell_setting	triclinic
loop_
_symmetry_equiv_pos_as_xyz
  x,y,z
_cell_length_a	12.827893
_cell_length_b	12.827892
_cell_length_c	12.827885
_cell_angle_alpha	90.029976
_cell_angle_beta	90.019272
_cell_angle_gamma	90.015362
loop_
_atom_site_label
_atom_site_type_symbol
_atom_site_fract_x
_atom_site_fract_y
_atom_site_fract_z
Zn1	Zn	1.597671	-0.415978	0.590847
Zn2	Zn	1.931004	-0.082645	0.924181
Zn3	Zn	2.264338	0.250689	1.257514
Zn4	Zn	1.597566	-0.590755	0.416107
Zn5	Zn	1.930899	-0.257422	0.749440
Zn6	Zn	2.264232	0.075911	1.082774
Zn7	Zn	1.422912	-0.416029	0.416121
Zn8	Zn	1.756246	-0.082696	0.749454
Zn9	Zn	2.089579	0.250637	1.082788
Zn10	Zn	1.422898	-0.590678	0.590807
Zn11	Zn	1.756232	-0.257345	0.924140
Zn12	Zn	2.089565	0.075989	1.257474
O13	O	1.510262	-0.503360	0.503471
O14	O	1.843595	-0.170027	0.836804
O15	O	2.176928	0.163306	1.170137
O16	O	1.743893	-0.439173	0.567679
O17	O	2.077226	-0.105840	0.901012
O18	O	2.410560	0.227493	1.234345
O19	O	1.574359	-0.567631	0.269873
O20	O	1.907693	-0.234298	0.603206
O21	O	2.241026	0.099035	0.936539
O22	O	1.446144	-0.269787	0.439321
O23	O	1.779478	0.063547	0.772655
O24	O	2.112811	0.396880	1.105988
O25	O	1.743816	-0.567582	0.439298
O26	O	2.077149	-0.234248	0.772631
O27	O	2.410482	0.099085	1.105964
O28	O	1.574539	-0.269749	0.567692
O29	O	1.907872	0.063585	0.901025
O30	O	2.241206	0.396918	1.234359
O31	O	1.446042	-0.439261	0.269883
O32	O	1.779376	-0.105928	0.603216
O33	O	2.112709	0.227406	0.936550
O34	O	1.276674	-0.439186	0.439282
O35	O	1.610008	-0.105853	0.772616
O36	O	1.943341	0.227481	1.105949
O37	O	1.446120	-0.567450	0.737048
O38	O	1.779454	-0.234117	1.070382
O39	O	2.112787	0.099217	1.403715
O40	O	1.276664	-0.567500	0.567623
O41	O	1.609997	-0.234167	0.900957
O42	O	1.943331	0.099167	1.234290
O43	O	1.574525	-0.439098	0.737078
O44	O	1.907858	-0.105765	1.070411
O45	O	2.241192	0.227568	1.403745
O46	O	1.574346	-0.736981	0.439259
O47	O	1.907679	-0.403648	0.772592
O48	O	2.241012	-0.070314	1.105925
O49	O	1.446018	-0.736924	0.567610
O50	O	1.779352	-0.403591	0.900943
O51	O	2.112685	-0.070258	1.234277
C52	C	1.238752	-0.503341	0.503451
C53	C	1.572085	-0.170008	0.836784
C54	C	1.905419	0.163326	1.170117
C55	C	1.122599	-0.503358	0.503467
C56	C	1.455932	-0.170025	0.836800
C57	C	1.789265	0.163309	1.170134
C58	C	0.950732	-0.566817	0.439874
C59	C	1.284065	-0.233483	0.773207
C60	C	1.617398	0.099850	1.106541
C61	C	1.070782	-0.566801	0.439856
C62	C	1.404115	-0.233467	0.773189
C63	C	1.737449	0.099866	1.106522
C64	C	1.510197	-0.774870	0.503451
C65	C	1.843531	-0.441537	0.836785
C66	C	2.176864	-0.108203	1.170118
C67	C	1.510265	-0.891023	0.503478
C68	C	1.843599	-0.557690	0.836811
C69	C	2.176932	-0.224357	1.170145
C70	C	1.446750	-0.942814	0.566944
C71	C	1.780083	-0.609481	0.900277
C72	C	2.113417	-0.276148	1.233610
C73	C	1.446819	-1.062865	0.566973
C74	C	1.780152	-0.729531	0.900306
C75	C	2.113486	-0.396198	1.233639
C76	C	1.782832	-0.503380	0.503491
C77	C	2.116165	-0.170047	0.836824
C78	C	2.449499	0.163286	1.170158
C79	C	1.898985	-0.503389	0.503500
C80	C	2.232318	-0.170055	0.836833
C81	C	2.565652	0.163278	1.170167
C82	C	1.510333	-0.503260	0.776041
C83	C	1.843666	-0.169927	1.109374
C84	C	2.177000	0.163407	1.442708
C85	C	1.510363	-0.503217	0.892194
C86	C	1.843697	-0.169884	1.225527
C87	C	2.177030	0.163450	1.558861
C88	C	1.510355	-0.230790	0.503513
C89	C	1.843688	0.102543	0.836846
C90	C	2.177022	0.435877	1.170180
C91	C	1.510395	-0.114637	0.503531
C92	C	1.843728	0.218696	0.836864
C93	C	2.177061	0.552030	1.170198
C94	C	1.510251	-0.503385	0.231961
C95	C	1.843584	-0.170051	0.565294
C96	C	2.176918	0.163282	0.898627
C97	C	1.510423	-0.503133	0.115808
C98	C	1.843757	-0.169800	0.449141
C99	C	2.177090	0.163534	0.782475
C100	C	1.573909	-0.439692	0.943993
C101	C	1.907242	-0.106359	1.277327
C102	C	2.240576	0.226974	1.610660
C103	C	1.573942	-0.439647	1.064044
C104	C	1.907275	-0.106313	1.397377
C105	C	2.240608	0.227020	1.730711
H106	H	0.906157	-0.621127	0.385411
H107	H	1.239490	-0.287793	0.718744
H108	H	1.572824	0.045540	1.052077
H109	H	0.943560	-0.449070	0.557954
H110	H	1.276893	-0.115736	0.891288
H111	H	1.610226	0.217597	1.224621
C112	C	1.647373	-0.366259	0.883841
C113	C	1.980706	-0.032926	1.217175
C114	C	2.314040	0.300408	1.550508
N115	N	1.702708	-0.310947	0.838536
N116	N	2.036042	0.022386	1.171869
N117	N	2.369375	0.355720	1.505203
C118	C	1.583862	-1.054476	0.430120
C119	C	1.917195	-0.721143	0.763453
C120	C	2.250529	-0.387810	1.096787
N121	N	1.639196	-1.009156	0.374825
N122	N	1.972529	-0.675822	0.708158
N123	N	2.305863	-0.342489	1.041492
H124	H	1.392316	-0.898281	0.621254
H125	H	1.725650	-0.564947	0.954588
H126	H	2.058983	-0.231614	1.287921
H127	H	1.392445	-1.107404	0.621312
H128	H	1.725779	-0.774071	0.954645
H129	H	2.059112	-0.440737	1.287979
H130	H	1.078104	-0.449056	0.557946
H131	H	1.411438	-0.115722	0.891279
H132	H	1.744771	0.217611	1.224612
C133	C	1.647439	-0.366168	1.124221
C134	C	1.980772	-0.032835	1.457554
C135	C	2.314106	0.300499	1.790887
N136	N	1.702797	-0.310819	1.169549
N137	N	2.036131	0.022514	1.502882
N138	N	2.369464	0.355847	1.836215
H139	H	1.115283	-0.621109	0.385389
H140	H	1.448616	-0.287776	0.718722
H141	H	1.781950	0.045558	1.052056
C142	C	1.436892	-0.576643	0.952346
C143	C	1.770226	-0.243310	1.285680
C144	C	2.103559	0.090023	1.619013
N145	N	1.381552	-0.631950	0.997652
N146	N	1.714885	-0.298617	1.330985
N147	N	2.048218	0.034716	1.664318
H148	H	1.564691	-0.935560	0.449161
H149	H	1.898024	-0.602226	0.782495
H150	H	2.231358	-0.268893	1.115828
H151	H	1.456020	-0.557526	1.071269
H152	H	1.789354	-0.224192	1.404602
H153	H	2.122687	0.109141	1.737935
