data_functionalizedCrystal
_audit_creation_method	'MofGen! by Chris Wilmer'
_symmetry_space_group_name_H-M	'P1'
_symmetry_Int_Tables_number	1
_symmetry_cell_setting	triclinic
loop_
_symmetry_equiv_pos_as_xyz
  x,y,z
_cell_length_a	16.959455
_cell_length_b	12.759400
_cell_length_c	16.959447
_cell_angle_alpha	90.027586
_cell_angle_beta	89.985678
_cell_angle_gamma	89.988368
loop_
_atom_site_label
_atom_site_type_symbol
_atom_site_fract_x
_atom_site_fract_y
_atom_site_fract_z
Zn1	Zn	1.208413	0.418331	-0.446924
Zn2	Zn	1.208348	0.594038	-0.314751
Zn3	Zn	1.076242	0.418364	-0.314761
Zn4	Zn	1.076219	0.593959	-0.446890
O5	O	1.142306	0.506173	-0.380832
O6	O	1.319016	0.441658	-0.429401
O7	O	1.190806	0.570781	-0.204142
O8	O	1.093811	0.271339	-0.332311
O9	O	1.318968	0.570749	-0.332294
O10	O	1.190917	0.271314	-0.429410
O11	O	1.093748	0.441714	-0.204149
O12	O	0.965628	0.441638	-0.332278
O13	O	1.093772	0.570615	-0.557505
O14	O	0.965611	0.570647	-0.429353
O15	O	1.190895	0.441582	-0.557530
O16	O	1.190784	0.741048	-0.332262
O17	O	1.093709	0.740991	-0.429343
C18	C	0.936939	0.506138	-0.380813
C19	C	0.849083	0.506149	-0.380824
C20	C	1.142259	0.779140	-0.380815
C21	C	1.142311	0.895917	-0.380835
C22	C	1.142374	0.232140	-0.380865
C23	C	1.142403	0.115363	-0.380880
C24	C	0.477591	0.438943	-0.330390
C25	C	0.477623	0.573490	-0.431318
C26	C	0.560169	0.573475	-0.431313
C27	C	0.601430	0.506194	-0.380845
C28	C	0.560145	0.438928	-0.330382
C29	C	0.601460	0.640746	-0.481769
C30	C	0.684011	0.640735	-0.481766
C31	C	0.725273	0.573448	-0.431302
C32	C	0.683983	0.506179	-0.380837
C33	C	0.725244	0.438898	-0.330370
C34	C	0.683956	0.371623	-0.279909
C35	C	0.601408	0.371641	-0.279918
C36	C	0.807822	0.573430	-0.431292
C37	C	0.807798	0.438883	-0.330362
C38	C	1.348474	0.506209	-0.380850
C39	C	1.436330	0.506224	-0.380858
C40	C	1.142339	0.506086	-0.587000
C41	C	1.142353	0.506049	-0.674857
C42	C	1.192914	0.950774	-0.330340
C43	C	1.192962	1.060498	-0.330364
C44	C	1.091798	1.060498	-0.431380
C45	C	1.091754	0.950776	-0.431359
C46	C	1.243471	0.895915	-0.279815
C47	C	1.294077	0.950772	-0.229316
C48	C	1.294126	1.060496	-0.229341
C49	C	1.243568	1.115363	-0.279864
C50	C	1.091880	0.573120	-1.046322
C51	C	1.193014	0.438757	-1.046343
C52	C	1.192993	0.438779	-0.963797
C53	C	1.142415	0.505974	-0.922510
C54	C	1.091859	0.573146	-0.963768
C55	C	1.243555	0.371615	-0.922532
C56	C	1.243536	0.371635	-0.839981
C57	C	1.192954	0.438826	-0.798692
C58	C	1.142395	0.506000	-0.839956
C59	C	1.091817	0.573195	-0.798669
C60	C	1.041253	0.640365	-0.839931
C61	C	1.041276	0.640337	-0.922480
C62	C	1.192930	0.438854	-0.716144
C63	C	1.091796	0.573222	-0.716115
C64	C	1.142318	0.506184	-0.175465
C65	C	1.142457	0.505925	-0.087609
H66	H	0.841387	0.384088	-0.289269
H67	H	1.000112	0.695026	-0.956083
H68	H	1.234197	0.384055	-1.079964
H69	H	0.717621	0.695514	-0.522855
H70	H	1.234101	0.384168	-0.682552
C71	C	1.036853	0.645917	-1.091073
C72	C	0.958648	0.623015	-1.071007
C73	C	0.907935	0.690045	-1.112224
H74	H	1.048296	0.716552	-1.077566
H75	H	1.044050	0.636271	-1.146158
H76	H	0.951453	0.632669	-1.015935
H77	H	0.947180	0.552392	-1.084516
H78	H	0.915133	0.680399	-1.167309
H79	H	0.919385	0.760676	-1.098714
H80	H	0.854867	0.674509	-1.098621
C81	C	0.556713	0.713956	-0.536475
C82	C	0.576757	0.817882	-0.519125
C83	C	0.535544	0.885348	-0.569506
H84	H	0.570238	0.698792	-0.589626
H85	H	0.501628	0.704400	-0.529257
H86	H	0.631830	0.827433	-0.526350
H87	H	0.563230	0.833078	-0.465984
H88	H	0.480459	0.875792	-0.562289
H89	H	0.549073	0.870175	-0.622654
H90	H	0.549133	0.955869	-0.557737
H91	H	1.335244	0.906094	-0.188186
H92	H	1.050636	1.105180	-0.472513
H93	H	1.335337	1.105158	-0.188227
H94	H	1.050549	0.906111	-0.472477
H95	H	1.284737	0.316915	-0.956154
C96	C	0.852608	0.646332	-0.486204
C97	C	0.832570	0.623576	-0.564443
C98	C	0.873819	0.690704	-0.615054
H99	H	0.839109	0.716944	-0.474648
H100	H	0.907688	0.636675	-0.479027
H101	H	0.777502	0.633241	-0.571617
H102	H	0.846071	0.552976	-0.576024
H103	H	0.928899	0.681048	-0.607876
H104	H	0.860317	0.761312	-0.603490
H105	H	0.860234	0.675267	-0.668145
H106	H	1.050601	0.627931	-0.682505
C107	C	0.432727	0.366079	-0.275508
C108	C	0.385326	0.425487	-0.224760
C109	C	0.343994	0.358401	-0.174185
H110	H	0.400476	0.320335	-0.305717
H111	H	0.469101	0.326028	-0.245405
H112	H	0.348957	0.465520	-0.254860
H113	H	0.417558	0.471228	-0.194534
H114	H	0.380367	0.318349	-0.144082
H115	H	0.311747	0.312660	-0.204400
H116	H	0.311833	0.398699	-0.139742
C117	C	1.298380	0.298797	-0.795043
C118	C	1.287542	0.313202	-0.713913
C119	C	1.338047	0.246119	-0.672491
H120	H	1.286866	0.228166	-0.808502
H121	H	1.351512	0.314166	-0.808511
H122	H	1.234421	0.297826	-0.700450
H123	H	1.299061	0.383819	-0.700431
H124	H	1.391179	0.261488	-0.685959
H125	H	1.326529	0.175493	-0.685956
H126	H	1.330705	0.255891	-0.617440
H127	H	1.243435	0.806572	-0.279788
H128	H	0.717562	0.316848	-0.238814
H129	H	1.000076	0.695080	-0.806304
H130	H	0.444023	0.628273	-0.472402
C131	C	0.556532	0.298780	-0.225043
C132	C	0.509134	0.358193	-0.174296
C133	C	0.467786	0.291111	-0.123730
H134	H	0.524279	0.253047	-0.255258
H135	H	0.592897	0.258716	-0.194938
H136	H	0.472774	0.398239	-0.204397
H137	H	0.541368	0.403923	-0.144063
H138	H	0.504150	0.251047	-0.093626
H139	H	0.435537	0.245381	-0.153952
H140	H	0.435627	0.331413	-0.089288
H141	H	1.243617	1.204708	-0.279886
