data_functionalizedCrystal
_audit_creation_method	'MofGen! by Chris Wilmer'
_symmetry_space_group_name_H-M	'P1'
_symmetry_Int_Tables_number	1
_symmetry_cell_setting	triclinic
loop_
_symmetry_equiv_pos_as_xyz
  x,y,z
_cell_length_a	18.215407
_cell_length_b	17.640280
_cell_length_c	18.215399
_cell_angle_alpha	78.775397
_cell_angle_beta	89.980167
_cell_angle_gamma	78.800709
loop_
_atom_site_label
_atom_site_type_symbol
_atom_site_fract_x
_atom_site_fract_y
_atom_site_fract_z
Zn1	Zn	1.184366	-0.314661	-0.356963
Zn2	Zn	1.209181	-0.446838	-0.209048
Zn3	Zn	1.061303	-0.314687	-0.233905
Zn4	Zn	1.086163	-0.446794	-0.332082
O5	O	1.135253	-0.380745	-0.282999
O6	O	1.290643	-0.332202	-0.337352
O7	O	1.189546	-0.429337	-0.109356
O8	O	1.056838	-0.204079	-0.271045
O9	O	1.308875	-0.429312	-0.228680
O10	O	1.147252	-0.204060	-0.361454
O11	O	1.080901	-0.332246	-0.127618
O12	O	0.961615	-0.332203	-0.246918
O13	O	1.099208	-0.429237	-0.438372
O14	O	0.979879	-0.429262	-0.319048
O15	O	1.171357	-0.332159	-0.456652
O16	O	1.213652	-0.557436	-0.204553
O17	O	1.123271	-0.557404	-0.294945
C18	C	0.944044	-0.380731	-0.282981
C19	C	0.862248	-0.380745	-0.282987
C20	C	1.173871	-0.586099	-0.244368
C21	C	1.190460	-0.673950	-0.227866
C22	C	0.683598	-0.431363	-0.320471
C23	C	0.606740	-0.431365	-0.320479
C24	C	0.587662	-0.330142	-0.245542
C25	C	0.664519	-0.330136	-0.245538
C26	C	0.712485	-0.380751	-0.283000
C27	C	0.558771	-0.380759	-0.283013
C28	C	0.475438	-0.380761	-0.283022
C29	C	0.795824	-0.380748	-0.282993
C30	C	1.009534	-0.962935	-0.408631
C31	C	1.025123	-1.045484	-0.393101
C32	C	1.119295	-1.045452	-0.299071
C33	C	1.103717	-0.962901	-0.314596
C34	C	1.048835	-0.921649	-0.369375
C35	C	1.143018	-0.921615	-0.275340
C36	C	1.127438	-0.839071	-0.290861
C37	C	1.072557	-0.797813	-0.345636
C38	C	1.033255	-0.839105	-0.384896
C39	C	1.197896	-0.962869	-0.220557
C40	C	1.237196	-0.921583	-0.181301
C41	C	1.221620	-0.839038	-0.196825
C42	C	1.166739	-0.797780	-0.251601
C43	C	1.260922	-0.797746	-0.157566
C44	C	1.245342	-0.715202	-0.173086
C45	C	1.151159	-0.715236	-0.267122
C46	C	1.327209	-0.380759	-0.283018
C47	C	1.409009	-0.380765	-0.283027
C48	C	1.135288	-0.380690	-0.474963
C49	C	1.135302	-0.380667	-0.556766
C50	C	1.096504	-0.174589	-0.321798
C51	C	1.079991	-0.086738	-0.338331
C52	C	1.172878	-0.330072	-0.754489
C53	C	1.172883	-0.330049	-0.831352
C54	C	1.097755	-0.431141	-0.812304
C55	C	1.097747	-0.431159	-0.735444
C56	C	1.135313	-0.380626	-0.706537
C57	C	1.135326	-0.380584	-0.860261
C58	C	1.135330	-0.380560	-0.943600
C59	C	1.135307	-0.380649	-0.623194
C60	C	1.135250	-0.380742	-0.091794
C61	C	1.135336	-0.380543	-0.010033
H62	H	0.722651	-0.472575	-0.350978
H63	H	1.067151	-0.472326	-0.696400
C64	C	1.179665	-1.090834	-0.238822
H65	H	1.183320	-1.145908	-0.235203
H66	H	1.166385	-1.077339	-0.191901
H67	H	1.226544	-1.077259	-0.252203
C68	C	1.214214	-0.274449	-0.884096
H69	H	1.208836	-0.281670	-0.934013
H70	H	1.265833	-0.286029	-0.869328
H71	H	1.193460	-0.221342	-0.881496
C72	C	0.574967	-0.487036	-0.361699
H73	H	0.614544	-0.517180	-0.384005
H74	H	0.539322	-0.456845	-0.399492
H75	H	0.551443	-0.521442	-0.327024
C76	C	0.534899	-0.274479	-0.204326
H77	H	0.484990	-0.281736	-0.209687
H78	H	0.537510	-0.221385	-0.225158
H79	H	0.549642	-0.285988	-0.152695
H80	H	1.277344	-0.681587	-0.141120
H81	H	0.688037	-0.288916	-0.215026
H82	H	1.059867	-0.730600	-0.358267
H83	H	1.203465	-0.288922	-0.730956
C84	C	1.056442	-0.486730	-0.844099
H85	H	1.034062	-0.516836	-0.804532
H86	H	1.091072	-0.521162	-0.867605
H87	H	1.018692	-0.456484	-0.879769
C88	C	1.090795	-0.669849	-0.327382
H89	H	1.087150	-0.614776	-0.331004
H90	H	1.043914	-0.683421	-0.314020
H91	H	1.104091	-0.683341	-0.374305
H92	H	1.210581	-1.030082	-0.207924
C93	C	0.972895	-0.793722	-0.445163
H94	H	0.951719	-0.830131	-0.466323
H95	H	0.994952	-0.761484	-0.483310
H96	H	0.934771	-0.761560	-0.423029
C97	C	0.949175	-0.917552	-0.468898
H98	H	0.927998	-0.953961	-0.490057
H99	H	0.971231	-0.885314	-0.507045
H100	H	0.911050	-0.885390	-0.446764
C101	C	0.981889	-1.090900	-0.436283
H102	H	0.999022	-1.145969	-0.419191
H103	H	0.990065	-1.077341	-0.488291
H104	H	0.929903	-1.077417	-0.427991
C105	C	1.297566	-0.966965	-0.121052
H106	H	1.301221	-1.022039	-0.117433
H107	H	1.284286	-0.953470	-0.074131
H108	H	1.344445	-0.953390	-0.134433
C109	C	1.321285	-0.843130	-0.097311
H110	H	1.324937	-0.898203	-0.093691
H111	H	1.308000	-0.829632	-0.050392
H112	H	1.368168	-0.829560	-0.110686
