data_functionalizedCrystal
_audit_creation_method	'MofGen! by Chris Wilmer'
_symmetry_space_group_name_H-M	'P1'
_symmetry_Int_Tables_number	1
_symmetry_cell_setting	triclinic
loop_
_symmetry_equiv_pos_as_xyz
  x,y,z
_cell_length_a	10.654550
_cell_length_b	14.853567
_cell_length_c	9.730223
_cell_angle_alpha	90.002458
_cell_angle_beta	89.996251
_cell_angle_gamma	84.059917
loop_
_atom_site_label
_atom_site_type_symbol
_atom_site_fract_x
_atom_site_fract_y
_atom_site_fract_z
O1	O	1.666519	0.126622	-0.114390
O2	O	1.300915	0.138686	-0.114367
O3	O	1.493482	0.001477	-0.114383
O4	O	1.473951	0.263832	-0.114374
O5	O	1.493480	0.001480	0.114197
O6	O	1.300912	0.138690	0.114213
O7	O	1.666516	0.126625	0.114190
Zn8	Zn	1.483714	0.132658	0.150493
Zn9	Zn	1.483717	0.132654	-0.150671
O10	O	1.473949	0.263835	0.114206
C11	C	1.254125	0.137802	-0.000074
C12	C	1.114709	0.135152	-0.000066
C13	C	1.034384	0.215939	-0.000083
C14	C	0.903389	0.213443	-0.000107
C15	C	0.933057	0.049367	-0.000102
C16	C	1.064050	0.051863	-0.000068
C17	C	1.017254	0.310667	-0.000091
C18	C	0.886260	0.308171	-0.000115
C19	C	1.492596	-0.032115	-0.000097
C20	C	1.489944	-0.132213	-0.000109
C21	C	1.364344	-0.545419	-0.000075
C22	C	1.593119	-0.565475	-0.000090
C23	C	1.595613	-0.471428	-0.000098
C24	C	1.482470	-0.414372	-0.000093
C25	C	1.366834	-0.451363	-0.000079
C26	C	1.711247	-0.434430	-0.000097
C27	C	1.713745	-0.340378	-0.000104
C28	C	1.600601	-0.283320	-0.000109
C29	C	1.484961	-0.320316	-0.000097
C30	C	1.371818	-0.263260	-0.000091
C31	C	1.256176	-0.300254	-0.000089
C32	C	1.253691	-0.394305	-0.000084
C33	C	1.603087	-0.189269	-0.000114
C34	C	1.374308	-0.169204	-0.000096
C35	C	1.713306	0.127510	-0.000106
C36	C	1.852722	0.130160	-0.000123
C37	C	1.474835	0.297427	-0.000083
C38	C	1.477487	0.397525	-0.000080
N39	N	1.483721	0.132661	0.356030
N40	N	1.483720	0.132644	-0.356207
C41	C	1.569012	0.071925	0.427949
C42	C	1.569009	0.071914	0.571832
C43	C	1.398420	0.193382	0.571864
C44	C	1.398418	0.193388	0.427984
C45	C	1.667504	0.001799	0.427931
C46	C	1.667501	0.001788	0.571814
H47	H	1.052598	0.340828	-0.098778
C48	C	1.056065	0.359922	0.127515
C49	C	1.139597	0.301592	0.205584
C50	C	1.175389	0.346935	0.323131
H51	H	0.983381	0.378817	0.180804
H52	H	1.096390	0.411350	0.101001
H53	H	1.099271	0.250180	0.232099
H54	H	1.212300	0.282694	0.152336
H55	H	1.215714	0.398363	0.296618
H56	H	1.102698	0.365828	0.376408
H57	H	1.232078	0.307367	0.376109
C58	C	0.825153	0.346237	0.131629
C59	C	0.875123	0.295449	0.243778
C60	C	0.818878	0.330491	0.365165
H61	H	0.736625	0.343203	0.127285
H62	H	0.841653	0.407495	0.142253
H63	H	0.858614	0.234207	0.233156
H64	H	0.963645	0.298478	0.248167
H65	H	0.835378	0.391749	0.375789
H66	H	0.730353	0.327455	0.360806
H67	H	0.852783	0.296042	0.441273
H68	H	1.646781	-0.067496	0.388876
H69	H	1.697240	-0.159152	-0.000107
H70	H	0.891794	-0.018444	-0.000125
C71	C	0.830355	0.355756	-0.127785
C72	C	0.927117	0.387357	-0.205855
C73	C	0.875668	0.431187	-0.323474
H74	H	0.771864	0.405370	-0.101395
H75	H	0.788323	0.314428	-0.181020
H76	H	0.969129	0.428683	-0.152630
H77	H	0.985616	0.337762	-0.232281
H78	H	0.833636	0.389859	-0.376709
H79	H	0.817177	0.480796	-0.297071
H80	H	0.941314	0.452626	-0.376465
H81	H	1.637668	-0.063695	0.616429
C82	C	1.788765	0.030953	0.368188
C83	C	1.847682	-0.039029	0.287203
C84	C	1.959365	-0.012184	0.232117
H85	H	1.843634	0.044156	0.440735
H86	H	1.769682	0.083430	0.313182
H87	H	1.866769	-0.091490	0.342206
H88	H	1.792849	-0.052241	0.214634
H89	H	1.940283	0.040292	0.177111
H90	H	2.014224	0.001019	0.304673
H91	H	1.999349	-0.059659	0.177153
C92	C	1.796088	0.022251	0.623705
C93	C	1.888708	-0.043975	0.575512
C94	C	2.007172	-0.025149	0.623273
H95	H	1.796267	0.022220	0.721328
H96	H	1.813450	0.079977	0.591148
H97	H	1.871350	-0.101685	0.608077
H98	H	1.888569	-0.043954	0.477895
H99	H	2.024534	0.032576	0.590716
H100	H	2.007338	-0.025180	0.720895
H101	H	2.070030	-0.070075	0.590571
H102	H	1.129447	-0.013921	-0.000035
H103	H	1.282173	-0.122754	-0.000097
H104	H	1.164056	-0.253787	-0.000075
H105	H	1.270191	-0.575545	-0.000079
C106	C	1.128054	-0.434346	0.000142
C107	C	1.059634	-0.405390	0.117725
C108	C	0.943886	-0.442249	0.117972
H109	H	1.142595	-0.498528	0.000219
H110	H	1.081395	-0.414792	-0.079527
H111	H	1.106283	-0.424948	0.197373
H112	H	1.045059	-0.341212	0.117672
H113	H	0.897227	-0.422696	0.038304
H114	H	0.958440	-0.506431	0.118047
H115	H	0.897444	-0.422601	0.197744
C116	C	1.839331	-0.300268	-0.000403
C117	C	1.907718	-0.329191	-0.118023
C118	C	2.023407	-0.292251	-0.118360
H119	H	1.886076	-0.319771	0.079212
H120	H	1.824669	-0.236080	-0.000484
H121	H	1.922384	-0.393366	-0.117929
H122	H	1.861012	-0.309689	-0.197657
H123	H	2.008744	-0.228062	-0.118441
H124	H	2.070140	-0.311756	-0.038740
H125	H	2.069816	-0.311863	-0.198169
C126	C	1.305753	0.259170	0.650168
C127	C	1.228825	0.210623	0.732788
C128	C	1.143456	0.271198	0.804951
H129	H	1.254833	0.295370	0.586885
H130	H	1.350953	0.296986	0.706382
H131	H	1.183628	0.172823	0.676578
H132	H	1.279709	0.174427	0.796096
H133	H	1.188656	0.309014	0.861166
H134	H	1.092545	0.307394	0.741658
H135	H	1.091258	0.238268	0.861027
H136	H	1.685234	-0.611936	-0.000083
H137	H	1.803361	-0.480892	-0.000089
H138	H	1.328957	0.242836	0.369429
