data_functionalizedCrystal
_audit_creation_method	'MofGen! by Chris Wilmer'
_symmetry_space_group_name_H-M	'P1'
_symmetry_Int_Tables_number	1
_symmetry_cell_setting	triclinic
loop_
_symmetry_equiv_pos_as_xyz
  x,y,z
_cell_length_a	19.188930
_cell_length_b	19.288865
_cell_length_c	18.366186
_cell_angle_alpha	90.011479
_cell_angle_beta	90.022928
_cell_angle_gamma	83.140512
loop_
_atom_site_label
_atom_site_type_symbol
_atom_site_fract_x
_atom_site_fract_y
_atom_site_fract_z
O1	O	-0.926143	-0.086718	-0.060792
O2	O	-0.722831	-0.098391	-0.060743
O3	O	-0.830361	0.008575	-0.060755
O4	O	-0.818612	-0.193684	-0.060781
O5	O	-0.830343	0.008581	0.060345
O6	O	-0.722812	-0.098386	0.060356
O7	O	-0.926125	-0.086713	0.060307
Zn8	Zn	-0.824466	-0.092548	0.079559
Zn9	Zn	-0.824490	-0.092555	-0.079995
O10	O	-0.818594	-0.193679	0.060319
C11	C	-0.696811	-0.098011	-0.000187
C12	C	-0.619306	-0.096876	-0.000168
C13	C	-0.829974	0.034454	-0.000203
C14	C	-0.828839	0.111558	-0.000196
C15	C	-0.952145	-0.087093	-0.000250
C16	C	-1.029649	-0.088228	-0.000274
C17	C	-0.574377	-0.159640	-0.000187
C18	C	-0.501554	-0.158574	-0.000195
C19	C	-0.473662	-0.094740	-0.000198
C20	C	-0.518600	-0.031967	-0.000175
C21	C	-0.591423	-0.033035	-0.000159
N22	N	-0.365692	-0.045949	-0.041437
N23	N	-0.296513	-0.044938	-0.041453
C24	C	-0.254254	-0.091519	-0.000242
N25	N	-0.283784	-0.139158	0.040975
N26	N	-0.352969	-0.140170	0.040988
C27	C	-0.394700	-0.093575	-0.000214
C28	C	-0.130361	-0.153132	-0.000269
C29	C	-0.057536	-0.152063	-0.000273
C30	C	-0.074584	-0.025454	-0.000259
C31	C	-0.147407	-0.026525	-0.000249
C32	C	-0.175291	-0.090365	-0.000257
C33	C	-0.818981	-0.219558	-0.000235
C34	C	-0.820116	-0.296662	-0.000246
N35	N	-0.824454	-0.092543	0.188450
C36	C	-0.891934	0.156250	-0.000208
C37	C	-0.890867	0.228697	-0.000219
C38	C	-0.826703	0.256449	-0.000204
C39	C	-0.763601	0.211748	-0.000196
C40	C	-0.764669	0.139302	-0.000192
C41	C	-0.776257	0.364742	0.042227
C42	C	-0.775191	0.437187	0.042227
C43	C	-0.823407	0.479895	-0.000219
C44	C	-0.872699	0.450151	-0.042657
C45	C	-0.873767	0.377706	-0.042653
C46	C	-0.825538	0.335003	-0.000209
C47	C	-0.885349	0.603143	-0.000244
C48	C	-0.884280	0.675591	-0.000260
C49	C	-0.757012	0.658640	-0.000230
C50	C	-0.758083	0.586194	-0.000222
C51	C	-0.822253	0.558449	-0.000225
N52	N	-0.824506	-0.092555	-0.188886
C53	C	-0.872084	-0.045202	0.226545
C54	C	-0.872089	-0.045199	0.302773
C55	C	-0.824470	-0.092549	0.340903
C56	C	-0.776831	-0.139894	0.302798
C57	C	-0.776823	-0.139891	0.226572
C58	C	-0.815123	-0.155836	0.461656
C59	C	-0.815136	-0.155840	0.537881
C60	C	-0.824490	-0.092558	0.576010
C61	C	-0.833846	-0.029269	0.537905
C62	C	-0.833838	-0.029266	0.461679
C63	C	-0.824473	-0.092557	0.423558
C64	C	-0.872127	-0.045209	0.696761
C65	C	-0.872127	-0.045205	0.772990
C66	C	-0.776872	-0.139907	0.773013
C67	C	-0.776869	-0.139905	0.696786
C68	C	-0.824500	-0.092556	0.658664
H69	H	-0.597075	-0.211624	-0.000196
F70	F	-0.160039	-0.221075	-0.000273
F71	F	-0.843806	0.038086	0.578478
F72	F	-0.926224	0.346053	-0.087820
F73	F	-0.009719	-0.218869	-0.000290
F74	F	-0.953644	0.573613	-0.000244
H75	H	-0.051876	0.026521	-0.000307
H76	H	-0.910867	-0.006647	0.195509
H77	H	-0.495886	0.020007	-0.000187
F78	F	-0.922818	0.005186	0.656188
F79	F	-0.726149	-0.190286	0.343379
F80	F	-0.951438	0.723156	-0.000277
F81	F	-0.922820	0.005189	0.813535
H82	H	-0.706704	0.549804	-0.000208
H83	H	-0.464966	-0.209686	-0.000209
F84	F	-0.695313	0.241285	-0.000185
H85	H	-0.628004	0.018077	-0.000144
F86	F	-0.195226	0.040279	-0.000232
F87	F	-0.805218	-0.223196	0.421084
F88	F	-0.960230	0.126727	-0.000227
F89	F	-0.924018	0.495599	-0.087836
H90	H	-0.738036	-0.178443	0.195554
F91	F	-0.958024	0.276270	-0.000232
H92	H	-0.704768	0.681235	-0.000222
H93	H	-0.735051	0.461398	0.076778
H94	H	-0.738097	-0.178458	0.804058
H95	H	-0.738087	-0.178457	0.665766
F96	F	-0.724936	0.319295	0.087409
F97	F	-0.805183	-0.223197	0.578429
F98	F	-0.697512	0.091736	-0.000180
H99	H	-0.910876	-0.006646	0.333796
F100	F	-0.843789	0.038088	0.421127
