data_functionalizedCrystal
_audit_creation_method	'MofGen! by Chris Wilmer'
_symmetry_space_group_name_H-M	'P1'
_symmetry_Int_Tables_number	1
_symmetry_cell_setting	triclinic
loop_
_symmetry_equiv_pos_as_xyz
  x,y,z
_cell_length_a	15.944545
_cell_length_b	15.944493
_cell_length_c	9.016244
_cell_angle_alpha	90.003635
_cell_angle_beta	89.995445
_cell_angle_gamma	83.485608
loop_
_atom_site_label
_atom_site_type_symbol
_atom_site_fract_x
_atom_site_fract_y
_atom_site_fract_z
O1	O	1.114509	0.108306	-0.123225
O2	O	0.869956	0.121668	-0.123246
O3	O	0.998936	-0.007291	-0.123247
O4	O	0.985529	0.237266	-0.123224
O5	O	0.998917	-0.007288	0.123434
O6	O	0.869937	0.121671	0.123434
O7	O	1.114490	0.108309	0.123456
Cu8	Cu	0.992212	0.114991	0.145969
Cu9	Cu	0.992234	0.114987	-0.145759
O10	O	0.985510	0.237269	0.123457
C11	C	0.838652	0.121116	0.000091
C12	C	0.745406	0.119456	0.000082
C13	C	0.474791	0.034560	0.000089
C14	C	0.525355	0.075491	0.121723
C15	C	0.409764	0.113535	0.000107
C16	C	0.525354	0.075510	-0.121485
C17	C	0.574677	0.116440	0.000092
C18	C	0.459099	0.154445	0.121841
C19	C	0.459095	0.154452	-0.121476
C20	C	0.509626	0.195442	0.000188
C21	C	0.314762	0.111860	0.000116
C22	C	0.669676	0.118122	0.000093
C23	C	0.998378	-0.038584	0.000087
C24	C	0.996735	-0.131833	0.000068
C25	C	1.072656	-0.367594	0.000103
C26	C	1.031724	-0.418163	-0.121527
C27	C	0.993691	-0.302554	0.000086
C28	C	1.031687	-0.418136	0.121681
C29	C	0.990757	-0.467463	0.000109
C30	C	0.952781	-0.351894	-0.121644
C31	C	0.952755	-0.351864	0.121673
C32	C	0.911766	-0.402400	0.000014
C33	C	0.995384	-0.207554	0.000071
C34	C	0.989058	-0.562460	0.000114
C35	C	1.145793	0.108862	0.000116
C36	C	1.239039	0.110522	0.000115
C37	C	0.986067	0.268562	0.000120
C38	C	0.987710	0.361811	0.000129
N39	N	0.992202	0.114993	0.351155
N40	N	0.992250	0.114979	-0.350946
C41	C	0.922998	0.183750	0.586188
C42	C	0.923148	0.184004	0.414297
C43	C	1.079845	0.134140	0.413504
C44	C	1.079466	0.134626	0.585449
C45	C	0.974637	0.026857	0.585688
C46	C	0.972617	0.027447	0.413734
H47	H	1.065080	-0.447111	-0.224351
H48	H	1.025139	-0.024320	0.626340
H49	H	0.554286	0.042142	-0.224310
H50	H	0.430150	0.187775	-0.224305
C51	C	0.453654	-0.057315	0.000238
H52	H	0.476459	-0.085250	0.086764
H53	H	0.477329	-0.085641	-0.085290
H54	H	0.394123	-0.057731	-0.000635
C55	C	1.164537	-0.346476	-0.000050
H56	H	1.192475	-0.369296	-0.086576
H57	H	1.192851	-0.370148	0.085479
H58	H	1.164966	-0.286946	0.000820
C59	C	1.036319	-0.044932	0.355683
H60	H	1.022963	-0.097022	0.395246
H61	H	1.091677	-0.035714	0.385487
H62	H	1.033609	-0.046720	0.250490
H63	H	0.919428	-0.322901	0.224501
C64	C	0.564444	0.030443	0.260629
H65	H	0.592172	0.069041	0.317900
H66	H	0.604091	-0.015584	0.231395
H67	H	0.521171	0.010091	0.318302
H68	H	0.919460	-0.323075	-0.224582
C69	C	0.819813	-0.423300	-0.000081
H70	H	0.791902	-0.400397	-0.086559
H71	H	0.791564	-0.399593	0.085496
H72	H	0.819247	-0.482813	0.000729
C73	C	0.885527	0.007807	0.358689
H74	H	0.874041	-0.045227	0.396921
H75	H	0.885430	0.005923	0.253384
H76	H	0.843376	0.050606	0.391823
C77	C	1.076741	-0.457210	0.260593
H78	H	1.133864	-0.445548	0.260436
H79	H	1.074912	-0.516551	0.260084
H80	H	1.049251	-0.433618	0.346961
C81	C	0.835139	0.168608	0.357346
H82	H	0.798971	0.162145	0.439297
H83	H	0.839753	0.118838	0.298603
H84	H	0.812386	0.215360	0.299025
C85	C	0.420172	0.199469	0.260913
H86	H	0.463576	0.219333	0.318920
H87	H	0.392030	0.161017	0.317763
H88	H	0.380901	0.245844	0.231846
C89	C	0.530545	0.287389	0.000290
H90	H	0.507638	0.315310	0.086769
H91	H	0.506852	0.315635	-0.085287
H92	H	0.590060	0.287942	-0.000516
H93	H	0.857646	0.172527	0.627574
C94	C	0.937979	0.271596	0.644533
H95	H	0.986256	0.266543	0.707034
H96	H	0.890029	0.294979	0.699274
H97	H	0.946913	0.307456	0.563275
C98	C	0.890170	0.001994	0.644311
H99	H	0.880750	-0.051363	0.604745
H100	H	0.845593	0.043256	0.614881
H101	H	0.892061	-0.001258	0.749487
H102	H	0.934389	0.249399	0.373158
C103	C	1.100424	0.221445	0.639625
H104	H	1.109084	0.256088	0.556549
H105	H	1.150213	0.214370	0.698277
H106	H	1.054887	0.247450	0.697449
H107	H	1.132602	0.085385	0.372600
C108	C	1.151165	0.069534	0.641633
H109	H	1.180400	0.042917	0.559367
H110	H	1.128080	0.028255	0.700185
H111	H	1.189260	0.097284	0.699985
H112	H	1.095733	0.197676	0.370434
