data_functionalizedCrystal
_audit_creation_method	'MofGen! by Chris Wilmer'
_symmetry_space_group_name_H-M	'P1'
_symmetry_Int_Tables_number	1
_symmetry_cell_setting	triclinic
loop_
_symmetry_equiv_pos_as_xyz
  x,y,z
_cell_length_a	31.640172
_cell_length_b	27.440280
_cell_length_c	27.440280
_cell_angle_alpha	59.991197
_cell_angle_beta	59.998923
_cell_angle_gamma	90.008130
loop_
_atom_site_label
_atom_site_type_symbol
_atom_site_fract_x
_atom_site_fract_y
_atom_site_fract_z
Zr1	Zr	0.407157	-0.063980	0.533428
O2	O	0.339655	-0.141825	0.635126
O3	O	0.427853	-0.040105	0.431744
O4	O	0.427838	-0.141796	0.533434
O5	O	0.339679	0.040068	0.533426
O6	O	0.497395	-0.141785	0.533424
O7	O	0.339670	-0.040134	0.533435
O8	O	0.497421	0.040122	0.351518
O9	O	0.339653	-0.141838	0.715332
O10	O	0.488586	-0.029928	0.473556
O11	O	0.436683	0.029919	0.473556
O12	O	0.436665	-0.089809	0.593284
O13	O	0.384762	-0.029963	0.593284
Zr14	Zr	0.518107	0.063952	0.533397
Zr15	Zr	0.518093	-0.063963	0.533412
Zr16	Zr	0.407172	0.063934	0.533413
Zr17	Zr	0.407153	-0.064000	0.661348
Zr18	Zr	0.518111	0.063972	0.405478
O19	O	0.497412	0.040076	0.635082
O20	O	0.497391	-0.141801	0.635103
O21	O	0.339676	0.040052	0.635105
O22	O	0.585609	0.141797	0.431699
O23	O	0.585588	-0.040080	0.431721
O24	O	0.427873	0.141773	0.431722
O25	O	0.585585	-0.040097	0.533400
O26	O	0.497427	0.141767	0.533391
O27	O	0.427870	0.141757	0.533401
O28	O	0.585594	0.040106	0.533390
O29	O	0.427832	-0.141825	0.715319
O30	O	0.497433	0.141796	0.351506
O31	O	0.585612	0.141810	0.351493
O32	O	0.585600	0.040135	0.351505
O33	O	0.339664	-0.040163	0.715320
O34	O	0.427843	-0.040150	0.715307
O35	O	0.488599	0.089781	0.473542
O36	O	0.540502	0.029935	0.473541
O37	O	0.488582	-0.029947	0.593269
O38	O	0.436679	0.029900	0.593270
C39	C	0.323869	-0.000035	0.533433
C40	C	0.276774	-0.000043	0.533440
C41	C	0.462637	0.000011	0.373405
C42	C	0.462639	0.000020	0.319100
C43	C	0.462650	0.159987	0.533394
C44	C	0.462656	0.214290	0.533388
C45	C	0.011870	0.031256	0.470909
C46	C	-0.165115	0.031267	0.470897
O47	O	-0.164952	0.057872	0.417746
N48	N	-0.214347	0.000009	0.533394
C49	C	-0.219331	-0.031251	0.595898
O50	O	-0.265267	-0.057833	0.649054
C51	C	-0.042347	-0.031259	0.595909
C52	C	0.006884	-0.000004	0.533408
C53	C	0.061099	0.062509	0.408414
C54	C	0.105342	0.062503	0.408417
C55	C	0.100356	0.031244	0.470917
C56	C	0.051128	-0.000010	0.533412
C57	C	-0.047332	-0.062516	0.658412
C58	C	-0.003081	-0.062514	0.658409
C59	C	0.046151	-0.031258	0.595909
C60	C	0.090385	-0.031275	0.595915
N61	N	0.139617	-0.000017	0.533418
C62	C	0.144602	0.031243	0.470919
C63	C	-0.312249	-0.031246	0.595887
C64	C	-0.356495	-0.031245	0.595885
C65	C	-0.302276	0.031275	0.470884
C66	C	-0.258029	0.031270	0.470887
C67	C	-0.263017	0.000012	0.533391
C68	C	0.237515	0.031227	0.470931
C69	C	0.281759	0.031217	0.470941
C70	C	0.227536	-0.031300	0.595941
C71	C	0.183295	-0.031292	0.595932
C72	C	0.188288	-0.000024	0.533422
O73	O	0.090261	-0.057861	0.649038
O74	O	0.190542	0.057831	0.417770
C75	C	-0.032374	0.031261	0.470906
C76	C	-0.081602	0.000008	0.533401
C77	C	-0.086588	-0.031251	0.595900
C78	C	-0.125849	0.000009	0.533398
C79	C	-0.120863	0.031268	0.470899
C80	C	-0.071631	0.062527	0.408403
C81	C	-0.027388	0.062521	0.408407
C82	C	-0.135820	-0.062510	0.658397
C83	C	-0.180061	-0.062502	0.658388
C84	C	-0.175075	-0.031242	0.595889
C85	C	0.601396	0.000007	0.533393
C86	C	0.648491	0.000014	0.533386
C87	C	0.462614	-0.160015	0.533431
C88	C	0.462608	-0.214318	0.533438
C89	C	0.435516	0.519730	0.595921
C90	C	0.435511	0.570749	0.595925
O91	O	0.412446	0.570553	0.649076
N92	N	0.462613	0.627523	0.533429
C93	C	0.489718	0.633278	0.470924
O94	O	0.512770	0.686254	0.417767
C95	C	0.489719	0.582260	0.470921
C96	C	0.462620	0.525486	0.533422
C97	C	0.408418	0.462959	0.658416
C98	C	0.408424	0.411944	0.658412
C99	C	0.435527	0.417701	0.595913
C100	C	0.462625	0.474472	0.533418
C101	C	0.516821	0.588016	0.408418
C102	C	0.516819	0.536992	0.408420
C103	C	0.489720	0.480218	0.470921
C104	C	0.489735	0.429213	0.470914
N105	N	0.462632	0.372439	0.533410
C106	C	0.435529	0.366683	0.595910
C107	C	0.489712	0.740417	0.470936
C108	C	0.489714	0.791434	0.470938
C109	C	0.435506	0.728901	0.595939
C110	C	0.435508	0.677883	0.595936
C111	C	0.462610	0.683642	0.533432
C112	C	0.435543	0.259550	0.595896
C113	C	0.435553	0.208534	0.595887
C114	C	0.489758	0.271071	0.470887
C115	C	0.489751	0.322083	0.470896
C116	C	0.462639	0.316319	0.533406
O117	O	0.512786	0.429363	0.417790
O118	O	0.412475	0.313705	0.649058
C119	C	0.424305	-0.044229	0.026612
C120	C	0.424305	-0.044235	-0.024405
O121	O	0.391721	-0.081837	-0.013203
N122	N	0.462630	-0.000037	-0.094119
C123	C	0.500962	0.044165	-0.112817
O124	O	0.533561	0.081758	-0.176800
C125	C	0.500964	0.044169	-0.061801
C126	C	0.462633	-0.000028	0.007914
C127	C	0.385978	-0.088422	0.096324
C128	C	0.385978	-0.088415	0.147337
C129	C	0.424305	-0.044215	0.128639
C130	C	0.462633	-0.000021	0.058928
C131	C	0.539297	0.088369	-0.080499
C132	C	0.539296	0.088368	-0.029475
C133	C	0.500965	0.044171	0.040240
C134	C	0.500960	0.044187	0.091243
N135	N	0.462635	-0.000011	0.160958
C136	C	0.424307	-0.044211	0.179656
C137	C	0.500955	0.044155	-0.219952
C138	C	0.500951	0.044154	-0.270969
C139	C	0.424295	-0.044247	-0.182552
C140	C	0.424297	-0.044244	-0.131536
C141	C	0.462630	-0.000043	-0.150238
C142	C	0.424310	-0.044193	0.286784
C143	C	0.424312	-0.044180	0.337798
C144	C	0.500969	0.044219	0.249378
C145	C	0.500966	0.044208	0.198368
C146	C	0.462634	-0.000003	0.217076
O147	O	0.533529	0.081768	0.080093
O148	O	0.391718	-0.081802	0.243638
C149	C	0.462627	-0.000040	0.693420
C150	C	0.462625	-0.000048	0.747725
C151	C	0.601401	0.000033	0.373385
C152	C	0.648498	0.000049	0.319073
C153	C	0.462656	0.160013	0.373386
C154	C	0.462663	0.214324	0.319075
C155	C	0.601419	0.160034	0.373366
C156	C	0.648522	0.214353	0.319048
C157	C	0.323846	-0.160062	0.693459
C158	C	0.276743	-0.214381	0.747777
C159	C	0.323864	-0.000061	0.693440
C160	C	0.276767	-0.000077	0.747752
C161	C	0.462609	-0.160041	0.693439
C162	C	0.462601	-0.214352	0.747750
C163	C	0.643515	-0.031197	0.293575
C164	C	0.687763	-0.031194	0.242550
C165	C	0.736993	0.000059	0.217021
C166	C	0.741975	0.031305	0.242524
C167	C	0.697727	0.031298	0.293551
C168	C	0.489767	0.271082	0.293562
C169	C	0.489772	0.322119	0.242538
C170	C	0.462677	0.316396	0.217024
C171	C	0.435570	0.259631	0.242542
C172	C	0.435562	0.208596	0.293569
C173	C	0.697739	0.208622	0.293539
C174	C	0.742002	0.259656	0.242508
C175	C	0.737046	0.316419	0.216984
C176	C	0.687823	0.322148	0.242498
C177	C	0.643562	0.271116	0.293531
C178	C	0.227525	-0.208650	0.773292
C179	C	0.183263	-0.259684	0.824339
C180	C	0.188219	-0.316447	0.849866
C181	C	0.237442	-0.322177	0.824349
C182	C	0.281703	-0.271144	0.773307
C183	C	0.281750	0.031163	0.773256
C184	C	0.237501	0.031146	0.824294
C185	C	0.188271	-0.000108	0.849826
C186	C	0.183289	-0.031352	0.824320
C187	C	0.227537	-0.031338	0.773286
C188	C	0.489702	-0.208610	0.773248
C189	C	0.489704	-0.259637	0.824273
C190	C	0.462603	-0.316405	0.849802
C191	C	0.435502	-0.322146	0.824299
C192	C	0.435502	-0.271120	0.773272
H193	H	0.321846	0.056671	0.420043
C194	C	0.335897	0.065546	0.745180
H195	H	0.332520	0.084142	0.767689
H196	H	0.354290	0.095125	0.697002
H197	H	0.354283	0.038577	0.753545
C198	C	0.519571	0.277386	0.321623
H199	H	0.515692	0.238866	0.355664
H200	H	0.506188	0.298578	0.341531
H201	H	0.555226	0.298601	0.284981
H202	H	-0.139887	-0.087966	0.709292
H203	H	0.511848	0.368334	0.221767
C204	C	0.382148	-0.092801	0.414484
H205	H	0.359326	-0.119129	0.418309
H206	H	0.363220	-0.074654	0.436222
H207	H	0.397890	-0.114624	0.436226
H208	H	0.532159	0.080149	-0.327731
C209	C	0.546629	0.543331	0.339664
H210	H	0.562767	0.584451	0.302447
H211	H	0.523239	0.524720	0.337073
H212	H	0.572278	0.524740	0.337052
H213	H	0.701784	0.162407	0.314314
H214	H	0.538889	0.634236	0.357523
C215	C	0.581460	0.136990	-0.050048
H216	H	0.575976	0.130665	-0.009683
H217	H	0.579878	0.175135	-0.076580
H218	H	0.614541	0.135158	-0.076566
C219	C	0.796141	0.253346	0.214430
H220	H	0.821795	0.291866	0.180382
H221	H	0.800005	0.232153	0.194526
H222	H	0.800024	0.232132	0.251060
H223	H	0.570510	0.124358	-0.137257
C224	C	0.243012	0.065618	0.402172
H225	H	0.278671	0.084223	0.364958
H226	H	0.226888	0.095189	0.399560
H227	H	0.226874	0.038648	0.399575
H228	H	0.773019	0.000060	0.175471
C229	C	0.785734	0.372552	0.160850
H230	H	0.775737	0.407182	0.149302
H231	H	0.805756	0.372561	0.121039
H232	H	0.805745	0.372545	0.177586
H233	H	0.532173	0.080202	0.141601
C234	C	0.129136	-0.065724	0.852402
H235	H	0.132500	-0.084333	0.829910
H236	H	0.110756	-0.038751	0.844039
H237	H	0.110744	-0.095302	0.900584
H238	H	0.683795	0.368372	0.221708
C239	C	0.462693	0.372538	0.160891
H240	H	0.482722	0.407159	0.149349
H241	H	0.428173	0.372541	0.177614
H242	H	0.477209	0.372555	0.121071
H243	H	0.145425	0.087952	0.357523
H244	H	0.223473	-0.056776	0.752523
C245	C	0.129125	-0.253371	0.852392
H246	H	0.132516	-0.212255	0.829867
H247	H	0.110729	-0.271976	0.900568
H248	H	0.110733	-0.271979	0.844034
C249	C	0.405740	0.146083	0.664638
H250	H	0.409626	0.116520	0.655689
H251	H	0.370089	0.141592	0.690320
H252	H	0.419121	0.141607	0.690314
C253	C	0.543129	0.092832	0.228820
H254	H	0.537640	0.086498	0.269191
H255	H	0.541552	0.130982	0.202289
H256	H	0.576209	0.090998	0.202305
C257	C	0.589425	0.277426	0.321577
H258	H	0.592818	0.318543	0.299058
H259	H	0.571023	0.258814	0.369756
H260	H	0.571039	0.258827	0.313206
H261	H	0.413510	0.254980	0.221761
C262	C	0.405750	0.146166	0.321623
H263	H	0.389620	0.150072	0.299112
H264	H	0.380103	0.124942	0.369802
H265	H	0.429140	0.124970	0.313247
C266	C	-0.317743	-0.065638	0.664646
H267	H	-0.353402	-0.084256	0.701860
H268	H	-0.301608	-0.038677	0.667252
H269	H	-0.301617	-0.095209	0.667248
C270	C	0.222063	-0.146217	0.745229
H271	H	0.186409	-0.150122	0.767748
H272	H	0.238198	-0.124999	0.697052
H273	H	0.238204	-0.125018	0.753592
C274	C	0.139529	-0.372578	0.906002
H275	H	0.109508	-0.361030	0.917531
H276	H	0.139512	-0.395674	0.945822
H277	H	0.139522	-0.395653	0.889272
C278	C	0.242887	-0.384618	0.852428
H279	H	0.209475	-0.414186	0.886474
H280	H	0.261271	-0.389105	0.872334
H281	H	0.261266	-0.389088	0.815794
H282	H	0.354767	-0.124419	0.111561
H283	H	0.321777	-0.275817	0.752533
H284	H	0.241568	0.056591	0.845052
H285	H	0.413431	-0.275804	0.752518
C286	C	0.543117	0.092786	-0.240532
H287	H	0.565936	0.119108	-0.289359
H288	H	0.562048	0.074647	-0.222470
H289	H	0.527375	0.114613	-0.222473
C290	C	-0.410646	-0.065630	0.664633
H291	H	-0.436287	-0.061159	0.655687
H292	H	-0.414524	-0.050206	0.690308
H293	H	-0.414535	-0.106743	0.690315
C294	C	0.589367	-0.065581	0.321652
H295	H	0.592745	-0.084192	0.299159
H296	H	0.570979	-0.038618	0.313288
H297	H	0.570977	-0.095158	0.369834
H298	H	-0.087411	-0.087967	0.709307
H299	H	0.152246	-0.000114	0.891381
H300	H	0.511771	-0.162391	0.752470
H301	H	0.511773	-0.254951	0.845032
H302	H	0.462607	-0.357949	0.891352
H303	H	-0.007148	-0.087960	0.709308
C304	C	0.066592	0.096893	0.339659
H305	H	0.102251	0.115500	0.302446
H306	H	0.050467	0.126464	0.337044
H307	H	0.050457	0.069921	0.337062
H308	H	0.143208	-0.056751	0.646825
C309	C	0.405688	-0.384593	0.852392
H310	H	0.409567	-0.414155	0.886439
H311	H	0.419061	-0.389073	0.815771
H312	H	0.370034	-0.389079	0.872315
H313	H	0.413465	0.254848	0.646798
C314	C	-0.203879	0.065658	0.402138
H315	H	-0.207252	0.084276	0.364919
H316	H	-0.185492	0.038695	0.399537
H317	H	-0.185490	0.095229	0.399537
H318	H	0.782064	0.056749	0.221730
C319	C	-0.296795	0.065663	0.402135
H320	H	-0.261139	0.084280	0.364910
H321	H	-0.312927	0.095226	0.399541
H322	H	-0.312933	0.038693	0.399538
C323	C	0.222060	-0.065713	0.664684
H324	H	0.255464	-0.061242	0.655730
H325	H	0.203667	-0.106820	0.690345
H326	H	0.203678	-0.050306	0.690385
H327	H	-0.067579	0.087976	0.357514
C328	C	-0.234212	-0.096884	0.727143
H329	H	-0.230839	-0.115495	0.764362
H330	H	-0.252613	-0.126451	0.729754
H331	H	-0.252588	-0.069907	0.729734
C332	C	0.682274	-0.065559	0.214499
H333	H	0.646616	-0.084161	0.237005
H334	H	0.698398	-0.095132	0.222866
H335	H	0.698415	-0.038577	0.166318
H336	H	0.012695	0.087973	0.357512
C337	C	0.378607	0.349499	0.727163
H338	H	0.362462	0.353387	0.764380
H339	H	0.401990	0.328297	0.729766
H340	H	0.352962	0.328294	0.729763
H341	H	0.386344	0.458262	0.709313
H342	H	0.413440	0.631658	0.646829
H343	H	0.413435	0.724222	0.646829
C344	C	0.519532	0.746758	0.402177
H345	H	0.535674	0.787879	0.364962
H346	H	0.496148	0.728153	0.399575
H347	H	0.545179	0.728165	0.399572
C348	C	0.519516	0.853881	0.402190
H349	H	0.515634	0.883445	0.411136
H350	H	0.506130	0.858344	0.376525
H351	H	0.555172	0.858381	0.376497
H352	H	0.393097	-0.080195	0.302027
C353	C	0.519562	0.384534	0.402148
H354	H	0.535702	0.380653	0.364926
H355	H	0.545200	0.405750	0.399544
H356	H	0.496165	0.405722	0.399557
H357	H	0.511827	0.275748	0.420001
H358	H	0.393082	-0.080229	-0.074773
C359	C	0.343819	-0.137039	0.224018
H360	H	0.321000	-0.163364	0.227837
H361	H	0.324888	-0.118899	0.245765
H362	H	0.359564	-0.158862	0.245756
C363	C	0.382137	-0.092869	-0.161991
H364	H	0.387632	-0.086541	-0.202362
H365	H	0.349055	-0.091048	-0.135470
H366	H	0.383725	-0.131017	-0.135466
H367	H	0.701792	0.056745	0.314305
