data_functionalizedCrystal
_audit_creation_method	'MofGen! by Chris Wilmer'
_symmetry_space_group_name_H-M	'P1'
_symmetry_Int_Tables_number	1
_symmetry_cell_setting	triclinic
loop_
_symmetry_equiv_pos_as_xyz
  x,y,z
_cell_length_a	27.440280
_cell_length_b	21.606444
_cell_length_c	27.440280
_cell_angle_alpha	60.008075
_cell_angle_beta	90.008003
_cell_angle_gamma	59.997270
loop_
_atom_site_label
_atom_site_type_symbol
_atom_site_fract_x
_atom_site_fract_y
_atom_site_fract_z
Zr1	Zr	0.469495	0.677368	-0.063873
O2	O	0.391674	0.806487	-0.141690
O3	O	0.493352	0.548250	-0.040021
O4	O	0.493349	0.677353	-0.141680
O5	O	0.391677	0.677395	0.040163
O6	O	0.573552	0.677341	-0.141670
O7	O	0.391676	0.677383	-0.040030
O8	O	0.573557	0.446399	0.040180
O9	O	0.391673	0.908337	-0.141687
O10	O	0.563380	0.601349	-0.029838
O11	O	0.503527	0.601367	0.030002
O12	O	0.503524	0.753369	-0.089689
O13	O	0.443670	0.753387	-0.029849
Zr14	Zr	0.597411	0.677368	0.064042
Zr15	Zr	0.597409	0.677349	-0.063857
Zr16	Zr	0.469497	0.677387	0.064026
Zr17	Zr	0.469494	0.839808	-0.063869
Zr18	Zr	0.597412	0.514928	0.064038
O19	O	0.573554	0.806487	0.040189
O20	O	0.573551	0.806459	-0.141667
O21	O	0.391676	0.806514	0.040166
O22	O	0.675232	0.548250	0.141858
O23	O	0.675229	0.548223	-0.039998
O24	O	0.493355	0.548277	0.141835
O25	O	0.675228	0.677341	-0.039995
O26	O	0.573556	0.677383	0.141849
O27	O	0.493354	0.677395	0.141839
O28	O	0.675230	0.677353	0.040199
O29	O	0.493348	0.908322	-0.141674
O30	O	0.573558	0.446414	0.141843
O31	O	0.675233	0.446399	0.141855
O32	O	0.675231	0.446384	0.040193
O33	O	0.391674	0.908352	-0.040024
O34	O	0.493349	0.908337	-0.040012
O35	O	0.563382	0.601367	0.089857
O36	O	0.623236	0.601349	0.030017
O37	O	0.563379	0.753369	-0.029834
O38	O	0.503525	0.753387	0.030006
C39	C	0.533455	0.474180	0.000079
C40	C	0.533455	0.405220	0.000077
C41	C	0.564697	0.372813	-0.031160
C42	C	0.564699	0.308013	-0.031155
C43	C	0.533456	0.275626	0.000082
C44	C	0.502213	0.308035	0.031323
C45	C	0.502215	0.372830	0.031322
C46	C	0.502206	0.046726	0.031328
C47	C	0.502205	-0.018071	0.031325
C48	C	0.564690	-0.018091	-0.031150
C49	C	0.564692	0.046704	-0.031151
C50	C	0.533452	0.079104	0.000092
C51	C	0.533451	0.149367	0.000089
C52	C	0.533453	0.205369	0.000083
C53	C	0.373452	0.677392	0.000064
C54	C	0.319149	0.677400	0.000057
C55	C	0.013696	0.598001	0.031342
C56	C	-0.037323	0.597996	0.031347
O57	O	-0.037139	0.530509	0.057935
N58	N	-0.094084	0.677348	0.000105
C59	C	-0.099826	0.756710	-0.031139
O60	O	-0.152791	0.824205	-0.057712
C61	C	-0.048808	0.756714	-0.031141
C62	C	0.007952	0.677357	0.000099
C63	C	0.070454	0.518650	0.062580
C64	C	0.121469	0.518655	0.062573
C65	C	0.115725	0.598011	0.031330
C66	C	0.058967	0.677362	0.000092
C67	C	-0.054551	0.836075	-0.062381
C68	C	-0.003527	0.836072	-0.062380
C69	C	0.053234	0.756715	-0.031141
C70	C	0.104239	0.756723	-0.031158
N71	N	0.161000	0.677371	0.000084
C72	C	0.166743	0.598015	0.031328
C73	C	-0.206965	0.756696	-0.031133
C74	C	-0.257982	0.756693	-0.031135
C75	C	-0.195475	0.597978	0.031352
C76	C	-0.144457	0.597982	0.031351
C77	C	-0.150204	0.677344	0.000109
C78	C	0.273876	0.598032	0.031312
C79	C	0.324892	0.598044	0.031301
C80	C	0.262381	0.756758	-0.031184
C81	C	0.211369	0.756746	-0.031176
C82	C	0.217120	0.677376	0.000077
O83	O	0.104100	0.824175	-0.057730
O84	O	0.219709	0.530532	0.057903
C85	C	0.693454	0.677344	0.000104
C86	C	0.747757	0.677336	0.000111
C87	C	0.533451	0.677344	-0.159898
C88	C	0.533450	0.677336	-0.214195
C89	C	0.533451	0.880556	0.000089
C90	C	0.533451	0.949516	0.000091
C91	C	0.502214	0.756736	-0.582171
C92	C	0.502215	0.756740	-0.633193
O93	O	0.475662	0.824227	-0.686151
N94	N	0.533459	0.677388	-0.627469
C95	C	0.564707	0.598026	-0.570717
O96	O	0.591283	0.530531	-0.570534
C97	C	0.564709	0.598022	-0.519696
C98	C	0.533458	0.677380	-0.525425
C99	C	0.470966	0.836086	-0.587897
C100	C	0.470964	0.836081	-0.536878
C101	C	0.502209	0.756725	-0.480133
C102	C	0.533456	0.677374	-0.474407
C103	C	0.595961	0.518661	-0.462947
C104	C	0.595960	0.518664	-0.411925
C105	C	0.564709	0.598021	-0.417654
C106	C	0.564698	0.598013	-0.366642
N107	N	0.533455	0.677365	-0.372367
C108	C	0.502210	0.756721	-0.429112
C109	C	0.564703	0.598040	-0.677867
C110	C	0.564698	0.598043	-0.728887
C111	C	0.502207	0.756758	-0.791359
C112	C	0.502209	0.756754	-0.740338
C113	C	0.533460	0.677393	-0.683592
C114	C	0.502207	0.756705	-0.321966
C115	C	0.502205	0.756692	-0.270940
C116	C	0.564699	0.597978	-0.208473
C117	C	0.564698	0.597990	-0.259494
C118	C	0.533451	0.677360	-0.316242
O119	O	0.591241	0.530561	-0.313666
O120	O	0.475645	0.824205	-0.429285
C121	C	0.533455	0.677392	0.160067
C122	C	0.533456	0.677400	0.214363
C123	C	0.693456	0.474156	0.000099
C124	C	0.747759	0.405188	0.000104
C125	C	0.533457	0.474204	0.160061
C126	C	0.533458	0.405252	0.214356
C127	C	0.693458	0.474180	0.160081
C128	C	0.747762	0.405220	0.214383
C129	C	0.373448	0.880556	-0.159913
C130	C	0.319143	0.949516	-0.214215
C131	C	0.373450	0.880580	0.000069
C132	C	0.319147	0.949548	0.000064
C133	C	0.533449	0.880532	-0.159893
C134	C	0.533448	0.949484	-0.214188
C135	C	0.742017	0.372800	-0.031143
C136	C	0.793036	0.308006	-0.031150
C137	C	0.849797	0.275597	0.000093
C138	C	0.855538	0.307991	0.031341
C139	C	0.804519	0.372789	0.031344
C140	C	0.564703	0.372871	0.271103
C141	C	0.564702	0.308093	0.322123
C142	C	0.533459	0.275691	0.316396
C143	C	0.502211	0.308078	0.259644
C144	C	0.502209	0.372860	0.208624
C145	C	0.804512	0.372826	0.208648
C146	C	0.855542	0.308040	0.259665
C147	C	0.849820	0.275644	0.316417
C148	C	0.793064	0.308044	0.322151
C149	C	0.742036	0.372834	0.271134
C150	C	0.262393	0.981918	-0.208479
C151	C	0.211364	1.046724	-0.259497
C152	C	0.217086	1.079124	-0.316249
C153	C	0.273842	1.046719	-0.321983
C154	C	0.324870	0.981919	-0.270966
C155	C	0.324889	0.981943	0.031306
C156	C	0.273870	1.046755	0.031299
C157	C	0.217109	1.079166	0.000054
C158	C	0.211368	1.046769	-0.031192
C159	C	0.262386	0.981962	-0.031188
C160	C	0.564696	0.981865	-0.208442
C161	C	0.564706	1.046644	-0.259452
C162	C	0.533464	1.079046	-0.316209
C163	C	0.502215	1.046659	-0.321954
C164	C	0.502209	0.981876	-0.270944
H165	H	0.590131	0.073075	-0.056589
H166	H	0.590130	-0.044481	-0.056587
H167	H	0.590137	0.955494	-0.162232
H168	H	0.278567	0.533401	0.056761
H169	H	0.695829	0.399200	0.275812
O170	O	0.150144	1.081732	-0.064887
H171	H	0.154714	1.048327	-0.086617
H172	H	0.590144	0.399245	0.275777
H173	H	0.891334	0.222834	0.000086
O174	O	0.629693	0.433049	-0.350727
H175	H	0.664231	0.429256	-0.325997
O176	O	0.598390	0.407750	-0.064857
H177	H	0.632922	0.395324	-0.033318
O178	O	0.162091	1.149055	0.000068
H179	H	0.135142	1.208109	-0.046448
O180	O	0.076662	0.433047	0.096277
H181	H	0.054926	0.429230	0.130816
O182	O	0.598417	0.273153	0.383331
H183	H	0.620151	0.306556	0.378736
O184	O	0.916760	0.273026	0.065044
H185	H	0.951266	0.222519	0.059795
H186	H	0.476760	0.955519	-0.275631
O187	O	0.437261	0.921678	-0.543065
H188	H	0.442501	0.908357	-0.498058
H189	H	0.476768	0.399216	0.162421
H190	H	0.476761	0.821374	-0.745009
O191	O	0.904861	0.205751	0.371440
H192	H	0.931805	0.230614	0.371405
H193	H	0.533466	0.222942	0.357944
O194	O	0.256184	0.947025	-0.064884
H195	H	0.301192	0.896519	-0.059640
O196	O	0.468493	-0.052991	0.065005
H197	H	0.446768	-0.019574	0.086729
H198	H	0.476774	0.281687	0.254989
H199	H	0.476777	0.281656	0.056760
O200	O	0.598388	0.273067	-0.064853
H201	H	0.620105	0.306484	-0.086583
H202	H	0.590136	0.533371	-0.254828
O203	O	0.533471	1.148923	-0.371225
H204	H	0.486945	1.207969	-0.398169
O205	O	0.810691	0.407771	0.147440
H206	H	0.858730	0.374363	0.152032
H207	H	0.901751	0.281666	0.254986
O208	O	0.786895	0.273088	0.383363
H209	H	0.831916	0.222584	0.417869
H210	H	0.257723	0.955542	-0.162274
O211	O	0.468512	1.081618	-0.383171
H212	H	0.473764	1.132113	-0.417671
H213	H	0.278494	1.073107	-0.368196
O214	O	0.598413	1.081568	-0.253248
H215	H	0.580348	1.111103	-0.228484
O216	O	0.150152	1.081652	-0.253306
H217	H	0.154752	1.048217	-0.205271
H218	H	0.476755	0.821317	-0.275612
O219	O	0.786835	0.273074	-0.064854
H220	H	0.808593	0.201597	-0.033319
H221	H	0.167682	0.454034	0.088009
O222	O	0.468506	0.081679	0.065016
H223	H	0.446775	0.048279	0.086729
H224	H	0.445523	0.900711	-0.634099
H225	H	0.175530	1.131888	-0.357785
H226	H	0.476773	0.399217	0.056756
H227	H	0.371077	0.955538	-0.275643
H228	H	0.278556	1.073122	0.056744
O229	O	0.386115	0.512449	0.064997
H230	H	0.381533	0.457269	0.086728
O231	O	-0.083238	0.512392	0.065045
H232	H	-0.078042	0.474346	0.113061
O233	O	-0.189282	0.512382	0.065059
H234	H	-0.234296	0.525718	0.059815
O235	O	-0.319201	0.842284	-0.064834
H236	H	-0.314616	0.897461	-0.086556
O237	O	-0.213165	0.842298	-0.064842
H238	H	-0.261207	0.897469	-0.086570
H239	H	-0.008213	0.900700	-0.087814
O240	O	-0.115765	0.921668	-0.096072
H241	H	-0.111176	0.976841	-0.117788
O242	O	0.386104	0.947010	0.064999
H243	H	0.391296	0.917512	0.113013
O244	O	0.150145	0.842335	-0.064870
H245	H	0.154725	0.897516	-0.086594
O246	O	0.256191	0.842348	-0.064954
H247	H	0.301205	0.829011	-0.059728
H248	H	0.476763	0.821335	-0.368168
O249	O	0.468517	0.842352	-0.852571
H250	H	0.433988	0.846153	-0.877324
O251	O	0.598416	0.512452	-0.722707
H252	H	0.620150	0.457275	-0.674674
H253	H	0.590148	0.533411	-0.631662
H254	H	0.621409	0.454040	-0.458270
O255	O	0.598442	0.512388	-0.147265
H256	H	0.593209	0.525725	-0.112753
H257	H	0.695804	0.399187	-0.056592
H258	H	0.809203	0.399151	0.056793
