data_functionalizedCrystal
_audit_creation_method	'MofGen! by Chris Wilmer'
_symmetry_space_group_name_H-M	'P1'
_symmetry_Int_Tables_number	1
_symmetry_cell_setting	triclinic
loop_
_symmetry_equiv_pos_as_xyz
  x,y,z
_cell_length_a	13.897449
_cell_length_b	12.759400
_cell_length_c	12.759393
_cell_angle_alpha	89.969348
_cell_angle_beta	89.978129
_cell_angle_gamma	90.015511
loop_
_atom_site_label
_atom_site_type_symbol
_atom_site_fract_x
_atom_site_fract_y
_atom_site_fract_z
Zn1	Zn	1.474708	-0.418191	-0.594113
Zn2	Zn	1.474615	-0.593907	-0.418433
Zn3	Zn	1.313402	-0.418245	-0.418438
Zn4	Zn	1.313388	-0.593831	-0.594060
O5	O	1.394028	-0.506043	-0.506261
O6	O	1.609678	-0.441509	-0.570829
O7	O	1.453197	-0.570659	-0.271413
O8	O	1.334844	-0.271217	-0.441766
O9	O	1.609609	-0.570607	-0.441757
O10	O	1.453356	-0.271177	-0.570833
O11	O	1.334754	-0.441601	-0.271416
O12	O	1.178418	-0.441528	-0.441715
O13	O	1.334820	-0.570477	-0.741088
O14	O	1.178408	-0.570530	-0.570743
O15	O	1.453342	-0.441435	-0.741127
O16	O	1.453183	-0.740918	-0.441706
O17	O	1.334730	-0.740862	-0.570739
C18	C	1.393971	-0.779011	-0.506239
C19	C	1.394035	-0.895787	-0.506265
C20	C	1.143414	-0.506027	-0.506224
C21	C	1.036200	-0.506045	-0.506234
C22	C	1.455782	-0.950643	-0.439152
C23	C	1.455841	-1.060367	-0.439184
C24	C	1.332398	-1.060369	-0.573446
C25	C	1.332344	-0.950647	-0.573418
C26	C	1.527048	-0.950643	-0.361634
C27	C	1.527107	-1.060367	-0.361666
C28	C	0.949130	-0.506049	-0.506251
C29	C	0.839898	-0.506056	-0.506283
C30	C	1.645621	-0.506060	-0.506298
C31	C	1.752835	-0.506067	-0.506314
C32	C	1.394090	-0.505942	-0.780295
C33	C	1.394116	-0.505898	-0.897071
C34	C	1.394112	-0.232010	-0.506306
C35	C	1.394148	-0.115233	-0.506325
C36	C	1.332423	-0.573059	-0.951915
C37	C	1.332458	-0.573021	-1.061639
C38	C	1.455883	-0.438652	-1.061666
C39	C	1.455852	-0.438697	-0.951944
C40	C	1.261161	-0.650632	-0.951900
C41	C	1.261196	-0.650594	-1.061624
C42	C	1.394022	-0.506069	-0.233294
C43	C	1.394183	-0.505816	-0.116518
H44	H	1.282173	-1.105050	-0.628120
H45	H	1.282074	-0.905984	-0.628076
H46	H	1.186506	-0.628777	-1.091401
H47	H	1.601729	-0.920785	-0.383492
H48	H	1.190197	-0.621493	-0.917866
H49	H	1.506147	-0.383940	-1.106357
N50	N	1.491637	-0.905662	-0.259208
H51	H	1.474568	-0.964631	-0.209738
H52	H	1.543869	-0.861068	-0.226979
H53	H	1.506098	-0.384019	-0.907295
N54	N	1.621129	-1.105344	-0.400317
H55	H	1.666514	-1.046373	-0.418975
H56	H	1.650774	-1.149921	-0.343429
H57	H	1.281146	-0.732012	-0.922115
N58	N	1.500681	-1.099936	-0.253872
H59	H	1.434494	-1.073661	-0.234433
H60	H	1.500777	-1.179090	-0.253934
H61	H	1.287938	-0.727882	-1.095645
