data_functionalizedCrystal
_audit_creation_method	'MofGen! by Chris Wilmer'
_symmetry_space_group_name_H-M	'P1'
_symmetry_Int_Tables_number	1
_symmetry_cell_setting	triclinic
loop_
_symmetry_equiv_pos_as_xyz
  x,y,z
_cell_length_a	10.654550
_cell_length_b	8.597304
_cell_length_c	9.730223
_cell_angle_alpha	82.295717
_cell_angle_beta	89.999957
_cell_angle_gamma	84.910193
loop_
_atom_site_label
_atom_site_type_symbol
_atom_site_fract_x
_atom_site_fract_y
_atom_site_fract_z
O1	O	1.669010	0.220464	-0.140287
O2	O	1.303643	0.241469	-0.142799
O3	O	1.493517	0.002578	-0.114495
O4	O	1.479136	0.459356	-0.168590
O5	O	1.493504	0.002571	0.114085
O6	O	1.303631	0.241462	0.085782
O7	O	1.668997	0.220458	0.088294
Zn8	Zn	1.486312	0.230959	0.123330
Zn9	Zn	1.486328	0.230968	-0.177835
O10	O	1.479124	0.459349	0.059991
C11	C	1.256831	0.239923	-0.028329
C12	C	1.117363	0.235309	-0.027792
C13	C	1.491966	-0.055914	0.006718
C14	C	1.487348	-0.230191	0.027348
C15	C	1.038624	0.375964	-0.044445
C16	C	0.907580	0.371619	-0.043907
C17	C	0.934026	0.085952	-0.010066
C18	C	1.065068	0.090298	-0.010595
C19	C	1.715810	0.222003	-0.026179
C20	C	1.855278	0.226618	-0.026725
C21	C	1.480675	0.517841	-0.061226
C22	C	1.485292	0.692118	-0.081865
N23	N	1.486310	0.230952	0.328867
N24	N	1.486340	0.230962	-0.383371
C25	C	1.570415	0.125216	0.413321
C26	C	1.570428	0.125217	0.557203
C27	C	1.402226	0.336703	0.532165
C28	C	1.402208	0.336694	0.388286
H29	H	1.081198	0.494041	-0.058438
O30	O	1.487353	-0.228422	-0.212351
C31	C	1.486997	-0.245358	-0.457546
C32	C	1.484628	-0.335548	-0.309847
H33	H	1.484822	-0.331934	-0.536412
H34	H	1.401344	-0.155313	-0.474458
H35	H	1.576678	-0.182053	-0.471105
H36	H	1.395004	-0.398948	-0.296185
H37	H	1.570342	-0.425503	-0.293004
H38	H	1.638894	0.039113	0.364946
O39	O	1.320364	0.439261	0.589849
C40	C	1.103112	0.528751	0.623245
C41	C	1.195679	0.412488	0.557875
H42	H	1.002285	0.507168	0.597394
H43	H	1.117465	0.510596	0.740603
H44	H	1.121071	0.654652	0.580051
H45	H	1.177777	0.286541	0.600960
H46	H	1.181305	0.430781	0.440520
H47	H	0.891431	-0.032112	0.003944
H48	H	1.129180	-0.024248	0.002971
O49	O	1.652251	0.022450	0.639034
C50	C	1.819034	-0.187375	0.648682
C51	C	1.726455	-0.071044	0.555845
H52	H	1.879034	-0.263019	0.581464
H53	H	1.882695	-0.118952	0.707891
H54	H	1.763839	-0.266355	0.725444
H55	H	1.781548	0.007963	0.479005
H56	H	1.662794	-0.139566	0.496735
O57	O	1.320631	0.439634	0.306276
C58	C	1.250314	0.711709	0.230074
C59	C	1.342790	0.595317	0.322988
H60	H	1.268179	0.837602	0.243575
H61	H	1.264745	0.693672	0.117001
H62	H	1.149485	0.690002	0.260935
H63	H	1.443655	0.616952	0.292250
H64	H	1.328249	0.613381	0.436038
O65	O	0.831275	0.508400	-0.060167
C66	C	0.818882	0.792201	-0.093714
C67	C	0.905442	0.637410	-0.075347
H68	H	0.878811	0.896546	-0.105962
H69	H	0.756883	0.797415	-0.190005
H70	H	0.756856	0.797227	0.001338
H71	H	0.967546	0.632281	-0.170322
H72	H	0.967356	0.632261	0.020999
H73	H	1.485561	-0.297010	0.136647
