data_functionalizedCrystal
_audit_creation_method	'MofGen! by Chris Wilmer'
_symmetry_space_group_name_H-M	'P1'
_symmetry_Int_Tables_number	1
_symmetry_cell_setting	triclinic
loop_
_symmetry_equiv_pos_as_xyz
  x,y,z
_cell_length_a	29.839131
_cell_length_b	19.077252
_cell_length_c	19.076919
_cell_angle_alpha	89.896235
_cell_angle_beta	92.267459
_cell_angle_gamma	92.342233
loop_
_atom_site_label
_atom_site_type_symbol
_atom_site_fract_x
_atom_site_fract_y
_atom_site_fract_z
Zn1	Zn	-0.162980	1.058222	-0.440353
Zn2	Zn	0.337020	1.558222	0.059647
Zn3	Zn	-0.234976	1.062829	-0.322837
Zn4	Zn	0.265024	1.562829	0.177163
Zn5	Zn	-0.162755	0.945437	-0.318151
Zn6	Zn	0.337245	1.445437	0.181849
Zn7	Zn	-0.240981	0.940645	-0.435594
Zn8	Zn	0.259019	1.440645	0.064406
O9	O	-0.200423	1.001783	-0.379234
O10	O	0.299577	1.501783	0.120766
O11	O	-0.170111	1.157168	-0.428716
O12	O	0.329889	1.657168	0.071284
O13	O	-0.222788	1.051190	-0.223884
O14	O	0.277212	1.551190	0.276116
O15	O	-0.099917	0.960475	-0.334391
O16	O	0.400083	1.460475	0.165609
O17	O	-0.223006	1.160553	-0.342378
O18	O	0.276994	1.660553	0.157622
O19	O	-0.100082	1.043338	-0.424172
O20	O	0.399918	1.543338	0.075828
O21	O	-0.169728	0.964943	-0.220441
O22	O	0.330272	1.464943	0.279559
O23	O	-0.175551	0.846466	-0.329777
O24	O	0.324449	1.346466	0.170223
O25	O	-0.233241	0.952308	-0.534557
O26	O	0.266759	1.452308	-0.034557
O27	O	-0.233023	0.842945	-0.416063
O28	O	0.266977	1.342945	0.083937
O29	O	-0.175934	1.038691	-0.538052
O30	O	0.324066	1.538691	-0.038052
O31	O	-0.298641	1.046543	-0.337764
O32	O	0.201359	1.546543	0.162236
O33	O	-0.303053	0.956775	-0.420607
O34	O	0.196947	1.456775	0.079393
C35	C	-0.317148	1.001657	-0.379194
C36	C	0.182852	1.501657	0.120806
C37	C	-0.367082	1.001667	-0.379203
C38	C	0.132918	1.501667	0.120797
C39	C	-0.204915	0.819208	-0.371896
C40	C	0.295085	1.319208	0.128104
C41	C	-0.206848	0.741101	-0.368773
C42	C	0.293152	1.241101	0.131227
C43	C	-0.205283	0.994451	-0.562514
C44	C	0.294717	1.494451	-0.062514
C45	C	-0.207354	0.991327	-0.640617
C46	C	0.292646	1.491327	-0.140617
C47	C	-0.674413	1.048604	-0.336167
C48	C	-0.174413	1.548604	0.163833
C49	C	-0.862085	1.048690	-0.336197
C50	C	-0.362085	1.548690	0.163803
O51	O	-0.884385	1.088498	-0.299576
O52	O	-0.384385	1.588498	0.200424
N53	N	-0.887863	1.001927	-0.379292
N54	N	-0.387863	1.501927	0.120708
C55	C	-0.866720	0.955142	-0.422386
C56	C	-0.366720	1.455142	0.077614
O57	O	-0.892952	0.915373	-0.459047
O58	O	-0.392952	1.415373	0.040953
C59	C	-0.679050	0.955060	-0.422359
C60	C	-0.179050	1.455060	0.077641
C61	C	-0.653274	1.001821	-0.379256
C62	C	-0.153274	1.501821	0.120744
C63	C	-0.648637	1.095363	-0.293068
C64	C	-0.148637	1.595363	0.206932
C65	C	-0.601722	1.095338	-0.293058
C66	C	-0.101722	1.595338	0.206942
C67	C	-0.580583	1.048555	-0.336147
C68	C	-0.080583	1.548555	0.163853
C69	C	-0.606359	1.001797	-0.379246
C70	C	-0.106359	1.501797	0.120754
C71	C	-0.657908	0.908279	-0.465456
C72	C	-0.157908	1.408279	0.034544
C73	C	-0.610987	0.908264	-0.465446
C74	C	-0.110987	1.408264	0.034554
C75	C	-0.585211	0.955025	-0.422343
C76	C	-0.085211	1.455025	0.077657
C77	C	-0.538304	0.954990	-0.422325
C78	C	-0.038304	1.454990	0.077675
N79	N	-0.512526	1.001753	-0.379229
N80	N	-0.012526	1.501753	0.120771
C81	C	-0.533665	1.048536	-0.336140
C82	C	-0.033665	1.548536	0.163860
C83	C	-0.965250	0.955187	-0.422397
C84	C	-0.465250	1.455187	0.077603
C85	C	-1.012168	0.955206	-0.422403
C86	C	-0.512168	1.455206	0.077597
C87	C	-1.007529	1.048756	-0.336215
C88	C	-0.507529	1.548756	0.163785
C89	C	-0.960610	1.048732	-0.336205
C90	C	-0.460610	1.548732	0.163795
C91	C	-0.939472	1.001950	-0.379302
C92	C	-0.439472	1.501950	0.120698
C93	C	-0.435141	1.048481	-0.336122
C94	C	0.064859	1.548481	0.163878
C95	C	-0.388222	1.048450	-0.336114
C96	C	0.111778	1.548450	0.163886
C97	C	-0.392864	0.954903	-0.422304
C98	C	0.107136	1.454903	0.077696
C99	C	-0.439779	0.954931	-0.422310
C100	C	0.060221	1.454931	0.077690
C101	C	-0.460916	1.001725	-0.379217
C102	C	0.039084	1.501725	0.120783
O103	O	-0.515974	0.915208	-0.458933
O104	O	-0.015974	1.415208	0.041067
O105	O	-0.507426	1.088309	-0.299496
O106	O	-0.007426	1.588309	0.200504
C107	C	-0.721328	1.048629	-0.336177
C108	C	-0.221328	1.548629	0.163823
C109	C	-0.747104	1.001870	-0.379276
C110	C	-0.247104	1.501870	0.120724
C111	C	-0.725964	0.955088	-0.422365
C112	C	-0.225964	1.455088	0.077635
C113	C	-0.794021	1.001890	-0.379282
C114	C	-0.294021	1.501890	0.120718
C115	C	-0.815161	1.048673	-0.336193
C116	C	-0.315161	1.548673	0.163807
C117	C	-0.789383	1.095436	-0.293098
C118	C	-0.289383	1.595436	0.206902
C119	C	-0.742468	1.095412	-0.293088
C120	C	-0.242468	1.595412	0.206912
C121	C	-0.751743	0.908324	-0.465460
C122	C	-0.251743	1.408324	0.034540
C123	C	-0.798657	0.908352	-0.465466
C124	C	-0.298657	1.408352	0.034534
C125	C	-0.819797	0.955135	-0.422377
C126	C	-0.319797	1.455135	0.077623
C127	C	-0.083242	1.001927	-0.379290
C128	C	0.416758	1.501927	0.120710
C129	C	-0.033307	1.001989	-0.379314
C130	C	0.466693	1.501989	0.120686
C131	C	-0.195914	1.185071	-0.386601
C132	C	0.304086	1.685071	0.113399
C133	C	-0.193992	1.263177	-0.389740
C134	C	0.306008	1.763177	0.110260
C135	C	-0.220629	1.301635	-0.346267
C136	C	0.279371	1.801635	0.153733
C137	C	-0.218819	1.375024	-0.349217
C138	C	0.281181	1.875024	0.150783
C139	C	-0.190376	1.409954	-0.395644
C140	C	0.309624	1.909954	0.104356
C141	C	-0.163737	1.371491	-0.439119
C142	C	0.336263	1.871491	0.060881
C143	C	-0.165544	1.298103	-0.436165
C144	C	0.334456	1.798103	0.063835
C145	C	-0.182016	1.629250	-0.409294
C146	C	0.317984	2.129250	0.090706
C147	C	-0.180211	1.702643	-0.412246
C148	C	0.319789	2.202643	0.087754
C149	C	-0.235294	1.706171	-0.322343
C150	C	0.264706	2.206171	0.177657
C151	C	-0.237101	1.632782	-0.319396
C152	C	0.262899	2.132782	0.180604
C153	C	-0.210460	1.594326	-0.362869
C154	C	0.289540	2.094326	0.137131
N155	N	-0.188527	1.484969	-0.398661
N156	N	0.311473	1.984969	0.101339
N157	N	-0.212307	1.519312	-0.359847
N158	N	0.287693	2.019312	0.140153
C159	C	-0.178491	1.034832	-0.679131
C160	C	0.321509	1.534832	-0.179131
C161	C	-0.180436	1.031887	-0.752516
C162	C	0.319564	1.531887	-0.252516
C163	C	-0.211245	0.985441	-0.787387
C164	C	0.288755	1.485441	-0.287387
C165	C	-0.240109	0.941931	-0.748867
C166	C	0.259891	1.441931	-0.248867
C167	C	-0.238162	0.944873	-0.675483
C168	C	0.261838	1.444873	-0.175483
C169	C	-0.220265	0.971819	-1.006667
C170	C	0.279735	1.471819	-0.506667
C171	C	-0.222210	0.968882	-1.080057
C172	C	0.277790	1.468882	-0.580057
C173	C	-0.162537	1.058838	-1.083701
C174	C	0.337463	1.558838	-0.583701
C175	C	-0.160594	1.061778	-1.010315
C176	C	0.339406	1.561778	-0.510315
C177	C	-0.189456	1.018266	-0.971802
C178	C	0.310544	1.518266	-0.471802
N179	N	-0.213234	0.982432	-0.862399
N180	N	0.286766	1.482432	-0.362399
N181	N	-0.187465	1.021272	-0.896791
N182	N	0.312535	1.521272	-0.396791
C183	C	-0.195549	1.009127	-0.196668
C184	C	0.304451	1.509127	0.303332
C185	C	-0.193348	1.012387	-0.118571
C186	C	0.306652	1.512387	0.381429
H187	H	-0.367236	1.086529	-0.301012
H188	H	0.132764	1.586529	0.198988
H189	H	-0.580738	1.133417	-0.257961
H190	H	-0.080738	1.633417	0.242039
C191	C	-0.152713	1.586958	-0.457121
C192	C	0.347287	2.086958	0.042879
N193	N	-0.130641	1.555100	-0.493148
N194	N	0.369359	2.055100	0.006852
H195	H	-0.139038	1.094262	-1.115066
H196	H	0.360962	1.594262	-0.615066
C197	C	-0.671883	1.146828	-0.245658
C198	C	-0.171883	1.646828	0.254342
N199	N	-0.689388	1.185591	-0.209941
N200	N	-0.189388	1.685591	0.290059
H201	H	-0.143852	1.266792	-0.471564
H202	H	0.356148	1.766792	0.028436
C203	C	-0.264592	1.748480	-0.274519
C204	C	0.235408	2.248480	0.225481
N205	N	-0.286658	1.780347	-0.238492
N206	N	0.213342	2.280347	0.261508
C207	C	-0.248122	1.417324	-0.301392
C208	C	0.251878	1.917324	0.198608
N209	N	-0.270194	1.449185	-0.265368
N210	N	0.229806	1.949185	0.234632
C211	C	-0.269913	0.897015	-0.633118
C212	C	0.230087	1.397015	-0.133118
N213	N	-0.293829	0.860965	-0.601209
N214	N	0.206171	1.360965	-0.101209
C215	C	-0.458384	1.099953	-0.288713
C216	C	0.041616	1.599953	0.211287
N217	N	-0.475891	1.138718	-0.253000
N218	N	0.024109	1.638718	0.247000
H219	H	-0.260262	1.604347	-0.281589
H220	H	0.239738	2.104347	0.218411
H221	H	-0.593779	0.870169	-0.500543
H222	H	-0.093779	1.370169	-0.000543
C223	C	-0.932261	1.100175	-0.288791
C224	C	-0.432261	1.600175	0.211209
N225	N	-0.910911	1.138925	-0.253078
N226	N	-0.410911	1.638925	0.246922
H227	H	-0.140575	1.399937	-0.476918
H228	H	0.359425	1.899937	0.023082
H229	H	-0.157046	1.731081	-0.450052
H230	H	0.342954	2.231081	0.049948
C231	C	-0.812645	1.146897	-0.245699
C232	C	-0.312645	1.646897	0.254301
N233	N	-0.830169	1.185657	-0.210003
N234	N	-0.330169	1.685657	0.289997
H235	H	-1.033150	0.917122	-0.457495
H236	H	-0.533150	1.417122	0.042505
H237	H	-0.243793	1.273200	-0.308464
H238	H	0.256207	1.773200	0.191536
H239	H	-1.024748	1.086848	-0.301130
H240	H	-0.524748	1.586848	0.198870
C241	C	-0.468134	0.903489	-0.469723
C242	C	0.031866	1.403489	0.030277
N243	N	-0.489487	0.864747	-0.505441
N244	N	0.010513	1.364747	-0.005441
H245	H	-0.153404	1.072656	-0.650745
H246	H	0.346596	1.572656	-0.150745
H247	H	-0.247300	0.931058	-1.108446
H248	H	0.252700	1.431058	-0.608446
C249	C	-0.942004	0.903737	-0.469829
C250	C	-0.442004	1.403737	0.030171
N251	N	-0.924497	0.864990	-0.505560
N252	N	-0.424497	1.364990	-0.005560
C253	C	-0.252013	0.923951	-0.964312
C254	C	0.247987	1.423951	-0.464312
N255	N	-0.275926	0.887894	-0.932408
N256	N	0.224074	1.387894	-0.432408
C257	C	-0.148685	1.079748	-0.794879
C258	C	0.351315	1.579748	-0.294879
N259	N	-0.124769	1.115799	-0.826786
N260	N	0.375231	1.615799	-0.326786
C261	C	-0.686251	0.856838	-0.512876
C262	C	-0.186251	1.356838	-0.012876
N263	N	-0.707599	0.818091	-0.548597
N264	N	-0.207599	1.318091	-0.048597
C265	C	-0.369602	0.903447	-0.469703
C266	C	0.130398	1.403447	0.030297
N267	N	-0.352079	0.864694	-0.505408
N268	N	0.147921	1.364694	-0.005408
H269	H	-0.135507	1.099601	-0.981929
H270	H	0.364493	1.599601	-0.481929
H271	H	-0.265193	0.904111	-0.777264
H272	H	0.234807	1.404111	-0.277264
H273	H	-0.721484	1.133489	-0.257989
H274	H	-0.221484	1.633489	0.242011
H275	H	-0.734535	0.870229	-0.500549
H276	H	-0.234535	1.370229	-0.000549
C277	C	-0.827006	0.856906	-0.512885
C278	C	-0.327006	1.356906	-0.012885
N279	N	-0.848356	0.818161	-0.548605
N280	N	-0.348356	1.318161	-0.048605
