data_functionalizedCrystal
_audit_creation_method	'MofGen! by Chris Wilmer'
_symmetry_space_group_name_H-M	'P1'
_symmetry_Int_Tables_number	1
_symmetry_cell_setting	triclinic
loop_
_symmetry_equiv_pos_as_xyz
  x,y,z
_cell_length_a	14.971486
_cell_length_b	8.559649
_cell_length_c	13.448316
_cell_angle_alpha	90.001109
_cell_angle_beta	89.999959
_cell_angle_gamma	76.696397
loop_
_atom_site_label
_atom_site_type_symbol
_atom_site_fract_x
_atom_site_fract_y
_atom_site_fract_z
O1	O	1.172519	0.208194	0.082574
O2	O	0.910392	0.233127	0.082601
O3	O	1.064549	-0.011897	0.082584
O4	O	1.018362	0.453218	0.082591
O5	O	1.064536	-0.011895	-0.082800
O6	O	0.910378	0.233129	-0.082783
O7	O	1.172506	0.208197	-0.082810
Cu8	Cu	1.041441	0.220663	-0.097897
Cu9	Cu	1.041457	0.220660	0.097688
O10	O	1.018348	0.453221	-0.082793
C11	C	0.877137	0.232013	-0.000088
C12	C	0.778072	0.228672	-0.000078
C13	C	0.710872	0.372617	-0.000077
C14	C	0.617791	0.369468	-0.000092
C15	C	0.591911	0.222372	-0.000100
C16	C	0.659119	0.078416	-0.000104
C17	C	0.752198	0.081566	-0.000096
C18	C	0.465111	0.071859	-0.000118
C19	C	0.372025	0.068707	-0.000124
C20	C	0.330704	0.359760	-0.000113
C21	C	0.423783	0.362910	-0.000106
C22	C	0.490984	0.218954	-0.000107
C23	C	1.068043	-0.071419	-0.000106
C24	C	1.078461	-0.248779	-0.000102
C25	C	1.205760	0.209310	-0.000119
C26	C	1.304826	0.212652	-0.000123
C27	C	1.014855	0.512743	-0.000101
C28	C	1.004436	0.690103	-0.000098
N29	N	1.041436	0.220664	-0.235462
C30	C	0.993893	0.123586	-0.712705
C31	C	0.993890	0.123581	-0.608602
C32	C	1.041459	0.220647	-0.556543
C33	C	1.089042	0.317711	-0.608593
C34	C	1.089050	0.317706	-0.712694
C35	C	1.089021	0.317717	-0.391613
C36	C	1.089013	0.317725	-0.287504
C37	C	0.993862	0.123592	-0.287520
C38	C	0.993869	0.123587	-0.391622
C39	C	1.041451	0.220655	-0.443664
N40	N	1.041470	0.220647	0.235252
H41	H	0.519825	-0.045367	-0.000121
Cl42	Cl	0.626584	-0.106506	-0.000121
H43	H	1.149813	-0.332149	-0.000117
Cl44	Cl	0.934083	0.001561	-0.778140
Cl45	Cl	0.934044	0.001567	-0.222096
H46	H	1.127792	0.396742	-0.755066
H47	H	0.933089	-0.226536	-0.000094
Cl48	Cl	0.934045	0.001607	-0.543181
H49	H	0.350958	-0.051071	-0.000132
Cl50	Cl	0.743396	0.557548	-0.000060
Cl51	Cl	0.246223	0.540734	-0.000113
H52	H	0.955129	0.044556	-0.434005
Cl53	Cl	0.533314	0.550436	-0.000085
H54	H	1.127744	0.396769	-0.245121
H55	H	1.127770	0.396756	-0.433983
H56	H	1.127779	0.396736	-0.566198
Cl57	Cl	0.456316	0.547834	-0.000084
Cl58	Cl	0.836679	-0.099401	-0.000101
