data_functionalizedCrystal
_audit_creation_method	'MofGen! by Chris Wilmer'
_symmetry_space_group_name_H-M	'P1'
_symmetry_Int_Tables_number	1
_symmetry_cell_setting	triclinic
loop_
_symmetry_equiv_pos_as_xyz
  x,y,z
_cell_length_a	17.666332
_cell_length_b	17.699083
_cell_length_c	17.699083
_cell_angle_alpha	83.283015
_cell_angle_beta	89.992629
_cell_angle_gamma	89.996676
loop_
_atom_site_label
_atom_site_type_symbol
_atom_site_fract_x
_atom_site_fract_y
_atom_site_fract_z
O1	O	0.062844	-1.004081	-0.095712
O2	O	0.062869	-0.783703	-0.108165
O3	O	0.062849	-0.900118	0.008250
O4	O	0.062864	-0.887666	-0.212128
O5	O	-0.063048	-0.900098	0.008257
O6	O	-0.063028	-0.783682	-0.108159
O7	O	-0.063053	-1.004061	-0.095706
Cu8	Cu	-0.074536	-0.893870	-0.101932
Cu9	Cu	0.074352	-0.893894	-0.101939
O10	O	-0.063033	-0.887645	-0.212122
C11	C	-0.000077	-0.755495	-0.107716
C12	C	-0.000067	-0.671477	-0.106377
C13	C	-0.000100	-0.899662	0.036451
C14	C	-0.000100	-0.898323	0.120469
N15	N	-0.179255	-0.893858	-0.101926
C16	C	-0.218874	-0.945424	-0.050403
C17	C	-0.298121	-0.945428	-0.050399
C18	C	-0.337748	-0.893874	-0.101932
C19	C	-0.298119	-0.842299	-0.153460
C20	C	-0.218873	-0.842291	-0.153457
N21	N	-0.462161	-0.884117	-0.168921
N22	N	-0.537441	-0.884129	-0.168921
C23	C	-0.576512	-0.893894	-0.101943
N24	N	-0.537457	-0.903662	-0.034962
N25	N	-0.462170	-0.903653	-0.034962
C26	C	-0.423677	-0.893877	-0.101941
C27	C	-0.702059	-0.945467	-0.050411
C28	C	-0.781308	-0.945466	-0.050406
C29	C	-0.781305	-0.842341	-0.153473
C30	C	-0.702057	-0.842338	-0.153471
C31	C	-0.662439	-0.893905	-0.101941
N32	N	0.179071	-0.893911	-0.101939
C33	C	-0.000106	-1.032268	-0.096156
C34	C	-0.000110	-1.116286	-0.097494
C35	C	-0.000063	-0.622856	-0.174710
C36	C	-0.000073	-0.543913	-0.173448
C37	C	-0.000082	-0.513592	-0.103852
C38	C	-0.000088	-0.562219	-0.035513
C39	C	-0.000084	-0.641161	-0.036776
C40	C	-0.000107	-0.243856	-0.030418
C41	C	-0.000109	-0.164908	-0.029160
C42	C	-0.000096	-0.146608	-0.167090
C43	C	-0.000092	-0.225550	-0.168353
C44	C	-0.000102	-0.274170	-0.100015
C45	C	-0.000093	-0.359769	-0.101384
C46	C	-0.000085	-0.427995	-0.102481
C47	C	-0.000083	-0.888102	-0.240322
C48	C	-0.000078	-0.889440	-0.324340
C49	C	-0.000109	-0.966656	0.169090
C50	C	-0.000102	-0.965394	0.248033
C51	C	-0.000092	-0.895798	0.278354
C52	C	-0.000080	-0.827459	0.229727
C53	C	-0.000082	-0.828722	0.150785
C54	C	-0.000074	-0.822364	0.548090
C55	C	-0.000075	-0.821106	0.627038
C56	C	-0.000094	-0.959036	0.645338
C57	C	-0.000095	-0.960299	0.566396
C58	C	-0.000080	-0.891961	0.517776
C59	C	-0.000086	-0.893330	0.432177
C60	C	-0.000091	-0.894427	0.363951
H61	H	-0.186619	-0.987411	-0.008442
Br62	Br	-0.648283	-0.772356	-0.223402
Br63	Br	-0.648290	-1.015447	0.019525
Br64	Br	-0.000073	-0.266696	-0.262808
H65	H	-0.000111	-1.021038	0.287618
H66	H	-0.000068	-0.504328	-0.229092
H67	H	-0.000055	-0.647537	-0.231384
Br68	Br	-0.000083	-0.080619	-0.259837
Br69	Br	-0.000108	-1.054754	0.525250
Br70	Br	-0.000108	-0.521071	0.058941
H71	H	-0.000074	-0.773078	0.111198
H72	H	-0.000118	-0.140225	0.027517
H73	H	-0.000116	-0.283434	0.025228
H74	H	-0.000087	-0.680748	0.018868
H75	H	-0.000068	-0.764429	0.651721
H76	H	-0.000122	-1.023330	0.144409
H77	H	-0.813568	-0.800362	-0.195430
H78	H	-0.000102	-1.014680	0.684934
H79	H	-0.000062	-0.766718	0.508512
H80	H	-0.000067	-0.770792	0.254420
Br81	Br	-0.351899	-1.015415	0.019533
Br82	Br	-0.165100	-0.772303	-0.223386
Br83	Br	-0.351894	-0.772327	-0.223393
Br84	Br	-0.835081	-1.015447	0.019531
