data_functionalizedCrystal
_audit_creation_method	'MofGen! by Chris Wilmer'
_symmetry_space_group_name_H-M	'P1'
_symmetry_Int_Tables_number	1
_symmetry_cell_setting	triclinic
loop_
_symmetry_equiv_pos_as_xyz
  x,y,z
_cell_length_a	13.339071
_cell_length_b	15.944493
_cell_length_c	12.376457
_cell_angle_alpha	101.280268
_cell_angle_beta	75.590460
_cell_angle_gamma	99.552161
loop_
_atom_site_label
_atom_site_type_symbol
_atom_site_fract_x
_atom_site_fract_y
_atom_site_fract_z
O1	O	1.361601	0.409517	-0.093971
O2	O	1.067085	0.354246	-0.093976
O3	O	1.222418	0.261483	-0.093983
O4	O	1.206268	0.502279	-0.093964
O5	O	1.183599	0.284633	0.094031
O6	O	1.028266	0.377396	0.094038
O7	O	1.322782	0.432667	0.094043
Zn8	Zn	1.169360	0.408707	0.123892
Zn9	Zn	1.220507	0.378206	-0.123825
O10	O	1.167449	0.525429	0.094050
C11	C	1.009988	0.356484	0.000030
C12	C	0.897692	0.328654	0.000027
C13	C	0.857010	0.241870	0.000025
C14	C	0.751504	0.215720	0.000017
C15	C	0.686667	0.276352	0.000021
C16	C	0.727347	0.363139	0.000031
C17	C	0.832865	0.389291	0.000030
C18	C	0.662522	0.423772	0.000026
C19	C	0.703202	0.510560	0.000036
C20	C	0.808710	0.536707	0.000036
C21	C	0.873547	0.476075	0.000033
C22	C	0.557004	0.397620	0.000027
C23	C	0.532858	0.545041	0.000032
C24	C	0.638365	0.571192	0.000040
C25	C	1.202350	0.241609	0.000019
C26	C	1.200374	0.147898	0.000005
C27	C	1.291801	-0.066554	0.000028
C28	C	1.261635	-0.140026	-0.092673
C29	C	1.196705	-0.023676	0.000019
C30	C	1.223340	-0.117183	0.092694
C31	C	1.193167	-0.189407	0.000037
C32	C	1.166581	-0.095922	-0.092759
C33	C	1.128283	-0.073063	0.092691
C34	C	1.098052	-0.146520	-0.000032
C35	C	1.198746	0.071797	0.000007
C36	C	1.191121	-0.284880	0.000040
C37	C	1.379879	0.430428	0.000034
C38	C	1.492177	0.458257	0.000030
C39	C	1.187518	0.545303	0.000045
C40	C	1.189495	0.639014	0.000052
N41	N	1.134462	0.429524	0.292951
N42	N	1.255413	0.357384	-0.292885
C43	C	1.336424	0.309043	0.647928
C44	C	1.360844	0.294472	0.529587
C45	C	1.304250	0.328233	0.470422
C46	C	1.223233	0.376569	0.529610
C47	C	1.198816	0.391148	0.647962
C48	C	1.166642	0.410338	0.470457
C49	C	1.085625	0.458674	0.529645
C50	C	1.061211	0.473250	0.647986
C51	C	1.117805	0.439488	0.707150
C52	C	1.191059	0.395759	0.352104
C53	C	1.053451	0.477864	0.352139
C54	C	1.029031	0.492436	0.470480
H55	H	0.959459	0.497364	0.000044
O56	O	0.469957	0.604044	0.000188
C57	C	0.396867	0.734007	0.097626
C58	C	0.468156	0.667269	0.097582
H59	H	0.395370	0.785131	0.176373
H60	H	0.427899	0.765872	0.018995
H61	H	0.314487	0.700382	0.097573
H62	H	0.550553	0.700827	0.097675
H63	H	0.437037	0.635407	0.176206
H64	H	1.097920	0.451349	0.803513
O65	O	1.389517	-0.025038	-0.000225
C66	C	1.537016	0.061913	-0.097303
C67	C	1.426360	0.014932	-0.097137
H68	H	1.566846	0.094226	-0.175661
H69	H	1.534956	0.112834	-0.018288
H70	H	1.591198	0.013400	-0.098115
H71	H	1.372116	0.063379	-0.096365
H72	H	1.428503	-0.036003	-0.176146
O73	O	1.328779	-0.174835	-0.186287
C74	C	1.375794	-0.202829	-0.389851
C75	C	1.299686	-0.163365	-0.283935
H76	H	1.352288	-0.193586	-0.468826
H77	H	1.458339	-0.169590	-0.389825
H78	H	1.373059	-0.274592	-0.389307
H79	H	1.302329	-0.091605	-0.284410
H80	H	1.217176	-0.196671	-0.284002
H81	H	0.909811	0.192512	0.000014
H82	H	1.142642	-0.086116	-0.171214
H83	H	1.016084	-0.181095	-0.000084
O84	O	0.848051	0.621050	0.000088
C85	C	0.812978	0.764502	0.000026
C86	C	0.768286	0.669017	-0.000007
H87	H	0.748515	0.803308	-0.000075
H88	H	0.845488	0.790172	0.078727
H89	H	0.878048	0.770704	-0.078640
H90	H	0.703182	0.662741	0.078606
H91	H	0.735845	0.643391	-0.078760
O92	O	1.060973	-0.038272	0.186157
C93	C	0.883073	-0.040913	0.292894
C94	C	0.959181	-0.080409	0.187002
H95	H	0.800754	-0.074952	0.293600
H96	H	0.907351	-0.049093	0.371907
H97	H	0.884765	0.030597	0.291529
H98	H	0.957527	-0.151929	0.188257
H99	H	0.934878	-0.072162	0.108036
H100	H	1.324137	0.316367	0.374064
H101	H	1.247341	-0.127102	0.171060
O102	O	1.269630	0.348651	0.294707
C103	C	1.336379	0.211979	0.258671
C104	C	1.247317	0.265244	0.323696
H105	H	1.318380	0.144540	0.282103
H106	H	1.344152	0.207250	0.163899
H107	H	1.412584	0.244745	0.281931
H108	H	1.171062	0.232522	0.300531
H109	H	1.239635	0.269978	0.418453
H110	H	1.426808	0.255118	0.481400
H111	H	0.718391	0.145058	0.000007
H112	H	0.963065	0.531793	0.518686
O113	O	0.677800	0.655499	-0.000109
C114	C	0.709624	0.777489	-0.097545
C115	C	0.664904	0.682015	-0.097504
H116	H	0.699234	0.798951	-0.176292
H117	H	0.666664	0.818433	-0.018915
H118	H	0.796159	0.785745	-0.097491
H119	H	0.578376	0.673677	-0.097598
H120	H	0.707942	0.641117	-0.176127
O121	O	1.391367	0.276109	0.705280
C122	C	1.443136	0.148356	0.741555
C123	C	1.380890	0.185546	0.676509
H124	H	1.434669	0.075130	0.718336
H125	H	1.528983	0.175283	0.718261
H126	H	1.411775	0.167128	0.836298
H127	H	1.412161	0.166788	0.581752
H128	H	1.295051	0.158621	0.699898
O129	O	0.982389	0.520088	0.705429
C130	C	0.799026	0.532720	0.741621
C131	C	0.888188	0.479583	0.676521
H132	H	0.722847	0.500003	0.718255
H133	H	0.791205	0.537325	0.836382
H134	H	0.817041	0.600213	0.718362
H135	H	0.870239	0.412064	0.699685
H136	H	0.895988	0.475050	0.581776
O137	O	0.517335	0.313350	-0.000027
C138	C	0.365482	0.207731	0.000041
C139	C	0.410276	0.303196	0.000074
H140	H	0.278915	0.199493	0.000147
H141	H	0.408359	0.166803	-0.078662
H142	H	0.376006	0.186230	0.078705
H143	H	0.399762	0.324777	-0.078537
H144	H	0.367393	0.344067	0.078829
O145	O	0.998393	0.510756	0.294855
C146	C	0.859291	0.593689	0.307369
C147	C	0.921566	0.556507	0.372392
H148	H	0.797148	0.630672	0.370029
H149	H	0.914325	0.639073	0.251985
H150	H	0.820251	0.538787	0.251941
H151	H	0.960612	0.611352	0.427882
H152	H	0.866483	0.511101	0.427705
H153	H	0.600760	0.255054	0.000015
