data_functionalizedCrystal
_audit_creation_method	'MofGen! by Chris Wilmer'
_symmetry_space_group_name_H-M	'P1'
_symmetry_Int_Tables_number	1
_symmetry_cell_setting	triclinic
loop_
_symmetry_equiv_pos_as_xyz
  x,y,z
_cell_length_a	10.723024
_cell_length_b	11.295483
_cell_length_c	10.723024
_cell_angle_alpha	94.135327
_cell_angle_beta	95.532131
_cell_angle_gamma	94.144104
loop_
_atom_site_label
_atom_site_type_symbol
_atom_site_fract_x
_atom_site_fract_y
_atom_site_fract_z
O1	O	1.665521	0.099014	-0.166696
O2	O	1.302369	0.099018	-0.183449
O3	O	1.492322	0.099011	0.006503
O4	O	1.475569	0.099020	-0.356648
O5	O	1.475637	-0.099039	-0.010155
O6	O	1.285685	-0.099032	-0.200107
O7	O	1.648837	-0.099036	-0.183354
Cu8	Cu	1.465738	-0.117118	-0.193252
Cu9	Cu	1.485469	0.117099	-0.173552
O10	O	1.458885	-0.099030	-0.373306
C11	C	1.247528	-0.000007	-0.190559
C12	C	1.108974	-0.000005	-0.186911
N13	N	1.451869	-0.281854	-0.207107
C14	C	1.033991	-0.000002	-0.293198
C15	C	0.890788	-0.000000	-0.289431
C16	C	1.599180	-0.531148	-0.059879
C17	C	1.588709	-0.655811	-0.070359
C18	C	1.420449	-0.655846	-0.238538
C19	C	1.430921	-0.531183	-0.228059
C20	C	1.520290	-0.468838	-0.138728
C21	C	1.530767	-0.344172	-0.128255
C22	C	1.362502	-0.344209	-0.296428
C23	C	1.352031	-0.468873	-0.306908
C24	C	1.703679	-0.000009	-0.176244
C25	C	1.842234	-0.000003	-0.179891
C26	C	1.482760	-0.000012	0.044674
C27	C	1.479113	-0.000008	0.183229
N28	N	1.499347	0.281835	-0.159687
C29	C	1.468446	-0.000003	-0.411477
C30	C	1.472094	0.000000	-0.550031
C31	C	1.585401	-0.000007	0.258211
C32	C	1.581634	-0.000003	0.401415
H33	H	1.075813	-0.000006	-0.386985
Cl34	Cl	1.643119	-0.265799	-0.015957
Cl35	Cl	0.791316	0.000013	-0.429920
Cl36	Cl	1.331598	-0.000010	0.350503
H37	H	1.672624	-0.000008	0.465847
Cl38	Cl	1.044414	-0.000017	-0.042106
Cl39	Cl	1.711541	-0.452771	0.052407
Cl40	Cl	1.334308	0.000005	0.247788
H41	H	0.906659	0.000002	-0.088895
H42	H	1.347678	-0.706623	-0.311261
H43	H	1.652947	-0.706541	-0.006151
H44	H	1.279264	-0.519648	-0.379636
Cl45	Cl	1.263331	-0.265865	-0.395563
H46	H	1.679186	-0.000016	0.216388
