data_functionalizedCrystal
_audit_creation_method	'MofGen! by Chris Wilmer'
_symmetry_space_group_name_H-M	'P1'
_symmetry_Int_Tables_number	1
_symmetry_cell_setting	triclinic
loop_
_symmetry_equiv_pos_as_xyz
  x,y,z
_cell_length_a	10.489711
_cell_length_b	10.489716
_cell_length_c	9.565339
_cell_angle_alpha	90.004273
_cell_angle_beta	89.994873
_cell_angle_gamma	84.528072
loop_
_atom_site_label
_atom_site_type_symbol
_atom_site_fract_x
_atom_site_fract_y
_atom_site_fract_z
O1	O	1.694059	0.179780	-0.116297
O2	O	1.322857	0.196713	-0.116287
O3	O	1.516921	0.002646	-0.116297
O4	O	1.499995	0.373847	-0.116287
O5	O	1.516906	0.002658	0.116223
O6	O	1.322842	0.196725	0.116233
O7	O	1.694044	0.179792	0.116223
Zn8	Zn	1.508440	0.188260	0.153146
Zn9	Zn	1.508461	0.188244	-0.153210
O10	O	1.499980	0.373859	0.116233
C11	C	1.275317	0.195448	-0.000026
C12	C	1.133686	0.191646	-0.000023
C13	C	0.951289	0.308352	-0.000036
C14	C	1.043448	0.250050	-0.114680
C15	C	1.043406	0.250030	0.114567
C16	C	0.973508	0.126505	-0.114792
C17	C	0.973456	0.126503	0.114558
C18	C	1.065587	0.068111	-0.000114
C19	C	1.515642	-0.044880	-0.000041
C20	C	1.511837	-0.186511	-0.000054
C21	C	1.630843	-0.284198	-0.000044
C22	C	1.567965	-0.361557	-0.114684
C23	C	1.567922	-0.361510	0.114563
C24	C	1.449009	-0.262005	-0.114788
C25	C	1.448983	-0.261952	0.114562
C26	C	1.386018	-0.339263	-0.000106
C27	C	1.741584	0.181057	-0.000041
C28	C	1.883215	0.184859	-0.000053
C29	C	1.501259	0.421385	-0.000026
C30	C	1.505064	0.563016	-0.000022
N31	N	1.508436	0.188270	0.362225
N32	N	1.508475	0.188224	-0.362289
C33	C	1.418660	0.277990	0.453433
C34	C	1.534156	0.303788	0.546610
C35	C	1.392990	0.162482	0.546603
C36	C	1.623991	0.214127	0.453350
C37	C	1.482747	0.072770	0.453336
C38	C	1.598327	0.098520	0.546471
H39	H	1.115053	-0.033485	-0.000175
H40	H	1.618178	-0.404982	0.211479
H41	H	1.342810	0.353933	0.412582
C42	C	1.770675	-0.250864	-0.000201
H43	H	1.812777	-0.285138	-0.081762
H44	H	1.813346	-0.286421	0.080416
H45	H	1.772161	-0.160456	0.000616
C46	C	1.381175	-0.203136	0.245499
H47	H	1.423600	-0.237361	0.326883
H48	H	1.294676	-0.222927	0.246329
H49	H	1.383448	-0.112825	0.244083
H50	H	0.942431	0.074299	0.211483
C51	C	0.884137	0.445463	-0.000175
H52	H	0.832720	0.458180	0.081322
H53	H	0.831579	0.457546	-0.080856
H54	H	0.946693	0.505253	-0.001054
H55	H	1.074350	0.302309	0.211491
H56	H	1.398805	-0.218701	-0.211814
C57	C	1.085325	0.320629	-0.245605
H58	H	1.045821	0.405981	-0.245466
H59	H	1.060236	0.277574	-0.327021
H60	H	1.175759	0.321899	-0.245079
C61	C	1.635835	-0.420342	-0.245611
H62	H	1.722757	-0.401875	-0.245478
H63	H	1.594428	-0.384941	-0.327026
H64	H	1.632216	-0.510489	-0.245083
H65	H	1.282425	-0.363682	-0.000165
H66	H	1.555911	0.401444	0.587579
C67	C	1.755930	0.243738	0.398258
H68	H	1.755095	0.243621	0.298942
H69	H	1.819749	0.180374	0.430855
H70	H	1.774327	0.325512	0.430972
H71	H	0.942710	0.074297	-0.211829
H72	H	1.674347	0.022624	0.587065
C73	C	1.453311	-0.059107	0.397930
H74	H	1.371194	-0.077285	0.429801
H75	H	1.516258	-0.123034	0.431168
H76	H	1.454287	-0.058349	0.298623
H77	H	1.295342	0.140691	0.587569
