data_functionalizedCrystal
_audit_creation_method	'MofGen! by Chris Wilmer'
_symmetry_space_group_name_H-M	'P1'
_symmetry_Int_Tables_number	1
_symmetry_cell_setting	triclinic
loop_
_symmetry_equiv_pos_as_xyz
  x,y,z
_cell_length_a	15.995292
_cell_length_b	15.995343
_cell_length_c	7.681481
_cell_angle_alpha	95.727685
_cell_angle_beta	95.743852
_cell_angle_gamma	96.521099
loop_
_atom_site_label
_atom_site_type_symbol
_atom_site_fract_x
_atom_site_fract_y
_atom_site_fract_z
O1	O	-0.115817	1.103057	-0.146267
O2	O	-0.129154	0.859276	-0.146311
O3	O	-0.000593	0.987857	-0.146263
O4	O	-0.244378	0.974476	-0.146315
O5	O	0.015266	1.003684	0.146601
O6	O	-0.113295	0.875102	0.146553
O7	O	-0.099958	1.118884	0.146597
Zn8	Zn	-0.104108	0.999506	0.193073
Zn9	Zn	-0.125004	0.978654	-0.192787
O10	O	-0.228519	0.990302	0.146549
C11	C	-0.120675	0.835994	0.000116
C12	C	-0.119026	0.743043	0.000100
C13	C	-0.116031	0.572858	0.000124
C14	C	-0.023231	0.549533	0.000144
C15	C	-0.021448	0.452892	0.000819
C16	C	-0.113082	0.405300	0.000146
C17	C	-0.150705	0.443401	0.167043
C18	C	-0.151798	0.540200	0.167173
C19	C	-0.171193	0.522113	-0.165880
C20	C	-0.167885	0.425500	-0.168063
C21	C	-0.111419	0.310603	0.000164
C22	C	-0.117696	0.667556	0.000118
C23	C	-0.267645	0.982933	0.000110
C24	C	-0.360598	0.984565	0.000091
C25	C	-0.698334	0.990569	0.000149
C26	C	-0.674990	0.897799	0.000781
C27	C	-0.578351	0.895998	0.000103
C28	C	-0.530779	0.987590	0.000121
C29	C	-0.568946	1.024951	-0.167099
C30	C	-0.665743	1.026062	-0.167221
C31	C	-0.647542	1.045954	0.165820
C32	C	-0.550931	1.042633	0.168011
C33	C	-0.436084	0.985911	0.000100
C34	C	-0.793029	0.992250	0.000159
C35	C	0.038532	0.995226	0.000172
C36	C	0.131486	0.993594	0.000179
C37	C	-0.108438	1.142165	0.000166
C38	C	-0.110087	1.235116	0.000170
N39	N	-0.089847	1.013743	0.456413
N40	N	-0.139258	0.964424	-0.456127
H41	H	-0.239587	0.536024	-0.167504
C42	C	-0.021711	1.081765	0.558034
N43	N	0.029609	1.132997	0.634576
C44	C	-0.099485	0.585542	0.336369
N45	N	-0.060078	0.619689	0.463810
C46	C	0.019160	0.418476	-0.160757
N47	N	0.049756	0.392560	-0.282454
C48	C	-0.704050	0.858217	0.162772
N49	N	-0.725950	0.828401	0.284782
C50	C	0.016618	0.578660	-0.161498
N51	N	0.046635	0.600611	-0.283245
H52	H	-0.537412	1.092014	-0.173304
C53	C	-0.562283	0.837832	-0.162122
N54	N	-0.550183	0.794013	-0.284309
C55	C	-0.722917	0.841036	-0.160351
N56	N	-0.759014	0.798285	-0.281724
C57	C	-0.543869	0.855650	0.162029
N58	N	-0.517903	0.825252	0.283991
C59	C	-0.243213	0.560391	0.176777
N60	N	-0.312064	0.575596	0.184024
C61	C	-0.516786	1.006026	0.335141
N62	N	-0.491064	0.978452	0.461021
H63	H	0.018626	0.584984	0.119664
C64	C	0.036455	0.436777	0.163435
N65	N	0.080064	0.424640	0.285933
C66	C	-0.711132	0.973518	-0.336107
N67	N	-0.745316	0.933938	-0.463312
C68	C	-0.666358	1.138322	0.167373
N69	N	-0.680536	1.207891	0.168530
C70	C	-0.241354	0.400772	0.174793
N71	N	-0.309630	0.368659	0.180630
H72	H	-0.189693	0.914079	0.468657
C73	C	-0.098328	0.425377	0.335498
N74	N	-0.058873	0.411804	0.462375
H75	H	-0.140591	0.400278	-0.291536
H76	H	-0.148767	0.543550	-0.292424
H77	H	-0.555637	0.986004	-0.291567
H78	H	-0.235294	0.391956	-0.178672
H79	H	-0.668930	1.023734	0.292574
C80	C	-0.685956	1.117430	-0.177485
N81	N	-0.701179	1.186247	-0.185232
H82	H	-0.517407	1.110031	0.178130
