data_functionalizedCrystal
_audit_creation_method	'MofGen! by Chris Wilmer'
_symmetry_space_group_name_H-M	'P1'
_symmetry_Int_Tables_number	1
_symmetry_cell_setting	triclinic
loop_
_symmetry_equiv_pos_as_xyz
  x,y,z
_cell_length_a	14.971486
_cell_length_b	14.971486
_cell_length_c	13.448316
_cell_angle_alpha	90.006811
_cell_angle_beta	90.001801
_cell_angle_gamma	83.614129
loop_
_atom_site_label
_atom_site_type_symbol
_atom_site_fract_x
_atom_site_fract_y
_atom_site_fract_z
O1	O	-1.186947	-0.116565	-0.082578
O2	O	-0.926547	-0.130524	-0.082605
O3	O	-1.063727	0.006656	-0.082584
O4	O	-1.049768	-0.253744	-0.082599
O5	O	-1.063709	0.006664	0.082800
O6	O	-0.926530	-0.130515	0.082779
O7	O	-1.186930	-0.116556	0.082806
Cu8	Cu	-1.056728	-0.123535	0.097893
Cu9	Cu	-1.056749	-0.123545	-0.097692
O10	O	-1.049751	-0.253736	0.082784
C11	C	-0.893214	-0.129895	0.000083
C12	C	-0.793917	-0.128024	0.000073
C13	C	-1.063094	0.039985	0.000108
C14	C	-1.061223	0.139282	0.000107
C15	C	-1.220263	-0.117185	0.000115
C16	C	-1.319561	-0.119056	0.000119
C17	C	-1.050384	-0.287065	0.000091
C18	C	-1.052254	-0.386362	0.000085
C19	C	-0.736692	-0.208614	0.000070
C20	C	-0.643392	-0.206850	0.000085
C21	C	-0.607320	-0.124497	0.000096
C22	C	-0.664552	-0.043902	0.000102
C23	C	-0.757850	-0.045666	0.000095
C24	C	-0.470090	-0.040231	0.000116
C25	C	-0.376786	-0.038466	0.000122
C26	C	-0.355632	-0.201415	0.000106
C27	C	-0.448930	-0.203179	0.000099
C28	C	-0.506156	-0.122584	0.000103
N29	N	-1.056721	-0.123527	0.235457
C30	C	-1.141812	0.196507	0.000116
C31	C	-1.140049	0.289807	0.000106
C32	C	-1.057696	0.325879	0.000093
C33	C	-0.977101	0.268646	0.000081
C34	C	-0.978865	0.175349	0.000084
C35	C	-0.973430	0.463109	0.000077
C36	C	-0.971665	0.556413	0.000076
C37	C	-1.134614	0.577567	0.000099
C38	C	-1.136378	0.484269	0.000102
C39	C	-1.055782	0.427043	0.000091
N40	N	-1.056764	-0.123545	-0.235257
C41	C	-1.117483	-0.062809	0.287507
C42	C	-1.117488	-0.062809	0.391610
C43	C	-1.056735	-0.123531	0.443662
C44	C	-0.995967	-0.184252	0.391605
C45	C	-0.995958	-0.184248	0.287504
C46	C	-0.995992	-0.184258	0.608585
C47	C	-0.996002	-0.184264	0.712693
C48	C	-1.117522	-0.062819	0.712692
C49	C	-1.117513	-0.062815	0.608591
C50	C	-1.056745	-0.123537	0.556541
H51	H	-0.766054	-0.275675	0.000060
H52	H	-1.203437	0.454903	0.000119
H53	H	-1.167001	-0.013377	0.755077
N54	N	-0.930465	-0.249755	0.768823
H55	H	-0.890839	-0.215505	0.812029
H56	H	-0.964745	-0.289410	0.811942
N57	N	-1.230640	0.157609	0.000135
H58	H	-1.235013	0.119361	-0.061167
H59	H	-1.234940	0.119427	0.061489
H60	H	-0.907800	0.416517	0.000066
N61	N	-0.581711	-0.293798	0.000100
H62	H	-0.542513	-0.296739	-0.061195
H63	H	-0.542604	-0.296660	0.061462
H64	H	-0.516682	0.025399	0.000121
H65	H	-0.946505	-0.233702	0.566209
N66	N	-0.625639	0.044918	0.000113
H67	H	-0.646499	0.080229	-0.061192
H68	H	-0.646509	0.080161	0.061464
H69	H	-0.946496	-0.233690	0.433991
N70	N	-0.891936	0.113635	0.000092
H71	H	-0.889032	0.074464	0.061402
H72	H	-0.889083	0.074502	-0.061254
N73	N	-0.819571	0.041258	0.000104
H74	H	-0.807960	0.077184	-0.061199
H75	H	-0.884122	0.027574	0.000139
H76	H	-1.200238	0.624165	0.000104
N77	N	-0.930428	-0.249739	0.231355
H78	H	-0.890789	-0.215486	0.188179
H79	H	-0.892003	-0.288194	0.280184
H80	H	-0.309033	-0.267039	0.000107
N81	N	-0.337875	0.050355	0.000132
H82	H	-0.388283	0.101144	0.000140
H83	H	-0.299625	0.054631	0.061443
N84	N	-0.888272	0.307543	0.000067
H85	H	-0.883914	0.345776	-0.061240
H86	H	-0.883954	0.345740	0.061417
H87	H	-1.205673	0.336396	0.000115
N88	N	-1.183056	0.002659	0.447736
H89	H	-1.172719	0.066169	0.429634
H90	H	-1.246499	-0.007862	0.429561
H91	H	-0.904606	0.585780	0.000082
N92	N	-1.183043	0.002671	0.552445
H93	H	-1.221539	0.041139	0.601213
H94	H	-1.148756	0.042271	0.509265
H95	H	-1.166958	-0.013366	0.245134
H96	H	-0.478296	-0.270239	0.000080
