data_functionalizedCrystal
_audit_creation_method	'MofGen! by Chris Wilmer'
_symmetry_space_group_name_H-M	'P1'
_symmetry_Int_Tables_number	1
_symmetry_cell_setting	triclinic
loop_
_symmetry_equiv_pos_as_xyz
  x,y,z
_cell_length_a	12.645331
_cell_length_b	25.639239
_cell_length_c	25.639234
_cell_angle_alpha	89.975416
_cell_angle_beta	89.981581
_cell_angle_gamma	90.037665
loop_
_atom_site_label
_atom_site_type_symbol
_atom_site_fract_x
_atom_site_fract_y
_atom_site_fract_z
Zn1	Zn	1.620532	-0.208199	-0.295623
Zn2	Zn	1.620362	-0.295626	-0.208187
Zn3	Zn	1.443260	-0.208205	-0.208200
Zn4	Zn	1.443163	-0.295603	-0.295590
O5	O	1.531829	-0.251908	-0.251900
O6	O	1.768857	-0.219803	-0.284032
O7	O	1.596838	-0.284042	-0.135023
O8	O	1.466887	-0.135039	-0.219816
O9	O	1.768732	-0.284036	-0.219794
O10	O	1.597128	-0.135034	-0.284045
O11	O	1.466722	-0.219814	-0.135033
O12	O	1.294900	-0.219792	-0.219784
O13	O	1.466723	-0.283996	-0.368760
O14	O	1.294829	-0.284003	-0.283989
O15	O	1.597035	-0.219781	-0.368784
O16	O	1.596745	-0.368788	-0.219762
O17	O	1.466558	-0.368771	-0.283977
C18	C	1.256400	-0.251896	-0.251885
C19	C	1.138569	-0.251903	-0.251891
C20	C	0.971015	-0.211322	-0.211722
C21	C	1.093574	-0.211427	-0.211545
C22	C	1.094011	-0.306979	-0.236834
C23	C	0.971412	-0.306757	-0.236560
C24	C	0.971422	-0.237932	-0.307271
C25	C	1.094029	-0.236702	-0.306964
C26	C	1.531651	-0.387751	-0.251876
C27	C	1.531672	-0.445865	-0.251883
C28	C	1.599794	-0.806224	-0.218520
C29	C	1.599836	-0.860828	-0.218527
O30	O	1.657571	-0.889062	-0.190135
N31	N	1.532016	-0.888147	-0.251934
C32	C	1.464158	-0.860859	-0.285341
O33	O	1.406476	-0.889110	-0.313757
C34	C	1.464123	-0.806256	-0.285336
C35	C	1.531940	-0.778940	-0.251923
C36	C	1.667607	-0.778908	-0.185110
C37	C	1.667564	-0.724308	-0.185103
C38	C	1.599709	-0.697023	-0.218505
C39	C	1.531897	-0.724339	-0.251915
C40	C	1.396271	-0.778968	-0.318744
C41	C	1.396242	-0.724361	-0.318737
C42	C	1.464059	-0.697045	-0.285324
C43	C	1.463999	-0.642454	-0.285310
N44	N	1.531819	-0.615135	-0.251903
C45	C	1.599674	-0.642420	-0.218500
C46	C	1.464238	-0.975530	-0.285349
C47	C	1.464266	-1.030132	-0.285351
C48	C	1.599946	-1.030098	-0.218538
C49	C	1.599911	-0.975494	-0.218534
C50	C	1.532058	-0.948211	-0.251941
C51	C	1.599579	-0.527755	-0.218487
C52	C	1.599527	-0.473149	-0.218481
C53	C	1.463851	-0.473188	-0.285295
C54	C	1.463899	-0.527789	-0.285300
C55	C	1.531771	-0.555071	-0.251894
O56	O	1.406296	-0.614186	-0.313690
O57	O	1.657356	-0.614162	-0.190094
C58	C	1.808334	-0.251921	-0.251915
C59	C	1.926165	-0.251927	-0.251922
C60	C	1.531887	-0.251885	-0.388273
C61	C	1.531911	-0.251875	-0.446387
C62	C	1.532037	-0.115535	-0.251935
C63	C	1.532126	-0.057421	-0.251950
C64	C	1.599691	-0.285276	-0.697568
C65	C	1.599679	-0.285287	-0.642964
O66	O	1.657259	-0.313743	-0.614716
N67	N	1.531934	-0.251850	-0.615661
C68	C	1.464188	-0.218404	-0.642965
O69	O	1.406564	-0.189965	-0.614728
C70	C	1.464195	-0.218396	-0.697569
C71	C	1.531952	-0.251831	-0.724869
C72	C	1.667442	-0.318709	-0.724868
C73	C	1.667454	-0.318697	-0.779469
C74	C	1.599715	-0.285252	-0.806769
C75	C	1.531964	-0.251819	-0.779469
C76	C	1.396444	-0.184953	-0.724872
C77	C	1.396456	-0.184948	-0.779479
C78	C	1.464213	-0.218383	-0.806779
C79	C	1.464238	-0.218363	-0.861370
N80	N	1.531983	-0.251800	-0.888673
C81	C	1.599722	-0.285245	-0.861373
C82	C	1.464178	-0.218424	-0.528295
C83	C	1.464176	-0.218428	-0.473692
C84	C	1.599666	-0.285312	-0.473694
C85	C	1.599673	-0.285304	-0.528298
C86	C	1.531923	-0.251860	-0.555597
C87	C	1.599743	-0.285217	-0.976038
C88	C	1.599753	-0.285201	-1.030643
C89	C	1.464259	-0.218319	-1.030636
C90	C	1.464253	-0.218333	-0.976035
C91	C	1.531999	-0.251786	-0.948738
O92	O	1.406685	-0.189923	-0.889652
O93	O	1.657327	-0.313684	-0.889616
C94	C	1.531833	-0.251894	-0.116057
C95	C	1.532014	-0.251756	-0.057944
H96	H	0.940553	-0.198472	-0.320963
H97	H	1.123161	-0.196172	-0.318317
H98	H	1.722868	-0.801117	-0.157910
Cl99	Cl	1.684819	-0.327360	-0.439363
H100	H	1.409012	-0.191184	-0.550519
Cl101	Cl	1.684903	-0.562043	-0.176489
H102	H	1.341285	-0.157713	-0.801704
Cl103	Cl	1.684911	-0.327272	-0.941729
H104	H	1.409014	-0.191196	-0.451469
Cl105	Cl	1.685171	-0.941160	-0.176528
H106	H	1.340989	-0.702150	-0.345943
H107	H	1.722625	-0.345925	-0.801691
H108	H	1.124662	-0.264119	-0.338518
H109	H	1.722789	-0.702070	-0.157896
H110	H	0.942417	-0.267507	-0.337224
Cl111	Cl	1.685249	-1.064408	-0.176545
H112	H	1.409094	-0.191101	-0.953807
Cl113	Cl	1.378558	-0.438878	-0.327287
H114	H	1.341267	-0.157727	-0.702654
Cl115	Cl	1.684789	-0.438813	-0.176473
Cl116	Cl	1.311022	-0.813295	-0.360758
Cl117	Cl	1.752612	-0.360759	-0.690557
H118	H	1.409033	-1.052368	-0.312555
H119	H	1.408680	-0.550031	-0.312509
Cl120	Cl	1.140097	-0.148371	-0.226115
Cl121	Cl	0.925570	-0.148074	-0.226135
Cl122	Cl	1.684855	-0.327340	-0.562612
H123	H	1.122852	-0.220676	-0.170529
Cl124	Cl	1.379107	-0.176276	-1.064967
H125	H	1.408974	-0.953318	-0.312552
H126	H	0.940166	-0.220468	-0.170947
H127	H	1.124663	-0.319052	-0.196805
Cl128	Cl	1.684940	-0.327237	-1.064960
H129	H	0.942764	-0.318626	-0.196097
Cl130	Cl	0.925596	-0.355049	-0.279789
H131	H	1.123153	-0.338041	-0.265194
