data_functionalizedCrystal
_audit_creation_method	'MofGen! by Chris Wilmer'
_symmetry_space_group_name_H-M	'P1'
_symmetry_Int_Tables_number	1
_symmetry_cell_setting	triclinic
loop_
_symmetry_equiv_pos_as_xyz
  x,y,z
_cell_length_a	10.654550
_cell_length_b	17.038272
_cell_length_c	9.130313
_cell_angle_alpha	89.998262
_cell_angle_beta	89.996220
_cell_angle_gamma	87.798229
loop_
_atom_site_label
_atom_site_type_symbol
_atom_site_fract_x
_atom_site_fract_y
_atom_site_fract_z
O1	O	1.678036	0.109874	-0.121922
O2	O	1.313530	0.120343	-0.121899
O3	O	1.493617	0.001281	-0.121899
O4	O	1.497950	0.228936	-0.121923
O5	O	1.493615	0.001284	0.121700
O6	O	1.313528	0.120346	0.121700
O7	O	1.678034	0.109878	0.121676
Cu8	Cu	1.495781	0.115112	0.143931
Cu9	Cu	1.495783	0.115108	-0.144153
O10	O	1.497948	0.228939	0.121676
C11	C	1.266660	0.119576	-0.000097
C12	C	1.127003	0.117276	-0.000087
C13	C	1.054026	0.187378	-0.000116
C14	C	0.922804	0.185212	-0.000141
C15	C	0.937548	0.042837	-0.000115
C16	C	1.068767	0.045004	-0.000080
C17	C	1.112262	0.259650	-0.000124
C18	C	1.039285	0.329758	-0.000154
C19	C	0.908063	0.327592	-0.000179
C20	C	0.849818	0.255319	-0.000174
C21	C	1.489675	-0.027867	-0.000100
C22	C	1.477918	-0.114726	-0.000099
C23	C	1.585862	-0.164237	-0.000105
C24	C	1.574808	-0.245850	-0.000118
C25	C	1.455808	-0.277949	-0.000115
C26	C	1.347856	-0.228431	-0.000114
C27	C	1.358911	-0.146821	-0.000111
C28	C	1.416750	-0.523925	-0.000133
C29	C	1.405702	-0.605542	-0.000131
C30	C	1.632656	-0.622955	-0.000137
C31	C	1.643701	-0.541342	-0.000126
C32	C	1.535749	-0.491831	-0.000133
C33	C	1.444505	-0.361370	-0.000124
C34	C	1.547052	-0.408412	-0.000134
C35	C	1.724905	0.110645	-0.000129
C36	C	1.864562	0.112944	-0.000148
C37	C	1.501889	0.258088	-0.000126
C38	C	1.513646	0.344947	-0.000136
N39	N	1.495788	0.115114	0.346553
N40	N	1.495785	0.115100	-0.346776
C41	C	1.575554	0.062412	0.423205
C42	C	1.575550	0.062403	0.576542
C43	C	1.416010	0.167805	0.576561
C44	C	1.416009	0.167810	0.423227
C45	C	1.655334	0.009716	0.346531
C46	C	1.735107	-0.042990	0.423183
C47	C	1.735103	-0.042999	0.576520
C48	C	1.655325	0.009698	0.653205
H49	H	1.128187	-0.012079	-0.000060
F50	F	1.673696	-0.374248	-0.000146
F51	F	1.819992	-0.099098	0.658097
F52	F	1.655316	0.009677	0.816401
H53	H	1.351060	0.210709	0.639008
H54	H	1.271011	-0.106509	-0.000107
F55	F	1.712519	-0.130083	-0.000093
H56	H	1.219109	0.261422	-0.000110
H57	H	1.351055	0.210724	0.360817
F58	F	1.655348	0.009725	0.183337
F59	F	1.101275	0.406671	-0.000145
H60	H	0.890114	-0.016004	-0.000135
H61	H	1.800053	-0.085898	0.360739
F62	F	0.830399	0.402205	-0.000197
H63	H	0.742968	0.253562	-0.000172
H64	H	1.662708	-0.286159	-0.000119
F65	F	1.770357	-0.507186	-0.000166
H66	H	1.720544	-0.663275	-0.000135
H67	H	1.308794	-0.631674	-0.000105
H68	H	1.328847	-0.483623	-0.000138
H69	H	1.250963	-0.254573	-0.000121
F70	F	1.317860	-0.395540	-0.000127
