data_functionalizedCrystal
_audit_creation_method	'MofGen! by Chris Wilmer'
_symmetry_space_group_name_H-M	'P1'
_symmetry_Int_Tables_number	1
_symmetry_cell_setting	triclinic
loop_
_symmetry_equiv_pos_as_xyz
  x,y,z
_cell_length_a	14.446369
_cell_length_b	14.446369
_cell_length_c	14.446369
_cell_angle_alpha	60.000250
_cell_angle_beta	90.002026
_cell_angle_gamma	59.999699
loop_
_atom_site_label
_atom_site_type_symbol
_atom_site_fract_x
_atom_site_fract_y
_atom_site_fract_z
Zr1	Zr	0.891780	1.013186	-0.121487
O2	O	0.743973	1.206305	-0.269303
O3	O	0.937090	0.820067	-0.076168
O4	O	0.937092	1.013176	-0.269287
O5	O	0.743970	1.013205	0.076145
O6	O	1.089429	1.013167	-0.269281
O7	O	0.743971	1.013197	-0.076184
O8	O	1.089425	0.667731	0.076174
O9	O	0.743974	1.358641	-0.269310
O10	O	1.070103	0.899493	-0.056843
O11	O	0.956415	0.899506	0.056835
O12	O	0.956417	1.126866	-0.170538
O13	O	0.842730	1.126879	-0.056861
Zr14	Zr	1.134740	1.013186	0.121469
Zr15	Zr	1.134740	1.013173	-0.121478
Zr16	Zr	0.891780	1.013199	0.121460
Zr17	Zr	0.891782	1.256144	-0.121498
Zr18	Zr	1.134738	0.770228	0.121480
O19	O	1.089430	1.206305	0.076149
O20	O	1.089431	1.206286	-0.269290
O21	O	0.743972	1.206324	0.076136
O22	O	1.282547	0.820067	0.269284
O23	O	1.282548	0.820048	-0.076155
O24	O	0.937089	0.820086	0.269272
O25	O	1.282549	1.013167	-0.076164
O26	O	1.089428	1.013197	0.269268
O27	O	0.937091	1.013205	0.269263
O28	O	1.282549	1.013176	0.076165
O29	O	0.937095	1.358630	-0.269303
O30	O	1.089425	0.667742	0.269284
O31	O	1.282546	0.667731	0.269291
O32	O	1.282546	0.667721	0.076181
O33	O	0.743974	1.358652	-0.076199
O34	O	0.937095	1.358641	-0.076192
O35	O	1.070102	0.899506	0.170520
O36	O	1.183790	0.899493	0.056843
O37	O	1.070105	1.126866	-0.056853
O38	O	0.956417	1.126879	0.056824
C39	C	1.013257	0.709283	0.000005
C40	C	1.013256	0.606141	0.000009
C41	C	0.941897	0.459139	0.072034
C42	C	0.941509	0.566759	0.071743
C43	C	0.960950	0.655133	-0.123527
C44	C	0.960414	0.547900	-0.123153
C45	C	1.136972	0.372679	0.050459
C46	C	1.136790	0.478830	0.052979
C47	C	0.709354	1.013203	-0.000020
C48	C	0.606211	1.013208	-0.000024
C49	C	0.387843	1.156597	-0.071371
C50	C	0.495075	1.156694	-0.071772
C51	C	0.602887	0.941974	-0.052319
C52	C	0.495118	0.942884	-0.052842
C53	C	0.496481	0.939941	0.123708
C54	C	0.602450	0.942643	0.123513
C55	C	1.317166	1.013169	0.000002
C56	C	1.420309	1.013164	0.000006
C57	C	1.013260	1.013169	-0.303899
C58	C	1.013260	1.013164	-0.407036
C59	C	1.013263	1.317089	-0.000023
C60	C	1.013264	1.420231	-0.000028
C61	C	1.085319	0.869775	-0.482009
C62	C	1.085007	0.869678	-0.374680
C63	C	0.889731	1.084398	-0.481604
C64	C	0.890126	1.083488	-0.588462
C65	C	1.063733	1.086432	-0.590030
C66	C	1.066233	1.083729	-0.481358
C67	C	1.013259	1.013203	0.303880
C68	C	1.013259	1.013208	0.407017
C69	C	1.317163	0.709266	0.000016
C70	C	1.420305	0.606118	0.000024
C71	C	1.013257	0.709299	0.303894
C72	C	1.013256	0.606163	0.407036
C73	C	1.317163	0.709283	0.303905
C74	C	1.420305	0.606141	0.407051
C75	C	0.709357	1.317089	-0.303924
C76	C	0.606215	1.420231	-0.407070
C77	C	0.709357	1.317106	-0.000034
C78	C	0.606215	1.420254	-0.000043
C79	C	1.013263	1.317073	-0.303913
C80	C	1.013264	1.420209	-0.407055
C81	C	1.638673	0.459797	0.071363
C82	C	1.531442	0.566726	0.071765
C83	C	1.423632	0.479262	0.052327
C84	C	1.531400	0.371879	0.052849
C85	C	1.530029	0.546849	-0.123710
C86	C	1.424061	0.655327	-0.123514
C87	C	0.941205	0.459853	0.482023
C88	C	0.941511	0.566773	0.374689
C89	C	1.136787	0.479303	0.481600
C90	C	1.136399	0.371928	0.588464
C91	C	0.962793	0.546911	0.590035
C92	C	0.960287	0.655381	0.481359
C93	C	1.495290	0.459806	0.625418
C94	C	1.387956	0.566750	0.518183
C95	C	1.494847	0.479288	0.410371
C96	C	1.601711	0.371890	0.518142
C97	C	1.603326	0.546834	0.516796
C98	C	1.494650	0.655327	0.410824
H99	H	1.180674	0.278935	0.140027
H100	H	1.175867	0.439231	0.143990
Cl101	Cl	1.223810	0.325664	0.709792
Cl102	Cl	1.493675	0.321383	0.710303
H103	H	1.050001	0.813431	-0.320893
H104	H	0.849037	1.034928	-0.430000
Cl105	Cl	1.304172	0.704695	0.520683
Cl106	Cl	0.801863	0.514267	0.018504
H107	H	0.850008	0.497097	0.479683
H108	H	0.975890	0.370185	0.480993
H109	H	1.194444	0.500326	0.005953
Cl110	Cl	1.302793	0.513603	-0.024059
Cl111	Cl	0.819764	0.795072	0.401977
H112	H	1.175970	0.813789	-0.320401
H113	H	1.176518	0.813477	-0.479664
H114	H	0.849718	1.032871	-0.588192
H115	H	0.523919	0.834280	0.177141
H116	H	1.009037	0.525926	-0.179762
H117	H	1.153324	1.040528	-0.594140
Cl118	Cl	1.609704	0.607909	0.594031
H119	H	1.522086	0.501532	0.332110
Cl120	Cl	1.607247	0.607950	-0.191159
Cl121	Cl	1.031767	0.783290	-0.480405
H122	H	1.693658	0.370131	0.162065
H123	H	1.334156	0.529303	0.520627
Cl124	Cl	1.301849	0.704923	-0.212526
Cl125	Cl	0.419246	1.010790	0.191164
H126	H	1.192808	0.501549	0.508832
Cl127	Cl	1.415154	0.419778	0.407063
H128	H	1.443254	0.745787	0.411386
Cl129	Cl	1.219453	0.332569	-0.030190
Cl130	Cl	0.802726	1.245959	-0.709796
H131	H	0.870788	0.747443	-0.164220
H132	H	1.010433	0.683913	-0.179540
Cl133	Cl	0.601680	1.022810	0.183846
Cl134	Cl	0.492585	1.242981	-0.017619
H135	H	1.504746	0.341924	0.004222
H136	H	0.869381	0.588601	-0.163570
Cl137	Cl	1.535230	0.508894	0.212653
H138	H	0.833709	1.189899	-0.508841
H139	H	1.177478	0.440741	0.429996
H140	H	0.850546	0.656126	0.320414
H141	H	0.605022	0.991445	-0.142484
H142	H	0.333888	1.212894	-0.036471
Cl143	Cl	0.824473	0.608015	0.596385
H144	H	1.007319	0.687505	0.506881
H145	H	1.157245	1.031779	-0.429935
Cl146	Cl	1.601272	0.231785	0.595864
H147	H	0.332859	1.212614	-0.162072
Cl148	Cl	0.491296	1.243521	-0.212659
H149	H	1.581747	0.281126	0.143877
Cl150	Cl	0.993617	1.245355	-0.520778
Cl151	Cl	0.800625	0.703879	0.017691
Cl152	Cl	1.534065	0.704921	0.288618
Cl153	Cl	0.983087	1.249567	-0.710795
H154	H	1.533056	0.656074	0.036687
H155	H	1.492965	0.497034	0.679381
Cl156	Cl	1.043431	0.508636	0.710806
H157	H	1.680294	0.341922	0.491494
H158	H	1.681546	0.522033	0.489355
H159	H	0.976595	0.530052	0.162711
H160	H	0.976523	0.529302	0.320906
Cl161	Cl	1.420344	0.419728	0.191536
Cl162	Cl	1.721981	0.517290	0.017479
Cl163	Cl	0.723722	0.779087	0.024077
H164	H	0.976797	0.370274	0.163228
Cl165	Cl	1.424849	0.795043	-0.183847
H166	H	0.444774	0.993500	-0.143871
H167	H	1.502580	0.522058	-0.177135
H168	H	0.521771	0.837649	-0.004216
Cl169	Cl	1.198779	0.231807	0.588051
H170	H	0.681608	0.837962	0.181168
