data_functionalizedCrystal
_audit_creation_method	'MofGen! by Chris Wilmer'
_symmetry_space_group_name_H-M	'P1'
_symmetry_Int_Tables_number	1
_symmetry_cell_setting	triclinic
loop_
_symmetry_equiv_pos_as_xyz
  x,y,z
_cell_length_a	21.295419
_cell_length_b	21.295417
_cell_length_c	17.640968
_cell_angle_alpha	78.765192
_cell_angle_beta	78.778187
_cell_angle_gamma	90.045308
loop_
_atom_site_label
_atom_site_type_symbol
_atom_site_fract_x
_atom_site_fract_y
_atom_site_fract_z
Zn1	Zn	1.034311	-0.178377	-0.446934
Zn2	Zn	1.534311	0.321623	0.053066
Zn3	Zn	1.012930	-0.304942	-0.314736
Zn4	Zn	1.512930	0.195058	0.185264
Zn5	Zn	0.907755	-0.199714	-0.314761
Zn6	Zn	1.407755	0.300286	0.185239
Zn7	Zn	0.928995	-0.283648	-0.446880
Zn8	Zn	1.428995	0.216352	0.053120
O9	O	0.970998	-0.241670	-0.380828
O10	O	1.470998	0.258330	0.119172
O11	O	1.119566	-0.195148	-0.429410
O12	O	1.619566	0.304852	0.070590
O13	O	0.981141	-0.308824	-0.204121
O14	O	1.481141	0.191176	0.295879
O15	O	0.924602	-0.108788	-0.332327
O16	O	1.424602	0.391212	0.167673
O17	O	1.103857	-0.288135	-0.332284
O18	O	1.603857	0.211865	0.167716
O19	O	1.017582	-0.093112	-0.429434
O20	O	1.517582	0.406888	0.070566
O21	O	0.903869	-0.231513	-0.204139
O22	O	1.403869	0.268487	0.295861
O23	O	0.822481	-0.210866	-0.332274
O24	O	1.322481	0.289134	0.167726
O25	O	0.960803	-0.251842	-0.557505
O26	O	1.460803	0.248158	-0.057505
O27	O	0.838086	-0.272532	-0.429342
O28	O	1.338086	0.227468	0.070658
O29	O	1.038178	-0.174500	-0.557545
O30	O	1.538178	0.325500	-0.057545
O31	O	1.001737	-0.390212	-0.332232
O32	O	1.501737	0.109788	0.167768
O33	O	0.940070	-0.374567	-0.429318
O34	O	1.440070	0.125433	0.070682
C35	C	0.807442	-0.241704	-0.380806
C36	C	1.307442	0.258296	0.119194
C37	C	0.737476	-0.241730	-0.380815
C38	C	1.237476	0.258270	0.119185
C39	C	0.712824	-0.193365	-0.431466
C40	C	1.212824	0.306635	0.068534
C41	C	0.647082	-0.193348	-0.431469
C42	C	1.147082	0.306652	0.068531
C43	C	0.605996	-0.241705	-0.380829
C44	C	1.105996	0.258295	0.119171
C45	C	0.630654	-0.290075	-0.330168
C46	C	1.130654	0.209925	0.169832
C47	C	0.696394	-0.290087	-0.330161
C48	C	1.196394	0.209913	0.169839
N49	N	0.501726	-0.297779	-0.374651
N50	N	1.001726	0.202221	0.125349
N51	N	0.439276	-0.297764	-0.374663
N52	N	0.939276	0.202236	0.125337
C53	C	0.407924	-0.241670	-0.380847
C54	C	0.907924	0.258330	0.119153
N55	N	0.441383	-0.185587	-0.387034
N56	N	0.941383	0.314413	0.112966
N57	N	0.503839	-0.185601	-0.387027
N58	N	1.003839	0.314399	0.112973
C59	C	0.534711	-0.241697	-0.380831
C60	C	1.034711	0.258303	0.119169
C61	C	0.311987	-0.193282	-0.431504
C62	C	0.811987	0.306718	0.068496
C63	C	0.246243	-0.193265	-0.431502
C64	C	0.746243	0.306735	0.068498
C65	C	0.229817	-0.289997	-0.330205
C66	C	0.729817	0.210003	0.169795
C67	C	0.295559	-0.290009	-0.330203
C68	C	0.795559	0.209991	0.169797
C69	C	0.336641	-0.241652	-0.380857
C70	C	0.836641	0.258348	0.119143
C71	C	0.970908	-0.405229	-0.380784
C72	C	1.470908	0.094771	0.119216
C73	C	0.970932	-0.475195	-0.380792
C74	C	1.470932	0.024805	0.119208
C75	C	1.003085	-0.516179	-0.330291
C76	C	1.503085	-0.016179	0.169709
C77	C	1.003118	-0.581919	-0.330309
C78	C	1.503118	-0.081919	0.169691
C79	C	0.970984	-0.606673	-0.380819
C80	C	1.470984	-0.106673	0.119181
C81	C	0.938829	-0.565680	-0.431330
C82	C	1.438829	-0.065680	0.068670
C83	C	0.938803	-0.499941	-0.431316
C84	C	1.438803	0.000059	0.068684
N85	N	0.916886	-0.708984	-0.386838
N86	N	1.416886	-0.208984	0.113162
N87	N	0.916912	-0.771434	-0.386846
N88	N	1.416912	-0.271434	0.113154
C89	C	0.971062	-0.804741	-0.380864
C90	C	1.471062	-0.304741	0.119136
N91	N	1.025183	-0.773241	-0.374858
N92	N	1.525183	-0.273241	0.125142
N93	N	1.025156	-0.710786	-0.374846
N94	N	1.525156	-0.210786	0.125154
C95	C	0.971009	-0.677955	-0.380840
C96	C	1.471009	-0.177955	0.119160
C97	C	1.003253	-0.917007	-0.330380
C98	C	1.503253	-0.417007	0.169620
C99	C	1.003288	-0.982747	-0.330403
C100	C	1.503288	-0.482747	0.169597
C101	C	0.938992	-0.966508	-0.431420
C102	C	1.438992	-0.466508	0.068580
C103	C	0.938964	-0.900769	-0.431401
C104	C	1.438964	-0.400769	0.068599
C105	C	0.971093	-0.876023	-0.380877
C106	C	1.471093	-0.376023	0.119123
C107	C	1.135192	-0.241636	-0.380850
C108	C	1.635192	0.258364	0.119150
C109	C	1.205161	-0.241622	-0.380860
C110	C	1.705161	0.258378	0.119140
C111	C	1.004245	-0.208415	-0.587009
C112	C	1.504245	0.291585	-0.087009
C113	C	1.018413	-0.194244	-0.674871
C114	C	1.518413	0.305756	-0.174871
C115	C	0.971107	-0.077470	-0.380889
C116	C	1.471107	0.422530	0.119111
C117	C	0.971154	-0.007497	-0.380915
C118	C	1.471154	0.492503	0.119085
C119	C	0.863607	-0.348983	-0.963736
C120	C	1.363607	0.151017	-0.463736
C121	C	0.876933	-0.335659	-1.046296
C122	C	1.376933	0.164341	-0.546296
C123	C	0.957497	-0.255130	-1.046327
C124	C	1.457497	0.244870	-0.546327
C125	C	0.944176	-0.268444	-0.963765
C126	C	1.444176	0.231556	-0.463765
C127	C	0.897231	-0.315372	-0.922476
C128	C	1.397231	0.184628	-0.422476
C129	C	0.977799	-0.234834	-0.922505
C130	C	1.477799	0.265166	-0.422505
C131	C	0.964481	-0.248150	-0.839951
C132	C	1.464481	0.251850	-0.339951
C133	C	0.917539	-0.295077	-0.798656
C134	C	1.417539	0.204923	-0.298656
C135	C	0.883912	-0.328689	-0.839922
C136	C	1.383912	0.171311	-0.339922
C137	C	1.024747	-0.187909	-0.963796
C138	C	1.524747	0.312091	-0.463796
C139	C	1.058371	-0.154299	-0.922536
C140	C	1.558371	0.345701	-0.422536
C141	C	1.045049	-0.167612	-0.839980
C142	C	1.545049	0.332388	-0.339980
C143	C	0.998108	-0.214539	-0.798686
C144	C	1.498108	0.285461	-0.298686
C145	C	1.078676	-0.134000	-0.798715
C146	C	1.578676	0.366000	-0.298715
C147	C	1.065358	-0.147317	-0.716160
C148	C	1.565358	0.352683	-0.216160
C149	C	0.984789	-0.227855	-0.716131
C150	C	1.484789	0.272145	-0.216131
C151	C	0.937916	-0.274749	-0.175448
C152	C	1.437916	0.225251	0.324552
C153	C	0.923870	-0.288743	-0.087587
C154	C	1.423870	0.211257	0.412413
H155	H	0.746269	-0.153989	-0.472712
H156	H	1.246269	0.346011	0.027288
C157	C	1.012256	-0.517545	-0.196466
C158	C	1.512256	-0.017545	0.303534
C159	C	1.038411	-0.488981	-0.274763
C160	C	1.538411	0.011019	0.225237
H161	H	1.034070	-0.500756	-0.162189
H162	H	1.534070	-0.000756	0.337811
H163	H	0.968099	-0.508690	-0.184850
H164	H	1.468099	-0.008690	0.315150
H165	H	1.016873	-0.562563	-0.189259
H166	H	1.516873	-0.062563	0.310741
H167	H	1.033790	-0.443963	-0.281971
H168	H	1.533790	0.056037	0.218029
H169	H	1.082579	-0.497831	-0.286383
H170	H	1.582579	0.002169	0.213617
H171	H	0.995722	-0.216923	-1.079956
H172	H	1.495722	0.283077	-0.579956
C173	C	0.553596	-0.150386	-0.476459
C174	C	1.053596	0.349614	0.023541
C175	C	0.619974	-0.140183	-0.487151
C176	C	1.119974	0.359817	0.012849
H177	H	0.536863	-0.117562	-0.510831
H178	H	1.036863	0.382438	-0.010831
H179	H	0.544639	-0.190841	-0.487926
H180	H	1.044639	0.309159	0.012074
H181	H	0.534269	-0.149663	-0.423368
H182	H	1.034269	0.350337	0.076632
H183	H	0.639302	-0.140910	-0.540240
H184	H	1.139302	0.359090	-0.040240
H185	H	0.628936	-0.099718	-0.475689
H186	H	1.128936	0.400282	0.024311
H187	H	0.716464	-0.329473	-0.288913
H188	H	1.216464	0.170527	0.211087
H189	H	0.825365	-0.387181	-0.930116
H190	H	1.325365	0.112819	-0.430116
C191	C	1.059828	-0.228715	-1.082038
C192	C	1.559828	0.271285	-0.582038
C193	C	1.039389	-0.173270	-1.054542
C194	C	1.539389	0.326730	-0.554542
H195	H	1.068863	-0.219676	-1.138060
H196	H	1.568863	0.280324	-0.638060
H197	H	1.097426	-0.242602	-1.063361
H198	H	1.597426	0.257398	-0.563361
H199	H	1.027051	-0.261466	-1.063349
H200	H	1.527051	0.238534	-0.563349
H201	H	1.072168	-0.140520	-1.073226
H202	H	1.572168	0.359480	-0.573226
H203	H	1.001786	-0.159373	-1.073227
H204	H	1.501786	0.340627	-0.573227
H205	H	1.029304	-0.615294	-0.289185
H206	H	1.529304	-0.115294	0.210815
C207	C	0.856010	-0.825176	-0.442262
C208	C	1.356010	-0.325176	0.057738
C209	C	0.903613	-0.855714	-0.486905
C210	C	1.403613	-0.355714	0.013095
H211	H	0.834189	-0.797358	-0.476533
H212	H	1.334189	-0.297358	0.023467
H213	H	0.826408	-0.856421	-0.407808
H214	H	1.326408	-0.356421	0.092192
H215	H	0.875152	-0.801030	-0.412179
H216	H	1.375152	-0.301030	0.087821
H217	H	0.884471	-0.879863	-0.516984
H218	H	1.384471	-0.379863	-0.016984
H219	H	0.933220	-0.824464	-0.521373
H220	H	1.433220	-0.324464	-0.021373
C221	C	1.086147	-0.844735	-0.319475
C222	C	1.586147	-0.344735	0.180525
C223	C	1.038575	-0.889800	-0.274852
C224	C	1.538575	-0.389800	0.225148
H225	H	1.107950	-0.827938	-0.285193
H226	H	1.607950	-0.327938	0.214807
H227	H	1.115770	-0.864779	-0.353944
H228	H	1.615770	-0.364779	0.146056
H229	H	1.066981	-0.810918	-0.349542
H230	H	1.566981	-0.310918	0.150458
H231	H	1.057741	-0.923619	-0.244790
H232	H	1.557741	-0.423619	0.255210
H233	H	1.008948	-0.869755	-0.240370
H234	H	1.508948	-0.369755	0.259630
H235	H	0.946547	-0.266053	-0.682511
H236	H	1.446547	0.233947	-0.182511
H237	H	0.912666	-0.585840	-0.472457
H238	H	1.412666	-0.085840	0.027543
C239	C	0.958329	-0.330188	-0.680388
C240	C	1.458329	0.169812	-0.180388
C241	C	0.902896	-0.309716	-0.707911
C242	C	1.402896	0.190284	-0.207911
H243	H	0.949288	-0.339221	-0.624366
H244	H	1.449288	0.160779	-0.124366
H245	H	0.972194	-0.367794	-0.699048
H246	H	1.472194	0.132206	-0.199048
H247	H	0.991095	-0.297425	-0.699077
H248	H	1.491095	0.202575	-0.199077
H249	H	0.870132	-0.342480	-0.689226
H250	H	1.370132	0.157520	-0.189226
H251	H	0.889022	-0.272105	-0.689243
H252	H	1.389022	0.227895	-0.189243
H253	H	0.226173	-0.153876	-0.472747
H254	H	0.726173	0.346124	0.027253
H255	H	0.912619	-0.466571	-0.472441
H256	H	1.412619	0.033429	0.027559
H257	H	0.345437	-0.153904	-0.472745
H258	H	0.845437	0.346096	0.027255
H259	H	1.029476	-1.016116	-0.289281
H260	H	1.529476	-0.516116	0.210719
H261	H	0.912831	-0.986662	-0.472550
H262	H	1.412831	-0.486662	0.027450
H263	H	1.116903	-0.095796	-0.832344
H264	H	1.616903	0.404204	-0.332344
H265	H	1.096595	-0.116092	-0.956165
H266	H	1.596595	0.383908	-0.456165
C267	C	0.805626	-0.406986	-0.848175
C268	C	1.305626	0.093014	-0.348175
C269	C	0.832323	-0.380288	-0.794529
C270	C	1.332323	0.119712	-0.294529
H271	H	0.773787	-0.438847	-0.820150
H272	H	1.273787	0.061153	-0.320150
H273	H	0.786742	-0.374377	-0.880370
H274	H	1.286742	0.125623	-0.380370
H275	H	0.838243	-0.425850	-0.880381
H276	H	1.338243	0.074150	-0.380381
H277	H	0.799707	-0.361420	-0.762327
H278	H	1.299707	0.138580	-0.262327
H279	H	0.851207	-0.412903	-0.762321
H280	H	1.351207	0.087097	-0.262321
C281	C	0.795952	-0.416606	-1.037972
C282	C	1.295952	0.083394	-0.537972
C283	C	0.839968	-0.372606	-1.091650
C284	C	1.339968	0.127394	-0.591650
H285	H	0.773131	-0.439412	-1.065973
H286	H	1.273131	0.060588	-0.565973
H287	H	0.818169	-0.445872	-1.005767
H288	H	1.318169	0.054128	-0.505767
H289	H	0.766697	-0.394370	-1.005780
H290	H	1.266697	0.105630	-0.505780
H291	H	0.869226	-0.394842	-1.123838
H292	H	1.369226	0.105158	-0.623838
H293	H	0.817749	-0.343336	-1.123868
H294	H	1.317749	0.156664	-0.623868
C295	C	1.146327	-0.066364	-0.724475
C296	C	1.646327	0.433636	-0.224475
C297	C	1.102313	-0.110369	-0.670801
C298	C	1.602313	0.389631	-0.170801
H299	H	1.169139	-0.043553	-0.696470
H300	H	1.669139	0.456447	-0.196470
H301	H	1.175584	-0.088592	-0.756663
H302	H	1.675584	0.411408	-0.256663
H303	H	1.124104	-0.037097	-0.756684
H304	H	1.624104	0.462903	-0.256684
H305	H	1.124536	-0.139640	-0.638596
H306	H	1.624536	0.360360	-0.138596
H307	H	1.073052	-0.088141	-0.638600
H308	H	1.573052	0.411859	-0.138600
H309	H	0.196365	-0.329370	-0.288972
H310	H	0.696365	0.170630	0.211028
H311	H	0.315631	-0.329395	-0.288960
H312	H	0.815631	0.170605	0.211040
C313	C	0.522587	-0.333011	-0.285213
C314	C	1.022587	0.166989	0.214787
C315	C	0.585495	-0.343233	-0.274507
C316	C	1.085495	0.156767	0.225493
H317	H	0.494709	-0.365832	-0.250850
H318	H	0.994709	0.134168	0.249150
H319	H	0.510004	-0.292556	-0.273742
H320	H	1.010004	0.207444	0.226258
H321	H	0.520382	-0.333725	-0.338308
H322	H	1.020382	0.166275	0.161692
H323	H	0.587700	-0.342514	-0.221413
H324	H	1.087700	0.157486	0.278587
H325	H	0.598081	-0.383699	-0.285972
H326	H	1.098081	0.116301	0.214028
