data_functionalizedCrystal
_audit_creation_method	'MofGen! by Chris Wilmer'
_symmetry_space_group_name_H-M	'P1'
_symmetry_Int_Tables_number	1
_symmetry_cell_setting	triclinic
loop_
_symmetry_equiv_pos_as_xyz
  x,y,z
_cell_length_a	10.489741
_cell_length_b	14.044220
_cell_length_c	8.965430
_cell_angle_alpha	89.992017
_cell_angle_beta	89.999363
_cell_angle_gamma	88.864026
loop_
_atom_site_label
_atom_site_type_symbol
_atom_site_fract_x
_atom_site_fract_y
_atom_site_fract_z
O1	O	-1.707626	-0.133839	0.123951
O2	O	-1.337704	-0.146402	0.123975
O3	O	-1.517112	-0.002098	0.123948
O4	O	-1.528217	-0.278143	0.123977
O5	O	-1.517100	-0.002087	-0.124130
O6	O	-1.337691	-0.146390	-0.124104
O7	O	-1.707613	-0.133828	-0.124128
Cu8	Cu	-1.522651	-0.140108	-0.146768
Cu9	Cu	-1.522666	-0.140121	0.146614
O10	O	-1.528205	-0.278132	-0.124102
C11	C	-1.290070	-0.145447	-0.000062
C12	C	-1.148152	-0.142609	-0.000053
C13	C	-1.512245	0.033255	-0.000091
C14	C	-1.497745	0.138580	-0.000092
C15	C	-1.755247	-0.134782	-0.000088
C16	C	-1.897165	-0.137621	-0.000087
C17	C	-1.070700	-0.050792	-0.000077
C18	C	-0.982979	-0.094171	0.122240
C19	C	-0.983002	-0.094182	-0.122346
C20	C	-1.062300	-0.186025	0.122365
C21	C	-1.062332	-0.186023	-0.122331
C22	C	-0.974645	-0.229468	0.000016
C23	C	-1.533072	-0.313485	-0.000059
C24	C	-1.547572	-0.418810	-0.000048
N25	N	-1.522649	-0.140098	-0.353117
C26	C	-1.471237	0.331422	-0.000069
C27	C	-1.574075	0.388354	-0.000071
C28	C	-1.559325	0.495658	-0.000058
C29	C	-1.485985	0.224108	-0.000082
N30	N	-1.522677	-0.140124	0.352964
C31	C	-1.605841	-0.073503	0.450208
C32	C	-1.640077	-0.159444	0.549685
C33	C	-1.488471	-0.054164	0.549614
C34	C	-1.556974	-0.226109	0.450252
C35	C	-1.405313	-0.120773	0.450172
C36	C	-1.439506	-0.206776	0.549604
H37	H	-1.112734	0.024687	0.000068
F38	F	-1.450664	0.040839	0.606655
F39	F	-0.937354	-0.043378	-0.257513
H40	H	-1.673194	0.356506	0.000023
F41	F	-1.341688	0.373047	-0.000053
F42	F	-1.697854	0.000037	0.393159
H43	H	-0.948029	-0.055326	0.225645
H44	H	-1.739317	-0.175808	0.593396
H45	H	-1.369167	-0.263167	0.592971
F46	F	-1.594930	-0.321135	0.393448
F47	F	-1.275632	-0.099351	0.392992
H48	H	-1.097310	-0.224836	-0.225740
H49	H	-1.097071	-0.224849	0.225891
H50	H	-0.932885	-0.305027	0.000090
