data_functionalizedCrystal
_audit_creation_method	'MofGen! by Chris Wilmer'
_symmetry_space_group_name_H-M	'P1'
_symmetry_Int_Tables_number	1
_symmetry_cell_setting	triclinic
loop_
_symmetry_equiv_pos_as_xyz
  x,y,z
_cell_length_a	14.044220
_cell_length_b	11.792241
_cell_length_c	13.101039
_cell_angle_alpha	86.623482
_cell_angle_beta	86.330374
_cell_angle_gamma	91.308853
loop_
_atom_site_label
_atom_site_type_symbol
_atom_site_fract_x
_atom_site_fract_y
_atom_site_fract_z
O1	O	-0.124790	1.524822	-0.085112
O2	O	-0.138185	1.195740	-0.085135
O3	O	0.006522	1.355341	-0.085119
O4	O	-0.269498	1.365220	-0.085128
O5	O	-0.003878	1.343891	0.085309
O6	O	-0.148585	1.184290	0.085293
O7	O	-0.135190	1.513372	0.085317
Zn8	Zn	-0.143539	1.347013	0.112364
Zn9	Zn	-0.129837	1.362099	-0.112183
O10	O	-0.279897	1.353771	0.085301
C11	C	-0.142544	1.147645	0.000076
C12	C	-0.140024	1.021396	0.000067
C13	C	-0.135395	0.790247	0.000096
C14	C	-0.137967	0.918875	0.000080
C15	C	-0.310034	1.363820	0.000086
C16	C	-0.415326	1.376719	0.000083
C17	C	-0.608109	1.400301	0.000089
C18	C	-0.665272	1.308817	0.000083
C19	C	-0.772543	1.321938	0.000087
C20	C	-0.500828	1.387182	0.000086
C21	C	0.036659	1.345292	0.000094
C22	C	0.141951	1.332393	0.000090
C23	C	-0.130832	1.561467	0.000103
C24	C	-0.133351	1.687717	0.000106
N25	N	-0.152890	1.336726	0.265612
N26	N	-0.120478	1.372394	-0.265430
C27	C	-0.165621	1.322731	0.474653
C28	C	-0.107751	1.386385	0.525535
C29	C	-0.114834	1.378598	0.641853
C30	C	-0.158538	1.330517	0.358325
H31	H	-0.633647	1.220640	0.000078
O32	O	-0.645723	1.505541	0.000239
C33	C	-0.620476	1.558926	0.088526
H34	H	-0.553449	1.519192	0.117946
H35	H	-0.606153	1.653458	0.068687
H36	H	-0.681410	1.547297	0.150334
O37	O	-0.042207	1.458133	0.473137
C38	C	-0.049491	1.449854	0.366981
H39	H	-0.123904	1.416449	0.352386
H40	H	-0.036538	1.537357	0.326012
H41	H	0.006078	1.389063	0.336707
H42	H	-0.220482	1.262392	0.518444
