data_functionalizedCrystal
_audit_creation_method	'MofGen! by Chris Wilmer'
_symmetry_space_group_name_H-M	'P1'
_symmetry_Int_Tables_number	1
_symmetry_cell_setting	triclinic
loop_
_symmetry_equiv_pos_as_xyz
  x,y,z
_cell_length_a	10.723024
_cell_length_b	9.016244
_cell_length_c	10.723024
_cell_angle_alpha	89.998964
_cell_angle_beta	95.532131
_cell_angle_gamma	90.007055
loop_
_atom_site_label
_atom_site_type_symbol
_atom_site_fract_x
_atom_site_fract_y
_atom_site_fract_z
O1	O	1.657194	0.123327	-0.175022
O2	O	1.294042	0.123331	-0.191775
O3	O	1.483995	0.123323	-0.001823
O4	O	1.467241	0.123335	-0.364975
O5	O	1.483967	-0.123357	-0.001827
O6	O	1.294014	-0.123349	-0.191780
O7	O	1.657166	-0.123354	-0.175026
Cu8	Cu	1.475587	-0.145876	-0.183403
Cu9	Cu	1.475621	0.145853	-0.183398
O10	O	1.467213	-0.123346	-0.364979
C11	C	1.247528	-0.000008	-0.190558
C12	C	1.108974	-0.000007	-0.186911
N13	N	1.475573	-0.351062	-0.183406
C14	C	1.033991	-0.000002	-0.293198
C15	C	0.890788	-0.000001	-0.289431
C16	C	1.373650	-0.586090	-0.284678
C17	C	1.373875	-0.414199	-0.285057
C18	C	1.606029	-0.413401	-0.212962
C19	C	1.605473	-0.585346	-0.213680
C20	C	1.448337	-0.585609	-0.052246
C21	C	1.445343	-0.413655	-0.053098
C22	C	1.703680	-0.000011	-0.176243
C23	C	1.842234	-0.000003	-0.179891
C24	C	1.482762	-0.000015	0.044675
C25	C	1.479114	-0.000010	0.183229
N26	N	1.475645	0.351039	-0.183386
C27	C	1.468447	-0.000004	-0.411477
C28	C	1.472094	0.000000	-0.550031
C29	C	1.585401	-0.000009	0.258212
C30	C	1.581634	-0.000004	0.401415
H31	H	1.075814	-0.000008	-0.386984
C32	C	1.659615	-0.267205	-0.028404
C33	C	1.710998	-0.358181	-0.116096
H34	H	1.724420	-0.233107	0.031392
H35	H	1.600195	-0.322123	0.012949
H36	H	1.619397	-0.184669	-0.070083
H37	H	1.751208	-0.440723	-0.074417
H38	H	1.770440	-0.303262	-0.157452
C39	C	1.225795	-0.600787	-0.103808
C40	C	1.322607	-0.644195	-0.014268
H41	H	1.148171	-0.636949	-0.080365
H42	H	1.240493	-0.640351	-0.183169
H43	H	1.223052	-0.495615	-0.108598
H44	H	1.325356	-0.749368	-0.009484
H45	H	1.307905	-0.604637	0.065115
H46	H	1.679187	-0.000020	0.216390
H47	H	1.381099	-0.000011	0.385544
H48	H	0.826355	0.000009	-0.380421
C49	C	1.709361	0.126817	0.564076
C50	C	1.704478	0.000003	0.488384
H51	H	1.785207	0.126823	0.617762
H52	H	1.640160	0.126805	0.613098
H53	H	1.706048	0.212827	0.512697
H54	H	1.707783	-0.086008	0.539763
H55	H	1.773698	0.000001	0.439358
H56	H	1.349373	-0.372912	-0.030693
H57	H	0.906659	0.000003	-0.088896
C58	C	0.978526	0.126808	-0.051484
C59	C	1.052533	-0.000004	-0.060293
H60	H	0.943692	0.126812	0.026691
H61	H	0.912932	0.126796	-0.117670
H62	H	1.028771	0.212820	-0.057479
H63	H	1.002285	-0.086016	-0.054308
H64	H	1.118135	-0.000006	0.005911
H65	H	1.630457	-0.370320	-0.307554
H66	H	1.514713	-0.370682	0.025895
H67	H	1.385328	0.000001	0.225051
H68	H	1.522704	-0.626264	0.023145
H69	H	1.276941	-0.372054	-0.267282
H70	H	1.276412	-0.627483	-0.267177
H71	H	1.390968	-0.629281	-0.381422
H72	H	1.629365	-0.625432	-0.309353
C73	C	1.411635	-0.480236	-0.495047
C74	C	1.397577	-0.358634	-0.416396
H75	H	1.426280	-0.445930	-0.576129
H76	H	1.337521	-0.538533	-0.500637
H77	H	1.480653	-0.538702	-0.461721
H78	H	1.328552	-0.300174	-0.449717
H79	H	1.471698	-0.300313	-0.410810
H80	H	1.683799	-0.626931	-0.142872
