data_functionalizedCrystal
_audit_creation_method	'MofGen! by Chris Wilmer'
_symmetry_space_group_name_H-M	'P1'
_symmetry_Int_Tables_number	1
_symmetry_cell_setting	triclinic
loop_
_symmetry_equiv_pos_as_xyz
  x,y,z
_cell_length_a	18.215407
_cell_length_b	21.295417
_cell_length_c	18.215407
_cell_angle_alpha	90.016419
_cell_angle_beta	90.010236
_cell_angle_gamma	90.030955
loop_
_atom_site_label
_atom_site_type_symbol
_atom_site_fract_x
_atom_site_fract_y
_atom_site_fract_z
Zn1	Zn	1.124973	-0.250706	0.416094
Zn2	Zn	1.124890	-0.355948	0.293019
Zn3	Zn	1.001927	-0.250698	0.293042
Zn4	Zn	1.001860	-0.355942	0.416044
O5	O	1.063413	-0.303323	0.354550
O6	O	1.227947	-0.264673	0.399780
O7	O	1.108572	-0.341986	0.190038
O8	O	1.018312	-0.162609	0.309395
O9	O	1.227886	-0.341994	0.309357
O10	O	1.108714	-0.162615	0.399802
O11	O	1.018231	-0.264658	0.190054
O12	O	0.898934	-0.264652	0.309346
O13	O	1.018198	-0.341983	0.519035
O14	O	0.898884	-0.341975	0.399716
O15	O	1.108649	-0.264667	0.519072
O16	O	1.108507	-0.444037	0.309308
O17	O	1.018117	-0.444032	0.399694
C18	C	0.872206	-0.303313	0.354528
C19	C	0.790407	-0.303323	0.354537
C20	C	0.602207	-0.343648	0.401533
C21	C	0.525348	-0.343650	0.401542
C22	C	0.525370	-0.263010	0.307582
C23	C	0.602227	-0.263005	0.307577
C24	C	0.640644	-0.303328	0.354552
C25	C	0.486928	-0.303335	0.354566
C26	C	0.403594	-0.303336	0.354575
C27	C	0.723983	-0.303326	0.354543
C28	C	1.063316	-0.466875	0.354509
C29	C	1.063342	-0.536843	0.354516
C30	C	1.110450	-0.569691	0.307500
C31	C	1.110485	-0.635434	0.307517
C32	C	1.063398	-0.668326	0.354541
C33	C	1.016287	-0.635470	0.401566
C34	C	1.016259	-0.569728	0.401553
N35	N	0.999018	-0.771593	0.360145
N36	N	0.999047	-0.834045	0.360152
C37	C	1.063480	-0.866400	0.354584
N38	N	1.127886	-0.833945	0.348992
N39	N	1.127856	-0.771488	0.348981
C40	C	1.063423	-0.739611	0.354561
C41	C	1.110630	-0.970534	0.307583
C42	C	1.110665	-1.036278	0.307605
C43	C	1.016461	-1.036312	0.401650
C44	C	1.016432	-0.970570	0.401633
C45	C	1.063515	-0.937685	0.354595
C46	C	1.255365	-0.303335	0.354571
C47	C	1.337164	-0.303339	0.354580
C48	C	1.063425	-0.303325	0.546502
C49	C	1.063431	-0.303326	0.628301
C50	C	1.063529	-0.139133	0.354607
C51	C	1.063579	-0.069165	0.354631
C52	C	1.110514	-0.263074	0.816516
C53	C	1.110510	-0.263073	0.893374
C54	C	1.016323	-0.343587	0.893325
C55	C	1.016324	-0.343584	0.816467
C56	C	1.063424	-0.303328	0.778065
C57	C	1.063419	-0.303331	0.931781
C58	C	1.063414	-0.303331	1.015115
C59	C	1.063428	-0.303327	0.694726
C60	C	1.063400	-0.303335	1.163343
C61	C	1.063412	-0.303333	1.081544
H62	H	0.494057	-0.376482	0.439800
H63	H	0.633523	-0.230168	0.269319
H64	H	0.977973	-0.376363	0.785160
H65	H	1.148790	-0.542918	0.269201
H66	H	1.148848	-0.662184	0.269231
N67	N	0.965667	-1.071775	0.452369
H68	H	0.977052	-1.060304	0.504959
H69	H	0.972853	-1.118396	0.445184
N70	N	0.643644	-0.387136	0.452196
H71	H	0.607629	-0.412679	0.481960
H72	H	0.675556	-0.361556	0.486305
N73	N	0.965502	-0.670941	0.452288
H74	H	0.972666	-0.717573	0.445161
H75	H	0.912946	-0.659493	0.440784
N76	N	0.483929	-0.219538	0.256903
H77	H	0.452054	-0.190407	0.286863
H78	H	0.452071	-0.245138	0.222764
N79	N	0.965446	-0.534295	0.452264
H80	H	0.935622	-0.565104	0.482059
H81	H	0.931399	-0.507059	0.422268
H82	H	1.149031	-1.063021	0.269321
H83	H	1.148970	-0.943758	0.269285
N84	N	0.965535	-0.387003	0.934758
H85	H	0.976931	-0.431981	0.921371
H86	H	0.912978	-0.377170	0.921366
N87	N	0.965617	-0.935136	0.452337
H88	H	0.935791	-0.965946	0.482130
H89	H	0.931572	-0.907898	0.422341
H90	H	1.148863	-0.230293	0.785251
H91	H	1.148854	-0.230293	0.924678
