data_functionalizedCrystal
_audit_creation_method	'MofGen! by Chris Wilmer'
_symmetry_space_group_name_H-M	'P1'
_symmetry_Int_Tables_number	1
_symmetry_cell_setting	triclinic
loop_
_symmetry_equiv_pos_as_xyz
  x,y,z
_cell_length_a	12.759401
_cell_length_b	18.101397
_cell_length_c	12.759393
_cell_angle_alpha	89.962298
_cell_angle_beta	89.980163
_cell_angle_gamma	90.021990
loop_
_atom_site_label
_atom_site_type_symbol
_atom_site_fract_x
_atom_site_fract_y
_atom_site_fract_z
Zn1	Zn	1.606213	-0.294755	-0.593976
Zn2	Zn	1.606090	-0.418617	-0.418277
Zn3	Zn	1.430515	-0.294797	-0.418311
Zn4	Zn	1.430486	-0.418563	-0.593914
O5	O	1.518326	-0.356683	-0.506120
O6	O	1.753218	-0.311191	-0.570681
O7	O	1.582760	-0.402232	-0.271261
O8	O	1.453885	-0.191159	-0.441653
O9	O	1.753127	-0.402192	-0.441596
O10	O	1.582970	-0.191128	-0.570713
O11	O	1.453766	-0.311262	-0.271285
O12	O	1.283490	-0.311210	-0.441594
O13	O	1.453836	-0.402099	-0.740944
O14	O	1.283469	-0.402140	-0.570609
O15	O	1.582942	-0.311139	-0.740989
O16	O	1.582732	-0.522243	-0.441536
O17	O	1.453716	-0.522203	-0.570576
C18	C	1.245358	-0.356674	-0.506099
C19	C	1.128582	-0.356688	-0.506115
C20	C	1.073736	-0.404107	-0.573187
C21	C	0.964012	-0.404110	-0.573208
C22	C	0.963989	-0.309272	-0.439075
C23	C	1.073711	-0.309266	-0.439060
C24	C	1.518236	-0.549094	-0.506069
C25	C	1.518294	-0.631408	-0.506082
C26	C	1.518428	-0.930499	-0.506178
C27	C	1.599374	-0.899168	-0.424772
C28	C	1.599655	-0.813549	-0.424983
C29	C	1.518361	-0.782116	-0.506129
C30	C	1.548380	-0.813113	-0.616871
C31	C	1.549006	-0.898758	-0.616428
C32	C	1.407247	-0.899012	-0.477801
C33	C	1.407796	-0.813363	-0.475329
C34	C	1.518322	-0.698257	-0.506109
C35	C	1.518470	-1.014358	-0.506206
C36	C	1.792359	-0.356693	-0.506141
C37	C	1.909136	-0.356697	-0.506150
C38	C	1.518399	-0.356608	-0.780153
C39	C	1.518430	-0.356576	-0.896930
C40	C	1.518445	-0.163521	-0.506194
C41	C	1.518495	-0.081207	-0.506225
C42	C	1.451287	-0.309200	-0.951804
C43	C	1.451312	-0.309177	-1.061528
C44	C	1.585631	-0.403910	-1.061494
C45	C	1.585601	-0.403935	-0.951772
C46	C	1.518313	-0.356704	-0.233152
C47	C	1.518485	-0.356528	-0.116376
H48	H	1.118409	-0.442719	-0.627790
C49	C	1.391601	-0.267171	-0.783623
C50	C	1.377449	-0.257149	-0.891519
H51	H	1.346017	-0.235033	-0.746410
H52	H	1.376187	-0.316927	-0.765622
H53	H	1.462196	-0.256338	-0.765662
H54	H	1.306855	-0.267988	-0.909482
H55	H	1.392855	-0.207382	-0.909527
H56	H	0.919362	-0.442723	-0.627827
H57	H	0.919300	-0.270664	-0.384480
H58	H	1.396636	-0.270599	-1.106202
C59	C	1.748011	-0.968332	-0.364108
C60	C	1.709953	-0.928136	-0.449813
H61	H	1.816275	-0.986219	-0.379571
H62	H	1.750915	-0.937216	-0.304267
H63	H	1.702659	-1.008831	-0.350372
H64	H	1.755300	-0.887634	-0.463543
H65	H	1.707055	-0.959254	-0.509671
C66	C	1.682608	-0.812190	-0.748801
C67	C	1.656864	-0.784084	-0.649875
H68	H	1.749580	-0.794265	-0.769173
H69	H	1.684083	-0.864613	-0.745904
H70	H	1.631624	-0.796742	-0.798421
H71	H	1.707844	-0.799537	-0.600254
H72	H	1.655397	-0.731649	-0.652765
C73	C	1.062676	-0.215526	-0.306462
C74	C	1.134006	-0.257141	-0.365325
H75	H	1.099902	-0.183350	-0.260942
H76	H	1.019917	-0.187239	-0.352314
H77	H	1.019845	-0.247768	-0.266196
H78	H	1.176832	-0.224899	-0.405596
H79	H	1.176783	-0.285430	-0.319467
H80	H	1.640320	-0.442467	-1.106160
H81	H	1.640279	-0.442518	-0.907092
H82	H	1.344240	-0.791974	-0.530279
H83	H	1.682011	-0.793003	-0.443758
C84	C	1.558749	-0.845457	-0.246929
C85	C	1.574321	-0.785256	-0.314130
H86	H	1.543123	-0.827991	-0.178488
H87	H	1.502035	-0.874523	-0.271910
H88	H	1.620539	-0.874677	-0.244801
H89	H	1.512528	-0.756038	-0.316264
H90	H	1.631040	-0.756178	-0.289143
C91	C	1.650816	-0.968676	-0.739685
C92	C	1.658715	-0.925648	-0.648871
H93	H	1.718550	-0.985268	-0.759716
H94	H	1.607028	-1.010074	-0.726342
H95	H	1.621529	-0.939859	-0.794593
H96	H	1.687995	-0.954466	-0.593961
H97	H	1.702520	-0.884243	-0.662209
H98	H	1.379939	-0.920680	-0.398448
H99	H	1.580820	-0.919818	-0.342413
C100	C	1.426925	-0.866350	-0.752023
C101	C	1.472889	-0.926739	-0.701112
H102	H	1.379946	-0.883623	-0.804311
H103	H	1.389629	-0.837334	-0.702491
H104	H	1.480032	-0.837143	-0.783809
H105	H	1.419782	-0.955942	-0.669318
H106	H	1.510186	-0.955766	-0.750651
H107	H	1.491225	-0.792750	-0.679156
C108	C	1.362333	-0.846811	-0.298957
C109	C	1.377306	-0.786053	-0.365278
H110	H	1.343541	-0.829954	-0.231005
H111	H	1.307934	-0.877120	-0.326022
H112	H	1.425379	-0.874557	-0.294853
H113	H	1.314258	-0.758309	-0.369388
H114	H	1.431709	-0.755731	-0.338206
C115	C	1.280007	-0.865639	-0.608080
C116	C	1.325817	-0.926360	-0.557832
H117	H	1.229746	-0.882525	-0.657493
H118	H	1.246508	-0.835183	-0.557585
H119	H	1.332701	-0.838034	-0.643254
H120	H	1.273124	-0.953963	-0.522650
H121	H	1.359316	-0.956828	-0.608334
