data_functionalizedCrystal
_audit_creation_method	'MofGen! by Chris Wilmer'
_symmetry_space_group_name_H-M	'P1'
_symmetry_Int_Tables_number	1
_symmetry_cell_setting	triclinic
loop_
_symmetry_equiv_pos_as_xyz
  x,y,z
_cell_length_a	19.077115
_cell_length_b	19.120786
_cell_length_c	19.077174
_cell_angle_alpha	89.927663
_cell_angle_beta	85.484425
_cell_angle_gamma	90.063767
loop_
_atom_site_label
_atom_site_type_symbol
_atom_site_fract_x
_atom_site_fract_y
_atom_site_fract_z
Zn1	Zn	1.078554	-0.340061	-0.426667
Zn2	Zn	1.578554	0.159939	0.073333
Zn3	Zn	1.068743	-0.452201	-0.303779
Zn4	Zn	1.568743	0.047799	0.196221
Zn5	Zn	0.956375	-0.330277	-0.304502
Zn6	Zn	1.456375	0.169723	0.195498
Zn7	Zn	0.955639	-0.452155	-0.416900
Zn8	Zn	1.455639	0.047845	0.083100
O9	O	1.014828	-0.393673	-0.362962
O10	O	1.514828	0.106327	0.137038
O11	O	1.175719	-0.359050	-0.414150
O12	O	1.675719	0.140950	0.085850
O13	O	1.050039	-0.431952	-0.205407
O14	O	1.550039	0.068048	0.294593
O15	O	0.976996	-0.233638	-0.325098
O16	O	1.476996	0.266362	0.174902
O17	O	1.168511	-0.441439	-0.323865
O18	O	1.668511	0.058561	0.176135
O19	O	1.066761	-0.240826	-0.414852
O20	O	1.566761	0.259174	0.085148
O21	O	0.967483	-0.342375	-0.205938
O22	O	1.467483	0.157625	0.294062
O23	O	0.857811	-0.342331	-0.315627
O24	O	1.357811	0.157669	0.184373
O25	O	0.975742	-0.441361	-0.516664
O26	O	1.475742	0.058639	-0.016664
O27	O	0.857270	-0.431874	-0.398206
O28	O	1.357270	0.068126	0.101794
O29	O	1.066047	-0.359006	-0.523839
O30	O	1.566047	0.140994	-0.023839
O31	O	1.049325	-0.550132	-0.314395
O32	O	1.549325	-0.050132	0.185605
O33	O	0.966228	-0.550098	-0.397504
O34	O	1.466228	-0.050098	0.102496
C35	C	0.832009	-0.386036	-0.355935
C36	C	1.332009	0.113964	0.144065
C37	C	0.753798	-0.382787	-0.352945
C38	C	1.253798	0.117213	0.147055
C39	C	0.313584	-0.359450	-0.331508
C40	C	0.813584	0.140550	0.168492
C41	C	0.387072	-0.362507	-0.334321
C42	C	0.887072	0.137493	0.165679
C43	C	0.423544	-0.410727	-0.378646
C44	C	0.923544	0.089273	0.121354
C45	C	0.386525	-0.455887	-0.420165
C46	C	0.886525	0.044113	0.079835
C47	C	0.313039	-0.452826	-0.417355
C48	C	0.813039	0.047174	0.082645
C49	C	0.643294	-0.424886	-0.391655
C50	C	1.143294	0.075114	0.108345
C51	C	0.716784	-0.427945	-0.394460
C52	C	1.216784	0.072055	0.105540
C53	C	0.717326	-0.334564	-0.308617
C54	C	1.217326	0.165436	0.191383
C55	C	0.643839	-0.331510	-0.305808
C56	C	1.143839	0.168490	0.194192
C57	C	0.606827	-0.376668	-0.347330
C58	C	1.106827	0.123332	0.152670
N59	N	0.498659	-0.413855	-0.381520
N60	N	0.998659	0.086145	0.118480
N61	N	0.531713	-0.373536	-0.344458
N62	N	1.031713	0.126464	0.155542
C63	C	1.006652	-0.575510	-0.354827
C64	C	1.506652	-0.075510	0.145173
C65	C	1.003220	-0.653304	-0.351373
C66	C	1.503220	-0.153304	0.148627
C67	C	1.048310	-0.693534	-0.396516
C68	C	1.548310	-0.193534	0.103484
C69	C	1.045083	-0.766630	-0.393271
C70	C	1.545083	-0.266630	0.106729
C71	C	0.996767	-0.799495	-0.344880
C72	C	1.496767	-0.299495	0.155120
C73	C	0.951671	-0.759259	-0.299736
C74	C	1.451671	-0.259259	0.200264
C75	C	0.954896	-0.686165	-0.302984
C76	C	1.454896	-0.186165	0.197016
C77	C	0.984690	-1.020008	-0.332736
C78	C	1.484690	-0.520008	0.167264
C79	C	0.981470	-1.093108	-0.329489
C80	C	1.481470	-0.593108	0.170511
C81	C	1.074881	-1.100474	-0.423026
C82	C	1.574881	-0.600474	0.076974
C83	C	1.078104	-1.027378	-0.426267
C84	C	1.578104	-0.527378	0.073733
C85	C	1.033006	-0.987149	-0.381125
C86	C	1.533006	-0.487149	0.118875
C87	C	0.993468	-0.874210	-0.341561
C88	C	1.493468	-0.374210	0.158439
C89	C	1.036302	-0.912435	-0.384448
C90	C	1.536302	-0.412435	0.115552
C91	C	1.198360	-0.401341	-0.370017
C92	C	1.698360	0.098659	0.129983
C93	C	1.276571	-0.404608	-0.373023
C94	C	1.776571	0.095392	0.126977
C95	C	1.021907	-0.401269	-0.546497
C96	C	1.521907	0.098731	-0.046497
C97	C	1.024923	-0.404506	-0.624709
C98	C	1.524923	0.095494	-0.124709
C99	C	1.023055	-0.211128	-0.371145
C100	C	1.523055	0.288872	0.128855
C101	C	1.026561	-0.133338	-0.374632
C102	C	1.526561	0.366662	0.125368
C103	C	0.983360	-0.359390	-0.661729
C104	C	1.483360	0.140610	-0.161729
C105	C	0.986191	-0.362437	-0.735217
C106	C	1.486191	0.137563	-0.235217
C107	C	1.030590	-0.410598	-0.771683
C108	C	1.530590	0.089402	-0.271683
C109	C	1.072155	-0.455718	-0.734658
C110	C	1.572155	0.044282	-0.234658
C111	C	1.069320	-0.452674	-0.661171
C112	C	1.569320	0.047326	-0.161171
C113	C	1.043677	-0.424706	-0.991435
C114	C	1.543677	0.075294	-0.491435
C115	C	1.046511	-0.427746	-1.064927
C116	C	1.546511	0.072254	-0.564927
C117	C	0.960545	-0.334465	-1.065481
C118	C	1.460545	0.165535	-0.565481
C119	C	0.957717	-0.331422	-0.991993
C120	C	1.457717	0.168578	-0.491993
C121	C	0.999279	-0.376546	-0.954974
C122	C	1.499279	0.123454	-0.454974
N123	N	1.033487	-0.413712	-0.846800
N124	N	1.533487	0.086288	-0.346800
N125	N	0.996378	-0.373434	-0.879859
N126	N	1.496378	0.126566	-0.379859
C127	C	1.007819	-0.386058	-0.180145
C128	C	1.507819	0.113942	0.319855
C129	C	1.004947	-0.382630	-0.101948
C130	C	1.504947	0.117370	0.398052
H131	H	0.614148	-0.292249	-0.269709
H132	H	1.114148	0.207751	0.230291
H133	H	1.111596	-1.133236	-0.459779
H134	H	1.611596	-0.633236	0.040221
O135	O	0.423068	-0.318575	-0.294098
O136	O	0.923068	0.181425	0.205902
C137	C	0.469172	-0.276878	-0.337880
C138	C	0.969172	0.223122	0.162120
H139	H	0.449363	-0.274010	-0.392649
H140	H	0.949363	0.225990	0.107351
H141	H	0.523984	-0.300940	-0.341433
H142	H	1.023984	0.199060	0.158567
C143	C	0.496578	-0.206221	-0.239653
C144	C	0.996578	0.293779	0.260347
C145	C	0.472245	-0.202694	-0.306919
C146	C	0.972245	0.297306	0.193081
H147	H	0.498477	-0.160461	-0.220554
H148	H	0.998477	0.339539	0.279446
H149	H	0.465519	-0.234314	-0.210156
H150	H	0.965519	0.265686	0.289844
H151	H	0.542253	-0.226276	-0.242623
H152	H	1.042253	0.273724	0.257377
H153	H	0.426567	-0.182647	-0.303947
H154	H	0.926567	0.317353	0.196053
H155	H	0.503296	-0.174595	-0.336416
H156	H	1.003296	0.325405	0.163584
O157	O	1.095264	-0.661725	-0.443587
O158	O	1.595264	-0.161725	0.056413
C159	C	1.134379	-0.712911	-0.482725
C160	C	1.634379	-0.212911	0.017275
H161	H	1.103349	-0.763937	-0.481709
H162	H	1.603349	-0.263937	0.018291
H163	H	1.186510	-0.721812	-0.458715
H164	H	1.686510	-0.221812	0.041285
C165	C	1.186715	-0.625201	-0.560529
C166	C	1.686715	-0.125201	-0.060529
C167	C	1.148601	-0.687871	-0.559287
C168	C	1.648601	-0.187871	-0.059287
H169	H	1.195491	-0.609755	-0.607755
H170	H	1.695491	-0.109755	-0.107755
H171	H	1.160365	-0.590715	-0.534160
H172	H	1.660365	-0.090715	-0.034160
H173	H	1.230153	-0.632627	-0.540518
H174	H	1.730153	-0.132627	-0.040518
H175	H	1.105160	-0.680442	-0.579290
H176	H	1.605160	-0.180442	-0.079290
H177	H	1.174944	-0.722355	-0.585661
H178	H	1.674944	-0.222355	-0.085661
O179	O	0.945915	-0.318593	-0.771266
O180	O	1.445915	0.181407	-0.271266
C181	C	0.989647	-0.276816	-0.817339
C182	C	1.489647	0.223184	-0.317339
H183	H	1.042288	-0.304178	-0.829285
H184	H	1.542288	0.195822	-0.329285
H185	H	0.998617	-0.224094	-0.791652
H186	H	1.498617	0.275906	-0.291652
C187	C	0.889538	-0.231833	-0.871552
C188	C	1.389538	0.268167	-0.371552
C189	C	0.954190	-0.265442	-0.886230
C190	C	1.454190	0.234558	-0.386230
H191	H	0.867667	-0.224813	-0.914047
H192	H	1.367667	0.275187	-0.414047
H193	H	0.860075	-0.259976	-0.840511
H194	H	1.360075	0.240024	-0.340511
H195	H	0.897022	-0.187901	-0.850146
H196	H	1.397022	0.312099	-0.350146
H197	H	0.946705	-0.309375	-0.907628
H198	H	1.446705	0.190625	-0.407628
H199	H	0.983652	-0.237305	-0.917277
H200	H	1.483652	0.262695	-0.417277
H201	H	0.912329	-0.786023	-0.260338
H202	H	1.412329	-0.286023	0.239662
H203	H	1.082669	-0.466965	-1.094617
H204	H	1.582669	0.033035	-0.594617
H205	H	0.283894	-0.320185	-0.295414
H206	H	0.783894	0.179815	0.204586
O207	O	0.753353	-0.290797	-0.268254
O208	O	1.253353	0.209203	0.231746
C209	C	0.792294	-0.330455	-0.222571
C210	C	1.292294	0.169545	0.277429
H211	H	0.801876	-0.385016	-0.245343
H212	H	1.301876	0.114984	0.254657
H213	H	0.761609	-0.334721	-0.168988
H214	H	1.261609	0.165279	0.331012
C215	C	0.851570	-0.227298	-0.186320
C216	C	1.351570	0.272702	0.313680
C217	C	0.863344	-0.294309	-0.214293
C218	C	1.363344	0.205691	0.285707
H219	H	0.895396	-0.205001	-0.181211
H220	H	1.395396	0.294999	0.318789
H221	H	0.825334	-0.200579	-0.217096
H222	H	1.325334	0.299421	0.282904
H223	H	0.825997	-0.230862	-0.141671
H224	H	1.325997	0.269138	0.358329
H225	H	0.888908	-0.290743	-0.258945
H226	H	1.388908	0.209257	0.241055
H227	H	0.889586	-0.321027	-0.183524
H228	H	1.389586	0.178973	0.316476
H229	H	0.954131	-0.900977	-0.302159
H230	H	1.454131	-0.400977	0.197841
O231	O	0.911064	-0.647188	-0.259062
O232	O	1.411064	-0.147188	0.240938
C233	C	0.867714	-0.691867	-0.215666
C234	C	1.367714	-0.191867	0.284334
H235	H	0.894149	-0.745048	-0.212041
H236	H	1.394149	-0.245048	0.287959
H237	H	0.814903	-0.698516	-0.238994
H238	H	1.314903	-0.198516	0.261006
C239	C	0.823526	-0.594532	-0.146101
C240	C	1.323526	-0.094532	0.353899
C241	C	0.855996	-0.659848	-0.141644
C242	C	1.355996	-0.159848	0.358356
H243	H	0.816294	-0.574781	-0.100442
H244	H	1.316294	-0.074781	0.399558
H245	H	0.852729	-0.564430	-0.175339
H246	H	1.352729	-0.064430	0.324661
H247	H	0.779520	-0.600082	-0.165544
H248	H	1.279520	-0.100082	0.334456
H249	H	0.900004	-0.654296	-0.122211
H250	H	1.400004	-0.154296	0.377789
H251	H	0.826800	-0.689949	-0.112401
H252	H	1.326800	-0.189949	0.387599
H253	H	1.081806	-0.799382	-0.430026
H254	H	1.581806	-0.299382	0.069974
O255	O	1.125062	-0.995567	-0.473334
O256	O	1.625062	-0.495567	0.026666
C257	C	1.164184	-1.046750	-0.512469
C258	C	1.664184	-0.546750	-0.012469
H259	H	1.133152	-1.097775	-0.511466
H260	H	1.633152	-0.597775	-0.011466
H261	H	1.216308	-1.055656	-0.488448
H262	H	1.716308	-0.555656	0.011552
C263	C	1.216539	-0.959034	-0.590253
C264	C	1.716539	-0.459034	-0.090253
C265	C	1.178423	-1.021702	-0.589026
C266	C	1.678423	-0.521702	-0.089026
H267	H	1.225326	-0.943583	-0.637477
H268	H	1.725326	-0.443583	-0.137477
H269	H	1.190184	-0.924550	-0.563886
H270	H	1.690184	-0.424550	-0.063886
H271	H	1.259972	-0.966464	-0.570232
H272	H	1.759972	-0.466464	-0.070232
H273	H	1.134989	-1.014269	-0.609039
H274	H	1.634989	-0.514269	-0.109039
H275	H	1.204772	-1.056184	-0.615399
H276	H	1.704772	-0.556184	-0.115399
H277	H	0.926707	-0.297729	-1.095630
H278	H	1.426707	0.202271	-0.595630
H279	H	0.942122	-1.119864	-0.290083
H280	H	1.442122	-0.619864	0.209917
H281	H	1.103171	-0.489407	-0.631031
H282	H	1.603171	0.010593	-0.131031
H283	H	1.077512	-0.461456	-0.961303
H284	H	1.577512	0.038544	-0.461303
H285	H	1.075639	-0.885674	-0.423851
H286	H	1.575639	-0.385674	0.076149
O287	O	1.115268	-0.502441	-0.770190
O288	O	1.615268	-0.002441	-0.270190
C289	C	1.108847	-0.495466	-0.842989
C290	C	1.608847	0.004534	-0.342989
H291	H	1.088626	-0.440908	-0.854564
H292	H	1.588626	0.059092	-0.354564
H293	H	1.070308	-0.536275	-0.860542
H294	H	1.570308	-0.036275	-0.360542
C295	C	1.206045	-0.573429	-0.868948
C296	C	1.706045	-0.073429	-0.368948
C297	C	1.181215	-0.506417	-0.883166
C298	C	1.681215	-0.006417	-0.383166
H299	H	1.250684	-0.580187	-0.893732
H300	H	1.750684	-0.080187	-0.393732
H301	H	1.210370	-0.578131	-0.819902
H302	H	1.710370	-0.078131	-0.319902
H303	H	1.173923	-0.607429	-0.883576
H304	H	1.673923	-0.107429	-0.383576
H305	H	1.213332	-0.472418	-0.868530
H306	H	1.713332	0.027582	-0.368530
H307	H	1.176898	-0.501710	-0.932211
H308	H	1.676898	-0.001710	-0.432211
H309	H	0.947209	-0.320169	-0.632043
H310	H	1.447209	0.179831	-0.132043
O311	O	0.607326	-0.468659	-0.432061
O312	O	1.107326	0.031341	0.067939
C313	C	0.568359	-0.429009	-0.477727
C314	C	1.068359	0.070991	0.022273
H315	H	0.593148	-0.374998	-0.485481
H316	H	1.093148	0.125002	0.014519
H317	H	0.511929	-0.423349	-0.453962
H318	H	1.011929	0.076651	0.046038
C319	C	0.538089	-0.532640	-0.539716
C320	C	1.038089	-0.032640	-0.039716
C321	C	0.568539	-0.466304	-0.549244
C322	C	1.068539	0.033696	-0.049244
H323	H	0.538197	-0.555646	-0.583830
H324	H	1.038197	-0.055646	-0.083830
H325	H	0.564340	-0.559354	-0.508948
H326	H	1.064340	-0.059354	-0.008948
H327	H	0.491067	-0.527914	-0.519909
H328	H	0.991067	-0.027914	-0.019909
H329	H	0.615563	-0.471032	-0.569042
H330	H	1.115563	0.028968	-0.069042
H331	H	0.542296	-0.439592	-0.580016
H332	H	1.042296	0.060408	-0.080016
O333	O	0.421868	-0.502819	-0.463181
O334	O	0.921868	-0.002819	0.036819
C335	C	0.400186	-0.571160	-0.443869
C336	C	0.900186	-0.071160	0.056131
H337	H	0.345719	-0.569223	-0.414713
H338	H	0.845719	-0.069223	0.085287
H339	H	0.439083	-0.594900	-0.408181
H340	H	0.939083	-0.094900	0.091819
C341	C	0.464433	-0.618734	-0.546174
C342	C	0.964433	-0.118734	-0.046174
C343	C	0.397533	-0.616357	-0.510370
C344	C	0.897533	-0.116357	-0.010370
H345	H	0.462800	-0.646616	-0.587194
H346	H	0.962800	-0.146616	-0.087194
H347	H	0.479043	-0.572693	-0.559185
H348	H	0.979043	-0.072693	-0.059185
H349	H	0.496840	-0.638516	-0.516428
H350	H	0.996840	-0.138516	-0.016428
H351	H	0.365130	-0.596567	-0.540113
H352	H	0.865130	-0.096567	-0.040113
H353	H	0.382917	-0.662396	-0.497366
H354	H	0.882917	-0.162396	0.002634
O355	O	0.752300	-0.474693	-0.437562
O356	O	1.252300	0.025307	0.062438
C357	C	0.798352	-0.438570	-0.486486
C358	C	1.298352	0.061430	0.013514
H359	H	0.810782	-0.384927	-0.464550
H360	H	1.310782	0.115073	0.035450
H361	H	0.772404	-0.431943	-0.537907
H362	H	1.272404	0.068057	-0.037907
C363	C	0.851653	-0.546411	-0.527039
C364	C	1.351653	-0.046411	-0.027039
C365	C	0.866924	-0.480528	-0.500095
C366	C	1.366924	0.019472	-0.000095
H367	H	0.893951	-0.572294	-0.535437
H368	H	1.393951	-0.072294	-0.035437
H369	H	0.820625	-0.570749	-0.494081
H370	H	1.320625	-0.070749	0.005919
H371	H	0.830028	-0.540879	-0.569887
H372	H	1.330028	-0.040879	-0.069887
H373	H	0.888541	-0.486061	-0.457244
H374	H	1.388541	0.013939	0.042756
H375	H	0.897957	-0.456192	-0.533047
H376	H	1.397957	0.043808	-0.033047
H377	H	0.282904	-0.489596	-0.451162
H378	H	0.782904	0.010404	0.048838
H379	H	0.947971	-0.987260	-0.295978
H380	H	1.447971	-0.487260	0.204022
H381	H	0.921560	-0.292207	-0.962307
H382	H	1.421560	0.207793	-0.462307
