data_functionalizedCrystal
_audit_creation_method	'MofGen! by Chris Wilmer'
_symmetry_space_group_name_H-M	'P1'
_symmetry_Int_Tables_number	1
_symmetry_cell_setting	triclinic
loop_
_symmetry_equiv_pos_as_xyz
  x,y,z
_cell_length_a	10.654550
_cell_length_b	23.532357
_cell_length_c	9.130313
_cell_angle_alpha	89.989961
_cell_angle_beta	89.999724
_cell_angle_gamma	83.656611
loop_
_atom_site_label
_atom_site_type_symbol
_atom_site_fract_x
_atom_site_fract_y
_atom_site_fract_z
O1	O	1.665274	0.079987	-0.121710
O2	O	1.299551	0.087607	-0.121739
O3	O	1.493473	0.000935	-0.121693
O4	O	1.471351	0.166659	-0.121755
O5	O	1.493460	0.000933	0.121905
O6	O	1.299538	0.087605	0.121860
O7	O	1.665261	0.079984	0.121889
Cu8	Cu	1.482398	0.083794	0.144117
Cu9	Cu	1.482413	0.083797	-0.143967
O10	O	1.471338	0.166656	0.121843
C11	C	1.252764	0.087046	0.000057
C12	C	1.113375	0.085372	0.000048
C13	C	1.032252	0.136403	0.000033
C14	C	0.901282	0.134827	0.000059
C15	C	0.932570	0.031184	0.000109
C16	C	1.063537	0.032761	0.000093
C17	C	1.492913	-0.020286	0.000111
C18	C	1.491250	-0.083516	0.000124
C19	C	1.480813	-0.475594	-0.132741
C20	C	1.479231	-0.535003	-0.132750
O21	O	1.478377	-0.565724	-0.245679
N22	N	1.478440	-0.564721	0.000034
C23	C	1.479217	-0.535025	0.132835
O24	O	1.478398	-0.565758	0.245777
C25	C	1.480790	-0.475616	0.132842
C26	C	1.481594	-0.445902	0.000049
C27	C	1.481615	-0.445880	-0.265523
C28	C	1.483199	-0.386474	-0.265514
C29	C	1.483980	-0.356783	-0.132723
C30	C	1.483177	-0.386497	0.000058
C31	C	1.481558	-0.445921	0.265641
C32	C	1.483129	-0.386507	0.265637
C33	C	1.483934	-0.356794	0.132844
C34	C	1.485542	-0.297400	0.132858
N35	N	1.486334	-0.267682	0.000074
C36	C	1.485553	-0.297373	-0.132716
C37	C	1.475913	-0.659788	0.132810
C38	C	1.474349	-0.719197	0.132805
C39	C	1.474361	-0.719171	-0.132781
C40	C	1.475934	-0.659762	-0.132774
C41	C	1.476704	-0.630071	0.000026
C42	C	1.488880	-0.172618	-0.132687
C43	C	1.490469	-0.113207	-0.132667
C44	C	1.490450	-0.113238	0.132918
C45	C	1.488868	-0.172644	0.132898
C46	C	1.488078	-0.202332	0.000083
O47	O	1.486392	-0.266641	0.245730
O48	O	1.486356	-0.266633	-0.245640
C49	C	1.712047	0.080545	0.000089
C50	C	1.851437	0.082219	0.000089
C51	C	1.471898	0.187877	0.000036
C52	C	1.473562	0.251107	0.000013
N53	N	1.482396	0.083792	0.346740
N54	N	1.482425	0.083795	-0.346590
C55	C	1.568293	0.045430	0.423411
C56	C	1.568305	0.045430	0.576748
C57	C	1.396519	0.122159	0.576728
C58	C	1.396502	0.122156	0.423394
H59	H	1.491126	-0.089017	-0.240807
H60	H	1.483849	-0.362286	-0.373648
O61	O	1.488017	-0.204634	-0.275932
H62	H	1.488846	-0.173984	-0.368250
O63	O	1.085999	0.193148	0.000009
H64	H	1.144902	0.196354	-0.099291
H65	H	1.480975	-0.470048	-0.373663
O66	O	1.476791	-0.627715	-0.275999
H67	H	1.391909	-0.595906	-0.282356
O68	O	1.303900	0.163543	0.659414
H69	H	1.244163	0.190216	0.580334
H70	H	1.473714	-0.743386	0.240938
O71	O	1.660901	0.004036	0.340739
H72	H	1.646460	0.010476	0.221234
O73	O	1.151041	-0.022284	0.000110
H74	H	1.211453	-0.024043	0.099402
H75	H	0.835236	0.176382	0.000050
O76	O	1.473499	-0.751199	-0.276014
H77	H	1.472254	-0.797500	-0.253698
H78	H	1.476544	-0.635618	0.240959
H79	H	0.891976	-0.011650	0.000154
O80	O	1.488019	-0.204704	0.276111
H81	H	1.402715	-0.188567	0.339779
O82	O	1.303856	0.163535	0.340680
H83	H	1.244144	0.190219	0.419740
H84	H	1.480905	-0.470104	0.373775
H85	H	1.483738	-0.362335	0.373781
H86	H	1.491092	-0.089053	0.241033
O87	O	1.660966	0.004061	0.659450
H88	H	1.720696	-0.022610	0.580382
