data_functionalizedCrystal
_audit_creation_method	'MofGen! by Chris Wilmer'
_symmetry_space_group_name_H-M	'P1'
_symmetry_Int_Tables_number	1
_symmetry_cell_setting	triclinic
loop_
_symmetry_equiv_pos_as_xyz
  x,y,z
_cell_length_a	19.288840
_cell_length_b	16.992695
_cell_length_c	17.766277
_cell_angle_alpha	89.993690
_cell_angle_beta	89.983415
_cell_angle_gamma	86.897119
loop_
_atom_site_label
_atom_site_type_symbol
_atom_site_fract_x
_atom_site_fract_y
_atom_site_fract_z
O1	O	0.927058	0.097701	-0.062722
O2	O	0.725565	0.110914	-0.062696
O3	O	0.825504	-0.009832	-0.062703
O4	O	0.827120	0.218447	-0.062715
O5	O	0.825485	-0.009838	0.062486
O6	O	0.725546	0.110908	0.062493
O7	O	0.927039	0.097695	0.062467
Cu8	Cu	0.826291	0.104301	0.073911
Cu9	Cu	0.826314	0.104308	-0.074139
O10	O	0.827100	0.218441	0.062474
C11	C	0.699654	0.110489	-0.000098
C12	C	0.622476	0.109223	-0.000088
C13	C	0.586247	0.108618	-0.068330
C14	C	0.513731	0.107419	-0.068339
C15	C	0.477446	0.106810	-0.000102
C16	C	0.513683	0.107419	0.068149
C17	C	0.586198	0.108626	0.068156
C18	C	0.365323	0.058978	0.052169
C19	C	0.292810	0.057767	0.052159
C20	C	0.253786	0.103092	-0.000122
C21	C	0.287285	0.149618	-0.052405
C22	C	0.359800	0.150825	-0.052398
C23	C	0.398816	0.105502	-0.000103
C24	C	0.138926	0.101188	-0.068379
C25	C	0.066408	0.099994	-0.068385
C26	C	0.066362	0.099987	0.068105
C27	C	0.138879	0.101188	0.068109
C28	C	0.175157	0.101785	-0.000135
C29	C	0.823416	-0.039040	-0.000108
C30	C	0.817216	-0.126062	-0.000108
C31	C	0.877044	-0.176520	-0.000114
C32	C	0.871214	-0.258285	-0.000121
C33	C	0.805554	-0.289591	-0.000115
C34	C	0.745721	-0.239127	-0.000110
C35	C	0.751552	-0.157363	-0.000109
C36	C	0.781387	-0.533101	-0.000122
C37	C	0.775560	-0.614871	-0.000121
C38	C	0.901054	-0.634024	-0.000133
C39	C	0.906879	-0.552258	-0.000127
C40	C	0.847046	-0.501801	-0.000127
N41	N	0.799593	-0.373168	-0.000119
N42	N	0.853008	-0.418225	-0.000128
C43	C	0.952950	0.098120	-0.000132
C44	C	1.030128	0.099386	-0.000147
C45	C	0.829188	0.247649	-0.000122
C46	C	0.835389	0.334671	-0.000128
N47	N	0.826280	0.104295	0.178041
N48	N	0.826330	0.104308	-0.178270
C49	C	0.870550	0.050855	0.217425
C50	C	0.870554	0.050851	0.296227
C51	C	0.826295	0.104302	0.335642
C52	C	0.782017	0.157746	0.296248
C53	C	0.782009	0.157743	0.217448
C54	C	0.821159	0.175731	0.460476
C55	C	0.821172	0.175735	0.539275
C56	C	0.826314	0.104311	0.578688
C57	C	0.831459	0.032880	0.539292
C58	C	0.831451	0.032876	0.460492
C59	C	0.826298	0.104311	0.421087
C60	C	0.870590	0.050862	0.703518
C61	C	0.870589	0.050858	0.782321
C62	C	0.782056	0.157759	0.782341
C63	C	0.782054	0.157757	0.703539
C64	C	0.826324	0.104309	0.664132
H65	H	0.387071	0.188710	-0.094967
F66	F	0.946929	-0.143209	-0.000113
H67	H	0.919933	-0.299365	-0.000125
H68	H	0.168377	0.101676	0.123680
F69	F	0.027851	0.099357	-0.141022
F70	F	0.705673	-0.648187	-0.000111
H71	H	0.835639	-0.025285	0.428419
H72	H	0.906637	0.007336	0.814388
F73	F	0.717706	-0.479411	-0.000123
F74	F	0.675841	-0.272447	-0.000113
H75	H	0.960346	-0.526775	-0.000132
H76	H	0.949766	-0.675114	-0.000135
F77	F	0.475066	0.106775	0.140771
H78	H	0.036820	0.099495	0.123665
H79	H	0.702833	-0.116280	-0.000104
F80	F	0.917663	-0.006030	0.175487
H81	H	0.906604	0.007332	0.328299
H82	H	0.835646	-0.025281	0.571380
F83	F	0.245759	0.197863	-0.108048
F84	F	0.406848	0.010735	0.107818
F85	F	0.734911	0.214629	0.338197
F86	F	0.624756	0.109270	0.140792
H87	H	0.906636	0.007340	0.671431
H88	H	0.265541	0.019878	0.094727
H89	H	0.746017	0.201276	0.814432
H90	H	0.615780	0.109104	-0.123900
H91	H	0.746008	0.201276	0.671471
F92	F	0.815701	0.251758	0.581196
H93	H	0.816960	0.233897	0.428393
F94	F	0.734890	0.214624	0.175531
H95	H	0.484228	0.106928	-0.123912
F96	F	0.177538	0.101829	-0.141009
