data_functionalizedCrystal
_audit_creation_method	'MofGen! by Chris Wilmer'
_symmetry_space_group_name_H-M	'P1'
_symmetry_Int_Tables_number	1
_symmetry_cell_setting	triclinic
loop_
_symmetry_equiv_pos_as_xyz
  x,y,z
_cell_length_a	23.532407
_cell_length_b	22.610064
_cell_length_c	10.967961
_cell_angle_alpha	102.122415
_cell_angle_beta	83.801840
_cell_angle_gamma	90.002839
loop_
_atom_site_label
_atom_site_type_symbol
_atom_site_fract_x
_atom_site_fract_y
_atom_site_fract_z
O1	O	0.756249	0.064544	0.151445
O2	O	0.590528	0.066794	0.173360
O3	O	0.677208	0.047150	-0.019286
O4	O	0.669569	0.084188	0.344091
O5	O	0.677193	-0.051216	-0.019258
O6	O	0.590513	-0.031572	0.173388
O7	O	0.756234	-0.033823	0.151473
Zn8	Zn	0.673371	-0.048315	0.162435
Zn9	Zn	0.673391	0.081287	0.162398
O10	O	0.669554	-0.014178	0.344119
C11	C	0.569301	0.017556	0.172816
C12	C	0.506073	0.017392	0.171138
C13	C	0.107643	0.027913	0.274618
C14	C	0.048233	0.027750	0.273059
O15	O	0.012112	0.037506	0.368986
N16	N	0.024861	0.016078	0.158532
C17	C	0.060904	0.004561	0.045555
O18	O	0.035569	-0.005383	-0.052003
C19	C	0.120313	0.004719	0.047115
C20	C	0.143681	0.016398	0.161650
C21	C	0.131012	0.039590	0.389144
C22	C	0.190418	0.039754	0.390702
C23	C	0.226456	0.028240	0.277734
C24	C	0.203087	0.016562	0.163208
C25	C	0.156354	-0.006802	-0.065860
C26	C	0.215767	-0.006643	-0.064291
C27	C	0.239135	0.005036	0.050245
C28	C	0.298531	0.005211	0.051799
N29	N	0.321903	0.016884	0.166327
C30	C	0.285865	0.028398	0.279294
C31	C	-0.063860	0.004228	0.042287
C32	C	-0.123268	0.004074	0.040726
C33	C	-0.135935	0.027262	0.268231
C34	C	-0.076526	0.027420	0.269791
C35	C	-0.040489	0.015901	0.156815
C36	C	0.410623	0.028741	0.282558
C37	C	0.470035	0.028906	0.284106
C38	C	0.482697	0.005715	0.056602
C39	C	0.423290	0.005553	0.055053
C40	C	0.387254	0.017065	0.168041
O41	O	0.334687	-0.004542	-0.044078
O42	O	0.311208	0.038333	0.376836
N43	N	0.673361	-0.136765	0.162460
C44	C	0.711775	-0.554110	0.077107
C45	C	0.711777	-0.616031	0.077098
O46	O	0.744414	-0.655448	0.004548
N47	N	0.673390	-0.638311	0.162372
C48	C	0.634994	-0.598668	0.247652
O49	O	0.602343	-0.623305	0.320183
C50	C	0.634989	-0.536749	0.247654
C51	C	0.673382	-0.514471	0.162383
C52	C	0.750164	-0.531832	-0.008158
C53	C	0.750162	-0.469915	-0.008147
C54	C	0.711770	-0.430276	0.077129
C55	C	0.673380	-0.452555	0.162394
C56	C	0.596590	-0.497107	0.332927
C57	C	0.596588	-0.435185	0.332922
C58	C	0.634982	-0.412907	0.247651
C59	C	0.634986	-0.350999	0.247681
N60	N	0.673373	-0.328719	0.162407
C61	C	0.711765	-0.368357	0.077131
C62	C	0.635007	-0.728703	0.247640
C63	C	0.635015	-0.790620	0.247645
C64	C	0.711797	-0.807979	0.077089
C65	C	0.711792	-0.746060	0.077091
C66	C	0.673394	-0.706422	0.162366
C67	C	0.711757	-0.238327	0.077162
C68	C	0.711753	-0.176404	0.077184
C69	C	0.634969	-0.159051	0.247734
C70	C	0.634975	-0.220968	0.247717
C71	C	0.673371	-0.260606	0.162421
O72	O	0.602364	-0.311547	0.320191
O73	O	0.744406	-0.343713	0.004602
C74	C	0.777461	0.015416	0.152017
C75	C	0.840689	0.015585	0.153695
C76	C	0.676643	-0.006770	-0.065752
C77	C	0.674976	-0.020882	-0.204249
N78	N	0.673405	0.169736	0.162364
C79	C	0.672520	0.009196	-0.409154
C80	C	0.674242	0.023787	-0.266010
C81	C	0.670119	0.039742	0.390585
C82	C	0.671786	0.053859	0.529082
H83	H	0.381289	0.038114	0.374564
H84	H	0.672427	0.102897	-0.417820
H85	H	0.781424	-0.451782	-0.077585
H86	H	-0.034521	-0.005148	-0.049717
N87	N	0.557362	-0.519841	0.420031
N88	N	0.504723	-0.513034	0.418891
H89	H	0.477014	-0.529087	0.480414
N90	N	0.557358	-0.394706	0.420035
N91	N	0.523084	-0.414610	0.496154
H92	H	0.495379	-0.386023	0.557680
H93	H	0.674882	0.072829	-0.212917
H94	H	-0.142289	-0.005428	-0.052540
N95	N	0.132504	-0.018731	-0.182869
N96	N	0.164698	-0.029013	-0.283712
H97	H	0.147856	-0.037438	-0.366358
H98	H	0.743055	-0.727926	0.007655
H99	H	0.674326	-0.069924	-0.257338
H100	H	0.245106	-0.016024	-0.156292
H101	H	0.603717	-0.239105	0.317165
N102	N	0.751011	-0.848469	-0.010047
N103	N	0.785284	-0.828577	-0.086188
H104	H	0.812977	-0.857174	-0.147726
N105	N	0.595760	-0.118546	0.334835
N106	N	0.595767	-0.063263	0.334817
H107	H	0.568073	-0.034655	0.396328
N108	N	0.750971	-0.153660	-0.009943
N109	N	0.785240	-0.189065	-0.086087
H110	H	0.812934	-0.173005	-0.147627
H111	H	-0.165288	0.036635	0.360216
H112	H	0.209438	0.049265	0.483969
H113	H	0.743023	-0.270594	0.007704
H114	H	-0.057504	0.036927	0.363056
N115	N	0.671704	-0.052320	-0.475767
N116	N	0.670305	-0.064085	-0.591953
H117	H	0.669728	-0.107533	-0.638998
H118	H	0.101675	0.048965	0.481142
N119	N	0.493894	0.040842	0.401118
N120	N	0.461707	0.051121	0.501971
H121	H	0.478555	0.059550	0.584609
H122	H	0.603757	-0.808752	0.317093
H123	H	0.404263	-0.003949	-0.038211
H124	H	0.512049	-0.003658	-0.035374
H125	H	0.781428	-0.564102	-0.077605
H126	H	0.603740	-0.696431	0.317091
