data_functionalizedCrystal
_audit_creation_method	'MofGen! by Chris Wilmer'
_symmetry_space_group_name_H-M	'P1'
_symmetry_Int_Tables_number	1
_symmetry_cell_setting	triclinic
loop_
_symmetry_equiv_pos_as_xyz
  x,y,z
_cell_length_a	21.395362
_cell_length_b	19.077068
_cell_length_c	21.395356
_cell_angle_alpha	92.269849
_cell_angle_beta	89.957023
_cell_angle_gamma	92.343691
loop_
_atom_site_label
_atom_site_type_symbol
_atom_site_fract_x
_atom_site_fract_y
_atom_site_fract_z
Zn1	Zn	0.947857	-0.279924	-0.364584
Zn2	Zn	0.943558	-0.397624	-0.264010
Zn3	Zn	0.843072	-0.279976	-0.259787
Zn4	Zn	0.838838	-0.397620	-0.368715
O5	O	0.893331	-0.338786	-0.314274
O6	O	1.034965	-0.295518	-0.351281
O7	O	0.930201	-0.382041	-0.175773
O8	O	0.860543	-0.181477	-0.270192
O9	O	1.031807	-0.381991	-0.277390
O10	O	0.937528	-0.181439	-0.347186
O11	O	0.856374	-0.295606	-0.172670
O12	O	0.754831	-0.295601	-0.274198
O13	O	0.853327	-0.381984	-0.455844
O14	O	0.751721	-0.382034	-0.354227
O15	O	0.933423	-0.295514	-0.452809
O16	O	0.926095	-0.496116	-0.281396
O17	O	0.849158	-0.496113	-0.358322
C18	C	0.730542	-0.338823	-0.314203
C19	C	0.660900	-0.338856	-0.314188
C20	C	0.626581	-0.383921	-0.355801
C21	C	0.561146	-0.383904	-0.355828
C22	C	0.530032	-0.338829	-0.314231
C23	C	0.564359	-0.293755	-0.272615
C24	C	0.629793	-0.293769	-0.272593
C25	C	0.426511	-0.333169	-0.257624
C26	C	0.361078	-0.333161	-0.257645
C27	C	0.328213	-0.338783	-0.314299
C28	C	0.360789	-0.344429	-0.370934
C29	C	0.426222	-0.344443	-0.370912
C30	C	0.459081	-0.338809	-0.314251
C31	C	0.222943	-0.383832	-0.355945
C32	C	0.157507	-0.383810	-0.355973
C33	C	0.160721	-0.293665	-0.272755
C34	C	0.226156	-0.293683	-0.272732
C35	C	0.257262	-0.338771	-0.314326
C36	C	0.886718	-0.521652	-0.320779
C37	C	0.883946	-0.599883	-0.323583
C38	C	0.922732	-0.636615	-0.284883
C39	C	0.920129	-0.710121	-0.287523
C40	C	0.878736	-0.746895	-0.328862
C41	C	0.839948	-0.710158	-0.367567
C42	C	0.842555	-0.636653	-0.364929
C43	C	0.866643	-0.966733	-0.341047
C44	C	0.864038	-1.040243	-0.343681
C45	C	0.944219	-1.040201	-0.263637
C46	C	0.946820	-0.966695	-0.261000
C47	C	0.908035	-0.929965	-0.299707
N48	N	0.876072	-0.822030	-0.331561
N49	N	0.910702	-0.854831	-0.297011
C50	C	1.056756	-0.338749	-0.314346
C51	C	1.126398	-0.338734	-0.314377
C52	C	0.893382	-0.338743	-0.477696
C53	C	0.893404	-0.338724	-0.547337
C54	C	0.899987	-0.155206	-0.307757
C55	C	0.902824	-0.076975	-0.304980
C56	C	0.854973	-0.293712	-0.578424
C57	C	0.854971	-0.293699	-0.643859
C58	C	0.893412	-0.338690	-0.678204
C59	C	0.931845	-0.383711	-0.647109
C60	C	0.931841	-0.383728	-0.581675
C61	C	0.949667	-0.344206	-0.782106
C62	C	0.949672	-0.344185	-0.847538
C63	C	0.893424	-0.338643	-0.880023
C64	C	0.837169	-0.333108	-0.847067
C65	C	0.837165	-0.333125	-0.781633
C66	C	0.893420	-0.338678	-0.749156
C67	C	0.854988	-0.293614	-0.982062
C68	C	0.854985	-0.293606	-1.047499
C69	C	0.931864	-0.383615	-1.050747
C70	C	0.931862	-0.383627	-0.985312
C71	C	0.893424	-0.338623	-0.950973
C72	C	0.893318	-0.338779	-0.151486
C73	C	0.893425	-0.338599	-0.081839
H74	H	0.135389	-0.256961	-0.238889
O75	O	0.973303	-0.432238	-0.684154
H76	H	0.960545	-0.487483	-0.673554
O77	O	0.795305	-0.749822	-0.412156
H78	H	0.768777	-0.711929	-0.438628
O79	O	0.666807	-0.245171	-0.227695
H80	H	0.656282	-0.189942	-0.236553
O81	O	0.986063	-1.079826	-0.221910
H82	H	0.956856	-1.113385	-0.191204
H83	H	0.963165	-0.420247	-1.078710
O84	O	0.813529	-0.245129	-0.677390
H85	H	0.842889	-0.209316	-0.705945
H86	H	0.810972	-0.606747	-0.396444
O87	O	0.824808	-0.927126	-0.382793
H88	H	0.833577	-0.869835	-0.374023
O89	O	0.813522	-0.245169	-0.541386
H90	H	0.786798	-0.213867	-0.574000
O91	O	0.973305	-0.432270	-0.548144
H92	H	0.960564	-0.487511	-0.562655
O93	O	0.325944	-0.327068	-0.196564
H94	H	0.359789	-0.323144	-0.157166
H95	H	0.951712	-0.740025	-0.256009
H96	H	0.453264	-0.328588	-0.211486
O97	O	0.819386	-1.079914	-0.388263
H98	H	0.846224	-1.113356	-0.421367
O99	O	0.776495	-0.327127	-0.882092
H100	H	0.744105	-0.371885	-0.871092
O101	O	0.660134	-0.432539	-0.400669
H102	H	0.625273	-0.463868	-0.429615
H103	H	0.254098	-0.256990	-0.238843
O104	O	0.776497	-0.327150	-0.746084
H105	H	0.737382	-0.323293	-0.779660
O106	O	0.967380	-0.596952	-0.240298
H107	H	0.993918	-0.634846	-0.213836
O108	O	0.524131	-0.432540	-0.400698
H109	H	0.537180	-0.420573	-0.449466
O110	O	0.813529	-0.245078	-0.945023
H111	H	0.819990	-0.252643	-0.894299
H112	H	0.823686	-0.256954	-1.072809
O113	O	0.991471	-0.927031	-0.216419
H114	H	1.018010	-0.964923	-0.189956
H115	H	0.963158	-0.420279	-0.960001
O116	O	1.010339	-0.350179	-0.747070
H117	H	1.049456	-0.354011	-0.780977
O118	O	1.010343	-0.350148	-0.883083
H119	H	1.049454	-0.354017	-0.849504
H120	H	0.539022	-0.257054	-0.238748
O121	O	0.461358	-0.350516	-0.431993
H122	H	0.446991	-0.400619	-0.457092
O123	O	0.325357	-0.350483	-0.432049
H124	H	0.293790	-0.398148	-0.432700
O125	O	0.256502	-0.432449	-0.400812
H126	H	0.221642	-0.463775	-0.429762
H127	H	0.129566	-0.420506	-0.389864
