data_functionalizedCrystal
_audit_creation_method	'MofGen! by Chris Wilmer'
_symmetry_space_group_name_H-M	'P1'
_symmetry_Int_Tables_number	1
_symmetry_cell_setting	triclinic
loop_
_symmetry_equiv_pos_as_xyz
  x,y,z
_cell_length_a	10.654554
_cell_length_b	16.992695
_cell_length_c	9.130313
_cell_angle_alpha	89.998255
_cell_angle_beta	89.998999
_cell_angle_gamma	87.577533
loop_
_atom_site_label
_atom_site_type_symbol
_atom_site_fract_x
_atom_site_fract_y
_atom_site_fract_z
O1	O	1.677354	0.110204	-0.121827
O2	O	1.312783	0.120698	-0.121825
O3	O	1.493607	0.001301	-0.121815
O4	O	1.496530	0.229602	-0.121838
O5	O	1.493605	0.001304	0.121784
O6	O	1.312781	0.120702	0.121774
O7	O	1.677352	0.110207	0.121771
Cu8	Cu	1.495066	0.115455	0.144015
Cu9	Cu	1.495069	0.115451	-0.144069
O10	O	1.496528	0.229605	0.121761
C11	C	1.265918	0.119929	-0.000025
C12	C	1.126275	0.117621	-0.000024
C13	C	1.489846	-0.027931	-0.000015
C14	C	1.478627	-0.115036	-0.000016
C15	C	0.937263	0.042982	-0.000035
C16	C	1.068472	0.045150	-0.000020
C17	C	1.052862	0.187929	-0.000027
C18	C	0.921656	0.185761	-0.000031
C19	C	0.946277	-0.039450	-0.000038
C20	C	1.077486	-0.037283	-0.000023
C21	C	1.586877	-0.164687	-0.000015
C22	C	1.576328	-0.246531	-0.000029
C23	C	1.457527	-0.278723	-0.000033
C24	C	1.349268	-0.229066	-0.000038
C25	C	1.359819	-0.147223	-0.000035
C26	C	1.413800	-0.522559	-0.000053
C27	C	1.403258	-0.604407	-0.000052
C28	C	1.630319	-0.621867	-0.000045
C29	C	1.640859	-0.540022	-0.000033
C30	C	1.532600	-0.490372	-0.000046
N31	N	1.446741	-0.362380	-0.000042
N32	N	1.543387	-0.406716	-0.000047
C33	C	1.724218	0.110977	-0.000032
C34	C	1.863860	0.113285	-0.000043
C35	C	1.500289	0.258837	-0.000041
C36	C	1.511509	0.345942	-0.000051
N37	N	1.495074	0.115457	0.346638
N38	N	1.495071	0.115443	-0.346691
C39	C	1.575166	0.062606	0.423294
C40	C	1.575162	0.062596	0.576631
C41	C	1.414970	0.168296	0.576641
C42	C	1.414968	0.168301	0.423307
C43	C	1.667656	0.001583	0.423290
C44	C	1.667652	0.001574	0.576627
H45	H	0.861895	0.243008	-0.000020
O46	O	0.903681	-0.082141	0.135004
H47	H	0.799655	-0.083838	0.134908
O48	O	1.797019	0.019396	0.631758
H49	H	1.796933	0.019375	0.753325
O50	O	1.620727	-0.073915	0.639599
H51	H	1.536426	-0.060404	0.707995
H52	H	1.099936	0.246937	-0.000016
H53	H	1.683618	-0.138483	-0.000002
H54	H	0.908381	-0.065701	-0.105217
H55	H	1.120971	-0.062191	0.105164
H56	H	1.349749	0.211320	0.639082
O57	O	1.693083	-0.300086	-0.000004
H58	H	1.777464	-0.263951	0.000026
H59	H	1.116560	-0.068339	-0.101968
O60	O	1.747074	-0.675421	-0.000037
H61	H	1.831454	-0.639286	-0.000022
H62	H	1.737599	-0.513818	-0.000029
H63	H	1.306511	-0.630614	-0.000031
O64	O	1.790631	0.026887	0.360289
H65	H	1.773527	0.080269	0.291898
O66	O	1.297042	-0.469012	-0.000029
H67	H	1.212664	-0.505149	-0.000006
H68	H	1.349740	0.211330	0.360895
H69	H	1.252538	-0.255282	-0.000050
H70	H	1.641002	-0.058718	0.381676
O71	O	1.243065	-0.093665	-0.000020
H72	H	1.158682	-0.129798	-0.000006
