data_functionalizedCrystal
_audit_creation_method	'MofGen! by Chris Wilmer'
_symmetry_space_group_name_H-M	'P1'
_symmetry_Int_Tables_number	1
_symmetry_cell_setting	triclinic
loop_
_symmetry_equiv_pos_as_xyz
  x,y,z
_cell_length_a	14.044191
_cell_length_b	15.995350
_cell_length_c	12.503572
_cell_angle_alpha	93.525550
_cell_angle_beta	86.162165
_cell_angle_gamma	88.342076
loop_
_atom_site_label
_atom_site_type_symbol
_atom_site_fract_x
_atom_site_fract_y
_atom_site_fract_z
O1	O	1.263171	0.197459	-0.089258
O2	O	0.987202	0.190168	-0.089272
O3	O	1.132730	0.072489	-0.089264
O4	O	1.117643	0.315137	-0.089267
O5	O	1.121785	0.081355	0.089377
O6	O	0.976257	0.199034	0.089369
O7	O	1.252226	0.206325	0.089383
Cu8	Cu	1.113242	0.203489	0.105687
Cu9	Cu	1.126186	0.193004	-0.105577
O10	O	1.106698	0.324003	0.089375
C11	C	0.946415	0.191411	0.000046
C12	C	0.841190	0.181898	0.000041
C13	C	0.590903	0.231977	0.000051
C14	C	0.648532	0.164519	0.000050
C15	C	0.755736	0.174191	0.000045
C16	C	0.483688	0.222306	0.000056
C17	C	1.126634	0.045681	0.000055
C18	C	1.124765	-0.047410	0.000048
C19	C	1.118049	-0.385659	0.000052
C20	C	1.014431	-0.345988	-0.000354
C21	C	1.016276	-0.249138	0.000049
C22	C	1.121380	-0.217849	0.000049
C23	C	1.166250	-0.250045	0.102063
C24	C	1.163641	-0.346871	0.102148
C25	C	1.178229	-0.357151	-0.101000
C26	C	1.178287	-0.260275	-0.102348
C27	C	1.123268	-0.123011	0.000052
C28	C	1.116163	-0.480497	0.000057
C29	C	1.293013	0.205081	0.000062
C30	C	1.398239	0.214594	0.000060
C31	C	1.112794	0.350811	0.000054
C32	C	1.114664	0.443902	0.000053
N33	N	1.104146	0.210864	0.254279
N34	N	1.135290	0.185623	-0.254168
C35	C	1.090764	0.221719	0.473394
C36	C	1.148668	0.174770	0.526724
C37	C	1.141223	0.180810	0.648647
C38	C	1.098209	0.215680	0.351460
H39	H	0.617361	0.099499	-0.000025
F40	F	1.221057	0.116575	0.466721
F41	F	0.631649	0.316952	0.000041
F42	F	1.278961	-0.233107	-0.110405
F43	F	1.018665	0.280184	0.533395
H44	H	0.968733	-0.365053	0.072390
F45	F	1.135854	-0.232788	-0.201004
F46	F	0.966140	-0.378999	-0.095976
F47	F	0.969609	-0.220654	-0.095534
H48	H	1.149080	-0.384060	-0.178320
H49	H	0.971335	-0.220660	0.073297
F50	F	1.278163	-0.391248	-0.101898
H51	H	1.243235	-0.229962	0.105858
F52	F	1.108808	-0.369488	0.201818
H53	H	1.239451	-0.373204	0.106778
H54	H	1.126094	-0.220548	0.177977
