data_functionalizedCrystal
_audit_creation_method	'MofGen! by Chris Wilmer'
_symmetry_space_group_name_H-M	'P1'
_symmetry_Int_Tables_number	1
_symmetry_cell_setting	triclinic
loop_
_symmetry_equiv_pos_as_xyz
  x,y,z
_cell_length_a	13.635800
_cell_length_b	29.829442
_cell_length_c	10.943624
_cell_angle_alpha	89.246172
_cell_angle_beta	71.161201
_cell_angle_gamma	112.381068
loop_
_atom_site_label
_atom_site_type_symbol
_atom_site_fract_x
_atom_site_fract_y
_atom_site_fract_z
V1	V	2.067584	0.067113	-0.403365
O2	O	2.036127	-0.003238	-0.394849
O3	O	2.066229	0.133086	-0.401412
O4	O	2.056413	0.066074	-0.578919
O5	O	2.046011	0.064237	-0.216113
V6	V	2.304750	0.058698	-0.380870
O7	O	2.208295	0.085570	-0.452709
O8	O	2.389137	0.040242	-0.331526
O9	O	2.194502	-0.007274	-0.382823
O10	O	2.394905	0.129049	-0.389386
O11	O	2.385021	0.061574	-0.568122
O12	O	2.204317	0.059737	-0.205316
V13	V	2.567584	0.067113	-0.403365
O14	O	2.536127	-0.003238	-0.394849
O15	O	2.566229	0.133086	-0.401412
O16	O	2.556413	0.066074	-0.578919
O17	O	2.546011	0.064237	-0.216113
V18	V	2.804750	0.058698	-0.380870
O19	O	2.708295	0.085570	-0.452709
O20	O	2.889137	0.040242	-0.331526
O21	O	2.694502	-0.007274	-0.382823
O22	O	2.894905	0.129049	-0.389386
O23	O	2.885021	0.061574	-0.568122
O24	O	2.704317	0.059737	-0.205316
C25	C	1.993865	0.149168	-0.395256
C26	C	2.033487	0.203102	-0.394829
C27	C	2.371746	0.540029	-0.398796
C28	C	2.520732	0.742738	-0.397252
O29	O	2.618604	0.771054	-0.402614
N30	N	2.446945	0.765613	-0.390581
C31	C	2.335905	0.737808	-0.384305
O32	O	2.276567	0.761917	-0.378609
C33	C	2.186923	0.535101	-0.385857
C34	C	2.260715	0.512228	-0.392515
C35	C	2.445530	0.517156	-0.405455
C36	C	2.408283	0.466482	-0.405833
C37	C	2.297252	0.438680	-0.399553
C38	C	2.223468	0.461553	-0.392894
C39	C	2.075888	0.507297	-0.379590
C40	C	2.038649	0.456618	-0.379982
C41	C	2.112440	0.433745	-0.386640
C42	C	2.075189	0.383077	-0.386992
N43	N	2.148976	0.360202	-0.393663
C44	C	2.260007	0.388004	-0.399944
C45	C	2.414129	0.844232	-0.383487
C46	C	2.451373	0.894909	-0.383097
C47	C	2.636199	0.899835	-0.396047
C48	C	2.598950	0.849157	-0.396428
C49	C	2.487916	0.821357	-0.390158
C50	C	2.181778	0.281583	-0.400737
C51	C	2.144518	0.230904	-0.401110
C52	C	1.959699	0.225982	-0.388166
C53	C	1.996953	0.276657	-0.387787
C54	C	2.108002	0.304457	-0.394077
O55	O	1.977340	0.354732	-0.381649
O56	O	2.319335	0.363888	-0.405668
C57	C	2.408993	0.590704	-0.398417
C58	C	2.335209	0.613577	-0.391758
C59	C	2.224178	0.585776	-0.385478
C60	C	2.372453	0.664254	-0.391368
C61	C	2.483485	0.692055	-0.397648
C62	C	2.557272	0.669180	-0.404319
C63	C	2.520024	0.618505	-0.404697
C64	C	2.150391	0.608651	-0.378807
C65	C	2.187645	0.659325	-0.378427
C66	C	2.298676	0.687127	-0.384708
C67	C	1.981344	0.063689	-0.621683
C68	C	2.013003	0.063276	-0.765204
C69	C	2.098537	-0.023355	-0.388975
C70	C	2.048535	-0.077288	-0.389411
C71	C	2.602022	0.976645	-0.388967
C72	C	2.562404	0.922710	-0.389377
C73	C	1.983746	-0.109546	-0.271286
C74	C	1.936742	-0.160222	-0.271677
C75	C	1.954537	-0.178641	-0.390193
C76	C	2.019329	-0.146379	-0.508326
C77	C	2.066325	-0.095703	-0.507935
C78	C	1.935011	0.060501	-0.842318
C79	C	2.035729	0.101702	-0.948808
C80	C	1.968711	0.021345	-0.914446
C81	C	2.113332	0.104517	-0.869818
C82	C	2.046268	0.024123	-0.835432
C83	C	2.147056	0.065336	-0.941893
C84	C	2.111058	0.062124	-0.162546
C85	C	2.069017	0.062534	-0.019023
C86	C	2.493865	0.149168	-0.395256
C87	C	2.533487	0.203102	-0.394829
C88	C	2.481344	0.063689	-0.621683
C89	C	2.513003	0.063276	-0.765204
C90	C	2.611058	0.062124	-0.162546
C91	C	2.569017	0.062534	-0.019023
C92	C	2.644518	0.230904	-0.401110
C93	C	2.681767	0.281582	-0.400729
C94	C	2.607980	0.304457	-0.394058
C95	C	2.496940	0.276652	-0.387781
C96	C	2.459696	0.225975	-0.388171
C97	C	2.435011	0.060501	-0.842318
C98	C	2.535729	0.101702	-0.948808
C99	C	2.468711	0.021345	-0.914446
C100	C	2.613332	0.104517	-0.869818
C101	C	2.546268	0.024123	-0.835432
C102	C	2.647056	0.065336	-0.941893
H103	H	2.204614	0.212283	-0.406527
C104	C	1.886530	-0.026146	-0.941851
N105	N	1.824625	-0.061914	-0.962486
H106	H	2.704613	0.212285	-0.406534
H107	H	2.050350	-0.008677	-0.786051
C108	C	2.337546	0.195398	-0.381241
N109	N	2.245539	0.172369	-0.376018
H110	H	2.550350	-0.008677	-0.786051
C111	C	2.313574	0.057815	-0.783574
N112	N	2.222111	0.055794	-0.739326
C113	C	2.648965	0.360202	-0.393620
N114	N	2.679840	0.402190	-0.393286
H115	H	2.531605	0.134500	-0.998154
H116	H	2.119083	-0.069442	-0.604128
H117	H	1.883990	-0.186484	-0.175475
H118	H	2.674181	0.139706	-0.849700
C119	C	1.902839	-0.234388	-0.390601
N120	N	1.863902	-0.276377	-0.390900
C121	C	2.768590	0.068121	-1.000400
N122	N	2.860133	0.070224	-1.044489
H123	H	2.772183	0.304213	-0.405837
H124	H	2.174181	0.139706	-0.849700
H125	H	2.407886	-0.013798	-0.934783
H126	H	2.726607	0.922479	-0.401147
H127	H	1.845119	0.058511	-0.798845
C128	C	2.303928	0.312155	-0.407647
N129	N	2.395929	0.335181	-0.412840
C130	C	2.268590	0.068121	-1.000400
N131	N	2.360133	0.070224	-1.044489
H132	H	2.468379	0.447864	-0.411264
H133	H	2.659041	0.830538	-0.401847
C134	C	2.567673	0.547730	-0.412357
N135	N	2.659673	0.570754	-0.417545
H136	H	2.391275	0.913526	-0.377658
H137	H	2.323712	0.821602	-0.378379
C138	C	1.916502	0.426040	-0.373078
N139	N	1.824500	0.403010	-0.367873
C140	C	2.030156	0.146007	-1.015487
N141	N	2.025950	0.179376	-1.065707
H142	H	2.015788	0.525911	-0.374158
C143	C	2.038900	-0.166648	-0.638686
N144	N	2.053646	-0.181916	-0.736871
H145	H	2.580118	0.599887	-0.410119
H146	H	1.869291	0.203336	-0.383047
C147	C	1.915777	0.301817	-0.380455
N148	N	1.854635	0.320765	-0.374946
C149	C	2.679417	0.699772	-0.411238
N150	N	2.771417	0.722817	-0.416462
H151	H	2.059981	0.586020	-0.373694
C152	C	2.106455	0.684479	-0.371101
N153	N	2.045307	0.703425	-0.365595
C154	C	1.964149	-0.089296	-0.140900
N155	N	1.949377	-0.074047	-0.042687
H156	H	2.436872	0.295284	-0.382350
