data_functionalizedCrystal
_audit_creation_method	'MofGen! by Chris Wilmer'
_symmetry_space_group_name_H-M	'P1'
_symmetry_Int_Tables_number	1
_symmetry_cell_setting	triclinic
loop_
_symmetry_equiv_pos_as_xyz
  x,y,z
_cell_length_a	14.044191
_cell_length_b	13.101039
_cell_length_c	14.044220
_cell_angle_alpha	93.667477
_cell_angle_beta	86.809673
_cell_angle_gamma	93.662449
loop_
_atom_site_label
_atom_site_type_symbol
_atom_site_fract_x
_atom_site_fract_y
_atom_site_fract_z
O1	O	1.281976	0.085169	-0.225377
O2	O	1.005305	0.085182	-0.217064
O3	O	1.139487	0.085166	-0.082885
O4	O	1.147794	0.085186	-0.359556
O5	O	1.129861	-0.085263	-0.092530
O6	O	0.995679	-0.085247	-0.226708
O7	O	1.272350	-0.085259	-0.235022
Zn8	Zn	1.132486	-0.112312	-0.232396
Zn9	Zn	1.145169	0.112235	-0.219689
O10	O	1.138168	-0.085243	-0.369200
C11	C	0.964870	-0.000031	-0.218250
C12	C	0.858727	-0.000026	-0.207402
C13	C	0.613268	-0.000032	-0.264503
C14	C	0.664393	-0.000036	-0.187587
C15	C	0.772531	-0.000031	-0.198615
C16	C	0.505121	-0.000038	-0.253476
N17	N	1.123838	-0.265560	-0.241069
C18	C	1.112072	-0.474601	-0.252876
C19	C	1.165588	-0.525483	-0.199205
C20	C	1.159041	-0.641801	-0.205775
C21	C	1.118617	-0.358273	-0.246308
C22	C	1.312785	-0.000044	-0.233836
C23	C	1.418929	-0.000042	-0.244683
C24	C	1.131038	-0.000049	-0.052086
C25	C	1.120194	-0.000050	0.054057
N26	N	1.153824	0.265482	-0.211010
C27	C	1.146617	-0.000026	-0.400000
C28	C	1.157462	-0.000019	-0.506143
C29	C	1.100368	-0.000034	0.248396
C30	C	1.177283	-0.000034	0.299524
C31	C	1.166252	-0.000026	0.407661
C32	C	1.111398	-0.000043	0.140250
H33	H	0.650710	-0.000024	-0.338629
H34	H	0.626954	0.000031	-0.113451
H35	H	1.061342	-0.518392	-0.303757
H36	H	1.216322	-0.481687	-0.148323
H37	H	1.251420	0.000031	0.262087
H38	H	1.026241	-0.000028	0.285836
