data_functionalizedCrystal
_audit_creation_method	'MofGen! by Chris Wilmer'
_symmetry_space_group_name_H-M	'P1'
_symmetry_Int_Tables_number	1
_symmetry_cell_setting	triclinic
loop_
_symmetry_equiv_pos_as_xyz
  x,y,z
_cell_length_a	16.974800
_cell_length_b	9.065218
_cell_length_c	7.540329
_cell_angle_alpha	89.998243
_cell_angle_beta	93.653857
_cell_angle_gamma	84.201147
loop_
_atom_site_label
_atom_site_type_symbol
_atom_site_fract_x
_atom_site_fract_y
_atom_site_fract_z
O1	O	1.050494	0.187924	0.003357
O2	O	1.550494	0.687924	0.503357
O3	O	0.820459	0.211896	-0.029675
O4	O	1.320459	0.711896	0.470325
O5	O	0.940231	-0.014861	-0.012472
O6	O	1.440231	0.485139	0.487528
O7	O	0.930722	0.414681	-0.013845
O8	O	1.430722	0.914681	0.486155
O9	O	0.940224	-0.014864	0.282492
O10	O	1.440224	0.485136	0.782492
O11	O	0.820452	0.211893	0.265289
O12	O	1.320452	0.711893	0.765289
O13	O	1.050487	0.187921	0.298321
O14	O	1.550487	0.687921	0.798321
Cu15	Cu	0.935469	0.199907	0.308738
Cu16	Cu	1.435469	0.699907	0.808738
Cu17	Cu	0.935477	0.199910	-0.040091
Cu18	Cu	1.435477	0.699910	0.459909
O19	O	0.930715	0.414678	0.281119
O20	O	1.430715	0.914678	0.781119
C21	C	0.790990	0.210986	0.113576
C22	C	1.290990	0.710986	0.613576
C23	C	0.703194	0.208263	0.100969
C24	C	1.203194	0.708263	0.600969
C25	C	0.939314	-0.069825	0.134876
C26	C	1.439314	0.430175	0.634876
C27	C	0.936581	-0.233594	0.134475
C28	C	1.436581	0.266406	0.634475
C29	C	0.661948	0.206978	0.255835
C30	C	1.161948	0.706978	0.755835
C31	C	0.579455	0.204396	0.243995
C32	C	1.079455	0.704396	0.743995
C33	C	0.538209	0.203108	0.077286
C34	C	1.038209	0.703108	0.577286
C35	C	0.579462	0.204389	-0.077592
C36	C	1.079462	0.704389	0.422408
C37	C	0.661953	0.206961	-0.065749
C38	C	1.161953	0.706961	0.434251
C39	C	0.291496	0.195406	0.024627
C40	C	0.791496	0.695406	0.524627
C41	C	0.208998	0.192838	0.012796
C42	C	0.708998	0.692838	0.512796
C43	C	0.208998	0.192843	0.334383
C44	C	0.708998	0.692843	0.834383
C45	C	0.291490	0.195424	0.346211
C46	C	0.791490	0.695424	0.846211
C47	C	0.332736	0.196696	0.191334
C48	C	0.832736	0.696696	0.691334
N49	N	0.453888	0.200473	0.065179
N50	N	0.953888	0.700473	0.565179
N51	N	0.417056	0.199321	0.203443
N52	N	0.917056	0.699321	0.703443
C53	C	1.079956	0.188830	0.155066
C54	C	1.579956	0.688830	0.655066
C55	C	1.167752	0.191554	0.167662
C56	C	1.667752	0.691554	0.667662
C57	C	0.931632	0.469641	0.133767
C58	C	1.431632	0.969641	0.633767
C59	C	0.934365	0.633410	0.134156
C60	C	1.434365	1.133410	0.634156
N61	N	0.935468	0.199904	0.554086
N62	N	1.435468	0.699904	1.054086
N63	N	0.935484	0.199901	-0.285439
N64	N	1.435484	0.699901	0.214561
H65	H	0.695523	0.208039	0.391587
H66	H	1.195523	0.708039	0.891587
H67	H	0.695535	0.208009	-0.191858
H68	H	1.195535	0.708009	0.308142
H69	H	0.545878	0.203325	0.370103
H70	H	1.045878	0.703325	0.870103
F71	F	0.535565	0.202973	-0.255016
F72	F	1.035565	0.702973	0.244984
H73	H	0.175407	0.191804	0.460476
H74	H	0.675407	0.691804	0.960476
F75	F	0.335381	0.196802	0.523645
F76	F	0.835381	0.696802	1.023645
H77	H	0.175418	0.191795	-0.122965
H78	H	0.675418	0.691795	0.377035
F79	F	0.335382	0.196762	-0.140210
F80	F	0.835382	0.696762	0.359790
