data_functionalizedCrystal
_audit_creation_method	'MofGen! by Chris Wilmer'
_symmetry_space_group_name_H-M	'P1'
_symmetry_Int_Tables_number	1
_symmetry_cell_setting	triclinic
loop_
_symmetry_equiv_pos_as_xyz
  x,y,z
_cell_length_a	18.101398
_cell_length_b	18.101395
_cell_length_c	18.101389
_cell_angle_alpha	89.983159
_cell_angle_beta	89.975673
_cell_angle_gamma	90.026371
loop_
_atom_site_label
_atom_site_type_symbol
_atom_site_fract_x
_atom_site_fract_y
_atom_site_fract_z
Zn1	Zn	1.132121	-0.295001	-0.418847
Zn2	Zn	1.632121	0.204999	0.081153
Zn3	Zn	1.132017	-0.418826	-0.295009
Zn4	Zn	1.632017	0.081174	0.204991
Zn5	Zn	1.008280	-0.294993	-0.295008
Zn6	Zn	1.508280	0.205007	0.204992
Zn7	Zn	1.008231	-0.418795	-0.418797
Zn8	Zn	1.508231	0.081205	0.081203
O9	O	1.070162	-0.356904	-0.356915
O10	O	1.570162	0.143096	0.143085
O11	O	1.235740	-0.311443	-0.402440
O12	O	1.735740	0.188557	0.097560
O13	O	1.115580	-0.402410	-0.191376
O14	O	1.615580	0.097590	0.308624
O15	O	1.024772	-0.191361	-0.311456
O16	O	1.524772	0.308639	0.188544
O17	O	1.235664	-0.402417	-0.311457
O18	O	1.735664	0.097583	0.188543
O19	O	1.115757	-0.191367	-0.402440
O20	O	1.615757	0.308633	0.097560
O21	O	1.024671	-0.311430	-0.191375
O22	O	1.524671	0.188570	0.308625
O23	O	0.904641	-0.311399	-0.311408
O24	O	1.404641	0.188601	0.188592
O25	O	1.024688	-0.402363	-0.522437
O26	O	1.524688	0.097637	-0.022437
O27	O	0.904604	-0.402356	-0.402355
O28	O	1.404604	0.097644	0.097645
O29	O	1.115710	-0.311412	-0.522473
O30	O	1.615710	0.188588	-0.022473
O31	O	1.115532	-0.522455	-0.311409
O32	O	1.615532	-0.022455	0.188591
O33	O	1.024587	-0.522432	-0.402356
O34	O	1.524587	-0.022432	0.097644
C35	C	0.877752	-0.356874	-0.356877
C36	C	1.377752	0.143126	0.143123
C37	C	0.795437	-0.356879	-0.356878
C38	C	1.295437	0.143121	0.143122
C39	C	1.070063	-0.549314	-0.356893
C40	C	1.570063	-0.049314	0.143107
C41	C	1.070088	-0.631628	-0.356909
C42	C	1.570088	-0.131628	0.143091
C43	C	0.496347	-0.356925	-0.356940
C44	C	0.996347	0.143075	0.143060
C45	C	0.527670	-0.299412	-0.299997
C46	C	1.027670	0.200588	0.200003
C47	C	0.613288	-0.299566	-0.299754
C48	C	1.113288	0.200434	0.200246
C49	C	0.644729	-0.356901	-0.356909
C50	C	1.144729	0.143099	0.143091
C51	C	0.613611	-0.434909	-0.335587
C52	C	1.113611	0.065091	0.164413
C53	C	0.527966	-0.434590	-0.335191
C54	C	1.027966	0.065410	0.164809
C55	C	0.527961	-0.337109	-0.435339
C56	C	1.027961	0.162891	0.064661
C57	C	0.613612	-0.335371	-0.434911
C58	C	1.113612	0.164629	0.065089
C59	C	0.728589	-0.356893	-0.356893
C60	C	1.228589	0.143107	0.143107
C61	C	0.412487	-0.356939	-0.356954
C62	C	0.912487	0.143061	0.143046
C63	C	1.070251	-0.930719	-0.356949
C64	C	1.570251	-0.430719	0.143051
C65	C	1.013163	-0.899410	-0.414312
C66	C	1.513163	-0.399410	0.085688
C67	C	1.012892	-0.813792	-0.414133
C68	C	1.512892	-0.313792	0.085867
C69	C	1.070170	-0.782337	-0.356930
C70	C	1.570170	-0.282337	0.143070
C71	C	1.049041	-0.813472	-0.278878
C72	C	1.549041	-0.313472	0.221122
C73	C	1.048673	-0.899117	-0.279221
C74	C	1.548673	-0.399117	0.220779
C75	C	1.148593	-0.899073	-0.376950
C76	C	1.648593	-0.399073	0.123050
C77	C	1.148132	-0.813422	-0.378661
C78	C	1.648132	-0.313422	0.121339
C79	C	1.070126	-0.698477	-0.356914
C80	C	1.570126	-0.198477	0.143086
C81	C	1.070293	-1.014579	-0.356959
C82	C	1.570293	-0.514579	0.143041
C83	C	1.263324	-0.356934	-0.356954
C84	C	1.763324	0.143066	0.143046
C85	C	1.345638	-0.356948	-0.356971
C86	C	1.845638	0.143052	0.143029
C87	C	1.070205	-0.356885	-0.550077
C88	C	1.570205	0.143115	-0.050077
C89	C	1.070223	-0.356877	-0.632391
C90	C	1.570223	0.143123	-0.132391
C91	C	1.070282	-0.163742	-0.356953
C92	C	1.570282	0.336258	0.143047
C93	C	1.070333	-0.081428	-0.356970
C94	C	1.570333	0.418572	0.143030
C95	C	1.070266	-0.356738	-0.931482
C96	C	1.570266	0.143262	-0.431482
C97	C	1.012801	-0.413780	-0.900134
C98	C	1.512801	0.086220	-0.400134
C99	C	1.012956	-0.414045	-0.814516
C100	C	1.512956	0.085955	-0.314516
C101	C	1.070244	-0.356807	-0.783100
C102	C	1.570244	0.143193	-0.283100
C103	C	1.148270	-0.377998	-0.814206
C104	C	1.648270	0.122002	-0.314206
C105	C	1.147949	-0.378372	-0.899851
C106	C	1.647949	0.121628	-0.399851
C107	C	1.050385	-0.278379	-0.899905
C108	C	1.550385	0.221621	-0.399905
C109	C	1.048649	-0.278832	-0.814254
C110	C	1.548649	0.221168	-0.314254
C111	C	1.070237	-0.356845	-0.699240
C112	C	1.570237	0.143155	-0.199240
C113	C	1.070279	-0.356702	-1.015342
C114	C	1.570279	0.143298	-0.515342
C115	C	1.070162	-0.356869	-0.164505
C116	C	1.570162	0.143131	0.335495
C117	C	1.070287	-0.356668	-0.082191
C118	C	1.570287	0.143332	0.417809
H119	H	0.634329	-0.241719	-0.313119
H120	H	1.134329	0.258281	0.186881
H121	H	1.089313	-0.793097	-0.234972
H122	H	1.589313	-0.293097	0.265028
H123	H	1.092240	-0.235880	-0.920179
H124	H	1.592240	0.264120	-0.420179
F125	F	0.937726	-0.927629	-0.397225
F126	F	1.437726	-0.427629	0.102775
H127	H	1.191125	-0.919319	-0.335170
H128	H	1.691125	-0.419319	0.164830
F129	F	0.936991	-0.787085	-0.396818
F130	F	1.436991	-0.287085	0.103182
H131	H	0.635026	-0.452008	-0.278892
H132	H	1.135026	0.047992	0.221108
H133	H	1.088449	-0.919830	-0.235023
H134	H	1.588449	-0.419830	0.264977
H135	H	1.026082	-0.472127	-0.794035
H136	H	1.526082	0.027873	-0.294035
F137	F	0.977309	-0.253146	-0.928116
F138	F	1.477309	0.246854	-0.428116
F139	F	1.099370	-0.220332	-0.786310
F140	F	1.599370	0.279668	-0.286310
F141	F	1.205739	-0.325401	-0.787614
F142	F	1.705739	0.174599	-0.287614
F143	F	0.640212	-0.260344	-0.455933
F144	F	1.140212	0.239656	0.044067
F145	F	0.641586	-0.386138	-0.493338
F146	F	1.141586	0.113862	0.006662
F147	F	0.973593	-0.257946	-0.787686
F148	F	1.473593	0.242054	-0.287686
H149	H	0.507705	-0.378999	-0.477766
H150	H	1.007705	0.121001	0.022234
F151	F	1.205779	-0.326393	-0.926961
F152	F	1.705779	0.173607	-0.426961
F153	F	0.499491	-0.316327	-0.224509
F154	F	0.999491	0.183673	0.275491
F155	F	0.500784	-0.223569	-0.317272
F156	F	1.000784	0.276431	0.182728
F157	F	0.499768	-0.264052	-0.460678
F158	F	0.999768	0.235948	0.039322
F159	F	1.030169	-0.786273	-0.489779
F160	F	1.530169	-0.286273	0.010221
F161	F	1.170683	-0.452073	-0.786183
F162	F	1.670683	0.047927	-0.286183
F163	F	1.030267	-0.926284	-0.490205
F164	F	1.530267	-0.426284	0.009795
H165	H	0.991406	-0.919153	-0.262279
H166	H	1.491406	-0.419153	0.237721
H167	H	0.992380	-0.792080	-0.261633
H168	H	1.492380	-0.292080	0.238367
F169	F	0.640220	-0.492421	-0.388103
F170	F	1.140220	0.007579	0.111897
F171	F	0.937331	-0.396708	-0.787022
F172	F	1.437331	0.103292	-0.287022
H173	H	0.633741	-0.312665	-0.241661
H174	H	1.133741	0.187335	0.258339
H175	H	1.167856	-0.920633	-0.432895
H176	H	1.667856	-0.420633	0.067105
F177	F	0.501807	-0.456556	-0.260278
F178	F	1.001807	0.043444	0.239722
F179	F	1.168960	-0.786823	-0.453742
F180	F	1.668960	-0.286823	0.046258
H181	H	0.954768	-0.400655	-0.920720
H182	H	1.454768	0.099345	-0.420720
F183	F	0.500878	-0.492498	-0.387032
F184	F	1.000878	0.007502	0.112968
H185	H	1.192915	-0.792007	-0.339927
H186	H	1.692915	-0.292007	0.160073
H187	H	1.025796	-0.471508	-0.921661
H188	H	1.525796	0.028492	-0.421661
F189	F	1.169978	-0.453243	-0.925975
F190	F	1.669978	0.046757	-0.425975
