data_functionalizedCrystal
_audit_creation_method	'MofGen! by Chris Wilmer'
_symmetry_space_group_name_H-M	'P1'
_symmetry_Int_Tables_number	1
_symmetry_cell_setting	triclinic
loop_
_symmetry_equiv_pos_as_xyz
  x,y,z
_cell_length_a	10.723023
_cell_length_b	14.519731
_cell_length_c	9.798715
_cell_angle_alpha	89.995867
_cell_angle_beta	89.996770
_cell_angle_gamma	84.078200
loop_
_atom_site_label
_atom_site_type_symbol
_atom_site_fract_x
_atom_site_fract_y
_atom_site_fract_z
O1	O	1.655992	0.129343	-0.113480
O2	O	1.292725	0.141724	-0.113487
O3	O	1.483976	0.001346	-0.113471
O4	O	1.464741	0.269722	-0.113496
O5	O	1.483962	0.001345	0.113511
O6	O	1.292710	0.141724	0.113496
O7	O	1.655977	0.129342	0.113502
Zn8	Zn	1.474342	0.135533	0.149537
Zn9	Zn	1.474360	0.135534	-0.149522
O10	O	1.464726	0.269721	0.113486
C11	C	1.246226	0.140823	0.000004
C12	C	1.107697	0.138128	0.000002
C13	C	1.483067	-0.033019	0.000020
C14	C	1.480367	-0.135413	0.000021
C15	C	1.045929	0.136926	0.117585
C16	C	0.902751	0.134140	0.117585
C17	C	1.478172	-0.218568	0.000018
C18	C	1.475430	-0.322891	0.000008
C19	C	1.473254	-0.406041	-0.000001
C20	C	1.470512	-0.510370	-0.000009
C21	C	1.702476	0.130243	0.000008
C22	C	1.841005	0.132939	0.000001
C23	C	1.465635	0.304085	-0.000008
C24	C	1.468336	0.406479	-0.000018
N25	N	1.474338	0.135532	0.353637
N26	N	1.474374	0.135527	-0.353622
C27	C	1.554642	0.076331	0.421420
C28	C	1.554662	0.076328	0.578583
H29	H	1.099046	0.137954	0.218251
H30	H	0.849631	0.133112	0.218252
H31	H	1.405597	0.186211	0.411955
C32	C	0.911949	0.134465	-0.134140
C33	C	0.972854	0.215112	-0.141256
C34	C	1.038242	0.216545	-0.264797
H35	H	0.854773	0.133400	-0.208025
H36	H	0.972190	0.081798	-0.139218
H37	H	0.912620	0.267766	-0.136191
H38	H	1.030050	0.216195	-0.067399
H39	H	1.098483	0.163877	-0.269875
H40	H	0.981057	0.215477	-0.338672
H41	H	1.079583	0.271259	-0.269636
C42	C	1.646156	0.008620	0.343708
C43	C	1.625412	-0.082110	0.378311
C44	C	1.709682	-0.144503	0.306725
H45	H	1.729596	0.018891	0.366968
H46	H	1.633933	0.017564	0.248405
H47	H	1.637645	-0.091050	0.473594
H48	H	1.541988	-0.092410	0.355048
H49	H	1.697459	-0.135559	0.211421
H50	H	1.793117	-0.134224	0.329990
H51	H	1.695611	-0.206070	0.330183
C52	C	1.646538	0.008845	0.656222
C53	C	1.769309	0.024361	0.621562
C54	C	1.853980	-0.037782	0.693071
H55	H	1.632791	-0.052803	0.632937
H56	H	1.634453	0.017828	0.751537
H57	H	1.781390	0.015370	0.526269
H58	H	1.783096	0.085997	0.644851
H59	H	1.841895	-0.028798	0.788386
H60	H	1.840222	-0.099426	0.669780
H61	H	1.937290	-0.027257	0.669574
C62	C	1.382894	0.203164	0.568500
C63	C	1.449787	0.259848	0.486425
C64	C	1.365559	0.322158	0.414642
H65	H	1.332491	0.240393	0.631266
H66	H	1.330795	0.169746	0.512690
H67	H	1.501864	0.293264	0.542231
H68	H	1.500185	0.222645	0.423634
H69	H	1.313460	0.288740	0.358832
H70	H	1.315160	0.359381	0.477417
H71	H	1.410933	0.360620	0.358936
H72	H	1.054581	0.137092	-0.100664
