data_functionalizedCrystal
_audit_creation_method	'MofGen! by Chris Wilmer'
_symmetry_space_group_name_H-M	'P1'
_symmetry_Int_Tables_number	1
_symmetry_cell_setting	triclinic
loop_
_symmetry_equiv_pos_as_xyz
  x,y,z
_cell_length_a	6.817900
_cell_length_b	19.453114
_cell_length_c	12.200863
_cell_angle_alpha	94.895602
_cell_angle_beta	107.143441
_cell_angle_gamma	101.709288
loop_
_atom_site_label
_atom_site_type_symbol
_atom_site_fract_x
_atom_site_fract_y
_atom_site_fract_z
V1	V	-4.025501	-0.219071	-0.159907
O2	O	-3.993988	-0.214827	0.006455
O3	O	-3.995349	-0.217643	-0.315887
O4	O	-3.968192	-0.314583	-0.157987
O5	O	-4.021333	-0.117216	-0.152538
V6	V	-4.507919	-0.206880	-0.139945
O7	O	-4.289184	-0.245813	-0.203697
O8	O	-4.694434	-0.180137	-0.096155
O9	O	-4.314864	-0.208307	0.016035
O10	O	-4.656830	-0.211123	-0.306307
O11	O	-4.629484	-0.308734	-0.147314
O12	O	-4.342022	-0.111368	-0.141865
C13	C	-3.845078	-0.214206	-0.353895
C14	C	-3.901652	-0.213675	-0.481414
C15	C	-4.005195	-0.212709	-0.714885
C16	C	-3.947568	-0.213247	-0.584965
C17	C	-3.810434	-0.337861	-0.152476
C18	C	-3.844982	-0.415943	-0.151938
C19	C	-4.043668	-0.456203	-0.157443
C20	C	-4.076129	-0.529569	-0.156937
C21	C	-3.909904	-0.562675	-0.150950
C22	C	-3.711187	-0.522406	-0.145437
C23	C	-3.678726	-0.449040	-0.145931
N24	N	-3.857248	-0.681492	-0.211530
N25	N	-3.888099	-0.751187	-0.211063
C26	C	-4.007696	-0.783723	-0.149459
N27	N	-4.095315	-0.743933	-0.088353
N28	N	-4.064470	-0.674232	-0.088825
C29	C	-3.945082	-0.642228	-0.150413
C30	C	-4.241592	-0.903535	-0.154414
C31	C	-4.274043	-0.976902	-0.153902
C32	C	-3.909101	-0.969738	-0.142413
C33	C	-3.876650	-0.896372	-0.142914
C34	C	-4.042906	-0.863275	-0.148921
C35	C	-4.128479	-0.211743	0.054037
C36	C	-4.051142	-0.212278	0.181555
C37	C	-4.163122	-0.088086	-0.147380
C38	C	-4.107813	-0.010003	-0.147912
H39	H	-4.237931	-0.562356	-0.161426
O40	O	-3.485686	-0.409871	-0.140427
C41	C	-3.407003	-0.357618	-0.040547
H42	H	-3.486002	-0.375063	0.026181
H43	H	-3.442577	-0.305154	-0.065062
C44	C	-3.069253	-0.326418	-0.070423
C45	C	-3.166269	-0.347847	0.011538
H46	H	-2.920756	-0.320388	-0.038296
H47	H	-3.122264	-0.361620	-0.137716
H48	H	-3.098920	-0.282700	-0.090844
H49	H	-3.136624	-0.391568	0.031947
H50	H	-3.113247	-0.312652	0.078836
O51	O	-4.467211	-1.015912	-0.159299
C52	C	-4.606962	-0.970961	-0.164675
H53	H	-4.548238	-0.921114	-0.199856
H54	H	-4.614248	-0.955388	-0.073992
C55	C	-4.901229	-1.071450	-0.202314
C56	C	-4.829112	-1.010231	-0.245533
H57	H	-5.038264	-1.095674	-0.252186
H58	H	-4.807076	-1.101735	-0.198688
H59	H	-4.907283	-1.058464	-0.126745
H60	H	-4.823033	-1.023218	-0.321094
H61	H	-4.923269	-0.979949	-0.249174
H62	H	-4.179048	-0.429260	-0.162329
O63	O	-3.549803	-0.554628	-0.139472
C64	C	-3.508659	-0.587268	-0.038968
H65	H	-3.655619	-0.598177	-0.010591
H66	H	-3.371811	-0.550526	0.033607
C67	C	-3.269556	-0.644420	-0.100403
C68	C	-3.450062	-0.657824	-0.065557
H69	H	-3.233401	-0.687941	-0.116801
H70	H	-3.297268	-0.622428	-0.168113
H71	H	-3.155538	-0.613800	-0.039918
H72	H	-3.564082	-0.688436	-0.126047
H73	H	-3.422367	-0.679824	0.002143
H74	H	-4.376966	-0.876586	-0.159301
H75	H	-3.714865	-0.863593	-0.138444
H76	H	-3.773751	-0.996692	-0.137528
