data_functionalizedCrystal
_audit_creation_method	'MofGen! by Chris Wilmer'
_symmetry_space_group_name_H-M	'P1'
_symmetry_Int_Tables_number	1
_symmetry_cell_setting	triclinic
loop_
_symmetry_equiv_pos_as_xyz
  x,y,z
_cell_length_a	10.654562
_cell_length_b	16.109304
_cell_length_c	9.130313
_cell_angle_alpha	90.001562
_cell_angle_beta	89.996930
_cell_angle_gamma	83.976371
loop_
_atom_site_label
_atom_site_type_symbol
_atom_site_fract_x
_atom_site_fract_y
_atom_site_fract_z
O1	O	1.666242	0.116820	-0.121886
O2	O	1.300615	0.127935	-0.121866
O3	O	1.493470	0.001407	-0.121877
O4	O	1.473386	0.243348	-0.121875
O5	O	1.493468	0.001410	0.121721
O6	O	1.300612	0.127938	0.121732
O7	O	1.666239	0.116824	0.121713
Cu8	Cu	1.483426	0.122381	0.143965
Cu9	Cu	1.483428	0.122377	-0.144119
O10	O	1.473384	0.243352	0.121724
C11	C	1.253827	0.127118	-0.000065
C12	C	1.114418	0.124670	-0.000058
C13	C	1.048901	0.123530	0.132717
C14	C	0.917910	0.121236	0.132692
C15	C	0.917963	0.121226	-0.132893
C16	C	1.048953	0.123514	-0.132867
C17	C	1.048869	0.123539	0.286050
C18	C	0.917878	0.121245	0.286026
C19	C	1.492655	-0.029571	-0.000081
C20	C	1.490214	-0.121881	-0.000091
C21	C	1.484576	-0.334254	-0.132871
C22	C	1.482271	-0.420988	-0.132870
C23	C	1.482274	-0.420981	0.132715
C24	C	1.484571	-0.334248	0.132712
C25	C	1.485728	-0.290887	-0.000085
C26	C	1.481126	-0.464354	-0.000081
C27	C	1.478627	-0.558395	-0.000078
C28	C	1.488225	-0.196840	-0.000088
C29	C	1.713027	0.117640	-0.000092
C30	C	1.852436	0.120088	-0.000108
C31	C	1.474199	0.274330	-0.000075
C32	C	1.476640	0.366639	-0.000075
N33	N	1.483433	0.122384	0.346588
N34	N	1.483431	0.122368	-0.346741
C35	C	1.568851	0.066376	0.423235
C36	C	1.568848	0.066366	0.576572
C37	C	1.398004	0.178378	0.576601
C38	C	1.398002	0.178384	0.423267
C39	C	1.667490	0.001709	0.423220
C40	C	1.667487	0.001699	0.576556
H41	H	1.485515	-0.298952	-0.241003
O42	O	0.861791	0.189664	0.356671
C43	C	0.729916	0.241772	0.557899
C44	C	0.793308	0.164250	0.477914
H45	H	0.674511	0.221252	0.655922
H46	H	0.805260	0.281863	0.597289
H47	H	0.662974	0.279597	0.479623
H48	H	0.860242	0.126360	0.556104
H49	H	0.717897	0.124220	0.438499
O50	O	1.481213	-0.462990	-0.261989
C51	C	1.481377	-0.453832	-0.525412
C52	C	1.482611	-0.406165	-0.379285
H53	H	1.482480	-0.407907	-0.620284
H54	H	1.568152	-0.501520	-0.532161
H55	H	1.392485	-0.487359	-0.531965
H56	H	1.571445	-0.372588	-0.372634
H57	H	1.395777	-0.358524	-0.372598
O58	O	1.481220	-0.463238	0.261577
C59	C	1.477632	-0.596847	0.379288
C60	C	1.478843	-0.549100	0.233245
H61	H	1.475683	-0.666272	0.356432
H62	H	1.565940	-0.586952	0.444774
H63	H	1.390276	-0.572648	0.444786
H64	H	1.566140	-0.573268	0.167628
H65	H	1.390477	-0.558994	0.167870
O66	O	1.315074	0.232890	0.650927
C67	C	1.241453	0.376998	0.697941
C68	C	1.335424	0.315355	0.613657
H69	H	1.257891	0.443684	0.667863
H70	H	1.140857	0.365607	0.667759
H71	H	1.256102	0.367331	0.820692
H72	H	1.320891	0.324985	0.490886
H73	H	1.435987	0.326760	0.643960
H74	H	0.864645	0.120285	-0.241021
H75	H	0.889111	0.060612	0.333604
O76	O	1.485520	-0.292194	0.261802
C77	C	1.377452	-0.256812	0.488759
C78	C	1.376241	-0.304494	0.342644
H79	H	1.289097	-0.266725	0.554148
H80	H	1.464774	-0.280971	0.554341
H81	H	1.379347	-0.187383	0.465905
H82	H	1.374301	-0.373930	0.365365
H83	H	1.288928	-0.280267	0.277107
H84	H	1.646913	-0.062195	0.381600
O85	O	1.775928	0.025771	0.366265
C86	C	1.958430	-0.011796	0.215034
C87	C	1.835663	-0.039163	0.279428
H88	H	2.006776	-0.064287	0.144838
H89	H	1.935420	0.046275	0.144685
H90	H	2.024031	0.002870	0.308007
H91	H	1.770005	-0.053874	0.186548
H92	H	1.858768	-0.097207	0.349816
O93	O	1.632134	-0.070419	0.633053
C94	C	1.565540	-0.205883	0.582142
C95	C	1.605563	-0.124257	0.517963
H96	H	1.544022	-0.249426	0.489124
H97	H	1.645270	-0.237397	0.652339
H98	H	1.477607	-0.191225	0.652496
H99	H	1.693468	-0.138843	0.447543
H100	H	1.525759	-0.092766	0.447850
O101	O	1.782444	0.018737	0.625966
C102	C	1.991955	0.049678	0.561936
C103	C	1.861822	0.030414	0.505782
H104	H	2.056177	0.059106	0.464797
H105	H	1.980537	0.108848	0.631267
H106	H	2.035518	-0.004724	0.631335
H107	H	1.818187	0.084764	0.436324
H108	H	1.873322	-0.028784	0.436531
H109	H	1.077621	0.184175	0.333627
O110	O	1.112685	0.124468	-0.261803
C111	C	1.274903	0.055165	-0.415850
C112	C	1.202803	0.053972	-0.269787
H113	H	1.347798	-0.001816	-0.422339
H114	H	1.205679	0.053894	-0.510832
H115	H	1.324668	0.114341	-0.422467
H116	H	1.153035	-0.005195	-0.263027
H117	H	1.272086	0.055287	-0.174875
O118	O	1.105151	0.054973	0.356085
C119	C	1.251467	-0.069256	0.338386
C120	C	1.187842	0.008369	0.258913
H121	H	1.318316	-0.106966	0.259849
H122	H	1.306959	-0.048904	0.436465
H123	H	1.176146	-0.109396	0.377662
H124	H	1.263080	0.048543	0.219541
H125	H	1.132322	-0.012041	0.160903
H126	H	1.328437	0.223982	0.360862
