data_functionalizedCrystal
_audit_creation_method	'MofGen! by Chris Wilmer'
_symmetry_space_group_name_H-M	'P1'
_symmetry_Int_Tables_number	1
_symmetry_cell_setting	triclinic
loop_
_symmetry_equiv_pos_as_xyz
  x,y,z
_cell_length_a	13.897449
_cell_length_b	18.215385
_cell_length_c	18.215405
_cell_angle_alpha	89.904210
_cell_angle_beta	90.026165
_cell_angle_gamma	89.936355
loop_
_atom_site_label
_atom_site_type_symbol
_atom_site_fract_x
_atom_site_fract_y
_atom_site_fract_z
Zn1	Zn	1.475063	-0.416078	-0.292493
Zn2	Zn	1.725063	-0.166078	-0.042493
Zn3	Zn	1.975063	0.083922	0.207507
Zn4	Zn	2.225063	0.333922	0.457507
Zn5	Zn	1.474816	-0.293006	-0.415704
Zn6	Zn	1.724816	-0.043006	-0.165704
Zn7	Zn	1.974816	0.206994	0.084296
Zn8	Zn	2.224816	0.456994	0.334296
Zn9	Zn	1.313631	-0.293028	-0.292659
Zn10	Zn	1.563631	-0.043028	-0.042659
Zn11	Zn	1.813631	0.206972	0.207341
Zn12	Zn	2.063631	0.456972	0.457341
Zn13	Zn	1.313714	-0.416034	-0.415525
Zn14	Zn	1.563714	-0.166034	-0.165525
Zn15	Zn	1.813714	0.083966	0.084475
Zn16	Zn	2.063714	0.333966	0.334475
O17	O	1.394306	-0.354536	-0.354095
O18	O	1.644306	-0.104536	-0.104095
O19	O	1.894306	0.145464	0.145905
O20	O	2.144306	0.395464	0.395905
O21	O	1.610012	-0.399762	-0.308843
O22	O	1.860012	-0.149762	-0.058843
O23	O	2.110012	0.100238	0.191157
O24	O	2.360012	0.350238	0.441157
O25	O	1.453297	-0.190024	-0.399527
O26	O	1.703297	0.059976	-0.149527
O27	O	1.953297	0.309976	0.100473
O28	O	2.203297	0.559976	0.350473
O29	O	1.335115	-0.309379	-0.189652
O30	O	1.585115	-0.059379	0.060348
O31	O	1.835115	0.190621	0.310348
O32	O	2.085115	0.440621	0.560348
O33	O	1.609830	-0.309341	-0.399366
O34	O	1.859830	-0.059341	-0.149366
O35	O	2.109830	0.190659	0.100634
O36	O	2.359830	0.440659	0.350634
O37	O	1.453718	-0.399783	-0.189531
O38	O	1.703718	-0.149783	0.060469
O39	O	1.953718	0.100217	0.310469
O40	O	2.203718	0.350217	0.560469
O41	O	1.334875	-0.190040	-0.309126
O42	O	1.584875	0.059960	-0.059126
O43	O	1.834875	0.309960	0.190874
O44	O	2.084875	0.559960	0.440874
O45	O	1.178661	-0.309336	-0.308952
O46	O	1.428661	-0.059336	-0.058952
O47	O	1.678661	0.190664	0.191048
O48	O	1.928661	0.440664	0.441048
O49	O	1.335255	-0.519024	-0.399060
O50	O	1.585255	-0.269024	-0.149060
O51	O	1.835255	-0.019024	0.100940
O52	O	2.085255	0.230976	0.350940
O53	O	1.178721	-0.399708	-0.399221
O54	O	1.428721	-0.149708	-0.149221
O55	O	1.678721	0.100292	0.100779
O56	O	1.928721	0.350292	0.350779
O57	O	1.453798	-0.519057	-0.308669
O58	O	1.703798	-0.269057	-0.058669
O59	O	1.953798	-0.019057	0.191331
O60	O	2.203798	0.230943	0.441331
O61	O	1.453376	-0.309298	-0.518665
O62	O	1.703376	-0.059298	-0.268665
O63	O	1.953376	0.190702	-0.018665
O64	O	2.203376	0.440702	0.231335
O65	O	1.335015	-0.399686	-0.518533
O66	O	1.585015	-0.149686	-0.268533
O67	O	1.835015	0.100314	-0.018533
O68	O	2.085015	0.350314	0.231467
C69	C	1.143692	-0.354520	-0.354085
C70	C	1.393692	-0.104520	-0.104085
C71	C	1.643692	0.145480	0.145915
C72	C	1.893692	0.395480	0.395915
C73	C	1.036478	-0.354530	-0.354099
C74	C	1.286478	-0.104530	-0.104099
C75	C	1.536478	0.145470	0.145901
C76	C	1.786478	0.395470	0.395901
C77	C	1.394204	-0.354501	-0.545302
C78	C	1.644204	-0.104501	-0.295302
C79	C	1.894204	0.145499	-0.045302
C80	C	2.144204	0.395499	0.204698
C81	C	1.394249	-0.354511	-0.627100
C82	C	1.644249	-0.104511	-0.377100
C83	C	1.894249	0.145489	-0.127100
C84	C	2.144249	0.395489	0.122900
C85	C	1.394106	-0.163330	-0.354310
C86	C	1.644106	0.086670	-0.104310
C87	C	1.894106	0.336670	0.145690
C88	C	2.144106	0.586670	0.395690
C89	C	1.394183	-0.081531	-0.354218
C90	C	1.644183	0.168469	-0.104218
C91	C	1.894183	0.418469	0.145782
C92	C	2.144183	0.668469	0.395782
C93	C	0.840183	-0.354549	-0.354101
C94	C	1.090183	-0.104549	-0.104101
C95	C	1.340183	0.145451	0.145899
C96	C	1.590183	0.395451	0.395899
C97	C	0.949415	-0.354537	-0.354098
C98	C	1.199415	-0.104537	-0.104098
C99	C	1.449415	0.145463	0.145902
C100	C	1.699415	0.395463	0.395902
C101	C	1.645899	-0.354554	-0.354106
C102	C	1.895899	-0.104554	-0.104106
C103	C	2.145899	0.145446	0.145894
C104	C	2.395899	0.395446	0.395894
C105	C	1.753113	-0.354561	-0.354110
C106	C	2.003113	-0.104561	-0.104110
C107	C	2.253113	0.145439	0.145890
C108	C	2.503113	0.395439	0.395890
C109	C	1.394563	-0.546490	-0.353826
C110	C	1.644563	-0.296490	-0.103826
C111	C	1.894563	-0.046490	0.146174
C112	C	2.144563	0.203510	0.396174
C113	C	1.394673	-0.628289	-0.353711
C114	C	1.644673	-0.378289	-0.103711
C115	C	1.894673	-0.128289	0.146289
C116	C	2.144673	0.121711	0.396289
C117	C	1.332287	0.106619	-0.307283
C118	C	1.582287	0.356619	-0.057283
C119	C	1.832287	0.606619	0.192717
C120	C	2.082287	0.856619	0.442717
C121	C	1.332371	0.183478	-0.307195
C122	C	1.582371	0.433478	-0.057195
C123	C	1.832371	0.683478	0.192805
C124	C	2.082371	0.933478	0.442805
C125	C	1.456576	0.183555	-0.400648
C126	C	1.706576	0.433555	-0.150648
C127	C	1.956576	0.683555	0.099352
C128	C	2.206576	0.933555	0.349352
C129	C	1.456496	0.106698	-0.400732
C130	C	1.706496	0.356698	-0.150732
C131	C	1.956496	0.606698	0.099268
C132	C	2.206496	0.856698	0.349268
C133	C	1.394346	0.068232	-0.354050
C134	C	1.644346	0.318232	-0.104050
C135	C	1.894346	0.568232	0.145950
C136	C	2.144346	0.818232	0.395950
C137	C	1.394510	0.221948	-0.353879
C138	C	1.644510	0.471948	-0.103879
C139	C	1.894510	0.721948	0.146121
C140	C	2.144510	0.971948	0.396121
C141	C	1.394602	0.305281	-0.353784
C142	C	1.644602	0.555281	-0.103784
C143	C	1.894602	0.805281	0.146216
C144	C	2.144602	1.055281	0.396216
C145	C	1.394255	-0.015107	-0.354144
C146	C	1.644255	0.234893	-0.104144
C147	C	1.894255	0.484893	0.145856
C148	C	2.144255	0.734893	0.395856
C149	C	1.456024	-0.307532	-0.815338
C150	C	1.706024	-0.057532	-0.565338
C151	C	1.956024	0.192468	-0.315338
C152	C	2.206024	0.442468	-0.065338
C153	C	1.456068	-0.307550	-0.892197
C154	C	1.706068	-0.057550	-0.642197
C155	C	1.956068	0.192450	-0.392197
C156	C	2.206068	0.442450	-0.142197
C157	C	1.332711	-0.401594	-0.892100
C158	C	1.582711	-0.151594	-0.642100
C159	C	1.832711	0.098406	-0.392100
C160	C	2.082711	0.348406	-0.142100
C161	C	1.332674	-0.401579	-0.815243
C162	C	1.582674	-0.151579	-0.565243
C163	C	1.832674	0.098421	-0.315243
C164	C	2.082674	0.348421	-0.065243
C165	C	1.394329	-0.354544	-0.776864
C166	C	1.644329	-0.104544	-0.526864
C167	C	1.894329	0.145456	-0.276864
C168	C	2.144329	0.395456	-0.026864
C169	C	1.394409	-0.354577	-0.930580
C170	C	1.644409	-0.104577	-0.680580
C171	C	1.894409	0.145423	-0.430580
C172	C	2.144409	0.395423	-0.180580
C173	C	1.394456	-0.354596	-1.013913
C174	C	1.644456	-0.104596	-0.763913
C175	C	1.894456	0.145404	-0.513913
C176	C	2.144456	0.395404	-0.263913
C177	C	1.394284	-0.354525	-0.693525
C178	C	1.644284	-0.104525	-0.443525
C179	C	1.894284	0.145475	-0.193525
C180	C	2.144284	0.395475	0.056475
C181	C	1.394435	-0.354588	-0.162142
C182	C	1.644435	-0.104588	0.087858
C183	C	1.894435	0.145412	0.337858
C184	C	2.144435	0.395412	0.587858
C185	C	1.394489	-0.354610	-0.080343
C186	C	1.644489	-0.104610	0.169657
C187	C	1.894489	0.145390	0.419657
C188	C	2.144489	0.395390	0.669657
H189	H	1.281683	0.075303	-0.269269
H190	H	1.531683	0.325303	-0.019269
H191	H	1.781683	0.575303	0.230731
H192	H	2.031683	0.825303	0.480731
H193	H	1.281838	0.214730	-0.269111
H194	H	1.531838	0.464730	-0.019111
H195	H	1.781838	0.714730	0.230889
H196	H	2.031838	0.964730	0.480889
H197	H	1.507175	0.214883	-0.438656
H198	H	1.757175	0.464883	-0.188656
H199	H	2.007175	0.714883	0.061344
H200	H	2.257175	0.964883	0.311344
H201	H	1.506229	-0.269234	-0.784092
H202	H	1.756229	-0.019234	-0.534092
H203	H	2.006229	0.230766	-0.284092
H204	H	2.256229	0.480766	-0.034092
F205	F	1.267009	-0.451622	-0.774293
F206	F	1.517009	-0.201622	-0.524293
F207	F	1.767009	0.048378	-0.274293
F208	F	2.017009	0.298378	-0.024293
H209	H	1.507037	0.075442	-0.438816
H210	H	1.757037	0.325442	-0.188816
H211	H	2.007037	0.575442	0.061184
H212	H	2.257037	0.825442	0.311184
F213	F	1.521735	-0.257515	-0.933141
F214	F	1.771735	-0.007515	-0.683141
F215	F	2.021735	0.242485	-0.433141
F216	F	2.271735	0.492485	-0.183141
F217	F	1.267095	-0.451648	-0.932952
F218	F	1.517095	-0.201648	-0.682952
F219	F	1.767095	0.048352	-0.432952
F220	F	2.017095	0.298352	-0.182952
