data_functionalizedCrystal
_audit_creation_method	'MofGen! by Chris Wilmer'
_symmetry_space_group_name_H-M	'P1'
_symmetry_Int_Tables_number	1
_symmetry_cell_setting	triclinic
loop_
_symmetry_equiv_pos_as_xyz
  x,y,z
_cell_length_a	12.837943
_cell_length_b	14.519709
_cell_length_c	11.892095
_cell_angle_alpha	93.895429
_cell_angle_beta	85.689438
_cell_angle_gamma	89.254542
loop_
_atom_site_label
_atom_site_type_symbol
_atom_site_fract_x
_atom_site_fract_y
_atom_site_fract_z
O1	O	1.382515	0.234472	-0.093988
O2	O	1.080688	0.222627	-0.093995
O3	O	1.239604	0.095003	-0.093981
O4	O	1.223600	0.362096	-0.094002
O5	O	1.226354	0.105626	0.094025
O6	O	1.067438	0.233250	0.094012
O7	O	1.369265	0.245095	0.094018
Zn8	Zn	1.216248	0.240859	0.123865
Zn9	Zn	1.233706	0.226863	-0.123842
O10	O	1.210350	0.372719	0.094005
C11	C	1.035435	0.223937	0.000008
C12	C	0.920336	0.212002	0.000006
C13	C	0.679644	0.355473	0.000011
C14	C	0.571497	0.344264	0.000010
C15	C	0.595894	0.178377	0.000010
C16	C	0.704041	0.189586	0.000012
C17	C	0.745911	0.278137	0.000010
C18	C	0.854060	0.289344	0.000003
C19	C	0.878455	0.123458	0.000012
C20	C	0.770308	0.112249	0.000011
C21	C	1.232233	0.065890	0.000022
C22	C	1.229998	-0.036684	0.000023
C23	C	1.221771	-0.412293	-0.000007
C24	C	1.224055	-0.307787	0.000002
C25	C	1.225884	-0.224492	0.000009
C26	C	1.228169	-0.119979	0.000016
C27	C	1.414519	0.243785	0.000013
C28	C	1.529618	0.255719	0.000008
C29	C	1.217721	0.401831	-0.000001
C30	C	1.219957	0.504405	-0.000009
N31	N	1.204341	0.250411	0.292918
N32	N	1.245621	0.217304	-0.292895
C33	C	1.328473	0.150784	0.529576
C34	C	1.320158	0.157468	0.647918
C35	C	1.179391	0.270458	0.647944
C36	C	1.187707	0.263774	0.529603
C37	C	1.262251	0.203936	0.470423
C38	C	1.270570	0.197257	0.352080
C39	C	1.129800	0.310242	0.352108
C40	C	1.121484	0.316926	0.470449
H41	H	0.932423	0.060485	0.000004
H42	H	1.060789	0.365642	0.518647
H43	H	0.736201	0.040154	0.000025
H44	H	1.075880	0.353524	0.303932
H45	H	0.517545	0.407240	0.000013
C46	C	0.724983	0.451652	-0.000174
C47	C	0.698114	0.493508	-0.096890
C48	C	0.739849	0.582114	-0.097092
H49	H	0.798883	0.447378	-0.000231
H50	H	0.697601	0.487647	0.065351
H51	H	0.725500	0.457523	-0.162397
H52	H	0.624221	0.497807	-0.096853
H53	H	0.712468	0.618108	-0.031567
H54	H	0.813748	0.577830	-0.097145
H55	H	0.721617	0.610527	-0.162706
H56	H	1.331271	0.148537	0.303897
C57	C	0.550225	0.082316	-0.000031
C58	C	0.441332	0.089058	-0.000049
C59	C	0.399227	0.000585	-0.000099
H60	H	0.568230	0.053697	0.065515
H61	H	0.577513	0.046349	-0.065617
H62	H	0.414053	0.125010	0.065530
H63	H	0.423298	0.117660	-0.065591
H64	H	0.426516	-0.035382	-0.065685
H65	H	0.417240	-0.028027	0.065449
H66	H	0.325341	0.005147	-0.000122
H67	H	0.888149	0.361447	0.000004
H68	H	1.374081	0.114185	0.696077
C69	C	1.409439	0.085737	0.465521
C70	C	1.465643	0.040606	0.542656
C71	C	1.540229	-0.019331	0.483691
H72	H	1.455996	0.120027	0.419340
H73	H	1.375343	0.041389	0.419391
H74	H	1.499738	0.084948	0.588766
H75	H	1.419114	0.006298	0.588839
H76	H	1.506133	-0.063679	0.437561
H77	H	1.586779	0.014966	0.437512
H78	H	1.578366	-0.049966	0.536018
C79	C	1.098399	0.335269	0.712360
C80	C	1.030094	0.284354	0.780330
C81	C	0.955479	0.344026	0.839701
H82	H	1.060033	0.365998	0.660320
H83	H	1.132490	0.379551	0.758587
H84	H	0.996006	0.240089	0.734107
H85	H	1.068430	0.253627	0.832391
H86	H	0.989570	0.388308	0.885928
H87	H	0.917120	0.374752	0.787653
H88	H	0.909131	0.309491	0.885834
