data_functionalizedCrystal
_audit_creation_method	'MofGen! by Chris Wilmer'
_symmetry_space_group_name_H-M	'P1'
_symmetry_Int_Tables_number	1
_symmetry_cell_setting	triclinic
loop_
_symmetry_equiv_pos_as_xyz
  x,y,z
_cell_length_a	31.640172
_cell_length_b	20.875641
_cell_length_c	20.875621
_cell_angle_alpha	87.033363
_cell_angle_beta	58.321852
_cell_angle_gamma	57.588606
loop_
_atom_site_label
_atom_site_type_symbol
_atom_site_fract_x
_atom_site_fract_y
_atom_site_fract_z
Zr1	Zr	0.468412	-0.120443	0.613613
O2	O	0.561443	-0.221047	0.507517
O3	O	0.378754	-0.089603	0.646124
O4	O	0.473624	-0.228245	0.641054
O5	O	0.461284	0.026959	0.516601
O6	O	0.473899	-0.233922	0.746405
O7	O	0.466572	-0.082405	0.512587
O8	O	0.304193	0.014084	0.755474
O9	O	0.630990	-0.221047	0.507532
O10	O	0.414587	-0.080686	0.738628
O11	O	0.410435	0.005168	0.663001
O12	O	0.522133	-0.158066	0.657032
O13	O	0.517982	-0.072212	0.581405
Zr14	Zr	0.460416	0.044926	0.788037
Zr15	Zr	0.468850	-0.129497	0.781636
Zr16	Zr	0.459978	0.053980	0.620014
Zr17	Zr	0.579332	-0.120442	0.613636
Zr18	Zr	0.349496	0.044925	0.788014
O19	O	0.550074	0.014085	0.755526
O20	O	0.562066	-0.233922	0.746424
O21	O	0.549451	0.026960	0.516619
O22	O	0.367385	0.145530	0.894133
O23	O	0.379377	-0.102477	0.885031
O24	O	0.366762	0.158405	0.655226
O25	O	0.467543	-0.102476	0.885049
O26	O	0.455203	0.152728	0.760596
O27	O	0.454928	0.158405	0.655245
O28	O	0.462255	0.006888	0.889063
O29	O	0.631338	-0.228244	0.641087
O30	O	0.297489	0.152727	0.760563
O31	O	0.297837	0.145530	0.894118
O32	O	0.304541	0.006887	0.889030
O33	O	0.624286	-0.082404	0.512620
O34	O	0.624635	-0.089601	0.646176
O35	O	0.406694	0.082548	0.744618
O36	O	0.410846	-0.003306	0.820245
O37	O	0.518392	-0.080685	0.738649
O38	O	0.514240	0.005169	0.663022
C39	C	0.325669	-0.037759	0.700796
C40	C	0.278581	-0.037760	0.700786
C41	C	0.463866	-0.026433	0.490654
C42	C	0.463679	-0.022589	0.419324
C43	C	0.453864	0.180418	0.708832
C44	C	0.450284	0.254465	0.711550
C45	C	-0.011294	-0.082567	0.740317
C46	C	-0.188290	-0.082567	0.740334
O47	O	-0.209353	-0.120653	0.773937
N48	N	-0.212586	-0.037754	0.700856
C49	C	-0.192634	0.007067	0.661376
O50	O	-0.217365	0.045190	0.627805
C51	C	-0.015642	0.007071	0.661365
C52	C	0.008657	-0.037751	0.700839
C53	C	0.013003	-0.127385	0.779788
C54	C	0.057252	-0.127388	0.779780
C55	C	0.077203	-0.082573	0.740301
C56	C	0.052905	-0.037754	0.700831
C57	C	0.004306	0.051896	0.621891
C58	C	0.048556	0.051895	0.621893
C59	C	0.072855	0.007072	0.661366
C60	C	0.117105	0.007058	0.661344
N61	N	0.141401	-0.037755	0.700821
C62	C	0.121450	-0.082571	0.740300
C63	C	-0.285556	0.007060	0.661383
C64	C	-0.329803	0.007058	0.661385
C65	C	-0.325457	-0.082575	0.740344
C66	C	-0.281206	-0.082577	0.740337
C67	C	-0.261260	-0.037753	0.700861
C68	C	0.214376	-0.082574	0.740279
C69	C	0.258630	-0.082575	0.740265
C70	C	0.254278	0.007061	0.661310
C71	C	0.210030	0.007059	0.661321
C72	C	0.190079	-0.037760	0.700811
O73	O	0.138191	0.045131	0.627766
O74	O	0.146179	-0.120674	0.773880
C75	C	-0.055543	-0.082564	0.740326
C76	C	-0.079841	-0.037746	0.700855
C77	C	-0.059890	0.007070	0.661376
C78	C	-0.124088	-0.037748	0.700856
C79	C	-0.144039	-0.082563	0.740335
C80	C	-0.119743	-0.127377	0.779812
C81	C	-0.075494	-0.127379	0.779804
C82	C	-0.084186	0.051883	0.621898
C83	C	-0.128434	0.051882	0.621909
C84	C	-0.148385	0.007066	0.661388
C85	C	0.603158	-0.037758	0.700854
C86	C	0.650246	-0.037757	0.700864
C87	C	0.474963	-0.255935	0.692818
C88	C	0.478544	-0.329982	0.690100
C89	C	0.504738	0.248863	0.670236
C90	C	0.501370	0.318441	0.672786
C91	C	0.443547	0.393620	0.716655
C92	C	0.389089	0.399220	0.757970
C93	C	0.392457	0.329643	0.755415
C94	C	0.427453	0.606041	0.728860
C95	C	0.424089	0.675619	0.731414
C96	C	0.536371	0.594836	0.646228
C97	C	0.539734	0.525261	0.643681
C98	C	0.485276	0.530867	0.684992
N99	N	0.440104	0.464741	0.719265
N100	N	0.488720	0.459747	0.682378
C101	C	0.466507	-0.081034	0.383602
C102	C	0.466329	-0.077418	0.316582
C103	C	0.463328	-0.015360	0.285283
C104	C	0.460498	0.043091	0.321012
C105	C	0.460672	0.039478	0.388033
C106	C	0.462492	0.001910	0.085076
C107	C	0.462320	0.005517	0.018048
C108	C	0.468150	-0.114992	0.013624
C109	C	0.468327	-0.118602	0.080645
C110	C	0.465494	-0.060149	0.116370
N111	N	0.463148	-0.011664	0.216777
N112	N	0.465670	-0.063842	0.184878
C113	C	0.464962	-0.049084	0.910996
C114	C	0.465148	-0.052928	0.982326
C115	C	0.326218	-0.049085	0.910967
C116	C	0.279315	-0.052930	0.982287
C117	C	0.315120	0.180417	0.708803
C118	C	0.264451	0.254464	0.711511
C119	C	0.315668	0.169091	0.918974
C120	C	0.265185	0.239294	0.993012
C121	C	0.613159	-0.244608	0.482676
C122	C	0.663642	-0.314811	0.408638
C123	C	0.602610	-0.026432	0.490683
C124	C	0.649512	-0.022588	0.419363
C125	C	0.613707	-0.255934	0.692847
C126	C	0.664376	-0.329981	0.690139
C127	C	0.259243	-0.095134	0.973176
C128	C	0.215180	-0.098762	1.040182
C129	C	0.191187	-0.060180	1.116298
C130	C	0.211264	-0.017975	1.125408
C131	C	0.255329	-0.014352	1.058402
C132	C	0.238703	0.329636	0.755387
C133	C	0.191100	0.399218	0.757928
C134	C	0.169243	0.393625	0.716598
C135	C	0.194996	0.318445	0.672717
C136	C	0.242601	0.248866	0.670172
C137	C	0.243645	0.227447	1.067264
C138	C	0.196217	0.293403	1.136837
C139	C	0.170328	0.371206	1.132155
C140	C	0.191873	0.383052	1.057895
C141	C	0.239302	0.317096	0.988324
C142	C	0.685188	-0.302964	0.334386
C143	C	0.732629	-0.368920	0.264813
C144	C	0.758521	-0.446723	0.269495
C145	C	0.736973	-0.458569	0.343755
C146	C	0.689536	-0.392614	0.413326
C147	C	0.669590	0.019609	0.428474
C148	C	0.713666	0.023218	0.361467
C149	C	0.737660	-0.015366	0.285351
C150	C	0.717581	-0.057568	0.276241
C151	C	0.673509	-0.061181	0.343247
C152	C	0.686218	-0.324363	0.731478
C153	C	0.733821	-0.393932	0.728949
C154	C	0.759584	-0.469118	0.685076
C155	C	0.737738	-0.474735	0.643736
C156	C	0.690133	-0.405167	0.646270
H157	H	0.278414	-0.119078	0.772408
H158	H	0.750165	-0.359259	0.204354
H159	H	0.278778	-0.126562	0.911204
H160	H	0.657163	-0.095540	0.335818
H161	H	0.155306	-0.063136	1.170852
F162	F	0.119848	0.441395	1.206206
F163	F	0.471522	-0.184652	0.113954
H164	H	-0.135991	-0.163870	0.811954
F165	F	0.185721	0.023086	1.206423
F166	F	0.118576	0.467686	0.719315
F167	F	0.666607	-0.405235	0.492349
H168	H	0.170787	0.446407	1.054095
H169	H	0.256834	0.326754	0.927867
F170	F	0.171727	0.312506	0.628735
H171	H	0.348115	0.334210	0.789056
F172	F	0.601278	0.445252	0.596987
F173	F	0.261955	0.335606	0.799382
H174	H	0.459877	0.056055	-0.007432
F175	F	0.764535	-0.541378	0.348725
H176	H	0.664109	-0.239619	0.330559
F177	F	0.784565	-0.011513	0.214044
F178	F	0.269996	0.168863	0.623475
H179	H	0.342008	0.460438	0.793686
H180	H	0.665249	-0.263149	0.767203
H181	H	0.797147	-0.500421	0.212840
F182	F	0.276684	0.030575	1.068112
H183	H	-0.341707	-0.119067	0.772488
H184	H	0.468955	-0.131571	0.409078
H185	H	0.198839	-0.133130	1.032749
H186	H	0.170138	0.460425	0.793663
F187	F	0.271193	0.144649	1.072265
H188	H	0.730007	0.057587	0.368900
F189	F	0.369493	0.612017	0.772828
H190	H	0.270532	0.043546	0.629165
F191	F	-0.264334	0.054772	0.619365
H192	H	0.551824	0.187653	0.634516
F193	F	0.457299	0.109142	0.287704
H194	H	0.377000	0.736835	0.767137
F195	F	0.644062	0.060678	0.509477
F196	F	-0.062961	0.099587	0.579880
H197	H	0.672355	-0.409752	0.612603
H198	H	0.178681	0.283743	1.197296
H199	H	-0.261425	-0.119075	0.772480
F200	F	0.743123	-0.098627	0.195226
F201	F	0.757065	-0.387937	0.772947
F202	F	0.810251	-0.543152	0.682385
H203	H	0.077032	-0.163884	0.811925
H204	H	0.758721	-0.535961	0.608016
H205	H	0.198136	-0.119068	0.772437
H206	H	-0.003238	-0.163879	0.811940
H207	H	0.470456	-0.162582	-0.015469
F208	F	0.459479	0.064117	0.123091
F209	F	-0.021546	0.099605	0.579879
F210	F	-0.355650	0.054753	0.619360
H211	H	0.190252	0.043547	0.629167
F212	F	0.069781	0.099605	0.579877
H213	H	-0.055713	-0.163878	0.811947
H214	H	0.545713	0.313873	0.639145
F215	F	-0.154287	0.099587	0.579888
H216	H	0.580708	0.590281	0.612593
F217	F	0.469337	-0.139622	0.278564
H218	H	0.458368	0.087071	0.417119
