data_functionalizedCrystal
_audit_creation_method	'MofGen! by Chris Wilmer'
_symmetry_space_group_name_H-M	'P1'
_symmetry_Int_Tables_number	1
_symmetry_cell_setting	triclinic
loop_
_symmetry_equiv_pos_as_xyz
  x,y,z
_cell_length_a	21.395362
_cell_length_b	21.295417
_cell_length_c	21.395355
_cell_angle_alpha	89.979596
_cell_angle_beta	89.956060
_cell_angle_gamma	90.045579
loop_
_atom_site_label
_atom_site_type_symbol
_atom_site_fract_x
_atom_site_fract_y
_atom_site_fract_z
Zn1	Zn	0.957864	-0.250415	-0.354577
Zn2	Zn	0.957768	-0.355667	-0.249796
Zn3	Zn	0.853079	-0.250445	-0.249779
Zn4	Zn	0.853050	-0.355680	-0.354501
O5	O	0.905440	-0.303052	-0.302163
O6	O	1.045529	-0.264359	-0.340717
O7	O	0.943853	-0.341716	-0.162116
O8	O	0.867031	-0.162351	-0.263705
O9	O	1.045459	-0.341687	-0.263735
O10	O	0.944016	-0.162330	-0.340700
O11	O	0.866938	-0.264409	-0.162103
O12	O	0.765397	-0.264422	-0.263631
O13	O	0.866982	-0.341709	-0.442189
O14	O	0.765376	-0.341738	-0.340570
O15	O	0.943988	-0.264372	-0.442245
O16	O	0.943825	-0.443758	-0.263661
O17	O	0.866889	-0.443767	-0.340587
C18	C	0.742652	-0.303085	-0.302091
C19	C	0.673011	-0.303114	-0.302074
C20	C	0.640303	-0.343426	-0.342077
C21	C	0.574868	-0.343411	-0.342105
C22	C	0.542143	-0.303090	-0.302119
C23	C	0.574859	-0.262771	-0.262114
C24	C	0.640293	-0.262783	-0.262092
C25	C	0.438418	-0.298019	-0.245714
C26	C	0.372985	-0.298011	-0.245735
C27	C	0.340322	-0.303049	-0.302188
C28	C	0.373100	-0.308108	-0.358622
C29	C	0.438534	-0.308120	-0.358599
C30	C	0.471191	-0.303072	-0.302139
C31	C	0.236662	-0.343346	-0.342224
C32	C	0.171225	-0.343326	-0.342253
C33	C	0.171217	-0.262690	-0.262257
C34	C	0.236653	-0.262706	-0.262234
C35	C	0.269371	-0.303038	-0.302216
C36	C	0.905360	-0.466603	-0.302132
C37	C	0.905383	-0.536571	-0.302139
C38	C	0.945447	-0.569370	-0.342259
C39	C	0.945469	-0.635112	-0.342275
C40	C	0.905434	-0.668054	-0.302159
C41	C	0.865363	-0.635248	-0.262036
C42	C	0.865338	-0.569506	-0.262026
N43	N	0.900697	-0.771307	-0.247324
N44	N	0.900725	-0.833759	-0.247335
C45	C	0.905507	-0.866129	-0.302187
N46	N	0.910273	-0.833688	-0.357029
N47	N	0.910249	-0.771230	-0.357017
C48	C	0.905457	-0.739339	-0.302165
C49	C	0.945597	-0.970212	-0.342327
C50	C	0.945615	-1.035956	-0.342344
C51	C	0.865512	-1.036090	-0.262100
C52	C	0.865491	-0.970348	-0.262089
C53	C	0.905537	-0.937413	-0.302202
C54	C	1.068864	-0.303019	-0.302237
C55	C	1.138505	-0.303005	-0.302268
C56	C	0.905492	-0.303039	-0.465587
C57	C	0.905514	-0.303033	-0.535228
C58	C	0.905537	-0.138861	-0.302209
C59	C	0.905579	-0.068893	-0.302228
C60	C	0.945610	-0.262762	-0.567971
C61	C	0.945609	-0.262735	-0.633407
C62	C	0.905519	-0.302991	-0.666096
C63	C	0.865416	-0.343265	-0.633345
C64	C	0.865413	-0.343286	-0.567911
C65	C	0.900544	-0.359672	-0.769758
C66	C	0.900551	-0.359652	-0.835191
C67	C	0.905523	-0.302924	-0.867917
C68	C	0.910501	-0.246215	-0.835202
C69	C	0.910499	-0.246237	-0.769768
C70	C	0.905517	-0.302971	-0.737049
C71	C	0.945620	-0.262620	-0.971613
C72	C	0.945615	-0.262592	-1.037050
C73	C	0.865425	-0.343127	-1.036987
C74	C	0.865427	-0.343150	-0.971552
C75	C	0.905528	-0.302897	-0.938869
C76	C	0.905424	-0.303019	-0.139376
C77	C	0.905524	-0.302847	-0.069735
H78	H	0.144573	-0.229857	-0.229703
O79	O	0.341220	-0.293179	-0.190870
C80	C	0.357111	-0.343995	-0.151739
H81	H	0.404617	-0.363400	-0.166178
H82	H	0.359315	-0.327256	-0.101183
H83	H	0.320253	-0.382417	-0.156214
O84	O	0.470215	-0.293214	-0.190905
C85	C	0.507991	-0.346806	-0.182722
H86	H	0.517820	-0.369150	-0.230128
H87	H	0.553995	-0.332564	-0.159898
H88	H	0.482705	-0.382040	-0.151522
H89	H	0.548210	-0.229940	-0.229559
O90	O	0.826508	-0.537574	-0.223018
C91	C	0.862187	-0.499539	-0.182578
H92	H	0.909656	-0.489625	-0.204733
H93	H	0.836655	-0.453343	-0.174142
H94	H	0.869101	-0.524892	-0.136159
H95	H	0.832760	-0.376079	-0.541252
O96	O	0.984556	-0.938189	-0.381208
C97	C	1.025022	-0.900122	-0.345586
H98	H	1.028926	-0.919953	-0.296247
H99	H	1.073227	-0.899310	-0.368311
H100	H	1.005635	-0.850320	-0.343395
O101	O	0.984595	-1.067721	-0.381337
C102	C	1.019923	-1.024551	-0.416746
H103	H	1.022083	-0.977699	-0.391077
H104	H	1.069293	-1.043484	-0.423487
H105	H	0.996960	-1.017561	-0.464305
O106	O	0.826443	-0.667313	-0.223154
C107	C	0.785964	-0.705360	-0.258781
H108	H	0.808044	-0.715159	-0.306292
H109	H	0.777598	-0.751612	-0.233256
H110	H	0.739519	-0.680077	-0.265605
O111	O	0.915438	-0.191100	-0.866960
C112	C	0.972087	-0.161293	-0.851010
H113	H	1.006666	-0.197770	-0.833047
H114	H	0.992340	-0.137134	-0.894062
H115	H	0.963064	-0.124874	-0.813025
O116	O	0.671988	-0.382619	-0.380978
C117	C	0.629082	-0.418207	-0.416280
H118	H	0.582466	-0.392418	-0.418511
H119	H	0.648034	-0.425001	-0.465627
H120	H	0.622051	-0.465980	-0.393249
O121	O	0.984578	-0.223598	-0.536321
C122	C	1.019978	-0.188058	-0.579259
H123	H	0.994318	-0.185871	-0.625884
H124	H	1.026691	-0.138465	-0.560361
H125	H	1.067550	-0.211099	-0.586250
H126	H	0.978258	-0.229938	-0.660072
O127	O	0.826587	-1.068149	-0.223220
C128	C	0.786105	-1.106190	-0.258851
H129	H	0.808187	-1.115990	-0.306361
H130	H	0.777732	-1.152442	-0.233328
H131	H	0.739664	-1.080900	-0.265676
H132	H	0.978053	-0.542556	-0.374923
H133	H	0.978264	-0.229795	-1.063708
H134	H	0.832777	-0.375897	-1.063602
O135	O	0.984586	-0.223456	-0.939957
C136	C	1.019983	-0.187911	-0.982893
H137	H	0.994321	-0.185720	-1.029517
H138	H	1.026694	-0.138319	-0.963991
H139	H	1.067556	-0.210949	-0.989889
H140	H	0.832871	-0.943642	-0.229417
O141	O	0.268457	-0.223486	-0.223459
C142	C	0.306400	-0.182899	-0.259190
H143	H	0.286739	-0.179078	-0.308550
H144	H	0.307166	-0.134422	-0.236615
H145	H	0.355974	-0.202377	-0.261296
H146	H	0.978088	-0.661822	-0.374952
O147	O	0.672096	-0.223558	-0.223318
C148	C	0.710041	-0.182973	-0.259048
H149	H	0.690383	-0.179152	-0.308409
H150	H	0.710809	-0.134496	-0.236474
H151	H	0.759615	-0.202453	-0.261152
O152	O	0.826461	-0.382332	-0.939838
C153	C	0.791063	-0.417846	-0.982719
H154	H	0.816727	-0.420007	-1.029382
H155	H	0.784346	-0.467450	-0.963806
H156	H	0.743492	-0.394799	-0.989645
O157	O	0.915219	-0.191128	-0.738017
C158	C	0.864621	-0.151910	-0.753983
H159	H	0.824229	-0.181803	-0.771944
H160	H	0.848869	-0.124621	-0.710939
H161	H	0.879848	-0.117593	-0.791974
H162	H	0.346508	-0.312209	-0.404591
O163	O	0.268352	-0.382536	-0.381127
C164	C	0.225448	-0.418120	-0.416435
H165	H	0.178832	-0.392329	-0.418667
H166	H	0.244403	-0.424908	-0.465782
H167	H	0.218415	-0.465895	-0.393410
O168	O	0.543021	-0.382605	-0.380877
C169	C	0.505105	-0.423210	-0.345139
H170	H	0.495271	-0.400932	-0.297703
H171	H	0.459112	-0.431680	-0.370660
H172	H	0.530271	-0.469853	-0.338157
H173	H	0.896501	-0.405828	-0.861823
O174	O	0.895584	-0.414797	-0.738018
C175	C	0.838901	-0.444541	-0.753960
H176	H	0.822477	-0.426849	-0.801479
H177	H	0.846364	-0.497494	-0.756161
H178	H	0.802027	-0.433335	-0.717132
O179	O	0.470278	-0.313004	-0.413473
C180	C	0.427425	-0.317466	-0.463307
H181	H	0.380783	-0.296285	-0.448530
H182	H	0.446406	-0.290793	-0.505459
H183	H	0.420433	-0.368925	-0.476229
O184	O	0.139424	-0.382398	-0.381181
C185	C	0.101645	-0.346616	-0.421723
H186	H	0.121418	-0.297047	-0.425681
H187	H	0.100937	-0.369460	-0.469897
H188	H	0.052034	-0.344407	-0.402375
H189	H	0.832773	-0.376039	-0.659965
