data_functionalizedCrystal
_audit_creation_method	'MofGen! by Chris Wilmer'
_symmetry_space_group_name_H-M	'P1'
_symmetry_Int_Tables_number	1
_symmetry_cell_setting	triclinic
loop_
_symmetry_equiv_pos_as_xyz
  x,y,z
_cell_length_a	27.732048
_cell_length_b	27.732048
_cell_length_c	12.996460
_cell_angle_alpha	89.988908
_cell_angle_beta	89.999906
_cell_angle_gamma	82.642655
loop_
_atom_site_label
_atom_site_type_symbol
_atom_site_fract_x
_atom_site_fract_y
_atom_site_fract_z
O1	O	0.640928	0.057518	-0.085445
O2	O	0.500134	0.066263	-0.085478
O3	O	0.574904	-0.008506	-0.085441
O4	O	0.566158	0.132287	-0.085482
O5	O	0.574896	-0.008510	0.085693
O6	O	0.500127	0.066259	0.085656
O7	O	0.640920	0.057514	0.085689
Cu8	Cu	0.570523	0.061886	0.101298
Cu9	Cu	0.570532	0.061891	-0.101087
O10	O	0.566151	0.132283	0.085652
C11	C	0.482124	0.066078	0.000085
C12	C	0.428469	0.065525	0.000073
C13	C	0.089654	0.106229	0.000106
C14	C	-0.112006	0.104178	0.000116
O15	O	-0.143262	0.141398	0.000150
N16	N	-0.131130	0.059843	0.000127
C17	C	-0.099835	0.016017	0.000143
O18	O	-0.120728	-0.021740	0.000163
C19	C	0.101824	0.018068	0.000140
C20	C	0.120944	0.062407	0.000119
C21	C	0.108775	0.150563	0.000086
C22	C	0.159187	0.151075	0.000078
C23	C	0.190477	0.107253	0.000090
C24	C	0.171356	0.062919	0.000110
C25	C	0.133117	-0.025757	0.000163
C26	C	0.183535	-0.025240	0.000165
C27	C	0.202655	0.019098	0.000143
C28	C	0.253059	0.019609	0.000115
N29	N	0.272183	0.063944	0.000104
C30	C	0.240892	0.107766	0.000091
C31	C	-0.205709	0.014943	0.000142
C32	C	-0.256124	0.014430	0.000141
C33	C	-0.268291	0.102591	0.000116
C34	C	-0.217876	0.103104	0.000110
C35	C	-0.186585	0.059278	0.000131
C36	C	0.346761	0.108839	0.000073
C37	C	0.397178	0.109347	0.000061
C38	C	0.409341	0.021186	0.000091
C39	C	0.358929	0.020678	0.000098
C40	C	0.327639	0.064508	0.000093
O41	O	0.284343	-0.017592	0.000093
O42	O	0.261794	0.145518	0.000094
C43	C	0.039242	0.105716	0.000114
C44	C	0.020120	0.061382	0.000135
C45	C	0.051411	0.017560	0.000147
C46	C	-0.030294	0.060869	0.000133
C47	C	-0.061585	0.104691	0.000121
C48	C	-0.042461	0.149026	0.000110
C49	C	0.007951	0.149539	0.000102
C50	C	0.032287	-0.026775	0.000158
C51	C	-0.018125	-0.027284	0.000165
C52	C	-0.049416	0.016538	0.000153
C53	C	0.574716	-0.026515	0.000129
C54	C	0.574164	-0.080170	0.000137
C55	C	0.614867	-0.418985	0.000094
C56	C	0.612816	-0.620645	0.000079
O57	O	0.650037	-0.651900	0.000042
N58	N	0.568481	-0.639768	0.000070
C59	C	0.524656	-0.608474	0.000057
O60	O	0.486899	-0.629367	0.000038
C61	C	0.526707	-0.406815	0.000065
C62	C	0.571045	-0.387694	0.000084
C63	C	0.659202	-0.399864	0.000112
C64	C	0.659714	-0.349452	0.000122
C65	C	0.615892	-0.318161	0.000112
C66	C	0.571557	-0.337282	0.000094
C67	C	0.482882	-0.375521	0.000045
C68	C	0.483399	-0.325104	0.000044
C69	C	0.527737	-0.305983	0.000064
C70	C	0.528247	-0.255580	0.000094
N71	N	0.572583	-0.236456	0.000103
C72	C	0.616405	-0.267747	0.000112
C73	C	0.523582	-0.714348	0.000055
C74	C	0.523069	-0.764762	0.000055
C75	C	0.611230	-0.776930	0.000075
C76	C	0.611742	-0.726514	0.000082
C77	C	0.567917	-0.695224	0.000065
C78	C	0.617477	-0.161878	0.000133
C79	C	0.617986	-0.111461	0.000146
C80	C	0.529825	-0.099298	0.000121
C81	C	0.529316	-0.149710	0.000113
C82	C	0.573147	-0.180999	0.000115
O83	O	0.491047	-0.224296	0.000119
O84	O	0.654156	-0.246844	0.000108
C85	C	0.614355	-0.469397	0.000084
C86	C	0.570021	-0.488518	0.000066
C87	C	0.526198	-0.457228	0.000056
C88	C	0.569508	-0.538933	0.000066
C89	C	0.613330	-0.570223	0.000075
C90	C	0.657665	-0.551100	0.000084
C91	C	0.658177	-0.500688	0.000094
C92	C	0.481863	-0.476351	0.000047
C93	C	0.481355	-0.526764	0.000039
C94	C	0.525177	-0.558054	0.000048
C95	C	0.658931	0.057699	0.000123
C96	C	0.712586	0.058252	0.000128
C97	C	0.566338	0.150292	0.000080
C98	C	0.566891	0.203947	0.000065
N99	N	0.570520	0.061883	0.243645
N100	N	0.570538	0.061891	-0.243435
C101	C	0.570531	0.061891	0.663460
C102	C	0.570526	0.061891	0.546654
C103	C	0.570526	0.061887	0.453556
C104	C	0.570521	0.061886	0.336744
H105	H	0.434827	-0.014492	0.000097
Br106	Br	-0.163250	-0.044540	0.000170
H107	H	0.694282	-0.485125	0.000109
Br108	Br	0.462893	-0.790705	0.000053
Br109	Br	0.678163	-0.085515	0.000174
Br110	Br	0.423124	0.169524	0.000025
Br111	Br	0.066317	0.210045	0.000069
H112	H	0.653168	-0.187348	0.000131
Br113	Br	-0.044068	-0.087463	0.000177
H114	H	0.695819	-0.333889	0.000134
Br115	Br	0.421176	-0.552706	0.000020
H116	H	0.446177	-0.450879	0.000037
H117	H	0.493213	-0.165279	0.000126
Br118	Br	0.074746	-0.086255	0.000178
Br119	Br	-0.191932	0.163278	0.000081
H120	H	0.694889	-0.425336	0.000116
H121	H	0.023514	0.185643	0.000086
Br122	Br	0.671917	-0.700570	0.000111
H123	H	0.646911	-0.802415	0.000083
H124	H	0.693347	-0.576585	0.000096
H125	H	0.321291	0.144530	0.000072
H126	H	0.174750	0.187180	0.000060
Br127	Br	0.423918	-0.282641	0.000015
H128	H	-0.271687	-0.021674	0.000142
Br129	Br	-0.310766	0.162064	0.000100
Br130	Br	0.225997	-0.084721	0.000199
Br131	Br	0.470355	-0.056822	0.000109
H132	H	0.446777	-0.391080	0.000023
H133	H	0.343360	-0.015426	0.000101
H134	H	0.117558	-0.061861	0.000181
H135	H	-0.067947	0.184708	0.000096
H136	H	0.487892	-0.688875	0.000041
