data_functionalizedCrystal
_audit_creation_method	'MofGen! by Chris Wilmer'
_symmetry_space_group_name_H-M	'P1'
_symmetry_Int_Tables_number	1
_symmetry_cell_setting	triclinic
loop_
_symmetry_equiv_pos_as_xyz
  x,y,z
_cell_length_a	8.597340
_cell_length_b	8.559649
_cell_length_c	7.681481
_cell_angle_alpha	85.068001
_cell_angle_beta	76.525094
_cell_angle_gamma	102.374805
loop_
_atom_site_label
_atom_site_type_symbol
_atom_site_fract_x
_atom_site_fract_y
_atom_site_fract_z
O1	O	2.072797	-0.220972	-0.168056
O2	O	1.605620	-0.246432	-0.097173
O3	O	1.880368	-0.001097	-0.138866
O4	O	1.798049	-0.466307	-0.126363
O5	O	1.914193	0.029168	-0.436857
O6	O	1.639445	-0.216167	-0.395164
O7	O	2.106623	-0.190708	-0.466047
Zn8	Zn	1.878405	-0.198632	-0.477918
Zn9	Zn	1.833838	-0.238507	-0.085302
O10	O	1.831875	-0.436042	-0.424354
C11	C	1.563277	-0.230251	-0.237178
C12	C	1.386718	-0.227109	-0.210390
C13	C	1.903519	0.073565	-0.288806
C14	C	1.922087	0.250946	-0.291618
C15	C	2.148965	-0.206889	-0.326038
C16	C	2.325523	-0.210032	-0.352814
N17	N	1.908832	-0.171417	-0.745869
C18	C	1.808724	0.489295	-0.274413
C19	C	1.790155	0.311914	-0.271599
N20	N	1.803425	-0.265710	0.182647
H21	H	1.304026	-0.239326	-0.067944
H22	H	2.049246	0.334450	-0.310918
C23	C	1.620585	0.200459	-0.245506
C24	C	1.584650	0.088118	-0.089365
C25	C	1.428452	-0.014565	-0.065257
H26	H	1.619334	0.145048	-0.347325
H27	H	1.540244	0.262427	-0.233218
H28	H	1.664970	0.026157	-0.101666
H29	H	1.585866	0.143482	0.012483
H30	H	1.348112	0.047403	-0.052969
H31	H	1.427217	-0.069964	-0.167084
H32	H	1.404044	-0.090791	0.040694
H33	H	1.695828	-0.361954	-0.725828
H34	H	2.016446	-0.075178	-0.837406
H35	H	1.408209	-0.197804	-0.495252
