data_functionalizedCrystal
_audit_creation_method	'MofGen! by Chris Wilmer'
_symmetry_space_group_name_H-M	'P1'
_symmetry_Int_Tables_number	1
_symmetry_cell_setting	triclinic
loop_
_symmetry_equiv_pos_as_xyz
  x,y,z
_cell_length_a	17.699077
_cell_length_b	14.519731
_cell_length_c	16.176319
_cell_angle_alpha	89.992219
_cell_angle_beta	89.993140
_cell_angle_gamma	83.484715
loop_
_atom_site_label
_atom_site_type_symbol
_atom_site_fract_x
_atom_site_fract_y
_atom_site_fract_z
O1	O	1.004423	0.116597	-0.068737
O2	O	1.504423	0.616597	0.431263
O3	O	0.784088	0.131776	-0.068742
O4	O	1.284088	0.631776	0.431258
O5	O	0.900089	-0.010076	-0.068732
O6	O	1.400089	0.489924	0.431268
O7	O	0.888422	0.258448	-0.068747
O8	O	1.388422	0.758448	0.431253
O9	O	0.900073	-0.010085	0.068761
O10	O	1.400073	0.489915	0.568761
O11	O	0.784072	0.131767	0.068751
O12	O	1.284072	0.631767	0.568751
O13	O	1.004407	0.116588	0.068756
O14	O	1.504407	0.616588	0.568756
Cu15	Cu	0.894238	0.124177	0.081308
Cu16	Cu	1.394238	0.624177	0.581308
Cu17	Cu	0.894257	0.124187	-0.081294
Cu18	Cu	1.394257	0.624187	0.418706
O19	O	0.888406	0.258439	0.068746
O20	O	1.388406	0.758439	0.568746
C21	C	0.755881	0.131228	0.000004
C22	C	1.255881	0.631228	0.500004
C23	C	0.671858	0.129599	0.000003
C24	C	1.171858	0.629599	0.500003
C25	C	0.632380	0.128827	0.074951
C26	C	1.132380	0.628827	0.574951
C27	C	0.553433	0.127282	0.074952
C28	C	1.053433	0.627282	0.574952
C29	C	0.513965	0.126516	0.000004
C30	C	1.013965	0.626516	0.500004
C31	C	0.553449	0.127285	-0.074950
C32	C	1.053449	0.627285	0.425050
C33	C	0.632395	0.128824	-0.074950
C34	C	1.132395	0.628824	0.425050
C35	C	0.235068	0.121079	-0.074951
C36	C	0.735068	0.621079	0.425049
C37	C	0.156116	0.119543	-0.074946
C38	C	0.656116	0.619543	0.425054
C39	C	0.156105	0.119537	0.074951
C40	C	0.656105	0.619537	0.574951
C41	C	0.235052	0.121076	0.074951
C42	C	0.735052	0.621076	0.574951
C43	C	0.274529	0.121840	-0.000002
C44	C	0.774529	0.621840	0.499998
C45	C	0.360133	0.123514	-0.000003
C46	C	0.860133	0.623514	0.499997
C47	C	0.428362	0.124849	0.000003
C48	C	0.928362	0.624849	0.500003
C49	C	0.899534	-0.044437	0.000015
C50	C	1.399534	0.455563	0.500015
C51	C	0.897896	-0.146811	0.000015
C52	C	1.397896	0.353189	0.500015
C53	C	0.896565	-0.229949	0.000013
C54	C	1.396565	0.270051	0.500013
C55	C	0.894902	-0.334251	0.000007
C56	C	1.394902	0.165749	0.500007
C57	C	0.893582	-0.417384	0.000002
C58	C	1.393582	0.082616	0.500002
C59	C	0.891919	-0.521692	-0.000003
C60	C	1.391919	-0.021692	0.499997
C61	C	1.032613	0.117136	0.000008
C62	C	1.532613	0.617136	0.500008
C63	C	1.116636	0.118764	0.000004
C64	C	1.616636	0.618764	0.500004
C65	C	0.888961	0.292801	-0.000003
C66	C	1.388961	0.792801	0.499997
C67	C	0.890599	0.395174	-0.000008
C68	C	1.390599	0.895174	0.499992
N69	N	0.894230	0.124168	0.195673
N70	N	1.394230	0.624168	0.695673
N71	N	0.894271	0.124188	-0.195659
N72	N	1.394271	0.624188	0.304341
C73	C	0.945611	0.061382	0.238942
C74	C	1.445611	0.561382	0.738942
C75	C	0.945615	0.061381	0.325489
C76	C	1.445615	0.561381	0.825489
C77	C	0.894241	0.124172	0.368766
C78	C	1.394241	0.624172	0.868766
C79	C	0.842855	0.186961	0.325491
C80	C	1.342855	0.686961	0.825491
C81	C	0.842848	0.186957	0.238946
C82	C	1.342848	0.686957	0.738946
C83	C	0.842881	0.186978	0.674519
C84	C	1.342881	0.686978	1.174519
C85	C	0.842893	0.186979	0.761071
C86	C	1.342893	0.686979	1.261071
C87	C	0.945648	0.061403	0.761062
C88	C	1.445648	0.561403	1.261062
C89	C	0.945641	0.061399	0.674517
C90	C	1.445641	0.561399	1.174517
C91	C	0.894252	0.124184	0.631250
C92	C	1.394252	0.624184	1.131250
C93	C	0.894248	0.124183	0.537406
C94	C	1.394248	0.624183	1.037406
C95	C	0.894248	0.124178	0.462608
C96	C	1.394248	0.624178	0.962608
H97	H	0.664538	0.129455	-0.135981
H98	H	1.164538	0.629455	0.364019
H99	H	0.801055	0.238113	0.796306
H100	H	1.301055	0.738113	1.296306
F101	F	0.114113	0.118727	-0.154720
F102	F	0.614113	0.618727	0.345280
F103	F	0.788174	0.253784	0.371550
F104	F	1.288174	0.753784	0.871550
H105	H	0.123953	0.118910	0.135982
H106	H	0.623953	0.618910	0.635982
F107	F	0.277073	0.121894	-0.154724
F108	F	0.777073	0.621894	0.345276
H109	H	0.987476	0.010272	0.639283
H110	H	1.487476	0.510272	1.139283
F111	F	1.000295	-0.005445	0.192891
F112	F	1.500295	0.494555	0.692891
F113	F	1.000338	-0.005423	0.807117
F114	F	1.500338	0.494577	1.307117
F115	F	1.000299	-0.005444	0.371539
F116	F	1.500299	0.494556	0.871539
H117	H	0.801040	0.238102	0.639298
H118	H	1.301040	0.738102	1.139298
H119	H	0.521309	0.126655	-0.135974
H120	H	1.021309	0.626655	0.364026
H121	H	0.801008	0.238082	0.203717
H122	H	1.301008	0.738082	0.703717
H123	H	0.664508	0.129458	0.135983
H124	H	1.164508	0.629458	0.635983
H125	H	0.267182	0.121704	0.135982
H126	H	0.767182	0.621704	0.635982
F127	F	0.511419	0.126472	0.154723
F128	F	1.011419	0.626472	0.654723
