data_functionalizedCrystal
_audit_creation_method	'MofGen! by Chris Wilmer'
_symmetry_space_group_name_H-M	'P1'
_symmetry_Int_Tables_number	1
_symmetry_cell_setting	triclinic
loop_
_symmetry_equiv_pos_as_xyz
  x,y,z
_cell_length_a	10.685976
_cell_length_b	21.295417
_cell_length_c	10.686551
_cell_angle_alpha	94.411227
_cell_angle_beta	90.348485
_cell_angle_gamma	85.666861
loop_
_atom_site_label
_atom_site_type_symbol
_atom_site_fract_x
_atom_site_fract_y
_atom_site_fract_z
Zn1	Zn	1.972044	-0.304390	0.561823
Zn2	Zn	1.955755	-0.417083	0.352047
Zn3	Zn	1.746172	-0.303208	0.368199
Zn4	Zn	1.762202	-0.400995	0.577877
O5	O	1.859044	-0.356419	0.464986
O6	O	2.145414	-0.326566	0.520518
O7	O	1.914429	-0.408215	0.178646
O8	O	1.776243	-0.215278	0.393924
O9	O	2.133447	-0.409362	0.366396
O10	O	1.942190	-0.216146	0.536179
O11	O	1.760449	-0.324552	0.190513
O12	O	1.572768	-0.308952	0.409491
O13	O	1.803563	-0.381942	0.751291
O14	O	1.584545	-0.380796	0.563541
O15	O	1.957733	-0.310967	0.739496
O16	O	1.929972	-0.503036	0.381963
O17	O	1.787769	-0.491216	0.547879
C18	C	1.533143	-0.343000	0.490012
C19	C	1.393724	-0.337274	0.500747
C20	C	1.858879	-0.519966	0.464935
C21	C	1.858926	-0.589936	0.464946
C22	C	1.945293	-0.623194	0.539080
C23	C	1.945340	-0.688937	0.539107
C24	C	1.859031	-0.721421	0.464978
C25	C	1.772648	-0.688155	0.390841
C26	C	1.772596	-0.622412	0.390825
N27	N	1.841123	-0.828181	0.355920
N28	N	1.841181	-0.890634	0.355938
C29	C	1.859182	-0.919500	0.465024
N30	N	1.877148	-0.883554	0.574091
N31	N	1.877097	-0.821095	0.574071
C32	C	1.859078	-0.792708	0.464988
C33	C	1.945604	-1.024044	0.539193
C34	C	1.945642	-1.089788	0.539223
C35	C	1.772956	-1.089005	0.390945
C36	C	1.772912	-1.023262	0.390926
C37	C	1.859243	-0.990785	0.465048
C38	C	2.186216	-0.369891	0.439864
C39	C	2.325638	-0.375631	0.429159
C40	C	1.884253	-0.344792	0.792182
C41	C	1.894996	-0.339837	0.931614
C42	C	1.859245	-0.192233	0.465063
C43	C	1.859331	-0.122267	0.465095
C44	C	1.834004	-0.367959	0.139058
C45	C	1.823504	-0.372746	-0.000392
H46	H	2.015586	-0.596753	0.599437
C47	C	1.389949	-0.425233	0.336281
C48	C	1.348567	-0.414557	0.214639
C49	C	1.407770	-0.460241	0.129053
H50	H	1.478233	-0.422665	0.340964
H51	H	1.369875	-0.466036	0.356047
H52	H	1.368650	-0.373764	0.194879
H53	H	1.260292	-0.417131	0.209916
H54	H	1.387696	-0.501044	0.148819
H55	H	1.496051	-0.457669	0.133747
H56	H	1.379692	-0.453007	0.046511
H57	H	2.015661	-0.716020	0.599491
H58	H	1.754081	-0.404714	0.951152
C59	C	1.679081	-0.723538	0.310394
C60	C	1.697634	-0.788233	0.326246
C61	C	1.611467	-0.820847	0.252149
H62	H	1.596130	-0.708758	0.335081
H63	H	1.691013	-0.716563	0.224677
H64	H	1.685692	-0.795205	0.411944
H65	H	1.780567	-0.803031	0.301551
H66	H	1.623399	-0.813872	0.166433
H67	H	1.528522	-0.806062	0.276843
H68	H	1.624051	-0.864747	0.262886
C69	C	1.678767	-0.586417	0.310193
C70	C	1.603204	-0.628934	0.245258
C71	C	1.516767	-0.595798	0.170954
H72	H	1.627630	-0.556827	0.362197
H73	H	1.722536	-0.564694	0.251813
H74	H	1.559438	-0.650646	0.303631
H75	H	1.654306	-0.658524	0.193231
H76	H	1.560536	-0.574075	0.112573
H77	H	1.465640	-0.566209	0.222967
H78	H	1.465495	-0.624641	0.126877
C79	C	2.039369	-0.988887	0.619820
C80	C	2.114985	-1.032085	0.684791
C81	C	2.201359	-0.999723	0.759093
H82	H	2.090477	-0.967177	0.567812
H83	H	1.995552	-0.959347	0.678179
H84	H	2.158799	-1.061614	0.626438
H85	H	2.063912	-1.053798	0.736821
H86	H	2.157542	-0.970183	0.817452
H87	H	2.252458	-0.978014	0.707076
H88	H	2.252667	-1.029028	0.803194
H89	H	2.015973	-1.116865	0.599597
H90	H	1.702674	-1.115453	0.330596
H91	H	1.964432	-0.307871	0.980076
C92	C	1.329087	-0.287734	0.593516
C93	C	1.260022	-0.317532	0.679498
C94	C	1.200440	-0.271915	0.764966
H95	H	1.390359	-0.264413	0.637118
H96	H	1.274224	-0.259902	0.549560
H97	H	1.314880	-0.345353	0.723449
H98	H	1.198729	-0.340849	0.635932
H99	H	1.145577	-0.244083	0.721010
H100	H	1.261721	-0.248597	0.808559
H101	H	1.153563	-0.292126	0.823307
C102	C	1.679094	-0.987267	0.310288
C103	C	1.603538	-1.029785	0.245347
C104	C	1.517104	-0.996650	0.171038
H105	H	1.627952	-0.957678	0.362289
H106	H	1.722865	-0.965543	0.251911
H107	H	1.559770	-1.051498	0.303717
H108	H	1.654645	-1.059374	0.193324
H109	H	1.560875	-0.974927	0.112661
H110	H	1.465972	-0.967063	0.223048
H111	H	1.465837	-1.025495	0.126958
