data_functionalizedCrystal
_audit_creation_method	'MofGen! by Chris Wilmer'
_symmetry_space_group_name_H-M	'P1'
_symmetry_Int_Tables_number	1
_symmetry_cell_setting	triclinic
loop_
_symmetry_equiv_pos_as_xyz
  x,y,z
_cell_length_a	18.101398
_cell_length_b	19.077068
_cell_length_c	19.076919
_cell_angle_alpha	94.470751
_cell_angle_beta	87.724166
_cell_angle_gamma	87.677468
loop_
_atom_site_label
_atom_site_type_symbol
_atom_site_fract_x
_atom_site_fract_y
_atom_site_fract_z
Zn1	Zn	1.102247	0.296773	0.409951
Zn2	Zn	1.435581	0.630107	0.743285
Zn3	Zn	1.768914	0.963440	1.076618
Zn4	Zn	1.102156	0.409927	0.296796
Zn5	Zn	1.435489	0.743260	0.630129
Zn6	Zn	1.768822	1.076593	0.963463
Zn7	Zn	0.983594	0.292048	0.292070
Zn8	Zn	1.316927	0.625381	0.625404
Zn9	Zn	1.650261	0.958715	0.958737
Zn10	Zn	0.973186	0.414613	0.414628
Zn11	Zn	1.306519	0.747946	0.747961
Zn12	Zn	1.639852	1.081280	1.081294
O13	O	1.040296	0.353340	0.353361
O14	O	1.373629	0.686674	0.686695
O15	O	1.706962	1.020007	1.020028
O16	O	1.205867	0.311800	0.394962
O17	O	1.539200	0.645133	0.728295
O18	O	1.872533	0.978467	1.061628
O19	O	1.090746	0.390351	0.197523
O20	O	1.424079	0.723684	0.530856
O21	O	1.757413	1.057018	0.864189
O22	O	1.003728	0.194026	0.303773
O23	O	1.337061	0.527359	0.637106
O24	O	1.670395	0.860693	0.970440
O25	O	1.205799	0.394933	0.311827
O26	O	1.539133	0.728267	0.645160
O27	O	1.872466	1.061600	0.978494
O28	O	1.090902	0.197498	0.390380
O29	O	1.424235	0.530831	0.723713
O30	O	1.757569	0.864164	1.057046
O31	O	1.003639	0.303746	0.194051
O32	O	1.336973	0.637079	0.527384
O33	O	1.670306	0.970413	0.860717
O34	O	0.878582	0.308290	0.308307
O35	O	1.211915	0.641623	0.641641
O36	O	1.545249	0.974957	0.974974
O37	O	0.985988	0.402920	0.512654
O38	O	1.319322	0.736253	0.845987
O39	O	1.652655	1.069587	1.179321
O40	O	0.870935	0.398338	0.398350
O41	O	1.204268	0.731671	0.731683
O42	O	1.537602	1.065005	1.065016
O43	O	1.080809	0.316344	0.509218
O44	O	1.414143	0.649677	0.842552
O45	O	1.747476	0.983011	1.175885
O46	O	1.080653	0.509197	0.316361
O47	O	1.413987	0.842531	0.649695
O48	O	1.747320	1.175864	0.983028
O49	O	0.985899	0.512640	0.402932
O50	O	1.319233	0.845974	0.736265
O51	O	1.652566	1.179307	1.069599
C52	C	1.032156	0.536498	0.360682
C53	C	1.365490	0.869831	0.694016
C54	C	1.698823	1.203165	1.027349
C55	C	1.028741	0.614855	0.363838
C56	C	1.362074	0.948188	0.697171
C57	C	1.695408	1.281521	1.030504
C58	C	0.847888	0.353310	0.353323
C59	C	1.181221	0.686644	0.686657
C60	C	1.514555	1.019977	1.019990
C61	C	0.765574	0.353315	0.353325
C62	C	1.098907	0.686648	0.686658
C63	C	1.432240	1.019982	1.019991
C64	C	1.032248	0.360682	0.537229
C65	C	1.365581	0.694015	0.870563
C66	C	1.698915	1.027348	1.203896
C67	C	1.028819	0.363810	0.615583
C68	C	1.362152	0.697144	0.948916
C69	C	1.695485	1.030477	1.282250
C70	C	0.466478	0.353361	0.353386
C71	C	0.799812	0.686695	0.686719
C72	C	1.133145	1.020028	1.020052
C73	C	0.502590	0.296444	0.296988
C74	C	0.835924	0.629777	0.630322
C75	C	1.169257	0.963111	0.963655
C76	C	0.588212	0.296582	0.296763
C77	C	0.921545	0.629915	0.630096
C78	C	1.254879	0.963248	0.963430
C79	C	0.614863	0.353338	0.353355
C80	C	0.948196	0.686671	0.686689
C81	C	1.281530	1.020004	1.020022
C82	C	0.581378	0.426782	0.336035
C83	C	0.914711	0.760116	0.669369
C84	C	1.248045	1.093449	1.002702
C85	C	0.495763	0.426463	0.335646
C86	C	0.829096	0.759796	0.668980
C87	C	1.162429	1.093130	1.002313
C88	C	0.495637	0.337485	0.427257
C89	C	0.828970	0.670818	0.760590
C90	C	1.162304	1.004151	1.093923
C91	C	0.581378	0.335815	0.426783
C92	C	0.914712	0.669148	0.760116
C93	C	1.248045	1.002481	1.093450
C94	C	0.698724	0.353329	0.353340
C95	C	1.032057	0.686662	0.686673
C96	C	1.365390	1.019996	1.020006
C97	C	0.382618	0.353375	0.353400
C98	C	0.715951	0.686708	0.686733
C99	C	1.049284	1.020042	1.020067
C100	C	1.233455	0.353371	0.353400
C101	C	1.566788	0.686704	0.686733
C102	C	1.900121	1.020038	1.020067
C103	C	1.315767	0.353384	0.353416
C104	C	1.649101	0.686717	0.686750
C105	C	1.982434	1.020051	1.020083
C106	C	1.048486	0.169468	0.346027
C107	C	1.381820	0.502801	0.679361
C108	C	1.715153	0.836135	1.012694
C109	C	1.051977	0.091113	0.342902
C110	C	1.385310	0.424446	0.676235
C111	C	1.718643	0.757779	1.009569
C112	C	1.076505	0.649852	0.320285
C113	C	1.409838	0.983186	0.653618
C114	C	1.743171	1.316519	0.986952
C115	C	1.073297	0.723477	0.323257
C116	C	1.406630	1.056810	0.656590
C117	C	1.739963	1.390144	0.989924
C118	C	1.022321	0.762102	0.369779
C119	C	1.355654	1.095436	0.703112
C120	C	1.688987	1.428769	1.036445
C121	C	0.974555	0.727100	0.413336
C122	C	1.307888	1.060433	0.746670
C123	C	1.641221	1.393766	1.080003
C124	C	0.977767	0.653476	0.410367
C125	C	1.311100	0.986810	0.743701
C126	C	1.644434	1.320143	1.077034
C127	C	1.007423	0.982487	0.383491
C128	C	1.340756	1.315820	0.716824
C129	C	1.674090	1.649153	1.050157
C130	C	1.004213	1.056115	0.386455
C131	C	1.337546	1.389448	0.719788
C132	C	1.670880	1.722782	1.053122
C133	C	1.102956	1.052487	0.296376
C134	C	1.436290	1.385820	0.629710
C135	C	1.769623	1.719154	0.963043
C136	C	1.106161	0.978863	0.293408
C137	C	1.439494	1.312196	0.626742
C138	C	1.772828	1.645529	0.960075
C139	C	1.058398	0.943866	0.336968
C140	C	1.391731	1.277200	0.670302
C141	C	1.725064	1.610533	1.003635
N142	N	1.019039	0.837358	0.372816
N143	N	1.352372	1.170692	0.706149
N144	N	1.685705	1.504025	1.039483
N145	N	1.061684	0.868612	0.333934
N146	N	1.395017	1.201945	0.667267
N147	N	1.728350	1.535278	1.000601
C148	C	1.048357	0.345976	0.170207
C149	C	1.381690	0.679310	0.503540
C150	C	1.715024	1.012643	0.836873
C151	C	1.051939	0.342649	0.091846
C152	C	1.385272	0.675983	0.425179
C153	C	1.718605	1.009316	0.758512
C154	C	1.076573	0.320207	0.650606
C155	C	1.409906	0.653540	0.983939
C156	C	1.743240	0.986873	1.317273
C157	C	1.073342	0.323144	0.724228
C158	C	1.406675	0.656477	1.057561
C159	C	1.740009	0.989810	1.390894
C160	C	1.022359	0.369688	0.762825
C161	C	1.355692	0.703022	1.096158
C162	C	1.689026	1.036355	1.429491
C163	C	0.974599	0.413294	0.727796
C164	C	1.307933	0.746627	1.061130
C165	C	1.641266	1.079960	1.394463
C166	C	0.977828	0.410353	0.654176
C167	C	1.311161	0.743686	0.987509
C168	C	1.644494	1.077019	1.320843
C169	C	1.007407	0.383314	0.983197
C170	C	1.340740	0.716647	1.316531
C171	C	1.674074	1.049981	1.649864
C172	C	1.004184	0.386253	1.056822
C173	C	1.337517	0.719586	1.390156
C174	C	1.670851	1.052920	1.723489
C175	C	1.102926	0.296102	1.053248
C176	C	1.436259	0.629435	1.386582
C177	C	1.769593	0.962768	1.719915
C178	C	1.106153	0.293168	0.979627
C179	C	1.439486	0.626501	1.312960
C180	C	1.772819	0.959834	1.646294
C181	C	1.058390	0.336771	0.944605
C182	C	1.391724	0.670104	1.277939
C183	C	1.725057	1.003437	1.611272
N184	N	1.019057	0.372693	0.838078
N185	N	1.352390	0.706026	1.171411
N186	N	1.685723	1.039360	1.504744
N187	N	1.061690	0.333762	0.869353
N188	N	1.395023	0.667095	1.202687
N189	N	1.728357	1.000429	1.536020
H190	H	0.611110	0.242026	0.307278
H191	H	0.944444	0.575359	0.640611
H192	H	1.277777	0.908692	0.973944
F193	F	1.153789	1.089738	0.250023
F194	F	1.487122	1.423071	0.583356
F195	F	1.820455	1.756405	0.916690
F196	F	1.130840	0.270670	0.609535
F197	F	1.464174	0.604004	0.942868
F198	F	1.797507	0.937337	1.276201
H199	H	0.598221	0.470197	0.375957
H200	H	0.931554	0.803530	0.709291
H201	H	1.264887	1.136863	1.042624
H202	H	0.933085	0.451189	0.759228
H203	H	1.266419	0.784522	1.092561
H204	H	1.599752	1.117855	1.425895
H205	H	0.933052	0.758554	0.451218
H206	H	1.266385	1.091888	0.784552
H207	H	1.599719	1.425221	1.117885
F208	F	1.160416	0.243629	0.938554
F209	F	1.493749	0.576962	1.271888
F210	F	1.827083	0.910296	1.605221
H211	H	1.112230	0.287638	0.752740
H212	H	1.445564	0.620972	1.086073
H213	H	1.778897	0.954305	1.419407
F214	F	1.153753	0.249698	1.090527
F215	F	1.487086	0.583031	1.423860
F216	F	1.820419	0.916365	1.757193
F217	F	0.949916	0.435792	1.097899
F218	F	1.283249	0.769125	1.431232
F219	F	1.616582	1.102458	1.764566
F220	F	0.949947	1.097221	0.435965
F221	F	1.283281	1.430555	0.769298
F222	F	1.616614	1.763888	1.102631
F223	F	0.956574	0.429720	0.945934
F224	F	1.289907	0.763054	1.279267
F225	F	1.623241	1.096387	1.612600
H226	H	1.112191	0.751969	0.287791
H227	H	1.445524	1.085302	0.621124
H228	H	1.778857	1.418635	0.954458
H229	H	0.968531	0.953999	0.418958
H230	H	1.301864	1.287332	0.752291
H231	H	1.635198	1.620665	1.085624
H232	H	0.938933	0.445852	0.625661
H233	H	1.272267	0.779186	0.958994
H234	H	1.605600	1.112519	1.292328
H235	H	0.482919	0.306572	0.242506
H236	H	0.816252	0.639905	0.575840
H237	H	1.149586	0.973239	0.909173
F238	F	0.478150	0.224906	0.310538
F239	F	0.811484	0.558239	0.643871
F240	F	1.144817	0.891573	0.977205
H241	H	0.610552	0.306838	0.241965
H242	H	0.943885	0.640171	0.575298
H243	H	1.277218	0.973504	0.908631
H244	H	0.604453	0.440899	0.282721
H245	H	0.937786	0.774232	0.616054
H246	H	1.271120	1.107565	0.949388
F247	F	0.471824	0.444519	0.265176
F248	F	0.805157	0.777852	0.598509
F249	F	1.138490	1.111185	0.931842
H250	H	0.471528	0.470146	0.375094
H251	H	0.804861	0.803479	0.708427
H252	H	1.138194	1.136813	1.041761
H253	H	0.475589	0.285018	0.443578
H254	H	0.808922	0.618352	0.776911
H255	H	1.142255	0.951685	1.110244
F256	F	0.610234	0.265196	0.443931
F257	F	0.943567	0.598529	0.777265
F258	F	1.276900	0.931862	1.110598
F259	F	0.464549	0.391718	0.482134
F260	F	0.797882	0.725051	0.815467
F261	F	1.131216	1.058384	1.148801
F262	F	0.604783	0.386366	0.484336
F263	F	0.938116	0.719699	0.817670
F264	F	1.271450	1.053033	1.151003
H265	H	1.118012	0.618408	0.282399
H266	H	1.451345	0.951741	0.615732
H267	H	1.784679	1.285075	0.949066
F268	F	1.160424	0.937760	0.243901
F269	F	1.493758	1.271093	0.577235
F270	F	1.827091	1.604427	0.910568
F271	F	0.926932	0.616230	0.456724
F272	F	1.260265	0.949563	0.790057
F273	F	1.593599	1.282896	1.123391
