data_functionalizedCrystal
_audit_creation_method	'MofGen! by Chris Wilmer'
_symmetry_space_group_name_H-M	'P1'
_symmetry_Int_Tables_number	1
_symmetry_cell_setting	triclinic
loop_
_symmetry_equiv_pos_as_xyz
  x,y,z
_cell_length_a	14.446369
_cell_length_b	14.560438
_cell_length_c	14.560438
_cell_angle_alpha	60.000518
_cell_angle_beta	90.000918
_cell_angle_gamma	59.998281
loop_
_atom_site_label
_atom_site_type_symbol
_atom_site_fract_x
_atom_site_fract_y
_atom_site_fract_z
Zr1	Zr	0.891771	1.005228	-0.120475
O2	O	0.743959	1.196840	-0.267125
O3	O	0.937083	0.813624	-0.075521
O4	O	0.937080	1.005229	-0.267122
O5	O	0.743965	1.005233	0.075616
O6	O	1.089417	1.005220	-0.267116
O7	O	0.743962	1.005236	-0.075524
O8	O	1.089422	0.662475	0.075623
O9	O	0.743960	1.347978	-0.267122
O10	O	1.070095	0.892425	-0.056342
O11	O	0.956410	0.892429	0.056449
O12	O	0.956407	1.118018	-0.169136
O13	O	0.842721	1.118023	-0.056346
Zr14	Zr	1.134735	1.005211	0.120586
Zr15	Zr	1.134731	1.005215	-0.120466
Zr16	Zr	0.891775	1.005224	0.120578
Zr17	Zr	0.891771	1.246276	-0.120470
Zr18	Zr	1.134734	0.764163	0.120582
O19	O	1.089423	1.196815	0.075633
O20	O	1.089417	1.196821	-0.267113
O21	O	0.743965	1.196834	0.075620
O22	O	1.282546	0.813599	0.267237
O23	O	1.282541	0.813606	-0.075508
O24	O	0.937088	0.813618	0.267224
O25	O	1.282541	1.005206	-0.075505
O26	O	1.089426	1.005211	0.267234
O27	O	0.937088	1.005219	0.267228
O28	O	1.282543	1.005204	0.075636
O29	O	0.937081	1.347967	-0.267115
O30	O	1.089425	0.662472	0.267227
O31	O	1.282546	0.662461	0.267234
O32	O	1.282543	0.662465	0.075630
O33	O	0.743963	1.347974	-0.075518
O34	O	0.937084	1.347964	-0.075511
O35	O	1.070099	0.892421	0.169248
O36	O	1.183785	0.892417	0.056457
O37	O	1.070096	1.118010	-0.056337
O38	O	0.956410	1.118014	0.056453
C39	C	1.013252	0.703706	0.000050
C40	C	1.013252	0.601375	0.000048
C41	C	1.072592	0.553297	-0.058827
C42	C	1.072597	0.457137	-0.058817
C43	C	0.953911	0.457147	0.058946
C44	C	0.953914	0.553298	0.058942
C45	C	0.709347	1.005236	0.000045
C46	C	0.606204	1.005242	0.000041
C47	C	0.387834	1.147509	-0.070740
C48	C	0.495066	1.147605	-0.071138
C49	C	0.602879	0.934571	-0.051851
C50	C	0.495110	0.935474	-0.052370
C51	C	0.496477	0.932541	0.122804
C52	C	0.602446	0.935222	0.122611
C53	C	1.317159	1.005203	0.000067
C54	C	1.420302	1.005197	0.000071
C55	C	1.013248	1.005225	-0.301464
C56	C	1.013246	1.005227	-0.403797
C57	C	1.013253	1.306733	0.000062
C58	C	1.013254	1.409064	0.000063
C59	C	0.953912	1.122975	-0.606905
C60	C	0.953901	1.122983	-0.510757
C61	C	1.072596	0.887456	-0.392985
C62	C	1.072599	0.887449	-0.489132
C63	C	1.013258	1.005214	0.301576
C64	C	1.013259	1.005212	0.403909
C65	C	1.317158	0.703689	0.000061
C66	C	1.420301	0.601353	0.000063
C67	C	1.013257	0.703700	0.301570
C68	C	1.013258	0.601367	0.403901
C69	C	1.317163	0.703684	0.301581
C70	C	1.420307	0.601345	0.403916
C71	C	0.709343	1.306755	-0.301469
C72	C	0.606198	1.409094	-0.403804
C73	C	0.709347	1.306750	0.000050
C74	C	0.606205	1.409087	0.000049
C75	C	1.013249	1.306739	-0.301458
C76	C	1.013247	1.409072	-0.403789
C77	C	1.409416	0.553276	-0.058813
C78	C	1.506333	0.457128	-0.058816
C79	C	1.625018	0.457137	0.058944
C80	C	1.528101	0.553290	0.058939
C81	C	1.072603	0.553285	0.510856
C82	C	1.072591	0.457141	0.607003
C83	C	0.953889	0.457167	0.489226
C84	C	0.953895	0.553316	0.393082
C85	C	1.528108	0.553262	0.393120
C86	C	1.625019	0.457113	0.489279
C87	C	1.506316	0.457134	0.607025
C88	C	1.409407	0.553289	0.510867
H89	H	1.120919	0.417993	-0.106757
H90	H	0.905599	0.417992	0.106894
O91	O	1.293145	0.605137	-0.122328
H92	H	1.301863	0.555560	-0.163279
O93	O	0.530406	0.797176	0.011509
H94	H	0.498722	0.775361	0.083899
H95	H	1.712792	0.417967	0.480481
H96	H	1.321625	0.592442	0.519666
H97	H	0.905573	1.218877	-0.519572
H98	H	1.120910	0.791577	-0.305890
H99	H	0.333879	1.203360	-0.036109
O100	O	1.136626	0.605113	0.522528
H101	H	1.126673	0.680039	0.437706
O102	O	0.889920	0.605168	0.122449
H103	H	0.798703	0.649001	0.088427
O104	O	1.136599	0.605145	-0.122334
H105	H	1.177872	0.555545	-0.163263
O106	O	1.539844	0.605141	0.122453
H107	H	1.454340	0.680085	0.112548
O108	O	0.601794	1.003457	0.173971
H109	H	0.526063	1.105794	0.122102
O110	O	1.494593	0.405280	-0.122324
H111	H	1.535923	0.299208	-0.062886
O112	O	1.136613	0.405262	0.722365
H113	H	1.177900	0.454822	0.713730
H114	H	0.493307	1.203334	-0.036601
H115	H	1.120926	0.791547	-0.480319
O116	O	1.741285	0.405287	0.122458
H117	H	1.806850	0.330337	0.112582
O118	O	1.494558	0.405284	0.722377
H119	H	1.580055	0.330330	0.787429
H120	H	0.332848	1.203091	-0.160730
H121	H	0.905560	0.418030	0.480431
H122	H	0.492618	1.203394	-0.161674
O123	O	1.539856	0.605119	0.277764
H124	H	1.631101	0.555539	0.286417
O125	O	0.428402	1.002018	-0.172000
H126	H	0.473266	1.033255	-0.228937
O127	O	0.889987	0.604995	0.277748
H128	H	0.798768	0.648771	0.267897
O129	O	0.706567	0.795926	0.013158
H130	H	0.709836	0.742859	0.101825
O131	O	0.605681	0.999596	-0.170358
H132	H	0.684693	0.995126	-0.169132
O133	O	0.430233	0.992859	0.180229
H134	H	0.342266	1.075306	0.121924
H135	H	0.681605	0.831360	0.179809
H136	H	0.905591	1.218865	-0.693992
O137	O	0.532848	0.793669	0.193035
H138	H	0.456689	0.792434	0.196284
