data_functionalizedCrystal
_audit_creation_method	'MofGen! by Chris Wilmer'
_symmetry_space_group_name_H-M	'P1'
_symmetry_Int_Tables_number	1
_symmetry_cell_setting	triclinic
loop_
_symmetry_equiv_pos_as_xyz
  x,y,z
_cell_length_a	17.077404
_cell_length_b	25.639240
_cell_length_c	17.077396
_cell_angle_alpha	90.034713
_cell_angle_beta	89.983895
_cell_angle_gamma	89.958077
loop_
_atom_site_label
_atom_site_type_symbol
_atom_site_fract_x
_atom_site_fract_y
_atom_site_fract_z
Zn1	Zn	1.199922	0.208175	-0.443789
Zn2	Zn	1.699922	0.708175	0.056211
Zn3	Zn	1.199786	0.295614	-0.312511
Zn4	Zn	1.699786	0.795614	0.187489
Zn5	Zn	1.068659	0.208191	-0.312540
Zn6	Zn	1.568659	0.708191	0.187460
Zn7	Zn	1.068574	0.295578	-0.443737
Zn8	Zn	1.568574	0.795578	0.056263
O9	O	1.134235	0.251889	-0.378144
O10	O	1.634235	0.751889	0.121856
O11	O	1.309751	0.219782	-0.426385
O12	O	1.809751	0.719782	0.073615
O13	O	1.182371	0.284039	-0.202668
O14	O	1.682371	0.784039	0.297332
O15	O	1.086164	0.135024	-0.329984
O16	O	1.586164	0.635024	0.170016
O17	O	1.309651	0.284023	-0.329935
O18	O	1.809651	0.784023	0.170065
O19	O	1.182603	0.135012	-0.426413
O20	O	1.682603	0.635012	0.073587
O21	O	1.086032	0.219810	-0.202689
O22	O	1.586032	0.719810	0.297311
O23	O	0.958801	0.219775	-0.329934
O24	O	1.458801	0.719775	0.170066
O25	O	1.086019	0.283962	-0.553591
O26	O	1.586019	0.783962	-0.053591
O27	O	0.958738	0.283978	-0.426324
O28	O	1.458738	0.783978	0.073676
O29	O	1.182520	0.219747	-0.553629
O30	O	1.682520	0.719747	-0.053629
O31	O	1.182288	0.368774	-0.329884
O32	O	1.682288	0.868774	0.170116
O33	O	1.085887	0.368748	-0.426296
O34	O	1.585887	0.868748	0.073704
C35	C	0.930287	0.251875	-0.378127
C36	C	1.430287	0.751875	0.121873
C37	C	0.843038	0.251881	-0.378138
C38	C	1.343038	0.751881	0.121862
C39	C	0.802100	0.218490	-0.428436
C40	C	1.302100	0.718490	0.071564
C41	C	0.720120	0.218493	-0.428439
C42	C	1.220120	0.718493	0.071561
C43	C	0.679078	0.251891	-0.378148
C44	C	1.179078	0.751891	0.121852
C45	C	0.720021	0.285283	-0.327845
C46	C	1.220021	0.785283	0.172155
C47	C	0.802000	0.285276	-0.327838
C48	C	1.302000	0.785276	0.172162
C49	C	0.549151	0.285295	-0.327864
C50	C	1.049151	0.785295	0.172136
C51	C	0.467167	0.285302	-0.327872
C52	C	0.967167	0.785302	0.172128
C53	C	0.467271	0.218512	-0.428466
C54	C	0.967271	0.718512	0.071534
C55	C	0.549250	0.218505	-0.428459
C56	C	1.049250	0.718505	0.071541
C57	C	0.590187	0.251898	-0.378156
C58	C	1.090187	0.751898	0.121844
C59	C	1.134085	0.387732	-0.378098
C60	C	1.634085	0.887732	0.121902
C61	C	1.134092	0.445846	-0.378105
C62	C	1.634092	0.945846	0.121895
C63	C	1.083975	0.697038	-0.428304
C64	C	1.583975	1.197038	0.071696
C65	C	1.083953	0.642434	-0.428298
C66	C	1.583953	1.142434	0.071702
O67	O	1.041243	0.614196	-0.470966
O68	O	1.541243	1.114196	0.029034
N69	N	1.134170	0.615120	-0.378136
N70	N	1.634170	1.115120	0.121864
C71	C	1.184418	0.642413	-0.327983
C72	C	1.684418	1.142413	0.172017
O73	O	1.227130	0.614166	-0.285317
O74	O	1.727130	1.114166	0.214683
C75	C	1.184444	0.697016	-0.327993
C76	C	1.684444	1.197016	0.172007
C77	C	1.134218	0.724327	-0.378152
C78	C	1.634218	1.224327	0.121848
C79	C	1.033754	0.724349	-0.478459
C80	C	1.533754	1.224349	0.021541
C81	C	1.033776	0.778950	-0.478464
C82	C	1.533776	1.278950	0.021536
C83	C	1.084018	0.806239	-0.428313
C84	C	1.584018	1.306239	0.071687
C85	C	1.134240	0.778928	-0.378157
C86	C	1.634240	1.278928	0.121843
C87	C	1.234696	0.724308	-0.277845
C88	C	1.734696	1.224308	0.222155
C89	C	1.234718	0.778915	-0.277860
C90	C	1.734718	1.278915	0.222140
C91	C	1.184492	0.806227	-0.328019
C92	C	1.684492	1.306227	0.171981
C93	C	1.184504	0.860818	-0.328011
C94	C	1.684504	1.360818	0.171989
N95	N	1.134287	0.888132	-0.378172
N96	N	1.634287	1.388132	0.121828
C97	C	1.084044	0.860843	-0.428323
C98	C	1.584044	1.360843	0.071677
C99	C	1.184361	0.527742	-0.327966
C100	C	1.684361	1.027742	0.172034
C101	C	1.184332	0.473140	-0.327951
C102	C	1.684332	0.973140	0.172049
C103	C	1.083868	0.473165	-0.428267
C104	C	1.583868	0.973165	0.071733
C105	C	1.083893	0.527768	-0.428277
C106	C	1.583893	1.027768	0.071723
C107	C	1.134144	0.555056	-0.378127
C108	C	1.634144	1.055056	0.121873
C109	C	1.084093	0.975508	-0.428329
C110	C	1.584093	1.475508	0.071671
C111	C	1.084116	1.030113	-0.428327
C112	C	1.584116	1.530113	0.071673
C113	C	1.184584	1.030084	-0.328014
C114	C	1.684584	1.530084	0.171986
C115	C	1.184557	0.975483	-0.328013
C116	C	1.684557	1.475483	0.171987
C117	C	1.134309	0.948196	-0.378177
C118	C	1.634309	1.448196	0.121823
O119	O	1.227195	0.889090	-0.285366
O120	O	1.727195	1.389090	0.214634
O121	O	1.041347	0.889096	-0.470990
O122	O	1.541347	1.389096	0.029010
C123	C	1.338980	0.251905	-0.378162
C124	C	1.838980	0.751905	0.121838
C125	C	1.426229	0.251911	-0.378170
C126	C	1.926229	0.751911	0.121830
C127	C	1.134275	0.251849	-0.582889
C128	C	1.634275	0.751849	-0.082889
C129	C	1.134292	0.251832	-0.670139
C130	C	1.634292	0.751832	-0.170139
C131	C	1.134377	1.115516	-0.378193
C132	C	1.634377	1.615516	0.121807
C133	C	1.134359	1.057402	-0.378176
C134	C	1.634359	1.557402	0.121824
C135	C	1.084143	0.218384	-0.711139
C136	C	1.584143	0.718384	-0.211139
C137	C	1.084156	0.218372	-0.793120
C138	C	1.584156	0.718372	-0.293120
C139	C	1.134322	0.251806	-0.834098
C140	C	1.634322	0.751806	-0.334098
C141	C	1.184472	0.285257	-0.793092
C142	C	1.684472	0.785257	-0.293092
C143	C	1.184455	0.285272	-0.711113
C144	C	1.684455	0.785272	-0.211113
C145	C	1.184506	0.285225	-0.963962
C146	C	1.684506	0.785225	-0.463962
C147	C	1.184525	0.285210	-1.045947
C148	C	1.684525	0.785210	-0.545947
C149	C	1.084208	0.218325	-1.045969
C150	C	1.584208	0.718325	-0.545969
C151	C	1.084190	0.218339	-0.963990
C152	C	1.584190	0.718339	-0.463990
C153	C	1.134342	0.251790	-0.922989
C154	C	1.634342	0.751790	-0.422989
C155	C	1.134241	0.251892	-0.174197
C156	C	1.634241	0.751892	0.325803
C157	C	1.134377	0.251762	-0.086947
C158	C	1.634377	0.751762	0.413053
H159	H	0.835331	0.312466	-0.286880
H160	H	1.335331	0.812466	0.213120
F161	F	1.030753	0.182791	-0.836752
F162	F	1.530753	0.682791	-0.336752
F163	F	1.288161	0.695253	-0.224464
F164	F	1.788161	1.195253	0.275536
H165	H	1.043297	0.191155	-0.677780
H166	H	1.543297	0.691155	-0.177780
H167	H	1.043345	0.191112	-0.930627
H168	H	1.543345	0.691112	-0.430627
F169	F	0.592718	0.320838	-0.274329
F170	F	1.092718	0.820838	0.225671
F171	F	1.237880	0.320830	-0.920328
F172	F	1.737880	0.820830	-0.420328
H173	H	1.042958	0.450936	-0.469104
H174	H	1.542958	0.950936	0.030896
H175	H	1.225280	0.549957	-0.287121
H176	H	1.725280	1.049957	0.212879
F177	F	0.980275	0.695314	-0.531843
F178	F	1.480275	1.195314	-0.031843
H179	H	1.225296	0.312504	-0.677731
H180	H	1.725296	0.812504	-0.177731
F181	F	1.237999	0.946415	-0.274614
F182	F	1.737999	1.446415	0.225386
H183	H	0.835510	0.191295	-0.469391
H184	H	1.335510	0.691295	0.030609
H185	H	0.686599	0.312473	-0.286893
H186	H	1.186599	0.812473	0.213107
F187	F	0.676555	0.182955	-0.481975
F188	F	1.176555	0.682955	0.018025
F189	F	1.288205	0.807954	-0.224483
F190	F	1.788205	1.307954	0.275517
F191	F	1.237857	0.320844	-0.836706
F192	F	1.737857	0.820844	-0.336706
H193	H	1.043215	1.052347	-0.469174
H194	H	1.543215	1.552347	0.030826
H195	H	1.225487	1.052312	-0.287179
H196	H	1.725487	1.552312	0.212821
F197	F	0.423702	0.182971	-0.482000
F198	F	0.923702	0.682971	0.018000
F199	F	0.423489	0.320857	-0.274362
F200	F	0.923489	0.820857	0.225638
F201	F	1.030613	0.946475	-0.481719
F202	F	1.530613	1.446475	0.018281
H203	H	1.042999	0.550001	-0.469126
H204	H	1.542999	1.050001	0.030874
H205	H	0.992875	0.801182	-0.519307
H206	H	1.492875	1.301182	-0.019307
H207	H	1.225374	0.312435	-1.079309
H208	H	1.725374	0.812435	-0.579309
H209	H	1.225222	0.450907	-0.287098
H210	H	1.725222	0.950907	0.212902
H211	H	1.043373	0.191087	-1.079356
H212	H	1.543373	0.691087	-0.579356
H213	H	0.582664	0.191313	-0.469415
H214	H	1.082664	0.691313	0.030585
