data_functionalizedCrystal
_audit_creation_method	'MofGen! by Chris Wilmer'
_symmetry_space_group_name_H-M	'P1'
_symmetry_Int_Tables_number	1
_symmetry_cell_setting	triclinic
loop_
_symmetry_equiv_pos_as_xyz
  x,y,z
_cell_length_a	10.489741
_cell_length_b	10.489716
_cell_length_c	9.565339
_cell_angle_alpha	89.996780
_cell_angle_beta	90.000516
_cell_angle_gamma	84.534155
loop_
_atom_site_label
_atom_site_type_symbol
_atom_site_fract_x
_atom_site_fract_y
_atom_site_fract_z
O1	O	0.179810	1.694071	-0.116248
O2	O	0.196735	1.322871	-0.116253
O3	O	0.002674	1.516918	-0.116242
O4	O	0.373871	1.500025	-0.116259
O5	O	0.002686	1.516902	0.116278
O6	O	0.196747	1.322856	0.116267
O7	O	0.179822	1.694056	0.116272
Zn8	Zn	0.188286	1.508453	0.153187
Zn9	Zn	0.188271	1.508474	-0.153168
O10	O	0.373883	1.500009	0.116261
C11	C	0.195470	1.275332	0.000006
C12	C	0.191665	1.133701	0.000005
C13	C	0.310669	1.036027	-0.000004
C14	C	0.247791	0.958673	0.114650
C15	C	0.247751	0.958695	-0.114597
C16	C	0.128836	1.058213	0.114753
C17	C	0.128814	1.058240	-0.114597
C18	C	0.065848	0.980935	0.000085
C19	C	-0.044852	1.515634	0.000017
C20	C	-0.186481	1.511817	0.000015
C21	C	-0.254610	1.388351	0.000003
C22	C	-0.346732	1.446668	0.114648
C23	C	-0.346718	1.446712	-0.114599
C24	C	-0.276737	1.570184	0.114754
C25	C	-0.276714	1.570212	-0.114595
C26	C	-0.368808	1.628618	0.000078
C27	C	0.421409	1.501293	-0.000001
C28	C	0.563038	1.505110	-0.000008
C29	C	0.181087	1.741596	0.000010
C30	C	0.184892	1.883227	0.000002
N31	N	0.188297	1.508449	0.362267
N32	N	0.188250	1.508488	-0.362247
C33	C	0.278013	1.418681	0.453465
C34	C	0.303814	1.534180	0.546644
C35	C	0.162506	1.393001	0.546643
C36	C	0.214155	1.624006	0.453394
C37	C	0.072797	1.482750	0.453385
C38	C	0.098549	1.598332	0.546522
H39	H	0.298033	0.915184	0.211574
H40	H	0.078633	1.101522	0.211779
H41	H	-0.377734	1.394420	0.211571
O42	O	0.368674	1.328359	0.404533
C43	C	0.457172	1.387524	0.321471
H44	H	0.410434	1.482826	0.280545
H45	H	0.544538	1.404990	0.387115
C46	C	0.556364	1.182773	0.247615
C47	C	0.498956	1.299818	0.197339
H48	H	0.582145	1.128671	0.171047
H49	H	0.496745	1.142911	0.303579
H50	H	0.629162	1.197345	0.302319
H51	H	0.426152	1.285247	0.142651
H52	H	0.558564	1.339676	0.141362
H53	H	-0.245679	1.622415	-0.211523
H54	H	0.078610	1.101742	-0.211526
H55	H	0.414185	1.060696	0.000098
H56	H	0.298007	0.915218	-0.211514
H57	H	-0.204950	1.286838	0.000117
H58	H	-0.377683	1.394461	-0.211532
O59	O	-0.057751	0.951839	0.000411
C60	C	-0.120013	1.003012	0.121426
H61	H	-0.045806	1.017693	0.205524
H62	H	-0.175372	1.098849	0.095165
C63	C	-0.304625	0.891591	0.072198
C64	C	-0.213484	0.909611	0.175493
H65	H	-0.362287	0.833981	0.105547
H66	H	-0.262681	0.857117	-0.009335
H67	H	-0.350744	0.971462	0.050323
H68	H	-0.167356	0.829744	0.197353
H69	H	-0.255423	0.944069	0.257031
H70	H	-0.024827	1.460952	0.412389
O71	O	0.420217	1.560178	0.595765
C72	C	0.418212	1.560949	0.743148
H73	H	0.315233	1.580801	0.781154
H74	H	0.460288	1.463836	0.784023
C75	C	0.624771	1.641776	0.750906
C76	C	0.498292	1.666170	0.797586
H77	H	0.674173	1.706677	0.784488
H78	H	0.626125	1.641252	0.651612
H79	H	0.659818	1.560846	0.784972
H80	H	0.463243	1.747091	0.763505
H81	H	0.496934	1.666710	0.896876
O82	O	-0.240190	1.632526	0.230562
C83	C	-0.349000	1.672515	0.311566
H84	H	-0.437745	1.680114	0.242160
H85	H	-0.360348	1.599790	0.398176
C86	C	-0.223647	1.794838	0.462057
C87	C	-0.332645	1.804182	0.376808
H88	H	-0.213559	1.876053	0.502308
H89	H	-0.150339	1.767893	0.407487
H90	H	-0.233118	1.734228	0.534220
H91	H	-0.323166	1.864778	0.304637
H92	H	-0.405952	1.831140	0.431368
O93	O	0.240501	1.740535	0.404953
C94	C	0.361896	1.767601	0.453639
H95	H	0.387198	1.709297	0.552048
H96	H	0.436827	1.741371	0.369524
C97	C	0.328027	1.982966	0.366644
C98	C	0.359099	1.911364	0.487518
H99	H	0.326305	2.071646	0.387537
H100	H	0.246242	1.964730	0.333838
H101	H	0.390474	1.961093	0.296560
H102	H	0.296644	1.933226	0.557593
H103	H	0.440873	1.929607	0.520337
H104	H	-0.418241	1.730222	0.000143
O105	O	0.008145	1.689176	0.594909
C106	C	0.035779	1.810682	0.547108
H107	H	0.142059	1.808007	0.521107
H108	H	-0.023139	1.837260	0.449435
C109	C	-0.128546	1.914402	0.693889
C110	C	0.001991	1.911121	0.661966
H111	H	-0.149393	1.976360	0.764735
H112	H	-0.147168	1.832542	0.726090
H113	H	-0.177628	1.936547	0.612485
H114	H	0.051071	1.888961	0.743364
H115	H	0.020621	1.992980	0.629781
H116	H	0.140714	1.295352	0.587606
