data_functionalizedCrystal
_audit_creation_method	'MofGen! by Chris Wilmer'
_symmetry_space_group_name_H-M	'P1'
_symmetry_Int_Tables_number	1
_symmetry_cell_setting	triclinic
loop_
_symmetry_equiv_pos_as_xyz
  x,y,z
_cell_length_a	16.109293
_cell_length_b	16.109295
_cell_length_c	14.586319
_cell_angle_alpha	89.997157
_cell_angle_beta	89.996045
_cell_angle_gamma	83.458729
loop_
_atom_site_label
_atom_site_type_symbol
_atom_site_fract_x
_atom_site_fract_y
_atom_site_fract_z
O1	O	-1.103129	-0.106838	0.076306
O2	O	-0.769795	0.226495	0.409640
O3	O	-0.436462	0.559828	0.742973
O4	O	-0.861066	-0.120145	0.076291
O5	O	-0.527732	0.213189	0.409625
O6	O	-0.194399	0.546522	0.742958
O7	O	-0.988749	0.007540	0.076301
O8	O	-0.655416	0.340873	0.409634
O9	O	-0.322083	0.674207	0.742967
O10	O	-0.975445	-0.234523	0.076297
O11	O	-0.642112	0.098810	0.409631
O12	O	-0.308778	0.432144	0.742964
O13	O	-0.988748	0.007548	-0.076180
O14	O	-0.655415	0.340881	0.257153
O15	O	-0.322082	0.674215	0.590486
O16	O	-0.861065	-0.120137	-0.076189
O17	O	-0.527731	0.213197	0.257144
O18	O	-0.194398	0.546530	0.590477
O19	O	-1.103128	-0.106830	-0.076174
O20	O	-0.769794	0.226503	0.257159
O21	O	-0.436461	0.559836	0.590492
Cu22	Cu	-0.982096	-0.113483	-0.090105
Cu23	Cu	-0.648763	0.219851	0.243229
Cu24	Cu	-0.315429	0.553184	0.576562
Cu25	Cu	-0.982097	-0.113492	0.090222
Cu26	Cu	-0.648764	0.219841	0.423555
Cu27	Cu	-0.315431	0.553175	0.756888
O28	O	-0.975444	-0.234515	-0.076184
O29	O	-0.642111	0.098818	0.257150
O30	O	-0.308777	0.432152	0.590483
C31	C	-0.830090	-0.119603	0.000049
C32	C	-0.496757	0.213731	0.333383
C33	C	-0.163424	0.547064	0.666716
C34	C	-0.737795	-0.117990	0.000044
C35	C	-0.404461	0.215343	0.333377
C36	C	-0.071128	0.548677	0.666711
C37	C	-0.525452	-0.114257	-0.083070
C38	C	-0.192119	0.219076	0.250263
C39	C	0.141214	0.552409	0.583596
C40	C	-0.438732	-0.112733	-0.083070
C41	C	-0.105399	0.220600	0.250264
C42	C	0.227935	0.553934	0.583597
C43	C	-0.438744	-0.112746	0.083173
C44	C	-0.105410	0.220587	0.416507
C45	C	0.227923	0.553921	0.749840
C46	C	-0.525463	-0.114264	0.083172
C47	C	-0.192130	0.219069	0.416505
C48	C	0.141204	0.552402	0.749838
C49	C	-0.568815	-0.115024	0.000047
C50	C	-0.235481	0.218309	0.333380
C51	C	0.097852	0.551643	0.666714
C52	C	-0.395375	-0.111982	0.000050
C53	C	-0.062041	0.221352	0.333383
C54	C	0.271292	0.554685	0.666716
C55	C	-0.301349	-0.110329	0.000051
C56	C	0.031985	0.223004	0.333384
C57	C	0.365318	0.556337	0.666718
C58	C	-0.662847	-0.116675	0.000045
C59	C	-0.329514	0.216658	0.333379
C60	C	0.003820	0.549992	0.666712
C61	C	-0.988211	0.038519	0.000062
C62	C	-0.654877	0.371852	0.333396
C63	C	-0.321544	0.705186	0.666729
C64	C	-0.986597	0.130815	0.000069
C65	C	-0.653264	0.464148	0.333402
C66	C	-0.319931	0.797481	0.666736
C67	C	-0.134102	-0.107380	0.000063
C68	C	0.199231	0.225953	0.333396
C69	C	0.532564	0.559287	0.666729
C70	C	-0.226395	-0.109016	0.000053
C71	C	0.106938	0.224318	0.333386
C72	C	0.440272	0.557651	0.666719
N73	N	-0.982099	-0.113493	0.217053
N74	N	-0.648765	0.219841	0.550387
N75	N	-0.315432	0.553174	0.883720
C76	C	-1.058610	0.353090	0.000107
C77	C	-0.725277	0.686423	0.333440
C78	C	-0.391943	1.019756	0.666774
C79	C	-1.057088	0.439810	0.000122
C80	C	-0.723754	0.773143	0.333455
C81	C	-0.390421	1.106477	0.666789
C82	C	-0.905598	0.419931	0.000108
C83	C	-0.572265	0.753265	0.333442
C84	C	-0.238931	1.086598	0.666775
C85	C	-0.907121	0.333213	0.000100
C86	C	-0.573788	0.666546	0.333433
C87	C	-0.240454	0.999879	0.666766
C88	C	-0.983630	0.299794	0.000095
C89	C	-0.650296	0.633127	0.333428
C90	C	-0.316963	0.966461	0.666761
C91	C	-0.980584	0.473234	0.000118
C92	C	-0.647251	0.806567	0.333451
C93	C	-0.313917	1.139900	0.666785
C94	C	-0.978933	0.567260	0.000134
C95	C	-0.645600	0.900593	0.333468
C96	C	-0.312266	1.233927	0.666801
C97	C	-0.985281	0.205762	0.000080
C98	C	-0.651948	0.539095	0.333413
C99	C	-0.318614	0.872429	0.666747
C100	C	-0.975988	0.734507	0.000079
C101	C	-0.642654	1.067840	0.333412
C102	C	-0.309321	1.401173	0.666745
C103	C	-0.977616	0.642213	0.000144
C104	C	-0.644283	0.975547	0.333477
C105	C	-0.310949	1.308880	0.666810
N106	N	-0.982101	-0.113476	-0.216936
N107	N	-0.648768	0.219858	0.116397
N108	N	-0.315435	0.553191	0.449730
C109	C	-1.038746	-0.057064	0.452064
C110	C	-0.705413	0.276270	0.785397
C111	C	-0.372080	0.609603	1.118730
C112	C	-1.038749	-0.057062	0.548045
C113	C	-0.705415	0.276272	0.881378
C114	C	-0.372082	0.609605	1.214712
C115	C	-0.925451	-0.169911	0.548046
C116	C	-0.592118	0.163423	0.881380
C117	C	-0.258784	0.496756	1.214713
C118	C	-0.925453	-0.169916	0.452067
C119	C	-0.592120	0.163417	0.785400
C120	C	-0.258787	0.496751	1.118734
C121	C	-0.982100	-0.113488	0.404078
C122	C	-0.648767	0.219846	0.737411
C123	C	-0.315433	0.553179	1.070745
C124	C	-0.982100	-0.113480	0.596039
C125	C	-0.648767	0.219853	0.929372
C126	C	-0.315433	0.553186	1.262706
C127	C	-0.982102	-0.113479	0.700106
C128	C	-0.648769	0.219855	1.033439
C129	C	-0.315436	0.553188	1.366773
C130	C	-0.982099	-0.113490	0.300004
C131	C	-0.648766	0.219843	0.633338
C132	C	-0.315432	0.553176	0.966671
H133	H	-0.560770	-0.114886	0.150860
H134	H	-0.227437	0.218447	0.484193
H135	H	0.105897	0.551780	0.817527
H136	H	-1.120908	0.325883	0.000105
H137	H	-0.787575	0.659217	0.333438
H138	H	-0.454241	0.992550	0.666771
H139	H	-0.843307	0.447152	0.000111
H140	H	-0.509974	0.780485	0.333444
H141	H	-0.176641	1.113818	0.666777
H142	H	-0.879325	-0.215867	0.412994
H143	H	-0.545991	0.117466	0.746328
H144	H	-0.212658	0.450799	1.079661
H145	H	-1.118144	0.483200	0.000134
H146	H	-0.784811	0.816534	0.333468
H147	H	-0.451478	1.149867	0.666801
H148	H	-0.846059	0.289817	0.000092
H149	H	-0.512726	0.623150	0.333426
H150	H	-0.179393	0.956483	0.666759
F151	F	-1.099037	0.002990	0.400994
F152	F	-0.765703	0.336324	0.734328
F153	F	-0.432370	0.669657	1.067661
H154	H	-0.403436	-0.112128	0.150850
H155	H	-0.070103	0.221205	0.484184
H156	H	0.263231	0.554538	0.817517
H157	H	-1.084876	-0.011117	0.587112
H158	H	-0.751543	0.322216	0.920446
H159	H	-0.418209	0.655550	1.253779
H160	H	-0.560747	-0.114876	-0.150756
H161	H	-0.227413	0.218458	0.182578
H162	H	0.105920	0.551791	0.515911
F163	F	-0.392586	-0.111918	-0.171535
F164	F	-0.059253	0.221416	0.161799
F165	F	0.274081	0.554749	0.495132
H166	H	-0.879330	-0.215852	0.587129
H167	H	-0.545996	0.117481	0.920462
H168	H	-0.212663	0.450815	1.253795
