data_functionalizedCrystal
_audit_creation_method	'MofGen! by Chris Wilmer'
_symmetry_space_group_name_H-M	'P1'
_symmetry_Int_Tables_number	1
_symmetry_cell_setting	triclinic
loop_
_symmetry_equiv_pos_as_xyz
  x,y,z
_cell_length_a	16.120484
_cell_length_b	17.640112
_cell_length_c	17.640968
_cell_angle_alpha	87.860920
_cell_angle_beta	82.192558
_cell_angle_gamma	76.500674
loop_
_atom_site_label
_atom_site_type_symbol
_atom_site_fract_x
_atom_site_fract_y
_atom_site_fract_z
Zn1	Zn	-0.023860	-1.246898	-0.196404
Zn2	Zn	-0.195187	-1.214806	-0.078925
Zn3	Zn	-0.077878	-1.092236	-0.098046
Zn4	Zn	-0.184256	-1.113950	-0.230901
O5	O	-0.120295	-1.166972	-0.151069
O6	O	-0.028555	-1.349575	-0.158380
O7	O	-0.206807	-1.176029	0.023304
O8	O	0.045508	-1.117096	-0.104658
O9	O	-0.154428	-1.325997	-0.072070
O10	O	0.085195	-1.230725	-0.176921
O11	O	-0.120621	-1.085978	0.009256
O12	O	-0.110021	-0.988182	-0.138109
O13	O	-0.135798	-1.154104	-0.331090
O14	O	-0.188177	-1.004135	-0.235717
O15	O	-0.017955	-1.251780	-0.305745
O16	O	-0.309958	-1.197083	-0.105520
O17	O	-0.301927	-1.122985	-0.217176
C18	C	-0.153775	-0.968432	-0.192732
C19	C	-0.168113	-0.883498	-0.210574
C20	C	-0.336069	-1.158932	-0.163028
C21	C	-0.428360	-1.155568	-0.168155
C22	C	-0.069632	-1.208944	-0.346341
C23	C	-0.048042	-1.226829	-0.429555
C24	C	-0.597332	-1.149433	-0.177530
C25	C	-0.642392	-1.184651	-0.124592
C26	C	-0.736414	-1.181238	-0.129808
C27	C	-0.503302	-1.152846	-0.172315
C28	C	0.096329	-1.175068	-0.139075
C29	C	0.188641	-1.178518	-0.133963
C30	C	-0.086685	-1.366289	-0.109244
C31	C	-0.072363	-1.451225	-0.091421
C32	C	-0.011353	-0.562620	-0.015528
C33	C	-0.024840	-0.482814	-0.032305
C34	C	-0.106413	-0.499439	-0.133786
C35	C	-0.092929	-0.579249	-0.117021
C36	C	-0.045399	-0.610833	-0.057890
C37	C	-0.126975	-0.627462	-0.159383
C38	C	-0.113496	-0.707264	-0.142616
C39	C	-0.065971	-0.738854	-0.083486
C40	C	-0.031920	-0.690635	-0.041123
C41	C	-0.174510	-0.595875	-0.218510
C42	C	-0.208556	-0.644088	-0.260872
C43	C	-0.195072	-0.723893	-0.244108
C44	C	-0.147546	-0.755483	-0.184979
C45	C	-0.229122	-0.772112	-0.286472
C46	C	-0.215643	-0.851914	-0.269705
C47	C	-0.134067	-0.835285	-0.168212
C48	C	-0.283809	-1.031408	-0.769207
C49	C	-0.263509	-1.048230	-0.847394
C50	C	-0.140810	-1.149932	-0.820995
C51	C	-0.161098	-1.133115	-0.742803
C52	C	-0.232599	-1.073853	-0.716916
C53	C	-0.109887	-1.175560	-0.690513
C54	C	-0.130176	-1.158747	-0.612328
C55	C	-0.201675	-1.099489	-0.586434
C56	C	-0.252888	-1.057040	-0.638731
C57	C	-0.038390	-1.234826	-0.716401
C58	C	0.012820	-1.277271	-0.664110
C59	C	-0.007464	-1.260455	-0.585924
C60	C	-0.078964	-1.201197	-0.560030
C61	C	0.043748	-1.302904	-0.533627
C62	C	0.023459	-1.286092	-0.455442
C63	C	-0.099252	-1.184384	-0.481846
C64	C	-0.170694	-1.125211	0.043456
C65	C	-0.192025	-1.107482	0.126714
H66	H	-0.610356	-1.217365	-0.075352
O67	O	-0.053030	-0.816367	-0.067196
C68	C	-0.118289	-0.923760	-0.028135
C69	C	-0.133067	-0.835973	-0.046582
H70	H	-0.182987	-0.939637	-0.011448
H71	H	-0.082491	-0.958590	-0.080624
H72	H	-0.078437	-0.938035	0.021380
H73	H	-0.172940	-0.821626	-0.096074
H74	H	-0.168827	-0.801191	0.005947
O75	O	-0.322251	-0.999386	-0.613564
C76	C	-0.373750	-0.876839	-0.547536
C77	C	-0.295121	-0.942061	-0.576006
H78	H	-0.351845	-0.830483	-0.517150
H79	H	-0.406862	-0.849331	-0.598324
H80	H	-0.420767	-0.902452	-0.506006
H81	H	-0.248043	-0.916510	-0.617521
H82	H	-0.262077	-0.969561	-0.525180
O83	O	-0.187581	-0.518384	-0.234935
C84	C	-0.167078	-0.420089	-0.329609
C85	C	-0.152226	-0.507871	-0.311118
H86	H	-0.138486	-0.411561	-0.391197
H87	H	-0.239079	-0.392661	-0.322142
H88	H	-0.134611	-0.391055	-0.289148
H89	H	-0.184641	-0.536972	-0.351563
H90	H	-0.080212	-0.535241	-0.318561
O91	O	-0.635479	-1.110292	-0.236247
C92	C	-0.674916	-0.987094	-0.301188
C93	C	-0.631659	-1.031332	-0.234673
H94	H	-0.671858	-0.923243	-0.299928
H95	H	-0.639956	-1.013980	-0.357863
H96	H	-0.745022	-0.991303	-0.294982
H97	H	-0.561555	-1.027139	-0.240805
H98	H	-0.666686	-1.004433	-0.178024
H99	H	-0.095349	-0.861005	-0.120072
O100	O	0.113119	-1.360570	-0.558727
C101	C	0.181580	-1.497196	-0.553087
C102	C	0.102959	-1.431966	-0.524616
H103	H	0.173401	-1.554932	-0.525509
H104	H	0.187292	-1.501993	-0.617945
H105	H	0.242289	-1.482935	-0.536845
H106	H	0.042205	-1.446179	-0.540804
H107	H	0.097323	-1.427184	-0.459763
H108	H	0.006798	-0.716355	0.007017
O109	O	0.082196	-1.334933	-0.689209
C110	C	0.150673	-1.471555	-0.683570
C111	C	0.072043	-1.406333	-0.655101
H112	H	0.142500	-1.529294	-0.655993
H113	H	0.156390	-1.476352	-0.748428
H114	H	0.211377	-1.457288	-0.667324
H115	H	0.011295	-1.420552	-0.671292
H116	H	0.066403	-1.401551	-0.590247
H117	H	-0.243366	-0.891171	-0.304201
O118	O	-0.221510	-1.083216	-0.510479
C119	C	-0.326962	-1.075690	-0.398582
C120	C	-0.304603	-1.094162	-0.484595
H121	H	-0.394150	-1.084518	-0.377632
H122	H	-0.278137	-1.116218	-0.365604
H123	H	-0.325169	-1.012598	-0.388845
H124	H	-0.306406	-1.157235	-0.494404
H125	H	-0.353431	-1.053583	-0.517529
O126	O	-0.313184	-1.007086	-0.898291
C127	C	-0.336274	-0.987868	-1.030447
C128	C	-0.279960	-1.034535	-0.972888
H129	H	-0.309424	-1.010031	-1.090773
H130	H	-0.404975	-0.995488	-1.016028
H131	H	-0.336083	-0.923491	-1.027151
H132	H	-0.280080	-1.098928	-0.976153
H133	H	-0.211288	-1.026849	-0.987326
O134	O	0.034802	-0.593175	0.041962
C135	C	0.114329	-0.568277	0.140838
C136	C	0.062068	-0.533569	0.075763
H137	H	0.136404	-0.520105	0.168174
H138	H	0.072421	-0.595756	0.185824
H139	H	0.172909	-0.614683	0.116651
H140	H	0.003485	-0.487134	0.099881
H141	H	0.104037	-0.506140	0.030788
O142	O	0.008102	-0.435919	0.008901
C143	C	-0.021966	-0.324449	0.091592
C144	C	-0.059391	-0.377508	0.044983
H145	H	-0.076514	-0.277201	0.120765
H146	H	0.014292	-0.360679	0.136780
H147	H	0.024047	-0.296153	0.051687
H148	H	-0.105439	-0.405815	0.084828
H149	H	-0.095597	-0.341239	-0.000212
H150	H	-0.145114	-0.473711	-0.181929
H151	H	-0.247257	-0.618361	-0.309014
O152	O	-0.018528	-1.251160	-0.792342
C153	C	0.086882	-1.258587	-0.904260
C154	C	0.064508	-1.240085	-0.818254
H155	H	0.154009	-1.249624	-0.925239
H156	H	0.085196	-1.321695	-0.914059
H157	H	0.037969	-1.218082	-0.937168
H158	H	0.113398	-1.280539	-0.785290
H159	H	0.066166	-1.176959	-0.808513
O160	O	-0.275242	-0.741305	-0.343902
C161	C	-0.332217	-0.625722	-0.414672
C162	C	-0.279952	-0.660510	-0.349624
H163	H	-0.336058	-0.560392	-0.419308
H164	H	-0.299422	-0.654884	-0.470990
H165	H	-0.399925	-0.636133	-0.401836
H166	H	-0.212239	-0.650109	-0.362387
H167	H	-0.312816	-0.631344	-0.293326
O168	O	-0.168616	-1.126731	-0.456678
C169	C	-0.220114	-1.004183	-0.390650
C170	C	-0.141486	-1.069405	-0.419121
H171	H	-0.198210	-0.957827	-0.360264
H172	H	-0.253227	-0.976675	-0.441439
H173	H	-0.267132	-1.029796	-0.349121
H174	H	-0.094408	-1.043854	-0.460636
H175	H	-0.108441	-1.096905	-0.368294
O176	O	-0.353331	-0.973850	-0.744176
C177	C	-0.472904	-0.874739	-0.778606
C178	C	-0.394203	-0.939899	-0.807057
H179	H	-0.505960	-0.847260	-0.829432
H180	H	-0.519954	-0.900319	-0.737080
H181	H	-0.451019	-0.828358	-0.748239
H182	H	-0.416008	-0.986301	-0.837459
H183	H	-0.347170	-0.914261	-0.848545
O184	O	0.073315	-1.327248	-0.404684
C185	C	0.214638	-1.364509	-0.365162
C186	C	0.158274	-1.317847	-0.422688
H187	H	0.283343	-1.356937	-0.379707
H188	H	0.187918	-1.342308	-0.304824
H189	H	0.214387	-1.428878	-0.368398
H190	H	0.158501	-1.253469	-0.419520
H191	H	0.185013	-1.340112	-0.483001
H192	H	-0.082596	-1.198185	-0.842083
