data_functionalizedCrystal
_audit_creation_method	'MofGen! by Chris Wilmer'
_symmetry_space_group_name_H-M	'P1'
_symmetry_Int_Tables_number	1
_symmetry_cell_setting	triclinic
loop_
_symmetry_equiv_pos_as_xyz
  x,y,z
_cell_length_a	15.944551
_cell_length_b	11.792241
_cell_length_c	15.021413
_cell_angle_alpha	90.007284
_cell_angle_beta	90.002688
_cell_angle_gamma	96.153923
loop_
_atom_site_label
_atom_site_type_symbol
_atom_site_fract_x
_atom_site_fract_y
_atom_site_fract_z
O1	O	-1.115189	0.146368	-0.073929
O2	O	-0.870721	0.164415	-0.073950
O3	O	-0.998887	-0.009828	-0.073945
O4	O	-0.987022	0.320610	-0.073935
O5	O	-0.998868	-0.009809	0.074120
O6	O	-0.870701	0.164434	0.074114
O7	O	-1.115169	0.146387	0.074135
Zn8	Zn	-0.992932	0.155413	0.097633
Zn9	Zn	-0.992958	0.155388	-0.097448
O10	O	-0.987003	0.320630	0.074129
C11	C	-0.839414	0.163675	0.000079
C12	C	-0.746157	0.161429	0.000071
C13	C	-0.998132	-0.052104	0.000084
C14	C	-0.995901	-0.178099	0.000074
C15	C	-1.146476	0.147126	0.000104
C16	C	-1.239733	0.149372	0.000106
C17	C	-0.530789	0.048056	0.000085
C18	C	-0.470016	0.100693	-0.072917
C19	C	-0.575413	0.157365	0.000081
C20	C	-0.470019	0.100738	0.073062
C21	C	-0.410483	0.153432	0.000095
C22	C	-0.515869	0.210032	-0.072981
C23	C	-0.515878	0.210062	0.073064
C24	C	-0.455123	0.262778	0.000044
C25	C	-0.670426	0.159628	0.000072
C26	C	-0.315471	0.151178	0.000097
C27	C	-0.987758	0.362905	0.000099
C28	C	-0.989989	0.488900	0.000103
N29	N	-0.992921	0.155430	0.230771
C30	C	-0.994091	0.719579	0.000081
C31	C	-0.991811	0.591212	0.000093
N32	N	-0.992976	0.155363	-0.230586
C33	C	-0.934153	0.236629	0.529783
C34	C	-0.916695	0.134384	0.470419
C35	C	-0.992957	0.155383	0.587807
C36	C	-1.010357	0.257648	0.470429
C37	C	-0.992937	0.155411	0.412383
C38	C	-0.975461	0.053086	0.529750
C39	C	-1.069157	0.176417	0.529766
C40	C	-1.051731	0.074098	0.470429
C41	C	-0.992967	0.155368	0.688865
C42	C	-0.992928	0.155414	0.311328
H43	H	-0.449706	0.054452	-0.134638
H44	H	-0.536073	0.256223	-0.134766
H45	H	-0.960660	-0.033404	0.555698
O46	O	-0.411748	0.383070	0.000012
H47	H	-0.430117	0.428153	-0.060640
H48	H	-0.536210	0.256265	0.134788
O49	O	-0.443129	0.039498	0.154820
H50	H	-0.473731	-0.049596	0.154658
O51	O	-1.029871	0.372193	0.435929
H52	H	-1.092667	0.390205	0.460728
O53	O	-0.831331	0.110811	0.435882
H54	H	-0.804462	0.183518	0.394206
O55	O	-1.117594	-0.016983	0.436113
H56	H	-1.102939	-0.101721	0.459999
H57	H	-0.884399	0.305246	0.555844
O58	O	-1.154498	0.200015	0.564338
H59	H	-1.168807	0.284984	0.540625
H60	H	-0.563713	-0.042662	-0.000008
