data_functionalizedCrystal
_audit_creation_method	'MofGen! by Chris Wilmer'
_symmetry_space_group_name_H-M	'P1'
_symmetry_Int_Tables_number	1
_symmetry_cell_setting	triclinic
loop_
_symmetry_equiv_pos_as_xyz
  x,y,z
_cell_length_a	8.597340
_cell_length_b	14.853567
_cell_length_c	7.088929
_cell_angle_alpha	96.228706
_cell_angle_beta	76.045281
_cell_angle_gamma	84.488815
loop_
_atom_site_label
_atom_site_type_symbol
_atom_site_fract_x
_atom_site_fract_y
_atom_site_fract_z
O1	O	2.101643	0.123813	-0.187234
O2	O	1.636993	0.138530	-0.110690
O3	O	1.881729	-0.000076	-0.151001
O4	O	1.856907	0.262420	-0.146923
O5	O	1.914435	-0.018642	-0.474363
O6	O	1.669700	0.119965	-0.434052
O7	O	2.134350	0.105248	-0.510596
Cu8	Cu	1.905011	0.110911	-0.501850
Cu9	Cu	1.866332	0.132867	-0.119436
O10	O	1.889614	0.243854	-0.470286
C11	C	1.593882	0.128701	-0.262575
C12	C	1.416697	0.127063	-0.233386
C13	C	1.896957	-0.042946	-0.312491
C14	C	1.893585	-0.143023	-0.311919
C15	C	1.733962	-0.555320	-0.285660
C16	C	2.024715	-0.577037	-0.333557
C17	C	2.027883	-0.483007	-0.334067
C18	C	1.884088	-0.425130	-0.310377
C19	C	1.737126	-0.461282	-0.286176
C20	C	2.174844	-0.446849	-0.358288
C21	C	2.178018	-0.352814	-0.358801
C22	C	2.034221	-0.294934	-0.335097
C23	C	1.887253	-0.331091	-0.310892
C24	C	1.743458	-0.273214	-0.287202
C25	C	1.596487	-0.309369	-0.262983
C26	C	1.593329	-0.403402	-0.262471
C27	C	2.037379	-0.200901	-0.335609
C28	C	1.746623	-0.179176	-0.287718
C29	C	2.177460	0.115077	-0.358707
C30	C	2.354644	0.116716	-0.387883
C31	C	1.874385	0.286724	-0.308791
C32	C	1.877756	0.386802	-0.309350
N33	N	1.932227	0.095468	-0.770821
N34	N	1.839128	0.148302	0.149532
H35	H	1.334261	0.134668	-0.078766
H36	H	1.742641	0.203054	-0.752929
F37	F	1.593572	-0.117584	-0.262488
F38	F	1.436925	-0.441887	-0.236692
F39	F	1.462381	0.106766	-0.589975
F40	F	1.443458	-0.247762	-0.237786
H41	H	1.614301	-0.584762	-0.265934
H42	H	2.141787	-0.624166	-0.352860
H43	H	2.157042	-0.171468	-0.355340
F44	F	2.327872	-0.508451	-0.383535
F45	F	2.334433	-0.314342	-0.384553
F46	F	2.058367	0.023908	-0.898322
