data_functionalizedCrystal
_audit_creation_method	'MofGen! by Chris Wilmer'
_symmetry_space_group_name_H-M	'P1'
_symmetry_Int_Tables_number	1
_symmetry_cell_setting	triclinic
loop_
_symmetry_equiv_pos_as_xyz
  x,y,z
_cell_length_a	29.839131
_cell_length_b	12.594517
_cell_length_c	12.594509
_cell_angle_alpha	90.027191
_cell_angle_beta	89.965034
_cell_angle_gamma	89.963526
loop_
_atom_site_label
_atom_site_type_symbol
_atom_site_fract_x
_atom_site_fract_y
_atom_site_fract_z
Zn1	Zn	-0.178899	-1.627079	-0.601977
Zn2	Zn	0.321101	-1.127079	-0.101977
Zn3	Zn	-0.254034	-1.626891	-0.423977
Zn4	Zn	0.245966	-1.126891	0.076023
Zn5	Zn	-0.178912	-1.449083	-0.423987
Zn6	Zn	0.321088	-0.949083	0.076013
Zn7	Zn	-0.253996	-1.448987	-0.601889
Zn8	Zn	0.246004	-0.948987	-0.101889
O9	O	-0.216460	-1.538010	-0.512957
O10	O	0.283540	-1.038010	-0.012957
O11	O	-0.188876	-1.776000	-0.578397
O12	O	0.311124	-1.276000	-0.078397
O13	O	-0.244090	-1.603266	-0.275033
O14	O	0.255910	-1.103266	0.224967
O15	O	-0.116043	-1.472814	-0.447639
O16	O	0.383957	-0.972814	0.052361
O17	O	-0.244077	-1.775862	-0.447622
O18	O	0.255923	-1.275862	0.052378
O19	O	-0.116034	-1.603587	-0.578407
O20	O	0.383966	-1.103587	-0.078407
O21	O	-0.188898	-1.472632	-0.275040
O22	O	0.311102	-0.972632	0.224960
O23	O	-0.188862	-1.300125	-0.447554
O24	O	0.311138	-0.800125	0.052446
O25	O	-0.244013	-1.472649	-0.750846
O26	O	0.255987	-0.972649	-0.250846
O27	O	-0.244026	-1.300054	-0.578257
O28	O	0.255974	-0.800054	-0.078257
O29	O	-0.188840	-1.603493	-0.750911
O30	O	0.311160	-1.103493	-0.250911
O31	O	-0.316896	-1.603173	-0.447537
O32	O	0.183104	-1.103173	0.052463
O33	O	-0.316868	-1.472467	-0.578248
O34	O	0.183132	-0.972467	-0.078248
C35	C	-0.216442	-1.261469	-0.512898
C36	C	0.283558	-0.761469	-0.012898
C37	C	-0.216444	-1.143164	-0.512898
C38	C	0.283556	-0.643164	-0.012898
C39	C	-0.333183	-1.537818	-0.512905
C40	C	0.166817	-1.037818	-0.012905
C41	C	-0.383117	-1.537833	-0.512918
C42	C	0.116883	-1.037833	-0.012918
C43	C	-0.186403	-1.003155	-0.441958
C44	C	0.313597	-0.503155	0.058042
C45	C	-0.175460	-1.074025	-0.539093
C46	C	0.324540	-0.574025	-0.039093
C47	C	-0.227368	-1.073865	-0.415773
C48	C	0.272632	-0.573865	0.084227
C49	C	-0.205490	-1.003248	-0.610144
C50	C	0.294510	-0.503248	-0.110144
C51	C	-0.257418	-1.003082	-0.486758
C52	C	0.242582	-0.503082	0.013242
C53	C	-0.246490	-1.073921	-0.583960
C54	C	0.253510	-0.573921	-0.083960
C55	C	-0.692762	-1.606192	-0.444996
C56	C	-0.192762	-1.106192	0.055004
C57	C	-0.880435	-1.606324	-0.445037
C58	C	-0.380435	-1.106324	0.054963
O59	O	-0.904702	-1.664293	-0.387247
O60	O	-0.404702	-1.164293	0.112753
N61	N	-0.903902	-1.538231	-0.513038
N62	N	-0.403902	-1.038231	-0.013038
C63	C	-0.880448	-1.470105	-0.581038
C64	C	-0.380448	-0.970105	-0.081038
O65	O	-0.904714	-1.412199	-0.638885
O66	O	-0.404714	-0.912199	-0.138885
C67	C	-0.692776	-1.469980	-0.581001
C68	C	-0.192776	-0.969980	-0.081001
C69	C	-0.669311	-1.538070	-0.512988
C70	C	-0.169311	-1.038070	-0.012988
C71	C	-0.669298	-1.674278	-0.376989
C72	C	-0.169298	-1.174278	0.123011
C73	C	-0.622382	-1.674240	-0.376976
C74	C	-0.122382	-1.174240	0.123024
C75	C	-0.598931	-1.606117	-0.444968
C76	C	-0.098931	-1.106117	0.055032
C77	C	-0.622396	-1.538032	-0.512975
C78	C	-0.122396	-1.038032	-0.012975
C79	C	-0.669323	-1.401860	-0.649006
C80	C	-0.169323	-0.901860	-0.149006
C81	C	-0.622402	-1.401837	-0.648993
C82	C	-0.122402	-0.901837	-0.148993
C83	C	-0.598937	-1.469927	-0.580980
C84	C	-0.098937	-0.969927	-0.080980
C85	C	-0.552030	-1.469872	-0.580954
C86	C	-0.052030	-0.969872	-0.080954
N87	N	-0.528563	-1.537965	-0.512953
N88	N	-0.028563	-1.037965	-0.012953
C89	C	-0.552014	-1.606087	-0.444960
C90	C	-0.052014	-1.106087	0.055040
C91	C	-0.978979	-1.470174	-0.581051
C92	C	-0.478979	-0.970174	-0.081051
C93	C	-1.025897	-1.470204	-0.581059
C94	C	-0.525897	-0.970204	-0.081059
C95	C	-1.025881	-1.606424	-0.445059
C96	C	-0.525881	-1.106424	0.054941
C97	C	-0.978962	-1.606388	-0.445047
C98	C	-0.478962	-1.106388	0.054953
C99	C	-0.955512	-1.538267	-0.513050
C100	C	-0.455512	-1.038267	-0.013050
C101	C	-0.453488	-1.606003	-0.444936
C102	C	0.046512	-1.106003	0.055064
C103	C	-0.406568	-1.605956	-0.444925
C104	C	0.093432	-1.105956	0.055075
C105	C	-0.406588	-1.469740	-0.580928
C106	C	0.093412	-0.969740	-0.080928
C107	C	-0.453504	-1.469782	-0.580936
C108	C	0.046496	-0.969782	-0.080936
C109	C	-0.476952	-1.537922	-0.512936
C110	C	0.023048	-1.037922	-0.012936
O111	O	-0.527734	-1.411941	-0.638722
O112	O	-0.027734	-0.911941	-0.138722
O113	O	-0.527739	-1.664002	-0.387138
O114	O	-0.027739	-1.164002	0.112862
C115	C	-0.739678	-1.606230	-0.445009
C116	C	-0.239678	-1.106230	0.054991
C117	C	-0.763142	-1.538145	-0.513016
C118	C	-0.263142	-1.038145	-0.013016
C119	C	-0.739691	-1.470022	-0.581009
C120	C	-0.239691	-0.970022	-0.081009
C121	C	-0.810060	-1.538175	-0.513024
C122	C	-0.310060	-1.038175	-0.013024
C123	C	-0.833511	-1.606297	-0.445031
C124	C	-0.333511	-1.106297	0.054969
C125	C	-0.810044	-1.674390	-0.377031
C126	C	-0.310044	-1.174390	0.122969
C127	C	-0.763129	-1.674353	-0.377017
C128	C	-0.263129	-1.174353	0.122983
C129	C	-0.763158	-1.401929	-0.649009
C130	C	-0.263158	-0.901929	-0.149009
C131	C	-0.810074	-1.401972	-0.649017
C132	C	-0.310074	-0.901972	-0.149017
C133	C	-0.833525	-1.470094	-0.581024
C134	C	-0.333525	-0.970094	-0.081024
C135	C	-0.099282	-1.538232	-0.513034
C136	C	0.400718	-1.038232	-0.013034
C137	C	-0.049347	-1.538327	-0.513066
C138	C	0.450653	-1.038327	-0.013066
C139	C	-0.216421	-1.538081	-0.790579
C140	C	0.283579	-1.038081	-0.290579
C141	C	-0.216404	-1.538112	-0.908884
C142	C	0.283596	-1.038112	-0.408884
C143	C	-0.216471	-0.815631	-0.512996
C144	C	0.283529	-0.315631	-0.012996
C145	C	-0.216455	-0.933936	-0.512957
C146	C	0.283545	-0.433936	-0.012957
C147	C	-0.246396	-1.466968	-0.978102
C148	C	0.253604	-0.966968	-0.478102
C149	C	-0.257376	-1.564077	-1.048900
C150	C	0.242624	-1.064077	-0.548900
C151	C	-0.205397	-1.441079	-1.048886
C152	C	0.294603	-0.941079	-0.548886
C153	C	-0.227406	-1.635272	-0.978123
C154	C	0.272594	-1.135272	-0.478123
C155	C	-0.175407	-1.512208	-0.978103
C156	C	0.324593	-1.012208	-0.478103
C157	C	-0.186372	-1.609384	-1.048869
C158	C	0.313628	-1.109384	-0.548869
C159	C	-0.216467	-1.538000	-0.236417
C160	C	0.283533	-1.038000	0.263583
C161	C	-0.216357	-1.538176	-0.118112
C162	C	0.283643	-1.038176	0.381888
H163	H	-0.160975	-0.972085	-0.382016
H164	H	0.339025	-0.472085	0.117984
Br165	Br	-0.242760	-1.125577	-0.278833
Br166	Br	0.257240	-0.625577	0.221167
H167	H	-0.387465	-1.661403	-0.389537
H168	H	0.112535	-1.161403	0.110463
H169	H	-0.140812	-1.105166	-0.561247
H170	H	0.359188	-0.605166	-0.061247
H171	H	-0.196215	-0.972357	-0.692330
H172	H	0.303785	-0.472357	-0.192330
H173	H	-1.044997	-1.414748	-0.636432
H174	H	-0.544997	-0.914748	-0.136432
Br175	Br	-0.288843	-1.125383	-0.684099
Br176	Br	0.211157	-0.625383	-0.184099
Br177	Br	-0.315147	-0.951101	-0.449807
Br178	Br	0.184853	-0.451101	0.050193
Br179	Br	-0.485304	-1.698479	-0.352650
Br180	Br	0.014696	-1.198479	0.147350
H181	H	-0.603280	-1.729687	-0.321597
H182	H	-0.103280	-1.229687	0.178403
H183	H	-0.688386	-1.729757	-0.321621
H184	H	-0.188386	-1.229757	0.178379
H185	H	-0.603311	-1.346366	-0.704373
H186	H	-0.103311	-0.846366	-0.204373
Br187	Br	-0.144065	-1.709816	-1.100338
Br188	Br	0.355935	-1.209816	-0.600338
H189	H	-0.744068	-1.346457	-0.704379
H190	H	-0.244068	-0.846457	-0.204379
Br191	Br	-0.947160	-1.377714	-0.673351
Br192	Br	-0.447160	-0.877714	-0.173351
Br193	Br	-0.701155	-1.309458	-0.741327
Br194	Br	-0.201155	-0.809458	-0.241327
Br195	Br	-0.242961	-1.772128	-0.926541
Br196	Br	0.257039	-1.272128	-0.426541
Br197	Br	-0.117670	-1.475585	-0.926229
Br198	Br	0.382330	-0.975585	-0.426229
H199	H	-0.472610	-1.414341	-0.636320
H200	H	0.027390	-0.914341	-0.136320
H201	H	-0.196106	-1.358992	-1.079970
H202	H	0.303894	-0.858992	-0.579970
Br203	Br	-0.947122	-1.698798	-0.352740
Br204	Br	-0.447122	-1.198798	0.147260
H205	H	-0.387487	-1.414272	-0.636284
H206	H	0.112513	-0.914272	-0.136284
Br207	Br	-1.057716	-1.698873	-0.352780
Br208	Br	-0.557716	-1.198873	0.147220
Br209	Br	-0.841880	-1.766837	-0.284751
Br210	Br	-0.341880	-1.266837	0.215249
Br211	Br	-0.731291	-1.766768	-0.284711
Br212	Br	-0.231291	-1.266768	0.215289
Br213	Br	-0.288732	-1.366767	-0.926310
Br214	Br	0.211268	-0.866767	-0.426310
Br215	Br	-0.841913	-1.309552	-0.741326
Br216	Br	-0.341913	-0.809552	-0.241326
H217	H	-0.292026	-1.586022	-1.079997
H218	H	0.207974	-1.086022	-0.579997
