data_functionalizedCrystal
_audit_creation_method	'MofGen! by Chris Wilmer'
_symmetry_space_group_name_H-M	'P1'
_symmetry_Int_Tables_number	1
_symmetry_cell_setting	triclinic
loop_
_symmetry_equiv_pos_as_xyz
  x,y,z
_cell_length_a	10.908937
_cell_length_b	17.019294
_cell_length_c	10.065875
_cell_angle_alpha	94.957055
_cell_angle_beta	83.441416
_cell_angle_gamma	71.768120
loop_
_atom_site_label
_atom_site_type_symbol
_atom_site_fract_x
_atom_site_fract_y
_atom_site_fract_z
O1	O	1.720273	-0.133973	-0.097790
O2	O	1.347482	-0.073243	-0.104920
O3	O	1.542078	-0.218141	-0.087888
O4	O	1.525677	0.010925	-0.114822
O5	O	1.504972	-0.190419	0.135842
O6	O	1.310376	-0.045522	0.118810
O7	O	1.683168	-0.106251	0.125940
Zn8	Zn	1.490881	-0.071485	0.157897
Zn9	Zn	1.539769	-0.108009	-0.136877
O10	O	1.488572	0.038646	0.108909
C11	C	1.281188	-0.053707	0.006279
C12	C	1.138934	-0.036805	0.004295
C13	C	1.522171	-0.233145	0.027368
C14	C	1.518123	-0.319152	0.037472
C15	C	0.941816	-0.081018	0.009469
C16	C	1.088840	-0.098486	0.011540
C17	C	1.536450	-0.374665	-0.079735
C18	C	1.532637	-0.455476	-0.070237
C19	C	1.510506	-0.480773	0.056470
C20	C	1.492174	-0.425253	0.173686
C21	C	1.495978	-0.344442	0.164186
C22	C	1.498000	-0.724012	0.091253
C23	C	1.494202	-0.804831	0.100744
C24	C	1.534662	-0.835048	-0.143181
C25	C	1.538472	-0.754236	-0.152669
C26	C	1.520133	-0.698721	-0.035453
C27	C	1.506612	-0.563375	0.066181
C28	C	1.524018	-0.616119	-0.045166
C29	C	1.749462	-0.125788	0.014738
C30	C	1.891718	-0.142691	0.016713
C31	C	1.508479	0.053650	-0.006351
C32	C	1.512529	0.139656	-0.016464
N33	N	1.457526	-0.046560	0.359073
N34	N	1.573134	-0.132942	-0.338052
C35	C	1.528155	-0.099341	0.433056
C36	C	1.502494	-0.080153	0.587968
H37	H	0.875863	-0.015288	0.001727
H38	H	1.072985	0.028931	-0.003443
C39	C	1.684667	-0.216810	0.452631
C40	C	1.680135	-0.213260	0.592672
H41	H	1.750644	-0.266431	0.409870
H42	H	1.602610	-0.216672	0.429461
H43	H	1.703841	-0.169738	0.423586
H44	H	1.660952	-0.260329	0.621718
H45	H	1.762210	-0.213406	0.615852
H46	H	0.957674	-0.208424	0.024439
H47	H	1.488597	-0.583983	0.169347
C48	C	1.289836	0.078752	0.330346
C49	C	1.350240	0.033619	0.428372
H50	H	1.223596	0.128249	0.373129
H51	H	1.352850	0.092949	0.272936
H52	H	1.252080	0.045669	0.278505
H53	H	1.388005	0.066699	0.480207
H54	H	1.287216	0.019424	0.485805
H55	H	1.554478	-0.354077	-0.182914
H56	H	1.547566	-0.500673	-0.165680
H57	H	1.556495	-0.733646	-0.255847
H58	H	1.607617	-0.158736	0.381713
C59	C	1.306276	-0.187357	0.022017
C60	C	1.177860	-0.187230	0.021985
H61	H	1.361229	-0.242142	0.028473
H62	H	1.335296	-0.169685	-0.059211
H63	H	1.309392	-0.150340	0.096827
H64	H	1.174742	-0.224243	-0.052832
H65	H	1.148832	-0.204913	0.103222
H66	H	1.549590	-0.880255	-0.238611
H67	H	1.483093	-0.678826	0.186699
C68	C	1.454561	-0.766843	0.340910
C69	C	1.469862	-0.832636	0.240030
H70	H	1.439530	-0.784011	0.426893
H71	H	1.531438	-0.751558	0.333979
H72	H	1.382321	-0.720345	0.330285
H73	H	1.542109	-0.879133	0.250650
H74	H	1.392977	-0.847933	0.246966
H75	H	1.423018	-0.020759	0.639307
H76	H	1.474147	-0.445855	0.276853
C77	C	1.455588	-0.322683	0.406246
C78	C	1.475819	-0.283416	0.293024
H79	H	1.443140	-0.285006	0.485786
H80	H	1.380399	-0.339230	0.403032
H81	H	1.529518	-0.370437	0.406716
H82	H	1.401884	-0.235665	0.292548
H83	H	1.551016	-0.266857	0.296240
H84	H	1.542028	-0.595516	-0.148330
