data_functionalizedCrystal
_audit_creation_method	'MofGen! by Chris Wilmer'
_symmetry_space_group_name_H-M	'P1'
_symmetry_Int_Tables_number	1
_symmetry_cell_setting	triclinic
loop_
_symmetry_equiv_pos_as_xyz
  x,y,z
_cell_length_a	19.288864
_cell_length_b	17.699092
_cell_length_c	17.766277
_cell_angle_alpha	89.995315
_cell_angle_beta	89.976791
_cell_angle_gamma	83.211307
loop_
_atom_site_label
_atom_site_type_symbol
_atom_site_fract_x
_atom_site_fract_y
_atom_site_fract_z
O1	O	0.921467	0.094417	-0.062833
O2	O	1.421467	0.594417	0.437167
O3	O	0.719222	0.107154	-0.062781
O4	O	1.219222	0.607154	0.437219
O5	O	0.826056	-0.009412	-0.062807
O6	O	1.326056	0.490588	0.437193
O7	O	0.814634	0.210982	-0.062807
O8	O	1.314634	0.710982	0.437193
O9	O	0.826037	-0.009417	0.062382
O10	O	1.326037	0.490583	0.562382
O11	O	0.719203	0.107148	0.062408
O12	O	1.219203	0.607148	0.562408
O13	O	0.921449	0.094411	0.062356
O14	O	1.421449	0.594411	0.562356
Cu15	Cu	0.820324	0.100779	0.073812
Cu16	Cu	1.320324	0.600779	0.573812
Cu17	Cu	0.820346	0.100786	-0.074238
Cu18	Cu	1.320346	0.600786	0.425762
O19	O	0.814615	0.210976	0.062381
O20	O	1.314615	0.710976	0.562381
C21	C	0.693336	0.106741	-0.000180
C22	C	1.193336	0.606741	0.499820
C23	C	0.616231	0.105511	-0.000160
C24	C	1.116231	0.605511	0.499840
C25	C	0.571617	0.173906	-0.000172
C26	C	1.071617	0.673906	0.499828
C27	C	0.499169	0.172750	-0.000181
C28	C	0.999169	0.672750	0.499819
C29	C	0.471337	0.103195	-0.000192
C30	C	0.971337	0.603195	0.499808
C31	C	0.515960	0.034791	-0.000176
C32	C	1.015960	0.534791	0.499824
C33	C	0.588407	0.035949	-0.000160
C34	C	1.088407	0.535949	0.499840
C35	C	0.363015	0.048519	-0.044076
C36	C	0.863015	0.548519	0.455924
C37	C	0.290570	0.047365	-0.044097
C38	C	0.790570	0.547365	0.455903
C39	C	0.247887	0.099621	-0.000238
C40	C	0.747887	0.599621	0.499762
C41	C	0.277658	0.153046	0.043632
C42	C	0.777658	0.653046	0.543632
C43	C	0.350105	0.154204	0.043648
C44	C	0.850105	0.654204	0.543648
C45	C	0.392782	0.101932	-0.000209
C46	C	0.892782	0.601932	0.499791
C47	C	0.124716	0.166768	-0.000258
C48	C	0.624716	0.666768	0.499742
C49	C	0.052267	0.165609	-0.000261
C50	C	0.552267	0.665609	0.499739
C51	C	0.069060	0.027649	-0.000264
C52	C	0.569060	0.527649	0.499736
C53	C	0.141508	0.028809	-0.000253
C54	C	0.641508	0.528809	0.499747
C55	C	0.169331	0.098371	-0.000253
C56	C	0.669331	0.598371	0.499747
C57	C	0.825636	-0.037611	-0.000213
C58	C	1.325636	0.462389	0.499787
C59	C	0.824405	-0.121627	-0.000217
C60	C	1.324405	0.378373	0.499783
C61	C	0.823839	-0.161090	-0.068458
C62	C	1.323839	0.338910	0.431542
C63	C	0.822678	-0.240032	-0.068458
C64	C	1.322678	0.259968	0.431542
C65	C	0.822089	-0.279509	-0.000217
C66	C	1.322089	0.220491	0.499783
C67	C	0.822653	-0.240040	0.068029
C68	C	1.322653	0.259960	0.568029
C69	C	0.823809	-0.161099	0.068029
C70	C	1.323809	0.338901	0.568029
C71	C	0.817991	-0.558398	0.068032
C72	C	1.317991	-0.058398	0.568032
C73	C	0.816837	-0.637344	0.068026
C74	C	1.316837	-0.137344	0.568026
C75	C	0.816860	-0.637331	-0.068456
C76	C	1.316860	-0.137331	0.431544
C77	C	0.818016	-0.558390	-0.068456
C78	C	1.318016	-0.058390	0.431544
C79	C	0.818576	-0.518927	-0.000210
C80	C	1.318576	-0.018927	0.499790
C81	C	0.819834	-0.433330	-0.000210
C82	C	1.319834	0.066670	0.499790
C83	C	0.820836	-0.365105	-0.000216
C84	C	1.320836	0.134895	0.499784
C85	C	0.947335	0.094824	-0.000247
C86	C	1.447335	0.594824	0.499753
C87	C	1.024440	0.096054	-0.000271
C88	C	1.524440	0.596054	0.499729
C89	C	0.815035	0.239175	-0.000214
C90	C	1.315035	0.739175	0.499786
C91	C	0.816265	0.323191	-0.000215
C92	C	1.316265	0.823191	0.499785
N93	N	0.820314	0.100773	0.177943
N94	N	1.320314	0.600773	0.677943
N95	N	0.820363	0.100785	-0.178368
N96	N	1.320363	0.600785	0.321632
C97	C	0.867635	0.049184	0.217318
C98	C	1.367635	0.549184	0.717318
C99	C	0.867639	0.049180	0.296120
C100	C	1.367639	0.549180	0.796120
C101	C	0.820328	0.100779	0.335543
C102	C	1.320328	0.600779	0.835543
C103	C	0.772998	0.152373	0.296158
C104	C	1.272998	0.652373	0.796158
C105	C	0.772991	0.152370	0.217358
C106	C	1.272991	0.652370	0.717358
C107	C	0.811113	0.169741	0.460382
C108	C	1.311113	0.669741	0.960382
C109	C	0.811125	0.169745	0.539181
C110	C	1.311125	0.669745	1.039181
C111	C	0.820347	0.100789	0.578590
C112	C	1.320347	0.600789	1.078590
C113	C	0.829571	0.031825	0.539189
C114	C	1.329571	0.531825	1.039189
C115	C	0.829564	0.031822	0.460389
C116	C	1.329564	0.531822	0.960389
C117	C	0.820331	0.100788	0.420989
C118	C	1.320331	0.600788	0.920989
C119	C	0.867675	0.049191	0.703411
C120	C	1.367675	0.549191	1.203411
C121	C	0.867674	0.049186	0.782214
C122	C	1.367674	0.549186	1.282214
C123	C	0.773037	0.152386	0.782251
C124	C	1.273037	0.652386	1.282251
C125	C	0.773035	0.152384	0.703449
C126	C	1.273035	0.652384	1.203449
C127	C	0.820357	0.100787	0.664034
C128	C	1.320357	0.600787	1.164034
H129	H	0.177833	-0.026886	-0.000247
H130	H	0.677833	0.473114	0.499753
Br131	Br	0.821842	-0.293613	0.160644
Br132	Br	1.321842	0.206387	0.660644
Br133	Br	0.818737	-0.504849	0.160651
Br134	Br	1.318737	-0.004849	0.660651
Br135	Br	0.818821	-0.504818	-0.161072
Br136	Br	1.318821	-0.004818	0.338928
Br137	Br	0.931896	-0.020835	0.649917
Br138	Br	1.431896	0.479165	1.149917
Br139	Br	0.931854	-0.020841	0.163825
Br140	Br	1.431854	0.479159	0.663825
Br141	Br	0.478191	-0.059606	-0.000184
Br142	Br	0.978191	0.440394	0.499816
H143	H	0.816355	-0.669484	0.123600
H144	H	1.316355	-0.169484	0.623600
Br145	Br	0.931865	-0.020842	0.349568
Br146	Br	1.431865	0.479158	0.849568
H147	H	0.015942	0.221307	-0.000267
H148	H	0.515942	0.721307	0.499733
H149	H	0.824260	-0.128967	0.123598
H150	H	1.324260	0.371033	0.623598
H151	H	0.624732	-0.019749	-0.000151
H152	H	1.124732	0.480251	0.499849
Br153	Br	0.842075	-0.061766	0.406919
Br154	Br	1.342075	0.438234	0.906919
H155	H	0.816400	-0.669470	-0.124025
H156	H	1.316400	-0.169470	0.375975
Br157	Br	0.031296	-0.066749	-0.000267
Br158	Br	0.531296	0.433251	0.499733
Br159	Br	0.250172	-0.025130	-0.103644
Br160	Br	0.750172	0.474870	0.396356
Br161	Br	0.842096	-0.061765	0.592661
Br162	Br	1.342096	0.438235	1.092661
H163	H	0.734504	0.194396	0.671387
H164	H	1.234504	0.694396	1.171387
H165	H	0.734456	0.194382	0.185298
H166	H	1.234456	0.694382	0.685298
Br167	Br	0.798615	0.263336	0.592645
Br168	Br	1.298615	0.763336	1.092645
H169	H	0.906207	0.007171	0.814274
H170	H	1.406207	0.507171	1.314274
H171	H	0.803592	0.225897	0.428303
H172	H	1.303592	0.725897	0.928303
Br173	Br	0.609375	0.268310	-0.000172
Br174	Br	1.109375	0.768310	0.499828
Br175	Br	0.162481	0.261171	-0.000253
Br176	Br	0.662481	0.761171	0.499747
H177	H	0.734513	0.194396	0.814349
H178	H	1.234513	0.694396	1.314349
Br179	Br	0.708785	0.222397	0.349658
Br180	Br	1.208785	0.722397	0.849658
Br181	Br	0.420935	-0.022409	-0.103603
Br182	Br	0.920935	0.477591	0.396397
H183	H	0.242907	0.195598	0.079347
H184	H	0.742907	0.695598	0.579347
H185	H	0.822220	-0.272160	-0.124027
H186	H	1.322220	0.227840	0.375973
Br187	Br	0.438610	0.265578	-0.000192
Br188	Br	0.938610	0.765578	0.499808
H189	H	0.374341	0.197702	0.079371
H190	H	0.874341	0.697702	0.579371
H191	H	0.824323	-0.128954	-0.124028
H192	H	1.324323	0.371046	0.375972
