data_functionalizedCrystal
_audit_creation_method	'MofGen! by Chris Wilmer'
_symmetry_space_group_name_H-M	'P1'
_symmetry_Int_Tables_number	1
_symmetry_cell_setting	triclinic
loop_
_symmetry_equiv_pos_as_xyz
  x,y,z
_cell_length_a	10.654541
_cell_length_b	14.853567
_cell_length_c	9.730217
_cell_angle_alpha	90.000542
_cell_angle_beta	89.999932
_cell_angle_gamma	84.059429
loop_
_atom_site_label
_atom_site_type_symbol
_atom_site_fract_x
_atom_site_fract_y
_atom_site_fract_z
O1	O	1.666523	0.126614	-0.114235
O2	O	1.300919	0.138681	-0.114246
O3	O	1.493487	0.001470	-0.114244
O4	O	1.473955	0.263825	-0.114237
O5	O	1.493481	0.001469	0.114336
O6	O	1.300913	0.138679	0.114334
O7	O	1.666517	0.126613	0.114345
Zn8	Zn	1.483714	0.132646	0.150632
Zn9	Zn	1.483722	0.132648	-0.150533
O10	O	1.473949	0.263824	0.114343
C11	C	1.254127	0.137794	0.000043
C12	C	1.114711	0.135145	0.000038
C13	C	1.492599	-0.032124	0.000042
C14	C	1.489947	-0.132222	0.000030
C15	C	1.085036	0.299218	0.000026
C16	C	1.004702	0.380006	0.000014
C17	C	0.873710	0.377511	0.000012
C18	C	0.823050	0.294219	0.000027
C19	C	0.903383	0.213431	0.000039
C20	C	1.034377	0.215935	0.000036
C21	C	0.933059	0.049360	0.000061
C22	C	1.064051	0.051853	0.000052
C23	C	0.882399	-0.033931	0.000075
C24	C	0.962733	-0.114721	0.000077
C25	C	1.093732	-0.112223	0.000077
C26	C	1.144385	-0.028935	0.000064
C27	C	1.364347	-0.545428	0.000052
C28	C	1.593122	-0.565485	0.000059
C29	C	1.595615	-0.471438	0.000051
C30	C	1.482473	-0.414381	0.000045
C31	C	1.366837	-0.451372	0.000048
C32	C	1.711250	-0.434441	0.000062
C33	C	1.713748	-0.340388	0.000055
C34	C	1.600604	-0.283330	0.000040
C35	C	1.484963	-0.320325	0.000042
C36	C	1.371821	-0.263268	0.000036
C37	C	1.256178	-0.300262	0.000028
C38	C	1.253693	-0.394313	0.000033
C39	C	1.603089	-0.189279	0.000035
C40	C	1.374311	-0.169212	0.000032
C41	C	1.713309	0.127499	0.000053
C42	C	1.852725	0.130148	0.000049
C43	C	1.474837	0.297418	0.000054
C44	C	1.477489	0.397516	0.000057
N45	N	1.483718	0.132644	0.356168
N46	N	1.483728	0.132642	-0.356069
C47	C	1.654306	0.011180	0.356160
C48	C	1.739609	-0.049550	0.428096
C49	C	1.739622	-0.049550	0.571976
C50	C	1.654320	0.011184	0.643923
C51	C	1.569018	0.071913	0.571987
C52	C	1.569017	0.071909	0.428104
C53	C	1.398425	0.193372	0.571995
C54	C	1.398416	0.193378	0.428115
C55	C	1.313124	0.254105	0.643942
C56	C	1.227825	0.314841	0.572006
C57	C	1.227817	0.314840	0.428118
C58	C	1.313114	0.254108	0.356179
H59	H	1.191695	0.301257	-0.000004
F60	F	0.742984	-0.036585	0.000081
H61	H	0.921474	-0.182531	0.000088
H62	H	1.313133	0.254099	0.761097
F63	F	1.137017	0.379473	0.351570
H64	H	1.697243	-0.159163	0.000051
H65	H	1.803364	-0.480903	0.000079
H66	H	1.654315	0.011182	0.239006
F67	F	0.683635	0.291568	0.000046
H68	H	1.159134	-0.178011	0.000092
F69	F	1.313118	0.254104	0.203049
H70	H	1.158373	0.364282	0.630595
F71	F	1.241278	-0.584799	0.000031
H72	H	1.045964	0.447820	0.000006
F73	F	1.283797	-0.026269	0.000056
F74	F	1.253886	-0.108495	0.000017
F75	F	1.130629	-0.433691	0.000020
H76	H	0.808301	0.443295	0.000013
H77	H	1.807910	-0.310277	0.000061
F78	F	1.713529	-0.626211	0.000084
F79	F	1.830404	-0.114190	0.648536
H80	H	1.654326	0.011172	0.761077
F81	F	1.830386	-0.114187	0.351519
H82	H	1.164058	-0.253794	0.000033
