data_functionalizedCrystal
_audit_creation_method	'MofGen! by Chris Wilmer'
_symmetry_space_group_name_H-M	'P1'
_symmetry_Int_Tables_number	1
_symmetry_cell_setting	triclinic
loop_
_symmetry_equiv_pos_as_xyz
  x,y,z
_cell_length_a	10.489741
_cell_length_b	19.188930
_cell_length_c	8.965430
_cell_angle_alpha	89.995304
_cell_angle_beta	89.998843
_cell_angle_gamma	83.841978
loop_
_atom_site_label
_atom_site_type_symbol
_atom_site_fract_x
_atom_site_fract_y
_atom_site_fract_z
O1	O	1.691851	0.098497	-0.123966
O2	O	1.320449	0.107743	-0.123991
O3	O	1.516868	0.001536	-0.123949
O4	O	1.495432	0.204704	-0.124008
O5	O	1.516851	0.001543	0.124130
O6	O	1.320432	0.107750	0.124088
O7	O	1.691834	0.098504	0.124113
Cu8	Cu	1.506132	0.103128	0.146752
Cu9	Cu	1.506151	0.103120	-0.146630
O10	O	1.495415	0.204711	0.124070
C11	C	1.272924	0.107048	0.000046
C12	C	1.131341	0.104959	0.000037
C13	C	1.064712	0.037383	0.000071
C14	C	0.971880	0.069302	-0.122251
C15	C	0.971897	0.069325	0.122336
C16	C	1.040374	0.136906	-0.122386
C17	C	1.040401	0.136919	0.122310
C18	C	0.947595	0.168887	-0.000041
C19	C	1.516165	-0.024476	0.000095
C20	C	1.514081	-0.101994	0.000108
C21	C	1.629334	-0.146146	0.000123
C22	C	1.627376	-0.218983	0.000099
C23	C	1.510159	-0.247665	0.000090
C24	C	1.394892	-0.203503	0.000066
C25	C	1.396853	-0.130668	0.000075
N26	N	1.420556	-0.356268	0.084510
N27	N	1.418701	-0.425459	0.084504
C28	C	1.504244	-0.467113	0.000059
N29	N	1.591732	-0.436964	-0.084362
N30	N	1.593591	-0.367767	-0.084350
C31	C	1.508020	-0.326642	0.000079
C32	C	1.617382	-0.590244	0.000046
C33	C	1.615419	-0.663081	0.000012
C34	C	1.382932	-0.647600	-0.000005
C35	C	1.384898	-0.574764	0.000013
C36	C	1.502126	-0.546090	0.000046
C37	C	1.739359	0.099199	0.000073
C38	C	1.880941	0.101288	0.000071
C39	C	1.496118	0.230723	0.000023
C40	C	1.498202	0.308242	0.000001
N41	N	1.506127	0.103133	0.353101
N42	N	1.506166	0.103109	-0.352979
C43	C	1.415262	0.152234	0.450387
C44	C	1.530443	0.166361	0.549804
C45	C	1.390995	0.089012	0.549812
C46	C	1.621366	0.117292	0.450329
C47	C	1.481842	0.039916	0.450328
C48	C	1.597106	0.054016	0.549700
H49	H	0.896927	0.224498	-0.000124
C50	C	1.701041	-0.002094	0.608260
C51	C	1.663172	-0.062415	0.706475
C52	C	1.767110	-0.118520	0.765043
C53	C	1.908917	-0.114305	0.725395
C54	C	1.946793	-0.053982	0.627174
C55	C	1.842855	0.002123	0.568607
H56	H	1.558192	-0.065537	0.735830
H57	H	1.739071	-0.163175	0.837752
H58	H	1.985858	-0.155838	0.768749
H59	H	2.051773	-0.050860	0.597820
H60	H	1.870894	0.046778	0.495898
C61	C	1.258116	-0.526192	0.000024
C62	C	1.129177	-0.557736	0.000019
C63	C	1.002389	-0.509163	0.000027
C64	C	1.004541	-0.429047	0.000041
C65	C	1.133485	-0.397499	0.000047
C66	C	1.260273	-0.446071	0.000038
H67	H	1.127580	-0.617046	0.000008
H68	H	0.906936	-0.532518	0.000023
H69	H	0.910685	-0.393091	0.000048
H70	H	1.135082	-0.338188	0.000057
H71	H	1.355726	-0.422717	0.000042
H72	H	1.718768	0.129289	0.406814
H73	H	1.115644	-0.018169	-0.000065
H74	H	1.338490	0.193796	0.406782
C75	C	1.081156	0.175490	-0.262265
C76	C	1.223558	0.184568	-0.288167
C77	C	1.264344	0.223147	-0.428048
C78	C	1.162727	0.252648	-0.542028
C79	C	1.020316	0.243571	-0.516130
C80	C	0.979530	0.204992	-0.376248
H81	H	1.298788	0.162729	-0.203789
H82	H	1.369766	0.229866	-0.447219
H83	H	1.192920	0.281206	-0.645577
H84	H	0.945086	0.265410	-0.600507
H85	H	0.874108	0.198273	-0.357078
H86	H	1.070801	0.165492	0.225715
H87	H	1.721231	-0.254938	0.000105
H88	H	1.709275	-0.699030	0.000016
C89	C	1.558231	0.238566	0.608848
C90	C	1.467368	0.304446	0.569669
C91	C	1.495146	0.376653	0.628707
C92	C	1.613787	0.382980	0.726922
C93	C	1.704658	0.317097	0.766106
C94	C	1.676880	0.244891	0.707069
H95	H	1.379536	0.299765	0.496960
H96	H	1.427877	0.425423	0.599700
H97	H	1.634350	0.436431	0.770625
H98	H	1.792490	0.321779	0.838816
H99	H	1.744149	0.196120	0.736076
C100	C	1.454012	-0.032269	0.391235
C101	C	1.326688	-0.061088	0.430412
C102	C	1.298841	-0.133272	0.371315
C103	C	1.398317	-0.176638	0.273040
C104	C	1.525649	-0.147820	0.233858
C105	C	1.553497	-0.075636	0.292955
H106	H	1.253043	-0.028986	0.503165
H107	H	1.204581	-0.154605	0.400321
H108	H	1.377703	-0.230073	0.229293
H109	H	1.599295	-0.179922	0.161105
H110	H	1.647757	-0.054303	0.263949
H111	H	1.293614	0.077080	0.593514
C112	C	1.265953	-0.235051	0.000059
C113	C	1.170312	-0.218657	0.128867
C114	C	1.041368	-0.250204	0.128851
C115	C	1.008065	-0.298144	0.000026
C116	C	1.103708	-0.314540	-0.128792
C117	C	1.232652	-0.282993	-0.128776
H118	H	1.194962	-0.183167	0.224240
H119	H	0.970567	-0.238066	0.224211
H120	H	0.912613	-0.321497	0.000014
H121	H	1.079057	-0.350030	-0.224165
H122	H	1.303453	-0.295131	-0.224136
H123	H	0.941512	0.040706	-0.225651
H124	H	0.941552	0.040722	0.225750
H125	H	1.724790	-0.122805	0.000144
H126	H	1.712836	-0.566896	0.000065
H127	H	1.302998	-0.094719	0.000064
H128	H	1.287492	-0.670952	-0.000019
