data_functionalizedCrystal
_audit_creation_method	'MofGen! by Chris Wilmer'
_symmetry_space_group_name_H-M	'P1'
_symmetry_Int_Tables_number	1
_symmetry_cell_setting	triclinic
loop_
_symmetry_equiv_pos_as_xyz
  x,y,z
_cell_length_a	15.944551
_cell_length_b	19.188930
_cell_length_c	14.421503
_cell_angle_alpha	89.999163
_cell_angle_beta	89.996859
_cell_angle_gamma	83.321760
loop_
_atom_site_label
_atom_site_type_symbol
_atom_site_fract_x
_atom_site_fract_y
_atom_site_fract_z
O1	O	1.114192	0.090038	-0.077026
O2	O	0.869601	0.101140	-0.077050
O3	O	0.998955	-0.006048	-0.077019
O4	O	0.984838	0.197227	-0.077057
O5	O	0.998934	-0.006032	0.077204
O6	O	0.869580	0.101156	0.077173
O7	O	1.114171	0.090054	0.077198
Cu8	Cu	0.991873	0.095607	0.091267
Cu9	Cu	0.991899	0.095588	-0.091120
O10	O	0.984817	0.197243	0.077167
C11	C	0.838298	0.100687	0.000059
C12	C	0.745057	0.099306	0.000050
C13	C	0.530462	0.029563	0.000081
C14	C	0.469331	0.061941	-0.075965
C15	C	0.574341	0.096806	0.000062
C16	C	0.469332	0.061973	0.076087
C17	C	0.409437	0.094386	0.000077
C18	C	0.514438	0.129203	-0.076047
C19	C	0.514446	0.129225	0.076073
C20	C	0.453332	0.161652	0.000008
C21	C	0.669338	0.098198	0.000052
C22	C	0.314441	0.093000	0.000080
C23	C	0.998487	-0.032052	0.000095
C24	C	0.997115	-0.109560	0.000103
C25	C	1.073016	-0.154288	0.000115
C26	C	1.071726	-0.227115	0.000100
C27	C	0.994532	-0.255211	0.000092
C28	C	0.918622	-0.210474	0.000075
C29	C	0.919913	-0.137648	0.000080
N30	N	0.935519	-0.363364	0.052571
N31	N	0.934298	-0.432545	0.052568
C32	C	0.990637	-0.474630	0.000073
N33	N	1.048256	-0.444921	-0.052407
N34	N	1.049480	-0.375733	-0.052400
C35	C	0.993123	-0.334178	0.000085
C36	C	1.065145	-0.598326	0.000067
C37	C	1.063852	-0.671154	0.000046
C38	C	0.910745	-0.654511	0.000030
C39	C	0.912040	-0.581685	0.000041
C40	C	0.989242	-0.553597	0.000064
C41	C	1.145474	0.090507	0.000087
C42	C	1.238715	0.091889	0.000089
C43	C	0.985285	0.223247	0.000050
C44	C	0.986657	0.300755	0.000036
N45	N	0.991862	0.095619	0.219549
N46	N	0.991917	0.095569	-0.219401
C47	C	0.932038	0.145161	0.469188
C48	C	1.007887	0.158716	0.530995
C49	C	0.991882	0.095603	0.408710
C50	C	0.916052	0.082064	0.530997
C51	C	0.991895	0.095588	0.591431
C52	C	1.067770	0.109189	0.469157
C53	C	0.975885	0.032510	0.469153
C54	C	1.051789	0.046038	0.530932
C55	C	0.991874	0.095613	0.303449
C56	C	0.991913	0.095578	0.696690
H57	H	0.419965	0.217516	-0.000045
H58	H	1.128007	-0.575456	0.000081
H59	H	0.851919	0.070620	0.558163
H60	H	0.449343	0.033526	0.140376
H61	H	0.564003	-0.026244	-0.000003
O62	O	0.445324	0.028059	-0.152628
C63	C	0.329883	-0.010700	-0.238865
C64	C	0.356946	0.027704	-0.152019
H65	H	0.258430	-0.011013	-0.238392
H66	H	0.349264	0.017424	-0.303698
H67	H	0.361938	-0.066993	-0.238767
H68	H	0.324905	0.083998	-0.152028
H69	H	0.337580	-0.000475	-0.087225
O70	O	0.538308	0.163050	-0.152806
C71	C	0.653511	0.202361	-0.238898
C72	C	0.626595	0.164003	-0.151942
H73	H	0.724890	0.203156	-0.238218
H74	H	0.634613	0.173884	-0.303648
H75	H	0.620939	0.258489	-0.239170
H76	H	0.659153	0.107873	-0.151579
H77	H	0.645476	0.192533	-0.087231
H78	H	1.125662	-0.707571	0.000051
O79	O	1.023926	0.222359	0.563522
C80	C	0.973920	0.323631	0.655377
C81	C	0.955668	0.251558	0.618627
H82	H	0.918737	0.347266	0.699920
H83	H	1.033995	0.317038	0.698917
H84	H	0.982520	0.359970	0.594435
H85	H	0.947027	0.215182	0.679512
H86	H	0.895611	0.258205	0.575059
O87	O	0.838231	-0.538332	0.000083
C88	C	0.686237	-0.529512	0.000013
C89	C	0.769766	-0.578689	-0.000009
H90	H	0.630861	-0.562121	-0.000080
H91	H	0.682948	-0.495017	0.064574
H92	H	0.683069	-0.494983	-0.064511
H93	H	0.772990	-0.613262	0.064472
H94	H	0.773020	-0.613135	-0.064612
O95	O	0.538313	0.163032	0.152856
C96	C	0.542628	0.165838	0.319822
C97	C	0.515567	0.127483	0.232935
H98	H	0.524233	0.137121	0.384588
H99	H	0.613949	0.166985	0.318774
H100	H	0.509681	0.221843	0.320423
H101	H	0.548454	0.071462	0.232277
H102	H	0.444239	0.126393	0.234017
O103	O	0.959750	-0.031083	0.436555
C104	C	0.942337	-0.102451	0.302001
C105	C	0.960652	-0.030407	0.338796
H106	H	0.943043	-0.101923	0.222959
H107	H	0.992707	-0.144841	0.328401
H108	H	0.877636	-0.113910	0.327415
H109	H	1.025329	-0.018881	0.313397
H110	H	0.910231	0.011943	0.312403
H111	H	1.135880	-0.131424	0.000131
O112	O	1.145514	-0.270504	-0.000007
C113	C	1.275971	-0.307049	-0.079902
C114	C	1.192449	-0.257863	-0.079886
H115	H	1.313933	-0.296857	-0.144487
H116	H	1.314018	-0.296829	-0.015394
H117	H	1.261761	-0.363918	-0.079863
H118	H	1.206581	-0.200977	-0.079959
H119	H	1.154426	-0.268144	-0.144389
O120	O	1.144219	0.122989	0.436739
C121	C	1.229975	0.138489	0.302387
C122	C	1.143367	0.122838	0.338975
H123	H	1.229320	0.138358	0.223341
H124	H	1.243696	0.192119	0.328367
H125	H	1.281050	0.096524	0.328377
H126	H	1.092236	0.164758	0.313000
H127	H	1.129718	0.069187	0.313003
H128	H	0.881481	0.187105	0.442078
H129	H	0.847892	-0.677386	0.000019
H130	H	1.102458	0.004119	0.557872
H131	H	0.855769	-0.233354	0.000066
O132	O	0.846102	-0.094296	0.000115
C133	C	0.694107	-0.085473	0.000037
C134	C	0.777635	-0.134652	0.000017
H135	H	0.638730	-0.118081	-0.000061
H136	H	0.690816	-0.050980	0.064599
H137	H	0.690943	-0.050943	-0.064485
H138	H	0.780856	-0.169226	0.064496
H139	H	0.780891	-0.169097	-0.064587
