data_functionalizedCrystal
_audit_creation_method	'MofGen! by Chris Wilmer'
_symmetry_space_group_name_H-M	'P1'
_symmetry_Int_Tables_number	1
_symmetry_cell_setting	triclinic
loop_
_symmetry_equiv_pos_as_xyz
  x,y,z
_cell_length_a	18.215407
_cell_length_b	16.959453
_cell_length_c	18.215399
_cell_angle_alpha	90.028024
_cell_angle_beta	90.017813
_cell_angle_gamma	90.014501
loop_
_atom_site_label
_atom_site_type_symbol
_atom_site_fract_x
_atom_site_fract_y
_atom_site_fract_z
Zn1	Zn	1.125097	-0.314805	0.416076
Zn2	Zn	1.625097	0.185195	0.916076
Zn3	Zn	1.125016	-0.446991	0.293009
Zn4	Zn	1.625016	0.053009	0.793009
Zn5	Zn	1.002030	-0.314818	0.293027
Zn6	Zn	1.502030	0.185182	0.793027
Zn7	Zn	1.002006	-0.446933	0.416039
Zn8	Zn	1.502006	0.053067	0.916039
O9	O	1.063537	-0.380887	0.354538
O10	O	1.563537	0.119113	0.854538
O11	O	1.228070	-0.332359	0.399759
O12	O	1.728070	0.167641	0.899759
O13	O	1.108677	-0.429487	0.190027
O14	O	1.608677	0.070513	0.690027
O15	O	1.018398	-0.204205	0.309373
O16	O	1.518398	0.295795	0.809373
O17	O	1.228011	-0.429475	0.309342
O18	O	1.728011	0.070525	0.809342
O19	O	1.108816	-0.204196	0.399776
O20	O	1.608816	0.295804	0.899776
O21	O	1.018320	-0.332380	0.190041
O22	O	1.518320	0.167620	0.690041
O23	O	0.899042	-0.332324	0.309337
O24	O	1.399042	0.167676	0.809337
O25	O	1.018358	-0.429377	0.519028
O26	O	1.518358	0.070623	1.019028
O27	O	0.899025	-0.429389	0.399713
O28	O	1.399025	0.070611	0.899713
O29	O	1.108793	-0.332303	0.519055
O30	O	1.608793	0.167697	1.019055
O31	O	1.108655	-0.557594	0.309306
O32	O	1.608655	-0.057594	0.809306
O33	O	1.018280	-0.557552	0.399695
O34	O	1.518280	-0.057552	0.899695
C35	C	0.872331	-0.380852	0.354523
C36	C	1.372331	0.119148	0.854523
C37	C	0.790532	-0.380856	0.354535
C38	C	1.290532	0.119144	0.854535
C39	C	0.525500	-0.330416	0.401693
C40	C	1.025500	0.169584	0.901693
C41	C	0.602358	-0.330403	0.401690
C42	C	1.102358	0.169597	0.901690
C43	C	0.602316	-0.431383	0.307399
C44	C	1.102316	0.068617	0.807399
C45	C	0.525458	-0.431399	0.307406
C46	C	1.025458	0.068601	0.807406
C47	C	0.487052	-0.380911	0.354551
C48	C	0.987052	0.119089	0.854551
C49	C	0.640768	-0.380882	0.354542
C50	C	1.140768	0.119118	0.854542
C51	C	0.724102	-0.380869	0.354540
C52	C	1.224102	0.119131	0.854540
C53	C	0.403713	-0.380926	0.354555
C54	C	0.903713	0.119074	0.854555
C55	C	1.063476	-0.586253	0.354511
C56	C	1.563476	-0.086253	0.854511
C57	C	1.063517	-0.674110	0.354524
C58	C	1.563517	-0.174110	0.854524
C59	C	1.110678	-1.045522	0.401699
C60	C	1.610678	-0.545522	0.901699
C61	C	1.016602	-1.045648	0.307485
C62	C	1.516602	-0.545648	0.807485
C63	C	1.016575	-0.963102	0.307468
C64	C	1.516575	-0.463102	0.807468
C65	C	1.063599	-0.921763	0.354569
C66	C	1.563599	-0.421763	0.854569
C67	C	1.110650	-0.962968	0.401686
C68	C	1.610650	-0.462968	0.901686
C69	C	0.969519	-0.921890	0.260358
C70	C	1.469519	-0.421890	0.760358
C71	C	0.969489	-0.839339	0.260339
C72	C	1.469489	-0.339339	0.760339
C73	C	1.016518	-0.797998	0.307436
C74	C	1.516518	-0.297998	0.807436
C75	C	1.063571	-0.839209	0.354555
C76	C	1.563571	-0.339209	0.854555
C77	C	1.110595	-0.797869	0.401655
C78	C	1.610595	-0.297869	0.901655
C79	C	1.157653	-0.839079	0.448770
C80	C	1.657653	-0.339079	0.948770
C81	C	1.157678	-0.921627	0.448783
C82	C	1.657678	-0.421627	0.948783
C83	C	1.016493	-0.715450	0.307424
C84	C	1.516493	-0.215450	0.807424
C85	C	1.110568	-0.715316	0.401641
C86	C	1.610568	-0.215316	0.901641
C87	C	1.255490	-0.380922	0.354553
C88	C	1.755490	0.119078	0.854553
C89	C	1.337289	-0.380937	0.354559
C90	C	1.837289	0.119063	0.854559
C91	C	1.063582	-0.380832	0.546491
C92	C	1.563582	0.119168	1.046491
C93	C	1.063601	-0.380809	0.628290
C94	C	1.563601	0.119191	1.128290
C95	C	1.063619	-0.174719	0.354581
C96	C	1.563619	0.325281	0.854581
C97	C	1.063654	-0.086862	0.354599
C98	C	1.563654	0.413138	0.854599
C99	C	1.063535	-0.380884	0.163332
C100	C	1.563535	0.119116	0.663332
C101	C	1.063658	-0.380685	0.081533
C102	C	1.563658	0.119315	0.581533
C103	C	1.110707	-0.330215	0.816499
C104	C	1.610707	0.169785	1.316499
C105	C	1.110716	-0.330192	0.893358
C106	C	1.610716	0.169808	1.393358
C107	C	1.016547	-0.431280	0.893318
C108	C	1.516547	0.068720	1.393318
C109	C	1.016535	-0.431299	0.816461
C110	C	1.516535	0.068701	1.316461
C111	C	1.063619	-0.380768	0.778053
C112	C	1.563619	0.119232	1.278053
C113	C	1.063640	-0.380726	0.931769
C114	C	1.563640	0.119274	1.431769
C115	C	1.063649	-0.380701	1.015103
C116	C	1.563649	0.119299	1.515103
C117	C	1.063609	-0.380791	0.694714
C118	C	1.563609	0.119209	1.194714
H119	H	0.494232	-0.289305	0.440082
H120	H	0.994232	0.210695	0.940082
H121	H	0.978175	-0.681900	0.269067
H122	H	1.478175	-0.181900	0.769067
H123	H	1.149058	-0.289027	0.924657
H124	H	1.649058	0.210973	1.424657
H125	H	0.978214	-0.472423	0.924599
H126	H	1.478214	0.027577	1.424599
H127	H	0.978185	-0.472464	0.785157
H128	H	1.478185	0.027536	1.285157
H129	H	0.494154	-0.472523	0.269017
H130	H	0.994154	0.027477	0.769017
H131	H	1.149044	-0.289067	0.785230
H132	H	1.649044	0.210933	1.285230
H133	H	0.633595	-0.472487	0.269013
H134	H	1.133595	0.027513	0.769013
H135	H	0.633659	-0.289285	0.440078
H136	H	1.133659	0.210715	0.940078
H137	H	1.148864	-0.681662	0.439993
H138	H	1.648864	-0.181662	0.939993
H139	H	1.195990	-0.955187	0.487142
H140	H	1.695990	-0.455187	0.987142
H141	H	1.195938	-0.805410	0.487123
H142	H	1.695938	-0.305410	0.987123
H143	H	1.148993	-1.079078	0.440057
H144	H	1.648993	-0.579078	0.940057
H145	H	0.931233	-0.955555	0.222013
H146	H	1.431233	-0.455555	0.722013
H147	H	0.978314	-1.079312	0.269142
H148	H	1.478314	-0.579312	0.769142
H149	H	0.931173	-0.805792	0.221975
H150	H	1.431173	-0.305792	0.721975
