data_functionalizedCrystal
_audit_creation_method	'MofGen! by Chris Wilmer'
_symmetry_space_group_name_H-M	'P1'
_symmetry_Int_Tables_number	1
_symmetry_cell_setting	triclinic
loop_
_symmetry_equiv_pos_as_xyz
  x,y,z
_cell_length_a	25.639242
_cell_length_b	29.839126
_cell_length_c	25.639240
_cell_angle_alpha	89.969504
_cell_angle_beta	90.028283
_cell_angle_gamma	89.971322
loop_
_atom_site_label
_atom_site_type_symbol
_atom_site_fract_x
_atom_site_fract_y
_atom_site_fract_z
Zn1	Zn	0.799280	-0.254094	-0.208253
Zn2	Zn	0.799203	-0.178955	-0.295679
Zn3	Zn	0.711847	-0.178965	-0.208253
Zn4	Zn	0.711811	-0.254045	-0.295653
O5	O	0.755535	-0.216515	-0.251959
O6	O	0.872435	-0.244143	-0.219862
O7	O	0.787597	-0.116089	-0.284092
O8	O	0.723492	-0.188955	-0.135087
O9	O	0.872378	-0.188939	-0.284093
O10	O	0.787729	-0.244152	-0.135088
O11	O	0.723417	-0.116096	-0.219861
O12	O	0.638677	-0.188908	-0.219835
O13	O	0.723431	-0.316919	-0.284048
O14	O	0.638650	-0.244069	-0.284047
O15	O	0.787695	-0.316954	-0.219836
O16	O	0.787563	-0.188892	-0.368841
O17	O	0.723356	-0.244060	-0.368821
C18	C	0.619693	-0.216484	-0.251939
C19	C	0.561578	-0.216482	-0.251942
C20	C	0.201211	-0.245210	-0.285451
C21	C	0.146606	-0.245217	-0.285454
O22	O	0.118365	-0.269617	-0.313918
N23	N	0.119296	-0.216544	-0.251974
C24	C	0.146593	-0.187865	-0.218484
O25	O	0.118349	-0.163477	-0.190007
C26	C	0.201196	-0.187861	-0.218479
C27	C	0.228504	-0.216532	-0.251965
C28	C	0.228518	-0.273880	-0.318934
C29	C	0.283119	-0.273872	-0.318931
C30	C	0.310412	-0.245194	-0.285445
C31	C	0.283104	-0.216525	-0.251962
C32	C	0.228492	-0.159185	-0.184988
C33	C	0.283099	-0.159183	-0.184985
C34	C	0.310407	-0.187854	-0.218471
C35	C	0.364998	-0.187839	-0.218474
N36	N	0.392308	-0.216512	-0.251954
C37	C	0.365015	-0.245190	-0.285440
C38	C	0.031922	-0.187877	-0.218498
C39	C	-0.022680	-0.187879	-0.218506
C40	C	-0.022663	-0.245232	-0.285474
C41	C	0.031940	-0.245227	-0.285469
C42	C	0.059233	-0.216550	-0.251978
C43	C	0.479680	-0.245171	-0.285432
C44	C	0.534285	-0.245159	-0.285428
C45	C	0.534264	-0.187809	-0.218458
C46	C	0.479663	-0.187818	-0.218463
C47	C	0.452373	-0.216503	-0.251952
O48	O	0.393273	-0.163453	-0.190023
O49	O	0.393265	-0.269578	-0.313908
C50	C	0.755567	-0.333693	-0.251939
C51	C	0.755581	-0.383627	-0.251931
C52	C	0.722173	-0.693277	-0.218433
C53	C	0.722188	-0.880951	-0.218397
O54	O	0.693757	-0.905221	-0.189968
N55	N	0.755606	-0.904413	-0.251833
C56	C	0.789020	-0.880954	-0.285283
O57	O	0.817441	-0.905216	-0.313725
C58	C	0.789003	-0.693282	-0.285321
C59	C	0.755586	-0.669822	-0.251879
C60	C	0.688759	-0.669818	-0.184994
C61	C	0.688757	-0.622902	-0.185002
C62	C	0.722170	-0.599446	-0.218448
C63	C	0.755585	-0.622906	-0.251887
C64	C	0.822414	-0.669824	-0.318773
C65	C	0.822406	-0.622903	-0.318781
C66	C	0.788989	-0.599443	-0.285339
C67	C	0.788996	-0.552535	-0.285340
N68	N	0.755578	-0.529073	-0.251904
C69	C	0.722165	-0.552529	-0.218458
C70	C	0.789028	-0.979485	-0.285259
C71	C	0.789033	-1.026402	-0.285249
C72	C	0.722200	-1.026396	-0.218364
C73	C	0.722198	-0.979477	-0.218372
C74	C	0.755610	-0.956022	-0.251823
C75	C	0.722165	-0.454003	-0.218476
C76	C	0.722168	-0.407083	-0.218485
C77	C	0.789000	-0.407094	-0.285372
C78	C	0.788999	-0.454009	-0.285361
C79	C	0.755577	-0.477463	-0.251911
O80	O	0.817408	-0.528236	-0.313758
O81	O	0.693740	-0.528258	-0.190028
C82	C	0.722174	-0.740193	-0.218426
C83	C	0.755589	-0.763653	-0.251864
C84	C	0.789002	-0.740197	-0.285311
C85	C	0.755594	-0.810571	-0.251854
C86	C	0.722181	-0.834026	-0.218408
C87	C	0.688763	-0.810564	-0.184972
C88	C	0.688761	-0.763648	-0.184979
C89	C	0.822420	-0.763659	-0.318747
C90	C	0.822419	-0.810575	-0.318736
C91	C	0.789006	-0.834031	-0.285290
C92	C	0.891908	-0.216545	-0.251980
C93	C	0.950022	-0.216559	-0.251989
C94	C	0.755461	-0.216479	-0.387802
C95	C	0.755477	-0.216479	-0.445916
C96	C	0.755533	-0.099792	-0.251942
C97	C	0.755620	-0.049858	-0.251803
C98	C	0.789000	-0.245308	-0.806241
C99	C	0.789015	-0.245317	-0.860845
O100	O	0.817430	-0.269791	-0.889049
N101	N	0.755608	-0.216558	-0.888198
C102	C	0.722179	-0.187792	-0.860945
O103	O	0.693764	-0.163331	-0.889225
C104	C	0.722161	-0.187785	-0.806341
C105	C	0.755575	-0.216542	-0.778991
C106	C	0.822410	-0.274063	-0.778890
C107	C	0.822396	-0.274053	-0.724290
C108	C	0.788970	-0.245288	-0.697040
C109	C	0.755560	-0.216533	-0.724390
C110	C	0.688730	-0.159021	-0.779088
C111	C	0.688714	-0.159017	-0.724481
C112	C	0.722128	-0.187775	-0.697131
C113	C	0.722119	-0.187758	-0.642540
N114	N	0.755527	-0.216516	-0.615186
C115	C	0.788953	-0.245281	-0.642436
C116	C	0.722218	-0.187808	-0.975615
C117	C	0.722237	-0.187812	-1.030217
C118	C	0.789074	-0.245338	-1.030114
C119	C	0.789056	-0.245331	-0.975511
C120	C	0.755625	-0.216567	-0.948262
C121	C	0.788919	-0.245258	-0.527771
C122	C	0.788903	-0.245245	-0.473166
C123	C	0.722065	-0.187721	-0.473274
C124	C	0.722083	-0.187732	-0.527875
C125	C	0.755512	-0.216505	-0.555122
O126	O	0.693718	-0.163297	-0.614301
O127	O	0.817358	-0.269742	-0.614150
C128	C	0.755623	-0.216560	-0.115586
C129	C	0.755661	-0.216579	-0.057472
H130	H	0.694956	-0.387984	-0.191250
H131	H	0.816215	-0.473111	-0.312586
O132	O	0.858467	-0.835873	-0.354808
H133	H	0.852861	-0.872440	-0.349186
H134	H	0.305318	-0.135833	-0.157709
H135	H	0.556517	-0.268508	-0.312698
O136	O	0.825093	-0.276350	-0.946014
H137	H	0.851702	-0.256263	-0.921134
H138	H	0.816290	-0.268761	-1.052311
H139	H	0.694852	-0.164299	-0.451078
H140	H	-0.044909	-0.164527	-0.191243
O141	O	0.686157	-0.954175	-0.182302
H142	H	0.645117	-0.963163	-0.191261
H143	H	0.661550	-0.744552	-0.157747
H144	H	0.457467	-0.268530	-0.312701
H145	H	0.661489	-0.135594	-0.702298
O146	O	0.061359	-0.156934	-0.182387
H147	H	0.033190	-0.136994	-0.159115
H148	H	0.849625	-0.688917	-0.346006
O149	O	0.652689	-0.128004	-0.808578
H150	H	0.626084	-0.148090	-0.833462
H151	H	0.849627	-0.744567	-0.345985
O152	O	0.563706	-0.156877	-0.182344
H153	H	0.553248	-0.164650	-0.141323
H154	H	0.816114	-0.268662	-0.450899
O155	O	0.652730	-0.835866	-0.148890
H156	H	0.658349	-0.872431	-0.154507
H157	H	0.816137	-0.268691	-0.549950
H158	H	0.816237	-0.960392	-0.312502
O159	O	-0.052109	-0.276113	-0.321649
H160	H	-0.023951	-0.296031	-0.344957
H161	H	0.849618	-0.603808	-0.346018
H162	H	0.816205	-0.387988	-0.312601
H163	H	0.694996	-0.164381	-0.953432
O164	O	0.825075	-1.051700	-0.321322
H165	H	0.866115	-1.042708	-0.312371
O166	O	0.686047	-0.156716	-0.557379
H167	H	0.662800	-0.136714	-0.529255
H168	H	0.206268	-0.135836	-0.157721
H169	H	0.457428	-0.164471	-0.191197
O170	O	0.686124	-0.479296	-0.182394
H171	H	0.662896	-0.455094	-0.159142
H172	H	0.305347	-0.297220	-0.346198
O173	O	0.652718	-0.597601	-0.148930
H174	H	0.629486	-0.621800	-0.125676
H175	H	0.849602	-0.297471	-0.702024
H176	H	0.661547	-0.688910	-0.157758
O177	O	0.686202	-0.156793	-1.059715
H178	H	0.662956	-0.136793	-1.031588
H179	H	0.694995	-1.045501	-0.191129
H180	H	0.054170	-0.268575	-0.312735
O181	O	0.199084	-0.304761	-0.355113
H182	H	0.227255	-0.324672	-0.378415
O183	O	0.858467	-0.305089	-0.808278
H184	H	0.881695	-0.325078	-0.780077
