data_functionalizedCrystal
_audit_creation_method	'MofGen! by Chris Wilmer'
_symmetry_space_group_name_H-M	'P1'
_symmetry_Int_Tables_number	1
_symmetry_cell_setting	triclinic
loop_
_symmetry_equiv_pos_as_xyz
  x,y,z
_cell_length_a	15.995350
_cell_length_b	9.065218
_cell_length_c	7.540329
_cell_angle_alpha	89.998628
_cell_angle_beta	90.002041
_cell_angle_gamma	84.254130
loop_
_atom_site_label
_atom_site_type_symbol
_atom_site_fract_x
_atom_site_fract_y
_atom_site_fract_z
O1	O	-1.112424	-0.190160	0.147325
O2	O	-0.868827	-0.213642	0.147360
O3	O	-0.995661	0.012860	0.147338
O4	O	-0.985591	-0.416662	0.147347
O5	O	-0.995656	0.012862	-0.147627
O6	O	-0.868823	-0.213640	-0.147605
O7	O	-1.112420	-0.190158	-0.147640
Cu8	Cu	-0.990621	-0.201899	-0.174555
Cu9	Cu	-0.990626	-0.201901	0.174275
O10	O	-0.985586	-0.416660	-0.147618
C11	C	-0.837623	-0.212670	-0.000117
C12	C	-0.744650	-0.209760	-0.000104
C13	C	-0.994691	0.067825	-0.000141
C14	C	-0.991797	0.231600	-0.000132
C15	C	-1.143624	-0.191129	-0.000158
C16	C	-1.236597	-0.194040	-0.000161
C17	C	-0.406824	-0.199308	-0.000141
C18	C	-0.453034	-0.037997	-0.000802
C19	C	-0.549747	-0.040908	-0.000125
C20	C	-0.574423	-0.204492	-0.000123
C21	C	-0.533942	-0.284057	0.168311
C22	C	-0.437276	-0.280005	0.168439
C23	C	-0.436957	-0.283336	-0.166991
C24	C	-0.533902	-0.283298	-0.169205
C25	C	-0.669143	-0.207431	-0.000108
C26	C	-0.312103	-0.196374	-0.000145
C27	C	-0.986556	-0.471625	-0.000135
C28	C	-0.989450	-0.635400	-0.000132
N29	N	-0.990623	-0.201897	-0.419904
N30	N	-0.990630	-0.201892	0.419624
H31	H	-0.434021	0.026484	-0.121593
H32	H	-0.548979	-0.404238	0.174575
C33	C	-0.408689	-0.212072	-0.339465
C34	C	-0.474604	-0.148383	-0.475258
C35	C	-0.446339	-0.077092	-0.647716
C36	C	-0.352158	-0.069490	-0.684383
C37	C	-0.286237	-0.133181	-0.548586
C38	C	-0.314502	-0.204472	-0.376127
H39	H	-0.544327	-0.154009	-0.448119
H40	H	-0.495139	-0.029944	-0.748242
H41	H	-0.331235	-0.016717	-0.812047
H42	H	-0.216514	-0.127556	-0.575725
H43	H	-0.265702	-0.251620	-0.275602
H44	H	-0.432956	0.026185	0.119320
H45	H	-0.550172	-0.402588	-0.179378
C46	C	-0.394917	-0.439989	0.178820
C47	C	-0.449079	-0.571023	0.186973
C48	C	-0.406724	-0.731002	0.197383
C49	C	-0.310208	-0.759946	0.199639
C50	C	-0.256040	-0.628908	0.191486
C51	C	-0.298394	-0.468929	0.181077
H52	H	-0.520531	-0.549600	0.185303
H53	H	-0.446823	-0.828005	0.203418
H54	H	-0.278854	-0.878372	0.207345
H55	H	-0.184588	-0.650331	0.193157
H56	H	-0.258295	-0.371926	0.175041
C57	C	-0.395267	-0.444005	-0.168550
C58	C	-0.449985	-0.574374	-0.163337
C59	C	-0.408291	-0.735035	-0.164881
C60	C	-0.311879	-0.765327	-0.171638
C61	C	-0.257156	-0.634953	-0.176852
C62	C	-0.298851	-0.474292	-0.175308
H63	H	-0.521359	-0.551954	-0.158334
H64	H	-0.448801	-0.831546	-0.161021
H65	H	-0.281015	-0.884258	-0.172782
H66	H	-0.185782	-0.657374	-0.181855
H67	H	-0.258340	-0.377782	-0.179167
H68	H	-0.561899	-0.228796	0.293662
H69	H	-0.577129	0.022055	0.120824
H70	H	-0.418529	-0.221984	0.294347
C71	C	-0.570582	-0.204981	-0.337312
C72	C	-0.617841	-0.291770	-0.473975
C73	C	-0.654713	-0.213525	-0.641963
C74	C	-0.644327	-0.048490	-0.673288
C75	C	-0.597065	0.038309	-0.536620
C76	C	-0.560193	-0.039937	-0.368632
H77	H	-0.625531	-0.413947	-0.450790
H78	H	-0.689699	-0.277780	-0.743133
H79	H	-0.671622	0.009432	-0.797642
H80	H	-0.589375	0.160486	-0.559805
H81	H	-0.525207	0.024318	-0.267463
H82	H	-0.577699	0.021634	-0.120866
