data_functionalizedCrystal
_audit_creation_method	'MofGen! by Chris Wilmer'
_symmetry_space_group_name_H-M	'P1'
_symmetry_Int_Tables_number	1
_symmetry_cell_setting	triclinic
loop_
_symmetry_equiv_pos_as_xyz
  x,y,z
_cell_length_a	21.295418
_cell_length_b	25.639239
_cell_length_c	21.295412
_cell_angle_alpha	89.971450
_cell_angle_beta	89.957310
_cell_angle_gamma	90.054499
loop_
_atom_site_label
_atom_site_type_symbol
_atom_site_fract_x
_atom_site_fract_y
_atom_site_fract_z
Zn1	Zn	0.962314	-0.207943	-0.356243
Zn2	Zn	0.962203	-0.295377	-0.250972
Zn3	Zn	0.857039	-0.207981	-0.250953
Zn4	Zn	0.856991	-0.295373	-0.356169
O5	O	0.909637	-0.251669	-0.303584
O6	O	1.050388	-0.219527	-0.342318
O7	O	0.948226	-0.283801	-0.162880
O8	O	0.871070	-0.134811	-0.264943
O9	O	1.050307	-0.283764	-0.264976
O10	O	0.948415	-0.134783	-0.342299
O11	O	0.870962	-0.219592	-0.162866
O12	O	0.768943	-0.219589	-0.264871
O13	O	0.870989	-0.283758	-0.444268
O14	O	0.768908	-0.283795	-0.342172
O15	O	0.948369	-0.219523	-0.444322
O16	O	0.948180	-0.368542	-0.264904
O17	O	0.870881	-0.368539	-0.342191
C18	C	0.746085	-0.251696	-0.303512
C19	C	0.676117	-0.251721	-0.303496
C20	C	0.909531	-0.387511	-0.303555
C21	C	0.909543	-0.445625	-0.303564
C22	C	0.643248	-0.285197	-0.343686
C23	C	0.577506	-0.285184	-0.343715
C24	C	0.544634	-0.251700	-0.303541
C25	C	0.577511	-0.218217	-0.263347
C26	C	0.643252	-0.218227	-0.263325
N27	N	0.441360	-0.247615	-0.248483
N28	N	0.378909	-0.247609	-0.248506
C29	C	0.346560	-0.251667	-0.303608
N30	N	0.379021	-0.255742	-0.358686
N31	N	0.441479	-0.255752	-0.358662
C32	C	0.473349	-0.251685	-0.303561
C33	C	0.242406	-0.285131	-0.343832
C34	C	0.176662	-0.285115	-0.343862
C35	C	0.176668	-0.218150	-0.263489
C36	C	0.242410	-0.218164	-0.263465
C37	C	0.275275	-0.251657	-0.303636
C38	C	0.949991	-0.805977	-0.263409
C39	C	0.950015	-0.860581	-0.263418
O40	O	0.984296	-0.888808	-0.229245
N41	N	0.909747	-0.887908	-0.303626
C42	C	0.869456	-0.860627	-0.343833
O43	O	0.835208	-0.888884	-0.378034
C44	C	0.869436	-0.806024	-0.343827
C45	C	0.909702	-0.778700	-0.303612
C46	C	0.990255	-0.778653	-0.223198
C47	C	0.990229	-0.724053	-0.223188
C48	C	0.949940	-0.696776	-0.263391
C49	C	0.909677	-0.724100	-0.303603
C50	C	0.829149	-0.778744	-0.384037
C51	C	0.829132	-0.724137	-0.384028
C52	C	0.869398	-0.696813	-0.343812
C53	C	0.869362	-0.642222	-0.343796
N54	N	0.909631	-0.614896	-0.303588
C55	C	0.949919	-0.642173	-0.263385
C56	C	0.869504	-0.975298	-0.343842
C57	C	0.869521	-1.029900	-0.343845
C58	C	0.950081	-1.029850	-0.263431
C59	C	0.950060	-0.975247	-0.263425
C60	C	0.909772	-0.947971	-0.303634
C61	C	0.949863	-0.527508	-0.263369
C62	C	0.949832	-0.472902	-0.263361
C63	C	0.869275	-0.472956	-0.343778
C64	C	0.869303	-0.527557	-0.343783
C65	C	0.909602	-0.554831	-0.303577
O66	O	0.835101	-0.613960	-0.377953
O67	O	0.984168	-0.613909	-0.229195
C68	C	1.073827	-0.251641	-0.303657
C69	C	1.143795	-0.251630	-0.303688
C70	C	0.909686	-0.251636	-0.467774
C71	C	0.909707	-0.251622	-0.537743
C72	C	0.909760	-0.115296	-0.303627
C73	C	0.909813	-0.057182	-0.303645
C74	C	0.869486	-0.218185	-0.570592
C75	C	0.869484	-0.218175	-0.636334
C76	C	0.909714	-0.251597	-0.669225
C77	C	0.949937	-0.285041	-0.636368
C78	C	0.949934	-0.285054	-0.570627
N79	N	0.964817	-0.255578	-0.772482
N80	N	0.964819	-0.255563	-0.834933
C81	C	0.909725	-0.251563	-0.867300
N82	N	0.854629	-0.247567	-0.834856
N83	N	0.854628	-0.247580	-0.772398
C84	C	0.909721	-0.251588	-0.740511
C85	C	0.869499	-0.218113	-0.971435
C86	C	0.869496	-0.218107	-1.037179
C87	C	0.949954	-0.284970	-1.037211
C88	C	0.949952	-0.284979	-0.971468
C89	C	0.909725	-0.251547	-0.938584
C90	C	0.909624	-0.251663	-0.140032
C91	C	0.909725	-0.251530	-0.070065
H92	H	0.670003	-0.312469	-0.376398
Cl93	Cl	1.040911	-0.812935	-0.172650
H94	H	0.982849	-0.953004	-0.230679
H95	H	0.550742	-0.190953	-0.230639
H96	H	0.982889	-1.052069	-0.230698
Cl97	Cl	0.818910	-0.176082	-1.078476
H98	H	0.796325	-0.701931	-0.416773
H99	H	0.982689	-0.312282	-0.543881
H100	H	0.836733	-0.190944	-0.663086
Cl101	Cl	1.000508	-0.327060	-0.677715
H102	H	0.836743	-0.190891	-0.944659
H103	H	0.982705	-0.312206	-0.944722
H104	H	0.796356	-0.800981	-0.416781
Cl105	Cl	1.000524	-0.561787	-0.212821
Cl106	Cl	0.818632	-0.438655	-0.394319
Cl107	Cl	0.536177	-0.327273	-0.394244
Cl108	Cl	0.818669	-0.561908	-0.394327
H109	H	0.269172	-0.190906	-0.230734
H110	H	0.836726	-1.052142	-0.376587
H111	H	0.982711	-0.312182	-1.063990
H112	H	0.149905	-0.190885	-0.230781
Cl113	Cl	0.684574	-0.176139	-0.212794
Cl114	Cl	0.818846	-0.941013	-0.394391
H115	H	0.982621	-0.450657	-0.230611
Cl116	Cl	0.818913	-0.176159	-0.529255
H117	H	0.269166	-0.312401	-0.376545
Cl118	Cl	1.040862	-0.689711	-0.172639
Cl119	Cl	0.135341	-0.327201	-0.394396
