data_functionalizedCrystal
_audit_creation_method	'MofGen! by Chris Wilmer'
_symmetry_space_group_name_H-M	'P1'
_symmetry_Int_Tables_number	1
_symmetry_cell_setting	triclinic
loop_
_symmetry_equiv_pos_as_xyz
  x,y,z
_cell_length_a	21.395362
_cell_length_b	21.395361
_cell_length_c	21.395356
_cell_angle_alpha	89.971386
_cell_angle_beta	89.964230
_cell_angle_gamma	90.046585
loop_
_atom_site_label
_atom_site_type_symbol
_atom_site_fract_x
_atom_site_fract_y
_atom_site_fract_z
Zn1	Zn	0.957809	-0.249202	-0.354573
Zn2	Zn	1.291142	0.084132	-0.021239
Zn3	Zn	1.624476	0.417465	0.312094
Zn4	Zn	0.957726	-0.353974	-0.249790
Zn5	Zn	1.291060	-0.020641	0.083544
Zn6	Zn	1.624393	0.312692	0.416877
Zn7	Zn	0.853039	-0.249244	-0.249774
Zn8	Zn	1.186372	0.084090	0.083560
Zn9	Zn	1.519706	0.417423	0.416893
Zn10	Zn	0.852993	-0.353974	-0.354494
Zn11	Zn	1.186326	-0.020641	-0.021161
Zn12	Zn	1.519660	0.312692	0.312172
O13	O	0.905392	-0.301599	-0.302158
O14	O	1.238725	0.031735	0.031176
O15	O	1.572058	0.365068	0.364509
O16	O	1.045476	-0.263082	-0.340712
O17	O	1.378809	0.070251	-0.007379
O18	O	1.712143	0.403584	0.325954
O19	O	0.943824	-0.340099	-0.162110
O20	O	1.277157	-0.006766	0.171224
O21	O	1.610491	0.326567	0.504557
O22	O	0.866991	-0.161560	-0.263702
O23	O	1.200324	0.171773	0.069632
O24	O	1.533657	0.505106	0.402965
O25	O	1.045415	-0.340059	-0.263729
O26	O	1.378749	-0.006725	0.069605
O27	O	1.712082	0.326608	0.402938
O28	O	0.943965	-0.161529	-0.340697
O29	O	1.277298	0.171804	-0.007364
O30	O	1.610631	0.505137	0.325970
O31	O	0.866910	-0.263154	-0.162098
O32	O	1.200244	0.070179	0.171235
O33	O	1.533577	0.403512	0.504569
O34	O	0.765355	-0.263154	-0.263626
O35	O	1.098688	0.070179	0.069707
O36	O	1.432022	0.403513	0.403041
O37	O	0.866913	-0.340058	-0.442183
O38	O	1.200246	-0.006725	-0.108849
O39	O	1.533579	0.326608	0.224484
O40	O	0.765321	-0.340099	-0.340564
O41	O	1.098655	-0.006766	-0.007230
O42	O	1.431988	0.326567	0.326103
O43	O	0.943920	-0.263082	-0.442240
O44	O	1.277254	0.070251	-0.108907
O45	O	1.610587	0.403584	0.224427
O46	O	0.943780	-0.441652	-0.263653
O47	O	1.277113	-0.108319	0.069681
O48	O	1.610446	0.225014	0.403014
O49	O	0.866832	-0.441652	-0.340579
O50	O	1.200166	-0.108319	-0.007246
O51	O	1.533499	0.225014	0.326088
C52	C	0.742604	-0.301632	-0.302085
C53	C	1.075937	0.031702	0.031248
C54	C	1.409271	0.365035	0.364582
C55	C	0.672963	-0.301661	-0.302069
C56	C	1.006296	0.031672	0.031265
C57	C	1.339630	0.365006	0.364598
C58	C	0.640249	-0.341779	-0.342070
C59	C	0.973582	-0.008446	-0.008737
C60	C	1.306915	0.324887	0.324597
C61	C	0.574813	-0.341764	-0.342098
C62	C	0.908147	-0.008431	-0.008765
C63	C	1.241480	0.324903	0.324569
C64	C	0.542095	-0.301637	-0.302113
C65	C	0.875428	0.031696	0.031220
C66	C	1.208761	0.365030	0.364553
C67	C	0.574817	-0.261511	-0.262109
C68	C	0.908150	0.071823	0.071224
C69	C	1.241483	0.405156	0.404558
C70	C	0.640251	-0.261523	-0.262087
C71	C	0.973584	0.071811	0.071247
C72	C	1.306918	0.405144	0.404580
C73	C	0.438378	-0.296596	-0.245708
C74	C	0.771711	0.036737	0.087625
C75	C	1.105045	0.370070	0.420958
C76	C	0.372945	-0.296589	-0.245730
C77	C	0.706278	0.036745	0.087604
C78	C	1.039612	0.370078	0.420937
C79	C	0.340274	-0.301596	-0.302182
C80	C	0.673607	0.031737	0.031151
C81	C	1.006941	0.365071	0.364484
C82	C	0.373044	-0.306624	-0.358616
C83	C	0.706377	0.026709	-0.025282
C84	C	1.039711	0.360043	0.308051
C85	C	0.438478	-0.306636	-0.358593
C86	C	0.771811	0.026697	-0.025260
C87	C	1.105145	0.360031	0.308073
C88	C	0.471142	-0.301619	-0.302133
C89	C	0.804476	0.031714	0.031200
C90	C	1.137809	0.365048	0.364533
C91	C	0.236607	-0.341700	-0.342218
C92	C	0.569940	-0.008367	-0.008884
C93	C	0.903274	0.324967	0.324449
C94	C	0.171171	-0.341680	-0.342247
C95	C	0.504504	-0.008347	-0.008913
C96	C	0.837837	0.324987	0.324420
C97	C	0.171175	-0.261430	-0.262252
C98	C	0.504509	0.071903	0.071081
C99	C	0.837842	0.405237	0.404415
C100	C	0.236611	-0.261446	-0.262229
C101	C	0.569944	0.071887	0.071105
C102	C	0.903277	0.405220	0.404438
C103	C	0.269323	-0.301585	-0.302211
C104	C	0.602656	0.031749	0.031123
C105	C	0.935989	0.365082	0.364456
C106	C	0.905309	-0.464386	-0.302123
C107	C	1.238642	-0.131053	0.031211
C108	C	1.571976	0.202280	0.364544
C109	C	0.905331	-0.534027	-0.302129
C110	C	1.238664	-0.200694	0.031205
C111	C	1.571998	0.132639	0.364538
C112	C	0.945433	-0.566720	-0.262114
C113	C	1.278766	-0.233386	0.071219
C114	C	1.612100	0.099947	0.404552
C115	C	0.945462	-0.632155	-0.262128
C116	C	1.278795	-0.298822	0.071205
C117	C	1.612129	0.034511	0.404538
C118	C	0.905378	-0.664896	-0.302150
C119	C	1.238711	-0.331562	0.031183
C120	C	1.572045	0.001771	0.364516
C121	C	0.865273	-0.632196	-0.342172
C122	C	1.198607	-0.298862	-0.008839
C123	C	1.531940	0.034471	0.324494
C124	C	0.865250	-0.566761	-0.342162
C125	C	1.198583	-0.233428	-0.008828
C126	C	1.531917	0.099905	0.324505
C127	C	0.848963	-0.768626	-0.307041
C128	C	1.182296	-0.435293	0.026292
C129	C	1.515629	-0.101959	0.359626
C130	C	0.848985	-0.834059	-0.307047
C131	C	1.182319	-0.500726	0.026286
C132	C	1.515652	-0.167392	0.359619
C133	C	0.905451	-0.866716	-0.302187
C134	C	1.238784	-0.533383	0.031146
C135	C	1.572118	-0.200050	0.364480
C136	C	0.961896	-0.833933	-0.297307
C137	C	1.295230	-0.500600	0.036026
C138	C	1.628563	-0.167266	0.369360
C139	C	0.961873	-0.768499	-0.297296
C140	C	1.295206	-0.435166	0.036037
C141	C	1.628539	-0.101832	0.369370
C142	C	0.905399	-0.735848	-0.302167
C143	C	1.238733	-0.402515	0.031167
C144	C	1.572066	-0.069181	0.364500
C145	C	0.945588	-0.970361	-0.262186
C146	C	1.278921	-0.637028	0.071148
C147	C	1.612255	-0.303695	0.404481
C148	C	0.945618	-1.035798	-0.262204
C149	C	1.278951	-0.702465	0.071129
C150	C	1.612285	-0.369131	0.404463
C151	C	0.865424	-1.035837	-0.342245
C152	C	1.198757	-0.702504	-0.008911
C153	C	1.532091	-0.369170	0.324422
C154	C	0.865399	-0.970402	-0.342230
C155	C	1.198733	-0.637068	-0.008896
C156	C	1.532066	-0.303735	0.324437
C157	C	0.905481	-0.937668	-0.302197
C158	C	1.238814	-0.604334	0.031137
C159	C	1.572147	-0.271001	0.364470
C160	C	1.068815	-0.301566	-0.302231
C161	C	1.402148	0.031768	0.031102
C162	C	1.735482	0.365101	0.364436
C163	C	1.138456	-0.301552	-0.302262
C164	C	1.471790	0.031782	0.031071
C165	C	1.805123	0.365115	0.364405
C166	C	0.905421	-0.301566	-0.465581
C167	C	1.238754	0.031768	-0.132248
C168	C	1.572087	0.365101	0.201086
C169	C	0.905433	-0.301552	-0.535222
C170	C	1.238766	0.031782	-0.201889
C171	C	1.572099	0.365115	0.131444
C172	C	0.905492	-0.138175	-0.302206
C173	C	1.238825	0.195158	0.031127
C174	C	1.572159	0.528491	0.364460
C175	C	0.905535	-0.068534	-0.302227
C176	C	1.238868	0.264799	0.031106
C177	C	1.572201	0.598133	0.364440
C178	C	0.945552	-0.341486	-1.037025
C179	C	1.278885	-0.008152	-0.703692
C180	C	1.612219	0.325181	-0.370359
C181	C	0.945541	-0.341505	-0.971590
C182	C	1.278874	-0.008172	-0.638256
C183	C	1.612207	0.325161	-0.304923
C184	C	0.905493	-0.301452	-0.938861
C185	C	1.238826	0.031881	-0.605527
C186	C	1.572159	0.365214	-0.272194
C187	C	0.865441	-0.261388	-0.971573
C188	C	1.198775	0.071946	-0.638239
C189	C	1.532108	0.405279	-0.304906
C190	C	0.865449	-0.261373	-1.037007
C191	C	1.198782	0.071960	-0.703673
C192	C	1.532116	0.405293	-0.370340
C193	C	0.900567	-0.245027	-0.835207
C194	C	1.233900	0.088307	-0.501874
C195	C	1.567234	0.421640	-0.168540
C196	C	0.900563	-0.245040	-0.769774
C197	C	1.233897	0.088294	-0.436441
C198	C	1.567230	0.421627	-0.103107
C199	C	0.905464	-0.301497	-0.737040
C200	C	1.238798	0.031837	-0.403707
C201	C	1.572131	0.365170	-0.070373
C202	C	0.910382	-0.357942	-0.769747
C203	C	1.243715	-0.024609	-0.436414
C204	C	1.577049	0.308725	-0.103080
C205	C	0.910390	-0.357928	-0.835181
C206	C	1.243723	-0.024594	-0.501848
C207	C	1.577057	0.308739	-0.168515
C208	C	0.905479	-0.301464	-0.867908
C209	C	1.238812	0.031870	-0.534575
C210	C	1.572146	0.365203	-0.201242
C211	C	0.945498	-0.341584	-0.633383
C212	C	1.278831	-0.008250	-0.300050
C213	C	1.612164	0.325083	0.033283
C214	C	0.945482	-0.341604	-0.567947
C215	C	1.278815	-0.008271	-0.234613
C216	C	1.612149	0.325062	0.098720
C217	C	0.865386	-0.261481	-0.567931
C218	C	1.198719	0.071852	-0.234597
C219	C	1.532053	0.405186	0.098736
C220	C	0.865398	-0.261466	-0.633366
C221	C	1.198732	0.071868	-0.300033
C222	C	1.532065	0.405201	0.033300
C223	C	0.905458	-0.301516	-0.666089
C224	C	1.238791	0.031817	-0.332755
C225	C	1.572124	0.365151	0.000578
C226	C	0.905399	-0.301586	-0.139370
C227	C	1.238733	0.031747	0.193963
C228	C	1.572066	0.365080	0.527297
C229	C	0.905508	-0.301424	-0.069729
C230	C	1.238842	0.031910	0.263604
C231	C	1.572175	0.365243	0.596938
H232	H	0.346445	-0.310700	-0.404585
H233	H	0.679778	0.022633	-0.071252
H234	H	1.013111	0.355966	0.262081
C235	C	0.989613	-0.385548	-1.073016
C236	C	1.322946	-0.052215	-0.739683
C237	C	1.656279	0.281118	-0.406349
N238	N	1.022797	-0.418739	-1.100125
N239	N	1.356131	-0.085406	-0.766792
N240	N	1.689464	0.247928	-0.433459
C241	C	0.538820	-0.385901	-0.386102
C242	C	0.872154	-0.052568	-0.052769
C243	C	1.205487	0.280765	0.280564
N244	N	0.511712	-0.419146	-0.419246
N245	N	0.845046	-0.085813	-0.085912
N246	N	1.178379	0.247520	0.247421
H247	H	0.465157	-0.310728	-0.404543
H248	H	0.798490	0.022605	-0.071210
H249	H	1.131823	0.355938	0.262123
H250	H	1.007832	-0.741808	-0.293325
H251	H	1.341165	-0.408475	0.040009
H252	H	1.674498	-0.075141	0.373342
H253	H	0.978120	-0.658778	-0.229544
H254	H	1.311453	-0.325445	0.103789
H255	H	1.644787	0.007888	0.437123
H256	H	0.144536	-0.374348	-0.374824
H257	H	0.477869	-0.041015	-0.041491
H258	H	0.811202	0.292318	0.291842
C259	C	0.989517	-0.530716	-0.218070
C260	C	1.322850	-0.197383	0.115263
C261	C	1.656183	0.135950	0.448597
N262	N	1.022718	-0.503597	-0.184893
N263	N	1.356052	-0.170264	0.148441
N264	N	1.689385	0.163069	0.481774
H265	H	0.802978	-0.742043	-0.311001
H266	H	1.136311	-0.408709	0.022332
H267	H	1.469644	-0.075376	0.355665
H268	H	0.978226	-0.943708	-0.229590
H269	H	1.311560	-0.610375	0.103743
H270	H	1.644893	-0.277042	0.437076
C271	C	0.821141	-0.530799	-0.386190
C272	C	1.154474	-0.197465	-0.052857
C273	C	1.487807	0.135868	0.280476
N274	N	0.787919	-0.503711	-0.419356
N275	N	1.121253	-0.170377	-0.086023
N276	N	1.454586	0.162956	0.247311
C277	C	0.676238	-0.217391	-0.218077
C278	C	1.009571	0.115943	0.115257
C279	C	1.342904	0.449276	0.448590
N280	N	0.703344	-0.184151	-0.184926
N281	N	1.036677	0.149182	0.148407
N282	N	1.370010	0.482515	0.481741
H283	H	0.144536	-0.228755	-0.229699
H284	H	0.477870	0.104579	0.103635
H285	H	0.811203	0.437912	0.436968
H286	H	0.978158	-0.374122	-0.944957
H287	H	1.311492	-0.040788	-0.611624
H288	H	1.644825	0.292545	-0.278290
H289	H	1.007876	-0.860521	-0.293349
H290	H	1.341210	-0.527188	0.039984
H291	H	1.674543	-0.193855	0.373317
C292	C	0.821332	-1.071848	-0.386271
C293	C	1.154666	-0.738514	-0.052937
C294	C	1.487999	-0.405181	0.280396
N295	N	0.788122	-1.098974	-0.419433
N296	N	1.121455	-0.765641	-0.086100
N297	N	1.454789	-0.432308	0.247233
H298	H	0.978278	-1.062415	-0.229621
H299	H	1.311611	-0.729082	0.103713
H300	H	1.644944	-0.395748	0.437046
H301	H	0.832840	-0.228749	-1.063634
H302	H	1.166174	0.104585	-0.730301
H303	H	1.499507	0.437918	-0.396967
C304	C	0.786895	-0.870114	-0.312414
C305	C	1.120228	-0.536781	0.020920
C306	C	1.453561	-0.203448	0.354253
N307	N	0.740126	-0.897270	-0.316456
N308	N	1.073460	-0.563937	0.016877
N309	N	1.406793	-0.230603	0.350210
C310	C	0.676228	-0.385931	-0.386054
C311	C	1.009561	-0.052597	-0.052720
C312	C	1.342895	0.280736	0.280613
N313	N	0.703329	-0.419185	-0.419183
N314	N	1.036662	-0.085852	-0.085850
N315	N	1.369995	0.247481	0.247484
C316	C	0.272598	-0.217318	-0.218217
C317	C	0.605931	0.116015	0.115116
C318	C	0.939264	0.449349	0.448449
N319	N	0.299703	-0.184078	-0.185067
N320	N	0.633036	0.149255	0.148267
N321	N	0.966369	0.482589	0.481600
C322	C	0.821296	-0.934439	-0.386262
C323	C	1.154630	-0.601105	-0.052929
C324	C	1.487963	-0.267772	0.280405
N325	N	0.788083	-0.907352	-0.419437
N326	N	1.121416	-0.574018	-0.086103
N327	N	1.454750	-0.240685	0.247230
C328	C	0.821179	-0.668211	-0.386194
C329	C	1.154512	-0.334878	-0.052861
C330	C	1.487846	-0.001545	0.280472
N331	N	0.787966	-0.695339	-0.419354
N332	N	1.121299	-0.362005	-0.086020
N333	N	1.454633	-0.028672	0.247313
H334	H	0.914392	-0.403888	-0.861809
H335	H	1.247726	-0.070554	-0.528475
H336	H	1.581059	0.262779	-0.195142
C337	C	0.915771	-0.420050	-0.733745
C338	C	1.249105	-0.086717	-0.400411
C339	C	1.582438	0.246616	-0.067078
N340	N	0.919831	-0.466828	-0.706625
N341	N	1.253164	-0.133495	-0.373291
N342	N	1.586497	0.199838	-0.039958
H343	H	0.263243	-0.374380	-0.374776
H344	H	0.596576	-0.041046	-0.041443
H345	H	0.929909	0.292287	0.291890
C346	C	0.989557	-0.385646	-0.669380
C347	C	1.322890	-0.052312	-0.336047
C348	C	1.656224	0.281021	-0.002713
N349	N	1.022742	-0.418835	-0.696491
N350	N	1.356075	-0.085501	-0.363158
N351	N	1.689409	0.247832	-0.029824
H352	H	0.346269	-0.292498	-0.199778
H353	H	0.679602	0.040835	0.133555
H354	H	1.012935	0.374168	0.466889
H355	H	0.896563	-0.199078	-0.743149
H356	H	1.229896	0.134255	-0.409815
H357	H	1.563230	0.467588	-0.076482
H358	H	0.978087	-0.374234	-0.541320
H359	H	1.311421	-0.040900	-0.207987
H360	H	1.644754	0.292433	0.125346
H361	H	0.464973	-0.292516	-0.199734
H362	H	0.798307	0.040817	0.133599
H363	H	1.131640	0.374150	0.466932
H364	H	0.832776	-0.228870	-0.541284
H365	H	1.166110	0.104463	-0.207950
H366	H	1.499443	0.437796	0.125383
H367	H	0.548173	-0.228838	-0.229554
H368	H	0.881506	0.104496	0.103779
H369	H	1.214840	0.437829	0.437112
H370	H	0.832793	-0.228840	-0.659994
H371	H	1.166126	0.104493	-0.326661
H372	H	1.499459	0.437826	0.006673
C373	C	0.895188	-0.182914	-0.871208
C374	C	1.228521	0.150419	-0.537874
C375	C	1.561855	0.483752	-0.204541
N376	N	0.891141	-0.136132	-0.898323
N377	N	1.224474	0.197201	-0.564989
N378	N	1.557808	0.530534	-0.231656
H379	H	0.832833	-0.228777	-0.944920
H380	H	1.166166	0.104557	-0.611587
H381	H	1.499500	0.437890	-0.278254
