data_functionalizedCrystal
_audit_creation_method	'MofGen! by Chris Wilmer'
_symmetry_space_group_name_H-M	'P1'
_symmetry_Int_Tables_number	1
_symmetry_cell_setting	triclinic
loop_
_symmetry_equiv_pos_as_xyz
  x,y,z
_cell_length_a	12.811457
_cell_length_b	11.026607
_cell_length_c	10.065918
_cell_angle_alpha	82.323124
_cell_angle_beta	85.564143
_cell_angle_gamma	96.259375
loop_
_atom_site_label
_atom_site_type_symbol
_atom_site_fract_x
_atom_site_fract_y
_atom_site_fract_z
O1	O	1.414477	0.154934	0.061583
O2	O	1.117681	0.177892	0.024845
O3	O	1.241480	-0.009939	0.040174
O4	O	1.290678	0.342765	0.046254
O5	O	1.208557	-0.041288	0.263088
O6	O	1.084758	0.146543	0.247759
O7	O	1.381554	0.123584	0.284497
Zn8	Zn	1.227929	0.130086	0.301521
Zn9	Zn	1.271306	0.171390	0.007822
O10	O	1.257755	0.311415	0.269168
C11	C	1.062633	0.161893	0.131526
C12	C	0.947654	0.160910	0.117294
C13	C	1.215943	-0.070713	0.150506
C14	C	1.188888	-0.205094	0.147152
C15	C	1.263593	-0.279816	0.156398
C16	C	1.235633	-0.418707	0.152932
C17	C	0.695696	0.124859	0.333598
C18	C	0.587661	0.123934	0.320232
C19	C	0.623548	0.158126	0.077198
C20	C	0.731582	0.159051	0.090564
C21	C	0.767652	0.142418	0.218768
C22	C	0.875689	0.143352	0.232132
C23	C	0.911573	0.177536	-0.010901
C24	C	0.803538	0.176611	-0.024266
C25	C	1.436602	0.139585	0.177813
C26	C	1.551583	0.140569	0.192037
C27	C	1.283292	0.372190	0.158833
C28	C	1.310348	0.506572	0.162178
N29	N	1.198333	0.101896	0.501963
N30	N	1.300909	0.199571	-0.192620
C31	C	1.238240	0.139884	0.731845
C32	C	1.261011	0.161592	0.577496
H33	H	1.348250	-0.240965	0.166885
F34	F	0.511083	0.105241	0.442450
F35	F	1.421012	-0.442659	0.175870
F36	F	1.124973	-0.469475	0.139222
F37	F	1.393079	0.287363	0.742556
H38	H	1.104232	-0.243945	0.136665
H39	H	0.725065	0.111332	0.437987
F40	F	0.914076	0.125655	0.368577
H41	H	0.594159	0.171647	-0.027180
F42	F	0.765136	0.194278	-0.160703
F43	F	1.353186	0.249388	0.512678
H44	H	0.970173	0.191841	-0.104404
H45	H	1.167732	0.072708	0.781446
H46	H	1.127817	0.034720	0.551556
