data_functionalizedCrystal
_audit_creation_method	'MofGen! by Chris Wilmer'
_symmetry_space_group_name_H-M	'P1'
_symmetry_Int_Tables_number	1
_symmetry_cell_setting	triclinic
loop_
_symmetry_equiv_pos_as_xyz
  x,y,z
_cell_length_a	11.169417
_cell_length_b	13.897441
_cell_length_c	11.169416
_cell_angle_alpha	89.975075
_cell_angle_beta	90.011589
_cell_angle_gamma	89.983906
loop_
_atom_site_label
_atom_site_type_symbol
_atom_site_fract_x
_atom_site_fract_y
_atom_site_fract_z
Zn1	Zn	1.834922	-0.545348	-0.477740
Zn2	Zn	2.334922	-0.045348	0.022260
Zn3	Zn	1.834823	-0.384063	-0.678460
Zn4	Zn	2.334823	0.115937	-0.178460
Zn5	Zn	1.634220	-0.384074	-0.477794
Zn6	Zn	2.134220	0.115926	0.022206
Zn7	Zn	1.634215	-0.545323	-0.678385
Zn8	Zn	2.134215	-0.045323	-0.178385
O9	O	1.734545	-0.464702	-0.578095
O10	O	2.234545	0.035298	-0.078095
O11	O	2.002858	-0.523960	-0.504375
O12	O	2.502858	-0.023960	-0.004375
O13	O	1.808173	-0.249083	-0.651895
O14	O	2.308173	0.250917	-0.151895
O15	O	1.660886	-0.405482	-0.309837
O16	O	2.160886	0.094518	0.190163
O17	O	2.002786	-0.405464	-0.651843
O18	O	2.502786	0.094536	-0.151843
O19	O	1.808341	-0.523970	-0.309798
O20	O	2.308341	-0.023970	0.190202
O21	O	1.660791	-0.249091	-0.504467
O22	O	2.160791	0.250909	-0.004467
O23	O	1.466269	-0.405457	-0.504394
O24	O	1.966269	0.094543	-0.004394
O25	O	1.660879	-0.680308	-0.651715
O26	O	2.160879	-0.180308	-0.151715
O27	O	1.466266	-0.523926	-0.651767
O28	O	1.966266	-0.023926	-0.151767
O29	O	1.808337	-0.680327	-0.504302
O30	O	2.308337	-0.180327	-0.004302
O31	O	1.808169	-0.405439	-0.846400
O32	O	2.308169	0.094561	-0.346400
O33	O	1.660783	-0.523916	-0.846344
O34	O	2.160783	-0.023916	-0.346344
C35	C	1.422720	-0.464691	-0.578079
C36	C	1.922720	0.035309	-0.078079
C37	C	1.289320	-0.464709	-0.578101
C38	C	1.789320	0.035291	-0.078101
C39	C	1.734618	-0.716295	-0.577994
C40	C	2.234618	-0.216295	-0.077994
C41	C	1.734650	-0.823509	-0.577951
C42	C	2.234650	-0.323509	-0.077951
C43	C	1.734674	-0.910579	-0.577917
C44	C	2.234674	-0.410579	-0.077917
C45	C	1.734709	-1.019811	-0.577863
C46	C	2.234709	-0.519811	-0.077863
C47	C	2.047587	-0.464714	-0.578112
C48	C	2.547587	0.035286	-0.078112
C49	C	2.180987	-0.464718	-0.578119
C50	C	2.680987	0.035282	-0.078119
C51	C	1.734497	-0.464695	-0.889919
C52	C	2.234497	0.035305	-0.389919
C53	C	1.734587	-0.464724	-1.023319
C54	C	2.234587	0.035276	-0.523319
C55	C	1.734541	-0.214088	-0.578109
C56	C	2.234541	0.285912	-0.078109
C57	C	1.734742	-0.106874	-0.577813
C58	C	2.234742	0.393126	-0.077813
C59	C	1.734625	-0.464730	-0.265052
C60	C	2.234625	0.035270	0.234948
C61	C	1.734660	-0.464742	-0.131652
C62	C	2.234660	0.035258	0.368348
