data_functionalizedCrystal
_audit_creation_method	'MofGen! by Chris Wilmer'
_symmetry_space_group_name_H-M	'P1'
_symmetry_Int_Tables_number	1
_symmetry_cell_setting	triclinic
loop_
_symmetry_equiv_pos_as_xyz
  x,y,z
_cell_length_a	25.639239
_cell_length_b	19.805407
_cell_length_c	19.805399
_cell_angle_alpha	90.019573
_cell_angle_beta	89.971274
_cell_angle_gamma	89.961314
loop_
_atom_site_label
_atom_site_type_symbol
_atom_site_fract_x
_atom_site_fract_y
_atom_site_fract_z
Zn1	Zn	-0.208163	-1.034678	-0.382714
Zn2	Zn	0.291837	-0.534678	0.117286
Zn3	Zn	-0.295597	-1.034569	-0.269524
Zn4	Zn	0.204403	-0.534569	0.230476
Zn5	Zn	-0.208177	-0.921493	-0.269539
Zn6	Zn	0.291823	-0.421493	0.230461
Zn7	Zn	-0.295569	-0.921432	-0.382670
Zn8	Zn	0.204431	-0.421432	0.117330
O9	O	-0.251877	-0.978043	-0.326112
O10	O	0.248123	-0.478043	0.173888
O11	O	-0.219767	-1.129380	-0.367711
O12	O	0.280233	-0.629380	0.132289
O13	O	-0.284018	-1.019548	-0.174809
O14	O	0.215982	-0.519548	0.325191
O15	O	-0.135010	-0.936578	-0.284576
O16	O	0.364990	-0.436578	0.215424
O17	O	-0.284004	-1.129300	-0.284551
O18	O	0.215996	-0.629300	0.215449
O19	O	-0.135000	-1.019735	-0.367726
O20	O	0.365000	-0.519735	0.132274
O21	O	-0.219791	-0.936472	-0.174820
O22	O	0.280209	-0.436472	0.325180
O23	O	-0.219764	-0.826768	-0.284534
O24	O	0.280236	-0.326768	0.215466
O25	O	-0.283957	-0.936475	-0.477393
O26	O	0.216043	-0.436475	0.022607
O27	O	-0.283971	-0.826723	-0.367651
O28	O	0.216029	-0.326723	0.132349
O29	O	-0.219740	-1.019676	-0.477425
O30	O	0.280260	-0.519676	0.022575
O31	O	-0.368758	-1.019489	-0.284508
O32	O	0.131242	-0.519489	0.215492
O33	O	-0.368738	-0.936368	-0.367637
O34	O	0.131262	-0.436368	0.132363
C35	C	-0.387719	-0.977929	-0.326081
C36	C	0.112281	-0.477929	0.173919
C37	C	-0.445833	-0.977942	-0.326090
C38	C	0.054167	-0.477942	0.173910
C39	C	-0.251867	-0.802187	-0.326090
C40	C	0.248133	-0.302187	0.173910
C41	C	-0.251875	-0.726955	-0.326097
C42	C	0.248125	-0.226955	0.173903
C43	C	-0.251844	-0.978081	-0.502655
C44	C	0.248156	-0.478081	-0.002655
C45	C	-0.251830	-0.978097	-0.577887
C46	C	0.248170	-0.478097	-0.077887
C47	C	-0.806194	-1.021437	-0.282901
C48	C	-0.306194	-0.521437	0.217099
C49	C	-0.860799	-1.021463	-0.282910
C50	C	-0.360799	-0.521463	0.217090
O51	O	-0.889034	-1.058326	-0.246154
O52	O	-0.389034	-0.558326	0.253846
N53	N	-0.888116	-0.978162	-0.326157
N54	N	-0.388116	-0.478162	0.173843
C55	C	-0.860825	-0.934836	-0.369402
C56	C	-0.360825	-0.434836	0.130598
O57	O	-0.889075	-0.898008	-0.406189
O58	O	-0.389075	-0.398008	0.093811
C59	C	-0.806222	-0.934814	-0.369396
C60	C	-0.306222	-0.434814	0.130604
C61	C	-0.778908	-0.978113	-0.326141
C62	C	-0.278908	-0.478113	0.173859
C63	C	-0.778880	-1.064733	-0.239650
C64	C	-0.278880	-0.564733	0.260350
C65	C	-0.724279	-1.064706	-0.239640
C66	C	-0.224279	-0.564706	0.260360
C67	C	-0.696993	-1.021382	-0.282881
C68	C	-0.196993	-0.521382	0.217119
C69	C	-0.724307	-0.978086	-0.326132
C70	C	-0.224307	-0.478086	0.173868
C71	C	-0.778933	-0.891492	-0.412645
C72	C	-0.278933	-0.391492	0.087355
C73	C	-0.724326	-0.891474	-0.412635
C74	C	-0.224326	-0.391474	0.087365
C75	C	-0.697012	-0.934773	-0.369381
C76	C	-0.197012	-0.434773	0.130619
C77	C	-0.642421	-0.934735	-0.369363
C78	C	-0.142421	-0.434735	0.130637
N79	N	-0.615104	-0.978036	-0.326116
N80	N	-0.115104	-0.478036	0.173884
C81	C	-0.642390	-1.021360	-0.282875
C82	C	-0.142390	-0.521360	0.217125
C83	C	-0.975496	-0.934887	-0.369413
C84	C	-0.475496	-0.434887	0.130587
C85	C	-1.030098	-0.934906	-0.369416
C86	C	-0.530098	-0.434906	0.130584
C87	C	-1.030068	-1.021533	-0.282924
C88	C	-0.530068	-0.521533	0.217076
C89	C	-0.975464	-1.021511	-0.282918
C90	C	-0.475464	-0.521511	0.217082
C91	C	-0.948179	-0.978188	-0.326166
C92	C	-0.448179	-0.478188	0.173834
C93	C	-0.527725	-1.021299	-0.282857
C94	C	-0.027725	-0.521299	0.217143
C95	C	-0.473119	-1.021266	-0.282849
C96	C	0.026881	-0.521266	0.217151
C97	C	-0.473155	-0.934641	-0.369343
C98	C	0.026845	-0.434641	0.130657
C99	C	-0.527756	-0.934671	-0.369349
C100	C	-0.027756	-0.434671	0.130651
C101	C	-0.555039	-0.978006	-0.326104
C102	C	-0.055039	-0.478006	0.173896
O103	O	-0.614151	-0.897893	-0.406101
O104	O	-0.114151	-0.397893	0.093899
O105	O	-0.614134	-1.058188	-0.246101
O106	O	-0.114134	-0.558188	0.253899
C107	C	-0.115504	-0.978175	-0.326158
C108	C	0.384496	-0.478175	0.173842
C109	C	-0.057389	-0.978232	-0.326177
C110	C	0.442611	-0.478232	0.173823
C111	C	-0.251887	-1.154585	-0.326134
C112	C	0.248113	-0.654585	0.173866
C113	C	-0.251891	-1.229817	-0.326144
C114	C	0.248109	-0.729817	0.173856
C115	C	-0.285357	-0.691605	-0.369306
C116	C	0.214643	-0.191605	0.130694
C117	C	-0.285358	-0.620917	-0.369315
C118	C	0.214642	-0.120917	0.130685
C119	C	-0.251879	-0.585579	-0.326112
C120	C	0.248121	-0.085579	0.173888
C121	C	-0.218393	-0.620934	-0.282901
C122	C	0.281607	-0.120934	0.217099
C123	C	-0.218390	-0.691621	-0.282895
C124	C	0.281610	-0.191621	0.217105
C125	C	-0.218404	-0.335860	-0.282923
C126	C	0.281596	0.164140	0.217077
C127	C	-0.218411	-0.265168	-0.282931
C128	C	0.281589	0.234832	0.217069
C129	C	-0.285373	-0.265156	-0.369343
C130	C	0.214627	0.234844	0.130657
C131	C	-0.285370	-0.335843	-0.369338
C132	C	0.214630	0.164157	0.130662
C133	C	-0.251882	-0.371192	-0.326129
C134	C	0.248118	0.128808	0.173871
C135	C	-0.251881	-0.447840	-0.326121
C136	C	0.248119	0.052160	0.173879
C137	C	-0.251883	-0.508932	-0.326117
C138	C	0.248117	-0.008932	0.173883
C139	C	-0.218390	-1.021421	-0.613249
C140	C	0.281610	-0.521421	-0.113249
C141	C	-0.218375	-1.021428	-0.683937
C142	C	0.281625	-0.521428	-0.183937
C143	C	-0.251802	-0.978114	-0.719262
C144	C	0.248198	-0.478114	-0.219262
C145	C	-0.285243	-0.934785	-0.683895
C146	C	0.214757	-0.434785	-0.183895
C147	C	-0.285255	-0.934775	-0.613208
C148	C	0.214745	-0.434775	-0.113208
C149	C	-0.285194	-0.934823	-0.968969
C150	C	0.214806	-0.434823	-0.468969
C151	C	-0.285181	-0.934838	-1.039661
C152	C	0.214819	-0.434838	-0.539661
C153	C	-0.218314	-1.021476	-1.039698
C154	C	0.281686	-0.521476	-0.539698
C155	C	-0.218326	-1.021466	-0.969011
C156	C	0.281674	-0.521466	-0.469011
C157	C	-0.251765	-0.978135	-0.933650
C158	C	0.248235	-0.478135	-0.433650
C159	C	-0.251780	-0.978127	-0.857001
C160	C	0.248220	-0.478127	-0.357001
C161	C	-0.251790	-0.978125	-0.795909
C162	C	0.248210	-0.478125	-0.295909
C163	C	-0.251872	-0.978044	-0.150256
C164	C	0.248128	-0.478044	0.349744
C165	C	-0.251738	-0.978159	-0.075024
C166	C	0.248262	-0.478159	0.424976
H167	H	-0.450882	-1.056525	-0.247624
H168	H	0.049118	-0.556525	0.252376
F169	F	-0.321014	-0.227530	-0.415330
F170	F	0.178986	0.272470	0.084670
F171	F	-0.320760	-0.888734	-1.077255
F172	F	0.179240	-0.388734	-0.577255
F173	F	-0.182752	-0.729242	-0.236907
F174	F	0.317248	-0.229242	0.263093
F175	F	-0.182814	-1.067526	-0.575659
F176	F	0.317186	-0.567526	-0.075659
F177	F	-0.807912	-1.110849	-0.193624
F178	F	-0.307912	-0.610849	0.306376
H179	H	-0.191146	-1.056708	-0.712726
H180	H	0.308854	-0.556708	-0.212726
H181	H	-0.191145	-0.236399	-0.247749
H182	H	0.308855	0.263601	0.252251
F183	F	-0.556754	-1.067420	-0.236831
F184	F	-0.056754	-0.567420	0.263169
H185	H	-0.702113	-0.856196	-0.447855
H186	H	-0.202113	-0.356196	0.052145
H187	H	-0.450930	-0.899365	-0.404548
H188	H	0.049070	-0.399365	0.095452
H189	H	-0.191140	-0.364633	-0.247735
H190	H	0.308860	0.135367	0.252265
F191	F	-1.059117	-1.067642	-0.236902
F192	F	-0.559117	-0.567642	0.263098
F193	F	-0.946399	-1.067596	-0.236881
F194	F	-0.446399	-0.567596	0.263119
H195	H	-0.191131	-0.592156	-0.247727
H196	H	0.308869	-0.092156	0.252273
F197	F	-0.320845	-0.888662	-0.575574
F198	F	0.179155	-0.388662	-0.075574
F199	F	-0.182750	-1.067569	-0.931419
F200	F	0.317250	-0.567569	-0.431419
H201	H	-0.702043	-1.099966	-0.204421
H202	H	-0.202043	-0.599966	0.295579
F203	F	-0.807991	-0.845412	-0.458689
F204	F	-0.307991	-0.345412	0.041311
F205	F	-0.182724	-1.067591	-1.077337
F206	F	0.317276	-0.567591	-0.577337
H207	H	-0.312430	-0.899550	-0.940187
H208	H	0.187570	-0.399550	-0.440187
H209	H	-0.312622	-0.720372	-0.404485
H210	H	0.187378	-0.220372	0.095515
H211	H	-0.312458	-0.899515	-0.712663
H212	H	0.187542	-0.399515	-0.212663
F213	F	-0.946462	-0.888769	-0.415442
F214	F	-0.446462	-0.388769	0.084558
F215	F	-1.059162	-0.888813	-0.415446
F216	F	-0.559162	-0.388813	0.084554
F217	F	-0.320995	-0.583298	-0.415305
F218	F	0.179005	-0.083298	0.084695
F219	F	-0.556826	-0.888575	-0.415373
F220	F	-0.056826	-0.388575	0.084627
F221	F	-0.321005	-0.373448	-0.415318
F222	F	0.178995	0.126552	0.084682
