data_functionalizedCrystal
_audit_creation_method	'MofGen! by Chris Wilmer'
_symmetry_space_group_name_H-M	'P1'
_symmetry_Int_Tables_number	1
_symmetry_cell_setting	triclinic
loop_
_symmetry_equiv_pos_as_xyz
  x,y,z
_cell_length_a	17.699077
_cell_length_b	19.188930
_cell_length_c	16.176319
_cell_angle_alpha	89.988074
_cell_angle_beta	89.993140
_cell_angle_gamma	83.212679
loop_
_atom_site_label
_atom_site_type_symbol
_atom_site_fract_x
_atom_site_fract_y
_atom_site_fract_z
O1	O	1.003965	0.088275	-0.068745
O2	O	1.503965	0.588275	0.431255
O3	O	0.783571	0.099766	-0.068750
O4	O	1.283571	0.599766	0.431250
O5	O	0.900128	-0.007628	-0.068731
O6	O	1.400128	0.492372	0.431269
O7	O	0.887408	0.195669	-0.068764
O8	O	1.387408	0.695669	0.431236
O9	O	0.900112	-0.007635	0.068762
O10	O	1.400112	0.492365	0.568762
O11	O	0.783555	0.099759	0.068743
O12	O	1.283555	0.599759	0.568743
O13	O	1.003949	0.088268	0.068748
O14	O	1.503949	0.588268	0.568748
Cu15	Cu	0.893751	0.094013	0.081300
Cu16	Cu	1.393751	0.594013	0.581300
Cu17	Cu	0.893770	0.094021	-0.081302
Cu18	Cu	1.393770	0.594021	0.418698
O19	O	0.887392	0.195662	0.068729
O20	O	1.387392	0.695662	0.568729
C21	C	0.755367	0.099352	-0.000004
C22	C	1.255367	0.599352	0.499996
C23	C	0.671350	0.098119	-0.000005
C24	C	1.171350	0.598119	0.499995
C25	C	0.631875	0.097534	0.074943
C26	C	1.131875	0.597534	0.574943
C27	C	0.552934	0.096364	0.074944
C28	C	1.052934	0.596364	0.574944
C29	C	0.513469	0.095784	-0.000004
C30	C	1.013469	0.595784	0.499996
C31	C	0.552950	0.096367	-0.074958
C32	C	1.052950	0.596367	0.425042
C33	C	0.631890	0.097532	-0.074959
C34	C	1.131890	0.597532	0.425041
C35	C	0.234593	0.091668	-0.074959
C36	C	0.734593	0.591668	0.425041
C37	C	0.155647	0.090505	-0.074953
C38	C	0.655647	0.590505	0.425047
C39	C	0.155636	0.090501	0.074944
C40	C	0.655636	0.590501	0.574944
C41	C	0.234577	0.091665	0.074943
C42	C	0.734577	0.591665	0.574943
C43	C	0.274051	0.092244	-0.000010
C44	C	0.774051	0.592244	0.499990
C45	C	0.359648	0.093512	-0.000011
C46	C	0.859648	0.593512	0.499989
C47	C	0.427872	0.094522	-0.000005
C48	C	0.927872	0.594522	0.499995
C49	C	0.899708	-0.033643	0.000018
C50	C	1.399708	0.466357	0.500018
C51	C	0.898472	-0.111149	0.000025
C52	C	1.398472	0.388851	0.500025
C53	C	0.966864	-0.155998	0.000030
C54	C	1.466864	0.344002	0.500030
C55	C	0.965702	-0.228823	0.000017
C56	C	1.465702	0.271177	0.500017
C57	C	0.896145	-0.256796	0.000015
C58	C	1.396145	0.243204	0.500015
C59	C	0.827744	-0.211937	0.000005
C60	C	1.327744	0.288063	0.500005
C61	C	0.828907	-0.139114	0.000010
C62	C	1.328907	0.360886	0.500010
N63	N	0.842971	-0.364862	0.046805
N64	N	1.342971	0.135138	0.546805
N65	N	0.841870	-0.434041	0.046802
N66	N	1.341870	0.065959	0.546802
C67	C	0.892634	-0.476208	-0.000002
C68	C	1.392634	0.023792	0.499998
N69	N	0.944553	-0.446583	-0.046793
N70	N	1.444553	0.053417	0.453207
N71	N	0.945656	-0.377397	-0.046786
N72	N	1.445656	0.122603	0.453214
C73	C	0.894875	-0.335760	0.000009
C74	C	1.394875	0.164240	0.500009
C75	C	0.959771	-0.600023	-0.000012
C76	C	1.459771	-0.100023	0.499988
C77	C	0.958607	-0.672849	-0.000030
C78	C	1.458607	-0.172849	0.499970
C79	C	0.820646	-0.655962	-0.000035
C80	C	1.320646	-0.155962	0.499965
C81	C	0.821813	-0.583137	-0.000024
C82	C	1.321813	-0.083137	0.499976
C83	C	0.891378	-0.555173	-0.000009
C84	C	1.391378	-0.055173	0.499991
C85	C	1.032154	0.088682	0.000000
C86	C	1.532154	0.588682	0.500000
C87	C	1.116171	0.089915	-0.000004
C88	C	1.616171	0.589915	0.499996
C89	C	0.887812	0.221677	-0.000021
C90	C	1.387812	0.721677	0.499979
C91	C	0.889049	0.299183	-0.000034
C92	C	1.389049	0.799183	0.499966
N93	N	0.893743	0.094007	0.195665
N94	N	1.393743	0.594007	0.695665
N95	N	0.893784	0.094022	-0.195667
N96	N	1.393784	0.594022	0.304333
C97	C	0.945370	0.046472	0.238938
C98	C	1.445370	0.546472	0.738938
C99	C	0.945374	0.046471	0.325485
C100	C	1.445374	0.546471	0.825485
C101	C	0.893754	0.094009	0.368758
C102	C	1.393754	0.594009	0.868758
C103	C	0.842121	0.141546	0.325479
C104	C	1.342121	0.641546	0.825479
C105	C	0.842115	0.141543	0.238934
C106	C	1.342115	0.641543	0.738934
C107	C	0.842147	0.141560	0.674507
C108	C	1.342147	0.641560	1.174507
C109	C	0.842160	0.141560	0.761059
C110	C	1.342160	0.641560	1.261059
C111	C	0.945407	0.046488	0.761058
C112	C	1.445407	0.546488	1.261058
C113	C	0.945400	0.046484	0.674513
C114	C	1.445400	0.546484	1.174513
C115	C	0.893765	0.094019	0.631242
C116	C	1.393765	0.594019	1.131242
C117	C	0.893761	0.094018	0.537398
C118	C	1.393761	0.594018	1.037398
C119	C	0.893761	0.094014	0.462600
C120	C	1.393761	0.594014	0.962600
H121	H	0.123517	0.090032	-0.135989
H122	H	0.623517	0.590032	0.364011
F123	F	1.000359	-0.004106	0.807117
F124	F	1.500359	0.495894	1.307117
F125	F	0.673869	0.098156	0.154715
F126	F	1.173869	0.598156	0.654715
H127	H	0.520798	0.095876	0.135975
H128	H	1.020798	0.595876	0.635975
H129	H	1.021397	-0.265345	0.000018
H130	H	1.521397	0.234655	0.500018
F131	F	1.031403	-0.720581	-0.000030
F132	F	1.531403	-0.220581	0.499970
F133	F	1.000320	-0.004121	0.371539
F134	F	1.500320	0.495879	0.871539
H135	H	0.266705	0.092141	0.135974
H136	H	0.766705	0.592141	0.635974
H137	H	0.123487	0.090026	0.135975
H138	H	0.623487	0.590026	0.635975
F139	F	0.787215	0.192159	0.807112
F140	F	1.287215	0.692159	1.307112
F141	F	0.746617	-0.685728	-0.000041
F142	F	1.246617	-0.185728	0.499959
H143	H	0.266724	0.092137	-0.135991
H144	H	0.766724	0.592137	0.364009
H145	H	0.771109	-0.234718	0.000001
H146	H	1.271109	0.265282	0.500001
F147	F	0.510949	0.095728	-0.154724
F148	F	1.010949	0.595728	0.345276
H149	H	0.773213	-0.102597	0.000005
H150	H	1.273213	0.397403	0.500005
H151	H	0.766121	-0.546620	-0.000024
H152	H	1.266121	-0.046620	0.499976
F153	F	1.033807	-0.570258	0.000008
F154	F	1.533807	-0.070258	0.500008
F155	F	0.673903	0.098151	-0.154729
F156	F	1.173903	0.598151	0.345271
H157	H	0.987436	0.007777	0.639283
H158	H	1.487436	0.507777	1.139283
F159	F	0.787197	0.192150	0.628462
F160	F	1.287197	0.692150	1.128462
F161	F	0.787179	0.192137	0.371534
F162	F	1.287179	0.692137	0.871534
F163	F	1.040901	-0.126240	0.000029
F164	F	1.540901	0.373760	0.500029
H165	H	0.987408	0.007764	0.203710
H166	H	1.487408	0.507764	0.703710
H167	H	0.800074	0.180250	0.203702
H168	H	1.300074	0.680250	0.703702
