data_functionalizedCrystal
_audit_creation_method	'MofGen! by Chris Wilmer'
_symmetry_space_group_name_H-M	'P1'
_symmetry_Int_Tables_number	1
_symmetry_cell_setting	triclinic
loop_
_symmetry_equiv_pos_as_xyz
  x,y,z
_cell_length_a	10.654562
_cell_length_b	10.654551
_cell_length_c	9.730223
_cell_angle_alpha	90.001469
_cell_angle_beta	89.996961
_cell_angle_gamma	84.487733
loop_
_atom_site_label
_atom_site_type_symbol
_atom_site_fract_x
_atom_site_fract_y
_atom_site_fract_z
O1	O	1.667825	0.176469	-0.114371
O2	O	1.302349	0.193259	-0.114353
O3	O	1.493489	0.002125	-0.114363
O4	O	1.476685	0.367603	-0.114361
O5	O	1.493487	0.002130	0.114217
O6	O	1.302347	0.193263	0.114227
O7	O	1.667823	0.176474	0.114209
Zn8	Zn	1.485085	0.184869	0.150510
Zn9	Zn	1.485088	0.184863	-0.150654
O10	O	1.476683	0.367607	0.114219
C11	C	1.255550	0.192025	-0.000061
C12	C	1.116108	0.188327	-0.000054
C13	C	1.492254	-0.044670	-0.000076
C14	C	1.488562	-0.184114	-0.000085
C15	C	1.050576	0.186604	0.124534
C16	C	0.919554	0.183139	0.124511
C17	C	0.919606	0.183125	-0.124700
C18	C	1.050627	0.186581	-0.124675
C19	C	1.050544	0.186618	0.268414
C20	C	0.919521	0.183153	0.268391
C21	C	1.486831	-0.249629	-0.124682
C22	C	1.483351	-0.380649	-0.124675
C23	C	1.483338	-0.380629	0.124535
C24	C	1.486809	-0.249610	0.124527
C25	C	1.486844	-0.249642	-0.268562
C26	C	1.483363	-0.380662	-0.268555
C27	C	1.714622	0.177708	-0.000086
C28	C	1.854064	0.181406	-0.000102
C29	C	1.477918	0.414403	-0.000071
C30	C	1.481610	0.553846	-0.000071
N31	N	1.485092	0.184873	0.356046
N32	N	1.485090	0.184850	-0.356190
C33	C	1.569751	0.100268	0.427968
C34	C	1.569747	0.100253	0.571851
C35	C	1.400422	0.269459	0.571878
C36	C	1.400420	0.269467	0.427998
C37	C	1.667513	0.002582	0.427953
C38	C	1.667510	0.002567	0.571836
H39	H	1.103980	0.187964	-0.226127
H40	H	1.080118	0.278215	0.313058
N41	N	1.309108	0.360704	0.649479
H42	H	1.219853	0.345402	0.624439
H43	H	1.322059	0.347816	0.751517
N44	N	0.848967	0.181250	-0.259099
H45	H	0.862284	0.259565	-0.313574
H46	H	0.881307	0.104081	-0.313457
H47	H	0.889932	0.091560	0.313036
H48	H	1.488212	-0.196272	0.225986
N49	N	1.362023	-0.419827	-0.327674
H50	H	1.352469	-0.389410	-0.425767
H51	H	1.363954	-0.514762	-0.325411
N52	N	1.639115	-0.125281	0.376205
H53	H	1.626434	-0.182345	0.456892
H54	H	1.559978	-0.115796	0.318507
H55	H	1.481908	-0.433972	0.225990
H56	H	1.758697	0.033175	0.383323
H57	H	1.400055	-0.203366	-0.323807
H58	H	1.764021	0.024089	0.610883
H59	H	1.636997	-0.088657	0.616453
N60	N	0.858195	0.298121	0.341547
H61	H	0.925331	0.351929	0.374202
H62	H	0.799337	0.348488	0.276275
H63	H	1.096803	0.099825	0.323666
N64	N	1.608159	-0.210447	-0.327716
H65	H	1.652797	-0.162510	-0.256043
H66	H	1.664135	-0.287933	-0.356300
H67	H	1.570154	-0.426951	-0.323802
H68	H	1.331474	0.338348	0.369440
