data_functionalizedCrystal
_audit_creation_method	'MofGen! by Chris Wilmer'
_symmetry_space_group_name_H-M	'P1'
_symmetry_Int_Tables_number	1
_symmetry_cell_setting	triclinic
loop_
_symmetry_equiv_pos_as_xyz
  x,y,z
_cell_length_a	10.654550
_cell_length_b	19.188930
_cell_length_c	9.730223
_cell_angle_alpha	89.993564
_cell_angle_beta	89.996251
_cell_angle_gamma	83.814841
loop_
_atom_site_label
_atom_site_type_symbol
_atom_site_fract_x
_atom_site_fract_y
_atom_site_fract_z
O1	O	1.665759	0.098059	-0.114420
O2	O	1.300083	0.107401	-0.114400
O3	O	1.493474	0.001144	-0.114384
O4	O	1.472368	0.204317	-0.114436
O5	O	1.493471	0.001146	0.114196
O6	O	1.300081	0.107404	0.114180
O7	O	1.665757	0.098061	0.114160
Zn8	Zn	1.482918	0.102733	0.150462
Zn9	Zn	1.482921	0.102730	-0.150702
O10	O	1.472366	0.204319	0.114144
C11	C	1.253298	0.106717	-0.000107
C12	C	1.113898	0.104664	-0.000098
C13	C	1.492789	-0.024871	-0.000090
C14	C	1.490737	-0.102389	-0.000078
C15	C	1.033089	0.167227	-0.000134
C16	C	0.902109	0.165295	-0.000157
C17	C	0.932761	0.038231	-0.000114
C18	C	1.063738	0.040164	-0.000081
C19	C	1.083249	0.231728	-0.000151
C20	C	1.002438	0.294296	-0.000189
C21	C	0.871458	0.292363	-0.000212
C22	C	0.821289	0.227863	-0.000198
C23	C	1.604213	-0.146570	-0.000078
C24	C	1.602285	-0.219407	-0.000099
C25	C	1.486876	-0.248058	-0.000094
C26	C	1.373386	-0.203867	-0.000102
C27	C	1.375316	-0.131032	-0.000094
N28	N	1.398658	-0.356639	0.077701
N29	N	1.396832	-0.425830	0.077696
C30	C	1.481052	-0.467505	-0.000121
N31	N	1.567186	-0.437377	-0.077917
N32	N	1.569016	-0.368180	-0.077906
C33	C	1.484770	-0.327034	-0.000104
C34	C	1.592445	-0.590665	-0.000147
C35	C	1.590513	-0.663502	-0.000177
C36	C	1.361610	-0.647960	-0.000166
C37	C	1.363545	-0.575125	-0.000149
C38	C	1.478966	-0.546481	-0.000133
C39	C	1.712541	0.098746	-0.000136
C40	C	1.851941	0.100798	-0.000154
C41	C	1.473051	0.230334	-0.000153
C42	C	1.475102	0.307852	-0.000174
N43	N	1.482925	0.102735	0.355998
N44	N	1.482924	0.102722	-0.356238
C45	C	1.568581	0.055700	0.427932
C46	C	1.568577	0.055692	0.571815
C47	C	1.397260	0.149759	0.571818
C48	C	1.397258	0.149764	0.427938
C49	C	1.654248	0.008672	0.355992
C50	C	1.739911	-0.038367	0.427925
C51	C	1.739908	-0.038375	0.571808
C52	C	1.654242	0.008655	0.643758
H53	H	1.189898	0.233309	-0.000138
H54	H	1.682922	-0.699475	-0.000185
H55	H	1.694693	-0.255386	-0.000105
H56	H	1.267641	-0.671287	-0.000168
H57	H	1.686428	-0.567342	-0.000140
H58	H	1.271141	-0.539151	-0.000142
H59	H	1.809651	-0.076661	0.369336
H60	H	0.891902	-0.014283	-0.000125
N61	N	1.248907	-0.234764	-0.000103
H62	H	1.264901	-0.287609	-0.000104
H63	H	1.199263	-0.218645	0.084635
N64	N	1.056534	0.363863	-0.000211
H65	H	1.027022	0.391305	0.084510
H66	H	1.151762	0.355540	-0.000247
H67	H	0.714635	0.226294	-0.000195
N68	N	1.832304	-0.089100	0.649397
H69	H	1.886576	-0.118886	0.581987
H70	H	1.887655	-0.062072	0.709078
N71	N	0.784295	0.359842	-0.000165
H72	H	0.835951	0.400993	-0.000146
H73	H	0.729271	0.361830	-0.084890
H74	H	1.129536	-0.010780	-0.000055
N75	N	1.252921	-0.083373	-0.000095
H76	H	1.179513	-0.112572	-0.000100
H77	H	1.248734	-0.052824	0.084649
H78	H	1.654261	0.008676	0.238835
H79	H	1.698197	-0.123254	-0.000069
H80	H	1.654238	0.008639	0.760917
N81	N	1.304869	0.200481	0.649414
H82	H	1.317869	0.193342	0.751477
H83	H	1.319094	0.250088	0.624259
H84	H	1.327509	0.188064	0.369370
