data_functionalizedCrystal
_audit_creation_method	'MofGen! by Chris Wilmer'
_symmetry_space_group_name_H-M	'P1'
_symmetry_Int_Tables_number	1
_symmetry_cell_setting	triclinic
loop_
_symmetry_equiv_pos_as_xyz
  x,y,z
_cell_length_a	19.288856
_cell_length_b	17.766277
_cell_length_c	19.288859
_cell_angle_alpha	89.997401
_cell_angle_beta	96.866756
_cell_angle_gamma	90.011390
loop_
_atom_site_label
_atom_site_type_symbol
_atom_site_fract_x
_atom_site_fract_y
_atom_site_fract_z
O1	O	-0.921355	-0.062624	0.086620
O2	O	-0.588022	0.270709	0.419953
O3	O	-0.254688	0.604042	0.753286
O4	O	-0.719093	-0.062618	0.098315
O5	O	-0.385760	0.270716	0.431648
O6	O	-0.052427	0.604049	0.764981
O7	O	-0.826071	-0.062621	-0.008664
O8	O	-0.492737	0.270712	0.324670
O9	O	-0.159404	0.604045	0.658003
O10	O	-0.814378	-0.062621	0.193598
O11	O	-0.481044	0.270713	0.526931
O12	O	-0.147711	0.604046	0.860265
O13	O	-0.826052	0.062567	-0.008667
O14	O	-0.492718	0.395901	0.324667
O15	O	-0.159385	0.729234	0.658000
O16	O	-0.719074	0.062571	0.098312
O17	O	-0.385741	0.395904	0.431645
O18	O	-0.052408	0.729238	0.764978
O19	O	-0.921336	0.062564	0.086617
O20	O	-0.588003	0.395898	0.419950
O21	O	-0.254669	0.729231	0.753283
Cu22	Cu	-0.820203	0.073998	0.092464
Cu23	Cu	-0.486870	0.407332	0.425797
Cu24	Cu	-0.153537	0.740665	0.759130
Cu25	Cu	-0.820226	-0.074052	0.092467
Cu26	Cu	-0.486893	0.259282	0.425801
Cu27	Cu	-0.153559	0.592615	0.759134
O28	O	-0.814358	0.062568	0.193595
O29	O	-0.481025	0.395901	0.526928
O30	O	-0.147692	0.729234	0.860261
C31	C	-0.693207	-0.000023	0.097938
C32	C	-0.359874	0.333311	0.431271
C33	C	-0.026541	0.666644	0.764604
C34	C	-0.616103	-0.000020	0.096811
C35	C	-0.282770	0.333313	0.430144
C36	C	0.050563	0.666646	0.763478
C37	C	-0.825686	-0.000029	-0.034542
C38	C	-0.492352	0.333305	0.298792
C39	C	-0.159019	0.666638	0.632125
C40	C	-0.824558	-0.000033	-0.111646
C41	C	-0.491225	0.333300	0.221688
C42	C	-0.157892	0.666633	0.555021
C43	C	-0.052061	-0.000009	0.151959
C44	C	0.281273	0.333324	0.485293
C45	C	0.614606	0.666657	0.818626
C46	C	-0.124507	-0.000015	0.153024
C47	C	0.208826	0.333319	0.486357
C48	C	0.542159	0.666652	0.819691
C49	C	-0.169216	-0.000014	0.090254
C50	C	0.164118	0.333319	0.423588
C51	C	0.497451	0.666652	0.756921
C52	C	-0.141472	-0.000028	0.026415
C53	C	0.191861	0.333305	0.359748
C54	C	0.525195	0.666639	0.693082
C55	C	-0.069027	-0.000030	0.025352
C56	C	0.264307	0.333303	0.358685
C57	C	0.597640	0.666637	0.692019
C58	C	-0.290480	0.043845	0.043439
C59	C	0.042853	0.377178	0.376772
C60	C	0.376186	0.710511	0.710106
C61	C	-0.362924	0.043852	0.044504
C62	C	-0.029591	0.377185	0.377838
C63	C	0.303743	0.710518	0.711171
C64	C	-0.392662	-0.000011	0.093530
C65	C	-0.059328	0.333322	0.426863
C66	C	0.274005	0.666655	0.760197
C67	C	-0.349945	-0.043871	0.141501
C68	C	-0.016612	0.289462	0.474835
C69	C	0.316722	0.622795	0.808168
C70	C	-0.277500	-0.043873	0.140439
C71	C	0.055834	0.289460	0.473772
C72	C	0.389167	0.622793	0.807105
C73	C	-0.247771	-0.000013	0.091400
C74	C	0.085562	0.333321	0.424733
C75	C	0.418895	0.666654	0.758066
C76	C	-0.498952	-0.000009	0.158520
C77	C	-0.165619	0.333324	0.491853
C78	C	0.167715	0.666657	0.825186
C79	C	-0.571400	-0.000019	0.159582
C80	C	-0.238067	0.333314	0.492915
C81	C	0.095267	0.666647	0.826248
C82	C	-0.588363	-0.000025	0.032971
C83	C	-0.255030	0.333308	0.366304
C84	C	0.078303	0.666642	0.699637
C85	C	-0.515916	-0.000022	0.031910
C86	C	-0.182583	0.333311	0.365244
C87	C	0.150750	0.666644	0.698577
C88	C	-0.471215	-0.000011	0.094687
C89	C	-0.137881	0.333322	0.428020
C90	C	0.195452	0.666656	0.761354
N91	N	-0.820193	0.178129	0.092461
N92	N	-0.486859	0.511462	0.425794
N93	N	-0.153526	0.844795	0.759127
C94	C	0.052778	-0.000027	0.086996
C95	C	0.386112	0.333306	0.420329
C96	C	0.719445	0.666640	0.753662
C97	C	-0.024325	-0.000019	0.088128
C98	C	0.309009	0.333315	0.421462
C99	C	0.642342	0.666648	0.754795
N100	N	-0.820242	-0.178182	0.092465
N101	N	-0.486909	0.155151	0.425798
N102	N	-0.153576	0.488485	0.759131
C103	C	-0.862179	0.217508	0.134483
C104	C	-0.528846	0.550841	0.467817
C105	C	-0.195513	0.884175	0.801150
C106	C	-0.862190	0.296310	0.134481
C107	C	-0.528857	0.629643	0.467815
C108	C	-0.195523	0.962976	0.801148
C109	C	-0.820201	0.335729	0.092465
C110	C	-0.486868	0.669062	0.425798
C111	C	-0.153535	1.002396	0.759132
C112	C	-0.778212	0.296340	0.050434
C113	C	-0.444879	0.629674	0.383767
C114	C	-0.111546	0.963007	0.717100
C115	C	-0.778208	0.217540	0.050432
C116	C	-0.444874	0.550873	0.383765
C117	C	-0.111541	0.884207	0.717098
C118	C	-0.757589	0.460590	0.090710
C119	C	-0.424256	0.793924	0.424043
C120	C	-0.090922	1.127257	0.757377
C121	C	-0.757592	0.539389	0.090717
C122	C	-0.424259	0.872723	0.424050
C123	C	-0.090925	1.206056	0.757384
C124	C	-0.820216	0.578775	0.092467
C125	C	-0.486883	0.912109	0.425800
C126	C	-0.153549	1.245442	0.759134
C127	C	-0.882838	0.539353	0.094225
C128	C	-0.549505	0.872687	0.427558
C129	C	-0.216171	1.206020	0.760891
C130	C	-0.882833	0.460553	0.094223
C131	C	-0.549500	0.793886	0.427556
C132	C	-0.216167	1.127220	0.760889
C133	C	-0.820202	0.421175	0.092462
C134	C	-0.486869	0.754508	0.425795
C135	C	-0.153535	1.087842	0.759129
C136	C	-0.862218	0.703601	0.134490
C137	C	-0.528885	1.036934	0.467823
C138	C	-0.195551	1.370267	0.801156
C139	C	-0.862230	0.782404	0.134483
C140	C	-0.528897	1.115737	0.467816
C141	C	-0.195564	1.449071	0.801149
C142	C	-0.778246	0.782433	0.050439
C143	C	-0.444913	1.115766	0.383772
C144	C	-0.111579	1.449100	0.717106
C145	C	-0.778240	0.703631	0.050442
C146	C	-0.444907	1.036965	0.383775
C147	C	-0.111573	1.370298	0.717109
C148	C	-0.820225	0.664220	0.092471
C149	C	-0.486892	0.997553	0.425804
C150	C	-0.153558	1.330887	0.759138
C151	C	-0.814744	-0.000026	0.219473
C152	C	-0.481410	0.333307	0.552806
C153	C	-0.148077	0.666640	0.886140
C154	C	-0.815871	-0.000027	0.296577
C155	C	-0.482537	0.333307	0.629910
C156	C	-0.149204	0.666640	0.963243
C157	C	-0.760727	-0.000040	0.860619
C158	C	-0.427394	0.333293	1.193952
C159	C	-0.094061	0.666627	1.527286
C160	C	-0.759662	-0.000034	0.788173
C161	C	-0.426329	0.333300	1.121506
C162	C	-0.092995	0.666633	1.454839
C163	C	-0.822431	-0.000036	0.743464
C164	C	-0.489098	0.333297	1.076797
C165	C	-0.155765	0.666630	1.410131
C166	C	-0.886271	-0.000026	0.771207
C167	C	-0.552938	0.333308	1.104540
C168	C	-0.219604	0.666641	1.437874
C169	C	-0.887335	-0.000024	0.843652
C170	C	-0.554001	0.333309	1.176986
C171	C	-0.220668	0.666643	1.510319
C172	C	-0.869251	-0.043896	0.622192
C173	C	-0.535918	0.289437	0.955525
C174	C	-0.202585	0.622770	1.288858
C175	C	-0.868185	-0.043902	0.549748
C176	C	-0.534852	0.289431	0.883081
C177	C	-0.201519	0.622764	1.216415
C178	C	-0.819154	-0.000037	0.520018
C179	C	-0.485821	0.333296	0.853351
C180	C	-0.152487	0.666629	1.186685
C181	C	-0.771177	0.043824	0.562742
C182	C	-0.437844	0.377157	0.896076
C183	C	-0.104510	0.710491	1.229409
C184	C	-0.772241	0.043826	0.635188
C185	C	-0.438907	0.377159	0.968521
C186	C	-0.105574	0.710492	1.301854
C187	C	-0.821285	-0.000037	0.664908
C188	C	-0.487952	0.333296	0.998242
C189	C	-0.154619	0.666629	1.331575
C190	C	-0.754163	-0.000036	0.413729
C191	C	-0.420830	0.333297	0.747062
C192	C	-0.087497	0.666631	1.080395
C193	C	-0.753101	-0.000025	0.341280
C194	C	-0.419767	0.333308	0.674614
C195	C	-0.086434	0.666641	1.007947
C196	C	-0.879712	-0.000025	0.324316
C197	C	-0.546378	0.333309	0.657649
C198	C	-0.213045	0.666642	0.990983
C199	C	-0.880772	-0.000028	0.396763
C200	C	-0.547439	0.333305	0.730096
C201	C	-0.214106	0.666639	1.063430
C202	C	-0.817996	-0.000037	0.441465
C203	C	-0.484663	0.333296	0.774798
C204	C	-0.151330	0.666629	1.108132
H205	H	-0.147095	-0.000000	0.205004
H206	H	0.186239	0.333333	0.538338
H207	H	0.519572	0.666666	0.871671
O208	O	-0.486000	-0.000024	-0.036939
O209	O	-0.152666	0.333310	0.296394
O210	O	0.180667	0.666643	0.629727
H211	H	-0.428114	-0.000031	-0.027134
H212	H	-0.094780	0.333303	0.306200
H213	H	0.238553	0.666636	0.639533
H214	H	-0.397698	0.079569	0.005447
H215	H	-0.064365	0.412902	0.338780
H216	H	0.268968	0.746236	0.672113
O217	O	-0.003851	-0.000003	0.219668
O218	O	0.329483	0.333331	0.553001
O219	O	0.662816	0.666664	0.886335
H220	H	0.051186	-0.000000	0.208208
H221	H	0.384520	0.333333	0.541541
H222	H	0.717853	0.666667	0.874875
O223	O	-0.231427	-0.091180	0.192171
O224	O	0.101907	0.242153	0.525504
O225	O	0.435240	0.575486	0.858837
H226	H	-0.194030	-0.054186	0.224428
H227	H	0.139303	0.279148	0.557761
H228	H	0.472636	0.612481	0.891095
H229	H	-0.374155	-0.079587	0.181424
H230	H	-0.040822	0.253746	0.514757
H231	H	0.292512	0.587080	0.848091
H232	H	-0.593980	-0.000018	0.211562
H233	H	-0.260647	0.333315	0.544896
H234	H	0.072686	0.666649	0.878229
H235	H	-0.744047	0.671568	0.016225
H236	H	-0.410714	1.004902	0.349559
H237	H	-0.077380	1.338235	0.682892
H238	H	-0.896405	0.671510	0.168712
H239	H	-0.563072	1.004843	0.502045
H240	H	-0.229738	1.338177	0.835378
H241	H	-0.733178	0.079541	0.669971
H242	H	-0.399844	0.412874	1.003304
H243	H	-0.066511	0.746207	1.336637
H244	H	-0.266275	0.079565	0.003513
H245	H	0.067058	0.412898	0.336846
H246	H	0.400391	0.746231	0.670180
O247	O	-0.039106	-0.000036	-0.043498
O248	O	0.294227	0.333298	0.289836
O249	O	0.627560	0.666631	0.623169
H250	H	-0.006494	0.050988	-0.047008
H251	H	0.326839	0.384321	0.286325
H252	H	0.660172	0.717654	0.619658
H253	H	-0.896381	0.328379	0.168703
H254	H	-0.563048	0.661712	0.502037
H255	H	-0.229714	0.995045	0.835370
H256	H	-0.939315	-0.000019	0.866233
H257	H	-0.605982	0.333315	1.199566
H258	H	-0.272648	0.666648	1.532900
O259	O	-0.947418	-0.000022	0.276107
O260	O	-0.614084	0.333311	0.609441
O261	O	-0.280751	0.666645	0.942774
H262	H	-0.949978	-0.051049	0.242698
H263	H	-0.616645	0.282285	0.576032
H264	H	-0.283312	0.615618	0.909365
O265	O	-0.922137	-0.091218	0.654250
O266	O	-0.588803	0.242115	0.987584
O267	O	-0.255470	0.575449	1.320917
H268	H	-0.914820	-0.083845	0.711803
H269	H	-0.581487	0.249488	1.045136
H270	H	-0.248154	0.582821	1.378469
O271	O	-0.450730	-0.000010	0.226223
O272	O	-0.117397	0.333324	0.559556
O273	O	0.215937	0.666657	0.892890
H274	H	-0.482191	-0.000018	0.270790
H275	H	-0.148858	0.333316	0.604123
H276	H	0.184476	0.666649	0.937456
O277	O	-0.953972	-0.000028	0.722987
O278	O	-0.620639	0.333305	1.056320
O279	O	-0.287305	0.666638	1.389653
H280	H	-0.984515	0.051003	0.732817
H281	H	-0.651182	0.384336	1.066151
H282	H	-0.317849	0.717670	1.399484
H283	H	-0.896369	0.185424	0.168704
H284	H	-0.563036	0.518757	0.502037
H285	H	-0.229703	0.852091	0.835371
O286	O	-0.732973	0.824928	0.005096
O287	O	-0.399639	1.158261	0.338429
O288	O	-0.066306	1.491594	0.671762
H289	H	-0.677407	0.809817	0.020333
H290	H	-0.344074	1.143150	0.353667
H291	H	-0.010740	1.476484	0.687000
O292	O	-0.732939	0.175050	0.005094
O293	O	-0.399605	0.508383	0.338427
O294	O	-0.066272	0.841717	0.671761
H295	H	-0.695504	0.139143	0.038479
H296	H	-0.362171	0.472477	0.371812
H297	H	-0.028837	0.805810	0.705146
O298	O	-0.636575	-0.000018	-0.034734
O299	O	-0.303241	0.333315	0.298600
O300	O	0.030092	0.666648	0.631933
H301	H	-0.670001	-0.051039	-0.037276
H302	H	-0.336668	0.282294	0.296057
H303	H	-0.003334	0.615628	0.629391
H304	H	-0.177878	-0.000030	-0.024693
H305	H	0.155455	0.333304	0.308641
H306	H	0.488789	0.666637	0.641974
H307	H	-0.706589	0.428529	0.089289
H308	H	-0.373255	0.761862	0.422623
H309	H	-0.039922	1.095195	0.755956
H310	H	-0.932751	-0.000027	0.419345
H311	H	-0.599417	0.333306	0.752678
H312	H	-0.266084	0.666640	1.086011
H313	H	-0.933832	0.571420	0.095653
H314	H	-0.600499	0.904753	0.428987
H315	H	-0.267165	1.238086	0.762320
H316	H	-0.933823	0.428458	0.095652
H317	H	-0.600489	0.761792	0.428985
H318	H	-0.267156	1.095125	0.762319
H319	H	-0.896426	0.814465	0.168701
H320	H	-0.563093	1.147799	0.502034
H321	H	-0.229759	1.481132	0.835367
H322	H	-0.709610	-0.000046	0.897012
H323	H	-0.376277	0.333287	1.230345
H324	H	-0.042943	0.666621	1.563678
O325	O	-0.919940	-0.091191	0.503667
O326	O	-0.586607	0.242142	0.837000
O327	O	-0.253273	0.575475	1.170333
H328	H	-0.954227	-0.121676	0.536507
H329	H	-0.620894	0.211658	0.869840
H330	H	-0.287560	0.544991	1.203174
O331	O	-0.690051	0.581902	0.088825
O332	O	-0.356717	0.915235	0.422159
O333	O	-0.023384	1.248569	0.755492
H334	H	-0.700571	0.643313	0.089131
H335	H	-0.367238	0.976646	0.422465
H336	H	-0.033905	1.309980	0.755798
H337	H	-0.744026	0.328441	0.016223
H338	H	-0.410692	0.661774	0.349556
H339	H	-0.077359	0.995107	0.682889
O340	O	-0.690813	-0.000049	0.758244
O341	O	-0.357480	0.333285	1.091578
O342	O	-0.024147	0.666618	1.424911
H343	H	-0.647341	-0.000060	0.801499
H344	H	-0.314008	0.333273	1.134833
H345	H	0.019326	0.666607	1.468166
H346	H	-0.731251	0.079543	0.538538
H347	H	-0.397917	0.412876	0.871872
H348	H	-0.064584	0.746209	1.205205
H349	H	-0.703047	-0.000038	0.450127
H350	H	-0.369714	0.333295	0.783461
H351	H	-0.036381	0.666628	1.116794
H352	H	-0.701120	-0.000027	0.318701
H353	H	-0.367786	0.333306	0.652034
H354	H	-0.034453	0.666639	0.985367
