data_functionalizedCrystal
_audit_creation_method	'MofGen! by Chris Wilmer'
_symmetry_space_group_name_H-M	'P1'
_symmetry_Int_Tables_number	1
_symmetry_cell_setting	triclinic
loop_
_symmetry_equiv_pos_as_xyz
  x,y,z
_cell_length_a	16.625548
_cell_length_b	16.625545
_cell_length_c	13.033454
_cell_angle_alpha	82.781280
_cell_angle_beta	97.160702
_cell_angle_gamma	90.026626
loop_
_atom_site_label
_atom_site_type_symbol
_atom_site_fract_x
_atom_site_fract_y
_atom_site_fract_z
Zn1	Zn	1.174785	-0.263021	-0.590887
Zn2	Zn	1.191798	-0.415004	-0.416136
Zn3	Zn	1.057062	-0.280190	-0.416153
Zn4	Zn	1.039915	-0.397823	-0.590831
O5	O	1.115890	-0.339009	-0.503502
O6	O	1.289872	-0.283187	-0.567722
O7	O	1.188221	-0.411496	-0.269901
O8	O	1.072734	-0.165077	-0.439361
O9	O	1.302372	-0.394848	-0.439333
O10	O	1.159225	-0.152463	-0.567738
O11	O	1.089231	-0.312449	-0.269913
O12	O	0.941957	-0.295789	-0.439308
O13	O	1.043510	-0.365565	-0.737076
O14	O	0.929359	-0.382214	-0.567644
O15	O	1.142598	-0.266527	-0.737117
O16	O	1.171594	-0.525560	-0.439280
O17	O	1.060007	-0.512937	-0.567628
C18	C	0.906402	-0.339001	-0.503472
C19	C	0.816780	-0.339014	-0.503485
C20	C	0.488600	-0.339015	-0.503529
C21	C	0.579910	-0.339013	-0.503514
C22	C	0.652687	-0.339015	-0.503506
C23	C	0.744002	-0.339012	-0.503492
C24	C	1.115806	-0.548504	-0.503469
C25	C	1.115840	-0.638123	-0.503490
C26	C	1.115869	-0.710903	-0.503510
C27	C	1.115914	-0.802209	-0.503533
C28	C	1.115954	-0.874984	-0.503547
C29	C	1.115998	-0.966296	-0.503568
C30	C	1.326196	-0.339019	-0.503532
C31	C	1.415816	-0.339023	-0.503544
C32	C	1.089243	-0.312214	-0.776074
C33	C	1.077888	-0.300796	-0.892229
C34	C	1.115994	-0.128695	-0.503558
C35	C	1.116039	-0.039072	-0.503581
C36	C	1.121804	-0.344712	-0.944008
C37	C	1.110069	-0.332911	-1.064059
C38	C	1.142479	-0.365642	-0.231989
C39	C	1.153991	-0.376833	-0.115836
H40	H	1.168092	-0.391043	-0.899460
H41	H	1.200283	-0.423168	-1.071294
H42	H	1.063783	-0.286570	-1.108603
O43	O	1.022575	-0.245630	-0.945408
C44	C	0.964361	-0.285372	-1.008544
H45	H	0.962551	-0.352096	-0.975569
H46	H	0.981263	-0.280079	-1.091228
C47	C	0.882604	-0.163852	-1.050863
C48	C	0.880377	-0.245801	-1.010357
H49	H	0.830799	-0.139441	-1.051987
H50	H	0.921825	-0.137075	-1.008331
H51	H	0.896693	-0.159452	-1.119763
H52	H	0.866298	-0.250200	-0.941455
H53	H	0.841151	-0.272578	-1.052879
