data_functionalizedCrystal
_audit_creation_method	'MofGen! by Chris Wilmer'
_symmetry_space_group_name_H-M	'P1'
_symmetry_Int_Tables_number	1
_symmetry_cell_setting	triclinic
loop_
_symmetry_equiv_pos_as_xyz
  x,y,z
_cell_length_a	11.026660
_cell_length_b	15.995292
_cell_length_c	9.482900
_cell_angle_alpha	99.335510
_cell_angle_beta	78.636107
_cell_angle_gamma	96.026726
loop_
_atom_site_label
_atom_site_type_symbol
_atom_site_fract_x
_atom_site_fract_y
_atom_site_fract_z
O1	O	1.628962	0.340346	-0.120876
O2	O	1.275670	0.300423	-0.120880
O3	O	1.462010	0.199954	-0.120880
O4	O	1.442621	0.440814	-0.120876
O5	O	1.424161	0.220467	0.120912
O6	O	1.237820	0.320936	0.120913
O7	O	1.591112	0.360858	0.120916
Cu8	Cu	1.411010	0.342770	0.142992
Cu9	Cu	1.455772	0.318511	-0.142956
O10	O	1.404771	0.461327	0.120917
C11	C	1.211537	0.303314	0.000016
C12	C	1.076831	0.281359	0.000014
C13	C	1.442297	0.178896	0.000012
C14	C	1.439933	0.085585	0.000002
C15	C	0.863780	0.319297	0.000010
C16	C	1.003005	0.341991	0.000014
C17	C	1.431234	-0.253463	0.000015
C18	C	1.565644	-0.209833	0.000556
C19	C	1.568287	-0.112819	0.000006
C20	C	1.435550	-0.085257	0.000009
C21	C	1.389922	-0.136206	-0.138063
C22	C	1.388321	-0.233250	-0.138173
C23	C	1.342532	-0.210195	0.136790
C24	C	1.347231	-0.112797	0.138610
C25	C	1.437983	0.009805	0.000001
C26	C	1.428798	-0.348526	0.000013
C27	C	1.655245	0.357966	0.000018
C28	C	1.789953	0.379921	0.000010
C29	C	1.424485	0.482385	0.000021
C30	C	1.426851	0.575695	0.000022
N31	N	1.379536	0.359832	0.344112
N32	N	1.487256	0.301444	-0.344076
C33	C	1.446480	0.323539	0.416311
C34	C	1.420302	0.337743	0.583729
H35	H	0.823910	0.250596	0.000030
N36	N	1.542569	0.271280	0.338315
N37	N	1.537836	0.195034	0.355206
H38	H	1.605656	0.158095	0.300091
N39	N	1.265838	-0.270808	-0.146017
N40	N	1.181814	-0.225329	-0.151404
H41	H	1.095311	-0.251850	-0.156944
N42	N	1.283316	0.411995	0.422063
N43	N	1.262182	0.423456	0.557952
H44	H	1.194224	0.460297	0.613005
N45	N	1.324064	0.389904	0.661652
N46	N	1.235403	0.359258	0.746627
H47	H	1.167434	0.396094	0.801662
H48	H	1.563951	0.259849	0.593800
N49	N	1.026816	0.195170	0.000035
N50	N	0.913788	0.176856	0.000045
H51	H	0.878461	0.115986	0.000065
N52	N	1.654213	-0.090272	-0.124376
N53	N	1.712407	-0.146224	-0.211055
H54	H	1.773095	-0.130302	-0.298909
H55	H	1.601985	-0.221616	0.099573
N56	N	1.467009	-0.269063	-0.267657
N57	N	1.522726	-0.222351	-0.357313
H58	H	1.578303	-0.247639	-0.448765
N59	N	1.218146	-0.246351	0.137998
N60	N	1.134284	-0.200268	0.134543
H61	H	1.046440	-0.225807	0.135392
N62	N	1.374826	-0.226514	0.268096
N63	N	1.314266	-0.197039	0.388476
H64	H	1.337087	-0.208561	0.481206
H65	H	1.042865	0.410700	0.000024
H66	H	0.829819	0.448625	0.000020
H67	H	1.605455	-0.077460	0.098979
H68	H	1.632610	-0.239433	-0.097904
H69	H	1.293049	-0.119496	-0.143194
N70	N	1.468684	-0.113143	-0.266959
N71	N	1.558461	-0.059226	-0.257492
H72	H	1.614094	-0.042938	-0.348522
N73	N	1.388605	-0.069377	0.266742
N74	N	1.482769	-0.018327	0.256135
H75	H	1.511994	0.012343	0.346626
N76	N	1.224076	-0.088812	0.149117
N77	N	1.199280	-0.050870	0.054193
H78	H	1.112306	-0.033913	0.061623
