data_functionalizedCrystal
_audit_creation_method	'MofGen! by Chris Wilmer'
_symmetry_space_group_name_H-M	'P1'
_symmetry_Int_Tables_number	1
_symmetry_cell_setting	triclinic
loop_
_symmetry_equiv_pos_as_xyz
  x,y,z
_cell_length_a	14.628931
_cell_length_b	14.628931
_cell_length_c	14.628931
_cell_angle_alpha	60.000000
_cell_angle_beta	90.000000
_cell_angle_gamma	60.000000
loop_
_atom_site_label
_atom_site_type_symbol
_atom_site_fract_x
_atom_site_fract_y
_atom_site_fract_z
Zr1	Zr	0.880621	1.000576	-0.119961
O2	O	0.734660	1.191281	-0.265922
O3	O	0.925365	0.809870	-0.075216
O4	O	0.925366	1.000575	-0.265921
O5	O	0.734659	1.000577	0.075215
O6	O	1.075798	1.000575	-0.265921
O7	O	0.734660	1.000576	-0.075216
O8	O	1.075797	0.659438	0.075216
O9	O	0.734660	1.341713	-0.265922
O10	O	1.056714	0.888310	-0.056132
O11	O	0.944448	0.888310	0.056133
O12	O	0.944449	1.112841	-0.168398
O13	O	0.832183	1.112842	-0.056133
Zr14	Zr	1.120542	1.000576	0.119961
Zr15	Zr	1.120542	1.000575	-0.119960
Zr16	Zr	0.880620	1.000576	0.119960
Zr17	Zr	0.880621	1.240497	-0.119961
Zr18	Zr	1.120542	0.760654	0.119961
O19	O	1.075798	1.191281	0.075216
O20	O	1.075798	1.191280	-0.265921
O21	O	0.734660	1.191282	0.075215
O22	O	1.266503	0.809870	0.265922
O23	O	1.266503	0.809869	-0.075215
O24	O	0.925365	0.809871	0.265921
O25	O	1.266503	1.000575	-0.075215
O26	O	1.075797	1.000576	0.265921
O27	O	0.925365	1.000577	0.265921
O28	O	1.266503	1.000575	0.075216
O29	O	0.925366	1.341713	-0.265922
O30	O	1.075797	0.659439	0.265922
O31	O	1.266502	0.659438	0.265922
O32	O	1.266503	0.659438	0.075217
O33	O	0.734660	1.341714	-0.075217
O34	O	0.925366	1.341713	-0.075216
O35	O	1.056714	0.888310	0.168398
O36	O	1.168980	0.888310	0.056133
O37	O	1.056715	1.112841	-0.056133
O38	O	0.944449	1.112842	0.056132
C39	C	1.000581	0.700470	0.000000
C40	C	1.000581	0.598617	0.000001
C41	C	1.056272	0.553208	-0.055691
C42	C	1.056273	0.447937	-0.055692
C43	C	0.700476	1.000576	-0.000000
C44	C	0.598623	1.000577	-0.000001
C45	C	0.608905	0.889194	0.055691
C46	C	0.503635	0.889192	0.055692
C47	C	1.300687	1.000575	0.000000
C48	C	1.402540	1.000574	0.000001
C49	C	1.000582	1.000575	-0.300105
C50	C	1.000582	1.000574	-0.401958
C51	C	1.000582	1.300681	-0.000000
C52	C	1.000582	1.402534	-0.000001
C53	C	0.944891	1.111957	-0.503058
C54	C	0.944890	1.111959	-0.608330
C55	C	1.000581	1.000576	0.300105
C56	C	1.000581	1.000577	0.401958
C57	C	1.300687	0.700469	0.000001
C58	C	1.402540	0.598616	0.000001
C59	C	1.000581	0.700471	0.300105
C60	C	1.000580	0.598619	0.401958
C61	C	1.300686	0.700470	0.300106
C62	C	1.402539	0.598617	0.401959
C63	C	0.700477	1.300681	-0.300106
C64	C	0.598624	1.402534	-0.401959
C65	C	0.700476	1.300682	-0.000001
C66	C	0.598623	1.402535	-0.000001
C67	C	1.000582	1.300680	-0.300105
C68	C	1.000583	1.402533	-0.401958
C69	C	1.392257	0.553207	-0.055690
C70	C	1.497527	0.447936	-0.055691
C71	C	1.056271	0.553209	0.503059
C72	C	1.056272	0.447939	0.608330
C73	C	1.503640	0.553208	0.391677
C74	C	1.608911	0.447937	0.496946
H75	H	0.952895	0.441584	0.047676
O76	O	1.119440	0.604928	0.514490
H77	H	1.060242	0.710504	0.473641
H78	H	1.103953	0.408887	0.695061
H79	H	0.952905	0.559557	0.047682
O80	O	0.515079	0.762869	0.118844
H81	H	0.561522	0.706624	0.208929
O82	O	1.610067	0.454243	0.063168
H83	H	1.700140	0.404956	0.103971
H84	H	1.103957	0.592259	-0.103365
H85	H	1.048264	0.905218	-0.393337
O86	O	1.517421	0.546904	0.063160
H87	H	1.563794	0.441333	0.127901
H88	H	0.952905	0.441574	0.511316
O89	O	0.723789	0.762871	0.118843
H90	H	0.788443	0.782696	0.108922
H91	H	0.393903	1.095938	-0.047686
O92	O	0.483735	1.126895	-0.063170
H93	H	0.437357	1.132424	-0.003972
H94	H	1.512263	0.592268	0.304942
H95	H	0.952897	0.559565	0.393338
H96	H	1.305521	0.592270	-0.103373
O97	O	0.881721	1.238280	-0.514497
H98	H	0.891625	1.218455	-0.430017
O99	O	1.723789	0.396282	0.485499
H100	H	1.788446	0.321743	0.569977
O101	O	0.881738	1.238285	-0.723208
H102	H	0.891659	1.218463	-0.787864
O103	O	1.063776	0.874264	-0.483155
H104	H	1.004597	0.868718	-0.436755
O105	O	1.486079	0.396229	-0.118862
H106	H	1.570557	0.321670	-0.108960
H107	H	1.511897	0.441572	0.606678
O108	O	1.391107	0.546881	0.516846
H109	H	1.431955	0.565230	0.563224
H110	H	1.103948	0.408892	-0.103376
