data_functionalizedCrystal
_audit_creation_method	'MofGen! by Chris Wilmer'
_symmetry_space_group_name_H-M	'P1'
_symmetry_Int_Tables_number	1
_symmetry_cell_setting	triclinic
loop_
_symmetry_equiv_pos_as_xyz
  x,y,z
_cell_length_a	13.897448
_cell_length_b	12.827893
_cell_length_c	12.827885
_cell_angle_alpha	89.980728
_cell_angle_beta	90.032276
_cell_angle_gamma	89.982337
loop_
_atom_site_label
_atom_site_type_symbol
_atom_site_fract_x
_atom_site_fract_y
_atom_site_fract_z
Zn1	Zn	-0.383969	-1.597653	0.590831
Zn2	Zn	-0.050636	-1.264320	0.924164
Zn3	Zn	0.282698	-0.930986	1.257497
Zn4	Zn	-0.545295	-1.597540	0.416083
Zn5	Zn	-0.211962	-1.264207	0.749417
Zn6	Zn	0.121371	-0.930873	1.082750
Zn7	Zn	-0.384016	-1.422894	0.416104
Zn8	Zn	-0.050683	-1.089561	0.749438
Zn9	Zn	0.282651	-0.756228	1.082771
Zn10	Zn	-0.545224	-1.422873	0.590783
Zn11	Zn	-0.211890	-1.089539	0.924117
Zn12	Zn	0.121443	-0.756206	1.257450
O13	O	-0.464626	-1.510240	0.503450
O14	O	-0.131293	-1.176907	0.836784
O15	O	0.202041	-0.843573	1.170117
O16	O	-0.405380	-1.743874	0.567661
O17	O	-0.072046	-1.410541	0.900994
O18	O	0.261287	-1.077207	1.234328
O19	O	-0.523951	-1.574335	0.269850
O20	O	-0.190618	-1.241001	0.603183
O21	O	0.142716	-0.907668	0.936517
O22	O	-0.249028	-1.446133	0.439311
O23	O	0.084305	-1.112799	0.772644
O24	O	0.417639	-0.779466	1.105977
O25	O	-0.523905	-1.743791	0.439275
O26	O	-0.190572	-1.410458	0.772608
O27	O	0.142761	-1.077124	1.105942
O28	O	-0.248994	-1.574527	0.567681
O29	O	0.084340	-1.241194	0.901015
O30	O	0.417673	-0.907860	1.234348
O31	O	-0.405460	-1.446023	0.269865
O32	O	-0.072126	-1.112690	0.603199
O33	O	0.261207	-0.779357	0.936532
O34	O	-0.405390	-1.276655	0.439265
O35	O	-0.072057	-0.943322	0.772598
O36	O	0.261277	-0.609989	1.105931
O37	O	-0.523783	-1.446096	0.737026
O38	O	-0.190450	-1.112762	1.070359
O39	O	0.142884	-0.779429	1.403692
O40	O	-0.523829	-1.276639	0.567601
O41	O	-0.190495	-0.943306	0.900934
O42	O	0.142838	-0.609973	1.234267
O43	O	-0.405310	-1.574506	0.737060
O44	O	-0.071977	-1.241173	1.070394
O45	O	0.261357	-0.907839	1.403727
O46	O	-0.680267	-1.574314	0.439229
O47	O	-0.346934	-1.240980	0.772562
O48	O	-0.013601	-0.907647	1.105896
O49	O	-0.680215	-1.445986	0.567580
O50	O	-0.346881	-1.112653	0.900914
O51	O	-0.013548	-0.779320	1.234247
C52	C	-0.464607	-1.238730	0.503430
C53	C	-0.131274	-0.905397	0.836764
C54	C	0.202059	-0.572063	1.170097
C55	C	-0.464623	-1.122577	0.503447
C56	C	-0.131289	-0.789244	0.836780
C57	C	0.202044	-0.455910	1.170113
C58	C	-0.715240	-1.510164	0.503420
C59	C	-0.381907	-1.176830	0.836753
C60	C	-0.048574	-0.843497	1.170087
C61	C	-0.822454	-1.510227	0.503442
C62	C	-0.489121	-1.176893	0.836775
C63	C	-0.155788	-0.843560	1.170109
C64	C	-0.464533	-1.510311	0.776021
C65	C	-0.131200	-1.176978	1.109354
C66	C	0.202133	-0.843644	1.442687
C67	C	-0.464494	-1.510341	0.892174
C68	C	-0.131161	-1.177008	1.225507
C69	C	0.202173	-0.843675	1.558841
C70	C	-1.018749	-1.510336	0.503508
C71	C	-0.685416	-1.177003	0.836841
C72	C	-0.352083	-0.843670	1.170174
C73	C	-0.909517	-1.510272	0.503474
C74	C	-0.576183	-1.176939	0.836808
C75	C	-0.242850	-0.843606	1.170141
C76	C	-0.213033	-1.510345	0.503504
C77	C	0.120300	-1.177012	0.836837
C78	C	0.453634	-0.843678	1.170170
C79	C	-0.105819	-1.510390	0.503526
C80	C	0.227514	-1.177056	0.836860
C81	C	0.560848	-0.843723	1.170193
C82	C	-0.464645	-1.782810	0.503471
C83	C	-0.131312	-1.449477	0.836804
C84	C	0.202021	-1.116143	1.170138
C85	C	-0.464654	-1.898963	0.503480
C86	C	-0.131320	-1.565630	0.836813
C87	C	0.202013	-1.232296	1.170146
C88	C	-0.523321	-1.070812	0.566853
C89	C	-0.189988	-0.737479	0.900187
C90	C	0.143345	-0.404145	1.233520
C91	C	-0.523338	-0.950762	0.566872
C92	C	-0.190005	-0.617428	0.900205
C93	C	0.143328	-0.284095	1.233538
C94	C	-0.464649	-1.510229	0.231940
C95	C	-0.131315	-1.176896	0.565274
C96	C	0.202018	-0.843563	0.898607
C97	C	-0.464416	-1.510401	0.115788
C98	C	-0.131083	-1.177068	0.449121
C99	C	0.202250	-0.843735	0.782454
C100	C	-0.405858	-1.573890	0.943976
C101	C	-0.072525	-1.240556	1.277309
C102	C	0.260809	-0.907223	1.610642
C103	C	-0.405816	-1.573923	1.064026
C104	C	-0.072483	-1.240589	1.397360
C105	C	0.260851	-0.907256	1.730693
H106	H	-0.573559	-1.115371	0.621128
H107	H	-0.240226	-0.782037	0.954462
H108	H	0.093107	-0.448704	1.287795
H109	H	-0.573595	-0.906245	0.621154
H110	H	-0.240262	-0.572911	0.954487
H111	H	0.093071	-0.239578	1.287820
H112	H	-0.414400	-0.943473	0.449188
H113	H	-0.081067	-0.610140	0.782522
H114	H	0.252266	-0.276807	1.115855
Br115	Br	-0.380870	-1.048320	0.412994
Br116	Br	-0.047537	-0.714987	0.746327
Br117	Br	0.285797	-0.381654	1.079661
H118	H	-0.355686	-1.628268	0.899449
H119	H	-0.022352	-1.294934	1.232782
H120	H	0.310981	-0.961601	1.566115
H121	H	-0.514656	-1.455953	0.936701
H122	H	-0.181323	-1.122619	1.270034
H123	H	0.152010	-0.789286	1.603368
H124	H	-0.355619	-1.628332	1.108575
H125	H	-0.022286	-1.294999	1.441908
H126	H	0.311048	-0.961666	1.775241
H127	H	-0.514623	-1.455996	1.071246
H128	H	-0.181289	-1.122663	1.404579
H129	H	0.152044	-0.789330	1.737913
