data_functionalizedCrystal
_audit_creation_method	'MofGen! by Chris Wilmer'
_symmetry_space_group_name_H-M	'P1'
_symmetry_Int_Tables_number	1
_symmetry_cell_setting	triclinic
loop_
_symmetry_equiv_pos_as_xyz
  x,y,z
_cell_length_a	19.805407
_cell_length_b	16.625546
_cell_length_c	19.805399
_cell_angle_alpha	89.972133
_cell_angle_beta	89.980427
_cell_angle_gamma	90.022468
loop_
_atom_site_label
_atom_site_type_symbol
_atom_site_fract_x
_atom_site_fract_y
_atom_site_fract_z
Zn1	Zn	1.034754	-0.321020	-0.382718
Zn2	Zn	1.534754	0.178980	0.117282
Zn3	Zn	1.034677	-0.455857	-0.269529
Zn4	Zn	1.534677	0.044143	0.230471
Zn5	Zn	0.921569	-0.321043	-0.269543
Zn6	Zn	1.421569	0.178957	0.230457
Zn7	Zn	0.921540	-0.455815	-0.382676
Zn8	Zn	1.421540	0.044185	0.117324
O9	O	0.978135	-0.388434	-0.326117
O10	O	1.478135	0.111566	0.173883
O11	O	1.129461	-0.338915	-0.367716
O12	O	1.629461	0.161085	0.132284
O13	O	1.019652	-0.438001	-0.174815
O14	O	1.519652	0.061999	0.325185
O15	O	0.936628	-0.208207	-0.284579
O16	O	1.436628	0.291793	0.215421
O17	O	1.129404	-0.437980	-0.284556
O18	O	1.629404	0.062020	0.215444
O19	O	1.019784	-0.208191	-0.367729
O20	O	1.519784	0.291809	0.132271
O21	O	0.936553	-0.338953	-0.174825
O22	O	1.436553	0.161047	0.325175
O23	O	0.826848	-0.338912	-0.284538
O24	O	1.326848	0.161088	0.215462
O25	O	0.936579	-0.437907	-0.477398
O26	O	1.436579	0.062093	0.022602
O27	O	0.826827	-0.437928	-0.367657
O28	O	1.326827	0.062072	0.132343
O29	O	1.019756	-0.338874	-0.477429
O30	O	1.519756	0.161126	0.022571
O31	O	1.019625	-0.568684	-0.284515
O32	O	1.519625	-0.068684	0.215485
O33	O	0.936504	-0.568653	-0.367644
O34	O	1.436504	-0.068653	0.132356
C35	C	0.802279	-0.388418	-0.326095
C36	C	1.302279	0.111582	0.173905
C37	C	0.727047	-0.388431	-0.326102
C38	C	1.227047	0.111569	0.173898
C39	C	0.691710	-0.440067	-0.369311
C40	C	1.191710	0.059933	0.130689
C41	C	0.621021	-0.440068	-0.369321
C42	C	1.121021	0.059932	0.130679
C43	C	0.585671	-0.388437	-0.326117
C44	C	1.085671	0.111563	0.173883
C45	C	0.621014	-0.336796	-0.282905
C46	C	1.121014	0.163204	0.217095
C47	C	0.691701	-0.336791	-0.282899
C48	C	1.191701	0.163209	0.217101
C49	C	0.335941	-0.336814	-0.282927
C50	C	0.835941	0.163186	0.217073
C51	C	0.265248	-0.336825	-0.282935
C52	C	0.765248	0.163175	0.217065
C53	C	0.265261	-0.440091	-0.369349
C54	C	0.765261	0.059909	0.130651
C55	C	0.335948	-0.440086	-0.369343
C56	C	0.835948	0.059914	0.130657
C57	C	0.371284	-0.388442	-0.326134
C58	C	0.871284	0.111558	0.173866
C59	C	0.447932	-0.388440	-0.326125
C60	C	0.947932	0.111560	0.173875
C61	C	0.509024	-0.388443	-0.326122
C62	C	1.009024	0.111557	0.173878
C63	C	0.978071	-0.597925	-0.326088
C64	C	1.478071	-0.097925	0.173912
C65	C	0.978105	-0.687546	-0.326099
C66	C	1.478105	-0.187546	0.173901
C67	C	0.978224	-1.015721	-0.326169
C68	C	1.478224	-0.515721	0.173831
C69	C	0.978189	-0.924413	-0.326152
C70	C	1.478189	-0.424413	0.173848
C71	C	0.978164	-0.851636	-0.326134
C72	C	1.478164	-0.351636	0.173866
C73	C	0.978130	-0.760322	-0.326117
C74	C	1.478130	-0.260322	0.173883
C75	C	1.154678	-0.388450	-0.326139
C76	C	1.654678	0.111550	0.173861
C77	C	1.229910	-0.388457	-0.326149
C78	C	1.729910	0.111543	0.173851
C79	C	0.978173	-0.388383	-0.502660
C80	C	1.478173	0.111617	-0.002660
C81	C	0.978189	-0.388361	-0.577892
C82	C	1.478189	0.111639	-0.077892
C83	C	0.978218	-0.178125	-0.326160
C84	C	1.478218	0.321875	0.173840
C85	C	0.978253	-0.088504	-0.326178
C86	C	1.478253	0.411496	0.173822
C87	C	1.021501	-0.336792	-0.613253
C88	C	1.521501	0.163208	-0.113253
C89	C	1.021508	-0.336769	-0.683941
C90	C	1.521508	0.163231	-0.183941
C91	C	0.978206	-0.388319	-0.719267
C92	C	1.478206	0.111681	-0.219267
C93	C	0.934889	-0.439890	-0.683901
C94	C	1.434889	0.060110	-0.183901
C95	C	0.934880	-0.439909	-0.613214
C96	C	1.434880	0.060091	-0.113214
C97	C	0.934928	-0.439815	-0.968974
C98	C	1.434928	0.060185	-0.468974
C99	C	0.934942	-0.439794	-1.039667
C100	C	1.434942	0.060206	-0.539667
C101	C	1.021556	-0.336675	-1.039702
C102	C	1.521556	0.163325	-0.539702
C103	C	1.021546	-0.336694	-0.969015
C104	C	1.521546	0.163306	-0.469015
C105	C	0.978227	-0.388262	-0.933655
C106	C	1.478227	0.111738	-0.433655
C107	C	0.978219	-0.388285	-0.857006
C108	C	1.478219	0.111715	-0.357006
C109	C	0.978217	-0.388300	-0.795914
C110	C	1.478217	0.111700	-0.295914
C111	C	0.978136	-0.388426	-0.150261
C112	C	1.478136	0.111574	0.349739
C113	C	0.978251	-0.388221	-0.075029
C114	C	1.478251	0.111779	0.424971
H115	H	0.592226	-0.294754	-0.247730
H116	H	1.092226	0.205246	0.252270
C117	C	1.112576	-0.325503	-0.889529
C118	C	1.612576	0.174497	-0.389529
C119	C	1.069134	-0.280021	-0.930180
C120	C	1.569134	0.219979	-0.430180
H121	H	1.141953	-0.290509	-0.865557
H122	H	1.641953	0.209491	-0.365557
H123	H	1.086780	-0.356218	-0.858360
H124	H	1.586780	0.143782	-0.358360
H125	H	1.138467	-0.360618	-0.917105
H126	H	1.638467	0.139382	-0.417105
H127	H	1.043240	-0.244910	-0.902603
H128	H	1.543240	0.255090	-0.402603
H129	H	1.094933	-0.249292	-0.961353
H130	H	1.594933	0.250708	-0.461353
H131	H	0.236481	-0.482139	-0.404534
H132	H	0.736481	0.017861	0.095466
H133	H	0.720472	-0.294740	-0.247717
H134	H	1.220472	0.205260	0.252283
H135	H	0.720486	-0.482113	-0.404491
H136	H	1.220486	0.017887	0.095509
H137	H	1.056764	-0.294817	-0.584496
H138	H	1.556764	0.205183	-0.084496
C139	C	0.843813	-0.451134	-0.533707
C140	C	1.343813	0.048866	-0.033707
C141	C	0.887270	-0.496601	-0.574347
C142	C	1.387270	0.003399	-0.074347
H143	H	0.814417	-0.486135	-0.509719
H144	H	1.314417	0.013865	-0.009719
H145	H	0.869598	-0.420445	-0.502552
H146	H	1.369598	0.079555	-0.002552
H147	H	0.817945	-0.415995	-0.561293
H148	H	1.317945	0.084005	-0.061293
H149	H	0.913143	-0.531736	-0.546761
H150	H	1.413143	-0.031736	-0.046761
H151	H	0.861483	-0.527304	-0.605506
H152	H	1.361483	-0.027304	-0.105506
H153	H	0.899678	-0.481774	-1.068427
H154	H	1.399678	0.018226	-0.568427
H155	H	0.899630	-0.481861	-0.712669
H156	H	1.399630	0.018139	-0.212669
C157	C	0.925451	-0.548301	-0.889467
C158	C	1.425451	-0.048301	-0.389467
C159	C	0.887312	-0.496503	-0.930119
C160	C	1.387312	0.003497	-0.430119
H161	H	0.896050	-0.583296	-0.865477
H162	H	1.396050	-0.083296	-0.365477
H163	H	0.954931	-0.579134	-0.917039
H164	H	1.454931	-0.079134	-0.417039
H165	H	0.951229	-0.517598	-0.858306
H166	H	1.451229	-0.017598	-0.358306
H167	H	0.861537	-0.527205	-0.961283
H168	H	1.361537	-0.027205	-0.461283
H169	H	0.857820	-0.465667	-0.902544
H170	H	1.357820	0.034333	-0.402544
H171	H	0.592253	-0.482116	-0.404506
H172	H	1.092253	0.017884	0.095494
H173	H	0.364726	-0.482132	-0.404522
H174	H	0.864726	0.017868	0.095478
H175	H	0.236469	-0.294776	-0.247753
H176	H	0.736469	0.205224	0.252247
C177	C	1.107133	-0.234852	-0.676876
C178	C	1.607133	0.265148	-0.176876
C179	C	1.069122	-0.280088	-0.722810
C180	C	1.569122	0.219912	-0.222810
H181	H	1.136532	-0.199863	-0.700874
H182	H	1.636532	0.300137	-0.200874
H183	H	1.077654	-0.204013	-0.649308
H184	H	1.577654	0.295987	-0.149308
H185	H	1.133000	-0.270006	-0.649302
H186	H	1.633000	0.229994	-0.149302
H187	H	1.043251	-0.244935	-0.750381
H188	H	1.543251	0.255065	-0.250381
H189	H	1.098605	-0.310930	-0.750390
H190	H	1.598605	0.189070	-0.250390
C191	C	0.357655	-0.297352	-0.168374
C192	C	0.857655	0.202648	0.331626
C193	C	0.374774	-0.280050	-0.235429
C194	C	0.874774	0.219950	0.264571
H195	H	0.381634	-0.262308	-0.139051
H196	H	0.881634	0.237692	0.360949
H197	H	0.310502	-0.289971	-0.162202
H198	H	0.810502	0.210029	0.337798
H199	H	0.369231	-0.351510	-0.158392
H200	H	0.869231	0.148490	0.341608
H201	H	0.363194	-0.225893	-0.245413
H202	H	0.863194	0.274107	0.254587
H203	H	0.421937	-0.287424	-0.241605
H204	H	0.921937	0.212576	0.258395
C205	C	1.060029	-0.290839	-1.148077
C206	C	1.560029	0.209161	-0.648077
C207	C	1.069166	-0.279979	-1.078572
C208	C	1.569166	0.220021	-0.578572
H209	H	1.089419	-0.255835	-1.172071
H210	H	1.589419	0.244165	-0.672071
H211	H	1.069917	-0.345004	-1.159651
H212	H	1.569917	0.154996	-0.659651
H213	H	1.014556	-0.279028	-1.159646
H214	H	1.514556	0.220972	-0.659646
H215	H	1.114638	-0.291795	-1.067002
H216	H	1.614638	0.208205	-0.567002
H217	H	1.059283	-0.225801	-1.066993
H218	H	1.559283	0.274199	-0.566993
