data_functionalizedCrystal
_audit_creation_method	'MofGen! by Chris Wilmer'
_symmetry_space_group_name_H-M	'P1'
_symmetry_Int_Tables_number	1
_symmetry_cell_setting	triclinic
loop_
_symmetry_equiv_pos_as_xyz
  x,y,z
_cell_length_a	12.645331
_cell_length_b	19.805404
_cell_length_c	19.805399
_cell_angle_alpha	89.971482
_cell_angle_beta	89.990805
_cell_angle_gamma	90.028829
loop_
_atom_site_label
_atom_site_type_symbol
_atom_site_fract_x
_atom_site_fract_y
_atom_site_fract_z
Zn1	Zn	1.620575	-0.269483	-0.382583
Zn2	Zn	1.620440	-0.382675	-0.269396
Zn3	Zn	1.443310	-0.269503	-0.269423
Zn4	Zn	1.443235	-0.382634	-0.382558
O5	O	1.531890	-0.326074	-0.325990
O6	O	1.768904	-0.284507	-0.367568
O7	O	1.596918	-0.367687	-0.174683
O8	O	1.466912	-0.174784	-0.284456
O9	O	1.768805	-0.367668	-0.284409
O10	O	1.597148	-0.174769	-0.367594
O11	O	1.466782	-0.284541	-0.174703
O12	O	1.294953	-0.284502	-0.284431
O13	O	1.466784	-0.367599	-0.477278
O14	O	1.294897	-0.367619	-0.367551
O15	O	1.597075	-0.284468	-0.477296
O16	O	1.596845	-0.477386	-0.284385
O17	O	1.466653	-0.477356	-0.367524
C18	C	1.256460	-0.326059	-0.325991
C19	C	1.138630	-0.326068	-0.326008
C20	C	1.531755	-0.501930	-0.325964
C21	C	1.531795	-0.577162	-0.325975
C22	C	1.599941	-1.038946	-0.282794
C23	C	1.599892	-0.968257	-0.282780
C24	C	1.532029	-0.932924	-0.326026
C25	C	1.464204	-0.968282	-0.369282
C26	C	1.464249	-1.038969	-0.369291
C27	C	1.464019	-0.683209	-0.369245
C28	C	1.463982	-0.612517	-0.369234
C29	C	1.599662	-0.612497	-0.282734
C30	C	1.599707	-0.683184	-0.282743
C31	C	1.531879	-0.718536	-0.325997
C32	C	1.531932	-0.795185	-0.326010
C33	C	1.531980	-0.856276	-0.326017
C34	C	0.971067	-0.378644	-0.378026
C35	C	1.093627	-0.378474	-0.378244
C36	C	1.094172	-0.254780	-0.345502
C37	C	0.971574	-0.255100	-0.345869
C38	C	0.971391	-0.344207	-0.254331
C39	C	1.093997	-0.345766	-0.254718
C40	C	1.808395	-0.326090	-0.325988
C41	C	1.926225	-0.326096	-0.325988
C42	C	1.531936	-0.326027	-0.502533
C43	C	1.531956	-0.326007	-0.577765
C44	C	1.532054	-0.149531	-0.326031
C45	C	1.532124	-0.074299	-0.326048
C46	C	1.464213	-0.282708	-0.613119
C47	C	1.464228	-0.282695	-0.683807
C48	C	1.531992	-0.325978	-0.719140
C49	C	1.599737	-0.369281	-0.683781
C50	C	1.599717	-0.369297	-0.613094
C51	C	1.599822	-0.369218	-0.968855
C52	C	1.599839	-0.369197	-1.039547
C53	C	1.464333	-0.282616	-1.039568
C54	C	1.464312	-0.282632	-0.968880
C55	C	1.532053	-0.325937	-0.933528
C56	C	1.532035	-0.325952	-0.856879
C57	C	1.532016	-0.325960	-0.795787
C58	C	1.531905	-0.326072	-0.150134
C59	C	1.532090	-0.325901	-0.074902
H60	H	1.655209	-1.067709	-0.247582
H61	H	1.123684	-0.431339	-0.366026
H62	H	1.654889	-0.583706	-0.247512
H63	H	1.409061	-0.247440	-0.712589
H64	H	1.122970	-0.366488	-0.431338
H65	H	1.654888	-0.404550	-0.584310
H66	H	1.408943	-0.939509	-0.404490
H67	H	1.409030	-1.067753	-0.404517
H68	H	1.654906	-0.404526	-0.712555
H69	H	1.655023	-0.404445	-1.068313
H70	H	1.409171	-0.247356	-1.068360
H71	H	1.655113	-0.939473	-0.247559
H72	H	0.940270	-0.366813	-0.430812
H73	H	0.941560	-0.431684	-0.365943
H74	H	1.409136	-0.247385	-0.940116
H75	H	1.654969	-0.404487	-0.940079
H76	H	0.942994	-0.239739	-0.398253
H77	H	0.941912	-0.214546	-0.309705
H78	H	1.124893	-0.239138	-0.397319
H79	H	1.654972	-0.711949	-0.247531
H80	H	0.942394	-0.305932	-0.215558
H81	H	1.408716	-0.583749	-0.404450
H82	H	1.409038	-0.247459	-0.584355
H83	H	1.123324	-0.214564	-0.308784
H84	H	1.408781	-0.711984	-0.404459
H85	H	0.940456	-0.395304	-0.236614
H86	H	1.123065	-0.398224	-0.240015
H87	H	1.124632	-0.310270	-0.213865
