data_functionalizedCrystal
_audit_creation_method	'MofGen! by Chris Wilmer'
_symmetry_space_group_name_H-M	'P1'
_symmetry_Int_Tables_number	1
_symmetry_cell_setting	triclinic
loop_
_symmetry_equiv_pos_as_xyz
  x,y,z
_cell_length_a	16.109301
_cell_length_b	13.339070
_cell_length_c	14.586319
_cell_angle_alpha	89.998714
_cell_angle_beta	89.998857
_cell_angle_gamma	99.545439
loop_
_atom_site_label
_atom_site_type_symbol
_atom_site_fract_x
_atom_site_fract_y
_atom_site_fract_z
O1	O	1.133153	0.130022	-0.076185
O2	O	0.894828	0.146202	-0.076198
O3	O	0.986638	-0.009142	-0.076190
O4	O	1.041343	0.285367	-0.076193
O5	O	0.986629	-0.009145	0.076290
O6	O	0.894818	0.146200	0.076283
O7	O	1.133144	0.130020	0.076295
Cu8	Cu	1.013980	0.138110	0.090212
Cu9	Cu	1.013991	0.138112	-0.090114
O10	O	1.041333	0.285364	0.076288
C11	C	0.863697	0.145546	0.000041
C12	C	0.770948	0.143581	0.000036
C13	C	0.977393	-0.046830	0.000048
C14	C	0.949849	-0.159123	0.000043
C15	C	0.481750	0.229335	0.000051
C16	C	0.568899	0.231191	0.000046
C17	C	0.546214	0.046879	0.000035
C18	C	0.459067	0.045025	0.000034
C19	C	0.426838	0.136256	0.000047
C20	C	0.601134	0.139966	0.000043
C21	C	0.695624	0.141978	0.000037
C22	C	0.332341	0.134244	0.000051
C23	C	1.164017	-0.523986	0.000055
C24	C	1.189899	-0.418482	0.000065
C25	C	1.129888	-0.353637	0.000059
C26	C	1.043992	-0.394306	0.000044
C27	C	1.018108	-0.499821	0.000041
C28	C	0.983979	-0.329472	0.000045
C29	C	0.898083	-0.370141	0.000030
C30	C	0.872203	-0.475646	0.000027
C31	C	0.932213	-0.540491	0.000033
C32	C	1.009864	-0.223957	0.000048
C33	C	0.863954	-0.199792	0.000035
C34	C	0.838073	-0.305296	0.000025
C35	C	1.164275	0.130676	0.000055
C36	C	1.257024	0.132641	0.000053
C37	C	1.050578	0.323052	0.000047
C38	C	1.078123	0.435344	0.000046
N39	N	1.013978	0.138107	0.217044
N40	N	1.013998	0.138107	-0.216946
C41	C	1.054656	0.069343	0.452053
C42	C	1.054658	0.069341	0.548035
C43	C	0.973315	0.206874	0.548037
C44	C	0.973308	0.206871	0.452058
C45	C	1.013984	0.138107	0.404068
C46	C	1.013992	0.138107	0.596029
C47	C	1.013994	0.138105	0.700096
C48	C	1.013981	0.138107	0.299995
H49	H	0.455513	0.303621	0.000061
C50	C	0.928612	0.282565	0.399271
N51	N	0.894964	0.339591	0.359512
H52	H	0.613606	0.306986	0.000049
C53	C	1.099392	-0.006307	0.399268
N54	N	1.133085	-0.063292	0.359513
C55	C	0.581675	-0.053469	0.000038
N56	N	0.608383	-0.129053	0.000045
H57	H	1.087776	0.013347	0.587101
C58	C	0.928572	0.282508	0.600835
N59	N	0.894871	0.339477	0.640601
C60	C	1.230018	-0.595320	0.000067
N61	N	1.279734	-0.649052	0.000078
H62	H	0.414354	-0.030776	0.000027
H63	H	1.079801	-0.190855	0.000061
C64	C	0.797938	-0.128467	0.000026
N65	N	0.748219	-0.074739	0.000020
H66	H	1.150967	-0.267731	0.000067
H67	H	1.259835	-0.385376	0.000078
H68	H	0.911145	-0.626402	0.000021
C69	C	0.777715	-0.520379	0.000020
N70	N	0.706546	-0.554070	0.000014
C71	C	0.743588	-0.350047	0.000021
N72	N	0.672422	-0.383755	0.000022
