data_functionalizedCrystal
_audit_creation_method	'MofGen! by Chris Wilmer'
_symmetry_space_group_name_H-M	'P1'
_symmetry_Int_Tables_number	1
_symmetry_cell_setting	triclinic
loop_
_symmetry_equiv_pos_as_xyz
  x,y,z
_cell_length_a	11.792241
_cell_length_b	10.868271
_cell_length_c	11.792241
_cell_angle_alpha	89.996428
_cell_angle_beta	95.806585
_cell_angle_gamma	90.000490
loop_
_atom_site_label
_atom_site_type_symbol
_atom_site_fract_x
_atom_site_fract_y
_atom_site_fract_z
O1	O	-1.506909	0.102170	0.155562
O2	O	-1.006909	0.602170	0.655562
O3	O	-1.176568	0.102201	0.171595
O4	O	-0.676568	0.602201	0.671595
O5	O	-1.349755	0.102192	-0.001592
O6	O	-0.849755	0.602192	0.498408
O7	O	-1.333722	0.102179	0.328749
O8	O	-0.833722	0.602179	0.828749
O9	O	-1.349739	-0.102453	-0.001586
O10	O	-0.849739	0.397547	0.498414
O11	O	-1.176552	-0.102444	0.171601
O12	O	-0.676552	0.397556	0.671601
O13	O	-1.506893	-0.102475	0.155568
O14	O	-1.006893	0.397525	0.655568
Zn15	Zn	-1.341720	-0.134951	0.163585
Zn16	Zn	-0.841720	0.365049	0.663585
Zn17	Zn	-1.341741	0.134677	0.163578
Zn18	Zn	-0.841741	0.634677	0.663578
O19	O	-1.333706	-0.102466	0.328755
O20	O	-0.833706	0.397534	0.828755
C21	C	-1.134269	-0.000117	0.170591
C22	C	-0.634269	0.499883	0.670591
C23	C	-1.008255	-0.000105	0.167576
C24	C	-0.508255	0.499895	0.667576
N25	N	-1.341714	-0.318965	0.163590
N26	N	-0.841714	0.181035	0.663590
C27	C	-1.348740	-0.000126	-0.043880
C28	C	-0.848740	0.499874	0.456120
C29	C	-1.345726	-0.000112	-0.169894
C30	C	-0.845726	0.499888	0.330106
C31	C	-0.777543	-0.000137	0.162034
C32	C	-0.277543	0.499863	0.662034
C33	C	-0.905928	-0.000119	0.165113
C34	C	-0.405928	0.499881	0.665113
C35	C	-0.549192	-0.000151	0.156572
C36	C	-0.049192	0.499849	0.656572
C37	C	-0.675206	-0.000146	0.159587
C38	C	-0.175206	0.499854	0.659587
C39	C	-1.341723	-0.430303	0.163590
C40	C	-0.841723	0.069697	0.663590
C41	C	-1.341738	-0.569980	0.163579
C42	C	-0.841738	-0.069980	0.663579
N43	N	-1.341756	0.318691	0.163565
N44	N	-0.841756	0.818691	0.663565
C45	C	-1.334721	-0.000146	0.371043
C46	C	-0.834721	0.499854	0.871043
C47	C	-1.337736	-0.000151	0.497057
C48	C	-0.837736	0.499849	0.997057
C49	C	-1.343279	-0.000121	0.727769
C50	C	-0.843279	0.499879	1.227769
C51	C	-1.340199	-0.000137	0.599384
C52	C	-0.840199	0.499863	1.099384
