data_functionalizedCrystal
_audit_creation_method	'MofGen! by Chris Wilmer'
_symmetry_space_group_name_H-M	'P1'
_symmetry_Int_Tables_number	1
_symmetry_cell_setting	triclinic
loop_
_symmetry_equiv_pos_as_xyz
  x,y,z
_cell_length_a	10.654551
_cell_length_b	15.944564
_cell_length_c	15.021413
_cell_angle_alpha	90.001097
_cell_angle_beta	90.006661
_cell_angle_gamma	96.005397
loop_
_atom_site_label
_atom_site_type_symbol
_atom_site_fract_x
_atom_site_fract_y
_atom_site_fract_z
O1	O	1.666329	-0.117970	0.074023
O2	O	1.300706	-0.129210	0.074028
O3	O	1.493493	-0.001374	0.074017
O4	O	1.473541	-0.245806	0.074034
O5	O	1.493464	-0.001388	-0.074047
O6	O	1.300676	-0.129223	-0.074036
O7	O	1.666299	-0.117984	-0.074041
Zn8	Zn	1.483483	-0.123606	-0.097547
Zn9	Zn	1.483522	-0.123588	0.097534
O10	O	1.473512	-0.245820	-0.074030
C11	C	1.253903	-0.128391	-0.000004
C12	C	1.114492	-0.125922	-0.000002
C13	C	0.917989	-0.122440	-0.080713
C14	C	1.048979	-0.124767	-0.080713
C15	C	1.049006	-0.124757	0.080714
C16	C	0.918017	-0.122435	0.080713
C17	C	0.852485	-0.121277	-0.161430
C18	C	0.917962	-0.122443	-0.242147
C19	C	1.048952	-0.124771	-0.242147
C20	C	1.114466	-0.125932	-0.161430
C21	C	1.492647	0.029918	-0.000015
C22	C	1.490156	0.123178	-0.000016
C23	C	1.364696	0.338760	-0.000003
C24	C	1.422930	0.399433	-0.073009
C25	C	1.485648	0.293929	-0.000010
C26	C	1.422987	0.399430	0.072971
C27	C	1.481285	0.458866	-0.000000
C28	C	1.543915	0.353373	-0.073076
C29	C	1.543955	0.353364	0.072969
C30	C	1.602277	0.414019	-0.000054
C31	C	1.488158	0.198913	-0.000017
C32	C	1.478784	0.553881	-0.000000
C33	C	1.713101	-0.118803	-0.000007
C34	C	1.852513	-0.121272	-0.000003
N35	N	1.483466	-0.123618	-0.230685
C36	C	1.474340	0.722887	0.000003
C37	C	1.476781	0.629623	0.000007
C38	C	1.395059	-0.183199	-0.529694
C39	C	1.369643	-0.107384	-0.470341
C40	C	1.483520	-0.123584	-0.587722
C41	C	1.508850	-0.199414	-0.470334
C42	C	1.483490	-0.123605	-0.412297
C43	C	1.458047	-0.047730	-0.529674
C44	C	1.597305	-0.139810	-0.529673
C45	C	1.571936	-0.063939	-0.470345
C46	C	1.483535	-0.123573	-0.688779
C47	C	1.483477	-0.123607	-0.311242
N48	N	1.483549	-0.123569	0.230672
H49	H	1.102357	-0.125702	0.146430
H50	H	1.530305	-0.263536	-0.444285
H51	H	1.371760	0.419831	-0.134728
H52	H	1.595017	0.333081	-0.134864
H53	H	1.646736	-0.013478	-0.444452
Cl54	Cl	1.221062	-0.086200	-0.430097
H55	H	1.264306	0.306034	-0.000075
H56	H	1.436498	0.016404	-0.555631
Cl57	Cl	0.835696	-0.120971	0.182180
Cl58	Cl	1.131261	-0.126248	-0.343617
Cl59	Cl	1.279509	-0.260934	-0.569931
H60	H	1.702755	0.446595	-0.000097
H61	H	1.371826	0.419808	0.134695
Cl62	Cl	0.687812	-0.118352	-0.161435
H63	H	1.595081	0.332944	0.134692
H64	H	0.864611	-0.121504	-0.307863
H65	H	1.693512	-0.153556	-0.555756
H66	H	1.221125	-0.127838	-0.161437
