data_functionalizedCrystal
_audit_creation_method	'MofGen! by Chris Wilmer'
_symmetry_space_group_name_H-M	'P1'
_symmetry_Int_Tables_number	1
_symmetry_cell_setting	triclinic
loop_
_symmetry_equiv_pos_as_xyz
  x,y,z
_cell_length_a	10.489741
_cell_length_b	14.971486
_cell_length_c	14.048226
_cell_angle_alpha	89.993360
_cell_angle_beta	89.996252
_cell_angle_gamma	84.076651
loop_
_atom_site_label
_atom_site_type_symbol
_atom_site_fract_x
_atom_site_fract_y
_atom_site_fract_z
O1	O	1.692596	0.126198	-0.079102
O2	O	1.321264	0.138043	-0.079117
O3	O	1.516883	0.001977	-0.079103
O4	O	1.496977	0.262264	-0.079117
O5	O	1.516859	0.001969	0.079219
O6	O	1.321240	0.138035	0.079204
O7	O	1.692573	0.126189	0.079219
Zn8	Zn	1.506903	0.132111	0.104348
Zn9	Zn	1.506934	0.132122	-0.104247
O10	O	1.496954	0.262256	0.079204
C11	C	1.515981	-0.031357	0.000058
C12	C	1.513313	-0.130669	0.000057
C13	C	1.273731	0.137144	0.000042
C14	C	1.132132	0.134468	0.000036
C15	C	1.628234	-0.187241	0.000062
C16	C	1.625720	-0.280554	0.000052
C17	C	1.508283	-0.317295	0.000044
C18	C	1.393354	-0.260716	0.000036
C19	C	1.395869	-0.167404	0.000039
C20	C	1.388119	-0.455209	0.000032
C21	C	1.385603	-0.548527	0.000031
C22	C	1.617969	-0.568359	0.000046
C23	C	1.620485	-0.475047	0.000049
C24	C	1.505554	-0.418474	0.000042
C25	C	1.064994	0.047893	0.000050
C26	C	0.972405	0.088794	-0.078011
C27	C	0.972416	0.088806	0.078081
C28	C	1.041408	0.175404	-0.078089
C29	C	1.041429	0.175405	0.078073
C30	C	0.948867	0.216369	-0.000007
C31	C	1.740106	0.127088	0.000058
C32	C	1.881704	0.129765	0.000057
C33	C	1.497856	0.295589	0.000042
C34	C	1.500523	0.394902	0.000037
N35	N	1.506891	0.132103	0.246709
N36	N	1.506956	0.132123	-0.246607
C37	C	1.593538	0.071878	0.296534
C38	C	1.593547	0.071878	0.396191
C39	C	1.506913	0.132107	0.446023
C40	C	1.420257	0.192335	0.396191
C41	C	1.420243	0.192330	0.296535
C42	C	1.420293	0.192341	0.603905
C43	C	1.420308	0.192347	0.703568
C44	C	1.593597	0.071889	0.703561
C45	C	1.593584	0.071884	0.603906
C46	C	1.506928	0.132113	0.554081
H47	H	1.719300	-0.326611	0.000059
C48	C	1.742855	-0.629666	-0.000101
C49	C	1.813591	-0.612919	-0.081534
C50	C	1.928645	-0.669372	-0.081690
H51	H	1.724728	-0.690532	-0.000158
H52	H	1.791059	-0.618442	0.055086
H53	H	1.765396	-0.624150	-0.136707
H54	H	1.831752	-0.552064	-0.081494
H55	H	1.976849	-0.658147	-0.026503
H56	H	1.910505	-0.730234	-0.081744
H57	H	1.976659	-0.658010	-0.136936
H58	H	1.294530	-0.409149	0.000025
H59	H	1.716112	-0.445136	0.000062
H60	H	0.941852	0.052156	0.144076
C61	C	1.687886	0.006601	0.757605
C62	C	1.813233	0.021992	0.733366
C63	C	1.900126	-0.038118	0.783147
H64	H	1.674130	-0.053232	0.741327
H65	H	1.675569	0.015233	0.824101
H66	H	1.825544	0.013352	0.666884
H67	H	1.827029	0.081813	0.749646
H68	H	1.887810	-0.029486	0.849643
H69	H	1.886359	-0.097947	0.766865
H70	H	1.985183	-0.027678	0.766714
C71	C	1.326114	0.257820	0.242608
C72	C	1.250269	0.310585	0.307575
C73	C	1.163550	0.370931	0.257934
H74	H	1.272848	0.225381	0.203743
H75	H	1.372011	0.295417	0.203739
H76	H	1.204376	0.272993	0.346428
H77	H	1.303500	0.343044	0.346443
H78	H	1.209446	0.408528	0.219065
H79	H	1.110293	0.338484	0.219070
H80	H	1.112087	0.406745	0.302007
H81	H	1.071823	0.212011	-0.144158
H82	H	1.289976	-0.578438	0.000040
C83	C	1.265941	-0.300727	-0.000121
C84	C	1.257737	-0.353730	-0.081562
C85	C	1.140389	-0.390609	-0.081729
H86	H	1.197746	-0.253763	-0.000174
H87	H	1.260111	-0.336772	0.055061
H88	H	1.263555	-0.317687	-0.136729
H89	H	1.325905	-0.400708	-0.081526
H90	H	1.134559	-0.426654	-0.026547
H91	H	1.072204	-0.343640	-0.081780
H92	H	1.134812	-0.426582	-0.136981
H93	H	1.302289	-0.121344	0.000034
H94	H	1.115507	-0.023277	-0.000044
H95	H	1.664091	0.022836	0.255968
C96	C	1.687783	0.006463	0.450114
C97	C	1.763683	-0.046260	0.385145
C98	C	1.850527	-0.106520	0.434783
H99	H	1.642021	-0.031177	0.489010
H100	H	1.740988	0.038995	0.488953
H101	H	1.710485	-0.078789	0.346323
H102	H	1.809473	-0.008644	0.346247
H103	H	1.903732	-0.073988	0.473621
H104	H	1.804754	-0.144154	0.473677
H105	H	1.902043	-0.142294	0.390709
H106	H	1.349761	0.241391	0.744136
C107	C	1.326158	0.257835	0.549980
C108	C	1.250316	0.310602	0.614947
C109	C	1.163605	0.370955	0.565306
H110	H	1.272889	0.225400	0.511112
H111	H	1.372061	0.295430	0.511114
H112	H	1.204416	0.273012	0.653797
H113	H	1.303549	0.343057	0.653818
H114	H	1.209509	0.408550	0.526440
H115	H	1.110346	0.338512	0.526439
H116	H	1.112145	0.406770	0.609378
H117	H	1.723864	-0.157334	0.000075
H118	H	1.072041	0.212003	0.144068
H119	H	0.941825	0.052166	-0.144003
H120	H	0.898618	0.287614	-0.000053
H121	H	1.664133	0.022846	0.563333
H122	H	1.349711	0.241372	0.436770
