data_functionalizedCrystal
_audit_creation_method	'MofGen! by Chris Wilmer'
_symmetry_space_group_name_H-M	'P1'
_symmetry_Int_Tables_number	1
_symmetry_cell_setting	triclinic
loop_
_symmetry_equiv_pos_as_xyz
  x,y,z
_cell_length_a	6.817900
_cell_length_b	27.923497
_cell_length_c	27.924317
_cell_angle_alpha	97.608920
_cell_angle_beta	98.979858
_cell_angle_gamma	98.964248
loop_
_atom_site_label
_atom_site_type_symbol
_atom_site_fract_x
_atom_site_fract_y
_atom_site_fract_z
V1	V	-3.954534	-0.067878	-0.151603
O2	O	-3.966270	0.002491	-0.148388
O3	O	-3.884571	-0.133850	-0.150882
O4	O	-3.884657	-0.067172	-0.217578
O5	O	-3.966183	-0.064648	-0.081231
V6	V	-4.443739	-0.059421	-0.143147
O7	O	-4.203329	-0.086429	-0.170150
O8	O	-4.645141	-0.040870	-0.124599
O9	O	-4.290495	0.006550	-0.143868
O10	O	-4.549400	-0.129790	-0.146362
O11	O	-4.549487	-0.062652	-0.213519
O12	O	-4.290409	-0.060127	-0.077172
C13	C	-3.725021	-0.149922	-0.148572
C14	C	-3.748962	-0.203856	-0.148423
C15	C	-3.725131	-0.064867	-0.233648
C16	C	-3.749140	-0.064727	-0.287585
C17	C	-3.943262	-0.108045	-0.679873
C18	C	-3.853308	-0.108650	-0.477173
O19	O	-3.861343	-0.146543	-0.457043
N20	N	-3.818842	-0.064259	-0.444676
C21	C	-3.806851	-0.019713	-0.462858
O22	O	-3.775451	0.018031	-0.430566
C23	C	-3.896791	-0.019108	-0.665557
C24	C	-3.931278	-0.063503	-0.698052
C25	C	-3.977745	-0.152436	-0.712367
C26	C	-4.000243	-0.152284	-0.763039
C27	C	-3.988258	-0.107742	-0.781218
C28	C	-3.953776	-0.063351	-0.748724
C29	C	-3.884786	0.025437	-0.683738
C30	C	-3.907269	0.025584	-0.734416
C31	C	-3.941756	-0.018810	-0.766911
C32	C	-3.964289	-0.018657	-0.817575
N33	N	-3.998755	-0.063049	-0.850071
C34	C	-4.010740	-0.107591	-0.831892
C35	C	-3.759637	-0.020033	-0.356438
C36	C	-3.737155	-0.020184	-0.305763
C37	C	-3.783610	-0.109122	-0.320082
C38	C	-3.806106	-0.108970	-0.370758
C39	C	-3.794103	-0.064425	-0.388934
C40	C	-4.057987	-0.107269	-0.938307
C41	C	-4.080493	-0.107114	-0.988983
C42	C	-4.034026	-0.018177	-0.974661
C43	C	-4.011532	-0.018332	-0.923989
C44	C	-4.023508	-0.062882	-0.905814
O45	O	-3.956256	0.019216	-0.837738
O46	O	-4.042097	-0.145329	-0.864191
C47	C	-3.920765	-0.108197	-0.629201
C48	C	-3.886282	-0.063806	-0.596707
C49	C	-3.874297	-0.019263	-0.614886
C50	C	-3.863800	-0.063957	-0.546033
C51	C	-3.875785	-0.108499	-0.527854
C52	C	-3.910251	-0.152890	-0.560351
C53	C	-3.932749	-0.152739	-0.611023
C54	C	-3.839831	0.025128	-0.582390
C55	C	-3.817337	0.024973	-0.531718
C56	C	-3.829322	-0.019570	-0.513539
C57	C	-3.874335	-0.531154	-0.102977
C58	C	-3.964389	-0.733858	-0.102390
O59	O	-3.956336	-0.753991	-0.064498
N60	N	-3.998904	-0.766352	-0.146784
C61	C	-4.010919	-0.748167	-0.191328
O62	O	-4.042362	-0.780457	-0.229075
C63	C	-3.920879	-0.545464	-0.191915
C64	C	-3.886344	-0.512972	-0.147518
C65	C	-3.839804	-0.498662	-0.058584
C66	C	-3.817282	-0.447989	-0.058731
C67	C	-3.829290	-0.429807	-0.103272
C68	C	-3.863821	-0.462299	-0.147665
C69	C	-3.932908	-0.527280	-0.236459
C70	C	-3.910400	-0.476601	-0.236602
C71	C	-3.875865	-0.444109	-0.192205
C72	C	-3.853307	-0.393444	-0.192353
N73	N	-3.818792	-0.360950	-0.147959
C74	C	-3.806784	-0.379132	-0.103419
C75	C	-4.058185	-0.854589	-0.191016
C76	C	-4.080691	-0.905265	-0.190870
C77	C	-4.034164	-0.890952	-0.101931
C78	C	-4.011643	-0.840275	-0.102078
C79	C	-4.023670	-0.822095	-0.146622
C80	C	-3.759484	-0.272715	-0.103731
C81	C	-3.736954	-0.222038	-0.103882
C82	C	-3.783493	-0.236355	-0.192820
C83	C	-3.806012	-0.287028	-0.192669
C84	C	-3.794011	-0.305206	-0.148121
O85	O	-3.861358	-0.373277	-0.230225
O86	O	-3.775383	-0.346835	-0.065678
C87	C	-3.896858	-0.581827	-0.102830
C88	C	-3.931389	-0.614318	-0.147224
C89	C	-3.943398	-0.596136	-0.191764
C90	C	-3.953896	-0.664994	-0.147077
C91	C	-3.941887	-0.683176	-0.102536
C92	C	-3.907373	-0.650682	-0.058142
C93	C	-3.884850	-0.600009	-0.058289
C94	C	-3.977912	-0.628630	-0.236158
C95	C	-4.000431	-0.679303	-0.236007
C96	C	-3.988423	-0.697485	-0.191467
C97	C	-4.113387	0.022619	-0.146176
C98	C	-4.068683	0.076554	-0.146329
C99	C	-4.113278	-0.062434	-0.061099
C100	C	-4.068508	-0.062572	-0.007162
H101	H	-4.108578	-0.143267	-1.015439
F102	F	-4.021275	0.029226	-0.994017
F103	F	-3.700192	-0.187460	-0.056626
H104	H	-4.028318	-0.188435	-0.789492
F105	F	-3.923211	-0.457256	-0.284014
H106	H	-3.830059	0.061400	-0.597184
H107	H	-3.789272	0.061126	-0.505264
F108	F	-3.827024	-0.518004	-0.011173
H109	H	-3.709106	0.015966	-0.279311
H110	H	-3.856730	-0.573558	-0.022137
F111	F	-4.070735	-0.154685	-0.918972
H112	H	-3.961029	-0.553727	-0.272612
F113	F	-3.746707	-0.292054	-0.056318
H114	H	-3.789175	-0.421538	-0.022578
H115	H	-3.983521	-0.813823	-0.065926
H116	H	-3.987502	-0.188709	-0.697573
H117	H	-3.749853	0.016243	-0.371232
H118	H	-4.024381	-0.905764	-0.065664
H119	H	-3.960827	-0.188889	-0.637476
H120	H	-4.108779	-0.931715	-0.227022
H121	H	-3.834180	-0.145120	-0.397212
F122	F	-3.842839	-0.321610	-0.239922
H123	H	-3.856708	0.061588	-0.657289
F124	F	-4.070982	-0.835247	-0.238429
F125	F	-3.796254	-0.216995	-0.240221
F126	F	-3.894587	-0.670041	-0.010739
F127	F	-3.796360	-0.156527	-0.300727
H128	H	-3.983476	0.017817	-0.897531
F129	F	-3.894486	0.072998	-0.753758
F130	F	-3.923012	-0.200296	-0.540995
H131	H	-4.028536	-0.705755	-0.272164
F132	F	-3.990696	-0.609287	-0.283567
