data_functionalizedCrystal
_audit_creation_method	'MofGen! by Chris Wilmer'
_symmetry_space_group_name_H-M	'P1'
_symmetry_Int_Tables_number	1
_symmetry_cell_setting	triclinic
loop_
_symmetry_equiv_pos_as_xyz
  x,y,z
_cell_length_a	16.959455
_cell_length_b	25.639239
_cell_length_c	16.959447
_cell_angle_alpha	89.966842
_cell_angle_beta	89.983056
_cell_angle_gamma	90.035633
loop_
_atom_site_label
_atom_site_type_symbol
_atom_site_fract_x
_atom_site_fract_y
_atom_site_fract_z
Zn1	Zn	1.208302	-0.208183	-0.446894
Zn2	Zn	1.208175	-0.295623	-0.314709
Zn3	Zn	1.076124	-0.208199	-0.314731
Zn4	Zn	1.076052	-0.295584	-0.446847
O5	O	1.142164	-0.251897	-0.380795
O6	O	1.318896	-0.219791	-0.429369
O7	O	1.190636	-0.284050	-0.204101
O8	O	1.093741	-0.135032	-0.332291
O9	O	1.318803	-0.284034	-0.332253
O10	O	1.190851	-0.135020	-0.429391
O11	O	1.093619	-0.219820	-0.204117
O12	O	0.965504	-0.219781	-0.332247
O13	O	1.093618	-0.283967	-0.557464
O14	O	0.965451	-0.283983	-0.429312
O15	O	1.190781	-0.219753	-0.557498
O16	O	1.190566	-0.368783	-0.332208
O17	O	1.093495	-0.368755	-0.429290
C18	C	0.936797	-0.251880	-0.380777
C19	C	0.848941	-0.251885	-0.380788
C20	C	0.477468	-0.218440	-0.330359
C21	C	0.477462	-0.285397	-0.431277
C22	C	0.560008	-0.285390	-0.431272
C23	C	0.601288	-0.251908	-0.380809
C24	C	0.560022	-0.218433	-0.330351
C25	C	0.601280	-0.318868	-0.481723
C26	C	0.683831	-0.318862	-0.481720
C27	C	0.725112	-0.285377	-0.431260
C28	C	0.683841	-0.251900	-0.380801
C29	C	0.725121	-0.218418	-0.330338
C30	C	0.683852	-0.184938	-0.279882
C31	C	0.601303	-0.184948	-0.279891
C32	C	0.807661	-0.285368	-0.431251
C33	C	0.807675	-0.218411	-0.330330
C34	C	1.142031	-0.387740	-0.380759
C35	C	1.142046	-0.445854	-0.380770
C36	C	1.192840	-0.806219	-0.330331
C37	C	1.192871	-0.860824	-0.330341
O38	O	1.235920	-0.889063	-0.287417
N39	N	1.142302	-0.888136	-0.380847
C40	C	1.091706	-0.860842	-0.431352
O41	O	1.048697	-0.889087	-0.474313
C42	C	1.091680	-0.806239	-0.431345
C43	C	1.142246	-0.778929	-0.380830
C44	C	1.243402	-0.778910	-0.279820
C45	C	1.243370	-0.724309	-0.279809
C46	C	1.192776	-0.697018	-0.330308
C47	C	1.142214	-0.724328	-0.380818
C48	C	1.041088	-0.778945	-0.481853
C49	C	1.041067	-0.724338	-0.481842
C50	C	1.091633	-0.697028	-0.431326
C51	C	1.091588	-0.642437	-0.431306
N52	N	1.142156	-0.615124	-0.380800
C53	C	1.192750	-0.642415	-0.330301
C54	C	1.091766	-0.975513	-0.431364
C55	C	1.091787	-1.030115	-0.431368
C56	C	1.192953	-1.030093	-0.330358
C57	C	1.192927	-0.975490	-0.330351
C58	C	1.142334	-0.948200	-0.380858
C59	C	1.192679	-0.527750	-0.330280
C60	C	1.192640	-0.473145	-0.330271
C61	C	1.091478	-0.473171	-0.431283
C62	C	1.091513	-0.527772	-0.431290
C63	C	1.142120	-0.555060	-0.380786
O64	O	1.048563	-0.614164	-0.474211
O65	O	1.235759	-0.614163	-0.287355
C66	C	1.348332	-0.251915	-0.380814
C67	C	1.436188	-0.251923	-0.380822
C68	C	1.142206	-0.251854	-0.586963
C69	C	1.142224	-0.251835	-0.674820
C70	C	1.142318	-0.115524	-0.380849
C71	C	1.142385	-0.057410	-0.380872
C72	C	1.091781	-0.218339	-1.046311
C73	C	1.192806	-0.285222	-1.046281
C74	C	1.192792	-0.285234	-0.963735
C75	C	1.142271	-0.251799	-0.922473
C76	C	1.091764	-0.218351	-0.963757
C77	C	1.243293	-0.318685	-0.922445
C78	C	1.243281	-0.318699	-0.839894
C79	C	1.192763	-0.285260	-0.798631
C80	C	1.142254	-0.251811	-0.839920
C81	C	1.091734	-0.218375	-0.798658
C82	C	1.041228	-0.184923	-0.839945
C83	C	1.041247	-0.184912	-0.922494
C84	C	1.192745	-0.285271	-0.716082
C85	C	1.091717	-0.218388	-0.716104
C86	C	1.142167	-0.251903	-0.175429
C87	C	1.142302	-0.251774	-0.087573
H88	H	0.443863	-0.191181	-0.289281
O89	O	0.992214	-0.152469	-0.962722
C90	C	0.947504	-0.122789	-1.089909
C91	C	1.003059	-0.159565	-1.044445
H92	H	0.956265	-0.128505	-1.155990
H93	H	0.883735	-0.131967	-1.073727
H94	H	0.961422	-0.080639	-1.073658
H95	H	0.989212	-0.201727	-1.060672
H96	H	1.066811	-0.150342	-1.060631
O97	O	1.242010	-0.949020	-0.281175
C98	C	1.280421	-0.932331	-0.146749
C99	C	1.224794	-0.962346	-0.202353
H100	H	1.266511	-0.943086	-0.083010
H101	H	1.344166	-0.943035	-0.160623
H102	H	1.271732	-0.888619	-0.155455
H103	H	1.233413	-1.006065	-0.193679
H104	H	1.161070	-0.951598	-0.188466
O105	O	1.292382	-0.351117	-0.799703
C106	C	1.399109	-0.358167	-0.706551
C107	C	1.343538	-0.321397	-0.752005
H108	H	1.440495	-0.334153	-0.667988
H109	H	1.362827	-0.385500	-0.667828
H110	H	1.435183	-0.382074	-0.750236
H111	H	1.307453	-0.297456	-0.708376
H112	H	1.379866	-0.294099	-0.790740
H113	H	1.233871	-0.312504	-0.682469
H114	H	0.567694	-0.157691	-0.238812
O115	O	0.437488	-0.317964	-0.480326
C116	C	0.446187	-0.384339	-0.580481
C117	C	0.491559	-0.347495	-0.524950
H118	H	0.489884	-0.408217	-0.616586
H119	H	0.407523	-0.411691	-0.544169
H120	H	0.407556	-0.360355	-0.621839
H121	H	0.530233	-0.371437	-0.483581
H122	H	0.530173	-0.320142	-0.561311
O123	O	0.723879	-0.351324	-0.530849
C124	C	0.749122	-0.376828	-0.665233
C125	C	0.703732	-0.340026	-0.609682
H126	H	0.732838	-0.367714	-0.728980
H127	H	0.815223	-0.371069	-0.656634
H128	H	0.732867	-0.418974	-0.651199
H129	H	0.719922	-0.297866	-0.623681
H130	H	0.637643	-0.345830	-0.618291
O131	O	1.042747	-0.185894	-1.086534
C132	C	0.998035	-0.156202	-1.213714
C133	C	1.053592	-0.192981	-1.168259
H134	H	1.006795	-0.161911	-1.279796
H135	H	0.934267	-0.165381	-1.197533
H136	H	1.011952	-0.114053	-1.197454
H137	H	1.039745	-0.235142	-1.184494
H138	H	1.117343	-0.183757	-1.184444
H139	H	1.050579	-0.191157	-0.682514
H140	H	1.233817	-0.450911	-0.289133
O141	O	1.241959	-0.317627	-1.086397
C142	C	1.348643	-0.324660	-1.179653
C143	C	1.293039	-0.287901	-1.134252
H144	H	1.389945	-0.300642	-1.218367
H145	H	1.384798	-0.348560	-1.136003
H146	H	1.312307	-0.352000	-1.218243
H147	H	1.329314	-0.260530	-1.095661
H148	H	1.256881	-0.264038	-1.177944
O149	O	1.042450	-0.446630	-0.480422
C150	C	1.031750	-0.384906	-0.587078
C151	C	1.087356	-0.414943	-0.531485
H152	H	1.068034	-0.359272	-0.628366
H153	H	0.995625	-0.413775	-0.623248
H154	H	0.990414	-0.359406	-0.550731
H155	H	1.128740	-0.440444	-0.567771
H156	H	1.123426	-0.386046	-0.495313
O157	O	0.561224	-0.351461	-0.530666
C158	C	0.535951	-0.440424	-0.568858
C159	C	0.581348	-0.403574	-0.513357
H160	H	0.552217	-0.482564	-0.554895
H161	H	0.469851	-0.434723	-0.560207
H162	H	0.552218	-0.431258	-0.632606
H163	H	0.565147	-0.412717	-0.449588
H164	H	0.647437	-0.409281	-0.522076
O165	O	0.992227	-0.152462	-0.799738
C166	C	0.947397	-0.122873	-0.672570
C167	C	1.002942	-0.159651	-0.718010
H168	H	0.956029	-0.128680	-0.606485
H169	H	0.961331	-0.080699	-0.688755
H170	H	0.883662	-0.132038	-0.688838
H171	H	1.066696	-0.150532	-0.701766
H172	H	0.988941	-0.201813	-0.701820
O173	O	1.292330	-0.351120	-0.962647
C174	C	1.337072	-0.380774	-1.089811
C175	C	1.281514	-0.344002	-1.044376
H176	H	1.328335	-0.375040	-1.155896
H177	H	1.400838	-0.371610	-1.073656
H178	H	1.323134	-0.422926	-1.073507
H179	H	1.295381	-0.301837	-1.060655
H180	H	1.217765	-0.353211	-1.060534
H181	H	0.841259	-0.312628	-0.472329
O182	O	0.723832	-0.152400	-0.230785
C183	C	0.715148	-0.085967	-0.130717
C184	C	0.669768	-0.122795	-0.186265
H185	H	0.671456	-0.062014	-0.094720
H186	H	0.753733	-0.109915	-0.089266
H187	H	0.753858	-0.058681	-0.167089
H188	H	0.631014	-0.150089	-0.149957
H189	H	0.631233	-0.098815	-0.227719
H190	H	0.841279	-0.191142	-0.289241
H191	H	1.284548	-0.702076	-0.238678
O192	O	1.241860	-0.554172	-0.281144
C193	C	1.342222	-0.548372	-0.180981
C194	C	1.286558	-0.518386	-0.236578
H195	H	1.378387	-0.519452	-0.144946
H196	H	1.306011	-0.573964	-0.139566
H197	H	1.383518	-0.573907	-0.217317
H198	H	1.245252	-0.492823	-0.200305
H199	H	1.322819	-0.492827	-0.277994
H200	H	1.050341	-0.550009	-0.472426
H201	H	1.284606	-0.801124	-0.238698
O202	O	1.242134	-1.056689	-0.281433
C203	C	1.287095	-1.140806	-0.236788
C204	C	1.231342	-1.110749	-0.292209
H205	H	1.278378	-1.184519	-0.245468
H206	H	1.350809	-1.130037	-0.250800
H207	H	1.273335	-1.130107	-0.173017
H208	H	1.245031	-1.121432	-0.355997
H209	H	1.167645	-1.121521	-0.278128
O210	O	1.042636	-1.056560	-0.480507
C211	C	0.942258	-1.050803	-0.580659
C212	C	0.997892	-1.020793	-0.525057
H213	H	0.906056	-1.021899	-0.616681
H214	H	0.978496	-1.076309	-0.622085
H215	H	0.900995	-1.076426	-0.544328
H216	H	1.039166	-0.995142	-0.561325
H217	H	0.961605	-0.995320	-0.483630
O218	O	1.042721	-0.948982	-0.480506
C219	C	1.031972	-0.887275	-0.587181
C220	C	1.087603	-0.917294	-0.531590
H221	H	1.068236	-0.861640	-0.628485
H222	H	0.995851	-0.916156	-0.623333
H223	H	0.990633	-0.861778	-0.550834
H224	H	1.128989	-0.942792	-0.567876
H225	H	1.123668	-0.888385	-0.495435
H226	H	0.999908	-0.801171	-0.522984
H227	H	0.999869	-0.702121	-0.522973
