data_functionalizedCrystal
_audit_creation_method	'MofGen! by Chris Wilmer'
_symmetry_space_group_name_H-M	'P1'
_symmetry_Int_Tables_number	1
_symmetry_cell_setting	triclinic
loop_
_symmetry_equiv_pos_as_xyz
  x,y,z
_cell_length_a	19.288864
_cell_length_b	11.295501
_cell_length_c	19.288865
_cell_angle_alpha	85.383409
_cell_angle_beta	96.863755
_cell_angle_gamma	94.625353
loop_
_atom_site_label
_atom_site_type_symbol
_atom_site_fract_x
_atom_site_fract_y
_atom_site_fract_z
O1	O	0.925526	0.099423	-0.090825
O2	O	1.425526	0.599423	0.409175
O3	O	0.723262	0.099344	-0.102510
O4	O	1.223262	0.599344	0.397490
O5	O	0.830237	0.099362	0.004464
O6	O	1.330237	0.599362	0.504464
O7	O	0.818550	0.099405	-0.197798
O8	O	1.318550	0.599405	0.302202
O9	O	0.821906	-0.098694	0.012788
O10	O	1.321906	0.401306	0.512788
O11	O	0.714931	-0.098712	-0.094186
O12	O	1.214931	0.401288	0.405814
O13	O	0.917195	-0.098633	-0.082501
O14	O	1.417195	0.401367	0.417499
Cu15	Cu	0.815302	-0.116757	-0.087583
Cu16	Cu	1.315302	0.383243	0.412417
Cu17	Cu	0.825154	0.117468	-0.097427
Cu18	Cu	1.325154	0.617468	0.402573
O19	O	0.810220	-0.098651	-0.189475
O20	O	1.310220	0.401349	0.310525
C21	C	0.693219	0.000305	-0.097971
C22	C	1.193219	0.500305	0.402029
C23	C	0.616115	0.000274	-0.096841
C24	C	1.116115	0.500274	0.403159
C25	C	0.571420	0.000306	-0.159610
C26	C	1.071420	0.500306	0.340390
C27	C	0.498973	0.000319	-0.158550
C28	C	0.998973	0.500319	0.341450
C29	C	0.471226	0.000324	-0.094718
C30	C	0.971226	0.500324	0.405282
C31	C	0.515930	0.000285	-0.031941
C32	C	1.015930	0.500285	0.468059
C33	C	0.588375	0.000260	-0.033002
C34	C	1.088375	0.500260	0.466998
C35	C	0.365884	0.069741	-0.047457
C36	C	0.865884	0.569741	0.452543
C37	C	0.293440	0.069773	-0.046398
C38	C	0.793440	0.569773	0.453602
C39	C	0.247783	0.000395	-0.091442
C40	C	0.747783	0.500395	0.408558
C41	C	0.274577	-0.069000	-0.137556
C42	C	0.774577	0.431000	0.362444
C43	C	0.347021	-0.069025	-0.138618
C44	C	0.847021	0.430975	0.361382
C45	C	0.392673	0.000350	-0.093560
C46	C	0.892673	0.500350	0.406440
C47	C	0.124533	0.000439	-0.153066
C48	C	0.624533	0.500439	0.346934
C49	C	0.052085	0.000445	-0.152003
C50	C	0.552085	0.500445	0.347997
C51	C	0.069044	0.000423	-0.025392
C52	C	0.569044	0.500423	0.474608
C53	C	0.141490	0.000405	-0.026456
C54	C	0.641490	0.500405	0.473544
C55	C	0.169230	0.000419	-0.090295
C56	C	0.669230	0.500419	0.409705
N57	N	0.808378	-0.281497	-0.080659
N58	N	1.308378	0.218503	0.419341
C59	C	0.881921	-0.530741	-0.154222
C60	C	1.381921	-0.030741	0.345778
C61	C	0.876694	-0.655408	-0.148984
C62	C	1.376694	-0.155408	0.351016
C63	C	0.792700	-0.655500	-0.064941
C64	C	1.292700	-0.155500	0.435059
C65	C	0.797928	-0.530833	-0.070179
C66	C	1.297928	-0.030833	0.429821
C67	C	0.842539	-0.468458	-0.114822
C68	C	1.342539	0.031542	0.385178
C69	C	0.847762	-0.343789	-0.120064
C70	C	1.347762	0.156211	0.379936
C71	C	0.763772	-0.343884	-0.036018
C72	C	1.263772	0.156116	0.463982
C73	C	0.758545	-0.468551	-0.030779
C74	C	1.258545	0.031449	0.469221
C75	C	0.947237	0.000409	-0.087039
C76	C	1.447237	0.500409	0.412961
C77	C	1.024343	0.000448	-0.088170
C78	C	1.524343	0.500448	0.411830
C79	C	0.825696	0.000331	0.034502
C80	C	1.325696	0.500331	0.534502
C81	C	0.824566	0.000320	0.111607
C82	C	1.324566	0.500320	0.611607
N83	N	0.832084	0.282208	-0.104346
N84	N	1.332084	0.782208	0.395654
C85	C	0.814761	0.000383	-0.219513
C86	C	1.314761	0.500383	0.280487
C87	C	0.815891	0.000402	-0.296618
C88	C	1.315891	0.500402	0.203382
C89	C	0.887335	0.000339	0.156302
C90	C	1.387335	0.500339	0.656302
C91	C	0.886275	0.000357	0.228748
C92	C	1.386275	0.500357	0.728748
C93	C	0.822442	0.000333	0.256497
C94	C	1.322442	0.500333	0.756497
C95	C	0.759665	0.000320	0.211791
C96	C	1.259665	0.500320	0.711791
C97	C	0.760727	0.000314	0.139346
C98	C	1.260727	0.500314	0.639346
C99	C	0.769343	-0.069062	0.367701
C100	C	1.269343	0.430938	0.867701
C101	C	0.768283	-0.069063	0.440145
C102	C	1.268283	0.430937	0.940145
C103	C	0.819163	0.000358	0.479941
C104	C	1.319163	0.500358	0.979941
C105	C	0.871114	0.069764	0.447286
C106	C	1.371114	0.569764	0.947286
C107	C	0.872176	0.069758	0.374841
C108	C	1.372176	0.569758	0.874841
C109	C	0.821283	0.000340	0.335051
C110	C	1.321283	0.500340	0.835051
C111	C	0.880787	0.000399	0.603192
C112	C	1.380787	0.500399	1.103192
C113	C	0.879725	0.000424	0.675639
C114	C	1.379725	0.500424	1.175639
C115	C	0.753113	0.000376	0.658681
C116	C	1.253113	0.500376	1.158681
C117	C	0.754177	0.000362	0.586235
C118	C	1.254177	0.500362	1.086235
C119	C	0.818016	0.000368	0.558495
C120	C	1.318016	0.500368	1.058495
H121	H	0.015694	0.000464	-0.203119
H122	H	0.515694	0.500464	0.296881
Cl123	Cl	0.938002	-0.452322	-0.210343
Cl124	Cl	1.438002	0.047678	0.289657
Cl125	Cl	0.197681	0.000372	0.052458
Cl126	Cl	0.697681	0.500372	0.552458
H127	H	0.756387	-0.706308	-0.028587
H128	H	1.256387	-0.206308	0.471413
H129	H	0.731701	-0.293160	-0.003939
H130	H	1.231701	0.206840	0.496061
Cl131	Cl	0.702977	-0.156320	0.481190
Cl132	Cl	1.202977	0.343680	0.981190
Cl133	Cl	0.259764	0.157024	0.011567
Cl134	Cl	0.759764	0.657024	0.511567
Cl135	Cl	0.702465	-0.546977	0.025339
Cl136	Cl	1.202465	-0.046977	0.525339
H137	H	0.493334	0.000305	0.020031
H138	H	0.993334	0.500305	0.520031
Cl139	Cl	0.926207	-0.733702	-0.198517
Cl140	Cl	1.426207	-0.233702	0.301483
H141	H	0.046456	0.000501	0.026579
H142	H	0.546456	0.500501	0.526579
Cl143	Cl	0.967591	0.000379	0.121432
Cl144	Cl	1.467591	0.500379	0.621432
Cl145	Cl	0.965190	0.000382	0.284947
Cl146	Cl	1.465190	0.500382	0.784947
Cl147	Cl	0.903845	-0.265375	-0.176185
Cl148	Cl	1.403845	0.234625	0.323815
H149	H	0.914475	0.126273	0.348256
H150	H	1.414475	0.626273	0.848256
H151	H	0.912545	0.126294	0.479687
H152	H	1.412545	0.626294	0.979687
Cl153	Cl	0.961039	0.000399	0.568316
Cl154	Cl	1.461039	0.500399	1.068316
Cl155	Cl	0.423275	0.156968	0.009176
Cl156	Cl	0.923275	0.656968	0.509176
Cl157	Cl	0.644566	0.000221	0.045915
Cl158	Cl	1.144566	0.500221	0.545915
H159	H	0.930841	0.000446	0.712030
H160	H	1.430841	0.500446	1.212030
Cl161	Cl	0.705375	-0.156346	0.317679
Cl162	Cl	1.205375	0.343654	0.817679
H163	H	0.701139	0.000362	0.681273
H164	H	1.201139	0.500362	1.181273
H165	H	0.703064	0.000340	0.549843
H166	H	1.203064	0.500340	1.049843
Cl167	Cl	0.679418	0.000299	0.246674
Cl168	Cl	1.179418	0.500299	0.746674
H169	H	0.594000	0.000319	-0.211593
H170	H	1.094000	0.500319	0.288407
H171	H	0.462575	0.000341	-0.209666
H172	H	0.962575	0.500341	0.290334
Cl173	Cl	0.380704	-0.156265	-0.196584
Cl174	Cl	0.880704	0.343735	0.303416
Cl175	Cl	0.159409	0.000445	-0.233318
Cl176	Cl	0.659409	0.500445	0.266682
H177	H	0.709612	0.000298	0.102954
H178	H	1.209612	0.500298	0.602954
H179	H	0.237404	-0.125495	-0.174235
H180	H	0.737404	0.374505	0.325765
