data_functionalizedCrystal
_audit_creation_method	'MofGen! by Chris Wilmer'
_symmetry_space_group_name_H-M	'P1'
_symmetry_Int_Tables_number	1
_symmetry_cell_setting	triclinic
loop_
_symmetry_equiv_pos_as_xyz
  x,y,z
_cell_length_a	30.570296
_cell_length_b	30.570259
_cell_length_c	30.570330
_cell_angle_alpha	89.996786
_cell_angle_beta	59.999402
_cell_angle_gamma	60.000192
loop_
_atom_site_label
_atom_site_type_symbol
_atom_site_fract_x
_atom_site_fract_y
_atom_site_fract_z
O1	O	-0.313092	-0.372840	0.013014
O2	O	-0.223518	-0.309228	-0.012949
O3	O	-0.313090	-0.309227	0.076622
O4	O	-0.223520	-0.372841	-0.076558
O5	O	-0.385840	-0.236475	0.076616
O6	O	-0.296268	-0.236476	-0.012956
O7	O	-0.385843	-0.300088	0.013007
Cu8	Cu	-0.347698	-0.261639	0.000025
Cu9	Cu	-0.261662	-0.347677	0.000033
O10	O	-0.296270	-0.300089	-0.076564
C11	C	-0.161515	-0.109443	-0.027135
C12	C	-0.192225	-0.051741	-0.023415
C13	C	-0.187590	-0.136012	-0.027508
C14	C	-0.082299	-0.188658	-0.027140
C15	C	-0.028311	-0.215652	-0.023427
C16	C	-0.108494	-0.215106	-0.027514
C17	C	-0.161510	-0.188658	-0.027143
C18	C	-0.192216	-0.215653	-0.023432
C19	C	-0.108499	-0.136011	-0.027506
C20	C	-0.217024	-0.237462	-0.020433
C21	C	-0.217037	-0.005123	-0.020409
C22	C	0.015304	-0.237461	-0.020425
C23	C	-0.248146	-0.264822	-0.016671
C24	C	-0.248164	0.053362	-0.016639
C25	C	0.070023	-0.264821	-0.016661
C26	C	-0.481152	-0.528842	0.031536
C27	C	-0.534165	-0.502275	0.031903
C28	C	-0.481148	-0.449631	0.031528
C29	C	-0.534161	-0.423185	0.031896
C30	C	-0.560360	-0.449632	0.031529
C31	C	-0.455073	-0.502274	0.031903
C32	C	-0.395338	-0.614452	0.025115
C33	C	-0.366178	-0.668548	0.021063
C34	C	-0.391211	-0.695679	0.019030
C35	C	-0.359594	-0.754334	0.014634
C36	C	-0.445408	-0.668720	0.021054
C37	C	-0.474569	-0.614626	0.025109
C38	C	-0.449531	-0.587494	0.027137
C39	C	-0.639545	-0.449839	0.025101
C40	C	-0.689584	-0.424906	0.021041
C41	C	-0.714677	-0.372743	0.019001
C42	C	-0.768931	-0.345708	0.014597
C43	C	-0.689741	-0.345505	0.021025
C44	C	-0.639707	-0.370436	0.025087
C45	C	-0.614609	-0.422603	0.027122
C46	C	-0.395329	-0.449836	0.025100
C47	C	-0.366161	-0.424904	0.021034
C48	C	-0.391190	-0.372741	0.018993
C49	C	-0.359569	-0.345704	0.014589
C50	C	-0.445383	-0.345506	0.021015
C51	C	-0.474551	-0.370436	0.025079
C52	C	-0.449522	-0.422601	0.027122
C53	C	-0.128228	-0.449628	-0.400609
C54	C	-0.075215	-0.502271	-0.427053
C55	C	-0.128227	-0.449628	-0.321396
C56	C	-0.075215	-0.502272	-0.347960
C57	C	-0.049019	-0.528839	-0.400604
C58	C	-0.154303	-0.423181	-0.347965
C59	C	-0.214043	-0.370239	-0.400408
C60	C	-0.243205	-0.345133	-0.425344
C61	C	-0.218175	-0.372200	-0.477506
C62	C	-0.249793	-0.344982	-0.504544
C63	C	-0.163978	-0.424371	-0.504741
C64	C	-0.134816	-0.449475	-0.479807
C65	C	-0.159851	-0.422408	-0.427640
C66	C	0.030162	-0.614449	-0.479988
C67	C	0.080200	-0.668545	-0.505091
C68	C	0.105295	-0.695677	-0.478022
C69	C	0.159547	-0.754332	-0.505236
C70	C	0.080362	-0.668717	-0.425851
C71	C	0.030329	-0.614623	-0.400751
C72	C	0.005229	-0.587492	-0.427820
C73	C	-0.214042	-0.370240	-0.235789
C74	C	-0.243208	-0.345138	-0.181690
C75	C	-0.218177	-0.372204	-0.154557
C76	C	-0.249795	-0.344988	-0.095902
C77	C	-0.163985	-0.424374	-0.181512
C78	C	-0.134819	-0.449479	-0.235608
C79	C	-0.159849	-0.422410	-0.262744
O80	O	0.213309	-0.300091	0.013016
O81	O	0.086078	-0.236472	-0.012938
O82	O	0.086084	-0.236486	0.076629
O83	O	0.213303	-0.300077	-0.076552
O84	O	0.086088	-0.309243	0.076622
O85	O	0.086082	-0.309228	-0.012946
O86	O	0.213312	-0.372848	0.013008
Cu87	Cu	0.149698	-0.347682	0.000031
Cu88	Cu	0.149693	-0.261638	0.000039
O89	O	0.213306	-0.372833	-0.076559
O90	O	-0.385866	0.226322	0.013050
O91	O	-0.296289	0.073138	-0.012919
O92	O	-0.385858	0.162696	0.076655
O93	O	-0.296298	0.136763	-0.076524
O94	O	-0.313105	0.162697	0.076657
O95	O	-0.223536	0.073138	-0.012917
O96	O	-0.313113	0.226323	0.013052
Cu97	Cu	-0.261682	0.149731	0.000068
Cu98	Cu	-0.347721	0.149730	0.000065
O99	O	-0.223544	0.136764	-0.076522
O100	O	0.304526	-0.926857	-0.540983
O101	O	0.177307	-0.773677	-0.477379
O102	O	0.177302	-0.863245	-0.477372
O103	O	0.304531	-0.837288	-0.540990
O104	O	0.177300	-0.863243	-0.550126
O105	O	0.177305	-0.773675	-0.550132
O106	O	0.304525	-0.926855	-0.613737
Cu107	Cu	0.240915	-0.850265	-0.588578
Cu108	Cu	0.240917	-0.850267	-0.502538
O109	O	0.304530	-0.837286	-0.613744
O110	O	-0.313090	-0.309227	-0.613776
O111	O	-0.223523	-0.372838	-0.550158
O112	O	-0.313094	-0.372838	-0.550157
O113	O	-0.223519	-0.309226	-0.613777
O114	O	-0.385845	-0.300085	-0.477408
O115	O	-0.296275	-0.300085	-0.477409
O116	O	-0.385841	-0.236474	-0.541027
Cu117	Cu	-0.347701	-0.261636	-0.502575
Cu118	Cu	-0.261664	-0.347675	-0.588610
O119	O	-0.296271	-0.236473	-0.541028
C120	C	-0.527060	-0.109454	0.338398
C121	C	-0.581044	-0.051754	0.365387
C122	C	-0.500864	-0.136021	0.364848
C123	C	-0.447851	-0.188665	0.259191
C124	C	-0.417145	-0.215657	0.201492
C125	C	-0.421775	-0.215111	0.285761
C126	C	-0.447852	-0.188665	0.338404
C127	C	-0.417145	-0.215657	0.365399
C128	C	-0.500864	-0.136021	0.285755
C129	C	-0.392336	-0.237464	0.387208
C130	C	-0.624657	-0.005138	0.387191
C131	C	-0.392336	-0.237464	0.154876
C132	C	-0.361213	-0.264822	0.414569
C133	C	-0.679371	0.053343	0.414546
C134	C	-0.361213	-0.264822	0.096395
C135	C	-0.161507	-0.188707	0.338400
C136	C	-0.192213	-0.215704	0.365388
C137	C	-0.187587	-0.136063	0.364851
C138	C	-0.082295	-0.188697	0.259196
C139	C	-0.028307	-0.215684	0.201497
C140	C	-0.108495	-0.136053	0.285766
C141	C	-0.161512	-0.109492	0.338408
C142	C	-0.192222	-0.051792	0.365404
C143	C	-0.108491	-0.215148	0.285758
C144	C	-0.217034	-0.005176	0.387214
C145	C	-0.217021	-0.237515	0.387190
C146	C	0.015309	-0.237486	0.154882
C147	C	-0.248162	0.053305	0.414575
C148	C	-0.248144	-0.264879	0.414543
C149	C	0.070028	-0.264838	0.096402
C150	C	-0.447850	0.176857	0.338436
C151	C	-0.417140	0.173138	0.365428
C152	C	-0.500863	0.177222	0.364882
C153	C	-0.447857	0.176869	0.259227
C154	C	-0.417153	0.173164	0.201528
C155	C	-0.500869	0.177235	0.285792
C156	C	-0.527062	0.176856	0.338435
C157	C	-0.581045	0.173136	0.365426
C158	C	-0.421777	0.177235	0.285794
C159	C	-0.624658	0.170130	0.387231
C160	C	-0.392329	0.170132	0.387235
C161	C	-0.392347	0.170169	0.154913
C162	C	-0.679372	0.166359	0.414588
C163	C	-0.361202	0.166362	0.414593
C164	C	-0.361228	0.166413	0.096432
C165	C	0.518864	-0.528801	-0.400601
C166	C	0.544940	-0.502230	-0.427043
C167	C	0.439648	-0.449596	-0.321388
C168	C	0.465844	-0.423145	-0.347950
C169	C	0.518860	-0.449587	-0.400593
C170	C	0.465848	-0.502240	-0.347958
C171	C	0.525090	-0.614417	-0.400403
C172	C	0.554084	-0.668512	-0.425340
C173	C	0.608284	-0.695639	-0.477501
C174	C	0.639726	-0.754293	-0.504541
C175	C	0.633495	-0.668674	-0.504734
C176	C	0.604501	-0.614580	-0.479799
C177	C	0.550301	-0.587454	-0.427634
C178	C	0.604678	-0.449782	-0.479974
C179	C	0.633839	-0.424844	-0.505074
C180	C	0.608805	-0.372682	-0.478004
C181	C	0.640422	-0.345640	-0.505216
C182	C	0.554604	-0.345449	-0.425834
C183	C	0.525443	-0.370385	-0.400736
C184	C	0.550482	-0.422552	-0.427806
C185	C	0.360462	-0.449813	-0.235783
C186	C	0.310425	-0.424886	-0.181686
C187	C	0.285326	-0.372724	-0.154551
C188	C	0.231069	-0.345694	-0.095897
C189	C	0.310259	-0.345484	-0.181504
C190	C	0.360297	-0.370408	-0.235599
C191	C	0.385396	-0.422573	-0.262736
O192	O	-0.313129	0.226271	0.449840
O193	O	-0.223540	0.073088	0.386226
O194	O	-0.313126	0.162651	0.386233
O195	O	-0.223543	0.136708	0.449833
O196	O	-0.385865	0.162636	0.458990
O197	O	-0.296280	0.073073	0.458982
O198	O	-0.385868	0.226256	0.522597
Cu199	Cu	-0.347716	0.149663	0.497433
Cu200	Cu	-0.261693	0.149681	0.411390
O201	O	-0.296283	0.136693	0.522589
C202	C	-0.049063	0.118310	-0.400564
C203	C	-0.075263	0.117944	-0.427011
C204	C	-0.128268	0.118296	-0.321356
C205	C	-0.154348	0.117930	-0.347922
C206	C	-0.128275	0.118309	-0.400565
C207	C	-0.075256	0.117931	-0.347922
C208	C	0.030121	0.124738	-0.400358
C209	C	0.080159	0.128800	-0.425290
C210	C	0.105250	0.130844	-0.477452
C211	C	0.159502	0.135251	-0.504487
C212	C	0.080313	0.128822	-0.504689
C213	C	0.030280	0.124758	-0.479759
C214	C	0.005184	0.122719	-0.427593
C215	C	-0.134505	0.124750	-0.479951
C216	C	-0.163499	0.128811	-0.505056
C217	C	-0.217696	0.130842	-0.477990
C218	C	-0.249137	0.135248	-0.505206
C219	C	-0.242903	0.128807	-0.425819
C220	C	-0.213909	0.124744	-0.400717
C221	C	-0.159712	0.122717	-0.427783
C222	C	-0.134483	0.124711	-0.235746
C223	C	-0.163474	0.128766	-0.181649
C224	C	-0.217671	0.130797	-0.154518
C225	C	-0.249105	0.135189	-0.095864
C226	C	-0.242885	0.128777	-0.181476
C227	C	-0.213898	0.124724	-0.235571
C228	C	-0.159697	0.122691	-0.262704
H229	H	-0.086563	-0.258364	-0.028115
H230	H	-0.230245	-0.114682	-0.028111
Cl231	Cl	-0.608371	-0.336192	0.027647
H232	H	0.443935	-0.523580	-0.326630
Cl233	Cl	-0.253421	-0.103154	0.431643
H234	H	-0.522799	0.177841	0.264464
Cl235	Cl	-0.074651	-0.103114	0.252841
H236	H	-0.379119	0.177833	0.264467
Cl237	Cl	-0.001067	0.122213	-0.513997
H238	H	-0.379112	-0.258363	0.264429
Cl239	Cl	0.431981	-0.356360	-0.315022
H240	H	-0.518676	-0.348259	0.026722
Cl241	Cl	0.701971	-0.459080	-0.570657
H242	H	-0.522792	-0.114690	0.408102
H243	H	-0.619114	-0.492315	0.026762
H244	H	-0.086567	-0.258401	0.264427
H245	H	-0.234432	0.123084	-0.358241
Cl246	Cl	-0.542704	-0.580732	0.027661
Cl247	Cl	-0.074665	-0.103072	-0.028398
Cl248	Cl	-0.298034	-0.459144	0.018493
Cl249	Cl	-0.534716	-0.103094	0.252822
Cl250	Cl	0.610799	-0.535150	-0.493824
Cl251	Cl	-0.568008	-0.356405	0.032808
Cl252	Cl	0.111504	0.131341	-0.391050
H253	H	-0.522777	0.177803	0.408133
H254	H	-0.556089	-0.523607	0.032500
Cl255	Cl	0.701638	-0.702781	-0.570313
Cl256	Cl	0.392015	-0.515391	-0.269897
Cl257	Cl	-0.389210	-0.535204	0.032822
Cl258	Cl	0.279083	-0.459133	-0.147805
H259	H	0.534222	-0.302971	-0.403796
Cl260	Cl	-0.720928	-0.459149	0.018500
Cl261	Cl	-0.363864	-0.515413	0.027670
H262	H	0.010034	-0.592672	-0.358275
Cl263	Cl	-0.363862	-0.580344	0.027669
H264	H	0.480955	-0.592332	-0.357928
Cl265	Cl	-0.245515	-0.336209	-0.334828
Cl266	Cl	0.522390	-0.702406	-0.391104
Cl267	Cl	-0.298047	-0.702435	0.018516
Cl268	Cl	-0.476848	-0.279927	0.018446
Cl269	Cl	0.636188	-0.580680	-0.514033
H270	H	0.625065	-0.492256	-0.502023
Cl271	Cl	0.457307	-0.336153	-0.335156
H272	H	0.380597	-0.348226	-0.257544
Cl273	Cl	0.278705	-0.279904	-0.147389
H274	H	-0.197005	0.117331	-0.326592
H275	H	-0.053339	0.117354	-0.470265
H276	H	-0.465788	-0.690819	0.019398
H277	H	-0.710178	-0.303030	0.019359
Cl278	Cl	-0.041408	0.117013	-0.314989
H279	H	-0.090348	0.123053	-0.257837
Cl280	Cl	-0.131773	0.131303	-0.147763
H281	H	0.009694	0.123073	-0.357883
Cl282	Cl	0.111863	0.131392	-0.570269
H283	H	-0.090374	0.123098	-0.501994
H284	H	-0.142968	0.130466	-0.547534
H285	H	-0.053293	-0.523600	-0.326627
H286	H	-0.287036	0.130459	-0.403785
Cl287	Cl	-0.245600	0.122190	-0.269459
H288	H	-0.053286	-0.523595	-0.470310
H289	H	-0.287331	-0.302660	-0.159748
Cl290	Cl	-0.245507	-0.336207	-0.269902
Cl291	Cl	-0.311024	0.131331	-0.147366
H292	H	-0.196960	-0.379927	-0.326641
Cl293	Cl	-0.311332	-0.279551	-0.391106
H294	H	-0.143600	-0.446406	-0.547218
Cl295	Cl	-0.066672	-0.515050	-0.514050
H296	H	0.009730	-0.592360	-0.502034
H297	H	0.100497	-0.690489	-0.547570
Cl298	Cl	-0.132516	-0.458405	-0.147398
H299	H	0.100805	-0.690816	-0.403814
H300	H	-0.090693	-0.491958	-0.257554
