data_functionalizedCrystal
_audit_creation_method	'MofGen! by Chris Wilmer'
_symmetry_space_group_name_H-M	'P1'
_symmetry_Int_Tables_number	1
_symmetry_cell_setting	triclinic
loop_
_symmetry_equiv_pos_as_xyz
  x,y,z
_cell_length_a	19.121321
_cell_length_b	19.120786
_cell_length_c	17.077396
_cell_angle_alpha	87.527835
_cell_angle_beta	92.423836
_cell_angle_gamma	90.133760
loop_
_atom_site_label
_atom_site_type_symbol
_atom_site_fract_x
_atom_site_fract_y
_atom_site_fract_z
Zn1	Zn	1.059809	-0.324768	-0.377772
Zn2	Zn	1.054724	-0.442017	-0.241151
Zn3	Zn	0.942580	-0.319801	-0.252350
Zn4	Zn	0.937543	-0.436982	-0.378206
O5	O	0.998664	-0.380892	-0.312370
O6	O	1.157236	-0.344508	-0.354780
O7	O	1.039828	-0.425833	-0.132789
O8	O	0.962367	-0.222350	-0.273493
O9	O	1.153500	-0.430650	-0.254405
O10	O	1.048494	-0.225999	-0.365639
O11	O	0.957436	-0.336041	-0.141017
O12	O	0.843810	-0.331159	-0.273914
O13	O	0.953782	-0.422068	-0.487996
O14	O	0.840109	-0.417252	-0.366380
O15	O	1.043610	-0.339625	-0.487677
O16	O	1.034943	-0.539459	-0.254827
O17	O	0.948851	-0.535760	-0.355520
C18	C	0.816523	-0.373120	-0.321410
C19	C	0.738602	-0.369812	-0.325295
C20	C	0.297994	-0.348801	-0.349933
C21	C	0.371209	-0.351923	-0.346278
C22	C	0.405865	-0.398259	-0.292112
C23	C	0.367303	-0.441482	-0.241605
C24	C	0.294089	-0.438364	-0.245264
C25	C	0.626825	-0.409917	-0.278447
C26	C	0.700044	-0.413031	-0.274789
C27	C	0.703945	-0.323471	-0.379464
C28	C	0.630730	-0.320354	-0.383116
C29	C	0.592174	-0.363580	-0.332611
C30	C	0.480702	-0.401449	-0.288373
C31	C	0.517338	-0.360393	-0.336355
C32	C	0.990818	-0.563049	-0.304022
C33	C	0.987525	-0.640980	-0.300473
C34	C	1.030787	-0.679430	-0.346825
C35	C	1.027691	-0.752654	-0.343492
C36	C	0.981336	-0.787426	-0.293804
C37	C	0.938069	-0.748971	-0.247451
C38	C	0.941162	-0.675748	-0.250788
C39	C	0.969751	-1.008419	-0.281329
C40	C	0.966662	-1.081647	-0.277994
C41	C	1.056284	-1.085325	-0.374037
C42	C	1.059376	-1.012101	-0.377366
C43	C	1.016107	-0.973652	-0.331016
C44	C	0.978171	-0.862273	-0.290394
C45	C	1.019268	-0.898806	-0.334430
C46	C	1.181516	-0.388695	-0.303295
C47	C	1.259437	-0.392020	-0.299428
C48	C	0.998701	-0.380839	-0.517115
C49	C	0.998717	-0.380817	-0.604365
C50	C	1.006560	-0.198024	-0.320767
C51	C	1.009924	-0.120097	-0.324345
C52	C	0.955830	-0.334057	-0.649638
C53	C	0.955842	-0.334042	-0.731619
C54	C	0.998746	-0.380783	-0.768325
C55	C	1.041635	-0.427548	-0.723045
C56	C	1.041619	-0.427566	-0.641066
C57	C	1.041667	-0.427505	-0.893916
C58	C	1.041685	-0.427486	-0.975901
C59	C	0.955890	-0.333981	-0.984469
C60	C	0.955874	-0.333999	-0.902490
C61	C	0.998765	-0.380763	-0.857216
C62	C	0.998669	-0.380896	-0.108421
C63	C	0.998797	-0.380727	-0.021174
H64	H	0.595442	-0.445113	-0.237320
H65	H	0.920897	-0.295991	-0.619759
O66	O	0.888081	-0.786477	-0.193849
H67	H	0.850988	-0.818338	-0.229193
O68	O	1.087956	-0.477905	-1.015489
H69	H	1.080765	-0.470028	-1.080100
O70	O	0.928185	-0.899788	-0.236797
H71	H	0.873744	-0.883442	-0.253574
H72	H	0.920916	-0.295968	-0.768477
O73	O	1.087883	-0.477992	-0.592229
H74	H	1.117726	-0.510486	-0.631524
O75	O	0.412789	-0.305300	-0.400751
H76	H	0.444802	-0.338143	-0.437533
H77	H	0.920941	-0.295935	-0.872606
O78	O	1.087908	-0.477962	-0.762638
H79	H	1.073498	-0.532477	-0.744978
O80	O	1.087932	-0.477936	-0.845080
H81	H	1.117777	-0.510429	-0.884375
O82	O	0.252499	-0.484972	-0.190783
H83	H	0.264189	-0.540613	-0.200910
H84	H	0.735346	-0.288280	-0.420583
O85	O	0.260615	-0.298824	-0.408355
H86	H	0.299729	-0.269302	-0.442865
H87	H	0.920968	-0.295903	-1.021335
O88	O	0.518087	-0.451422	-0.229950
H89	H	0.478979	-0.480955	-0.195443
O90	O	0.593353	-0.270373	-0.441535
H91	H	0.606905	-0.283069	-0.501864
H92	H	1.062925	-0.783957	-0.381230
H93	H	1.057008	-0.870492	-0.374889
H94	H	0.728259	-0.450766	-0.230680
O95	O	1.109397	-0.974610	-0.430941
H96	H	1.096764	-0.988116	-0.492504
O97	O	0.404684	-0.491456	-0.183181
H98	H	0.388274	-0.545901	-0.194722
O99	O	0.479957	-0.310415	-0.394769
H100	H	0.493506	-0.323107	-0.455100
H101	H	0.928911	-1.109956	-0.237531
H102	H	1.068538	-0.651124	-0.387282
O103	O	1.102941	-1.126792	-0.424040
H104	H	1.092998	-1.183550	-0.413381
H105	H	0.934521	-0.977119	-0.243588
O106	O	0.894508	-0.634271	-0.200789
H107	H	0.861760	-0.670751	-0.165669
