data_functionalizedCrystal
_audit_creation_method	'MofGen! by Chris Wilmer'
_symmetry_space_group_name_H-M	'P1'
_symmetry_Int_Tables_number	1
_symmetry_cell_setting	triclinic
loop_
_symmetry_equiv_pos_as_xyz
  x,y,z
_cell_length_a	21.295420
_cell_length_b	21.295417
_cell_length_c	16.120297
_cell_angle_alpha	87.131911
_cell_angle_beta	87.121576
_cell_angle_gamma	90.025484
loop_
_atom_site_label
_atom_site_type_symbol
_atom_site_fract_x
_atom_site_fract_y
_atom_site_fract_z
Zn1	Zn	0.944280	-0.268742	0.471363
Zn2	Zn	1.444280	0.231258	0.971363
Zn3	Zn	0.949531	-0.368672	0.331944
Zn4	Zn	1.449531	0.131328	0.831944
Zn5	Zn	0.844350	-0.263414	0.331967
Zn6	Zn	1.344350	0.236586	0.831967
Zn7	Zn	0.838976	-0.373967	0.471309
Zn8	Zn	1.338976	0.126033	0.971309
O9	O	0.894284	-0.318699	0.401646
O10	O	1.394284	0.181301	0.901646
O11	O	1.033065	-0.282011	0.452882
O12	O	1.533065	0.217989	0.952882
O13	O	0.940025	-0.350264	0.215284
O14	O	1.440025	0.149736	0.715284
O15	O	0.857657	-0.176033	0.350491
O16	O	1.357657	0.323967	0.850491
O17	O	1.036923	-0.355430	0.350451
O18	O	1.536923	0.144570	0.850451
O19	O	0.931075	-0.179947	0.452904
O20	O	1.431075	0.320053	0.952904
O21	O	0.862749	-0.272932	0.215301
O22	O	1.362749	0.227068	0.715301
O23	O	0.755548	-0.278066	0.350438
O24	O	1.255548	0.221934	0.850438
O25	O	0.848498	-0.364454	0.587978
O26	O	1.348498	0.135546	1.087978
O27	O	0.751600	-0.359288	0.452812
O28	O	1.251600	0.140712	0.952812
O29	O	0.925865	-0.287145	0.588018
O30	O	1.425865	0.212855	1.088018
O31	O	0.934815	-0.457463	0.350398
O32	O	1.434815	0.042537	0.850398
O33	O	0.853590	-0.461353	0.452789
O34	O	1.353590	0.038647	0.952789
C35	C	0.730734	-0.318674	0.401622
C36	C	1.230734	0.181326	0.901622
C37	C	0.660765	-0.318679	0.401632
C38	C	1.160765	0.181321	0.901632
C39	C	0.159293	-0.280568	0.455080
C40	C	0.659293	0.219432	0.955080
C41	C	0.225036	-0.280564	0.455080
C42	C	0.725036	0.219436	0.955080
C43	C	0.259924	-0.318719	0.401665
C44	C	0.759924	0.181281	0.901665
C45	C	0.229065	-0.356893	0.348261
C46	C	0.729065	0.143107	0.848261
C47	C	0.163323	-0.356902	0.348268
C48	C	0.663323	0.143098	0.848268
N49	N	0.365914	-0.320668	0.328667
N50	N	0.865914	0.179332	0.828667
N51	N	0.428366	-0.320657	0.328662
N52	N	0.928366	0.179343	0.828662
C53	C	0.458000	-0.318697	0.401640
C54	C	0.958000	0.181303	0.901640
N55	N	0.422823	-0.316737	0.474626
N56	N	0.922823	0.183263	0.974626
N57	N	0.360366	-0.316745	0.474629
N58	N	0.860366	0.183255	0.974629
C59	C	0.331210	-0.318714	0.401651
C60	C	0.831210	0.181286	0.901651
C61	C	0.560137	-0.280523	0.455045
C62	C	1.060137	0.219477	0.955045
C63	C	0.625881	-0.280523	0.455047
C64	C	1.125881	0.219477	0.955047
C65	C	0.629909	-0.356849	0.348220
C66	C	1.129909	0.143151	0.848220
C67	C	0.564166	-0.356853	0.348226
C68	C	1.064166	0.143147	0.848226
C69	C	0.529284	-0.318686	0.401637
C70	C	1.029284	0.181314	0.901637
C71	C	0.894206	-0.482249	0.401603
C72	C	1.394206	0.017751	0.901603
C73	C	0.894229	-0.552217	0.401613
C74	C	1.394229	-0.052217	0.901613
C75	C	0.932433	-0.587066	0.454978
C76	C	1.432433	-0.087066	0.954978
C77	C	0.932454	-0.652810	0.454999
C78	C	1.432454	-0.152810	0.954999
C79	C	0.894279	-0.683701	0.401640
C80	C	1.394279	-0.183701	0.901640
C81	C	0.856066	-0.648844	0.348271
C82	C	1.356066	-0.148844	0.848271
C83	C	0.856041	-0.583102	0.348258
C84	C	1.356041	-0.083102	0.848258
N85	N	0.892317	-0.784168	0.328679
N86	N	1.392317	-0.284168	0.828679
N87	N	0.892345	-0.846620	0.328694
N88	N	1.392345	-0.346620	0.828694
C89	C	0.894351	-0.881777	0.401677
C90	C	1.394351	-0.381777	0.901677
N91	N	0.896340	-0.852122	0.474647
N92	N	1.396340	-0.352122	0.974647
N93	N	0.896316	-0.789665	0.474631
N94	N	1.396316	-0.289665	0.974631
C95	C	0.894301	-0.754986	0.401648
C96	C	1.394301	-0.254986	0.901648
C97	C	0.932580	-0.987912	0.455069
C98	C	1.432580	-0.487912	0.955069
C99	C	0.932597	-1.053657	0.455091
C100	C	1.432597	-0.553657	0.955091
C101	C	0.856213	-1.049690	0.348356
C102	C	1.356213	-0.549690	0.848356
C103	C	0.856192	-0.983947	0.348341
C104	C	1.356192	-0.483947	0.848341
C105	C	0.894379	-0.953062	0.401697
C106	C	1.394379	-0.453062	0.901697
C107	C	1.058474	-0.318724	0.401670
C108	C	1.558474	0.181276	0.901670
C109	C	1.128441	-0.318735	0.401680
C110	C	1.628441	0.181265	0.901680
C111	C	0.885996	-0.326985	0.619093
C112	C	1.385996	0.173015	1.119093
C113	C	0.882465	-0.330515	0.711757
C114	C	1.382465	0.169485	1.211757
C115	C	0.894380	-0.154511	0.401706
C116	C	1.394380	0.345489	0.901706
C117	C	0.894420	-0.084544	0.401732
C118	C	1.394420	0.415456	0.901732
C119	C	0.902576	-0.310400	0.185044
C120	C	1.402576	0.189600	0.685044
C121	C	0.906230	-0.306692	0.092381
C122	C	1.406230	0.193308	0.592381
C123	C	0.875993	-0.336948	0.881414
C124	C	1.375993	0.163052	1.381414
C125	C	0.912699	-0.300261	0.922729
C126	C	1.412699	0.199739	1.422729
C127	C	0.909099	-0.303840	1.017132
C128	C	1.409099	0.196160	1.517132
C129	C	0.879593	-0.333370	0.787002
C130	C	1.379593	0.166630	1.287002
H131	H	0.130896	-0.249493	0.498576
H132	H	0.630896	0.250507	0.998576
C133	C	0.822239	-0.881409	0.300932
C134	C	1.322239	-0.381409	0.800932
C135	C	0.814201	-0.945635	0.289675
C136	C	1.314201	-0.445635	0.789675
H137	H	0.796309	-0.857758	0.264717
H138	H	1.296309	-0.357758	0.764717
H139	H	0.864995	-0.870144	0.288778
H140	H	1.364995	-0.370144	0.788778
H141	H	0.810853	-0.872765	0.356936
H142	H	1.310853	-0.372765	0.856936
H143	H	0.825592	-0.954279	0.233672
H144	H	1.325592	-0.454279	0.733672
H145	H	0.771435	-0.956904	0.301823
H146	H	1.271435	-0.456904	0.801823
C147	C	0.844266	-0.444542	0.908385
C148	C	1.344266	0.055458	1.408385
C149	C	0.829926	-0.382980	0.929365
C150	C	1.329926	0.117020	1.429365
H151	H	0.815825	-0.472959	0.937993
H152	H	1.315825	0.027041	1.437993
H153	H	0.886020	-0.454279	0.922617
H154	H	1.386020	0.045721	1.422617
H155	H	0.840667	-0.448138	0.850315
H156	H	1.340667	0.051862	1.350315
H157	H	0.833530	-0.379382	0.987434
H158	H	1.333530	0.120618	1.487434
H159	H	0.788162	-0.373239	0.915139
H160	H	1.288162	0.126761	1.415139
H161	H	0.650999	-0.249445	0.498538
H162	H	1.150999	0.250555	0.998538
C163	C	0.925158	-0.211934	0.824716
C164	C	1.425158	0.288066	1.324716
C165	C	0.958771	-0.254224	0.874783
C166	C	1.458771	0.245776	1.374783
H167	H	0.953600	-0.183515	0.795113
H168	H	1.453600	0.316485	1.295113
H169	H	0.896479	-0.189122	0.858685
H170	H	1.396479	0.310878	1.358685
H171	H	0.902608	-0.234487	0.786383
H172	H	1.402608	0.265513	1.286383
H173	H	0.981317	-0.231671	0.913120
H174	H	1.481317	0.268329	1.413120
H175	H	0.987461	-0.277038	0.840811
H176	H	1.487461	0.222962	1.340811
C177	C	0.214458	-0.205110	0.560663
C178	C	0.714458	0.294890	1.060663
C179	C	0.258958	-0.238606	0.513780
C180	C	0.758958	0.261394	1.013780
H181	H	0.235401	-0.179206	0.596898
H182	H	0.735401	0.320794	1.096898
H183	H	0.187601	-0.233786	0.592494
H184	H	0.687601	0.266214	1.092494
H185	H	0.190199	-0.179613	0.524391
H186	H	0.690199	0.320387	1.024391
H187	H	0.283214	-0.264107	0.550053
H188	H	0.783214	0.235893	1.050053
H189	H	0.285826	-0.209927	0.481948
H190	H	0.785826	0.290073	0.981948
H191	H	0.963708	-1.082030	0.498551
H192	H	1.463708	-0.582030	0.998551
H193	H	0.257475	-0.387961	0.304772
H194	H	0.757475	0.112039	0.804772
C195	C	0.655498	-0.381970	0.206976
C196	C	1.155498	0.118030	0.706976
C197	C	0.668250	-0.398792	0.289504
C198	C	1.168250	0.101208	0.789504
H199	H	0.679168	-0.407869	0.170731
H200	H	1.179168	0.092131	0.670731
H201	H	0.666750	-0.339205	0.194880
H202	H	1.166750	0.160795	0.694880
H203	H	0.611927	-0.387437	0.199347
H204	H	1.111927	0.112563	0.699347
H205	H	0.711820	-0.393320	0.297135
H206	H	1.211820	0.106680	0.797135
H207	H	0.657002	-0.441568	0.301605
H208	H	1.157002	0.058432	0.801605
H209	H	0.539047	-0.387929	0.304738
H210	H	1.039047	0.112071	0.804738
C211	C	0.851612	-0.504940	0.236094
C212	C	1.351612	-0.004940	0.736094
C213	C	0.814048	-0.544790	0.289592
C214	C	1.314048	-0.044790	0.789592
H215	H	0.825685	-0.481285	0.199880
H216	H	1.325685	0.018715	0.699880
H217	H	0.880273	-0.529363	0.204245
H218	H	1.380273	-0.029363	0.704245
H219	H	0.874345	-0.477140	0.267879
H220	H	1.374345	0.022860	0.767879
H221	H	0.791318	-0.572594	0.257808
H222	H	1.291318	-0.072594	0.757808
H223	H	0.785375	-0.520365	0.321444
H224	H	1.285375	-0.020365	0.821444
C225	C	0.144600	-0.461894	0.307407
C226	C	0.644600	0.038106	0.807407
C227	C	0.129409	-0.398855	0.289561
C228	C	0.629409	0.101145	0.789561
H229	H	0.123664	-0.487792	0.271157
H230	H	0.623664	0.012208	0.771157
H231	H	0.131691	-0.473300	0.363392
H232	H	0.631691	0.026700	0.863392
H233	H	0.188746	-0.467344	0.299758
H234	H	0.688746	0.032656	0.799758
H235	H	0.085262	-0.393404	0.297215
H236	H	0.585262	0.106596	0.797215
H237	H	0.142313	-0.387446	0.233562
H238	H	0.642313	0.112554	0.733562
C239	C	0.562756	-0.205087	0.560649
C240	C	1.062756	0.294913	1.060649
C241	C	0.521790	-0.238582	0.513766
C242	C	1.021790	0.261418	1.013766
H243	H	0.539082	-0.179199	0.596905
H244	H	1.039082	0.320801	1.096905
H245	H	0.589781	-0.179580	0.524385
H246	H	1.089781	0.320420	1.024385
H247	H	0.587182	-0.233769	0.592465
H248	H	1.087182	0.266231	1.092465
H249	H	0.497367	-0.209900	0.481945
H250	H	0.997367	0.290100	0.981945
H251	H	0.494754	-0.264091	0.550035
H252	H	0.994754	0.235909	1.050035
C253	C	0.822331	-1.148702	0.300989
C254	C	1.322331	-0.648702	0.800989
C255	C	0.814244	-1.083638	0.289706
C256	C	1.314244	-0.583638	0.789706
H257	H	0.796420	-1.169661	0.264779
H258	H	1.296420	-0.669661	0.764779
H259	H	0.810955	-1.161592	0.356990
H260	H	1.310955	-0.661592	0.856990
H261	H	0.865101	-1.158978	0.288836
H262	H	1.365101	-0.658978	0.788836
H263	H	0.771475	-1.073361	0.301866
H264	H	1.271475	-0.573361	0.801866
H265	H	0.825615	-1.070743	0.233693
H266	H	1.325615	-0.570743	0.733693
C267	C	1.007940	-0.597596	0.560478
C268	C	1.507940	-0.097596	1.060478
C269	C	0.974403	-0.553119	0.513631
C270	C	1.474403	-0.053119	1.013631
H271	H	1.033847	-0.576636	0.596691
H272	H	1.533847	-0.076636	1.096691
H273	H	1.033432	-0.621844	0.524187
H274	H	1.533432	-0.121844	1.024187
H275	H	0.979284	-0.624466	0.592337
H276	H	1.479284	-0.124466	1.092337
H277	H	1.003060	-0.526252	0.481767
H278	H	1.503060	-0.026252	0.981767
H279	H	0.948910	-0.528860	0.549927
H280	H	1.448910	-0.028860	1.049927
H281	H	0.963559	-0.681189	0.498464
H282	H	1.463559	-0.181189	0.998464
C283	C	0.771880	-0.722410	0.336598
C284	C	1.271880	-0.222410	0.836598
C285	C	0.814103	-0.682798	0.289617
C286	C	1.314103	-0.182798	0.789617
H287	H	0.745974	-0.743373	0.300386
H288	H	1.245974	-0.243373	0.800386
H289	H	0.746387	-0.698155	0.372879
H290	H	1.246387	-0.198155	0.872879
H291	H	0.794645	-0.752573	0.368381
H292	H	1.294645	-0.252573	0.868381
H293	H	0.791339	-0.652632	0.257839
H294	H	1.291339	-0.152632	0.757839
H295	H	0.839599	-0.707054	0.253321
H296	H	1.339599	-0.207054	0.753321
C297	C	1.008072	-0.998435	0.560589
C298	C	1.508072	-0.498435	1.060589
C299	C	0.974542	-0.953959	0.513731
C300	C	1.474542	-0.453959	1.013731
H301	H	1.033972	-0.977474	0.596809
H302	H	1.533972	-0.477474	1.096809
H303	H	1.033570	-1.022683	0.524306
H304	H	1.533570	-0.522683	1.024306
H305	H	0.979411	-1.025305	0.592441
H306	H	1.479411	-0.525305	1.092441
H307	H	1.003203	-0.927092	0.481874
H308	H	1.503203	-0.427092	0.981874
H309	H	0.949042	-0.929701	0.550018
H310	H	1.449042	-0.429701	1.050018
