data_functionalizedCrystal
_audit_creation_method	'MofGen! by Chris Wilmer'
_symmetry_space_group_name_H-M	'P1'
_symmetry_Int_Tables_number	1
_symmetry_cell_setting	triclinic
loop_
_symmetry_equiv_pos_as_xyz
  x,y,z
_cell_length_a	18.101398
_cell_length_b	18.050589
_cell_length_c	18.050582
_cell_angle_alpha	89.981795
_cell_angle_beta	89.994346
_cell_angle_gamma	90.023777
loop_
_atom_site_label
_atom_site_type_symbol
_atom_site_fract_x
_atom_site_fract_y
_atom_site_fract_z
Zn1	Zn	1.132106	-0.295795	-0.419751
Zn2	Zn	1.382106	-0.045795	-0.169751
Zn3	Zn	1.632106	0.204205	0.080249
Zn4	Zn	1.882106	0.454205	0.330249
Zn5	Zn	1.132017	-0.419978	-0.295571
Zn6	Zn	1.382017	-0.169978	-0.045571
Zn7	Zn	1.632017	0.080022	0.204429
Zn8	Zn	1.882017	0.330022	0.454429
Zn9	Zn	1.008274	-0.295797	-0.295596
Zn10	Zn	1.258274	-0.045797	-0.045596
Zn11	Zn	1.508274	0.204203	0.204404
Zn12	Zn	1.758274	0.454203	0.454404
Zn13	Zn	1.008222	-0.419938	-0.419739
Zn14	Zn	1.258222	-0.169938	-0.169739
Zn15	Zn	1.508222	0.080062	0.080261
Zn16	Zn	1.758222	0.330062	0.330261
O17	O	1.070155	-0.357877	-0.357664
O18	O	1.320155	-0.107877	-0.107664
O19	O	1.570155	0.142123	0.142336
O20	O	1.820155	0.392123	0.392336
O21	O	1.235727	-0.312284	-0.403273
O22	O	1.485727	-0.062284	-0.153273
O23	O	1.735727	0.187716	0.096727
O24	O	1.985727	0.437716	0.346727
O25	O	1.115586	-0.403523	-0.191650
O26	O	1.365586	-0.153523	0.058350
O27	O	1.615586	0.096477	0.308350
O28	O	1.865586	0.346477	0.558350
O29	O	1.024759	-0.191872	-0.312080
O30	O	1.274759	0.058128	-0.062080
O31	O	1.524759	0.308128	0.187920
O32	O	1.774759	0.558128	0.437920
O33	O	1.235662	-0.403521	-0.312038
O34	O	1.485662	-0.153521	-0.062038
O35	O	1.735662	0.096479	0.187962
O36	O	1.985662	0.346479	0.437962
O37	O	1.115738	-0.191870	-0.403297
O38	O	1.365738	0.058130	-0.153297
O39	O	1.615738	0.308130	0.096703
O40	O	1.865738	0.558130	0.346703
O41	O	1.024673	-0.312287	-0.191668
O42	O	1.274673	-0.062287	0.058332
O43	O	1.524673	0.187713	0.308332
O44	O	1.774673	0.437713	0.558332
O45	O	0.904634	-0.312248	-0.312069
O46	O	1.154634	-0.062248	-0.062069
O47	O	1.404634	0.187752	0.187931
O48	O	1.654634	0.437752	0.437931
O49	O	1.024671	-0.403452	-0.523666
O50	O	1.274671	-0.153452	-0.273666
O51	O	1.524671	0.096548	-0.023666
O52	O	1.774671	0.346548	0.226334
O53	O	0.904596	-0.403454	-0.403277
O54	O	1.154596	-0.153454	-0.153277
O55	O	1.404596	0.096546	0.096723
O56	O	1.654596	0.346546	0.346723
O57	O	1.115688	-0.312245	-0.523674
O58	O	1.365688	-0.062245	-0.273674
O59	O	1.615688	0.187755	-0.023674
O60	O	1.865688	0.437755	0.226326
O61	O	1.115536	-0.523897	-0.312027
O62	O	1.365536	-0.273897	-0.062027
O63	O	1.615536	-0.023897	0.187973
O64	O	1.865536	0.226103	0.437973
O65	O	1.024584	-0.523868	-0.403253
O66	O	1.274584	-0.273868	-0.153253
O67	O	1.524584	-0.023868	0.096747
O68	O	1.774584	0.226132	0.346747
C69	C	0.877744	-0.357848	-0.357675
C70	C	1.127744	-0.107848	-0.107675
C71	C	1.377744	0.142152	0.142325
C72	C	1.627744	0.392152	0.392325
C73	C	0.795430	-0.357853	-0.357697
C74	C	1.045430	-0.107853	-0.107697
C75	C	1.295430	0.142147	0.142303
C76	C	1.545430	0.392147	0.392303
C77	C	0.496339	-0.357897	-0.357666
C78	C	0.746339	-0.107897	-0.107666
C79	C	0.996339	0.142103	0.142334
C80	C	1.246339	0.392103	0.392334
C81	C	0.527665	-0.415558	-0.414768
C82	C	0.777665	-0.165558	-0.164768
C83	C	1.027665	0.084442	0.085232
C84	C	1.277665	0.334442	0.335232
C85	C	0.613283	-0.415378	-0.415003
C86	C	0.863283	-0.165378	-0.165003
C87	C	1.113283	0.084622	0.084997
C88	C	1.363283	0.334622	0.334997
C89	C	0.644721	-0.357876	-0.357681
C90	C	0.894721	-0.107876	-0.107681
C91	C	1.144721	0.142124	0.142319
C92	C	1.394721	0.392124	0.392319
C93	C	0.613662	-0.279656	-0.379063
C94	C	0.863662	-0.029656	-0.129063
C95	C	1.113662	0.220344	0.120937
C96	C	1.363662	0.470344	0.370937
C97	C	0.528017	-0.280002	-0.379469
C98	C	0.778017	-0.030002	-0.129469
C99	C	1.028017	0.219998	0.120531
C100	C	1.278017	0.469998	0.370531
C101	C	0.527893	-0.377765	-0.279044
C102	C	0.777893	-0.127765	-0.029044
C103	C	1.027893	0.122235	0.220956
C104	C	1.277893	0.372235	0.470956
C105	C	0.613543	-0.379481	-0.279464
C106	C	0.863543	-0.129481	-0.029464
C107	C	1.113543	0.120519	0.220536
C108	C	1.363543	0.370519	0.470536
C109	C	0.728581	-0.357859	-0.357689
C110	C	0.978581	-0.107859	-0.107689
C111	C	1.228581	0.142141	0.142311
C112	C	1.478581	0.392141	0.392311
C113	C	0.412479	-0.357908	-0.357660
C114	C	0.662479	-0.107908	-0.107660
C115	C	0.912479	0.142092	0.142340
C116	C	1.162479	0.392092	0.392340
C117	C	1.070065	-0.550829	-0.357652
C118	C	1.320065	-0.300829	-0.107652
C119	C	1.570065	-0.050829	0.142348
C120	C	1.820065	0.199171	0.392348
C121	C	1.070095	-0.633375	-0.357672
C122	C	1.320095	-0.383375	-0.107672
C123	C	1.570095	-0.133375	0.142328
C124	C	1.820095	0.116625	0.392328
C125	C	1.020684	-0.832836	-0.407263
C126	C	1.270684	-0.582836	-0.157263
C127	C	1.520684	-0.332836	0.092737
C128	C	1.770684	-0.082836	0.342737
C129	C	1.002637	-0.882269	-0.339499
C130	C	1.252637	-0.632269	-0.089499
C131	C	1.502637	-0.382269	0.160501
C132	C	1.752637	-0.132269	0.410501
C133	C	1.070167	-0.784505	-0.357681
C134	C	1.320167	-0.534505	-0.107681
C135	C	1.570167	-0.284505	0.142319
C136	C	1.820167	-0.034505	0.392319
C137	C	1.088251	-0.882154	-0.425453
C138	C	1.338251	-0.632154	-0.175453
C139	C	1.588251	-0.382154	0.074547
C140	C	1.838251	-0.132154	0.324547
C141	C	1.070236	-0.930490	-0.357697
C142	C	1.320236	-0.680490	-0.107697
C143	C	1.570236	-0.430490	0.142303
C144	C	1.820236	-0.180490	0.392303
C145	C	1.052085	-0.832850	-0.289881
C146	C	1.302085	-0.582850	-0.039881
C147	C	1.552085	-0.332850	0.210119
C148	C	1.802085	-0.082850	0.460119
C149	C	1.137730	-0.832731	-0.375881
C150	C	1.387730	-0.582731	-0.125881
C151	C	1.637730	-0.332731	0.124119
C152	C	1.887730	-0.082731	0.374119
C153	C	1.119709	-0.882142	-0.308070
C154	C	1.369709	-0.632142	-0.058070
C155	C	1.619709	-0.382142	0.191930
C156	C	1.869709	-0.132142	0.441930
C157	C	1.070126	-0.700407	-0.357673
C158	C	1.320126	-0.450407	-0.107673
C159	C	1.570126	-0.200407	0.142327
C160	C	1.820126	0.049593	0.392327
C161	C	1.070278	-1.014587	-0.357697
C162	C	1.320278	-0.764587	-0.107697
C163	C	1.570278	-0.514587	0.142303
C164	C	1.820278	-0.264587	0.392303
C165	C	1.263316	-0.357907	-0.357654
C166	C	1.513316	-0.107907	-0.107654
C167	C	1.763316	0.142093	0.142346
C168	C	2.013316	0.392093	0.392346
C169	C	1.345630	-0.357919	-0.357650
C170	C	1.595630	-0.107919	-0.107650
C171	C	1.845630	0.142081	0.142350
C172	C	2.095630	0.392081	0.392350
C173	C	1.070184	-0.357844	-0.551370
C174	C	1.320184	-0.107844	-0.301370
C175	C	1.570184	0.142156	-0.051370
C176	C	1.820184	0.392156	0.198630
C177	C	1.070196	-0.357830	-0.633916
C178	C	1.320196	-0.107830	-0.383916
C179	C	1.570196	0.142170	-0.133916
C180	C	1.820196	0.392170	0.116084
C181	C	1.070264	-0.164171	-0.357693
C182	C	1.320264	0.085829	-0.107693
C183	C	1.570264	0.335829	0.142307
C184	C	1.820264	0.585829	0.392307
C185	C	1.070311	-0.081625	-0.357705
C186	C	1.320311	0.168375	-0.107705
C187	C	1.570311	0.418375	0.142295
C188	C	1.820311	0.668375	0.392295
C189	C	1.020739	-0.407361	-0.833362
C190	C	1.270739	-0.157361	-0.583362
C191	C	1.520739	0.092639	-0.333362
C192	C	1.770739	0.342639	-0.083362
C193	C	1.088304	-0.425519	-0.882744
C194	C	1.338304	-0.175519	-0.632744
C195	C	1.588304	0.074481	-0.382744
C196	C	1.838304	0.324481	-0.132744
C197	C	1.070232	-0.357773	-0.785046
C198	C	1.320232	-0.107773	-0.535046
C199	C	1.570232	0.142227	-0.285046
C200	C	1.820232	0.392227	-0.035046
C201	C	1.002704	-0.339594	-0.882746
C202	C	1.252704	-0.089594	-0.632746
C203	C	1.502704	0.160406	-0.382746
C204	C	1.752704	0.410406	-0.132746
C205	C	1.070262	-0.357720	-0.931031
C206	C	1.320262	-0.107720	-0.681031
C207	C	1.570262	0.142280	-0.431031
C208	C	1.820262	0.392280	-0.181031
C209	C	1.137833	-0.375967	-0.833341
C210	C	1.387833	-0.125967	-0.583341
C211	C	1.637833	0.124033	-0.333341
C212	C	1.887833	0.374033	-0.083341
C213	C	1.052188	-0.290010	-0.833339
C214	C	1.302188	-0.040010	-0.583339
C215	C	1.552188	0.209990	-0.333339
C216	C	1.802188	0.459990	-0.083339
C217	C	1.119800	-0.308143	-0.882699
C218	C	1.369800	-0.058143	-0.632699
C219	C	1.619800	0.191857	-0.382699
C220	C	1.869800	0.441857	-0.132699
C221	C	1.070215	-0.357806	-0.700948
C222	C	1.320215	-0.107806	-0.450948
C223	C	1.570215	0.142194	-0.200948
C224	C	1.820215	0.392194	0.049052
C225	C	1.070287	-0.357687	-1.015128
C226	C	1.320287	-0.107687	-0.765128
C227	C	1.570287	0.142313	-0.515128
C228	C	1.820287	0.392313	-0.265128
C229	C	1.070168	-0.357856	-0.164712
C230	C	1.320168	-0.107856	0.085288
C231	C	1.570168	0.142144	0.335288
C232	C	1.820168	0.392144	0.585288
C233	C	1.070299	-0.357661	-0.082167
C234	C	1.320299	-0.107661	0.167833
C235	C	1.570299	0.142339	0.417833
C236	C	1.820299	0.392339	0.667833
H237	H	0.506150	-0.402580	-0.472685
H238	H	0.756150	-0.152580	-0.222685
H239	H	1.006150	0.097420	0.027315
H240	H	1.256150	0.347420	0.277315
F241	F	0.927994	-0.910708	-0.319378
F242	F	1.177994	-0.660708	-0.069378
F243	F	1.427994	-0.410708	0.180622
F244	F	1.677994	-0.160708	0.430622
H245	H	0.634026	-0.235530	-0.338769
H246	H	0.884026	0.014470	-0.088769
H247	H	1.134026	0.264470	0.161231
H248	H	1.384026	0.514470	0.411231
F249	F	0.501414	-0.322870	-0.223432
F250	F	0.751414	-0.072870	0.026568
F251	F	1.001414	0.177130	0.276568
F252	F	1.251414	0.427130	0.526568
F253	F	0.640079	-0.398196	-0.491145
F254	F	0.890079	-0.148196	-0.241145
F255	F	1.140079	0.101804	0.008855
F256	F	1.390079	0.351804	0.258855
H257	H	0.633851	-0.437040	-0.263338
H258	H	0.883851	-0.187040	-0.013338
H259	H	1.133851	0.062960	0.236662
H260	H	1.383851	0.312960	0.486662
F261	F	1.032044	-0.804663	-0.214953
F262	F	1.282044	-0.554663	0.035047
F263	F	1.532044	-0.304663	0.285047
F264	F	1.782044	-0.054663	0.535047
H265	H	0.634944	-0.340532	-0.234634
H266	H	0.884944	-0.090532	0.015366
H267	H	1.134944	0.159468	0.265366
H268	H	1.384944	0.409468	0.515366
F269	F	0.965909	-0.804536	-0.461992
F270	F	1.215909	-0.554536	-0.211992
F271	F	1.465909	-0.304536	0.038008
F272	F	1.715909	-0.054536	0.288008
H273	H	0.506284	-0.433827	-0.259612
H274	H	0.756284	-0.183827	-0.009612
H275	H	1.006284	0.066173	0.240388
H276	H	1.256284	0.316173	0.490388
F277	F	1.174446	-0.910261	-0.253213
F278	F	1.424446	-0.660261	-0.003213
F279	F	1.674446	-0.410261	0.246787
F280	F	1.924446	-0.160261	0.496787
H281	H	1.103584	-0.482802	-0.904444
H282	H	1.353584	-0.232802	-0.654444
H283	H	1.603584	0.017198	-0.404444
H284	H	1.853584	0.267198	-0.154444
F285	F	0.640733	-0.491200	-0.397512
F286	F	0.890733	-0.241200	-0.147512
F287	F	1.140733	0.008800	0.102488
F288	F	1.390733	0.258800	0.352488
F289	F	0.928046	-0.319524	-0.911113
F290	F	1.178046	-0.069524	-0.661113
F291	F	1.428046	0.180476	-0.411113
F292	F	1.678046	0.430476	-0.161113
H293	H	1.194969	-0.391386	-0.811730
H294	H	1.444969	-0.141386	-0.561730
H295	H	1.694969	0.108614	-0.311730
H296	H	1.944969	0.358614	-0.061730
F297	F	0.501917	-0.257976	-0.454594
F298	F	0.751917	-0.007976	-0.204594
F299	F	1.001917	0.242024	0.045406
F300	F	1.251917	0.492024	0.295406
H301	H	0.507053	-0.473752	-0.401518
H302	H	0.757053	-0.223752	-0.151518
H303	H	1.007053	0.026248	0.098482
H304	H	1.257053	0.276248	0.348482
H305	H	1.194821	-0.810958	-0.391294
H306	H	1.444821	-0.560958	-0.141294
H307	H	1.694821	-0.310958	0.108706
H308	H	1.944821	-0.060958	0.358706
F309	F	0.500930	-0.221945	-0.327479
F310	F	0.750930	0.028055	-0.077479
F311	F	1.000930	0.278055	0.172521
F312	F	1.250930	0.528055	0.422521
F313	F	1.174585	-0.253303	-0.910839
F314	F	1.424585	-0.003303	-0.660839
F315	F	1.674585	0.246697	-0.410839
F316	F	1.924585	0.496697	-0.160839
H317	H	1.103518	-0.903811	-0.482761
H318	H	1.353518	-0.653811	-0.232761
H319	H	1.603518	-0.403811	0.017239
H320	H	1.853518	-0.153811	0.267239
F321	F	0.966082	-0.462241	-0.805045
F322	F	1.216082	-0.212241	-0.555045
F323	F	1.466082	0.037759	-0.305045
F324	F	1.716082	0.287759	-0.055045
H325	H	1.036889	-0.232744	-0.811622
H326	H	1.286889	0.017256	-0.561622
H327	H	1.536889	0.267256	-0.311622
H328	H	1.786889	0.517256	-0.061622
H329	H	0.635121	-0.262499	-0.435914
H330	H	0.885121	-0.012499	-0.185914
H331	H	1.135121	0.237501	0.064086
H332	H	1.385121	0.487501	0.314086
