data_functionalizedCrystal
_audit_creation_method	'MofGen! by Chris Wilmer'
_symmetry_space_group_name_H-M	'P1'
_symmetry_Int_Tables_number	1
_symmetry_cell_setting	triclinic
loop_
_symmetry_equiv_pos_as_xyz
  x,y,z
_cell_length_a	14.519709
_cell_length_b	9.565339
_cell_length_c	14.519709
_cell_angle_alpha	89.998241
_cell_angle_beta	96.319855
_cell_angle_gamma	89.991645
loop_
_atom_site_label
_atom_site_type_symbol
_atom_site_fract_x
_atom_site_fract_y
_atom_site_fract_z
O1	O	1.223858	0.116081	-0.120887
O2	O	1.723858	0.616081	0.379113
O3	O	0.955381	0.116124	-0.135124
O4	O	1.455381	0.616124	0.364876
O5	O	1.096738	0.116089	0.006233
O6	O	1.596738	0.616089	0.506233
O7	O	1.082502	0.116116	-0.262244
O8	O	1.582502	0.616116	0.237756
O9	O	1.096744	-0.116431	0.006229
O10	O	1.596744	0.383569	0.506229
O11	O	0.955388	-0.116396	-0.135128
O12	O	1.455388	0.383604	0.364872
O13	O	1.223864	-0.116439	-0.120891
O14	O	1.723864	0.383561	0.379109
Zn15	Zn	1.089627	-0.153335	-0.128010
Zn16	Zn	1.589627	0.346665	0.371990
Zn17	Zn	1.089619	0.153020	-0.128005
Zn18	Zn	1.589619	0.653020	0.371995
O19	O	1.082508	-0.116404	-0.262248
O20	O	1.582508	0.383596	0.237752
C21	C	0.921025	-0.000131	-0.134462
C22	C	1.421025	0.499869	0.365538
C23	C	0.818643	-0.000115	-0.132474
C24	C	1.318643	0.499885	0.367526
N25	N	1.089639	-0.362415	-0.128013
N26	N	1.589639	0.137585	0.371987
C27	C	0.443748	-0.000179	-0.125154
C28	C	0.943748	0.499821	0.374846
C29	C	0.548056	-0.000161	-0.127187
C30	C	1.048056	0.499839	0.372813
C31	C	0.631192	-0.000145	-0.128814
C32	C	1.131192	0.499855	0.371186
C33	C	0.735507	-0.000130	-0.130847
C34	C	1.235507	0.499870	0.369153
C35	C	1.155033	-0.453597	-0.062645
C36	C	1.655033	0.046403	0.437355
C37	C	1.071667	-0.546755	-0.044595
C38	C	1.571667	-0.046755	0.455405
C39	C	1.172972	-0.546811	-0.146003
C40	C	1.672972	-0.046811	0.353997
C41	C	1.006231	-0.453522	-0.109922
C42	C	1.506231	0.046478	0.390078
C43	C	1.107591	-0.453569	-0.211367
C44	C	1.607591	0.046431	0.288633
C45	C	1.024166	-0.546686	-0.193352
C46	C	1.524166	-0.046686	0.306648
C47	C	1.258221	-0.000181	-0.121553
C48	C	1.758221	0.499819	0.378447
C49	C	1.360602	-0.000188	-0.123541
C50	C	1.860602	0.499812	0.376459
C51	C	1.096078	-0.000171	0.040591
C52	C	1.596078	0.499829	0.540591
C53	C	1.094090	-0.000172	0.142972
C54	C	1.594090	0.499828	0.642972
N55	N	1.089614	0.362099	-0.127994
N56	N	1.589614	0.862099	0.372006
C57	C	1.083168	-0.000141	-0.296606
C58	C	1.583168	0.499859	0.203394
C59	C	1.085156	-0.000131	-0.398987
C60	C	1.585156	0.499869	0.101013
C61	C	1.086770	-0.000134	0.517868
C62	C	1.586770	0.499866	1.017868
C63	C	1.088803	-0.000145	0.413560
C64	C	1.588803	0.499855	0.913560
C65	C	1.090430	-0.000154	0.330423
C66	C	1.590430	0.499846	0.830423
C67	C	1.092463	-0.000163	0.226109
C68	C	1.592463	0.499837	0.726109
H69	H	1.210281	-0.412721	-0.007336
H70	H	1.710281	0.087279	0.492664
H71	H	0.968793	-0.587302	-0.248627
H72	H	1.468793	-0.087302	0.251373
H73	H	0.935731	-0.412716	-0.094618
H74	H	1.435731	0.087284	0.405382
N75	N	1.126701	-0.402191	-0.299779
N76	N	1.626701	0.097809	0.200221
N77	N	1.201573	-0.432039	-0.330100
N78	N	1.701573	0.067961	0.169900
H79	H	1.215080	-0.395753	-0.392542
H80	H	1.715080	0.104247	0.107458
H81	H	1.056465	-0.587689	0.025904
H82	H	1.556465	-0.087689	0.525904
H83	H	1.243456	-0.587788	-0.161228
H84	H	1.743456	-0.087788	0.338772
