data_functionalizedCrystal
_audit_creation_method	'MofGen! by Chris Wilmer'
_symmetry_space_group_name_H-M	'P1'
_symmetry_Int_Tables_number	1
_symmetry_cell_setting	triclinic
loop_
_symmetry_equiv_pos_as_xyz
  x,y,z
_cell_length_a	12.645331
_cell_length_b	19.120786
_cell_length_c	12.645323
_cell_angle_alpha	92.471912
_cell_angle_beta	90.022822
_cell_angle_gamma	92.465319
loop_
_atom_site_label
_atom_site_type_symbol
_atom_site_fract_x
_atom_site_fract_y
_atom_site_fract_z
Zn1	Zn	1.602669	-0.279621	0.581391
Zn2	Zn	1.594963	-0.397087	0.396544
Zn3	Zn	1.425382	-0.279647	0.404133
Zn4	Zn	1.417780	-0.397043	0.573762
O5	O	1.510198	-0.338350	0.488957
O6	O	1.749993	-0.295210	0.556887
O7	O	1.572424	-0.381537	0.249202
O8	O	1.455306	-0.181353	0.434015
O9	O	1.744332	-0.381512	0.421081
O10	O	1.585558	-0.181334	0.564246
O11	O	1.447833	-0.295255	0.254777
O12	O	1.276027	-0.295213	0.426618
O13	O	1.442350	-0.381438	0.723123
O14	O	1.270442	-0.381463	0.551244
O15	O	1.578187	-0.295168	0.728728
O16	O	1.565053	-0.495372	0.413684
O17	O	1.434878	-0.495340	0.543885
C18	C	1.234770	-0.338337	0.488927
C19	C	1.116939	-0.338348	0.488938
C20	C	1.075540	-0.284004	0.410675
C21	C	0.952993	-0.283803	0.410968
C22	C	0.950385	-0.318609	0.602120
C23	C	1.073009	-0.318203	0.601636
C24	C	1.066928	-0.412595	0.455064
C25	C	0.944345	-0.412207	0.452663
C26	C	1.498333	-0.520841	0.477156
C27	C	1.493354	-0.598912	0.472143
C28	C	1.558779	-0.635519	0.537647
C29	C	1.554097	-0.708875	0.532938
C30	C	1.483993	-0.745622	0.462720
C31	C	1.418560	-0.709009	0.397213
C32	C	1.423238	-0.635655	0.401928
C33	C	1.466473	-0.967108	0.445095
C34	C	1.461802	-1.040468	0.440383
C35	C	1.597338	-1.040328	0.576110
C36	C	1.602014	-0.966972	0.580814
C37	C	1.536577	-0.930366	0.515311
C38	C	1.479207	-0.820603	0.457903
C39	C	1.541359	-0.855386	0.520134
C40	C	1.786703	-0.338363	0.488989
C41	C	1.904532	-0.338369	0.489002
C42	C	1.510280	-0.338295	0.765466
C43	C	1.510315	-0.338272	0.883298
C44	C	1.522139	-0.155146	0.500828
C45	C	1.527228	-0.077075	0.505887
C46	C	1.510181	-0.338353	0.213528
C47	C	1.510365	-0.338178	0.095709
C48	C	1.424624	-0.392289	1.047353
C49	C	1.424821	-0.392556	0.924775
C50	C	1.620717	-0.358360	0.926521
C51	C	1.620244	-0.358699	1.049097
C52	C	1.486680	-0.263866	1.055301
C53	C	1.484159	-0.264312	0.932666
H54	H	0.918806	-0.356987	0.662262
H55	H	1.686037	-0.320998	1.081211
H56	H	0.922053	-0.296131	0.327256
Cl57	Cl	1.391073	-0.866806	0.369637
H58	H	1.640880	-0.413023	1.074199
H59	H	0.914243	-0.427112	0.369389
Cl60	Cl	1.128584	-0.199543	0.445550
H61	H	0.910993	-0.454845	0.505093
H62	H	1.659098	-0.937054	0.637991
H63	H	1.104156	-0.296190	0.326690
H64	H	0.927237	-0.228793	0.433832
Cl65	Cl	1.112775	-0.440449	0.329440
H66	H	1.686105	-0.320195	0.899851
H67	H	0.923171	-0.264948	0.630606
H68	H	1.093352	-0.453080	0.512009
H69	H	1.105132	-0.263940	0.629721
Cl70	Cl	1.115114	-0.376680	0.695181
H71	H	1.641803	-0.412115	0.892360
H72	H	1.615870	-0.605605	0.594822
H73	H	1.404710	-1.070385	0.383201
H74	H	1.342804	-0.379986	0.895485
Cl75	Cl	1.384199	-0.921099	0.362757
H76	H	1.598433	-0.825465	0.577310
Cl77	Cl	1.330419	-0.755206	0.308948
H78	H	1.407829	-0.245555	1.087388
H79	H	1.402937	-0.249163	0.904545
H80	H	1.342353	-0.379839	1.077630
Cl81	Cl	1.447850	-0.476805	1.089552
H82	H	1.607381	-0.738677	0.586271
H83	H	1.440067	-0.447647	0.891903
H84	H	1.650611	-1.070140	0.629439
H85	H	1.369961	-0.605850	0.348589
Cl86	Cl	1.574134	-0.198776	0.889640
H87	H	1.549188	-0.223552	1.086919
