data_functionalizedCrystal
_audit_creation_method	'MofGen! by Chris Wilmer'
_symmetry_space_group_name_H-M	'P1'
_symmetry_Int_Tables_number	1
_symmetry_cell_setting	triclinic
loop_
_symmetry_equiv_pos_as_xyz
  x,y,z
_cell_length_a	15.944551
_cell_length_b	15.944551
_cell_length_c	14.421503
_cell_angle_alpha	89.996660
_cell_angle_beta	89.996859
_cell_angle_gamma	96.501262
loop_
_atom_site_label
_atom_site_type_symbol
_atom_site_fract_x
_atom_site_fract_y
_atom_site_fract_z
O1	O	1.114529	-0.108320	-0.077017
O2	O	0.869980	-0.121677	-0.077040
O3	O	0.998933	0.007276	-0.077020
O4	O	0.985576	-0.237273	-0.077038
O5	O	0.998911	0.007257	0.077204
O6	O	0.869958	-0.121696	0.077183
O7	O	1.114508	-0.108340	0.077206
Cu8	Cu	0.992231	-0.115020	0.091277
Cu9	Cu	0.992256	-0.114997	-0.091110
O10	O	0.985555	-0.237293	0.077186
C11	C	0.838675	-0.121132	0.000069
C12	C	0.745429	-0.119470	0.000060
C13	C	0.530572	-0.035565	0.000084
C14	C	0.469563	-0.074518	-0.075959
C15	C	0.574703	-0.116462	0.000071
C16	C	0.469564	-0.074556	0.076093
C17	C	0.409790	-0.113551	0.000086
C18	C	0.514922	-0.155437	-0.076035
C19	C	0.514929	-0.155464	0.076086
C20	C	0.453937	-0.194476	0.000024
C21	C	0.669705	-0.118137	0.000062
C22	C	0.314789	-0.111883	0.000089
C23	C	0.998367	0.038561	0.000092
C24	C	0.996705	0.131807	0.000093
C25	C	1.145813	-0.108885	0.000096
C26	C	1.239059	-0.110547	0.000098
C27	C	0.986120	-0.268577	0.000072
C28	C	0.987782	-0.361823	0.000066
N29	N	0.992219	-0.115035	0.219558
C30	C	0.912801	0.346663	0.000072
C31	C	0.951753	0.407671	0.076117
C32	C	0.993698	0.302533	0.000085
C33	C	0.951793	0.407674	-0.075935
C34	C	0.990787	0.467445	0.000074
C35	C	1.032672	0.362312	0.076193
C36	C	1.032701	0.362308	-0.075927
C37	C	1.071711	0.423298	0.000136
C38	C	0.995372	0.207530	0.000092
C39	C	0.989119	0.562446	0.000073
N40	N	0.992275	-0.114975	-0.219392
C41	C	0.932581	-0.174636	0.469202
C42	C	1.008481	-0.190943	0.531011
C43	C	0.992240	-0.115015	0.408719
C44	C	0.916359	-0.098727	0.531005
C45	C	0.992253	-0.114997	0.591441
C46	C	1.068178	-0.131360	0.469167
C47	C	0.976007	-0.039111	0.469156
C48	C	1.051961	-0.055386	0.530936
C49	C	0.992231	-0.115027	0.303458
C50	C	0.992270	-0.114985	0.696700
H51	H	0.563905	0.031573	-0.000005
H52	H	1.066850	0.342314	0.140554
H53	H	0.845652	0.313356	0.000141
O54	O	1.144806	-0.147750	0.436927
C55	C	1.294439	-0.103951	0.432539
C56	C	1.207721	-0.085269	0.469114
H57	H	1.345331	-0.053457	0.458563
H58	H	1.293829	-0.103808	0.353491
H59	H	1.308360	-0.168465	0.458539
H60	H	1.193746	-0.020754	0.443182
H61	H	1.208375	-0.085467	0.548161
H62	H	1.138919	0.456457	0.000186
O63	O	0.910846	0.431748	0.152709
C64	C	0.794491	0.499628	0.212302
C65	C	0.840754	0.472431	0.125490
H66	H	0.737802	0.532509	0.190327
H67	H	0.839354	0.544882	0.255279
H68	H	0.772036	0.441563	0.255576
H69	H	0.863212	0.530445	0.082144
H70	H	0.795860	0.427148	0.082583
O71	O	1.073374	0.338317	-0.152713
C72	C	1.076754	0.333998	-0.319680
C73	C	1.030608	0.361198	-0.232789
H74	H	1.042206	0.352502	-0.384443
H75	H	1.078134	0.262673	-0.318634
H76	H	1.144130	0.366736	-0.320283
H77	H	0.963212	0.328520	-0.232129
H78	H	1.029296	0.432531	-0.233868
O79	O	1.112106	0.004867	0.563121
C80	C	1.141980	0.131900	0.653402
C81	C	1.073779	0.063735	0.616996
H82	H	1.111021	0.179502	0.696983
H83	H	1.176454	0.165651	0.592356
H84	H	1.188972	0.100969	0.697873
H85	H	1.026732	0.094599	0.572539
H86	H	1.039369	0.029990	0.678083
O87	O	0.910860	0.431532	-0.152606
C88	C	0.780807	0.419311	-0.239207
C89	C	0.827075	0.392213	-0.152357
H90	H	0.713054	0.387548	-0.239024
H91	H	0.814582	0.399729	-0.304038
H92	H	0.780521	0.490777	-0.238825
H93	H	0.827374	0.320752	-0.152649
H94	H	0.793284	0.411857	-0.087565
O95	O	0.414276	-0.274611	-0.000151
C96	C	0.318077	-0.377788	-0.079771
C97	C	0.362924	-0.287010	-0.079670
H98	H	0.276562	-0.387848	-0.144065
H99	H	0.277280	-0.388315	-0.014975
H100	H	0.367241	-0.424429	-0.080374
H101	H	0.313818	-0.240312	-0.079100
H102	H	0.403737	-0.276554	-0.144461
H103	H	0.852183	-0.084959	0.558170
O104	O	0.872545	-0.234939	0.436897
C105	C	0.821840	-0.383090	0.431810
C106	C	0.889890	-0.314885	0.468441
H107	H	0.835830	-0.447740	0.457315
H108	H	0.821991	-0.382205	0.352764
H109	H	0.757279	-0.369806	0.458285
H110	H	0.954485	-0.328122	0.442035
H111	H	0.889665	-0.315786	0.547486
H112	H	1.022224	-0.255126	0.558180
O113	O	0.959485	0.037362	0.436597
C114	C	0.867348	0.113832	0.344710
C115	C	0.885985	0.027174	0.381504
H116	H	0.807913	0.105628	0.300177
H117	H	0.922875	0.142846	0.301149
H118	H	0.857428	0.157192	0.405630
H119	H	0.895886	-0.016249	0.320641
H120	H	0.830447	-0.001771	0.425093
O121	O	0.445631	-0.033557	-0.152580
C122	C	0.457905	0.096474	-0.239239
C123	C	0.485056	0.050187	-0.152423
H124	H	0.489782	0.164185	-0.239150
H125	H	0.386451	0.096870	-0.238849
H126	H	0.477426	0.062607	-0.304030
H127	H	0.465592	0.084019	-0.087586
H128	H	0.556508	0.049784	-0.152894
H129	H	0.535052	-0.189660	0.140373
H130	H	0.534918	-0.189620	-0.140394
H131	H	0.449469	-0.040333	0.140379
