data_functionalizedCrystal
_audit_creation_method	'MofGen! by Chris Wilmer'
_symmetry_space_group_name_H-M	'P1'
_symmetry_Int_Tables_number	1
_symmetry_cell_setting	triclinic
loop_
_symmetry_equiv_pos_as_xyz
  x,y,z
_cell_length_a	21.395362
_cell_length_b	16.625546
_cell_length_c	21.395364
_cell_angle_alpha	90.015968
_cell_angle_beta	90.025888
_cell_angle_gamma	90.038346
loop_
_atom_site_label
_atom_site_type_symbol
_atom_site_fract_x
_atom_site_fract_y
_atom_site_fract_z
Zn1	Zn	0.957784	-0.320773	0.354586
Zn2	Zn	1.207784	-0.070773	0.604586
Zn3	Zn	1.457784	0.179227	0.854586
Zn4	Zn	1.707784	0.429227	1.104586
Zn5	Zn	0.957734	-0.455583	0.249808
Zn6	Zn	1.207734	-0.205583	0.499808
Zn7	Zn	1.457734	0.044417	0.749808
Zn8	Zn	1.707734	0.294417	0.999808
Zn9	Zn	0.853032	-0.320805	0.249787
Zn10	Zn	1.103032	-0.070805	0.499787
Zn11	Zn	1.353032	0.179195	0.749787
Zn12	Zn	1.603032	0.429195	0.999787
Zn13	Zn	0.852983	-0.455605	0.354513
Zn14	Zn	1.102983	-0.205605	0.604513
Zn15	Zn	1.352983	0.044395	0.854513
Zn16	Zn	1.602983	0.294395	1.104513
O17	O	0.905383	-0.388191	0.302173
O18	O	1.155383	-0.138191	0.552173
O19	O	1.405383	0.111809	0.802173
O20	O	1.655383	0.361809	1.052173
O21	O	1.045455	-0.338633	0.340726
O22	O	1.295455	-0.088633	0.590726
O23	O	1.545455	0.161367	0.840726
O24	O	1.795455	0.411367	1.090726
O25	O	0.943845	-0.437708	0.162128
O26	O	1.193845	-0.187708	0.412128
O27	O	1.443845	0.062292	0.662128
O28	O	1.693845	0.312292	0.912128
O29	O	0.866968	-0.207968	0.263710
O30	O	1.116968	0.042032	0.513710
O31	O	1.366968	0.292032	0.763710
O32	O	1.616968	0.542032	1.013710
O33	O	1.045419	-0.437677	0.263747
O34	O	1.295419	-0.187677	0.513747
O35	O	1.545419	0.062323	0.763747
O36	O	1.795419	0.312323	1.013747
O37	O	0.943929	-0.207945	0.340705
O38	O	1.193929	0.042055	0.590705
O39	O	1.443929	0.292055	0.840705
O40	O	1.693929	0.542055	1.090705
O41	O	0.866920	-0.338687	0.162112
O42	O	1.116920	-0.088687	0.412112
O43	O	1.366920	0.161313	0.662112
O44	O	1.616920	0.411313	0.912112
O45	O	0.765347	-0.338709	0.263640
O46	O	1.015347	-0.088709	0.513640
O47	O	1.265347	0.161291	0.763640
O48	O	1.515347	0.411291	1.013640
O49	O	0.866885	-0.437716	0.442200
O50	O	1.116885	-0.187716	0.692200
O51	O	1.366885	0.062284	0.942200
O52	O	1.616885	0.312284	1.192200
O53	O	0.765311	-0.437746	0.340581
O54	O	1.015311	-0.187746	0.590581
O55	O	1.265311	0.062254	0.840581
O56	O	1.515311	0.312254	1.090581
O57	O	0.943882	-0.338655	0.442254
O58	O	1.193882	-0.088655	0.692254
O59	O	1.443882	0.161345	0.942254
O60	O	1.693882	0.411345	1.192254
O61	O	0.943798	-0.568418	0.263676
O62	O	1.193798	-0.318418	0.513676
O63	O	1.443798	-0.068418	0.763676
O64	O	1.693798	0.181582	1.013676
O65	O	0.866837	-0.568434	0.340602
O66	O	1.116837	-0.318434	0.590602
O67	O	1.366837	-0.068434	0.840602
O68	O	1.616837	0.181566	1.090602
C69	C	0.742595	-0.388234	0.302101
C70	C	0.992595	-0.138234	0.552101
C71	C	1.242595	0.111766	0.802101
C72	C	1.492595	0.361766	1.052101
C73	C	0.672954	-0.388272	0.302084
C74	C	0.922954	-0.138272	0.552084
C75	C	1.172954	0.111728	0.802084
C76	C	1.422954	0.361728	1.052084
C77	C	0.640239	-0.439909	0.342088
C78	C	0.890239	-0.189909	0.592088
C79	C	1.140239	0.060091	0.842088
C80	C	1.390239	0.310091	1.092088
C81	C	0.574803	-0.439889	0.342116
C82	C	0.824803	-0.189889	0.592116
C83	C	1.074803	0.060111	0.842116
C84	C	1.324803	0.310111	1.092116
C85	C	0.542086	-0.388241	0.302129
C86	C	0.792086	-0.138241	0.552129
C87	C	1.042086	0.111759	0.802129
C88	C	1.292086	0.361759	1.052129
C89	C	0.574809	-0.336594	0.262123
C90	C	0.824809	-0.086594	0.512123
C91	C	1.074809	0.163406	0.762123
C92	C	1.324809	0.413406	1.012123
C93	C	0.640243	-0.336609	0.262100
C94	C	0.890243	-0.086609	0.512100
C95	C	1.140243	0.163391	0.762100
C96	C	1.390243	0.413391	1.012100
C97	C	0.438378	-0.381742	0.245724
C98	C	0.688378	-0.131742	0.495724
C99	C	0.938378	0.118258	0.745724
C100	C	1.188378	0.368258	0.995724
C101	C	0.372945	-0.381732	0.245745
C102	C	0.622945	-0.131732	0.495745
C103	C	0.872945	0.118268	0.745745
C104	C	1.122945	0.368268	0.995745
C105	C	0.340265	-0.388188	0.302198
C106	C	0.590265	-0.138188	0.552198
C107	C	0.840265	0.111812	0.802198
C108	C	1.090265	0.361812	1.052198
C109	C	0.373026	-0.394671	0.358632
C110	C	0.623026	-0.144671	0.608632
C111	C	0.873026	0.105329	0.858632
C112	C	1.123026	0.355329	1.108632
C113	C	0.438460	-0.394686	0.358610
C114	C	0.688460	-0.144686	0.608610
C115	C	0.938460	0.105314	0.858610
C116	C	1.188460	0.355314	1.108610
C117	C	0.471133	-0.388218	0.302149
C118	C	0.721133	-0.138218	0.552149
C119	C	0.971133	0.111782	0.802149
C120	C	1.221133	0.361782	1.052149
C121	C	0.236597	-0.439806	0.342236
C122	C	0.486597	-0.189806	0.592236
C123	C	0.736597	0.060194	0.842236
C124	C	0.986597	0.310194	1.092236
C125	C	0.171161	-0.439781	0.342264
C126	C	0.421161	-0.189781	0.592264
C127	C	0.671161	0.060219	0.842264
C128	C	0.921161	0.310219	1.092264
C129	C	0.171168	-0.336490	0.262266
C130	C	0.421168	-0.086490	0.512266
C131	C	0.671168	0.163510	0.762266
C132	C	0.921168	0.413510	1.012266
C133	C	0.236603	-0.336511	0.262242
C134	C	0.486603	-0.086511	0.512242
C135	C	0.736603	0.163489	0.762242
C136	C	0.986603	0.413489	1.012242
C137	C	0.269314	-0.388174	0.302226
C138	C	0.519314	-0.138174	0.552226
C139	C	0.769314	0.111826	0.802226
C140	C	1.019314	0.361826	1.052226
C141	C	0.905324	-0.597682	0.302147
C142	C	1.155324	-0.347682	0.552147
C143	C	1.405324	-0.097682	0.802147
C144	C	1.655324	0.152318	1.052147
C145	C	0.905356	-0.687303	0.302157
C146	C	1.155356	-0.437303	0.552157
C147	C	1.405356	-0.187303	0.802157
C148	C	1.655356	0.062697	1.052157
C149	C	0.905465	-1.015479	0.302222
C150	C	1.155465	-0.765479	0.552222
C151	C	1.405465	-0.515479	0.802222
C152	C	1.655465	-0.265479	1.052222
C153	C	0.905433	-0.924171	0.302206
C154	C	1.155433	-0.674171	0.552206
C155	C	1.405433	-0.424171	0.802206
C156	C	1.655433	-0.174171	1.052206
C157	C	0.905410	-0.851394	0.302189
C158	C	1.155410	-0.601394	0.552189
C159	C	1.405410	-0.351394	0.802189
C160	C	1.655410	-0.101394	1.052189
C161	C	0.905378	-0.760080	0.302173
C162	C	1.155378	-0.510080	0.552173
C163	C	1.405378	-0.260080	0.802173
C164	C	1.655378	-0.010080	1.052173
C165	C	1.068806	-0.388149	0.302247
C166	C	1.318806	-0.138149	0.552247
C167	C	1.568806	0.111851	0.802247
C168	C	1.818806	0.361851	1.052247
C169	C	1.138448	-0.388131	0.302278
C170	C	1.388448	-0.138131	0.552278
C171	C	1.638448	0.111869	0.802278
C172	C	1.888448	0.361869	1.052278
C173	C	0.905384	-0.388184	0.465597
C174	C	1.155384	-0.138184	0.715597
C175	C	1.405384	0.111816	0.965597
C176	C	1.655384	0.361816	1.215597
C177	C	0.905384	-0.388181	0.535238
C178	C	1.155384	-0.138181	0.785238
C179	C	1.405384	0.111819	1.035238
C180	C	1.655384	0.361819	1.285238
C181	C	0.905460	-0.177883	0.302213
C182	C	1.155460	0.072117	0.552213
C183	C	1.405460	0.322117	0.802213
C184	C	1.655460	0.572117	1.052213
C185	C	0.905492	-0.088261	0.302231
C186	C	1.155492	0.161739	0.552231
C187	C	1.405492	0.411739	0.802231
C188	C	1.655492	0.661739	1.052231
C189	C	0.945447	-0.336610	1.037063
C190	C	1.195447	-0.086610	1.287063
C191	C	1.445447	0.163390	1.537063
C192	C	1.695447	0.413390	1.787063
C193	C	0.945454	-0.336611	0.971627
C194	C	1.195454	-0.086611	1.221627
C195	C	1.445454	0.163389	1.471627
C196	C	1.695454	0.413389	1.721627
C197	C	0.905367	-0.388184	0.938876
C198	C	1.155367	-0.138184	1.188876
C199	C	1.405367	0.111816	1.438876
C200	C	1.655367	0.361816	1.688876
C201	C	0.865282	-0.439775	0.971566
C202	C	1.115282	-0.189775	1.221566
C203	C	1.365282	0.060225	1.471566
C204	C	1.615282	0.310225	1.721566
C205	C	0.865281	-0.439777	1.037000
C206	C	1.115281	-0.189777	1.287000
C207	C	1.365281	0.060223	1.537000
C208	C	1.615281	0.310223	1.787000
C209	C	0.848917	-0.394562	0.835181
C210	C	1.098917	-0.144562	1.085181
C211	C	1.348917	0.105438	1.335181
C212	C	1.598917	0.355438	1.585181
C213	C	0.848917	-0.394553	0.769748
C214	C	1.098917	-0.144553	1.019748
C215	C	1.348917	0.105447	1.269748
C216	C	1.598917	0.355447	1.519748
C217	C	0.905370	-0.388181	0.737055
C218	C	1.155370	-0.138181	0.987055
C219	C	1.405370	0.111819	1.237055
C220	C	1.655370	0.361819	1.487055
C221	C	0.961826	-0.381800	0.769804
C222	C	1.211826	-0.131800	1.019804
C223	C	1.461826	0.118200	1.269804
C224	C	1.711826	0.368200	1.519804
C225	C	0.961825	-0.381802	0.835238
C226	C	1.211825	-0.131802	1.085238
C227	C	1.461825	0.118198	1.335238
C228	C	1.711825	0.368198	1.585238
C229	C	0.905364	-0.388188	0.867924
C230	C	1.155364	-0.138188	1.117924
C231	C	1.405364	0.111812	1.367924
C232	C	1.655364	0.361812	1.617924
C233	C	0.945463	-0.336599	0.633421
C234	C	1.195463	-0.086599	0.883421
C235	C	1.445463	0.163401	1.133421
C236	C	1.695463	0.413401	1.383421
C237	C	0.945470	-0.336607	0.567985
C238	C	1.195470	-0.086607	0.817985
C239	C	1.445470	0.163393	1.067985
C240	C	1.695470	0.413393	1.317985
C241	C	0.865293	-0.439766	0.567924
C242	C	1.115293	-0.189766	0.817924
C243	C	1.365293	0.060234	1.067924
C244	C	1.615293	0.310234	1.317924
C245	C	0.865291	-0.439763	0.633360
C246	C	1.115291	-0.189763	0.883360
C247	C	1.365291	0.060237	1.133360
C248	C	1.615291	0.310237	1.383360
C249	C	0.905375	-0.388175	0.666104
C250	C	1.155375	-0.138175	0.916104
C251	C	1.405375	0.111825	1.166104
C252	C	1.655375	0.361825	1.416104
C253	C	0.905375	-0.388209	1.139386
C254	C	1.155375	-0.138209	1.389386
C255	C	1.405375	0.111791	1.639386
C256	C	1.655375	0.361791	1.889386
C257	C	0.905365	-0.388190	1.069745
C258	C	1.155365	-0.138190	1.319745
C259	C	1.405365	0.111810	1.569745
C260	C	1.655365	0.361810	1.819745
H261	H	0.144530	-0.294433	0.229711
H262	H	0.394530	-0.044433	0.479711
H263	H	0.644530	0.205567	0.729711
H264	H	0.894530	0.455567	0.979711
H265	H	0.263240	-0.294467	0.229664
H266	H	0.513240	-0.044467	0.479664
H267	H	0.763240	0.205533	0.729664
H268	H	1.013240	0.455533	0.979664
Cl269	Cl	0.814888	-0.504627	1.078088
Cl270	Cl	1.064888	-0.254627	1.328088
Cl271	Cl	1.314888	-0.004627	1.578088
Cl272	Cl	1.564888	0.245373	1.828088
Cl273	Cl	0.130032	-0.504698	0.392563
Cl274	Cl	0.380032	-0.254698	0.642563
Cl275	Cl	0.630032	-0.004698	0.892563
Cl276	Cl	0.880032	0.245302	1.142563
Cl277	Cl	0.995842	-0.271734	0.674589
Cl278	Cl	1.245842	-0.021734	0.924589
Cl279	Cl	1.495842	0.228266	1.174589
Cl280	Cl	1.745842	0.478266	1.424589
H281	H	0.802948	-0.399749	0.743090
H282	H	1.052948	-0.149749	0.993090
H283	H	1.302948	0.100251	1.243090
H284	H	1.552948	0.350251	1.493090
Cl285	Cl	0.479643	-0.402831	0.429551
Cl286	Cl	0.729643	-0.152831	0.679551
Cl287	Cl	0.979643	0.097169	0.929551
Cl288	Cl	1.229643	0.347169	1.179551
Cl289	Cl	0.331767	-0.373581	0.174801
Cl290	Cl	0.581767	-0.123581	0.424801
Cl291	Cl	0.831767	0.126419	0.674801
Cl292	Cl	1.081767	0.376419	0.924801
H293	H	0.464981	-0.376481	0.199750
H294	H	0.714981	-0.126481	0.449750
H295	H	0.964981	0.123519	0.699750
H296	H	1.214981	0.373519	0.949750
Cl297	Cl	0.533679	-0.271661	0.211857
Cl298	Cl	0.783679	-0.021661	0.461857
Cl299	Cl	1.033679	0.228339	0.711857
Cl300	Cl	1.283679	0.478339	0.961857
Cl301	Cl	0.995868	-0.271761	0.526898
Cl302	Cl	1.245868	-0.021761	0.776898
Cl303	Cl	1.495868	0.228239	1.026898
Cl304	Cl	1.745868	0.478239	1.276898
H305	H	0.802942	-0.399752	0.861794
H306	H	1.052942	-0.149752	1.111794
H307	H	1.302942	0.100248	1.361794
H308	H	1.552942	0.350248	1.611794
H309	H	0.666880	-0.294558	0.229525
H310	H	0.916880	-0.044558	0.479525
H311	H	1.166880	0.205442	0.729525
H312	H	1.416880	0.455442	0.979525
Cl313	Cl	0.814904	-0.504611	0.526757
Cl314	Cl	1.064904	-0.254611	0.776757
Cl315	Cl	1.314904	-0.004611	1.026757
Cl316	Cl	1.564904	0.245389	1.276757
Cl317	Cl	0.814898	-0.504609	0.674447
Cl318	Cl	1.064898	-0.254609	0.924447
Cl319	Cl	1.314898	-0.004609	1.174447
Cl320	Cl	1.564898	0.245391	1.424447
H321	H	1.007793	-0.376609	0.861899
H322	H	1.257793	-0.126609	1.111899
H323	H	1.507793	0.123391	1.361899
H324	H	1.757793	0.373391	1.611899
H325	H	0.666868	-0.481975	0.374647
H326	H	0.916868	-0.231975	0.624647
H327	H	1.166868	0.018025	0.874647
H328	H	1.416868	0.268025	1.124647
H329	H	0.548161	-0.481938	0.374694
H330	H	0.798161	-0.231938	0.624694
H331	H	1.048161	0.018062	0.874694
H332	H	1.298161	0.268062	1.124694
Cl333	Cl	0.331950	-0.402783	0.429607
Cl334	Cl	0.581950	-0.152783	0.679607
Cl335	Cl	0.831950	0.097217	0.929607
Cl336	Cl	1.081950	0.347217	1.179607
H337	H	0.263232	-0.481869	0.374796
H338	H	0.513232	-0.231869	0.624796
H339	H	0.763232	0.018131	0.874796
H340	H	1.013232	0.268131	1.124796
H341	H	0.978090	-0.294606	1.063719
H342	H	1.228090	-0.044606	1.313719
H343	H	1.478090	0.205394	1.563719
H344	H	1.728090	0.455394	1.813719
H345	H	0.978093	-0.294605	0.945013
H346	H	1.228093	-0.044605	1.195013
H347	H	1.478093	0.205395	1.445013
H348	H	1.728093	0.455395	1.695013
H349	H	1.007795	-0.376608	0.743187
H350	H	1.257795	-0.126608	0.993187
H351	H	1.507795	0.123392	1.243187
H352	H	1.757795	0.373392	1.493187
H353	H	0.832644	-0.481767	0.944896
H354	H	1.082644	-0.231767	1.194896
H355	H	1.332644	0.018233	1.444896
H356	H	1.582644	0.268233	1.694896
