data_functionalizedCrystal
_audit_creation_method	'MofGen! by Chris Wilmer'
_symmetry_space_group_name_H-M	'P1'
_symmetry_Int_Tables_number	1
_symmetry_cell_setting	triclinic
loop_
_symmetry_equiv_pos_as_xyz
  x,y,z
_cell_length_a	9.730223
_cell_length_b	10.654550
_cell_length_c	10.654550
_cell_angle_alpha	84.484903
_cell_angle_beta	89.999807
_cell_angle_gamma	89.996251
loop_
_atom_site_label
_atom_site_type_symbol
_atom_site_fract_x
_atom_site_fract_y
_atom_site_fract_z
O1	O	0.114399	-1.667834	-0.176393
O2	O	0.114377	-1.302355	-0.193199
O3	O	0.114383	-1.493498	-0.002057
O4	O	0.114393	-1.476692	-0.367535
O5	O	-0.114197	-1.493496	-0.002062
O6	O	-0.114203	-1.302353	-0.193204
O7	O	-0.114181	-1.667832	-0.176398
Zn8	Zn	-0.150484	-1.485092	-0.184802
Zn9	Zn	0.150680	-1.485095	-0.184795
O10	O	-0.114187	-1.476689	-0.367540
C11	C	0.000084	-1.255556	-0.191968
C12	C	0.000075	-1.116113	-0.188276
C13	C	0.000095	-1.492263	0.044739
C14	C	0.000100	-1.488571	0.184182
N15	N	-0.356020	-1.485099	-0.184805
C16	C	-0.427943	-1.569759	-0.100197
C17	C	-0.571826	-1.569756	-0.100181
C18	C	-0.571850	-1.400429	-0.269395
C19	C	-0.427970	-1.400427	-0.269403
C20	C	-0.355994	-1.654431	-0.015599
C21	C	-0.427917	-1.739099	0.069016
C22	C	-0.571800	-1.739096	0.069031
C23	C	-0.643760	-1.654425	-0.015568
N24	N	0.356216	-1.485098	-0.184782
C25	C	0.000115	-1.714631	-0.177630
C26	C	0.000133	-1.854074	-0.181321
C27	C	0.000098	-1.036627	-0.300817
C28	C	0.000122	-0.905607	-0.297341
C29	C	0.000106	-0.933570	-0.068771
C30	C	0.000072	-1.064588	-0.072249
C31	C	0.000114	-1.020482	-0.432780
C32	C	0.000137	-0.889461	-0.429304
C33	C	0.000104	-1.477925	-0.414336
C34	C	0.000109	-1.481616	-0.553779
C35	C	0.000102	-1.601112	0.263668
C36	C	0.000112	-1.597636	0.394688
C37	C	0.000110	-1.369066	0.366725
C38	C	0.000110	-1.372544	0.235707
C39	C	0.000097	-1.733075	0.279813
C40	C	0.000107	-1.729599	0.410834
H41	H	-0.238837	-1.654444	-0.015606
H42	H	-0.098546	-0.843789	-0.469187
H43	H	0.095806	-0.847729	-0.479023
H44	H	-0.630449	-1.331494	-0.338274
H45	H	-0.369410	-1.331488	-0.338298
Cl46	Cl	0.000141	-1.231057	0.135785
H47	H	-0.369320	-1.808028	0.137901
H48	H	-0.760919	-1.654421	-0.015540
H49	H	0.000034	-1.129302	0.019393
H50	H	-0.630358	-1.808027	0.137936
H51	H	0.095754	-1.784692	0.250457
Cl52	Cl	0.000126	-1.223212	0.431509
Cl53	Cl	0.000102	-0.868786	0.077083
Cl54	Cl	-0.147576	-1.065775	-0.512469
Cl55	Cl	0.152478	-1.075543	-0.497649
H56	H	-0.098596	-1.775096	0.244184
H57	H	0.098804	-1.769481	0.456479
H58	H	-0.095548	-1.779319	0.452592
