data_functionalizedCrystal
_audit_creation_method	'MofGen! by Chris Wilmer'
_symmetry_space_group_name_H-M	'P1'
_symmetry_Int_Tables_number	1
_symmetry_cell_setting	triclinic
loop_
_symmetry_equiv_pos_as_xyz
  x,y,z
_cell_length_a	14.908571
_cell_length_b	16.959453
_cell_length_c	14.908308
_cell_angle_alpha	93.265363
_cell_angle_beta	90.175053
_cell_angle_gamma	86.716085
loop_
_atom_site_label
_atom_site_type_symbol
_atom_site_fract_x
_atom_site_fract_y
_atom_site_fract_z
Zn1	Zn	1.345300	-0.412495	-0.587567
Zn2	Zn	1.845300	0.087505	-0.087567
Zn3	Zn	1.353882	-0.537519	-0.437203
Zn4	Zn	1.853882	-0.037519	0.062797
Zn5	Zn	1.203615	-0.397313	-0.428566
Zn6	Zn	1.703615	0.102687	0.071434
Zn7	Zn	1.194909	-0.536580	-0.578855
Zn8	Zn	1.694909	-0.036580	-0.078855
O9	O	1.274426	-0.470976	-0.508048
O10	O	1.774426	0.029024	-0.008048
O11	O	1.472264	-0.435826	-0.574882
O12	O	1.972264	0.064174	-0.074882
O13	O	1.341183	-0.512959	-0.310233
O14	O	1.841183	-0.012959	0.189767
O15	O	1.222462	-0.288720	-0.449689
O16	O	1.722462	0.211280	0.050311
O17	O	1.478569	-0.527681	-0.464410
O18	O	1.978569	-0.027681	0.035590
O19	O	1.326557	-0.299874	-0.566507
O20	O	1.826557	0.200126	-0.066507
O21	O	1.230783	-0.409951	-0.303887
O22	O	1.730783	0.090049	0.196113
O23	O	1.076634	-0.409040	-0.441241
O24	O	1.576634	0.090960	0.058759
O25	O	1.207624	-0.526080	-0.705835
O26	O	1.707624	-0.026080	-0.205835
O27	O	1.070238	-0.511359	-0.551658
O28	O	1.570238	-0.011359	-0.051658
O29	O	1.318115	-0.434916	-0.712236
O30	O	1.818115	0.065084	-0.212236
O31	O	1.332742	-0.648001	-0.455962
O32	O	1.832742	-0.148001	0.044038
O33	O	1.215945	-0.647311	-0.560033
O34	O	1.715945	-0.147311	-0.060033
C35	C	1.040811	-0.458451	-0.494567
C36	C	1.540811	0.041549	0.005433
C37	C	0.940868	-0.453112	-0.488821
C38	C	1.440868	0.046888	0.011179
C39	C	0.746461	-0.549774	-0.592847
C40	C	1.246461	-0.049774	-0.092847
C41	C	0.652556	-0.544761	-0.587451
C42	C	1.152556	-0.044761	-0.087451
C43	C	0.659149	-0.438068	-0.472640
C44	C	1.159149	0.061932	0.027360
C45	C	0.753055	-0.443082	-0.478035
C46	C	1.253055	0.056918	0.021965
C47	C	0.796707	-0.498938	-0.538140
C48	C	1.296707	0.001062	-0.038140
C49	C	0.890615	-0.503954	-0.543530
C50	C	1.390615	-0.003954	-0.043530
C51	C	0.897206	-0.397258	-0.428724
C52	C	1.397206	0.102742	0.071276
C53	C	0.803301	-0.392245	-0.423328
C54	C	1.303301	0.107755	0.076672
C55	C	1.274353	-0.676337	-0.508010
C56	C	1.774353	-0.176337	-0.008010
C57	C	1.274403	-0.764197	-0.508029
C58	C	1.774403	-0.264197	-0.008029
C59	C	1.328696	-1.141433	-0.568987
C60	C	1.828696	-0.641433	-0.068987
C61	C	1.220400	-1.129936	-0.447256
C62	C	1.720400	-0.629936	0.052744
C63	C	1.220368	-1.047387	-0.447233
C64	C	1.720368	-0.547387	0.052767
C65	C	1.274500	-1.011858	-0.508090
C66	C	1.774500	-0.511858	-0.008090
C67	C	1.328664	-1.058877	-0.568969
C68	C	1.828664	-0.558877	-0.068969
C69	C	1.166198	-1.000362	-0.386362
C70	C	1.666198	-0.500362	0.113638
C71	C	1.166163	-0.917808	-0.386337
C72	C	1.666163	-0.417808	0.113663
C73	C	1.220300	-0.882277	-0.447190
C74	C	1.720300	-0.382277	0.052810
C75	C	1.274467	-0.929302	-0.508071
C76	C	1.774467	-0.429302	-0.008071
C77	C	1.328599	-0.893773	-0.568927
C78	C	1.828599	-0.393773	-0.068927
C79	C	1.382771	-0.940796	-0.629804
C80	C	1.882771	-0.440796	-0.129804
C81	C	1.382801	-1.023347	-0.629821
C82	C	1.882801	-0.523347	-0.129821
C83	C	1.220271	-0.799727	-0.447173
C84	C	1.720271	-0.299727	0.052827
C85	C	1.328567	-0.811216	-0.568908
C86	C	1.828567	-0.311216	-0.068908
C87	C	1.508954	-0.483552	-0.521582
C88	C	2.008954	0.016448	-0.021582
C89	C	1.608896	-0.488911	-0.527349
C90	C	2.108896	0.011089	-0.027349
C91	C	1.260941	-0.482087	-0.742573
C92	C	1.760941	0.017913	-0.242573
C93	C	1.255195	-0.486821	-0.842513
C94	C	1.755195	0.013179	-0.342513
C95	C	1.274523	-0.264816	-0.508106
C96	C	1.774523	0.235184	-0.008106
C97	C	1.274564	-0.176963	-0.508131
C98	C	1.774564	0.323037	-0.008131
C99	C	1.359449	-0.400770	-1.036979
C100	C	1.859449	0.099230	-0.536979
C101	C	1.354052	-0.405216	-1.130882
C102	C	1.854052	0.094784	-0.630882
C103	C	1.239001	-0.500154	-1.124224
C104	C	1.739001	-0.000154	-0.624224
C105	C	1.244398	-0.495708	-1.030321
C106	C	1.744398	0.004292	-0.530321
C107	C	1.304625	-0.446015	-0.986702
C108	C	1.804625	0.053985	-0.486702
C109	C	1.310025	-0.441574	-0.892797
C110	C	1.810025	0.058426	-0.392797
C111	C	1.194970	-0.536508	-0.886141
C112	C	1.694970	-0.036508	-0.386141
C113	C	1.189574	-0.540954	-0.980044
C114	C	1.689574	-0.040954	-0.480044
C115	C	1.287911	-0.459855	-0.274438
C116	C	1.787911	0.040145	0.225562
C117	C	1.293831	-0.454907	-0.174508
C118	C	1.793831	0.045093	0.325492
H119	H	0.767745	-0.346767	-0.374395
H120	H	1.267745	0.153233	0.125605
H121	H	1.408492	-0.360312	-1.001464
H122	H	1.908492	0.139688	-0.501464
H123	H	0.611648	-0.586156	-0.632001
H124	H	1.111648	-0.086156	-0.132001
F125	F	1.412402	-0.357058	-1.184388
F126	F	1.912402	0.142942	-0.684388
F127	F	0.792922	-0.609226	-0.656805
F128	F	1.292922	-0.109226	-0.156805
H129	H	1.122124	-1.029296	-0.336818
H130	H	1.622124	-0.529296	0.163182
F131	F	1.174904	-0.553031	-1.170662
F132	F	1.674904	-0.053031	-0.670662
F133	F	0.612675	-0.378618	-0.408689
F134	F	1.112675	0.121382	0.091311
F135	F	0.937072	-0.563402	-0.607496
F136	F	1.437072	-0.063402	-0.107496
F137	F	0.950689	-0.343156	-0.370491
F138	F	1.450689	0.156844	0.129509
H139	H	1.372651	-0.782294	-0.618462
H140	H	1.872651	-0.282294	-0.118462
H141	H	1.359066	-0.401113	-0.857284
H142	H	1.859066	0.098887	-0.357284
H143	H	1.426842	-0.911858	-0.679358
H144	H	1.926842	-0.411858	-0.179358
H145	H	1.426904	-1.061640	-0.679385
H146	H	1.926904	-0.561640	-0.179385
H147	H	1.140537	-0.581411	-1.015571
H148	H	1.640537	-0.081411	-0.515571
F149	F	1.386350	-1.191478	-0.633771
F150	F	1.886350	-0.691478	-0.133771
H151	H	1.176160	-0.761444	-0.397612
H152	H	1.676160	-0.261444	0.102388
F153	F	1.162781	-1.167751	-0.382502
F154	F	1.662781	-0.667751	0.117498
F155	F	1.108507	-0.867770	-0.321549
F156	F	1.608507	-0.367770	0.178451
F157	F	1.136627	-0.584672	-0.832626
F158	F	1.636627	-0.084672	-0.332626
