data_functionalizedCrystal
_audit_creation_method	'MofGen! by Chris Wilmer'
_symmetry_space_group_name_H-M	'P1'
_symmetry_Int_Tables_number	1
_symmetry_cell_setting	triclinic
loop_
_symmetry_equiv_pos_as_xyz
  x,y,z
_cell_length_a	13.339070
_cell_length_b	27.732048
_cell_length_c	11.804365
_cell_angle_alpha	101.725897
_cell_angle_beta	74.875130
_cell_angle_gamma	99.135974
loop_
_atom_site_label
_atom_site_type_symbol
_atom_site_fract_x
_atom_site_fract_y
_atom_site_fract_z
O1	O	1.359069	0.234806	-0.099120
O2	O	1.065035	0.203067	-0.099106
O3	O	1.221179	0.149799	-0.099091
O4	O	1.202924	0.288074	-0.099136
O5	O	1.180073	0.163802	0.098961
O6	O	1.023928	0.217071	0.098945
O7	O	1.317962	0.248810	0.098932
Cu8	Cu	1.167192	0.234219	0.117022
Cu9	Cu	1.215805	0.217658	-0.117197
O10	O	1.161818	0.302078	0.098916
C11	C	1.006876	0.204708	-0.000078
C12	C	0.894822	0.188727	-0.000072
C13	C	0.528099	0.312985	-0.000131
C14	C	0.633379	0.328001	-0.000141
C15	C	0.698745	0.293183	-0.000123
C16	C	0.658821	0.243348	-0.000097
C17	C	0.553532	0.228329	-0.000096
C18	C	0.724178	0.208528	-0.000089
C19	C	0.684254	0.158692	-0.000062
C20	C	0.578976	0.143677	-0.000061
C21	C	0.513610	0.178494	-0.000079
C22	C	0.829467	0.223546	-0.000089
C23	C	0.854900	0.138891	-0.000054
C24	C	0.749620	0.123875	-0.000045
C25	C	1.200242	0.138741	-0.000062
C26	C	1.199085	0.084928	-0.000052
C27	C	1.284104	-0.242187	-0.000117
C28	C	1.279824	-0.444438	-0.000134
O29	O	1.357567	-0.464995	-0.000189
N30	N	1.187234	-0.476310	-0.000128
C31	C	1.095709	-0.457617	-0.000126
O32	O	1.016860	-0.489368	-0.000134
C33	C	1.099992	-0.255368	-0.000118
C34	C	1.192585	-0.223497	-0.000112
C35	C	1.376690	-0.210317	-0.000112
C36	C	1.377758	-0.159757	-0.000101
C37	C	1.286239	-0.141067	-0.000096
C38	C	1.193653	-0.172937	-0.000101
C39	C	1.008469	-0.236677	-0.000125
C40	C	1.009549	-0.186111	-0.000126
C41	C	1.102143	-0.154240	-0.000120
C42	C	1.103202	-0.103688	-0.000085
N43	N	1.195792	-0.071816	-0.000091
C44	C	1.287311	-0.090505	-0.000096
C45	C	1.093466	-0.563800	-0.000128
C46	C	1.092395	-0.614362	-0.000128
C47	C	1.276511	-0.601180	-0.000137
C48	C	1.277580	-0.550616	-0.000129
C49	C	1.186057	-0.531928	-0.000134
C50	C	1.289545	0.015674	-0.000073
C51	C	1.290604	0.066238	-0.000057
C52	C	1.106490	0.053051	-0.000054
C53	C	1.105429	0.002491	-0.000063
C54	C	1.196966	-0.016196	-0.000077
O55	O	1.025503	-0.083098	-0.000043
O56	O	1.366154	-0.058749	-0.000115
C57	C	1.283036	-0.292747	-0.000128
C58	C	1.190450	-0.324617	-0.000133
C59	C	1.098931	-0.305928	-0.000128
C60	C	1.189379	-0.375179	-0.000133
C61	C	1.280897	-0.393869	-0.000138
C62	C	1.373487	-0.361997	-0.000144
C63	C	1.374555	-0.311437	-0.000133
C64	C	1.006341	-0.337800	-0.000122
C65	C	1.005281	-0.388359	-0.000131
C66	C	1.096799	-0.407049	-0.000137
C67	C	1.376122	0.247169	-0.000099
C68	C	1.488177	0.263149	-0.000113
C69	C	1.182756	0.313135	-0.000116
C70	C	1.183914	0.366948	-0.000133
N71	N	1.133007	0.245868	0.281760
N72	N	1.249998	0.206006	-0.281934
C73	C	1.332087	0.178023	0.655728
C74	C	1.357947	0.169209	0.531069
C75	C	1.301714	0.188373	0.468735
C76	C	1.219618	0.216353	0.531073
C77	C	1.193761	0.225172	0.655745
C78	C	1.163387	0.235521	0.468752
C79	C	1.081291	0.263501	0.531090
C80	C	1.055438	0.272318	0.655749
C81	C	1.111671	0.253154	0.718083
C82	C	1.189244	0.226702	0.344081
C83	C	1.050918	0.273850	0.344097
C84	C	1.025058	0.282665	0.468757
H85	H	0.861961	0.264123	-0.000105
H86	H	0.546476	0.103096	-0.000053
H87	H	1.448004	-0.377223	-0.000143
H88	H	0.665879	0.368576	-0.000171
H89	H	0.717101	0.083297	-0.000033
H90	H	0.929872	-0.414304	-0.000126
H91	H	1.031977	0.068277	-0.000046
H92	H	0.784469	0.305412	-0.000134
H93	H	0.908122	0.110540	-0.000045
H94	H	1.366007	0.092186	-0.000049
H95	H	0.933071	-0.262619	-0.000138
H96	H	1.256087	0.203921	0.293336
H97	H	0.474872	0.341327	-0.000155
H98	H	0.427881	0.166270	-0.000070
H99	H	1.449954	-0.285492	-0.000128
H100	H	1.364085	0.000465	-0.000088
H101	H	0.931814	-0.322588	-0.000121
H102	H	1.322772	0.181194	0.367232
H103	H	1.424789	0.146428	0.480318
H104	H	1.005129	0.289457	0.293346
H105	H	1.453158	-0.133812	-0.000101
H106	H	1.377870	0.162426	0.706488
H107	H	1.451221	-0.225528	-0.000121
H108	H	1.090614	0.260329	0.819590
H109	H	1.352978	-0.524670	-0.000125
H110	H	1.351029	-0.616405	-0.000141
H111	H	1.016992	-0.640306	-0.000113
H112	H	1.030025	-0.023457	-0.000036
H113	H	1.018933	-0.548590	-0.000132
H114	H	0.988598	0.295106	0.706505
H115	H	0.958214	0.305448	0.519528
H116	H	0.935018	-0.170899	-0.000132
