data_functionalizedCrystal
_audit_creation_method	'MofGen! by Chris Wilmer'
_symmetry_space_group_name_H-M	'P1'
_symmetry_Int_Tables_number	1
_symmetry_cell_setting	triclinic
loop_
_symmetry_equiv_pos_as_xyz
  x,y,z
_cell_length_a	12.645331
_cell_length_b	21.295417
_cell_length_c	12.645323
_cell_angle_alpha	89.966008
_cell_angle_beta	89.984262
_cell_angle_gamma	90.029742
loop_
_atom_site_label
_atom_site_type_symbol
_atom_site_fract_x
_atom_site_fract_y
_atom_site_fract_z
Zn1	Zn	1.620637	-0.250617	-0.599183
Zn2	Zn	1.620479	-0.355892	-0.421895
Zn3	Zn	1.443351	-0.250639	-0.421949
Zn4	Zn	1.443293	-0.355851	-0.599132
O5	O	1.531940	-0.303250	-0.510539
O6	O	1.768963	-0.264590	-0.575664
O7	O	1.596941	-0.341956	-0.273554
O8	O	1.466959	-0.162547	-0.445503
O9	O	1.768847	-0.341935	-0.445411
O10	O	1.597210	-0.162531	-0.575716
O11	O	1.466806	-0.264627	-0.273594
O12	O	1.294996	-0.264588	-0.445453
O13	O	1.466860	-0.341865	-0.747486
O14	O	1.294954	-0.341886	-0.575629
O15	O	1.597154	-0.264551	-0.747523
O16	O	1.596884	-0.443976	-0.445361
O17	O	1.466707	-0.443946	-0.575577
C18	C	1.256510	-0.303235	-0.510542
C19	C	1.138680	-0.303244	-0.510568
C20	C	0.971125	-0.352140	-0.592035
C21	C	1.093685	-0.351982	-0.592375
C22	C	1.094227	-0.236943	-0.541108
C23	C	0.971629	-0.237242	-0.541681
C24	C	0.971428	-0.320116	-0.398305
C25	C	1.094034	-0.321566	-0.398910
C26	C	1.531801	-0.466801	-0.510481
C27	C	1.531839	-0.536769	-0.510491
C28	C	1.599682	-0.569631	-0.442757
C29	C	1.599732	-0.635373	-0.442781
C30	C	1.531919	-0.668252	-0.510528
C31	C	1.464071	-0.635383	-0.578274
C32	C	1.464031	-0.569641	-0.578256
N33	N	1.439183	-0.771517	-0.518610
N34	N	1.439224	-0.833968	-0.518621
C35	C	1.532038	-0.866327	-0.510588
N36	N	1.624811	-0.833874	-0.502523
N37	N	1.624768	-0.771417	-0.502506
C38	C	1.531956	-0.739537	-0.510555
C39	C	1.599941	-0.970473	-0.442877
C40	C	1.599992	-1.036217	-0.442908
C41	C	1.464322	-1.036225	-0.578396
C42	C	1.464280	-0.970483	-0.578370
C43	C	1.532088	-0.937611	-0.510605
C44	C	1.808445	-0.303264	-0.510537
C45	C	1.926275	-0.303271	-0.510536
C46	C	1.532018	-0.303201	-0.787045
C47	C	1.532051	-0.303180	-0.904875
C48	C	1.532108	-0.139059	-0.510622
C49	C	1.532180	-0.069091	-0.510657
C50	C	1.449831	-0.351590	-1.072415
C51	C	1.450046	-0.351830	-0.949855
C52	C	1.643744	-0.321184	-0.949376
C53	C	1.643293	-0.321488	-1.071975
C54	C	1.503635	-0.236496	-1.072094
C55	C	1.501143	-0.236895	-0.949488
C56	C	1.531923	-0.303253	-0.235110
C57	C	1.532095	-0.303096	-0.117280
H58	H	1.123374	-0.199543	-0.483603
C59	C	1.133355	-0.336918	-0.704713
C60	C	1.202953	-0.278675	-0.724102
C61	C	1.242624	-0.263609	-0.836444
C62	C	1.212697	-0.306785	-0.929397
C63	C	1.143095	-0.365031	-0.910011
C64	C	1.103424	-0.380097	-0.797669
H65	H	1.225110	-0.246710	-0.655290
H66	H	1.294148	-0.220491	-0.850794
H67	H	1.242064	-0.295632	-1.012559
H68	H	1.120938	-0.396996	-0.978823
H69	H	1.051900	-0.423215	-0.783318
H70	H	1.556685	-0.198855	-0.918870
H71	H	1.409112	-1.062994	-0.633561
H72	H	1.468434	-0.400655	-1.103219
C73	C	1.674542	-0.934311	-0.368352
C74	C	1.757713	-0.889049	-0.414346
C75	C	1.832317	-0.852890	-0.339823
C76	C	1.823750	-0.861992	-0.219305
C77	C	1.740575	-0.907256	-0.173304
C78	C	1.665971	-0.943415	-0.247827
H79	H	1.764058	-0.882310	-0.503566
H80	H	1.893889	-0.819383	-0.373876
H81	H	1.878976	-0.835225	-0.164138
H82	H	1.734230	-0.913995	-0.084084
H83	H	1.604399	-0.976922	-0.213774
H84	H	1.706680	-0.286981	-0.920243
C85	C	1.134300	-0.418401	-0.566527
C86	C	1.204125	-0.453659	-0.646666
C87	C	1.244736	-0.520081	-0.620822
C88	C	1.215524	-0.551245	-0.514840
C89	C	1.145696	-0.515987	-0.434695
C90	C	1.105084	-0.449565	-0.460538
H91	H	1.225753	-0.430590	-0.725126
H92	H	1.296428	-0.546181	-0.680152
H93	H	1.245587	-0.600415	-0.495710
H94	H	1.124067	-0.539057	-0.356234
H95	H	1.053392	-0.423465	-0.401209
C96	C	0.931238	-0.418781	-0.566488
C97	C	0.857452	-0.429644	-0.471312
C98	C	0.817548	-0.496286	-0.445770
C99	C	0.851430	-0.552064	-0.515403
C100	C	0.925219	-0.541203	-0.610585
C101	C	0.965123	-0.474561	-0.636127
H102	H	0.832368	-0.388352	-0.419760
H103	H	0.762925	-0.504326	-0.375309
H104	H	0.821890	-0.601397	-0.496495
H105	H	0.950303	-0.582495	-0.662137
H106	H	1.019747	-0.466520	-0.706587
H107	H	1.563553	-0.200366	-1.101110
C108	C	1.728919	-0.275861	-1.112088
C109	C	1.845605	-0.286509	-1.082265
C110	C	1.931237	-0.240891	-1.122376
C111	C	1.900184	-0.184624	-1.192309
C112	C	1.783492	-0.173974	-1.222136
C113	C	1.697859	-0.219592	-1.182025
H114	H	1.868598	-0.328163	-1.030493
H115	H	2.017620	-0.248775	-1.100296
H116	H	1.963574	-0.150855	-1.222002
H117	H	1.760499	-0.132320	-1.273908
H118	H	1.611476	-0.211708	-1.204104
H119	H	1.408859	-0.662157	-0.633436
C120	C	1.389644	-0.934331	-0.652873
C121	C	1.315052	-0.970492	-0.727398
C122	C	1.240417	-0.934340	-0.801910
C123	C	1.240373	-0.862027	-0.801897
C124	C	1.314967	-0.825862	-0.727369
C125	C	1.389602	-0.862014	-0.652857
H126	H	1.315082	-1.024026	-0.727411
H127	H	1.185197	-0.961112	-0.857080
H128	H	1.185123	-0.835266	-0.857055
H129	H	1.314937	-0.772328	-0.727356
H130	H	1.444822	-0.835242	-0.597687
C131	C	1.676902	-0.386269	-0.907910
C132	C	1.602834	-0.423134	-0.833728
C133	C	1.635984	-0.488221	-0.792264
C134	C	1.743202	-0.516441	-0.824982
C135	C	1.817277	-0.479576	-0.899168
C136	C	1.784126	-0.414489	-0.940632
H137	H	1.523458	-0.402244	-0.809505
H138	H	1.581148	-0.515511	-0.737347
H139	H	1.767741	-0.564622	-0.794288
H140	H	1.896652	-0.500466	-0.923391
H141	H	1.838962	-0.387199	-0.995549
H142	H	1.418947	-0.223318	-0.920402
C143	C	0.933025	-0.217945	-0.652522
C144	C	0.964183	-0.257349	-0.749721
C145	C	0.925586	-0.238053	-0.860564
C146	C	0.855831	-0.179354	-0.874209
C147	C	0.824669	-0.139946	-0.777007
C148	C	0.863266	-0.159241	-0.666163
H149	H	1.015823	-0.300805	-0.739623
H150	H	0.948654	-0.267226	-0.932520
H151	H	0.827259	-0.165070	-0.956262
H152	H	0.773029	-0.096489	-0.787105
H153	H	0.840198	-0.130069	-0.594208
C154	C	0.931541	-0.186374	-0.465016
C155	C	1.011086	-0.145610	-0.403470
C156	C	0.971004	-0.094737	-0.326819
C157	C	0.851376	-0.084629	-0.311715
C158	C	0.771824	-0.125394	-0.373263
C159	C	0.811906	-0.176267	-0.449913
H160	H	1.099648	-0.153092	-0.414650
H161	H	1.029894	-0.064560	-0.281258
H162	H	0.821705	-0.046970	-0.254973
H163	H	0.683262	-0.117912	-0.362083
H164	H	0.753016	-0.206444	-0.495475
C165	C	0.929631	-0.384313	-0.360797
C166	C	0.864656	-0.389045	-0.258084
C167	C	0.822861	-0.453245	-0.220591
C168	C	0.846042	-0.512714	-0.285811
C169	C	0.911021	-0.507984	-0.388530
C170	C	0.952815	-0.443784	-0.426023
H171	H	0.847493	-0.345021	-0.209799
H172	H	0.774760	-0.456746	-0.144551
H173	H	0.815103	-0.560239	-0.258056
H174	H	0.928183	-0.552009	-0.436815
H175	H	1.000917	-0.440284	-0.502063
C176	C	1.133301	-0.387473	-0.367781
C177	C	1.100323	-0.416349	-0.261069
C178	C	1.139608	-0.482253	-0.229937
C179	C	1.211871	-0.519281	-0.305518
C180	C	1.244853	-0.490405	-0.412237
C181	C	1.205568	-0.424501	-0.443368
H182	H	1.046826	-0.388939	-0.205113
H183	H	1.115192	-0.503629	-0.150936
H184	H	1.240952	-0.568067	-0.282472
H185	H	1.298350	-0.517816	-0.468192
H186	H	1.229984	-0.403126	-0.522369
C187	C	1.135402	-0.276970	-0.312468
C188	C	1.210782	-0.222892	-0.341889
C189	C	1.252151	-0.178290	-0.255450
C190	C	1.218141	-0.187766	-0.139590
C191	C	1.142757	-0.241847	-0.110163
C192	C	1.101388	-0.286449	-0.196602
H193	H	1.235962	-0.215874	-0.427661
H194	H	1.307956	-0.138256	-0.277234
H195	H	1.248765	-0.154749	-0.075602
H196	H	1.117577	-0.248864	-0.024392
H197	H	1.045584	-0.326483	-0.174818
H198	H	1.655245	-1.062972	-0.387754
H199	H	1.468832	-0.401203	-0.920526
H200	H	0.942425	-0.284520	-0.337581
H201	H	1.667420	-0.370174	-1.100570
C202	C	1.674353	-0.671531	-0.368260
C203	C	1.748934	-0.635374	-0.293719
C204	C	1.823551	-0.671529	-0.219193
C205	C	1.823587	-0.743842	-0.219209
C206	C	1.749003	-0.780003	-0.293753
C207	C	1.674386	-0.743848	-0.368278
H208	H	1.748910	-0.581840	-0.293704
H209	H	1.878762	-0.644760	-0.164011
H210	H	1.878822	-0.770606	-0.164041
H211	H	1.749027	-0.833537	-0.293767
H212	H	1.619175	-0.770617	-0.423460
H213	H	0.940338	-0.341136	-0.674710
H214	H	1.124958	-0.222394	-0.622265
H215	H	1.654898	-0.542868	-0.387582
H216	H	1.408783	-0.542885	-0.633414
H217	H	1.367222	-0.340563	-0.919767
H218	H	1.366761	-0.340432	-1.101902
H219	H	1.423608	-0.220085	-1.103012
