data_functionalizedCrystal
_audit_creation_method	'MofGen! by Chris Wilmer'
_symmetry_space_group_name_H-M	'P1'
_symmetry_Int_Tables_number	1
_symmetry_cell_setting	triclinic
loop_
_symmetry_equiv_pos_as_xyz
  x,y,z
_cell_length_a	16.956995
_cell_length_b	16.992695
_cell_length_c	15.455313
_cell_angle_alpha	92.847427
_cell_angle_beta	87.515363
_cell_angle_gamma	83.361347
loop_
_atom_site_label
_atom_site_type_symbol
_atom_site_fract_x
_atom_site_fract_y
_atom_site_fract_z
O1	O	1.063365	0.028719	-0.072191
O2	O	0.832954	0.056133	-0.072180
O3	O	0.947236	-0.071656	-0.072179
O4	O	0.949084	0.156509	-0.072192
O5	O	0.940699	-0.064377	0.072083
O6	O	0.826417	0.063413	0.072082
O7	O	1.056828	0.035999	0.072071
Cu8	Cu	0.941026	0.050370	0.085249
Cu9	Cu	0.948757	0.041762	-0.085358
O10	O	0.942547	0.163788	0.072070
C11	C	0.800067	0.061177	-0.000048
C12	C	0.711813	0.065350	-0.000043
C13	C	0.214503	0.096566	-0.000077
C14	C	0.297428	0.092639	-0.000076
C15	C	0.343818	0.018927	-0.000065
C16	C	0.307280	-0.050863	-0.000064
C17	C	0.224357	-0.046935	-0.000071
C18	C	0.592351	-0.000513	-0.000049
C19	C	0.675280	-0.004435	-0.000039
C20	C	0.665422	0.139068	-0.000053
C21	C	0.582497	0.142989	-0.000055
C22	C	0.545967	0.073199	-0.000058
N23	N	0.428581	0.014912	-0.000062
N24	N	0.461206	0.077215	-0.000068
C25	C	0.941591	-0.097075	-0.000048
C26	C	0.934500	-0.183660	-0.000047
C27	C	1.002915	-0.238334	-0.000050
C28	C	0.996248	-0.319689	-0.000058
C29	C	0.921166	-0.346367	-0.000057
C30	C	0.852746	-0.291686	-0.000057
C31	C	0.859413	-0.210333	-0.000056
C32	C	0.893531	-0.588175	-0.000068
C33	C	0.886868	-0.669534	-0.000067
C34	C	1.030371	-0.697532	-0.000069
C35	C	1.037032	-0.616176	-0.000062
C36	C	0.968612	-0.561502	-0.000067
N37	N	0.914349	-0.429525	-0.000062
N38	N	0.975430	-0.478346	-0.000068
C39	C	1.089715	0.030955	-0.000063
C40	C	1.177970	0.026782	-0.000073
C41	C	0.948192	0.189207	-0.000063
C42	C	0.955283	0.275791	-0.000069
N43	N	0.935594	0.056424	0.205244
N44	N	0.954194	0.035701	-0.205353
C45	C	0.984164	0.002152	0.250639
C46	C	0.980064	0.006738	0.341447
C47	C	0.927398	0.065599	0.386858
C48	C	0.878823	0.119873	0.341457
C49	C	0.882919	0.115284	0.250651
C50	C	0.909715	0.085386	0.658440
C51	C	0.905624	0.089973	0.749252
C52	C	1.006865	-0.023164	0.749235
C53	C	1.010960	-0.027745	0.658427
C54	C	0.962382	0.026527	0.613034
N55	N	0.923208	0.070288	0.479678
N56	N	0.966569	0.021833	0.520216
H57	H	0.695174	0.195887	-0.000052
H58	H	0.835937	0.167797	0.378436
H59	H	1.053845	-0.075675	0.621455
H60	H	1.064055	-0.216620	-0.000045
F61	F	0.820711	-0.529997	-0.000075
H62	H	1.019613	-0.037455	0.378407
F63	F	0.806951	-0.697924	-0.000062
F64	F	0.356655	-0.129314	-0.000055
F65	F	1.058560	-0.080922	0.797551
F66	F	1.103183	-0.755724	-0.000065
F67	F	0.786597	-0.152144	-0.000056
F68	F	0.185477	-0.121210	-0.000067
F69	F	0.533131	0.221444	-0.000072
F70	F	0.724651	-0.082893	-0.000028
H71	H	1.098172	-0.594461	-0.000062
F72	F	0.849567	0.152626	0.797577
F73	F	1.040224	-0.060493	0.202317
H74	H	0.791612	-0.313414	-0.000062
H75	H	0.176737	0.156591	-0.000080
F76	F	0.336305	0.166914	-0.000085
F77	F	0.553484	-0.074791	-0.000069
F78	F	0.858017	0.143148	0.610136
H79	H	0.843367	0.159477	0.213691
H80	H	1.051959	-0.364203	-0.000058
