data_functionalizedCrystal
_audit_creation_method	'MofGen! by Chris Wilmer'
_symmetry_space_group_name_H-M	'P1'
_symmetry_Int_Tables_number	1
_symmetry_cell_setting	triclinic
loop_
_symmetry_equiv_pos_as_xyz
  x,y,z
_cell_length_a	14.044191
_cell_length_b	19.188928
_cell_length_c	13.101039
_cell_angle_alpha	86.656500
_cell_angle_beta	86.337551
_cell_angle_gamma	91.832205
loop_
_atom_site_label
_atom_site_type_symbol
_atom_site_fract_x
_atom_site_fract_y
_atom_site_fract_z
O1	O	1.262237	-0.164779	-0.085196
O2	O	1.595570	0.168554	0.248137
O3	O	1.928903	0.501887	0.581471
O4	O	0.986293	-0.158701	-0.085208
O5	O	1.319626	0.174632	0.248126
O6	O	1.652960	0.507965	0.581459
O7	O	1.132228	-0.060600	-0.085176
O8	O	1.465561	0.272734	0.248158
O9	O	1.798894	0.606067	0.581491
O10	O	1.116302	-0.262881	-0.085228
O11	O	1.449635	0.070452	0.248105
O12	O	1.782969	0.403786	0.581439
O13	O	1.121757	-0.067651	0.085252
O14	O	1.455090	0.265682	0.418585
O15	O	1.788424	0.599016	0.751919
O16	O	0.975822	-0.165753	0.085220
O17	O	1.309156	0.167581	0.418553
O18	O	1.642489	0.500914	0.751886
O19	O	1.251766	-0.171831	0.085232
O20	O	1.585099	0.161503	0.418565
O21	O	1.918433	0.494836	0.751898
Zn22	Zn	1.112132	-0.169911	0.112285
Zn23	Zn	1.445465	0.163422	0.445618
Zn24	Zn	1.778798	0.496755	0.778951
Zn25	Zn	1.125927	-0.160621	-0.112261
Zn26	Zn	1.459261	0.172713	0.221072
Zn27	Zn	1.792594	0.506046	0.554406
O28	O	1.105831	-0.269932	0.085199
O29	O	1.439165	0.063401	0.418533
O30	O	1.772498	0.396734	0.751866
C31	C	0.945754	-0.159568	0.000005
C32	C	1.279088	0.173765	0.333338
C33	C	1.612421	0.507099	0.666672
C34	C	0.840562	-0.151637	0.000002
C35	C	1.173895	0.181696	0.333335
C36	C	1.507228	0.515030	0.666668
C37	C	0.590102	-0.193385	0.000001
C38	C	0.923435	0.139948	0.333334
C39	C	1.256768	0.473282	0.666668
C40	C	0.647964	-0.137150	0.000014
C41	C	0.981297	0.196184	0.333347
C42	C	1.314630	0.529517	0.666681
C43	C	0.755135	-0.145212	0.000007
C44	C	1.088468	0.188121	0.333340
C45	C	1.421802	0.521454	0.666674
C46	C	0.482920	-0.185323	0.000008
C47	C	0.816254	0.148010	0.333341
C48	C	1.149587	0.481343	0.666675
C49	C	1.126477	-0.038081	0.000043
C50	C	1.459810	0.295252	0.333376
C51	C	1.793143	0.628585	0.666709
C52	C	1.124928	0.039523	0.000056
C53	C	1.458262	0.372856	0.333389
C54	C	1.791595	0.706189	0.666723
C55	C	1.210558	0.078919	0.000067
C56	C	1.543892	0.412252	0.333400
C57	C	1.877225	0.745585	0.666734
C58	C	1.209105	0.151837	0.000055
C59	C	1.542439	0.485170	0.333388
C60	C	1.875772	0.818504	0.666721
C61	C	1.122016	0.185355	0.000052
C62	C	1.455350	0.518689	0.333385
C63	C	1.788683	0.852022	0.666719
C64	C	1.036376	0.145950	0.000035
C65	C	1.369709	0.479284	0.333369
C66	C	1.703042	0.812617	0.666702
C67	C	1.037832	0.073034	0.000037
C68	C	1.371165	0.406367	0.333371
C69	C	1.704498	0.739701	0.666704
N70	N	1.051885	0.295257	0.058055
N71	N	1.385218	0.628591	0.391389
N72	N	1.718551	0.961924	0.724722
N73	N	1.050507	0.364525	0.058056
N74	N	1.383841	0.697858	0.391389
N75	N	1.717174	1.031192	0.724722
C76	C	1.117624	0.405048	0.000044
C77	C	1.450958	0.738381	0.333377
C78	C	1.784291	1.071715	0.666711
N79	N	1.186185	0.373687	-0.057955
N80	N	1.519518	0.707020	0.275378
N81	N	1.852852	1.040353	0.608711
N82	N	1.187565	0.304413	-0.057951
N83	N	1.520898	0.637746	0.275382
N84	N	1.854232	0.971079	0.608716
C85	C	1.120428	0.264421	0.000049
C86	C	1.453761	0.597754	0.333383
C87	C	1.787095	0.931087	0.666716
C88	C	1.201685	0.523511	0.000040
C89	C	1.535018	0.856844	0.333374
C90	C	1.868352	1.190177	0.666707
C91	C	1.200229	0.596430	0.000022
C92	C	1.533562	0.929764	0.333355
C93	C	1.866895	1.263097	0.666688
C94	C	1.027496	0.590542	0.000013
C95	C	1.360829	0.923875	0.333346
C96	C	1.694163	1.257208	0.666679
C97	C	1.028955	0.517624	0.000021
C98	C	1.362289	0.850957	0.333354
C99	C	1.695622	1.184291	0.666688
C100	C	1.116052	0.484113	0.000040
C101	C	1.449385	0.817446	0.333373
C102	C	1.782719	1.150779	0.666706
C103	C	1.292305	-0.170964	0.000017
C104	C	1.625638	0.162370	0.333350
C105	C	1.958971	0.495703	0.666683
C106	C	1.397498	-0.178894	0.000013
C107	C	1.730831	0.154439	0.333347
C108	C	2.064165	0.487772	0.666680
N109	N	1.102724	-0.176252	0.265531
N110	N	1.436057	0.157082	0.598865
N111	N	1.769390	0.490415	0.932198
C112	C	1.111585	0.707549	-0.000006
C113	C	1.444918	1.040882	0.333327
C114	C	1.778251	1.374216	0.666660
C115	C	1.113139	0.629944	0.000017
C116	C	1.446473	0.963277	0.333351
C117	C	1.779806	1.296610	0.666684
N118	N	1.135343	-0.154275	-0.265507
N119	N	1.468676	0.179058	0.067826
N120	N	1.802010	0.512392	0.401159
C121	C	1.089923	-0.184885	0.474571
C122	C	1.423257	0.148449	0.807904
C123	C	1.756590	0.481782	1.141238
C124	C	1.148140	-0.145644	0.525460
C125	C	1.481474	0.187689	0.858793
C126	C	1.814807	0.521022	1.192126
C127	C	1.141018	-0.150448	0.641776
C128	C	1.474351	0.182886	0.975110
C129	C	1.807685	0.516219	1.308443
C130	C	1.097044	-0.180082	0.358244
C131	C	1.430378	0.153251	0.691577
C132	C	1.763711	0.486585	1.024910
H133	H	0.617017	-0.082947	-0.000044
H134	H	0.950350	0.250387	0.333289
H135	H	1.283684	0.583720	0.666622
H136	H	0.959226	0.485547	0.000018
H137	H	1.292559	0.818880	0.333351
H138	H	1.625892	1.152213	0.666684
Br139	Br	0.921611	0.019564	0.000020
Br140	Br	1.254944	0.352897	0.333353
Br141	Br	1.588277	0.686230	0.666686
Br142	Br	0.641686	-0.283717	-0.000033
Br143	Br	0.975020	0.049616	0.333300
Br144	Br	1.308353	0.382950	0.666634
Br145	Br	1.328762	0.033443	0.000064
Br146	Br	1.662095	0.366777	0.333397
Br147	Br	1.995429	0.700110	0.666730
H148	H	1.278838	0.183920	0.000060
H149	H	1.612171	0.517253	0.333393
H150	H	1.945505	0.850586	0.666726
H151	H	1.034738	-0.222085	0.518356
H152	H	1.368071	0.111248	0.851689
H153	H	1.701404	0.444582	1.185023
H154	H	0.956587	0.617832	0.000005
H155	H	1.289920	0.951165	0.333339
H156	H	1.623253	1.284498	0.666672
H157	H	0.965467	0.173246	0.000031
H158	H	1.298801	0.506579	0.333364
H159	H	1.632134	0.839912	0.666698
H160	H	1.269962	0.628506	0.000025
H161	H	1.603296	0.961840	0.333358
H162	H	1.936629	1.295173	0.666692
Br163	Br	1.319884	0.478026	0.000076
Br164	Br	1.653217	0.811360	0.333409
Br165	Br	1.986550	1.144693	0.666743
Br166	Br	1.240527	-0.083957	0.452480
Br167	Br	1.573860	0.249376	0.785814
Br168	Br	1.907194	0.582709	1.119147
