data_functionalizedCrystal
_audit_creation_method	'MofGen! by Chris Wilmer'
_symmetry_space_group_name_H-M	'P1'
_symmetry_Int_Tables_number	1
_symmetry_cell_setting	triclinic
loop_
_symmetry_equiv_pos_as_xyz
  x,y,z
_cell_length_a	23.203873
_cell_length_b	23.204288
_cell_length_c	23.204116
_cell_angle_alpha	59.999358
_cell_angle_beta	90.000740
_cell_angle_gamma	60.000205
loop_
_atom_site_label
_atom_site_type_symbol
_atom_site_fract_x
_atom_site_fract_y
_atom_site_fract_z
O1	O	-0.491171	-0.412508	0.017125
O2	O	-0.407373	-0.294492	-0.017078
O3	O	-0.407364	-0.412503	0.100931
O4	O	-0.491180	-0.294497	-0.100884
O5	O	-0.311510	-0.508350	0.100930
O6	O	-0.311519	-0.390339	-0.017079
O7	O	-0.395317	-0.508355	0.017125
Zn8	Zn	-0.338199	-0.464565	0.000023
Zn9	Zn	-0.464491	-0.338282	0.000024
O10	O	-0.395326	-0.390344	-0.100884
C11	C	-0.310629	-0.285833	-0.024856
C12	C	-0.346197	-0.326283	-0.019966
C13	C	-0.345468	-0.215990	-0.025342
C14	C	-0.206264	-0.285844	-0.024850
C15	C	-0.130243	-0.326306	-0.019954
C16	C	-0.241261	-0.216001	-0.025336
C17	C	-0.310620	-0.181482	-0.024851
C18	C	-0.346178	-0.110359	-0.019955
C19	C	-0.241271	-0.320193	-0.025341
C20	C	-0.658505	-0.590076	0.035846
C21	C	-0.734524	-0.549623	0.030953
C22	C	-0.623500	-0.659920	0.036334
C23	C	-0.554148	-0.590068	0.035843
C24	C	-0.518589	-0.549608	0.030946
C25	C	-0.519302	-0.659913	0.036331
C26	C	-0.554143	-0.694431	0.035845
C27	C	-0.518577	-0.765555	0.030952
C28	C	-0.623506	-0.555716	0.036332
C29	C	-0.489845	-0.823015	0.026997
C30	C	-0.795940	-0.516941	0.026999
C31	C	-0.489861	-0.516919	0.026989
C32	C	-0.453798	-0.895103	0.022037
C33	C	-0.872989	-0.475940	0.022039
C34	C	-0.453820	-0.475910	0.022026
C35	C	-0.554170	-0.212801	-0.445783
C36	C	-0.518605	-0.253257	-0.481344
C37	C	-0.623530	-0.142958	-0.480627
C38	C	-0.554171	-0.212800	-0.341424
C39	C	-0.518607	-0.253255	-0.265405
C40	C	-0.623531	-0.142957	-0.376427
C41	C	-0.658533	-0.108445	-0.445785
C42	C	-0.734555	-0.037323	-0.481348
C43	C	-0.519326	-0.247155	-0.376425
C44	C	-0.795973	0.020136	-0.510079
C45	C	-0.489873	-0.285943	-0.510073
C46	C	-0.489876	-0.285940	-0.203988
C47	C	-0.873024	0.092221	-0.546124
C48	C	-0.453827	-0.326947	-0.546116
C49	C	-0.453831	-0.326943	-0.126939
O50	O	0.100951	-0.508385	0.017137
O51	O	-0.100865	-0.390365	-0.017066
O52	O	0.017142	-0.508381	0.100943
O53	O	-0.017055	-0.390369	-0.100872
O54	O	0.017151	-0.412538	0.100948
O55	O	-0.100856	-0.294522	-0.017061
O56	O	0.100960	-0.412542	0.017142
Zn57	Zn	0.000054	-0.338315	0.000041
Zn58	Zn	0.000042	-0.464592	0.000035
O59	O	-0.017046	-0.294526	-0.100867
O60	O	-0.395292	0.083738	0.017139
O61	O	-0.311494	-0.083871	-0.017063
O62	O	-0.311490	-0.083879	0.100946
O63	O	-0.395296	0.083745	-0.100869
O64	O	-0.407347	-0.083869	0.100941
O65	O	-0.407351	-0.083862	-0.017068
O66	O	-0.491149	0.083748	0.017134
Zn67	Zn	-0.464469	-0.000055	0.000032
Zn68	Zn	-0.338174	-0.000068	0.000039
O69	O	-0.491153	0.083755	-0.100874
O70	O	-1.100899	0.280983	-0.592589
O71	O	-0.899081	0.113376	-0.508777
O72	O	-1.017083	0.113367	-0.508776
O73	O	-0.982897	0.280992	-0.592591
O74	O	-1.017080	0.113365	-0.604626
O75	O	-0.899079	0.113373	-0.604627
O76	O	-1.100897	0.280981	-0.688439
Zn77	Zn	-0.999987	0.197177	-0.661751
Zn78	Zn	-0.999990	0.197180	-0.535465
O79	O	-0.982895	0.280990	-0.688440
O80	O	-0.407364	-0.412503	-0.688426
O81	O	-0.491177	-0.294500	-0.604619
O82	O	-0.491169	-0.412510	-0.604615
O83	O	-0.407371	-0.294494	-0.688429
O84	O	-0.395315	-0.508358	-0.508764
O85	O	-0.395322	-0.390349	-0.508767
O86	O	-0.311510	-0.508351	-0.592574
Zn87	Zn	-0.338197	-0.464568	-0.535452
Zn88	Zn	-0.464490	-0.338284	-0.661741
O89	O	-0.311517	-0.390342	-0.592577
C90	C	-0.206263	-0.621374	0.310693
C91	C	-0.130241	-0.692496	0.346256
C92	C	-0.241266	-0.586861	0.345536
C93	C	-0.310626	-0.517018	0.206333
C94	C	-0.346190	-0.476562	0.130313
C95	C	-0.345470	-0.482663	0.241334
C96	C	-0.310626	-0.517018	0.310692
C97	C	-0.346190	-0.476563	0.346254
C98	C	-0.241266	-0.586861	0.241335
C99	C	0.024933	-0.517057	0.310709
C100	C	0.020044	-0.476605	0.346273
C101	C	0.025416	-0.586899	0.345550
C102	C	0.024929	-0.517053	0.206347
C103	C	0.020035	-0.476595	0.130328
C104	C	0.025411	-0.586894	0.241347
C105	C	0.024923	-0.621409	0.310705
C106	C	0.020024	-0.692529	0.346265
C107	C	0.025421	-0.482701	0.241351
C108	C	-0.310607	-0.285870	0.310695
C109	C	-0.346173	-0.326324	0.346253
C110	C	-0.241246	-0.320235	0.345540
C111	C	-0.310606	-0.181504	0.206342
C112	C	-0.346171	-0.110371	0.130325
C113	C	-0.241245	-0.216028	0.241346
C114	C	-0.206242	-0.285880	0.310701
C115	C	-0.130219	-0.326346	0.346265
C116	C	-0.345452	-0.216017	0.241340
C117	C	-0.035755	-0.108466	-0.445768
C118	C	-0.030856	-0.037345	-0.481329
C119	C	-0.036247	-0.142976	-0.480612
C120	C	-0.035761	-0.212822	-0.341409
C121	C	-0.030867	-0.253278	-0.265390
C122	C	-0.036253	-0.247174	-0.376413
C123	C	-0.035765	-0.212818	-0.445770
C124	C	-0.030876	-0.253271	-0.481334
C125	C	-0.036243	-0.142980	-0.376410
C126	C	-0.026924	-0.285954	-0.510065
C127	C	-0.026896	0.020112	-0.510058
C128	C	-0.026912	-0.285964	-0.203974
C129	C	-0.021968	-0.326955	-0.546111
C130	C	-0.021929	0.092196	-0.546100
C131	C	-0.021951	-0.326970	-0.126924
O132	O	-0.017052	-0.390385	0.491248
O133	O	0.017154	-0.508395	0.407445
O134	O	-0.100856	-0.390384	0.407434
O135	O	0.100958	-0.508395	0.491259
O136	O	-0.100850	-0.294537	0.311585
O137	O	0.017160	-0.412547	0.311596
O138	O	-0.017046	-0.294538	0.395399
Zn139	Zn	0.000058	-0.338324	0.338279
Zn140	Zn	0.000050	-0.464608	0.464565
O141	O	0.100964	-0.412548	0.395410
C142	C	-0.658509	0.409981	-0.445764
C143	C	-0.734531	0.450445	-0.481329
C144	C	-0.623506	0.444336	-0.480603
C145	C	-0.554145	0.305606	-0.341405
C146	C	-0.518581	0.234473	-0.265388
C147	C	-0.519300	0.340120	-0.376403
C148	C	-0.554145	0.409973	-0.445758
C149	C	-0.518581	0.450429	-0.481315
C150	C	-0.623506	0.340128	-0.376409
C151	C	-0.489849	0.483114	-0.510041
C152	C	-0.795950	0.483137	-0.510060
C153	C	-0.489849	0.177005	-0.203973
C154	C	-0.453803	0.524118	-0.546079
C155	C	-0.873002	0.524149	-0.546106
C156	C	-0.453803	0.104908	-0.126926
H157	H	-0.213175	-0.376395	-0.026126
H158	H	-0.037042	-0.303373	-0.348309
Br159	Br	-0.194399	-0.167895	0.194514
H160	H	-0.213149	-0.376438	0.402528
Br161	Br	-0.440433	-0.167868	0.194494
H162	H	-0.402456	-0.426456	0.213226
H163	H	-0.037033	-0.114087	-0.537600
H164	H	-0.036968	-0.114131	-0.348291
H165	H	0.026202	-0.615781	0.213245
H166	H	-0.462312	0.311227	-0.348296
H167	H	-0.213161	-0.615750	0.402524
Br168	Br	-0.670377	-0.094826	-0.575602
H169	H	-0.651609	0.500542	-0.537590
Br170	Br	-0.670325	-0.708081	0.037659
H171	H	-0.651617	0.311257	-0.348309
H172	H	-0.213153	-0.615734	0.213230
H173	H	0.026190	-0.615776	0.402534
H174	H	-0.651631	-0.114076	-0.348323
Br175	Br	-0.194408	-0.167886	-0.026603
H176	H	-0.402458	-0.187099	-0.026134
Br177	Br	0.026732	-0.389031	0.194513
Br178	Br	-0.424323	-0.708051	0.037632
H179	H	-0.462336	-0.303354	-0.348326
Br180	Br	-0.670346	-0.462038	0.037630
