data_functionalizedCrystal
_audit_creation_method	'MofGen! by Chris Wilmer'
_symmetry_space_group_name_H-M	'P1'
_symmetry_Int_Tables_number	1
_symmetry_cell_setting	triclinic
loop_
_symmetry_equiv_pos_as_xyz
  x,y,z
_cell_length_a	10.540539
_cell_length_b	12.376457
_cell_length_c	13.339070
_cell_angle_alpha	75.601917
_cell_angle_beta	79.922607
_cell_angle_gamma	78.593757
loop_
_atom_site_label
_atom_site_type_symbol
_atom_site_fract_x
_atom_site_fract_y
_atom_site_fract_z
O1	O	1.752152	-0.093946	-0.123676
O2	O	1.387331	-0.093959	-0.137140
O3	O	1.527871	-0.093951	0.017157
O4	O	1.611612	-0.093954	-0.277974
O5	O	1.492735	0.094059	-0.021364
O6	O	1.352195	0.094051	-0.175662
O7	O	1.717016	0.094064	-0.162198
Zn8	Zn	1.529027	0.123908	-0.175046
Zn9	Zn	1.575320	-0.123803	-0.124292
O10	O	1.576476	0.094056	-0.316495
C11	C	1.322116	0.000044	-0.155391
C12	C	1.180140	0.000039	-0.152368
N13	N	1.497442	0.292964	-0.209683
N14	N	1.606913	-0.292860	-0.089647
C15	C	0.957168	0.000479	-0.036681
C16	C	1.104911	0.000044	-0.039654
C17	C	1.157019	-0.107321	-0.184614
C18	C	1.009178	-0.107399	-0.180751
C19	C	0.969515	0.106403	-0.226851
C20	C	1.116588	0.107811	-0.228177
C21	C	1.782231	0.000058	-0.143947
C22	C	1.924209	0.000056	-0.146968
C23	C	1.496158	0.000052	0.035688
C24	C	1.453996	0.000046	0.148296
C25	C	1.680225	0.647960	-0.009222
C26	C	1.702324	0.529622	0.015021
C27	C	1.651105	0.470452	-0.041153
C28	C	1.577784	0.529632	-0.121574
C29	C	1.555691	0.647982	-0.145825
C30	C	1.526571	0.470473	-0.177756
C31	C	1.453250	0.529653	-0.258177
C32	C	1.431160	0.647991	-0.282424
C33	C	1.482379	0.707162	-0.226250
C34	C	1.548664	0.352123	-0.153505
C35	C	1.424130	0.352144	-0.290108
C36	C	1.402030	0.470483	-0.314351
C37	C	1.608189	0.000050	-0.335026
C38	C	1.650353	0.000049	-0.447632
C39	C	1.781836	0.000059	0.510718
C40	C	1.821453	0.000071	0.404917
C41	C	1.729592	0.000064	0.340756
C42	C	1.598108	0.000046	0.382408
C43	C	1.558485	0.000043	0.488218
C44	C	1.506241	0.000049	0.318256
C45	C	1.374757	0.000031	0.359908
C46	C	1.335141	0.000027	0.465708
C47	C	1.427002	0.000033	0.529868
C48	C	1.545863	0.000052	0.212446
C49	C	1.322513	0.000036	0.189946
C50	C	1.282896	0.000024	0.295748
H51	H	1.118595	0.077004	-0.012742
O52	O	1.963259	0.000090	0.360000
H53	H	1.975376	0.000104	0.275647
O54	O	1.216175	-0.213164	-0.113015
H55	H	1.262078	-0.189577	-0.054418
H56	H	1.175839	0.000010	0.329675
O57	O	1.159896	-0.102078	0.038196
H58	H	1.265729	-0.102740	0.036350
O59	O	1.772327	0.000069	0.226644
H60	H	1.720246	0.076699	0.178188
H61	H	0.910327	0.187781	-0.207047
O62	O	0.916084	-0.100930	0.042841
H63	H	0.843081	-0.071994	0.105416
O64	O	1.352107	0.711799	-0.369188
H65	H	1.265143	0.765741	-0.337095
H66	H	0.899016	0.077473	-0.007928
O67	O	0.973553	-0.213684	-0.105851
H68	H	1.061872	-0.264541	-0.072722
H69	H	1.608362	0.303949	-0.088026
H70	H	1.228077	0.000021	0.499615
H71	H	1.208333	-0.111316	-0.266570
O72	O	1.781404	0.465801	0.101754
H73	H	1.788176	0.373569	0.109171
H74	H	1.721929	0.696145	0.036502
O75	O	0.983429	-0.113879	-0.286792
H76	H	1.076532	-0.116951	-0.340601
O77	O	1.133288	0.213027	-0.197256
H78	H	1.186631	0.188679	-0.128186
H79	H	1.167613	0.114292	-0.311681
H80	H	0.949902	0.107128	-0.308412
H81	H	1.382425	0.303969	-0.335852
O82	O	1.458534	0.834803	-0.252399
H83	H	1.499734	0.866006	-0.334716
O84	O	1.322971	0.534312	-0.401105
H85	H	1.236017	0.588249	-0.368993
O86	O	1.674913	0.342815	-0.014997
H87	H	1.734487	0.311603	0.050370
O88	O	1.687675	0.000056	0.167539
H89	H	1.696757	0.076691	0.104181
O90	O	1.880905	0.000078	0.579911
H91	H	1.831261	0.000072	0.660479
H92	H	1.394753	0.000019	0.616022
H93	H	1.247710	0.000036	0.137705
