data_functionalizedCrystal
_audit_creation_method	'MofGen! by Chris Wilmer'
_symmetry_space_group_name_H-M	'P1'
_symmetry_Int_Tables_number	1
_symmetry_cell_setting	triclinic
loop_
_symmetry_equiv_pos_as_xyz
  x,y,z
_cell_length_a	16.994748
_cell_length_b	25.639242
_cell_length_c	25.639233
_cell_angle_alpha	90.022166
_cell_angle_beta	90.007353
_cell_angle_gamma	89.999852
loop_
_atom_site_label
_atom_site_type_symbol
_atom_site_fract_x
_atom_site_fract_y
_atom_site_fract_z
Zn1	Zn	-0.314218	0.799350	0.295784
Zn2	Zn	-0.446103	0.799326	0.208365
Zn3	Zn	-0.314207	0.711926	0.208348
Zn4	Zn	-0.446074	0.711924	0.295755
O5	O	-0.380150	0.755631	0.252063
O6	O	-0.331730	0.872512	0.284207
O7	O	-0.428614	0.787723	0.135198
O8	O	-0.203827	0.723534	0.219951
O9	O	-0.428625	0.872494	0.219981
O10	O	-0.203835	0.787764	0.284190
O11	O	-0.331710	0.723511	0.135185
O12	O	-0.331682	0.638761	0.219923
O13	O	-0.428575	0.723530	0.368924
O14	O	-0.428564	0.638759	0.284141
O15	O	-0.331702	0.787762	0.368945
O16	O	-0.556480	0.787721	0.219953
O17	O	-0.556459	0.723507	0.284158
C18	C	-0.380119	0.619789	0.252028
C19	C	-0.380125	0.561675	0.252025
C20	C	-0.174410	0.755648	0.252070
C21	C	-0.085088	0.755658	0.252073
C22	C	-0.585090	0.755617	0.252053
C23	C	-0.674412	0.755628	0.252037
C24	C	-0.430681	0.201320	0.285470
C25	C	-0.430686	0.146715	0.285478
O26	O	-0.473632	0.118485	0.313884
N27	N	-0.380172	0.119392	0.252097
C28	C	-0.329644	0.146676	0.218710
O29	O	-0.286678	0.118422	0.190318
C30	C	-0.329636	0.201280	0.218705
C31	C	-0.380159	0.228600	0.252084
C32	C	-0.481199	0.228640	0.318847
C33	C	-0.481195	0.283241	0.318837
C34	C	-0.430673	0.310521	0.285452
C35	C	-0.380155	0.283201	0.252075
C36	C	-0.279105	0.228563	0.185320
C37	C	-0.279101	0.283170	0.185318
C38	C	-0.329624	0.310490	0.218697
C39	C	-0.329629	0.365081	0.218680
N40	N	-0.380143	0.392404	0.252060
C41	C	-0.430665	0.365124	0.285446
C42	C	-0.329664	0.032006	0.218724
C43	C	-0.329676	-0.022596	0.218726
C44	C	-0.430717	-0.022554	0.285495
C45	C	-0.430709	0.032050	0.285490
C46	C	-0.380178	0.059329	0.252105
C47	C	-0.430653	0.479789	0.285424
C48	C	-0.430647	0.534395	0.285411
C49	C	-0.329604	0.534347	0.218644
C50	C	-0.329612	0.479747	0.218655
C51	C	-0.380140	0.452469	0.252050
O52	O	-0.286702	0.393346	0.190290
O53	O	-0.473617	0.393385	0.313838
Zn54	Zn	0.185776	0.799250	0.208255
Zn55	Zn	0.185800	0.712028	0.295825
Zn56	Zn	0.053939	0.799451	0.295683
Zn57	Zn	0.053885	0.711848	0.208426
O58	O	0.119850	0.755644	0.252047
O59	O	0.296160	0.787671	0.219859
O60	O	0.168341	0.723784	0.368971
O61	O	0.071439	0.872589	0.283954
O62	O	0.296178	0.723590	0.284196
O63	O	0.168300	0.872442	0.219722
O64	O	0.071463	0.788013	0.368867
O65	O	-0.056450	0.787838	0.284120
O66	O	0.071348	0.723283	0.135239
O67	O	-0.056489	0.723477	0.220013
O68	O	0.168247	0.787497	0.135113
O69	O	0.168289	0.638839	0.284362
O70	O	0.071371	0.638707	0.220151
C71	C	-0.380137	0.755648	0.388436
C72	C	-0.380131	0.755656	0.446550
C73	C	-0.380182	0.892004	0.252099
C74	C	-0.380196	0.950119	0.252114
C75	C	-0.380107	0.755645	0.116221
C76	C	-0.379891	0.755739	0.058107
C77	C	-0.329539	0.789143	0.806930
C78	C	-0.329517	0.789150	0.861534
O79	O	-0.286595	0.817580	0.889785
N80	N	-0.379946	0.755713	0.888833
C81	C	-0.430394	0.722264	0.861524
O82	O	-0.473285	0.693824	0.889758
C83	C	-0.430411	0.722255	0.806921
C84	C	-0.379985	0.755698	0.779625
C85	C	-0.279115	0.822583	0.779634
C86	C	-0.279138	0.822577	0.725033
C87	C	-0.329585	0.789132	0.697729
C88	C	-0.380008	0.755692	0.725025
C89	C	-0.480855	0.688804	0.779613
C90	C	-0.480868	0.688798	0.725006
C91	C	-0.430441	0.722241	0.697711
C92	C	-0.430477	0.722241	0.643119
N93	N	-0.380048	0.755677	0.615821
C94	C	-0.329602	0.789123	0.643125
C95	C	-0.430353	0.722284	0.976195
C96	C	-0.430340	0.722295	1.030797
C97	C	-0.329462	0.789180	1.030803
C98	C	-0.329479	0.789172	0.976200
C99	C	-0.379924	0.755721	0.948896
C100	C	-0.329655	0.789108	0.528460
C101	C	-0.329684	0.789101	0.473855
C102	C	-0.430560	0.722214	0.473854
C103	C	-0.430533	0.722223	0.528454
C104	C	-0.380074	0.755672	0.555756
O105	O	-0.473375	0.693824	0.614834
O106	O	-0.286711	0.817553	0.614885
C107	C	0.119829	0.619802	0.252292
C108	C	0.119843	0.561688	0.252412
C109	C	0.119789	0.755347	0.115674
C110	C	0.119763	0.755221	0.057560
C111	C	0.119873	0.892017	0.251803
C112	C	0.119883	0.950131	0.251699
C113	C	0.119954	0.755976	0.387889
C114	C	0.120128	0.756247	0.446003
C115	C	0.170356	0.534481	0.285872
C116	C	0.170385	0.479877	0.285985
C117	C	0.119896	0.452481	0.252639
C118	C	0.069380	0.479691	0.219175
C119	C	0.069356	0.534294	0.219060
C120	C	0.170201	0.788598	0.030201
C121	C	0.170177	0.788490	-0.024403
C122	C	0.119717	0.755001	-0.051647
C123	C	0.069273	0.721622	-0.024284
C124	C	0.069294	0.721733	0.030319
C125	C	0.069451	0.977501	0.285093
C126	C	0.069445	1.032105	0.284995
C127	C	0.119875	1.059338	0.251506
C128	C	0.170308	1.031964	0.218109
C129	C	0.170310	0.977361	0.218204
C130	C	0.069405	0.789575	0.473217
C131	C	0.069569	0.789840	0.527821
C132	C	0.120452	0.756774	0.555209
C133	C	0.171180	0.723444	0.527991
C134	C	0.171020	0.723182	0.473388
H135	H	-0.471792	0.556636	0.312593
H136	H	0.212323	0.696040	0.451235
Cl137	Cl	0.005882	0.679766	0.064707
Cl138	Cl	-0.494223	-0.056859	0.327472
H139	H	0.119926	0.408019	0.252736
H140	H	0.028217	0.556442	0.191814
Cl141	Cl	0.005787	0.831741	0.562027
Cl142	Cl	-0.494176	0.445506	0.327406
H143	H	0.119866	1.103800	0.251434
Cl144	Cl	0.233838	0.568911	0.327796
H145	H	0.119707	0.754916	-0.096109
H146	H	-0.288620	0.816336	0.451633
H147	H	0.211297	0.815868	0.052376
H148	H	0.120574	0.756992	0.599670
H149	H	0.028274	0.457377	0.192026
H150	H	-0.288472	0.556569	0.191460
Cl151	Cl	-0.493931	0.680183	0.562770
H152	H	-0.288564	0.816344	0.550683
H153	H	0.212607	0.696522	0.550299
H154	H	0.027976	0.816508	0.450925
H155	H	-0.288543	-0.044836	0.191540
Cl156	Cl	0.233600	0.830454	-0.058791
Cl157	Cl	-0.493749	0.680259	1.065105
Cl158	Cl	0.233722	0.942959	0.176223
Cl159	Cl	-0.493972	0.680169	0.439517
H160	H	0.028190	0.694357	-0.046474
H161	H	0.028386	0.955335	0.312366
Cl162	Cl	0.233705	1.066207	0.176014
Cl163	Cl	-0.544723	0.194355	0.360823
Cl164	Cl	-0.544709	0.317578	0.360806
H165	H	-0.471848	0.054290	0.312671
H166	H	0.211521	0.457730	0.313237
Cl167	Cl	-0.266140	0.066294	0.176745
H168	H	-0.238074	0.849808	0.702814
Cl169	Cl	-0.266110	0.445400	0.176684
Cl170	Cl	0.006041	1.066507	0.326986
H171	H	-0.238032	0.849818	0.801860
H172	H	-0.237966	0.206328	0.158138
H173	H	-0.288416	0.816403	0.953979
Cl174	Cl	-0.215572	0.317460	0.143346
H175	H	-0.288384	0.816412	1.053045
Cl176	Cl	-0.493783	0.680232	0.941876
Cl177	Cl	-0.544256	0.646761	0.813915
H178	H	-0.521939	0.661552	0.702779
