data_functionalizedCrystal
_audit_creation_method	'MofGen! by Chris Wilmer'
_symmetry_space_group_name_H-M	'P1'
_symmetry_Int_Tables_number	1
_symmetry_cell_setting	triclinic
loop_
_symmetry_equiv_pos_as_xyz
  x,y,z
_cell_length_a	18.050590
_cell_length_b	21.295412
_cell_length_c	18.050589
_cell_angle_alpha	90.022119
_cell_angle_beta	89.982614
_cell_angle_gamma	89.992183
loop_
_atom_site_label
_atom_site_type_symbol
_atom_site_fract_x
_atom_site_fract_y
_atom_site_fract_z
Zn1	Zn	1.135355	-0.355685	0.295893
Zn2	Zn	1.635355	0.144315	0.795893
Zn3	Zn	1.135247	-0.250426	0.420085
Zn4	Zn	1.635247	0.249574	0.920085
Zn5	Zn	1.011156	-0.250459	0.295889
Zn6	Zn	1.511156	0.249541	0.795889
Zn7	Zn	1.011123	-0.355687	0.420022
Zn8	Zn	1.511123	0.144313	0.920022
O9	O	1.073220	-0.303064	0.357972
O10	O	1.573220	0.196936	0.857972
O11	O	1.239266	-0.341708	0.312395
O12	O	1.739266	0.158292	0.812395
O13	O	1.118755	-0.162341	0.403635
O14	O	1.618755	0.337659	0.903635
O15	O	1.027690	-0.264430	0.191965
O16	O	1.527690	0.235570	0.691965
O17	O	1.239186	-0.264375	0.403638
O18	O	1.739186	0.235625	0.903638
O19	O	1.118939	-0.341740	0.191968
O20	O	1.618939	0.158260	0.691968
O21	O	1.027586	-0.162365	0.312389
O22	O	1.527586	0.337635	0.812389
O23	O	0.907227	-0.264432	0.312328
O24	O	1.407227	0.235568	0.812328
O25	O	1.027633	-0.443776	0.403531
O26	O	1.527633	0.056224	0.903531
O27	O	0.907202	-0.341742	0.403528
O28	O	1.407202	0.158258	0.903528
O29	O	1.118907	-0.443775	0.312334
O30	O	1.618907	0.056225	0.812334
O31	O	1.118723	-0.264376	0.524001
O32	O	1.618723	0.235624	1.024001
O33	O	1.027529	-0.341711	0.523955
O34	O	1.527529	0.158289	1.023955
C35	C	0.880268	-0.303091	0.357921
C36	C	1.380268	0.196909	0.857921
C37	C	0.797722	-0.303118	0.357918
C38	C	1.297722	0.196882	0.857918
C39	C	0.598280	-0.345059	0.407654
C40	C	1.098280	0.154941	0.907654
C41	C	0.548890	-0.360546	0.339938
C42	C	1.048890	0.139454	0.839938
C43	C	0.646592	-0.303087	0.357959
C44	C	1.146592	0.196913	0.857959
C45	C	0.548901	-0.287600	0.425714
C46	C	1.048901	0.212400	0.925714
C47	C	0.500607	-0.303059	0.358005
C48	C	1.000607	0.196941	0.858005
C49	C	0.598289	-0.318603	0.290207
C50	C	1.098289	0.181397	0.790207
C51	C	0.598304	-0.245631	0.376029
C52	C	1.098304	0.254369	0.876029
C53	C	0.548936	-0.261096	0.308266
C54	C	1.048936	0.238904	0.808266
C55	C	0.730690	-0.303105	0.357934
C56	C	1.230690	0.196895	0.857934
C57	C	0.416510	-0.303041	0.358023
C58	C	0.916510	0.196959	0.858023
C59	C	1.073278	-0.467255	0.357926
C60	C	1.573278	0.032745	0.857926
C61	C	1.073303	-0.537223	0.357906
C62	C	1.573303	-0.037223	0.857906
C63	C	1.025844	-0.570092	0.310389
C64	C	1.525844	-0.070092	0.810389
C65	C	1.025841	-0.635835	0.310375
C66	C	1.525841	-0.135835	0.810375
C67	C	1.073311	-0.668705	0.357871
C68	C	1.573311	-0.168705	0.857871
C69	C	1.120774	-0.635828	0.405397
C70	C	1.620774	-0.135828	0.905397
C71	C	1.120770	-0.570087	0.405415
C72	C	1.620770	-0.070087	0.905415
N73	N	1.138322	-0.771929	0.363555
N74	N	1.638322	-0.271929	0.863555
N75	N	1.138323	-0.834381	0.363534
N76	N	1.638323	-0.334381	0.863534
C77	C	1.073325	-0.866780	0.357821
C78	C	1.573325	-0.366780	0.857821
N79	N	1.008323	-0.834369	0.352117
N80	N	1.508323	-0.334369	0.852117
N81	N	1.008322	-0.771912	0.352134
N82	N	1.508322	-0.271912	0.852134
C83	C	1.073320	-0.739991	0.357857
C84	C	1.573320	-0.239991	0.857857
C85	C	1.025859	-0.970935	0.310287
C86	C	1.525859	-0.470935	0.810287
C87	C	1.025855	-1.036679	0.310278
C88	C	1.525855	-0.536679	0.810278
C89	C	1.120794	-1.036671	0.405296
C90	C	1.620794	-0.536671	0.905296
C91	C	1.120791	-0.970928	0.405309
C92	C	1.620791	-0.470928	0.905309
C93	C	1.073325	-0.938064	0.357800
C94	C	1.573325	-0.438064	0.857800
C95	C	1.266926	-0.303037	0.358024
C96	C	1.766926	0.196963	0.858024
C97	C	1.349472	-0.303026	0.358046
C98	C	1.849472	0.196974	0.858046
C99	C	1.073131	-0.303054	0.550924
C100	C	1.573131	0.196946	1.050924
C101	C	1.073160	-0.303070	0.633470
C102	C	1.573160	0.196930	1.133470
C103	C	1.073205	-0.139513	0.357965
C104	C	1.573205	0.360487	0.857965
C105	C	1.073324	-0.069545	0.357775
C106	C	1.573324	0.430455	0.857775
C107	C	1.073331	-0.303089	0.164267
C108	C	1.573331	0.196911	0.664267
C109	C	1.073377	-0.303099	0.081721
C110	C	1.573377	0.196901	0.581721
C111	C	1.023618	-0.345110	0.832923
C112	C	1.523618	0.154890	1.332923
C113	C	1.005510	-0.287673	0.882358
C114	C	1.505510	0.212327	1.382358
C115	C	1.073233	-0.303079	0.784600
C116	C	1.573233	0.196921	1.284600
C117	C	1.091378	-0.360522	0.882247
C118	C	1.591378	0.139478	1.382247
C119	C	1.073302	-0.303092	0.930585
C120	C	1.573302	0.196908	1.430585
C121	C	1.055090	-0.245611	0.832948
C122	C	1.555090	0.254389	1.332948
C123	C	1.140989	-0.318499	0.832833
C124	C	1.640989	0.181501	1.332833
C125	C	1.122907	-0.261022	0.882246
C126	C	1.622907	0.238978	1.382246
C127	C	1.073192	-0.303072	0.700502
C128	C	1.573192	0.196928	1.200502
C129	C	1.073344	-0.303092	1.014682
C130	C	1.573344	0.196908	1.514682
H131	H	0.527407	-0.225589	0.266212
H132	H	1.027407	0.274411	0.766212
H133	H	0.987202	-1.063440	0.271587
H134	H	1.487202	-0.563440	0.771587
O135	O	0.624189	-0.187715	0.394393
O136	O	1.124189	0.312285	0.894393
C137	C	0.597917	-0.171079	0.465303
C138	C	1.097917	0.328921	0.965303
H139	H	0.583244	-0.215402	0.497515
H140	H	1.083244	0.284598	0.997515
H141	H	0.642748	-0.144018	0.496274
H142	H	1.142748	0.355982	0.996274
H143	H	0.546518	-0.140364	0.459459
H144	H	1.046518	0.359636	0.959459
O145	O	0.979816	-0.938909	0.264170
O146	O	1.479816	-0.438909	0.764170
C147	C	0.989980	-0.873835	0.274383
C148	C	1.489980	-0.373835	0.774383
H149	H	1.047280	-0.864858	0.298721
H150	H	1.547280	-0.364858	0.798721
H151	H	0.984972	-0.848858	0.218759
H152	H	1.484972	-0.348858	0.718759
H153	H	0.945908	-0.855167	0.313925
H154	H	1.445908	-0.355167	0.813925
H155	H	1.198243	-0.331558	0.811065
H156	H	1.698243	0.168442	1.311065
O157	O	1.109571	-0.418517	0.907994
O158	O	1.609571	0.081483	1.407994
C159	C	1.057066	-0.462668	0.882878
C160	C	1.557066	0.037332	1.382878
H161	H	1.028764	-0.443995	0.830910
H162	H	1.528764	0.056005	1.330910
H163	H	1.086148	-0.508828	0.869518
H164	H	1.586148	-0.008828	1.369518
H165	H	1.013831	-0.470881	0.927895
H166	H	1.513831	0.029119	1.427895
O167	O	1.166827	-1.068569	0.451537
O168	O	1.666827	-0.568569	0.951537
C169	C	1.150570	-1.052484	0.525556
C170	C	1.650570	-0.552484	1.025556
H171	H	1.091240	-1.034404	0.529298
H172	H	1.591240	-0.534404	1.029298
H173	H	1.156947	-1.095716	0.562233
H174	H	1.656947	-0.595716	1.062233
H175	H	1.190377	-1.014327	0.544990
H176	H	1.690377	-0.514327	1.044990
H177	H	1.159440	-0.944166	0.444000
H178	H	1.659440	-0.444166	0.944000
H179	H	0.527203	-0.274515	0.482994
H180	H	1.027203	0.225485	0.982994
H181	H	0.987190	-0.543338	0.271707
H182	H	1.487190	-0.043338	0.771707
H183	H	0.987195	-0.662602	0.271678
H184	H	1.487195	-0.162602	0.771678
H185	H	1.159424	-0.662596	0.444068
H186	H	1.659424	-0.162596	0.944068
O187	O	1.036628	-0.187640	0.807317
O188	O	1.536628	0.312360	1.307317
C189	C	0.965434	-0.171398	0.833150
C190	C	1.465434	0.328602	1.333150
H191	H	0.952333	-0.199471	0.885294
H192	H	1.452333	0.300529	1.385294
H193	H	0.963752	-0.119082	0.846457
H194	H	1.463752	0.380918	1.346457
H195	H	0.922648	-0.182507	0.788589
H196	H	1.422648	0.317493	1.288589
O197	O	0.937237	-0.272009	0.908351
O198	O	1.437237	0.227991	1.408351
C199	C	0.942425	-0.216895	0.951344
C200	C	1.442425	0.283105	1.451344
H201	H	0.993985	-0.189499	0.934459
H202	H	1.493985	0.310501	1.434459
H203	H	0.891172	-0.186663	0.941873
H204	H	1.391172	0.313337	1.441873
H205	H	0.946311	-0.229954	1.012463
H206	H	1.446311	0.270046	1.512463
H207	H	1.159420	-0.543325	0.444108
H208	H	1.659420	-0.043325	0.944108
O209	O	0.973392	-0.387384	0.807113
O210	O	1.473392	0.112616	1.307113
C211	C	0.902067	-0.370901	0.832368
C212	C	1.402067	0.129099	1.332368
H213	H	0.900705	-0.318687	0.846253
H214	H	1.400705	0.181313	1.346253
H215	H	0.859673	-0.381373	0.787224
H216	H	1.359673	0.118627	1.287224
H217	H	0.888149	-0.399314	0.884045
H218	H	1.388149	0.100686	1.384045
H219	H	1.164895	-0.225442	0.903766
H220	H	1.664895	0.274558	1.403766
H221	H	0.527184	-0.409123	0.324669
H222	H	1.027184	0.090877	0.824669
O223	O	0.624101	-0.387534	0.457619
O224	O	1.124101	0.112466	0.957619
C225	C	0.598906	-0.448032	0.438318
C226	C	1.098906	0.051968	0.938318
H227	H	0.585049	-0.449304	0.376724
H228	H	1.085049	0.050696	0.876724
H229	H	0.644074	-0.483933	0.450743
H230	H	1.144074	0.016067	0.950743
H231	H	0.547224	-0.459779	0.471878
H232	H	1.047224	0.040221	0.971878
H233	H	0.619892	-0.331745	0.232910
H234	H	1.119892	0.168255	0.732910
