data_functionalizedCrystal
_audit_creation_method	'MofGen! by Chris Wilmer'
_symmetry_space_group_name_H-M	'P1'
_symmetry_Int_Tables_number	1
_symmetry_cell_setting	triclinic
loop_
_symmetry_equiv_pos_as_xyz
  x,y,z
_cell_length_a	18.215405
_cell_length_b	12.759401
_cell_length_c	12.759393
_cell_angle_alpha	89.981504
_cell_angle_beta	90.037569
_cell_angle_gamma	89.974954
loop_
_atom_site_label
_atom_site_type_symbol
_atom_site_fract_x
_atom_site_fract_y
_atom_site_fract_z
Zn1	Zn	-0.292938	-1.606181	0.593937
Zn2	Zn	0.207062	-1.106181	1.093937
Zn3	Zn	-0.416024	-1.606044	0.418239
Zn4	Zn	0.083976	-1.106044	0.918239
Zn5	Zn	-0.292976	-1.430483	0.418277
Zn6	Zn	0.207024	-0.930483	0.918277
Zn7	Zn	-0.415967	-1.430440	0.593881
Zn8	Zn	0.084033	-0.930440	1.093881
O9	O	-0.354476	-1.518287	0.506084
O10	O	0.145524	-1.018287	1.006084
O11	O	-0.309273	-1.753184	0.570639
O12	O	0.190727	-1.253184	1.070639
O13	O	-0.399741	-1.582716	0.271223
O14	O	0.100259	-1.082716	0.771223
O15	O	-0.189987	-1.453865	0.441618
O16	O	0.310013	-0.953865	0.941618
O17	O	-0.399704	-1.753083	0.441554
O18	O	0.100296	-1.253083	0.941554
O19	O	-0.189959	-1.582949	0.570675
O20	O	0.310041	-1.082949	1.070675
O21	O	-0.309339	-1.453732	0.271251
O22	O	0.190661	-0.953732	0.771251
O23	O	-0.309284	-1.283456	0.441563
O24	O	0.190716	-0.783456	0.941563
O25	O	-0.399607	-1.453792	0.740909
O26	O	0.100393	-0.953792	1.240909
O27	O	-0.399645	-1.283425	0.570578
O28	O	0.100355	-0.783425	1.070578
O29	O	-0.309218	-1.582908	0.740951
O30	O	0.190782	-1.082908	1.240951
O31	O	-0.519001	-1.582675	0.441499
O32	O	-0.019001	-1.082675	0.941499
O33	O	-0.518959	-1.453660	0.570542
O34	O	-0.018959	-0.953660	1.070542
C35	C	-0.354463	-1.245320	0.506069
C36	C	0.145537	-0.745320	1.006069
C37	C	-0.354475	-1.128543	0.506088
C38	C	0.145525	-0.628543	1.006088
C39	C	-0.545683	-1.518176	0.506033
C40	C	-0.045683	-1.018176	1.006033
C41	C	-0.627482	-1.518225	0.506047
C42	C	-0.127482	-1.018225	1.006047
C43	C	-0.354402	-1.518361	0.780117
C44	C	0.145598	-1.018361	1.280117
C45	C	-0.354370	-1.518392	0.896894
C46	C	0.145630	-1.018392	1.396894
C47	C	-0.815673	-1.585561	0.438977
C48	C	-0.315673	-1.085561	0.938977
C49	C	-0.892531	-1.585608	0.439003
C50	C	-0.392531	-1.085608	0.939003
C51	C	-0.892528	-1.451148	0.573265
C52	C	-0.392528	-0.951148	1.073265
C53	C	-0.815671	-1.451107	0.573244
C54	C	-0.315671	-0.951107	1.073244
C55	C	-0.777245	-1.518312	0.506094
C56	C	-0.277245	-1.018312	1.006094
C57	C	-0.930961	-1.518400	0.506141
C58	C	-0.430961	-1.018400	1.006141
C59	C	-1.014295	-1.518450	0.506169
C60	C	-0.514295	-1.018450	1.006169
C61	C	-0.693906	-1.518263	0.506067
C62	C	-0.193906	-1.018263	1.006067
C63	C	-0.162523	-1.518427	0.506157
C64	C	0.337477	-1.018427	1.006157
C65	C	-0.080724	-1.518487	0.506189
C66	C	0.419276	-1.018487	1.006189
C67	C	-0.354491	-1.792320	0.506098
C68	C	0.145509	-1.292320	1.006098
C69	C	-0.354497	-1.909097	0.506105
C70	C	0.145503	-1.409097	1.006105
C71	C	-0.401601	-1.073692	0.573155
C72	C	0.098399	-0.573692	1.073155
C73	C	-0.401610	-0.963968	0.573167
C74	C	0.098390	-0.463968	1.073167
C75	C	-0.307365	-0.963956	0.439035
C76	C	0.192635	-0.463956	0.939035
C77	C	-0.307353	-1.073678	0.439029
C78	C	0.192647	-0.573678	0.939029
C79	C	-0.456015	-1.073699	0.650592
C80	C	0.043985	-0.573699	1.150592
C81	C	-0.456025	-0.963975	0.650604
C82	C	0.043975	-0.463975	1.150604
C83	C	-0.354497	-1.518274	0.233116
C84	C	0.145503	-1.018274	0.733116
C85	C	-0.354322	-1.518447	0.116340
C86	C	0.145678	-1.018447	0.616340
C87	C	-0.307300	-1.585632	0.951779
C88	C	0.192700	-1.085632	1.451779
C89	C	-0.307274	-1.585657	1.061503
C90	C	0.192726	-1.085657	1.561503
C91	C	-0.401394	-1.451199	1.061447
C92	C	0.098606	-0.951199	1.561447
C93	C	-0.401416	-1.451170	0.951725
C94	C	0.098584	-0.951170	1.451725
C95	C	-0.252963	-1.663263	0.951813
C96	C	0.247037	-1.163263	1.451813
C97	C	-0.252936	-1.663288	1.061537
C98	C	0.247064	-1.163288	1.561537
H99	H	-0.784388	-1.640285	0.384302
H100	H	-0.284388	-1.140285	0.884302
H101	H	-0.268201	-1.744655	1.091313
H102	H	0.231799	-1.244655	1.591313
H103	H	-0.923816	-1.640370	0.384351
H104	H	-0.423816	-1.140370	0.884351
H105	H	-0.923824	-1.396430	0.627935
H106	H	-0.423824	-0.896430	1.127935
H107	H	-0.268999	-0.919271	0.384439
H108	H	0.231001	-0.419271	0.884439
H109	H	-0.439695	-1.396467	1.106104
H110	H	0.060305	-0.896467	1.606104
H111	H	-0.195969	-1.641509	0.922065
H112	H	0.304031	-1.141509	1.422065
H113	H	-0.513008	-0.934165	0.628663
H114	H	-0.013008	-0.434165	1.128663
H115	H	-0.440815	-1.103511	0.732001
H116	H	0.059185	-0.603511	1.232001
H117	H	-0.784381	-1.396345	0.627904
H118	H	-0.284381	-0.896345	1.127904
H119	H	-0.435680	-0.929982	0.727959
H120	H	0.064320	-0.429982	1.227959
H121	H	-0.439743	-1.396413	0.907041
H122	H	0.060257	-0.896413	1.407041
H123	H	-0.268973	-1.118333	0.384424
H124	H	0.231027	-0.618333	0.884424
H125	H	-0.273395	-1.740530	0.917774
H126	H	0.226605	-1.240530	1.417774
H127	H	-0.510128	-1.107699	0.621300
H128	H	-0.010128	-0.607699	1.121300
H129	H	-0.198783	-1.634188	1.095593
H130	H	0.301217	-1.134188	1.595593
