data_functionalizedCrystal
_audit_creation_method	'MofGen! by Chris Wilmer'
_symmetry_space_group_name_H-M	'P1'
_symmetry_Int_Tables_number	1
_symmetry_cell_setting	triclinic
loop_
_symmetry_equiv_pos_as_xyz
  x,y,z
_cell_length_a	17.639051
_cell_length_b	17.640280
_cell_length_c	17.639477
_cell_angle_alpha	109.653959
_cell_angle_beta	109.619910
_cell_angle_gamma	109.624162
loop_
_atom_site_label
_atom_site_type_symbol
_atom_site_fract_x
_atom_site_fract_y
_atom_site_fract_z
Zn1	Zn	1.308982	0.565648	-0.067859
Zn2	Zn	1.383530	0.750216	0.116676
Zn3	Zn	1.199040	0.565669	0.042067
Zn4	Zn	1.199016	0.675540	-0.067877
O5	O	1.272642	0.639268	0.005752
O6	O	1.442102	0.621375	-0.012149
O7	O	1.390266	0.756997	0.230019
O8	O	1.182435	0.442443	-0.003732
O9	O	1.496872	0.756976	0.123428
O10	O	1.263209	0.442427	-0.084494
O11	O	1.254721	0.621411	0.175205
O12	O	1.075806	0.549000	-0.003749
O13	O	1.182395	0.629701	-0.191115
O14	O	1.075788	0.629722	-0.084524
O15	O	1.263186	0.548964	-0.191102
O16	O	1.390243	0.863534	0.123411
O17	O	1.254681	0.808669	-0.012179
C18	C	1.043845	0.581261	-0.052235
C19	C	0.945964	0.556460	-0.077057
C20	C	1.330568	0.868053	0.063697
C21	C	1.355422	0.965941	0.088477
C22	C	1.214472	0.581000	-0.223957
C23	C	1.189684	0.556170	-0.321845
C24	C	1.502333	0.697503	0.063964
C25	C	1.600213	0.722319	0.088771
C26	C	1.766686	0.827890	0.194317
C27	C	1.674709	0.804563	0.170999
C28	C	1.617672	0.663366	0.029831
C29	C	1.709646	0.686679	0.053140
C30	C	1.784147	0.768942	0.135383
C31	C	1.727106	0.627731	-0.005794
C32	C	1.819072	0.651045	0.017511
C33	C	1.893578	0.733306	0.099749
C34	C	1.876113	0.792256	0.158688
C35	C	1.652604	0.545472	-0.088040
C36	C	1.670065	0.486524	-0.146974
C37	C	1.762032	0.509834	-0.123667
C38	C	1.836537	0.592095	-0.041428
C39	C	1.779497	0.450884	-0.182606
C40	C	1.871463	0.474197	-0.159301
C41	C	1.928503	0.615408	-0.018124
C42	C	1.214509	0.409591	-0.052433
C43	C	1.189736	0.311716	-0.077228
C44	C	1.084109	1.145218	-0.182730
C45	C	1.107472	1.237207	-0.159416
C46	C	1.248673	1.294260	-0.018323
C47	C	1.225324	1.202275	-0.041626
C48	C	1.143040	1.127760	-0.123831
C49	C	1.284256	1.184817	0.017273
C50	C	1.260906	1.092839	-0.006027
C51	C	1.178625	1.018320	-0.088226
C52	C	1.119691	1.035783	-0.147130
C53	C	1.366536	1.259333	0.099480
C54	C	1.425468	1.241875	0.158379
C55	C	1.402122	1.149896	0.135077
C56	C	1.319840	1.075377	0.052878
C57	C	1.461056	1.132434	0.193981
C58	C	1.437706	1.040456	0.170681
C59	C	1.296490	0.983400	0.029578
C60	C	1.461024	0.827474	-0.501064
C61	C	1.437718	0.804129	-0.593050
C62	C	1.296585	0.662953	-0.650124
C63	C	1.319877	0.686288	-0.558141
C64	C	1.402099	0.768549	-0.483617
C65	C	1.260952	0.627363	-0.540694
C66	C	1.284245	0.650694	-0.448719
C67	C	1.366464	0.732950	-0.374190
C68	C	1.425392	0.791880	-0.391641
C69	C	1.178734	0.545099	-0.615219
C70	C	1.119808	0.486174	-0.597772
C71	C	1.143098	0.509508	-0.505796
C72	C	1.225316	0.591764	-0.431267
C73	C	1.084169	0.450578	-0.488345
C74	C	1.107462	0.473909	-0.396369
C75	C	1.248610	0.615095	-0.339292
C76	C	1.330620	0.697259	0.234563
C77	C	1.355516	0.721884	0.332432
H78	H	1.989168	0.682391	0.048851
Br79	Br	1.517676	1.016758	0.250625
Br80	Br	1.147098	0.893491	-0.120017
Br81	Br	1.027496	0.393936	-0.372686
H82	H	1.968461	0.752280	0.118727
Br83	Br	0.972445	1.044082	-0.294303
Br84	Br	1.360186	0.726747	-0.238144
Br85	Br	1.536968	0.903532	-0.290493
Br86	Br	1.008026	0.934647	-0.258703
H87	H	1.385429	0.751942	-0.299299
Br88	Br	1.572601	0.939126	-0.399915
Br89	Br	1.678381	0.339256	-0.294228
Br90	Br	1.516558	0.551732	-0.081786
Br91	Br	1.517706	0.884100	-0.616722
Br92	Br	1.027473	1.260895	-0.239351
H93	H	1.609395	0.419547	-0.213939
H94	H	1.229642	0.595974	-0.710813
Br95	Br	1.895165	0.394199	-0.239285
Br96	Br	1.360341	1.395393	0.093236
H97	H	1.385546	1.334225	0.118446
Br98	Br	1.537135	1.343008	0.269938
H99	H	1.528046	1.193116	0.260916
H100	H	1.577721	0.526495	-0.107014
Br101	Br	1.147127	0.513429	-0.740045
H102	H	1.052865	0.419196	-0.658461
Br103	Br	0.972597	0.338934	-0.589492
Br104	Br	1.867803	0.939536	0.305933
H105	H	1.936778	0.859239	0.225663
H106	H	1.229491	0.922724	-0.037366
H107	H	1.660501	0.852573	0.218994
