data_functionalizedCrystal
_audit_creation_method	'MofGen! by Chris Wilmer'
_symmetry_space_group_name_H-M	'P1'
_symmetry_Int_Tables_number	1
_symmetry_cell_setting	triclinic
loop_
_symmetry_equiv_pos_as_xyz
  x,y,z
_cell_length_a	10.967926
_cell_length_b	11.026607
_cell_length_c	10.065875
_cell_angle_alpha	100.731764
_cell_angle_beta	93.120479
_cell_angle_gamma	96.380754
loop_
_atom_site_label
_atom_site_type_symbol
_atom_site_fract_x
_atom_site_fract_y
_atom_site_fract_z
O1	O	1.659143	0.213709	0.276732
O2	O	1.309856	0.217209	0.194579
O3	O	1.455551	0.037496	0.228852
O4	O	1.513449	0.393422	0.242459
O5	O	1.427800	0.071909	0.449312
O6	O	1.282106	0.251622	0.415040
O7	O	1.631392	0.248122	0.497193
Zn8	Zn	1.452343	0.255336	0.491119
Zn9	Zn	1.488906	0.209995	0.200653
O10	O	1.485698	0.427835	0.462920
C11	C	1.250570	0.231560	0.294129
C12	C	1.115255	0.223039	0.262303
C13	C	1.040552	0.237067	0.362319
C14	C	0.900697	0.228260	0.329427
C15	C	1.430994	0.009008	0.336568
C16	C	1.399155	-0.127149	0.329075
C17	C	1.487072	-0.196974	0.349751
C18	C	1.454166	-0.337699	0.342006
C19	C	1.690679	0.233770	0.397640
C20	C	1.825995	0.242290	0.429458
C21	C	1.510255	0.456323	0.355201
C22	C	1.542096	0.592478	0.362686
N23	N	1.427398	0.286279	0.689357
N24	N	1.513858	0.179043	0.002417
C25	C	1.480217	0.220753	0.769561
C26	C	1.461031	0.244578	0.922215
H27	H	1.586701	-0.152570	0.373192
H28	H	1.539637	0.147011	0.725214
N29	N	1.267178	-0.185951	0.298050
H30	H	1.213027	-0.120019	0.285319
H31	H	1.260431	-0.251379	0.212316
N32	N	0.878394	0.266848	0.575152
H33	H	0.843121	0.198191	0.620988
H34	H	0.970869	0.269691	0.577895
H35	H	1.401597	0.318315	0.966554
H36	H	1.367968	0.360011	0.733703
N37	N	1.092966	0.261608	0.508002
H38	H	1.185444	0.264421	0.510848
H39	H	1.070785	0.343890	0.556844
N40	N	0.848287	0.203701	0.183736
H41	H	0.755809	0.200886	0.180890
H42	H	0.883646	0.272377	0.137981
N43	N	1.592571	0.081354	0.943697
H44	H	1.595119	0.078176	0.842970
H45	H	1.678769	0.102968	0.988855
N46	N	1.322180	-0.396485	0.310974
H47	H	1.290651	-0.382837	0.219418
H48	H	1.317471	-0.488658	0.309918
N49	N	1.674080	-0.348732	0.393718
H50	H	1.678883	-0.256537	0.394849
H51	H	1.705529	-0.362471	0.485261
H52	H	1.075673	0.204506	0.152325
