data_functionalizedCrystal
_audit_creation_method	'MofGen! by Chris Wilmer'
_symmetry_space_group_name_H-M	'P1'
_symmetry_Int_Tables_number	1
_symmetry_cell_setting	triclinic
loop_
_symmetry_equiv_pos_as_xyz
  x,y,z
_cell_length_a	14.519709
_cell_length_b	10.654554
_cell_length_c	9.730223
_cell_angle_alpha	89.999030
_cell_angle_beta	89.995143
_cell_angle_gamma	95.916506
loop_
_atom_site_label
_atom_site_type_symbol
_atom_site_fract_x
_atom_site_fract_y
_atom_site_fract_z
O1	O	-0.129549	1.666585	-0.114294
O2	O	-0.141885	1.300989	-0.114289
O3	O	-0.001529	1.493480	-0.114304
O4	O	-0.269905	1.474093	-0.114279
O5	O	-0.001533	1.493478	0.114276
O6	O	-0.141889	1.300986	0.114291
O7	O	-0.129553	1.666583	0.114286
Zn8	Zn	-0.135721	1.483784	0.150581
Zn9	Zn	-0.135717	1.483787	-0.150583
O10	O	-0.269909	1.474091	0.114301
C11	C	-0.140981	1.254198	0.000001
C12	C	-0.138268	1.114781	0.000002
C13	C	-0.050527	0.933063	-0.000024
C14	C	-0.053075	1.064060	-0.000010
C15	C	-0.220917	1.034498	0.000014
C16	C	-0.218368	0.903503	0.000009
C17	C	0.046375	0.950132	-0.000044
C18	C	0.043827	1.081129	-0.000029
C19	C	-0.304272	1.474996	0.000014
C20	C	-0.406667	1.477703	0.000024
C21	C	-0.781614	1.487670	-0.000031
C22	C	-0.677292	1.484903	-0.000015
C23	C	-0.594144	1.482687	-0.000002
C24	C	-0.489815	1.479919	0.000011
C25	C	0.032834	1.492575	-0.000020
C26	C	0.135229	1.489868	-0.000038
C27	C	-0.130457	1.713373	-0.000007
C28	C	-0.133170	1.852790	-0.000017
N29	N	-0.135724	1.483791	0.356117
N30	N	-0.135707	1.483790	-0.356120
C31	C	-0.073595	1.569048	0.428036
C32	C	-0.073584	1.569045	0.571919
C33	C	-0.197838	1.398524	0.571951
C34	C	-0.197844	1.398522	0.428071
C35	C	-0.001861	1.667501	0.428020
C36	C	-0.001850	1.667498	0.571902
H37	H	0.077233	0.914801	-0.098744
H38	H	-0.285664	0.838148	0.000032
Cl39	Cl	0.101565	1.621373	0.640788
H40	H	0.073107	1.127048	0.098667
H41	H	-0.017652	1.763857	0.610954
H42	H	-0.290283	1.075805	0.000036
H43	H	0.084273	0.921133	0.095606
H44	H	-0.248414	1.329099	0.630551
Cl45	Cl	-0.275938	1.291323	0.337656
H46	H	0.080335	1.123238	-0.095695
Cl47	Cl	0.107577	1.635446	0.367702
Cl48	Cl	-0.036553	1.807938	0.359111
