data_functionalizedCrystal
_audit_creation_method	'MofGen! by Chris Wilmer'
_symmetry_space_group_name_H-M	'P1'
_symmetry_Int_Tables_number	1
_symmetry_cell_setting	triclinic
loop_
_symmetry_equiv_pos_as_xyz
  x,y,z
_cell_length_a	19.288864
_cell_length_b	14.044190
_cell_length_c	18.366186
_cell_angle_alpha	89.989358
_cell_angle_beta	89.977106
_cell_angle_gamma	88.164010
loop_
_atom_site_label
_atom_site_type_symbol
_atom_site_fract_x
_atom_site_fract_y
_atom_site_fract_z
O1	O	0.928950	0.118215	-0.060793
O2	O	0.727715	0.134162	-0.060745
O3	O	0.825309	-0.011784	-0.060754
O4	O	0.831356	0.264160	-0.060784
O5	O	0.825291	-0.011791	0.060345
O6	O	0.727696	0.134154	0.060355
O7	O	0.928932	0.118207	0.060306
Zn8	Zn	0.828311	0.126180	0.079558
Zn9	Zn	0.828336	0.126189	-0.079996
O10	O	0.831337	0.264153	0.060315
C11	C	0.701796	0.133645	-0.000189
C12	C	0.624593	0.132105	-0.000169
C13	C	0.585401	0.217739	-0.000190
C14	C	0.512861	0.216292	-0.000198
C15	C	0.479516	0.129205	-0.000200
C16	C	0.518718	0.043560	-0.000175
C17	C	0.591256	0.045010	-0.000160
C18	C	0.366861	0.060749	-0.042643
C19	C	0.294323	0.059303	-0.042663
C20	C	0.255783	0.124731	-0.000243
C21	C	0.289788	0.191622	0.042187
C22	C	0.362327	0.193071	0.042202
C23	C	0.400861	0.127624	-0.000216
C24	C	0.137934	0.208802	-0.000272
C25	C	0.065393	0.207351	-0.000275
C26	C	0.071251	0.034617	-0.000259
C27	C	0.143791	0.036071	-0.000248
C28	C	0.177128	0.123165	-0.000258
C29	C	0.822655	-0.047091	-0.000201
C30	C	0.814765	-0.152283	-0.000193
C31	C	0.856297	-0.402747	-0.000232
C32	C	0.800353	-0.344879	-0.000213
C33	C	0.808374	-0.237709	-0.000202
C34	C	0.848277	-0.509927	-0.000243
C35	C	0.954851	0.118724	-0.000252
C36	C	1.032053	0.120264	-0.000276
C37	C	0.833991	0.299460	-0.000239
C38	C	0.841881	0.404652	-0.000252
N39	N	0.828299	0.126173	0.188449
N40	N	0.828352	0.126189	-0.188887
C41	C	0.871532	0.061580	0.226545
C42	C	0.871536	0.061576	0.302773
C43	C	0.828315	0.126181	0.340901
C44	C	0.785074	0.190778	0.302796
C45	C	0.785066	0.190775	0.226570
C46	C	0.824566	0.212524	0.461654
C47	C	0.824579	0.212529	0.537879
C48	C	0.828336	0.126192	0.576009
C49	C	0.832094	0.039847	0.537905
C50	C	0.832086	0.039843	0.461679
C51	C	0.828319	0.126192	0.423556
C52	C	0.871575	0.061590	0.696760
C53	C	0.871574	0.061584	0.772989
C54	C	0.785116	0.190795	0.773011
C55	C	0.785113	0.190792	0.696783
C56	C	0.828346	0.126191	0.658662
H57	H	0.390011	0.247533	0.076752
H58	H	0.623167	-0.024726	-0.000143
H59	H	0.835152	-0.030457	0.568949
N60	N	0.732704	-0.383675	-0.000190
N61	N	0.680101	-0.329328	-0.000165
H62	H	0.632325	-0.356731	-0.000146
N63	N	0.915637	-0.004476	0.657776
N64	N	0.909160	-0.092046	0.666308
H65	H	0.940245	-0.138729	0.638759
N66	N	0.923931	-0.363919	-0.000243
N67	N	0.930432	-0.275651	-0.000233
H68	H	0.978198	-0.248217	-0.000240
H69	H	0.821496	0.282834	0.430614
N70	N	0.740925	0.256759	0.341751
N71	N	0.740938	0.256755	0.409809
H72	H	0.709753	0.303352	0.437322
H73	H	0.258410	0.244899	0.076729
H74	H	0.906733	0.008975	0.195509
H75	H	0.906777	0.008980	0.804008
N76	N	0.915701	-0.004417	0.341687
N77	N	0.954294	-0.062093	0.307642
H78	H	0.985486	-0.108701	0.335122
H79	H	0.266642	0.004840	-0.077215
H80	H	0.835144	-0.030463	0.430657
H81	H	0.749922	0.243394	0.804055
H82	H	0.749912	0.243394	0.665763
N83	N	0.171981	0.297771	-0.000277
N84	N	0.136975	0.374227	-0.000287
H85	H	0.161019	0.437062	-0.000289
H86	H	0.749860	0.243375	0.195551
N87	N	0.619441	0.306709	-0.000202
N88	N	0.584433	0.383163	-0.000222
H89	H	0.608475	0.446001	-0.000231
N90	N	0.472826	0.303777	-0.000215
N91	N	0.502600	0.381531	-0.000220
H92	H	0.474328	0.443319	-0.000232
N93	N	0.820750	0.300733	0.576786
N94	N	0.817389	0.377813	0.542735
H95	H	0.814686	0.440110	0.570211
H96	H	0.033483	0.277088	-0.000288
H97	H	0.044103	-0.036290	-0.000306
H98	H	0.175702	-0.033662	-0.000236
H99	H	0.398235	0.007467	-0.077191
H100	H	0.491564	-0.027346	-0.000186
