data_functionalizedCrystal
_audit_creation_method	'MofGen! by Chris Wilmer'
_symmetry_space_group_name_H-M	'P1'
_symmetry_Int_Tables_number	1
_symmetry_cell_setting	triclinic
loop_
_symmetry_equiv_pos_as_xyz
  x,y,z
_cell_length_a	13.339070
_cell_length_b	14.519709
_cell_length_c	12.376457
_cell_angle_alpha	101.296542
_cell_angle_beta	75.589755
_cell_angle_gamma	99.654719
loop_
_atom_site_label
_atom_site_type_symbol
_atom_site_fract_x
_atom_site_fract_y
_atom_site_fract_z
O1	O	1.362507	0.449827	-0.094056
O2	O	1.067869	0.389115	-0.094048
O3	O	1.222998	0.287221	-0.094042
O4	O	1.207378	0.551721	-0.094062
O5	O	1.184229	0.312650	0.093969
O6	O	1.029100	0.414544	0.093963
O7	O	1.323739	0.475256	0.093955
Zn8	Zn	1.170264	0.448937	0.123810
Zn9	Zn	1.221343	0.415434	-0.123903
O10	O	1.168610	0.577150	0.093949
C11	C	1.010777	0.391574	-0.000041
C12	C	0.898419	0.361005	-0.000038
C13	C	0.534063	0.598692	-0.000074
C14	C	0.639629	0.627415	-0.000081
C15	C	0.704332	0.560815	-0.000070
C16	C	0.663458	0.465487	-0.000053
C17	C	0.557883	0.436759	-0.000055
C18	C	0.728152	0.398883	-0.000050
C19	C	0.687278	0.303554	-0.000033
C20	C	0.581713	0.274832	-0.000035
C21	C	0.517011	0.341432	-0.000046
C22	C	0.833726	0.427610	-0.000048
C23	C	0.857547	0.265678	-0.000029
C24	C	0.751980	0.236954	-0.000022
C25	C	1.202885	0.265390	-0.000036
C26	C	1.200703	0.162454	-0.000036
C27	C	1.192677	-0.214489	-0.000065
C28	C	1.194906	-0.109612	-0.000056
C29	C	1.196690	-0.026021	-0.000049
C30	C	1.198919	0.078862	-0.000043
C31	C	1.380832	0.472796	-0.000054
C32	C	1.493191	0.503364	-0.000065
C33	C	1.188723	0.598980	-0.000059
C34	C	1.190906	0.701915	-0.000067
N35	N	1.135411	0.471804	0.292866
N36	N	1.256204	0.392562	-0.292960
C37	C	1.337109	0.339463	0.647859
C38	C	1.361497	0.323457	0.529520
C39	C	1.304977	0.360542	0.470351
C40	C	1.224066	0.413636	0.529532
C41	C	1.199681	0.429650	0.647883
C42	C	1.167550	0.450729	0.470375
C43	C	1.086639	0.503824	0.529556
C44	C	1.062257	0.519834	0.647895
C45	C	1.118777	0.482749	0.707064
C46	C	1.191935	0.434715	0.352024
C47	C	1.054507	0.524903	0.352048
C48	C	1.030119	0.540909	0.470387
H49	H	0.718688	0.159335	-0.000018
H50	H	0.964240	0.584140	0.518587
H51	H	1.324838	0.347507	0.373994
H52	H	1.098918	0.495777	0.803425
O53	O	1.440085	0.271826	0.472211
C54	C	1.484758	0.242545	0.549807
H55	H	1.425880	0.242276	0.634176
H56	H	1.557401	0.293484	0.562373
C57	C	1.587279	0.142443	0.400001
C58	C	1.514960	0.142106	0.503622
H59	H	1.605914	0.080490	0.371512
H60	H	1.557185	0.162173	0.347722
H61	H	1.647805	0.184897	0.410487
H62	H	1.454431	0.099662	0.493132
H63	H	1.545044	0.122367	0.555899
O64	O	0.679232	0.720018	-0.000249
C65	C	0.666280	0.749061	-0.097645
H66	H	0.599716	0.700778	-0.130099
H67	H	0.741408	0.744786	-0.165830
C68	C	0.722318	0.911083	-0.028227
C69	C	0.640557	0.851786	-0.068082
H70	H	0.706456	0.974450	-0.009995
H71	H	0.731048	0.891516	0.037388
H72	H	0.784917	0.907509	-0.085055
H73	H	0.577963	0.855352	-0.011250
H74	H	0.631816	0.871356	-0.133688
H75	H	0.996383	0.563075	0.696080
H76	H	0.481376	0.652906	-0.000092
H77	H	0.431049	0.318049	-0.000040
H78	H	1.008485	0.555103	0.303873
O79	O	0.542005	0.182213	-0.000230
C80	C	0.501715	0.147589	-0.097591
H81	H	0.540805	0.192987	-0.165651
H82	H	0.413965	0.150545	-0.075582
C83	C	0.475425	-0.011312	-0.058144
C84	C	0.523443	0.044443	-0.141740
H85	H	0.488822	-0.074939	-0.085376
H86	H	0.502565	0.012014	0.007452
H87	H	0.402303	-0.008838	-0.039811
H88	H	0.596563	0.041977	-0.160061
H89	H	0.496315	0.021113	-0.207341
O90	O	0.873512	0.520168	-0.000263
C91	C	0.953962	0.528457	-0.097621
H92	H	0.942949	0.464645	-0.165672
H93	H	1.032632	0.531462	-0.075603
C94	C	0.963974	0.698024	-0.058210
C95	C	0.950443	0.619653	-0.141794
H96	H	0.961808	0.754280	-0.085455
H97	H	0.909776	0.692441	0.007385
H98	H	1.029533	0.700515	-0.039869
H99	H	0.884881	0.617156	-0.160123
H100	H	1.004630	0.625238	-0.207393
O101	O	0.806863	0.588620	0.000080
C102	C	0.828574	0.567004	0.097477
H103	H	0.767996	0.507567	0.129948
H104	H	0.825712	0.632507	0.165651
C105	C	1.012393	0.608196	0.028033
C106	C	0.937995	0.535190	0.067908
H107	H	1.079890	0.588576	0.009796
H108	H	0.997766	0.622763	-0.037584
H109	H	1.009995	0.662776	0.084851
H110	H	0.940385	0.480616	0.011085
H111	H	0.952625	0.520613	0.133515
O112	O	0.920521	0.201104	0.000032
C113	C	1.022468	0.246896	0.000004
H114	H	1.019305	0.325215	0.035595
H115	H	1.071594	0.239013	-0.090193
C116	C	1.075628	0.105576	0.030027
C117	C	1.071741	0.201767	0.073749
H118	H	1.106025	0.077736	0.075511
H119	H	1.006946	0.074723	0.030041
H120	H	1.116564	0.099020	-0.045137
H121	H	1.030795	0.208321	0.148906
H122	H	1.140418	0.232620	0.073749
H123	H	1.257813	0.391486	0.303849
H124	H	1.383125	0.309279	0.696043
