data_functionalizedCrystal
_audit_creation_method	'MofGen! by Chris Wilmer'
_symmetry_space_group_name_H-M	'P1'
_symmetry_Int_Tables_number	1
_symmetry_cell_setting	triclinic
loop_
_symmetry_equiv_pos_as_xyz
  x,y,z
_cell_length_a	11.792241
_cell_length_b	19.288865
_cell_length_c	18.366186
_cell_angle_alpha	89.988521
_cell_angle_beta	89.995167
_cell_angle_gamma	83.664832
loop_
_atom_site_label
_atom_site_type_symbol
_atom_site_fract_x
_atom_site_fract_y
_atom_site_fract_z
O1	O	1.505472	0.095201	-0.060488
O2	O	1.174982	0.105012	-0.060506
O3	O	1.349777	-0.000970	-0.060482
O4	O	1.330678	0.201182	-0.060512
O5	O	1.349747	-0.000975	0.060617
O6	O	1.174953	0.105007	0.060593
O7	O	1.505442	0.095195	0.060611
Zn8	Zn	1.340193	0.100100	0.079829
Zn9	Zn	1.340232	0.100107	-0.079724
O10	O	1.330648	0.201177	0.060587
C11	C	1.349147	-0.026852	0.000070
C12	C	1.347303	-0.103966	0.000076
C13	C	1.132686	0.104393	0.000042
C14	C	1.006700	0.102548	0.000035
C15	C	1.449864	-0.148080	0.000085
C16	C	1.448131	-0.220537	0.000074
C17	C	1.343830	-0.248877	0.000067
C18	C	1.241255	-0.204754	0.000054
C19	C	1.242992	-0.132298	0.000058
C20	C	1.261828	-0.357632	0.042481
C21	C	1.260096	-0.430086	0.042482
C22	C	1.338472	-0.472353	0.000051
C23	C	1.418598	-0.442158	-0.042371
C24	C	1.420334	-0.369703	-0.042366
C25	C	1.341936	-0.327442	0.000062
C26	C	1.439161	-0.595033	0.000046
C27	C	1.437423	-0.667491	0.000030
C28	C	1.230545	-0.651706	0.000018
C29	C	1.232285	-0.579250	0.000027
C30	C	1.336596	-0.550918	0.000044
C31	C	0.776039	0.099156	0.000057
C32	C	0.904396	0.101041	0.000045
C33	C	1.547739	0.095814	0.000062
C34	C	1.673725	0.097659	0.000063
C35	C	1.331277	0.227060	0.000034
C36	C	1.333122	0.304174	0.000023
N37	N	1.340174	0.100095	0.188721
N38	N	1.340259	0.100107	-0.188615
C39	C	1.417599	0.053190	0.226832
C40	C	1.417606	0.053186	0.303059
C41	C	1.340200	0.100101	0.341173
C42	C	1.262761	0.147010	0.303053
C43	C	1.262748	0.147007	0.226827
C44	C	1.325007	0.163302	0.461924
C45	C	1.325027	0.163306	0.538149
C46	C	1.340232	0.100110	0.576281
C47	C	1.355440	0.036907	0.538179
C48	C	1.355428	0.036904	0.461952
C49	C	1.340204	0.100109	0.423828
C50	C	1.417668	0.053197	0.697047
C51	C	1.417667	0.053193	0.773276
C52	C	1.262828	0.147022	0.773268
C53	C	1.262823	0.147020	0.697041
C54	C	1.340249	0.100108	0.658934
H55	H	1.534802	-0.125017	0.000097
H56	H	1.367821	-0.014554	0.569224
C57	C	1.502793	0.001592	0.344990
N58	N	1.566961	-0.037267	0.376570
H59	H	1.199699	0.185203	0.195796
C60	C	1.550256	-0.716017	0.000044
N61	N	1.635243	-0.752568	0.000058
H62	H	1.199782	0.185218	0.666008
C63	C	1.502827	0.001587	0.655127
N64	N	1.566968	-0.037287	0.623556
C65	C	1.502826	0.001579	0.815198
N66	N	1.566964	-0.037301	0.846774
H67	H	1.367808	-0.014558	0.430932
H68	H	1.194847	-0.454665	0.077020
H69	H	1.531651	-0.256461	0.000078
H70	H	1.480641	0.014990	0.195808
H71	H	1.482419	-0.476570	-0.076922
C72	C	1.508464	-0.336490	-0.089035
N73	N	1.574840	-0.311474	-0.124189
H74	H	1.199798	0.185218	0.804300
H75	H	1.312651	0.214770	0.569166
H76	H	1.312605	0.214768	0.430883
H77	H	1.199734	0.185207	0.334089
H78	H	1.148769	-0.543331	0.000024
H79	H	1.198002	-0.323224	0.077038
H80	H	1.524097	-0.571964	0.000057
H81	H	1.145622	-0.674780	0.000010
C82	C	1.126525	-0.235929	0.000053
N83	N	1.040106	-0.259410	0.000051
H84	H	1.159471	-0.096380	0.000051
