data_functionalizedCrystal
_audit_creation_method	'MofGen! by Chris Wilmer'
_symmetry_space_group_name_H-M	'P1'
_symmetry_Int_Tables_number	1
_symmetry_cell_setting	triclinic
loop_
_symmetry_equiv_pos_as_xyz
  x,y,z
_cell_length_a	18.050591
_cell_length_b	16.120484
_cell_length_c	16.120297
_cell_angle_alpha	84.385569
_cell_angle_beta	92.872461
_cell_angle_gamma	87.078125
loop_
_atom_site_label
_atom_site_type_symbol
_atom_site_fract_x
_atom_site_fract_y
_atom_site_fract_z
Zn1	Zn	1.097108	0.356841	-0.489590
Zn2	Zn	1.097015	0.489530	-0.356900
Zn3	Zn	0.979550	0.349767	-0.349821
Zn4	Zn	0.966254	0.496560	-0.496606
O5	O	1.034982	0.423175	-0.423229
O6	O	1.201019	0.374461	-0.472014
O7	O	1.086958	0.465088	-0.239000
O8	O	1.000748	0.233740	-0.362463
O9	O	1.200950	0.471947	-0.374528
O10	O	1.087118	0.238938	-0.465150
O11	O	1.000658	0.362404	-0.233799
O12	O	0.873864	0.369221	-0.369266
O13	O	0.978086	0.483929	-0.612637
O14	O	0.864095	0.477070	-0.477109
O15	O	1.074225	0.381277	-0.607482
O16	O	1.074065	0.607428	-0.381332
O17	O	0.977995	0.612593	-0.483973
C18	C	0.842033	0.423141	-0.423182
C19	C	0.759487	0.423148	-0.423182
C20	C	1.024597	0.640339	-0.434200
C21	C	1.020220	0.733244	-0.438921
C22	C	1.024683	0.434176	-0.641234
C23	C	1.020294	0.438865	-0.734134
C24	C	0.565324	0.364442	-0.364662
C25	C	0.513265	0.439636	-0.347956
C26	C	0.608354	0.423175	-0.423221
C27	C	0.513331	0.348007	-0.439927
C28	C	0.462366	0.423195	-0.423257
C29	C	0.557381	0.498408	-0.406476
C30	C	0.557453	0.406729	-0.498481
C31	C	0.505411	0.481978	-0.481805
C32	C	0.692454	0.423163	-0.423198
C33	C	0.378268	0.423216	-0.423280
C34	C	1.228684	0.423209	-0.423278
C35	C	1.311228	0.423223	-0.423298
C36	C	1.045427	0.205163	-0.412234
C37	C	1.049878	0.112260	-0.407548
C38	C	1.012234	0.903343	-0.447559
C39	C	1.057862	0.942166	-0.398914
C40	C	1.053418	1.036815	-0.403719
C41	C	1.016677	0.808686	-0.442754
C42	C	1.012255	0.447406	-0.904224
C43	C	1.057867	0.398693	-0.943074
C44	C	1.053394	0.403445	-1.037718
C45	C	1.016727	0.442655	-0.809572
C46	C	1.045286	0.412155	-0.206070
C47	C	1.049830	0.407231	-0.113158
H48	H	0.493768	0.453561	-0.284326
N49	N	1.111076	0.341890	-0.895653
N50	N	1.109407	0.265238	-0.901420
H51	H	1.146986	0.225123	-0.867928
H52	H	0.969849	0.492677	-0.942040
H53	H	0.591457	0.314821	-0.315093
N54	N	0.472785	0.544348	-0.543963
N55	N	0.486360	0.541317	-0.618919
H56	H	0.463315	0.585366	-0.662816
H57	H	0.576729	0.562000	-0.392290
H58	H	0.576969	0.392780	-0.562090
H59	H	0.493857	0.284437	-0.454014
N60	N	1.111038	0.894682	-0.342129
N61	N	1.114608	0.816746	-0.338245
H62	H	1.152156	0.783206	-0.298136
H63	H	0.969837	0.941187	-0.492810
