data_functionalizedCrystal
_audit_creation_method	'MofGen! by Chris Wilmer'
_symmetry_space_group_name_H-M	'P1'
_symmetry_Int_Tables_number	1
_symmetry_cell_setting	triclinic
loop_
_symmetry_equiv_pos_as_xyz
  x,y,z
_cell_length_a	16.109302
_cell_length_b	15.995292
_cell_length_c	14.586319
_cell_angle_alpha	89.999401
_cell_angle_beta	89.994552
_cell_angle_gamma	83.465199
loop_
_atom_site_label
_atom_site_type_symbol
_atom_site_fract_x
_atom_site_fract_y
_atom_site_fract_z
O1	O	1.103137	0.107630	-0.076275
O2	O	0.861076	0.121023	-0.076267
O3	O	0.988749	-0.007566	-0.076273
O4	O	0.975465	0.236219	-0.076269
O5	O	0.988740	-0.007568	0.076208
O6	O	0.861067	0.121021	0.076214
O7	O	1.103128	0.107628	0.076206
Cu8	Cu	0.982097	0.114325	0.090133
Cu9	Cu	0.982107	0.114327	-0.090194
O10	O	0.975456	0.236218	0.076211
C11	C	0.830097	0.120480	-0.000026
C12	C	0.737801	0.118853	-0.000023
C13	C	0.525455	0.115090	0.083085
C14	C	0.438735	0.113552	0.083082
C15	C	0.438755	0.113559	-0.083161
C16	C	0.525475	0.115090	-0.083157
C17	C	0.568822	0.115860	-0.000031
C18	C	0.395382	0.112791	-0.000038
C19	C	0.301357	0.111124	-0.000042
C20	C	0.662854	0.117526	-0.000026
C21	C	0.988204	-0.038763	-0.000034
C22	C	0.986583	-0.131715	-0.000041
C23	C	0.980624	-0.469452	-0.000033
C24	C	1.072774	-0.446164	0.000305
C25	C	1.074526	-0.349489	-0.000042
C26	C	0.983581	-0.301897	-0.000036
C27	C	0.937515	-0.330984	-0.087106
C28	C	0.936405	-0.427774	-0.087176
C29	C	0.934513	-0.427633	0.086224
C30	C	0.937928	-0.331142	0.087371
C31	C	0.985247	-0.207201	-0.000042
C32	C	0.978955	-0.564147	-0.000034
C33	C	1.134108	0.108172	-0.000037
C34	C	1.226403	0.109799	-0.000046
C35	C	0.976001	0.267414	-0.000029
C36	C	0.977622	0.360366	-0.000028
N37	N	0.982096	0.114322	0.216964
N38	N	0.982115	0.114322	-0.217025
C39	C	1.038648	0.057402	0.451968
C40	C	1.038650	0.057400	0.547950
C41	C	0.925557	0.171245	0.547964
C42	C	0.925551	0.171243	0.451984
C43	C	0.982101	0.114322	0.403989
C44	C	0.982110	0.114323	0.595950
C45	C	0.982112	0.114321	0.700017
C46	C	0.982098	0.114323	0.299915
H47	H	0.403430	0.112926	0.150764
H48	H	0.560785	0.115715	-0.150844
C49	C	1.100854	-0.005209	0.600723
H50	H	1.134534	-0.039102	0.558389
H51	H	1.070961	-0.040075	0.638171
H52	H	1.135458	0.024930	0.638156
C53	C	0.847110	-0.287906	-0.091485
H54	H	0.836633	-0.251708	-0.040131
H55	H	0.809430	-0.329467	-0.090675
H56	H	0.839500	-0.255949	-0.146350
H57	H	0.403451	0.112933	-0.150839
C58	C	0.848250	-0.286589	0.094486
H59	H	0.822193	-0.305449	0.147882
H60	H	0.817343	-0.299326	0.041834
H61	H	0.849888	-0.227500	0.098143
C62	C	0.842883	-0.446506	0.087026
H63	H	0.832743	-0.479707	0.035081
H64	H	0.806959	-0.395146	0.085115
H65	H	0.832425	-0.476328	0.141369
C66	C	0.863349	0.233860	0.399204
H67	H	0.829679	0.267768	0.441533
H68	H	0.828748	0.203727	0.361769
H69	H	0.893253	0.268724	0.361756
C70	C	0.573138	0.115912	0.174519
H71	H	0.534889	0.115221	0.224019
H72	H	0.600622	0.165304	0.177994
H73	H	0.613312	0.067699	0.177960
C74	C	1.123273	-0.323799	0.084263
H75	H	1.142185	-0.372489	0.119031
H76	H	1.087797	-0.285995	0.121108
H77	H	1.169931	-0.297078	0.064655
H78	H	1.110824	-0.331094	-0.062568
C79	C	0.863365	0.233860	0.600762
H80	H	0.871472	0.225717	0.664796
H81	H	0.807880	0.224754	0.585045
H82	H	0.872389	0.289748	0.585025
H83	H	1.108290	-0.474172	0.062746
H84	H	1.084693	0.011053	0.412893
H85	H	1.108100	-0.475191	-0.061788
H86	H	0.968316	-0.454599	-0.152266
H87	H	0.868840	-0.442306	-0.091116
H88	H	0.969511	-0.310932	-0.151907
C89	C	0.973504	-0.465813	0.175379
H90	H	1.018275	-0.507619	0.160827
H91	H	0.932330	-0.490565	0.209380
H92	H	0.993983	-0.422808	0.210922
H93	H	0.971471	-0.312586	0.151784
