data_functionalizedCrystal
_audit_creation_method	'MofGen! by Chris Wilmer'
_symmetry_space_group_name_H-M	'P1'
_symmetry_Int_Tables_number	1
_symmetry_cell_setting	triclinic
loop_
_symmetry_equiv_pos_as_xyz
  x,y,z
_cell_length_a	23.532407
_cell_length_b	22.610064
_cell_length_c	11.792241
_cell_angle_alpha	90.003956
_cell_angle_beta	83.521085
_cell_angle_gamma	89.995143
loop_
_atom_site_label
_atom_site_type_symbol
_atom_site_fract_x
_atom_site_fract_y
_atom_site_fract_z
O1	O	-0.756080	0.049139	-0.137756
O2	O	-0.590335	0.049150	-0.157691
O3	O	-0.677229	0.049140	0.017542
O4	O	-0.669185	0.049149	-0.312989
O5	O	-0.677214	-0.049229	0.017516
O6	O	-0.590319	-0.049219	-0.157716
O7	O	-0.756064	-0.049230	-0.137782
Zn8	Zn	-0.673189	-0.064843	-0.147753
Zn9	Zn	-0.673210	0.064763	-0.147719
O10	O	-0.669170	-0.049220	-0.313014
C11	C	-0.569108	-0.000033	-0.157196
C12	C	-0.505882	-0.000029	-0.155669
C13	C	-0.239062	-0.000045	-0.045677
C14	C	-0.298471	-0.000045	-0.047094
O15	O	-0.334699	-0.000069	0.040161
N16	N	-0.321715	-0.000039	-0.151270
C17	C	-0.285546	-0.000038	-0.254035
O18	O	-0.310772	-0.000033	-0.342774
C19	C	-0.226139	-0.000042	-0.252616
C20	C	-0.202899	-0.000042	-0.148433
C21	C	-0.215822	-0.000046	0.058497
C22	C	-0.156417	-0.000044	0.059914
C23	C	-0.120253	-0.000042	-0.042842
C24	C	-0.143494	-0.000040	-0.147016
C25	C	-0.189971	-0.000045	-0.355379
C26	C	-0.130560	-0.000049	-0.353951
C27	C	-0.107320	-0.000049	-0.249769
C28	C	-0.047926	-0.000036	-0.248355
N29	N	-0.024682	-0.000043	-0.144180
C30	C	-0.060846	-0.000045	-0.041423
C31	C	-0.410306	-0.000031	-0.257007
C32	C	-0.469713	-0.000023	-0.258427
C33	C	-0.482634	-0.000032	-0.051486
C34	C	-0.423226	-0.000035	-0.050067
C35	C	-0.387063	-0.000037	-0.152831
C36	C	0.063908	-0.000041	-0.038455
C37	C	0.123319	-0.000037	-0.037046
C38	C	0.136234	-0.000032	-0.243986
C39	C	0.076829	-0.000033	-0.245395
C40	C	0.040667	-0.000040	-0.142620
O41	O	-0.011663	-0.000015	-0.335565
O42	O	-0.035612	-0.000058	0.047302
N43	N	-0.673180	-0.153295	-0.147775
C44	C	-0.711688	-0.561941	-0.070138
C45	C	-0.711691	-0.623861	-0.070130
O46	O	-0.744409	-0.655884	-0.004137
N47	N	-0.673209	-0.654833	-0.147696
C48	C	-0.634718	-0.623881	-0.225267
O49	O	-0.601985	-0.655910	-0.291242
C50	C	-0.634712	-0.561962	-0.225269
C51	C	-0.673201	-0.530994	-0.147706
C52	C	-0.750174	-0.530973	0.007419
C53	C	-0.750171	-0.469057	0.007409
C54	C	-0.711684	-0.438110	-0.070158
C55	C	-0.673199	-0.469078	-0.147716
C56	C	-0.596219	-0.531011	-0.302834
C57	C	-0.596217	-0.469088	-0.302829
C58	C	-0.634705	-0.438120	-0.225266
C59	C	-0.634709	-0.376215	-0.225294
N60	N	-0.673191	-0.345244	-0.147728
C61	C	-0.711679	-0.376191	-0.070160
C62	C	-0.634731	-0.753914	-0.225256
C63	C	-0.634738	-0.815832	-0.225260
C64	C	-0.711711	-0.815808	-0.070122
C65	C	-0.711706	-0.753889	-0.070123
C66	C	-0.673213	-0.722943	-0.147690
C67	C	-0.711671	-0.246164	-0.070188
C68	C	-0.711667	-0.184243	-0.070208
C69	C	-0.634692	-0.184272	-0.225342
C70	C	-0.634698	-0.246188	-0.225327
C71	C	-0.673190	-0.277132	-0.147740
O72	O	-0.602007	-0.344153	-0.291250
O73	O	-0.744400	-0.344154	-0.004187
C74	C	0.222709	-0.000043	-0.138277
C75	C	0.159483	-0.000035	-0.139803
C76	C	-0.676716	-0.000044	0.059808
C77	C	-0.675204	-0.000044	0.185786
N78	N	-0.673224	0.153215	-0.147688
C79	C	-0.669683	-0.000035	-0.355281
C80	C	-0.671195	-0.000031	-0.481259
C81	C	-0.672423	-0.000034	0.416433
C82	C	-0.673968	-0.000039	0.288084
H83	H	-0.404308	-0.000036	0.034767
O84	O	-0.517827	0.000040	0.048262
C85	C	-0.592387	0.051013	0.166794
C86	C	-0.552573	0.050997	0.053786
H87	H	-0.620481	0.092214	0.171308
H88	H	-0.620559	0.009873	0.171297
H89	H	-0.565564	0.050980	0.241484
H90	H	-0.579351	0.051051	-0.020968
H91	H	-0.524399	0.092133	0.049383
H92	H	0.057907	-0.000032	-0.330229
O93	O	0.145988	-0.000013	0.064061
C94	C	0.231776	-0.000048	0.157973
C95	C	0.206183	-0.000061	0.043395
H96	H	0.280447	-0.000100	0.141304
H97	H	0.216943	0.041127	0.208744
H98	H	0.216879	-0.041208	0.208704
H99	H	0.221068	0.041070	-0.007428
H100	H	0.221013	-0.041264	-0.007290
O101	O	-0.597364	-0.154229	-0.300841
C102	C	-0.564565	-0.135311	-0.498516
C103	C	-0.606884	-0.169363	-0.413147
H104	H	-0.572240	-0.147543	-0.589333
H105	H	-0.571177	-0.085731	-0.485284
H106	H	-0.518916	-0.147481	-0.484119
H107	H	-0.652550	-0.157242	-0.427492
H108	H	-0.600223	-0.218935	-0.426399
O109	O	-0.492190	-0.000042	-0.359729
C110	C	-0.473088	0.000002	-0.564834
C111	C	-0.447560	0.000014	-0.450186
H112	H	-0.437017	0.000060	-0.637998
H113	H	-0.500552	-0.041175	-0.570769
H114	H	-0.500602	0.041160	-0.570603
H115	H	-0.420020	-0.041116	-0.444339
H116	H	-0.420129	0.041219	-0.444300
H117	H	-0.743049	-0.841017	-0.006960
O118	O	-0.251028	-0.000071	0.158220
C119	C	-0.348269	-0.000019	0.247791
C120	C	-0.308469	-0.000012	0.134763
H121	H	-0.394718	0.000042	0.228866
H122	H	-0.339814	-0.041195	0.299102
H123	H	-0.339732	0.041139	0.299089
H124	H	-0.316982	-0.041142	0.083374
H125	H	-0.316932	0.041192	0.083538
H126	H	-0.603363	-0.271403	-0.288496
O127	O	-0.212558	0.000067	-0.456560
C128	C	-0.272132	0.051029	-0.578260
C129	C	-0.246585	0.050977	-0.463632
H130	H	-0.299657	0.092179	-0.584005
H131	H	-0.236088	0.051069	-0.651481
H132	H	-0.299595	0.009846	-0.584122
H133	H	-0.219128	0.092153	-0.457659
H134	H	-0.282656	0.050907	-0.390466
H135	H	-0.101118	-0.000053	-0.437636
O136	O	-0.787486	-0.561056	0.082884
C137	C	-0.799163	-0.630971	0.237983
C138	C	-0.756836	-0.596935	0.152602
H139	H	-0.774399	-0.659997	0.294356
H140	H	-0.826655	-0.598218	0.293488
H141	H	-0.827776	-0.659928	0.189248
H142	H	-0.728186	-0.567978	0.201244
H143	H	-0.729383	-0.629720	0.097098
O144	O	0.028868	-0.000017	0.061484
C145	C	0.022338	-0.000048	0.266887
C146	C	0.062086	-0.000068	0.153795
H147	H	0.049179	-0.000101	0.341550
H148	H	-0.005790	0.041130	0.271489
H149	H	-0.005808	-0.041204	0.271342
H150	H	0.090268	0.041061	0.149265
H151	H	0.090175	-0.041273	0.149241
O152	O	-0.749088	-0.276281	0.005022
C153	C	-0.826823	-0.346135	0.029989
C154	C	-0.784470	-0.312077	-0.055303
H155	H	-0.855448	-0.375075	-0.018750
H156	H	-0.802102	-0.375163	0.086440
H157	H	-0.854299	-0.313344	0.085432
H158	H	-0.756984	-0.344825	-0.110821
H159	H	-0.809225	-0.283040	-0.111675
H160	H	-0.380865	-0.000028	-0.340695
H161	H	-0.137501	-0.000047	0.144750
H162	H	0.165690	-0.000027	-0.327648
O163	O	-0.787576	-0.439071	0.082874
C164	C	-0.863940	-0.445606	0.236713
C165	C	-0.821601	-0.479633	0.151321
H166	H	-0.891468	-0.478385	0.292059
H167	H	-0.839208	-0.416636	0.293244
H168	H	-0.892515	-0.416597	0.187990
H169	H	-0.793015	-0.508673	0.199951
H170	H	-0.846368	-0.508565	0.094791
O171	O	-0.749077	-0.154253	0.005253
C172	C	-0.825446	-0.160775	0.159084
C173	C	-0.783105	-0.194809	0.073707
H174	H	-0.852977	-0.193551	0.214435
H175	H	-0.800716	-0.131802	0.215611
H176	H	-0.854019	-0.131771	0.110348
H177	H	-0.754522	-0.223846	0.122350
H178	H	-0.807870	-0.223746	0.017181
H179	H	-0.564878	-0.556217	-0.365992
O180	O	-0.749112	-0.723901	0.005336
C181	C	-0.825483	-0.730430	0.159163
C182	C	-0.783142	-0.764460	0.073779
H183	H	-0.853016	-0.763207	0.214505
H184	H	-0.800752	-0.701461	0.215698
H185	H	-0.854054	-0.701420	0.110432
H186	H	-0.754561	-0.793502	0.122416
H187	H	-0.807908	-0.793391	0.017245
O188	O	-0.597300	-0.845819	-0.300656
C189	C	-0.520975	-0.839291	-0.454576
C190	C	-0.563339	-0.805260	-0.369238
H191	H	-0.493516	-0.806513	-0.510062
H192	H	-0.492337	-0.868263	-0.405922
H193	H	-0.545744	-0.868297	-0.510975
H194	H	-0.538617	-0.776222	-0.312816
H195	H	-0.591978	-0.776326	-0.417962
H196	H	-0.603386	-0.728721	-0.288429
O197	O	-0.558803	-0.439120	-0.378293
C198	C	-0.482431	-0.445684	-0.532115
C199	C	-0.524777	-0.479695	-0.446731
H200	H	-0.454901	-0.478474	-0.587454
H201	H	-0.507157	-0.416713	-0.588654
H202	H	-0.453857	-0.416679	-0.483385
H203	H	-0.553361	-0.508732	-0.495369
H204	H	-0.500015	-0.508629	-0.390194
