data_functionalizedCrystal
_audit_creation_method	'MofGen! by Chris Wilmer'
_symmetry_space_group_name_H-M	'P1'
_symmetry_Int_Tables_number	1
_symmetry_cell_setting	triclinic
loop_
_symmetry_equiv_pos_as_xyz
  x,y,z
_cell_length_a	12.759400
_cell_length_b	19.077105
_cell_length_c	19.076919
_cell_angle_alpha	89.923776
_cell_angle_beta	87.725144
_cell_angle_gamma	87.711168
loop_
_atom_site_label
_atom_site_type_symbol
_atom_site_fract_x
_atom_site_fract_y
_atom_site_fract_z
Zn1	Zn	-0.508276	1.058328	0.440436
Zn2	Zn	-0.677203	1.062987	0.322935
Zn3	Zn	-0.494202	0.945544	0.318229
Zn4	Zn	-0.676569	0.940808	0.435688
O5	O	-0.589062	1.001917	0.379322
O6	O	-0.536840	1.157278	0.428806
O7	O	-0.647302	1.051339	0.223980
O8	O	-0.349051	0.960537	0.334457
O9	O	-0.660950	1.160701	0.342479
O10	O	-0.359391	1.043399	0.424243
O11	O	-0.512852	0.965055	0.220522
O12	O	-0.512238	0.846583	0.329853
O13	O	-0.659870	0.952466	0.534649
O14	O	-0.646223	0.843104	0.416150
O15	O	-0.536225	1.038807	0.538138
O16	O	-0.824137	1.046747	0.337875
O17	O	-0.823671	0.956983	0.420714
C18	C	-0.577635	0.819347	0.371976
C19	C	-0.572772	0.741242	0.368850
C20	C	-0.640344	0.702758	0.412241
C21	C	-0.635761	0.629371	0.409307
C22	C	-0.563612	0.594468	0.362979
C23	C	-0.496033	0.632957	0.319586
C24	C	-0.500611	0.706344	0.322524
C25	C	-0.542424	0.375179	0.349385
C26	C	-0.537853	0.301787	0.346449
C27	C	-0.677581	0.298205	0.436172
C28	C	-0.682157	0.371593	0.439102
C29	C	-0.614574	0.410076	0.395712
N30	N	-0.558928	0.519454	0.359977
N31	N	-0.619253	0.485088	0.398718
C32	C	-0.862026	1.001876	0.379306
C33	C	-0.978807	1.001921	0.379325
C34	C	-1.033882	1.048709	0.336242
C35	C	-1.143610	1.048751	0.336266
C36	C	-1.143177	0.955212	0.422456
C37	C	-1.033452	0.955173	0.422436
C38	C	-0.979237	1.095457	0.293132
C39	C	-1.034313	1.142248	0.250045
C40	C	-1.144041	1.142290	0.250068
C41	C	-1.198693	1.095542	0.293178
C42	C	-0.315035	1.001976	0.379355
C43	C	-0.198260	1.002002	0.379368
C44	C	-0.599547	0.994588	0.562603
C45	C	-0.604015	0.991465	0.640706
C46	C	-0.600535	1.185199	0.386697
C47	C	-0.605424	1.263303	0.389840
C48	C	-0.578545	1.009257	0.196756
C49	C	-0.573790	1.012516	0.118659
C50	C	-0.541742	1.034949	0.679216
C51	C	-0.545935	1.032006	0.752602
C52	C	-0.612408	0.985583	0.787477
C53	C	-0.674683	0.942094	0.748961
C54	C	-0.670484	0.945034	0.675576
C55	C	-0.631866	0.971967	1.006758
C56	C	-0.636063	0.969032	1.080148
C57	C	-0.507313	1.058943	1.083785
C58	C	-0.503124	1.061882	1.010398
C59	C	-0.565395	1.018391	0.971889
N60	N	-0.616698	0.982575	0.862489
N61	N	-0.561099	1.021396	0.896878
H62	H	-0.740911	0.400006	0.476826
H63	H	-0.456614	1.094350	1.115147
H64	H	-0.448998	1.099687	0.982009
Br65	Br	-0.451532	1.097961	0.631894
Br66	Br	-0.716376	0.912942	0.954505
H67	H	-0.988609	0.917075	0.457518
H68	H	-0.495228	1.067417	0.783954
H69	H	-1.288042	1.095585	0.293200
H70	H	-1.187684	0.917151	0.457553
H71	H	-0.479088	0.273372	0.308727
Br72	Br	-0.764891	0.879086	0.796289
H73	H	-0.889891	1.095426	0.293106
H74	H	-0.721182	0.909618	0.644221
Br75	Br	-0.738274	0.750119	0.475114
Br76	Br	-0.727468	0.577145	0.468199
H77	H	-0.989810	1.180314	0.214950
Br78	Br	-0.408898	0.758573	0.263638
Br79	Br	-0.726279	0.906022	1.127478
Br80	Br	-0.769298	0.245976	0.495052
Br81	Br	-0.450699	0.427396	0.290502
Br82	Br	-0.398105	0.585591	0.256717
H83	H	-1.188881	1.180395	0.214990
