data_functionalizedCrystal
_audit_creation_method	'MofGen! by Chris Wilmer'
_symmetry_space_group_name_H-M	'P1'
_symmetry_Int_Tables_number	1
_symmetry_cell_setting	triclinic
loop_
_symmetry_equiv_pos_as_xyz
  x,y,z
_cell_length_a	12.759401
_cell_length_b	18.050589
_cell_length_c	12.759393
_cell_angle_alpha	89.969329
_cell_angle_beta	89.980163
_cell_angle_gamma	90.029746
loop_
_atom_site_label
_atom_site_type_symbol
_atom_site_fract_x
_atom_site_fract_y
_atom_site_fract_z
Zn1	Zn	1.606156	-0.295585	-0.594027
Zn2	Zn	1.606009	-0.419795	-0.418350
Zn3	Zn	1.430458	-0.295627	-0.418362
Zn4	Zn	1.430405	-0.419741	-0.593987
O5	O	1.518257	-0.357687	-0.506182
O6	O	1.753158	-0.312067	-0.570735
O7	O	1.582683	-0.403364	-0.271331
O8	O	1.453849	-0.191697	-0.441686
O9	O	1.753050	-0.403324	-0.441666
O10	O	1.582933	-0.191666	-0.570746
O11	O	1.453706	-0.312139	-0.271339
O12	O	1.283430	-0.312086	-0.441648
O13	O	1.453759	-0.403231	-0.741014
O14	O	1.283391	-0.403272	-0.570679
O15	O	1.582882	-0.312014	-0.741043
O16	O	1.582631	-0.523713	-0.441627
O17	O	1.453616	-0.523673	-0.570667
C18	C	1.245290	-0.357678	-0.506161
C19	C	1.128513	-0.357692	-0.506177
C20	C	1.073659	-0.405245	-0.573257
C21	C	0.963935	-0.405248	-0.573278
C22	C	0.963930	-0.310143	-0.439129
C23	C	1.073652	-0.310137	-0.439114
C24	C	1.518131	-0.550639	-0.506164
C25	C	1.518172	-0.633185	-0.506192
C26	C	1.448083	-0.832641	-0.576339
C27	C	1.422469	-0.882090	-0.480470
C28	C	1.518276	-0.784315	-0.506206
C29	C	1.543941	-0.881948	-0.602085
C30	C	1.518373	-0.930300	-0.506227
C31	C	1.492611	-0.832677	-0.410286
C32	C	1.614128	-0.832531	-0.531966
C33	C	1.588551	-0.881958	-0.436031
C34	C	1.518217	-0.700217	-0.506194
C35	C	1.518432	-1.014397	-0.506228
C36	C	1.792291	-0.357697	-0.506203
C37	C	1.909067	-0.357701	-0.506212
C38	C	1.518331	-0.357612	-0.780215
C39	C	1.518362	-0.357580	-0.896992
C40	C	1.518413	-0.163981	-0.506222
C41	C	1.518480	-0.081436	-0.506239
C42	C	1.451228	-0.310070	-0.951858
C43	C	1.451253	-0.310047	-1.061582
C44	C	1.585554	-0.405046	-1.061564
C45	C	1.585523	-0.405072	-0.951842
C46	C	1.518245	-0.357708	-0.233214
C47	C	1.518417	-0.357531	-0.116438
H48	H	0.919248	-0.271426	-0.384527
O49	O	1.385931	-0.264047	-0.898459
C50	C	1.244014	-0.254086	-0.774623
C51	C	1.317918	-0.306288	-0.835009
H52	H	1.188992	-0.288217	-0.723326
H53	H	1.292206	-0.215278	-0.723197
H54	H	1.196082	-0.220110	-0.832709
H55	H	1.365866	-0.340312	-0.776999
H56	H	1.269666	-0.345047	-0.886451
O57	O	1.126782	-0.263918	-0.373847
C58	C	1.115208	-0.169556	-0.240836
C59	C	1.054907	-0.221871	-0.314670
H60	H	1.057123	-0.135536	-0.192987
H61	H	1.166502	-0.203567	-0.185742
H62	H	1.166652	-0.130795	-0.289180
H63	H	1.003406	-0.260643	-0.266410
H64	H	1.003679	-0.187813	-0.369766
O65	O	1.650687	-0.451280	-1.114800
C66	C	1.701638	-0.577597	-1.148290
C67	C	1.627789	-0.525324	-1.087959
H68	H	1.683167	-0.637473	-1.126595
H69	H	1.690130	-0.569483	-1.236149
H70	H	1.786351	-0.564525	-1.126734
H71	H	1.543048	-0.538364	-1.109427
H72	H	1.639388	-0.533449	-1.000114
O73	O	1.569677	-0.907681	-0.698885
C74	C	1.524647	-0.911840	-0.882180
C75	C	1.495406	-0.882638	-0.772618
H76	H	1.464603	-0.891618	-0.941820
H77	H	1.605716	-0.890583	-0.904790
H78	H	1.525234	-0.974991	-0.881025
H79	H	1.494759	-0.819490	-0.773690
H80	H	1.414356	-0.903953	-0.750051
O81	O	1.377250	-0.806676	-0.646985
C82	C	1.298402	-0.699264	-0.726704
C83	C	1.378675	-0.728570	-0.646688
H84	H	1.299512	-0.636112	-0.726475
H85	H	1.319433	-0.720322	-0.808261
H86	H	1.216772	-0.719672	-0.704560
H87	H	1.460333	-0.708174	-0.668735
H88	H	1.357554	-0.707518	-0.565153
H89	H	1.396584	-0.271360	-1.106249
O90	O	1.650643	-0.451202	-0.898376
C91	C	1.710151	-0.493311	-0.729330
C92	C	1.636342	-0.441045	-0.789750
H93	H	1.698630	-0.485106	-0.641495
H94	H	1.691654	-0.553205	-0.750806
H95	H	1.794874	-0.480279	-0.750971
H96	H	1.551594	-0.454010	-0.768141
H97	H	1.654929	-0.381167	-0.768269
O98	O	1.126790	-0.451456	-0.638506
C99	C	1.115209	-0.545813	-0.771530
C100	C	1.054912	-0.493505	-0.697702
H101	H	1.057122	-0.579834	-0.819393
H102	H	1.166596	-0.511794	-0.826611
H103	H	1.166559	-0.584572	-0.723180
H104	H	1.003504	-0.454736	-0.745967
H105	H	1.003591	-0.527570	-0.642618
H106	H	0.919277	-0.443969	-0.627904
O107	O	1.325827	-0.908152	-0.454623
C108	C	1.177328	-0.981605	-0.507736
C109	C	1.286777	-0.952159	-0.537119
H110	H	1.145714	-1.017178	-0.574425
H111	H	1.183054	-1.016427	-0.433392
H112	H	1.122155	-0.932958	-0.493658
H113	H	1.342010	-1.000761	-0.551251
H114	H	1.280968	-0.917315	-0.611434
O115	O	1.466615	-0.806847	-0.313609
C116	C	1.437461	-0.699583	-0.205121
C117	C	1.466896	-0.728737	-0.314657
H118	H	1.437701	-0.636428	-0.205926
H119	H	1.356020	-0.720386	-0.183010
H120	H	1.496951	-0.720360	-0.145308
H121	H	1.407477	-0.707972	-0.374543
H122	H	1.548364	-0.707941	-0.336679
H123	H	1.647952	-0.903475	-0.376662
O124	O	1.710722	-0.806571	-0.558169
C125	C	1.846965	-0.802214	-0.688860
C126	C	1.737555	-0.831649	-0.659312
H127	H	1.868703	-0.822490	-0.770626
H128	H	1.846199	-0.739062	-0.687912
H129	H	1.907029	-0.823340	-0.629872
H130	H	1.677430	-0.810578	-0.718272
H131	H	1.738408	-0.894800	-0.660227
