data_functionalizedCrystal
_audit_creation_method	'MofGen! by Chris Wilmer'
_symmetry_space_group_name_H-M	'P1'
_symmetry_Int_Tables_number	1
_symmetry_cell_setting	triclinic
loop_
_symmetry_equiv_pos_as_xyz
  x,y,z
_cell_length_a	13.033293
_cell_length_b	25.639240
_cell_length_c	13.032268
_cell_angle_alpha	82.852470
_cell_angle_beta	90.920818
_cell_angle_gamma	97.201789
loop_
_atom_site_label
_atom_site_type_symbol
_atom_site_fract_x
_atom_site_fract_y
_atom_site_fract_z
Zn1	Zn	1.498381	-0.162669	0.781477
Zn2	Zn	1.520086	-0.237807	0.609502
Zn3	Zn	1.348243	-0.159908	0.587653
Zn4	Zn	1.326326	-0.259604	0.759541
O5	O	1.423259	-0.204997	0.684543
O6	O	1.645183	-0.164670	0.776989
O7	O	1.515547	-0.217197	0.462696
O8	O	1.368247	-0.087106	0.613401
O9	O	1.661130	-0.219874	0.650639
O10	O	1.478553	-0.089135	0.755803
O11	O	1.389294	-0.159964	0.446643
O12	O	1.201413	-0.181099	0.592130
O13	O	1.330894	-0.257023	0.906359
O14	O	1.185311	-0.254345	0.718416
O15	O	1.457302	-0.185805	0.922476
O16	O	1.494295	-0.313867	0.629369
O17	O	1.351940	-0.329881	0.739602
C18	C	1.156044	-0.219788	0.650522
C19	C	1.041725	-0.226130	0.635992
C20	C	0.982856	-0.201700	0.692127
C21	C	0.864701	-0.208255	0.677111
C22	C	1.423120	-0.340846	0.684502
C23	C	1.423150	-0.398960	0.684530
C24	C	1.480681	-0.651157	0.758759
C25	C	1.480651	-0.596554	0.758747
O26	O	1.529452	-0.569175	0.821809
N27	N	1.423261	-0.568228	0.684557
C28	C	1.365906	-0.594508	0.610368
O29	O	1.317089	-0.565400	0.547263
C30	C	1.365942	-0.649109	0.610376
C31	C	1.423327	-0.677433	0.684577
C32	C	1.538062	-0.679481	0.832953
C33	C	1.538091	-0.734081	0.832965
C34	C	1.480737	-0.760356	0.758784
C35	C	1.423356	-0.732033	0.684590
C36	C	1.308593	-0.675387	0.536184
C37	C	1.308635	-0.729992	0.536198
C38	C	1.366020	-0.758316	0.610398
C39	C	1.366030	-0.812908	0.610421
N40	N	1.423420	-0.841234	0.684610
C41	C	1.480774	-0.814958	0.758792
C42	C	1.365835	-0.479841	0.610356
C43	C	1.365792	-0.425241	0.610352
C44	C	1.480539	-0.427291	0.758729
C45	C	1.480575	-0.481893	0.758737
C46	C	1.423225	-0.508166	0.684545
C47	C	1.480828	-0.929621	0.758813
C48	C	1.480847	-0.984226	0.758822
C49	C	1.366105	-0.982170	0.610441
C50	C	1.366081	-0.927571	0.610435
C51	C	1.423450	-0.901297	0.684626
O52	O	1.317258	-0.840321	0.547388
O53	O	1.529593	-0.844070	0.821878
C54	C	1.691517	-0.190149	0.718698
C55	C	1.805833	-0.183821	0.733252
C56	C	1.389232	-0.224153	0.952775
C57	C	1.374731	-0.232316	1.067079
C58	C	1.423424	-0.068618	0.684611
C59	C	1.423494	-0.010501	0.684640
C60	C	1.457213	-0.185875	0.417363
C61	C	1.471913	-0.177553	0.303085
C62	C	1.430811	-0.200719	1.126013
C63	C	1.415825	-0.209155	1.244152
H64	H	0.842901	-0.158049	0.792427
H65	H	1.319051	-0.402184	0.549940
H66	H	1.531017	-0.144251	1.266084
H67	H	1.527241	-0.405887	0.819131
H68	H	0.827633	-0.234023	0.617929
H69	H	1.004652	-0.251897	0.576815
H70	H	1.527575	-1.007285	0.819251
H71	H	1.315619	-0.265611	1.104084
H72	H	1.356709	-0.242452	1.281153
H73	H	1.019929	-0.175931	0.751298
H74	H	1.527299	-0.504951	0.819162
H75	H	1.527544	-0.908235	0.819225
H76	H	1.584828	-0.757136	0.893380
H77	H	1.584771	-0.658092	0.893360
H78	H	1.319340	-0.904510	0.550024
H79	H	1.319123	-0.501230	0.549942
H80	H	1.261866	-0.652333	0.475762
H81	H	1.261933	-0.751381	0.475779
H82	H	1.319406	-1.003574	0.550047
H83	H	1.489913	-0.167420	1.089006
