data_functionalizedCrystal
_audit_creation_method	'MofGen! by Chris Wilmer'
_symmetry_space_group_name_H-M	'P1'
_symmetry_Int_Tables_number	1
_symmetry_cell_setting	triclinic
loop_
_symmetry_equiv_pos_as_xyz
  x,y,z
_cell_length_a	14.044220
_cell_length_b	14.044220
_cell_length_c	12.503572
_cell_angle_alpha	93.843168
_cell_angle_beta	86.164750
_cell_angle_gamma	93.188878
loop_
_atom_site_label
_atom_site_type_symbol
_atom_site_fract_x
_atom_site_fract_y
_atom_site_fract_z
O1	O	1.282200	0.225116	-0.089210
O2	O	1.005530	0.216809	-0.089237
O3	O	1.139712	0.082627	-0.089213
O4	O	1.148019	0.359298	-0.089234
O5	O	1.129622	0.092737	0.089427
O6	O	0.995440	0.226918	0.089403
O7	O	1.272110	0.235226	0.089430
Cu8	Cu	1.132854	0.231995	0.105728
Cu9	Cu	1.144786	0.220040	-0.105535
O10	O	1.137929	0.369407	0.089406
C11	C	0.964864	0.218228	0.000080
C12	C	0.858721	0.207383	0.000070
C13	C	0.664382	0.187558	0.000092
C14	C	0.613253	0.264472	0.000091
C15	C	0.505116	0.253441	0.000104
C16	C	0.772529	0.198587	0.000080
C17	C	1.131031	0.052060	0.000107
C18	C	1.120187	-0.054082	0.000107
C19	C	1.100361	-0.248421	0.000090
C20	C	1.177275	-0.299551	0.000094
C21	C	1.166244	-0.407687	0.000084
C22	C	1.111391	-0.140274	0.000099
C23	C	1.312777	0.233807	0.000111
C24	C	1.418920	0.244651	0.000114
C25	C	1.146609	0.399974	0.000084
C26	C	1.157454	0.506117	0.000077
N27	N	1.124469	0.240404	0.254319
N28	N	1.153179	0.211624	-0.254126
C29	C	1.112134	0.252782	0.473432
C30	C	1.165511	0.199249	0.526768
C31	C	1.158648	0.206136	0.648690
C32	C	1.118996	0.245896	0.351499
H33	H	0.650692	0.338605	0.000081
C34	C	0.613813	0.087412	0.000094
C35	C	0.504105	0.076381	0.000098
C36	C	0.453522	-0.023764	0.000094
C37	C	0.512647	-0.112876	0.000086
C38	C	0.622361	-0.101847	0.000082
C39	C	0.672944	-0.001703	0.000086
H40	H	0.460331	0.142350	0.000104
H41	H	0.372304	-0.031928	0.000097
H42	H	0.475202	-0.187009	0.000083
H43	H	0.666135	-0.167816	0.000077
H44	H	0.754162	0.006461	0.000084
H45	H	1.216364	0.148245	0.480864
C46	C	1.000216	-0.298991	0.000078
C47	C	0.989185	-0.408700	0.000070
C48	C	0.889041	-0.459283	0.000060
C49	C	0.799929	-0.400159	0.000057
C50	C	0.810958	-0.290444	0.000065
C51	C	0.911102	-0.239861	0.000075
H52	H	1.055153	-0.452473	0.000072
H53	H	0.880878	-0.540502	0.000054
H54	H	0.725797	-0.437604	0.000050
H55	H	0.744990	-0.246671	0.000063
H56	H	0.919265	-0.158642	0.000081
C57	C	1.043445	0.321690	0.535433
C58	C	1.035911	0.327895	0.659114
C59	C	0.967227	0.396806	0.721130
C60	C	0.906076	0.459512	0.659464
C61	C	0.913607	0.453310	0.535776
C62	C	0.982292	0.384399	0.473760
H63	H	1.081180	0.281474	0.704769
H64	H	0.961651	0.401397	0.812692
H65	H	0.855231	0.510524	0.705372
H66	H	0.868338	0.499731	0.490121
H67	H	0.987867	0.379808	0.382198
H68	H	1.251413	-0.262115	0.000029
