data_functionalizedCrystal
_audit_creation_method	'MofGen! by Chris Wilmer'
_symmetry_space_group_name_H-M	'P1'
_symmetry_Int_Tables_number	1
_symmetry_cell_setting	triclinic
loop_
_symmetry_equiv_pos_as_xyz
  x,y,z
_cell_length_a	16.109301
_cell_length_b	10.654541
_cell_length_c	15.186229
_cell_angle_alpha	89.996481
_cell_angle_beta	89.999362
_cell_angle_gamma	83.972705
loop_
_atom_site_label
_atom_site_type_symbol
_atom_site_fract_x
_atom_site_fract_y
_atom_site_fract_z
O1	O	1.104089	0.161419	-0.073172
O2	O	0.862147	0.181508	-0.073186
O3	O	0.988682	-0.011352	-0.073174
O4	O	0.977554	0.354278	-0.073185
O5	O	0.988673	-0.011354	0.073284
O6	O	0.862138	0.181505	0.073271
O7	O	1.104081	0.161416	0.073285
Zn8	Zn	0.983108	0.171460	0.096531
Zn9	Zn	0.983119	0.171464	-0.096433
O10	O	0.977546	0.354276	0.073272
C11	C	0.831163	0.180692	0.000040
C12	C	0.738853	0.178253	0.000035
C13	C	0.517227	0.287019	0.000042
C14	C	0.430493	0.284717	0.000048
C15	C	0.449008	0.055896	0.000051
C16	C	0.535740	0.058200	0.000052
C17	C	0.569847	0.173765	0.000043
C18	C	0.396381	0.169159	0.000048
C19	C	0.302340	0.166662	0.000054
C20	C	0.663894	0.176262	0.000038
C21	C	0.987861	-0.058140	0.000054
C22	C	0.985418	-0.197550	0.000053
C23	C	1.136725	-0.227574	0.000073
C24	C	1.211227	-0.308079	0.000084
C25	C	1.208926	-0.439066	0.000081
C26	C	1.132115	-0.489549	0.000064
C27	C	1.057613	-0.409044	0.000053
C28	C	1.059922	-0.278056	0.000058
C29	C	0.906308	-0.379021	0.000026
C30	C	0.908607	-0.248034	0.000036
C31	C	0.829496	-0.429504	0.000009
C32	C	0.754992	-0.348998	0.000004
C33	C	0.757296	-0.218004	0.000008
C34	C	0.834104	-0.167529	0.000024
C35	C	1.135065	0.162231	0.000056
C36	C	1.227375	0.164671	0.000055
C37	C	0.978367	0.401064	0.000042
C38	C	0.980810	0.540474	0.000038
N39	N	0.983107	0.171457	0.228224
N40	N	0.983128	0.171457	-0.228125
C41	C	1.039156	0.086088	0.453952
C42	C	1.039158	0.086085	0.546142
C43	C	0.927072	0.256830	0.546140
C44	C	0.927066	0.256826	0.453952
C45	C	0.983113	0.171456	0.407860
C46	C	0.983121	0.171458	0.592238
C47	C	0.983124	0.171455	0.692194
C48	C	0.983110	0.171457	0.307898
H49	H	0.544993	0.381120	0.000041
C50	C	0.372614	0.409297	0.000041
H51	H	0.405351	0.478448	0.000029
H52	H	0.338393	0.413159	0.051113
H53	H	0.338396	0.413153	-0.051039
C54	C	0.865424	0.350743	0.403243
H55	H	0.873444	0.338505	0.341739
H56	H	0.874937	0.434561	0.418344
H57	H	0.809856	0.337080	0.418353
C58	C	0.865406	0.350704	0.596839
H59	H	0.832016	0.401527	0.556182
H60	H	0.895591	0.403010	0.632809
H61	H	0.830548	0.305471	0.632793
H62	H	0.421227	-0.038193	0.000064
H63	H	0.696627	-0.152463	-0.000006
C64	C	0.593626	-0.066386	0.000049
H65	H	0.560893	-0.135543	0.000041
H66	H	0.627846	-0.070247	0.051121
H67	H	0.627844	-0.070234	-0.051031
H68	H	1.138606	-0.120919	0.000087
H69	H	1.084791	0.016573	0.416427
H70	H	1.273765	-0.266961	0.000106
C71	C	1.129585	-0.633631	0.000055
H72	H	1.184956	-0.674346	0.000066
H73	H	1.101128	-0.657711	-0.051023
H74	H	1.101119	-0.657727	0.051130
C75	C	0.826964	-0.573585	0.000008
H76	H	0.882335	-0.614303	0.000027
H77	H	0.798511	-0.597674	-0.051068
H78	H	0.798494	-0.597670	0.051084
C79	C	0.670512	-0.404532	-0.000014
H80	H	0.679812	-0.494072	-0.000014
H81	H	0.639808	-0.376887	-0.051088
H82	H	0.639800	-0.376913	0.051064
C83	C	0.836638	-0.023448	0.000028
H84	H	0.781268	0.017272	0.000023
H85	H	0.865111	0.000643	-0.051038
H86	H	0.865089	0.000633	0.051114
C87	C	1.100809	-0.007816	0.596839
H88	H	1.134188	-0.058650	0.556183
H89	H	1.070608	-0.060109	0.632807
H90	H	1.135679	0.037386	0.632795
H91	H	1.269593	-0.504614	0.000084
