data_functionalizedCrystal
_audit_creation_method	'MofGen! by Chris Wilmer'
_symmetry_space_group_name_H-M	'P1'
_symmetry_Int_Tables_number	1
_symmetry_cell_setting	triclinic
loop_
_symmetry_equiv_pos_as_xyz
  x,y,z
_cell_length_a	15.944551
_cell_length_b	16.053802
_cell_length_c	16.992695
_cell_angle_alpha	92.741074
_cell_angle_beta	87.083481
_cell_angle_gamma	87.423060
loop_
_atom_site_label
_atom_site_type_symbol
_atom_site_fract_x
_atom_site_fract_y
_atom_site_fract_z
O1	O	1.124624	-0.069342	0.097830
O2	O	1.624624	0.430658	0.597830
O3	O	0.880912	-0.069363	0.110297
O4	O	1.380912	0.430637	0.610297
O5	O	1.001791	-0.069346	-0.010079
O6	O	1.501791	0.430654	0.489921
O7	O	1.003745	-0.069359	0.218206
O8	O	1.503745	0.430641	0.718206
O9	O	0.995135	0.069512	-0.003480
O10	O	1.495135	0.569512	0.496520
O11	O	0.874256	0.069495	0.116896
O12	O	1.374256	0.569495	0.616896
O13	O	1.117969	0.069516	0.104429
O14	O	1.617969	0.569516	0.604429
Zn15	Zn	0.995056	0.091552	0.111710
Zn16	Zn	1.495056	0.591552	0.611710
Zn17	Zn	1.003825	-0.091399	0.103016
Zn18	Zn	1.503825	0.408601	0.603016
O19	O	0.997090	0.069499	0.224805
O20	O	1.497090	0.569499	0.724805
C21	C	0.846256	0.000063	0.113079
C22	C	1.346256	0.500063	0.613079
C23	C	0.752906	0.000055	0.111527
C24	C	1.252906	0.500055	0.611527
N25	N	0.989078	0.216411	0.117643
N26	N	1.489078	0.716411	0.617643
N27	N	1.009809	-0.216259	0.097077
N28	N	1.509809	0.283741	0.597077
C29	C	0.532795	0.000076	0.033203
C30	C	1.032795	0.500076	0.533203
C31	C	0.477496	-0.068390	0.066321
C32	C	0.977496	0.431610	0.566321
C33	C	0.581991	0.000065	0.108720
C34	C	1.081991	0.500065	0.608720
C35	C	0.470958	0.068513	0.072845
C36	C	0.970958	0.568513	0.572845
C37	C	0.416896	0.000079	0.106003
C38	C	0.916896	0.500079	0.606003
C39	C	0.527924	-0.068457	0.141855
C40	C	1.027924	0.431543	0.641855
C41	C	0.521389	0.068507	0.148371
C42	C	1.021389	0.568507	0.648371
C43	C	0.466111	0.000024	0.181543
C44	C	0.966111	0.500024	0.681543
C45	C	0.677099	0.000057	0.110283
C46	C	1.177099	0.500057	0.610283
C47	C	0.321790	0.000081	0.104446
C48	C	0.821790	0.500081	0.604446
C49	C	1.152625	0.000087	0.101647
C50	C	1.652625	0.500087	0.601647
C51	C	1.245975	0.000090	0.103199
C52	C	1.745975	0.500090	0.603199
C53	C	0.995949	0.000083	-0.035992
C54	C	1.495949	0.500083	0.464008
C55	C	0.988449	0.000082	-0.123037
C56	C	1.488449	0.500082	0.376963
C57	C	1.040533	0.260113	0.066441
C58	C	1.540533	0.760113	0.566441
C59	C	1.036359	0.347519	0.070598
C60	C	1.536359	0.847519	0.570598
C61	C	0.980734	0.391222	0.125962
C62	C	1.480734	0.891222	0.625962
C63	C	0.929273	0.347515	0.177166
C64	C	1.429273	0.847515	0.677166
C65	C	0.933443	0.260110	0.173004
C66	C	1.433443	0.760110	0.673004
C67	C	0.962518	0.652629	0.144119
C68	C	1.462518	1.152629	0.644119
C69	C	0.958354	0.740040	0.148279
C70	C	1.458354	1.240040	0.648279
C71	C	1.065439	0.740038	0.041710
C72	C	1.565439	1.240038	0.541710
C73	C	1.069608	0.652632	0.037556
C74	C	1.569608	1.152632	0.537556
C75	C	1.018144	0.608932	0.088757
C76	C	1.518144	1.108932	0.588757
N77	N	0.976469	0.480565	0.130215
N78	N	1.476469	0.980565	0.630215
N79	N	1.022406	0.519590	0.084500
N80	N	1.522406	1.019590	0.584500
C81	C	1.060814	0.000089	-0.173273
C82	C	1.560814	0.500089	0.326727
C83	C	1.053762	0.000080	-0.255060
C84	C	1.553762	0.500080	0.244940
C85	C	0.974345	0.000071	-0.286610
C86	C	1.474345	0.500071	0.213390
C87	C	0.901975	0.000061	-0.236367
C88	C	1.401975	0.500061	0.263633
C89	C	0.909028	0.000064	-0.154581
C90	C	1.409028	0.500064	0.345419
C91	C	0.945114	0.000057	-0.530210
C92	C	1.445114	0.500057	-0.030210
C93	C	0.938067	0.000057	-0.612001
C94	C	1.438067	0.500057	-0.112001
C95	C	1.089855	0.000074	-0.630689
C96	C	1.589855	0.500074	-0.130689
C97	C	1.096901	0.000082	-0.548901
C98	C	1.596901	0.500082	-0.048901
C99	C	1.024531	0.000068	-0.498666
C100	C	1.524531	0.500068	0.001334
N101	N	0.967135	0.000065	-0.370209
N102	N	1.467135	0.500065	0.129791
N103	N	1.031742	0.000068	-0.415068
N104	N	1.531742	0.500068	0.084932
C105	C	1.002931	0.000068	0.250718
C106	C	1.502931	0.500068	0.750718
C107	C	1.010432	0.000064	0.337762
C108	C	1.510432	0.500064	0.837762
H109	H	0.561929	-0.000005	-0.029473
H110	H	1.061929	0.499995	0.470527
H111	H	0.552830	-0.126404	0.171018
H112	H	1.052830	0.373596	0.671018
H113	H	0.873392	0.000062	-0.637684
H114	H	1.373392	0.500062	-0.137684
H115	H	0.886185	0.000045	-0.489317
H116	H	1.386185	0.500045	0.010683
N117	N	1.163774	0.000098	-0.682003
N118	N	1.663774	0.500098	-0.182003
N119	N	1.173969	0.058633	-0.726946
N120	N	1.673969	0.558633	-0.226946
H121	H	1.226177	0.058649	-0.763186
H122	H	1.726177	0.558649	-0.263186
N123	N	1.127692	0.000099	-0.306360
N124	N	1.627692	0.500099	0.193640
N125	N	1.176484	0.058641	-0.300701
N126	N	1.676484	0.558641	0.199299
H127	H	1.228702	0.058654	-0.336929
H128	H	1.728702	0.558654	0.163071
N129	N	0.835117	0.000068	-0.103252
N130	N	1.335117	0.500068	0.396748
N131	N	0.841424	0.000071	-0.030231
N132	N	1.341424	0.500071	0.469769
H133	H	0.789223	0.000072	0.006022
H134	H	1.289223	0.500072	0.506022
N135	N	1.178019	0.000099	-0.516667
N136	N	1.678019	0.500099	-0.016667
N137	N	1.196078	0.058638	-0.470340
N138	N	1.696078	0.558638	0.029660
H139	H	1.253369	0.058655	-0.447574
H140	H	1.753369	0.558655	0.052426
N141	N	0.820844	0.000047	-0.268575
N142	N	1.320844	0.500047	0.231425
N143	N	0.773619	-0.058487	-0.255958
N144	N	1.273619	0.441513	0.244042
H145	H	0.716317	-0.058494	-0.278701
H146	H	1.216317	0.441506	0.221299
H147	H	0.883977	0.383103	0.222242
H148	H	1.383977	0.883103	0.722242
H149	H	0.458018	-0.126270	0.031630
H150	H	0.958018	0.373730	0.531630
N151	N	0.880873	0.215481	0.225309
N152	N	1.380873	0.715481	0.725309
N153	N	0.831210	0.254509	0.274737
N154	N	1.331210	0.754509	0.774737
H155	H	0.794078	0.222991	0.311677
H156	H	1.294078	0.722991	0.811677
N157	N	1.141944	0.000110	-0.141063
N158	N	1.641944	0.500110	0.358937
N159	N	1.206548	0.000117	-0.185930
N160	N	1.706548	0.500117	0.314070
H161	H	1.263849	0.000131	-0.163184
H162	H	1.763849	0.500131	0.336816
N163	N	0.901526	0.784696	0.204822
N164	N	1.401526	1.284696	0.704822
N165	N	0.897816	0.862735	0.208529
N166	N	1.397816	1.362735	0.708529
H167	H	0.857685	0.894276	0.248460
H168	H	1.357685	1.394276	0.748460
N169	N	0.429801	-0.000033	0.260245
N170	N	0.929801	0.499967	0.760245
N171	N	0.447389	-0.058873	0.303043
N172	N	0.947389	0.441127	0.803043
H173	H	0.421745	-0.058917	0.358626
H174	H	0.921745	0.441083	0.858626
H175	H	0.445954	0.126394	0.043641
H176	H	0.945954	0.626394	0.543641
H177	H	0.540886	0.126390	0.183036
H178	H	1.040886	0.626390	0.683036
H179	H	1.085833	0.224535	0.021361
H180	H	1.585833	0.724535	0.521361
N181	N	1.088910	0.392136	0.018269
N182	N	1.588910	0.892136	0.518269
N183	N	1.083349	0.382355	-0.054668
N184	N	1.583349	0.882355	0.445332
H185	H	1.120463	0.413858	-0.091637
H186	H	1.620463	0.913858	0.408363
N187	N	1.126585	0.608005	-0.018868
N188	N	1.626585	1.108005	0.481132
N189	N	1.172625	0.647035	-0.064492
N190	N	1.672625	1.147035	0.435508
H191	H	1.212925	0.615519	-0.104291
H192	H	1.712925	1.115519	0.395709
N193	N	1.118000	0.784689	-0.010582
N194	N	1.618000	1.284689	0.489418
N195	N	1.114273	0.862728	-0.006862
N196	N	1.614273	1.362728	0.493138
H197	H	1.151394	0.894265	-0.043796
H198	H	1.651394	1.394265	0.456204
N199	N	0.909941	0.608012	0.196421
N200	N	1.409941	1.108012	0.696421
N201	N	0.860281	0.647046	0.245848
N202	N	1.360281	1.147046	0.745848
H203	H	0.823144	0.615532	0.282789
H204	H	1.323144	1.115532	0.782789
