data_functionalizedCrystal
_audit_creation_method	'MofGen! by Chris Wilmer'
_symmetry_space_group_name_H-M	'P1'
_symmetry_Int_Tables_number	1
_symmetry_cell_setting	triclinic
loop_
_symmetry_equiv_pos_as_xyz
  x,y,z
_cell_length_a	14.044220
_cell_length_b	11.792241
_cell_length_c	10.268362
_cell_angle_alpha	90.005428
_cell_angle_beta	89.999567
_cell_angle_gamma	88.691147
loop_
_atom_site_label
_atom_site_type_symbol
_atom_site_fract_x
_atom_site_fract_y
_atom_site_fract_z
O1	O	-1.259114	-0.273771	-0.108163
O2	O	-1.009114	-0.023771	0.141837
O3	O	-0.759114	0.226229	0.391837
O4	O	-0.509114	0.476229	0.641837
O5	O	-0.983094	-0.263892	-0.108196
O6	O	-0.733094	-0.013892	0.141804
O7	O	-0.483094	0.236108	0.391804
O8	O	-0.233094	0.486108	0.641804
O9	O	-1.127802	-0.104289	-0.108169
O10	O	-0.877802	0.145711	0.141831
O11	O	-0.627802	0.395711	0.391831
O12	O	-0.377802	0.645711	0.641831
O13	O	-1.114405	-0.433373	-0.108189
O14	O	-0.864405	-0.183373	0.141811
O15	O	-0.614405	0.066627	0.391811
O16	O	-0.364405	0.316627	0.641811
O17	O	-1.127789	-0.104281	0.108431
O18	O	-0.877789	0.145719	0.358431
O19	O	-0.627789	0.395719	0.608431
O20	O	-0.377789	0.645719	0.858431
O21	O	-0.983081	-0.263883	0.108405
O22	O	-0.733081	-0.013883	0.358405
O23	O	-0.483081	0.236117	0.608405
O24	O	-0.233081	0.486117	0.858405
O25	O	-1.259101	-0.273762	0.108438
O26	O	-1.009101	-0.023762	0.358438
O27	O	-0.759101	0.226238	0.608438
O28	O	-0.509101	0.476238	0.858438
Cu29	Cu	-1.121090	-0.268822	0.128199
Cu30	Cu	-0.871090	-0.018822	0.378199
Cu31	Cu	-0.621090	0.231178	0.628199
Cu32	Cu	-0.371090	0.481178	0.878199
Cu33	Cu	-1.121105	-0.268832	-0.127957
Cu34	Cu	-0.871105	-0.018832	0.122043
Cu35	Cu	-0.621105	0.231168	0.372043
Cu36	Cu	-0.371105	0.481168	0.622043
O37	O	-1.114393	-0.433365	0.108411
O38	O	-0.864393	-0.183365	0.358411
O39	O	-0.614393	0.066635	0.608411
O40	O	-0.364393	0.316635	0.858411
C41	C	-0.947751	-0.259563	0.000100
C42	C	-0.697751	-0.009563	0.250100
C43	C	-0.447751	0.240437	0.500100
C44	C	-0.197751	0.490437	0.750100
C45	C	-0.842459	-0.246664	0.000088
C46	C	-0.592459	0.003336	0.250088
C47	C	-0.342459	0.253336	0.500088
C48	C	-0.092459	0.503336	0.750088
C49	C	-1.126954	-0.061915	0.000130
C50	C	-0.876954	0.188085	0.250130
C51	C	-0.626954	0.438085	0.500130
C52	C	-0.376954	0.688085	0.750130
C53	C	-1.124435	0.064335	0.000129
C54	C	-0.874435	0.314335	0.250129
C55	C	-0.624435	0.564335	0.500129
C56	C	-0.374435	0.814335	0.750129
C57	C	-1.294444	-0.278091	0.000139
C58	C	-1.044444	-0.028091	0.250139
C59	C	-0.794444	0.221909	0.500139
C60	C	-0.544444	0.471909	0.750139
C61	C	-1.399736	-0.290990	0.000143
C62	C	-1.149736	-0.040990	0.250143
C63	C	-0.899736	0.209010	0.500143
C64	C	-0.649736	0.459010	0.750143
C65	C	-0.649676	-0.223082	0.000115
C66	C	-0.399676	0.026918	0.250115
C67	C	-0.149676	0.276918	0.500115
C68	C	0.100324	0.526918	0.750115
C69	C	-0.592513	-0.314567	0.000115
C70	C	-0.342513	-0.064567	0.250115
C71	C	-0.092513	0.185433	0.500115
C72	C	0.157487	0.435433	0.750115
C73	C	-0.485242	-0.301445	0.000130
C74	C	-0.235242	-0.051445	0.250130
C75	C	0.014758	0.198555	0.500130
C76	C	0.264758	0.448555	0.750130
C77	C	-0.756957	-0.236202	0.000100
C78	C	-0.506957	0.013798	0.250100
C79	C	-0.256957	0.263798	0.500100
C80	C	-0.006957	0.513798	0.750100
C81	C	-1.115241	-0.475739	0.000109
C82	C	-0.865241	-0.225739	0.250109
C83	C	-0.615241	0.024261	0.500109
C84	C	-0.365241	0.274261	0.750109
C85	C	-1.117759	-0.601989	0.000102
C86	C	-0.867759	-0.351989	0.250102
C87	C	-0.617759	-0.101989	0.500102
C88	C	-0.367759	0.148011	0.750102
N89	N	-1.121086	-0.268815	0.308365
N90	N	-0.871086	-0.018815	0.558365
N91	N	-0.621086	0.231185	0.808365
N92	N	-0.371086	0.481185	1.058365
C93	C	-1.119804	0.295482	0.000107
C94	C	-0.869804	0.545482	0.250107
C95	C	-0.619804	0.795482	0.500107
C96	C	-0.369804	1.045482	0.750107
C97	C	-1.122377	0.166855	0.000119
C98	C	-0.872377	0.416855	0.250119
C99	C	-0.622377	0.666855	0.500119
C100	C	-0.372377	0.916855	0.750119
N101	N	-1.121116	-0.268831	-0.308123
N102	N	-0.871116	-0.018831	-0.058123
N103	N	-0.621116	0.231169	0.191877
N104	N	-0.371116	0.481169	0.441877
C105	C	-1.121100	-0.268829	0.574035
C106	C	-0.871100	-0.018829	0.824035
C107	C	-0.621100	0.231171	1.074035
C108	C	-0.371100	0.481171	1.324035
C109	C	-1.121089	-0.268824	0.426197
C110	C	-0.871089	-0.018824	0.676197
C111	C	-0.621089	0.231176	0.926197
C112	C	-0.371089	0.481176	1.176197
H113	H	-0.624137	-0.402744	0.000104
H114	H	-0.374137	-0.152744	0.250104
H115	H	-0.124137	0.097256	0.500104
H116	H	0.125863	0.347256	0.750104
F117	F	-0.608344	-0.107835	0.000126
F118	F	-0.358344	0.142165	0.250126
F119	F	-0.108344	0.392165	0.500126
F120	F	0.141656	0.642165	0.750126
