data_functionalizedCrystal
_audit_creation_method	'MofGen! by Chris Wilmer'
_symmetry_space_group_name_H-M	'P1'
_symmetry_Int_Tables_number	1
_symmetry_cell_setting	triclinic
loop_
_symmetry_equiv_pos_as_xyz
  x,y,z
_cell_length_a	17.699077
_cell_length_b	11.026607
_cell_length_c	16.176319
_cell_angle_alpha	90.000905
_cell_angle_beta	90.005422
_cell_angle_gamma	95.933297
loop_
_atom_site_label
_atom_site_type_symbol
_atom_site_fract_x
_atom_site_fract_y
_atom_site_fract_z
O1	O	1.025151	0.153358	0.068733
O2	O	1.525151	0.653358	0.568733
O3	O	0.807515	0.173323	0.068737
O4	O	1.307515	0.673323	0.568737
O5	O	0.898296	-0.013259	0.068732
O6	O	1.398296	0.486741	0.568732
O7	O	0.934370	0.339940	0.068738
O8	O	1.434370	0.839940	0.568738
O9	O	0.898282	-0.013259	-0.068761
O10	O	1.398282	0.486741	0.431239
O11	O	0.807501	0.173323	-0.068756
O12	O	1.307501	0.673323	0.431244
O13	O	1.025137	0.153358	-0.068760
O14	O	1.525137	0.653358	0.431240
Cu15	Cu	0.916318	0.163340	-0.081312
Cu16	Cu	1.416318	0.663340	0.418688
Cu17	Cu	0.916334	0.163341	0.081289
Cu18	Cu	1.416334	0.663341	0.581289
O19	O	0.934357	0.339940	-0.068756
O20	O	1.434357	0.839940	0.431244
C21	C	0.779213	0.172609	-0.000009
C22	C	1.279213	0.672609	0.499991
C23	C	0.694900	0.170466	-0.000008
C24	C	1.194900	0.670466	0.499992
C25	C	0.655287	0.169457	-0.074956
C26	C	1.155287	0.669457	0.425044
C27	C	0.576065	0.167424	-0.074957
C28	C	1.076065	0.667424	0.425043
C29	C	0.536459	0.166410	-0.000009
C30	C	1.036459	0.666410	0.499991
C31	C	0.576078	0.167416	0.074945
C32	C	1.076078	0.667416	0.574945
C33	C	0.655297	0.169440	0.074946
C34	C	1.155297	0.669440	0.574946
C35	C	0.256593	0.159253	0.074947
C36	C	0.756593	0.659253	0.574947
C37	C	0.177368	0.157233	0.074941
C38	C	0.677368	0.657233	0.574941
C39	C	0.177360	0.157237	-0.074956
C40	C	0.677360	0.657237	0.425044
C41	C	0.256580	0.159261	-0.074956
C42	C	0.756580	0.659261	0.425044
C43	C	0.296192	0.160261	-0.000002
C44	C	0.796192	0.660261	0.499998
C45	C	0.382093	0.162462	-0.000002
C46	C	0.882093	0.662462	0.499998
C47	C	0.450559	0.164217	-0.000008
C48	C	0.950559	0.664217	0.499992
C49	C	0.891634	-0.058450	-0.000013
C50	C	1.391634	0.441550	0.499987
C51	C	0.871794	-0.193105	-0.000010
C52	C	1.371794	0.306895	0.499990
C53	C	0.926574	-0.267074	-0.000010
C54	C	1.426574	0.232926	0.499990
C55	C	0.906070	-0.406247	-0.000006
C56	C	1.406070	0.093753	0.499994
C57	C	1.053439	0.154072	-0.000012
C58	C	1.553439	0.654072	0.499988
C59	C	1.137752	0.156215	-0.000008
C60	C	1.637752	0.656215	0.499992
C61	C	0.941019	0.385131	-0.000008
C62	C	1.441019	0.885131	0.499992
C63	C	0.960858	0.519786	-0.000006
C64	C	1.460858	1.019786	0.499994
N65	N	0.916312	0.163339	-0.195678
N66	N	1.416312	0.663339	0.304322
C67	C	0.972223	0.236819	-0.238938
C68	C	1.472223	0.736819	0.261062
C69	C	0.972230	0.236814	-0.325485
C70	C	1.472230	0.736814	0.174515
C71	C	0.916323	0.163335	-0.368770
C72	C	1.416323	0.663335	0.131230
C73	C	0.860410	0.089847	-0.325504
C74	C	1.360410	0.589847	0.174496
C75	C	0.860406	0.089846	-0.238958
C76	C	1.360406	0.589846	0.261042
C77	C	0.860424	0.089849	-0.674532
C78	C	1.360424	0.589849	-0.174532
C79	C	0.860430	0.089858	-0.761084
C80	C	1.360430	0.589858	-0.261084
C81	C	0.972248	0.236817	-0.761059
C82	C	1.472248	0.736817	-0.261059
C83	C	0.972244	0.236815	-0.674513
C84	C	1.472244	0.736815	-0.174513
C85	C	0.916334	0.163323	-0.631255
C86	C	1.416334	0.663323	-0.131255
C87	C	0.916327	0.163327	-0.537410
C88	C	1.416327	0.663327	-0.037410
C89	C	0.916326	0.163337	-0.462613
C90	C	1.416326	0.663337	0.037387
N91	N	0.916345	0.163332	0.195654
N92	N	1.416345	0.663332	0.695654
H93	H	0.687529	0.170292	-0.135988
H94	H	1.187529	0.670292	0.364012
C95	C	1.033757	0.317649	-0.808651
C96	C	1.533757	0.817649	-0.308651
N97	N	1.080084	0.378532	-0.844496
N98	N	1.580084	0.878532	-0.344496
C99	C	1.010441	-0.213439	-0.000017
C100	C	1.510441	0.286561	0.499983
N101	N	1.073612	-0.173043	-0.000026
N102	N	1.573612	0.326957	0.499974
C103	C	0.822199	-0.459876	-0.000006
C104	C	1.322199	0.040124	0.499994
N105	N	0.759029	-0.500272	-0.000008
N106	N	1.259029	-0.000272	0.499992
C107	C	1.044730	-0.426588	-0.000009
C108	C	1.544730	0.073412	0.499991
N109	N	1.107901	-0.386195	-0.000012
N110	N	1.607901	0.113805	0.499988
H111	H	1.017767	0.296654	-0.639275
H112	H	1.517767	0.796654	-0.139275
H113	H	0.288835	0.160064	0.135979
H114	H	0.788835	0.660064	0.635979
H115	H	0.543814	0.166582	-0.135988
H116	H	1.043814	0.666582	0.364012
H117	H	0.543823	0.166582	0.135970
H118	H	1.043823	0.666582	0.635970
C119	C	0.787927	-0.246740	-0.000010
C120	C	1.287927	0.253260	0.499990
N121	N	0.724756	-0.287135	-0.000012
N122	N	1.224756	0.212865	0.499988
H123	H	1.017745	0.296661	-0.203701
H124	H	1.517745	0.796661	0.296299
H125	H	1.017759	0.296646	-0.360704
H126	H	1.517759	0.796646	0.139296
C127	C	0.798928	0.009017	-0.808696
C128	C	1.298928	0.509017	-0.308696
N129	N	0.752607	-0.051870	-0.844557
N130	N	1.252607	0.448130	-0.344557
C131	C	0.300142	0.160373	-0.157405
C132	C	0.800142	0.660373	0.342595
N133	N	0.332952	0.161205	-0.219507
N134	N	0.832952	0.661205	0.280493
H135	H	0.145099	0.156418	-0.135987
H136	H	0.645099	0.656418	0.364013
C137	C	0.798915	0.009016	-0.626959
C138	C	1.298915	0.509016	-0.126959
N139	N	0.752582	-0.051868	-0.591124
N140	N	1.252582	0.448132	-0.091124
H141	H	0.814892	0.030014	-0.360754
H142	H	1.314892	0.530014	0.139246
H143	H	0.145122	0.156406	0.135977
H144	H	0.645122	0.656406	0.635977
C145	C	0.698872	0.170554	0.157395
C146	C	1.198872	0.670554	0.657395
N147	N	0.731691	0.171389	0.219498
N148	N	1.231691	0.671389	0.719498
C149	C	0.798898	0.009016	-0.191373
C150	C	1.298898	0.509016	0.308627
N151	N	0.752570	-0.051870	-0.155532
N152	N	1.252570	0.448130	0.344468
