data_functionalizedCrystal
_audit_creation_method	'MofGen! by Chris Wilmer'
_symmetry_space_group_name_H-M	'P1'
_symmetry_Int_Tables_number	1
_symmetry_cell_setting	triclinic
loop_
_symmetry_equiv_pos_as_xyz
  x,y,z
_cell_length_a	17.640112
_cell_length_b	25.639239
_cell_length_c	25.639243
_cell_angle_alpha	90.014050
_cell_angle_beta	78.818730
_cell_angle_gamma	101.263838
loop_
_atom_site_label
_atom_site_type_symbol
_atom_site_fract_x
_atom_site_fract_y
_atom_site_fract_z
Zn1	Zn	1.208282	-0.046440	0.134304
Zn2	Zn	1.708282	0.453560	0.634304
Zn3	Zn	1.208171	-0.133866	0.046883
Zn4	Zn	1.708171	0.366134	0.546883
Zn5	Zn	1.076117	-0.064130	0.064526
Zn6	Zn	1.576117	0.435870	0.564526
Zn7	Zn	1.076028	-0.151556	0.151928
Zn8	Zn	1.576028	0.348444	0.651928
O9	O	1.142149	-0.098998	0.099410
O10	O	1.642149	0.401002	0.599410
O11	O	1.318881	-0.043231	0.107947
O12	O	1.818881	0.456769	0.607947
O13	O	1.190645	-0.124616	-0.023941
O14	O	1.690645	0.375384	0.476059
O15	O	1.093732	0.011393	0.073790
O16	O	1.593732	0.511393	0.573790
O17	O	1.318800	-0.107462	0.043719
O18	O	1.818800	0.392538	0.543719
O19	O	1.190833	0.024390	0.125055
O20	O	1.690833	0.524390	0.625055
O21	O	1.093625	-0.073381	-0.010978
O22	O	1.593625	0.426619	0.489022
O23	O	0.965491	-0.090534	0.090880
O24	O	1.465491	0.409466	0.590880
O25	O	1.093581	-0.137612	0.222754
O26	O	1.593581	0.362388	0.722754
O27	O	0.965426	-0.154765	0.155094
O28	O	1.465426	0.345235	0.655094
O29	O	1.190747	-0.060384	0.209806
O30	O	1.690747	0.439616	0.709806
O31	O	1.190559	-0.209389	0.060809
O32	O	1.690559	0.290611	0.560809
O33	O	1.093474	-0.222386	0.137986
O34	O	1.593474	0.277614	0.637986
C35	C	0.936777	-0.126489	0.126815
C36	C	1.436777	0.373511	0.626815
C37	C	0.848918	-0.138262	0.138551
C38	C	1.348918	0.361738	0.638551
C39	C	0.560020	-0.009548	0.010257
C40	C	1.060020	0.490452	0.510257
C41	C	0.477463	-0.020621	0.021292
C42	C	0.977463	0.479379	0.521292
C43	C	0.477450	-0.087598	0.088042
C44	C	0.977450	0.412402	0.588042
C45	C	0.560008	-0.076528	0.077015
C46	C	1.060008	0.423472	0.577015
C47	C	0.601287	-0.037503	0.038121
C48	C	1.101287	0.462497	0.538121
C49	C	0.601275	-0.104483	0.104879
C50	C	1.101275	0.395517	0.604879
C51	C	0.683827	-0.093416	0.093850
C52	C	1.183827	0.406584	0.593850
C53	C	0.725111	-0.054394	0.054957
C54	C	1.225111	0.445606	0.554957
C55	C	0.683839	-0.026436	0.027092
C56	C	1.183839	0.473564	0.527092
C57	C	0.559995	-0.143511	0.143770
C58	C	1.059995	0.356489	0.643770
C59	C	0.601262	-0.171466	0.171634
C60	C	1.101262	0.328534	0.671634
C61	C	0.683815	-0.160396	0.160608
C62	C	1.183815	0.339604	0.660608
C63	C	0.725100	-0.121374	0.121715
C64	C	1.225100	0.378626	0.621715
C65	C	0.725088	-0.188354	0.188473
C66	C	1.225088	0.311646	0.688473
C67	C	0.807639	-0.177287	0.177444
C68	C	1.307639	0.322713	0.677444
C69	C	0.807651	-0.110307	0.110686
C70	C	1.307651	0.389693	0.610686
C71	C	1.142016	-0.234858	0.099404
C72	C	1.642016	0.265142	0.599404
C73	C	1.142032	-0.292970	0.099409
C74	C	1.642032	0.207030	0.599409
C75	C	1.192834	-0.646520	0.059264
C76	C	1.692834	-0.146520	0.559264
C77	C	1.192864	-0.701120	0.059267
C78	C	1.692864	-0.201120	0.559267
O79	O	1.235920	-0.723583	0.025126
O80	O	1.735920	-0.223583	0.525126
N81	N	1.142288	-0.735218	0.099426
N82	N	1.642288	-0.235218	0.599426
C83	C	1.091684	-0.714713	0.139589
C84	C	1.591684	-0.214713	0.639589
O85	O	1.048669	-0.748730	0.173748
O86	O	1.548669	-0.248730	0.673748
C87	C	1.091658	-0.660113	0.139587
C88	C	1.591658	-0.160113	0.639587
C89	C	1.142232	-0.626018	0.099422
C90	C	1.642232	-0.126018	0.599422
C91	C	1.243404	-0.612426	0.019102
C92	C	1.743404	-0.112426	0.519102
C93	C	1.243372	-0.557829	0.019099
C94	C	1.743372	-0.057829	0.519099
C95	C	1.192770	-0.537328	0.059257
C96	C	1.692770	-0.037328	0.559257
C97	C	1.142200	-0.571422	0.099419
C98	C	1.642200	-0.071422	0.599419
C99	C	1.041058	-0.639609	0.179751
C100	C	1.541058	-0.139609	0.679751
C101	C	1.041037	-0.585004	0.179747
C102	C	1.541037	-0.085004	0.679747
C103	C	1.091611	-0.550909	0.139582
C104	C	1.591611	-0.050909	0.639582
C105	C	1.091566	-0.496324	0.139574
C106	C	1.591566	0.003676	0.639574
N107	N	1.142142	-0.462226	0.099414
N108	N	1.642142	0.037774	0.599414
C109	C	1.192744	-0.482728	0.059256
C110	C	1.692744	0.017272	0.559256
C111	C	1.091744	-0.829376	0.139589
C112	C	1.591744	-0.329376	0.639589
C113	C	1.091765	-0.883975	0.139588
C114	C	1.591765	-0.383975	0.639588
C115	C	1.192946	-0.870378	0.059267
C116	C	1.692946	-0.370378	0.559267
C117	C	1.192920	-0.815779	0.059266
C118	C	1.692920	-0.315779	0.559266
C119	C	1.142320	-0.795278	0.099429
C120	C	1.642320	-0.295278	0.599429
C121	C	1.192673	-0.368072	0.059252
C122	C	1.692673	0.131928	0.559252
C123	C	1.192634	-0.313472	0.059251
C124	C	1.692634	0.186528	0.559251
C125	C	1.091456	-0.327073	0.139574
C126	C	1.591456	0.172927	0.639574
C127	C	1.091491	-0.381669	0.139573
C128	C	1.591491	0.118331	0.639573
C129	C	1.142106	-0.402166	0.099410
C130	C	1.642106	0.097834	0.599410
O131	O	1.048535	-0.473824	0.173699
O132	O	1.548535	0.026176	0.673699
O133	O	1.235759	-0.448704	0.025106
O134	O	1.735759	0.051296	0.525106
C135	C	1.348324	-0.071400	0.071899
C136	C	1.848324	0.428600	0.571899
C137	C	1.436183	-0.059639	0.060176
C138	C	1.936183	0.440361	0.560176
C139	C	1.142166	-0.098998	0.235781
C140	C	1.642166	0.401002	0.735781
C141	C	1.142173	-0.098998	0.293894
C142	C	1.642173	0.401002	0.793894
C143	C	1.142304	0.037396	0.099425
C144	C	1.642304	0.537396	0.599425
C145	C	1.142370	0.095519	0.099431
C146	C	1.642370	0.595519	0.599431
C147	C	1.192664	-0.125683	0.538334
C148	C	1.692664	0.374317	1.038334
C149	C	1.192666	-0.125683	0.483729
C150	C	1.692666	0.374317	0.983729
O151	O	1.235605	-0.148384	0.449749
O152	O	1.735605	0.351616	0.949749
N153	N	1.142158	-0.099005	0.463170
N154	N	1.642158	0.400995	0.963170
C155	C	1.091638	-0.072330	0.497219
C156	C	1.591638	0.427670	0.997219
O157	O	1.048677	-0.049639	0.474718
O158	O	1.548677	0.450361	0.974718
C159	C	1.091633	-0.072333	0.551823
C160	C	1.591633	0.427667	1.051823
C161	C	1.142150	-0.099008	0.572379
C162	C	1.642150	0.400992	1.072379
C163	C	1.243177	-0.152356	0.558890
C164	C	1.743177	0.347644	1.058890
C165	C	1.243176	-0.152354	0.613491
C166	C	1.743176	0.347646	1.113491
C167	C	1.192662	-0.125680	0.647535
C168	C	1.692662	0.374320	1.147535
C169	C	1.142149	-0.099006	0.626979
C170	C	1.642149	0.400994	1.126979
C171	C	1.041110	-0.045661	0.585872
C172	C	1.541110	0.454339	1.085872
C173	C	1.041108	-0.045666	0.640479
C174	C	1.541108	0.454334	1.140479
C175	C	1.091626	-0.072341	0.661035
C176	C	1.591626	0.427659	1.161035
C177	C	1.091634	-0.072330	0.715625
C178	C	1.591634	0.427670	1.215625
N179	N	1.142142	-0.099008	0.736184
N180	N	1.642142	0.400992	1.236184
C181	C	1.192656	-0.125682	0.702139
C182	C	1.692656	0.374318	1.202139
C183	C	1.091653	-0.072327	0.382547
C184	C	1.591653	0.427673	0.882547
C185	C	1.091662	-0.072320	0.327943
C186	C	1.591662	0.427680	0.827943
C187	C	1.192689	-0.125675	0.314457
C188	C	1.692689	0.374325	0.814457
C189	C	1.192684	-0.125677	0.369061
C190	C	1.692684	0.374323	0.869061
C191	C	1.142161	-0.099004	0.403106
C192	C	1.642161	0.400996	0.903106
C193	C	1.192650	-0.125677	0.816805
C194	C	1.692650	0.374323	1.316805
C195	C	1.192647	-0.125671	0.871411
C196	C	1.692647	0.374329	1.371411
C197	C	1.091617	-0.072319	0.884893
C198	C	1.591617	0.427681	1.384893
C199	C	1.091623	-0.072323	0.830291
C200	C	1.591623	0.427677	1.330291
C201	C	1.142142	-0.099005	0.796249
C202	C	1.642142	0.400995	1.296249
O203	O	1.048714	-0.049643	0.749637
O204	O	1.548714	0.450357	1.249637
O205	O	1.235603	-0.148376	0.724649
O206	O	1.735603	0.351624	1.224649
C207	C	1.142130	-0.099007	0.963570
C208	C	1.642130	0.400993	1.463570
C209	C	1.142133	-0.098996	0.905456
C210	C	1.642133	0.401004	1.405456
H211	H	0.792330	-0.045385	0.045977
H212	H	1.292330	0.454615	0.545977
N213	N	1.037182	-0.043548	0.305771
N214	N	1.537182	0.456452	0.805771
H215	H	1.069334	-0.015014	0.278834
H216	H	1.569334	0.484986	0.778834
H217	H	1.005193	-0.026682	0.335657
H218	H	1.505193	0.473318	0.835657
H219	H	0.841263	-0.078521	0.079023
H220	H	1.341263	0.421479	0.579023
H221	H	0.567642	-0.203241	0.203300
H222	H	1.067642	0.296759	0.703300
H223	H	0.593632	0.022238	-0.021407
H224	H	1.093632	0.522238	0.478593
H225	H	1.284614	-0.629111	-0.013600
H226	H	1.784614	-0.129111	0.486400
N227	N	1.247469	-0.779006	0.015947
N228	N	1.747469	-0.279006	0.515947
H229	H	1.279526	-0.800285	-0.009491
H230	H	1.779526	-0.300285	0.490509
H231	H	1.284019	-0.751428	0.032370
H232	H	1.784019	-0.251428	0.532370
N233	N	1.036943	-0.418448	0.182891
N234	N	1.536943	0.081552	0.682891
H235	H	1.000349	-0.446038	0.166511
H236	H	1.500349	0.053962	0.666511
H237	H	1.004933	-0.397133	0.208315
H238	H	1.504933	0.102867	0.708315
H239	H	0.841240	-0.200051	0.200135
H240	H	1.341240	0.299949	0.700135
N241	N	1.247526	-0.892496	0.015951
N242	N	1.747526	-0.392496	0.515951
H243	H	1.239866	-0.932258	0.022051
H244	H	1.739866	-0.432258	0.522051
H245	H	1.303966	-0.875355	0.016587
H246	H	1.803966	-0.375355	0.516587
H247	H	1.233817	-0.285713	0.026542
H248	H	1.733817	0.214287	0.526542
H249	H	0.999833	-0.568316	0.212455
H250	H	1.499833	-0.068316	0.712455
N251	N	1.247173	-0.154446	0.277730
N252	N	1.747173	0.345554	0.777730
H253	H	1.239421	-0.150460	0.240033
H254	H	1.739421	0.349540	0.740033
H255	H	1.234903	-0.193427	0.288955
H256	H	1.734903	0.306573	0.788955
H257	H	0.443867	0.002150	-0.001398
H258	H	0.943867	0.502150	0.498602
H259	H	1.233890	-0.384754	0.026548
H260	H	1.733890	0.115246	0.526548
H261	H	0.492776	-0.152520	0.152748
H262	H	0.992776	0.347480	0.652748
N263	N	1.037205	-0.920748	0.182902
N264	N	1.537205	-0.420748	0.682902
H265	H	1.005145	-0.899470	0.208338
H266	H	1.505145	-0.399470	0.708338
H267	H	1.069360	-0.939067	0.202831
H268	H	1.569360	-0.439067	0.702831
N269	N	0.680566	-0.230445	0.230421
N270	N	1.180566	0.269555	0.730421
H271	H	0.694907	-0.265865	0.220317
H272	H	1.194907	0.234135	0.720317
H273	H	0.622021	-0.233170	0.233160
H274	H	1.122021	0.266830	0.733160
N275	N	1.036875	-0.304956	0.182883
N276	N	1.536875	0.195044	0.682883
H277	H	1.044535	-0.265194	0.176784
H278	H	1.544535	0.234806	0.676784
H279	H	1.049142	-0.312833	0.218595
H280	H	1.549142	0.187167	0.718595
H281	H	0.999972	-0.023940	0.569146
H282	H	1.499972	0.476060	1.069146
H283	H	1.284555	-0.530071	-0.013606
H284	H	1.784555	-0.030071	0.486394
N285	N	1.247133	-0.154449	0.893576
N286	N	1.747133	0.345551	1.393576
H287	H	1.214981	-0.182981	0.920514
H288	H	1.714981	0.317019	1.420514
H289	H	1.283783	-0.128262	0.911318
H290	H	1.783783	0.371738	1.411318
H291	H	1.050532	-0.812688	0.172294
H292	H	1.550532	-0.312688	0.672294
H293	H	0.717450	0.005350	-0.004571
H294	H	1.217450	0.505350	0.495429
N295	N	1.037162	-0.043553	0.419265
N296	N	1.537162	0.456447	0.919265
H297	H	1.005171	-0.026654	0.397950
H298	H	1.505171	0.473346	0.897950
H299	H	1.069362	-0.015046	0.437633
H300	H	1.569362	0.484954	0.937633
H301	H	0.443829	-0.119373	0.119708
H302	H	0.943829	0.380627	0.619708
N303	N	0.986521	-0.676370	0.223080
N304	N	1.486521	-0.176370	0.723080
H305	H	0.994209	-0.714073	0.216996
H306	H	1.494209	-0.214073	0.716996
H307	H	0.930070	-0.674425	0.222449
H308	H	1.430070	-0.174425	0.722449
H309	H	1.233793	-0.147400	0.789093
H310	H	1.733793	0.352600	1.289093
H311	H	1.284310	-0.174078	0.630222
H312	H	1.784310	0.325922	1.130222
N313	N	1.297663	-0.181131	0.522175
N314	N	1.797663	0.318869	1.022175
H315	H	1.329655	-0.198026	0.543492
H316	H	1.829655	0.301974	1.043492
H317	H	1.334274	-0.154948	0.494646
H318	H	1.834274	0.345052	0.994646
H319	H	1.233819	-0.147399	0.385793
H320	H	1.733819	0.352601	0.885793
H321	H	0.999966	-0.023945	0.668197
H322	H	1.499966	0.476055	1.168197
H323	H	1.050498	-0.050593	0.813553
H324	H	1.550498	0.449407	1.313553
H325	H	1.050492	-0.050600	0.912621
H326	H	1.550492	0.449400	1.412621
