data_functionalizedCrystal
_audit_creation_method	'MofGen! by Chris Wilmer'
_symmetry_space_group_name_H-M	'P1'
_symmetry_Int_Tables_number	1
_symmetry_cell_setting	triclinic
loop_
_symmetry_equiv_pos_as_xyz
  x,y,z
_cell_length_a	9.065218
_cell_length_b	17.038272
_cell_length_c	7.540329
_cell_angle_alpha	89.996089
_cell_angle_beta	89.996962
_cell_angle_gamma	88.063721
loop_
_atom_site_label
_atom_site_type_symbol
_atom_site_fract_x
_atom_site_fract_y
_atom_site_fract_z
O1	O	1.971909	0.114742	-0.147490
O2	O	1.543568	0.124154	-0.147492
O3	O	1.755192	0.005614	-0.147477
O4	O	1.760284	0.233281	-0.147505
O5	O	1.755179	0.005612	0.147488
O6	O	1.543554	0.124152	0.147473
O7	O	1.971895	0.114740	0.147476
Cu8	Cu	1.757723	0.119446	0.174407
Cu9	Cu	1.757739	0.119448	-0.174424
O10	O	1.760270	0.233280	0.147460
C11	C	1.488484	0.123248	-0.000010
C12	C	1.324369	0.120544	-0.000011
C13	C	1.750555	-0.023549	0.000005
C14	C	1.736739	-0.110441	0.000005
C15	C	1.863587	-0.159639	0.000008
C16	C	1.850596	-0.241284	-0.000009
C17	C	1.710756	-0.273728	-0.000016
C18	C	1.583899	-0.224524	-0.000024
C19	C	1.596891	-0.142881	-0.000020
C20	C	1.664859	-0.519818	-0.000041
C21	C	1.651876	-0.601467	-0.000040
C22	C	1.918575	-0.618221	-0.000028
C23	C	1.931554	-0.536576	-0.000013
C24	C	1.804697	-0.487379	-0.000031
C25	C	1.697475	-0.357182	-0.000028
C26	C	1.817980	-0.403927	-0.000032
C27	C	2.026979	0.115646	-0.000011
C28	C	2.191093	0.118350	-0.000022
C29	C	1.764908	0.262442	-0.000026
C30	C	1.778724	0.349335	-0.000037
N31	N	1.757723	0.119444	0.419755
N32	N	1.757751	0.119443	-0.419772
H33	H	1.953890	-0.281338	-0.000003
H34	H	2.021854	-0.658286	-0.000017
C35	C	1.499909	-0.636543	-0.000159
C36	C	1.391592	-0.575985	-0.000229
C37	C	1.251593	-0.608267	-0.000365
H38	H	1.489074	-0.668037	0.102671
H39	H	1.489246	-0.668019	-0.103064
H40	H	1.402250	-0.544522	0.102666
H41	H	1.402379	-0.544486	-0.103051
H42	H	1.240929	-0.639744	-0.103270
H43	H	1.240772	-0.639761	0.102467
H44	H	1.178082	-0.567184	-0.000428
C45	C	1.527177	-0.466375	-0.000413
C46	C	1.526820	-0.419026	-0.152191
C47	C	1.399994	-0.369791	-0.152606
H48	H	1.526554	-0.434107	0.102326
H49	H	1.442003	-0.497370	-0.000507
H50	H	1.611972	-0.388035	-0.152081
H51	H	1.527421	-0.451274	-0.254954
H52	H	1.314820	-0.400785	-0.152700
H53	H	1.399382	-0.337527	-0.049861
H54	H	1.399729	-0.337663	-0.255593
C55	C	1.458993	-0.089594	0.000066
C56	C	1.333745	-0.135479	0.000105
C57	C	1.206684	-0.086419	0.000197
H58	H	1.458319	-0.057378	-0.102768
H59	H	1.458425	-0.057410	0.102967
H60	H	1.334312	-0.167649	-0.102785
H61	H	1.334369	-0.167693	0.102932
H62	H	1.206116	-0.054236	0.103098
H63	H	1.206025	-0.054206	-0.102639
H64	H	1.121688	-0.117545	0.000240
C65	C	1.969709	-0.368597	-0.000300
C66	C	1.984950	-0.322193	-0.152027
C67	C	2.124695	-0.289618	-0.152315
H68	H	2.043543	-0.409505	-0.000384
H69	H	1.980319	-0.337054	0.102510
H70	H	1.974355	-0.353734	-0.254810
H71	H	1.911149	-0.281272	-0.151975
H72	H	2.135305	-0.258075	-0.049506
H73	H	2.198518	-0.330532	-0.152395
H74	H	2.135049	-0.258124	-0.255251
H75	H	1.583616	-0.383607	-0.000030
H76	H	1.977459	-0.133230	0.000024
H77	H	2.045426	-0.510166	-0.000007
H78	H	1.470038	-0.250946	-0.000041
