data_functionalizedCrystal
_audit_creation_method	'MofGen! by Chris Wilmer'
_symmetry_space_group_name_H-M	'P1'
_symmetry_Int_Tables_number	1
_symmetry_cell_setting	triclinic
loop_
_symmetry_equiv_pos_as_xyz
  x,y,z
_cell_length_a	6.817900
_cell_length_b	12.840933
_cell_length_c	9.582874
_cell_angle_alpha	82.969377
_cell_angle_beta	68.035181
_cell_angle_gamma	88.345099
loop_
_atom_site_label
_atom_site_type_symbol
_atom_site_fract_x
_atom_site_fract_y
_atom_site_fract_z
V1	V	-3.940476	0.284421	0.210582
O2	O	-3.887004	0.320281	-0.006492
O3	O	-3.933582	0.242780	0.414060
O4	O	-3.835739	0.426577	0.208934
O5	O	-3.985524	0.135211	0.200054
V6	V	-4.426026	0.271396	0.184429
O7	O	-4.197289	0.312991	0.267950
O8	O	-4.619411	0.242826	0.127062
O9	O	-4.209714	0.313037	-0.019048
O10	O	-4.596895	0.235536	0.401503
O11	O	-4.498376	0.420606	0.194958
O12	O	-4.307557	0.129240	0.186077
C13	C	-3.790503	0.228050	0.463613
C14	C	-3.865777	0.194951	0.629969
C15	C	-4.082739	0.183130	0.715779
C16	C	-4.153497	0.152045	0.872093
C17	C	-4.007288	0.132774	0.942592
C18	C	-3.790307	0.144601	0.856772
C19	C	-3.719553	0.175692	0.700463
C20	C	-3.665705	0.462501	0.201949
C21	C	-3.661551	0.580634	0.201946
C22	C	-4.140932	0.093310	0.193059
C23	C	-4.123936	-0.024822	0.193058
V24	V	-3.923427	0.770583	0.210592
O25	O	-3.957855	0.923829	0.200061
O26	O	-3.828837	0.623718	0.208946
O27	O	-3.914993	0.772570	0.414067
O28	O	-3.871103	0.773946	-0.006480
V29	V	-4.407032	0.813093	0.184448
O30	O	-4.182178	0.743942	0.267965
O31	O	-4.597686	0.862418	0.127084
O32	O	-4.278808	0.948710	0.186090
O33	O	-4.489794	0.665762	0.194981
O34	O	-4.576547	0.815645	0.401523
O35	O	-4.192653	0.799858	-0.019031
C36	C	-4.016138	0.327763	-0.068594
C37	C	-3.920100	0.360868	-0.234949
C38	C	-3.771462	0.770508	0.463610
C39	C	-3.845401	0.775274	0.629963
C40	C	-4.000115	0.784955	-0.068588
C41	C	-3.905451	0.779153	-0.234944
C42	C	-4.048124	0.372692	-0.320757
C43	C	-3.957909	0.403782	-0.477070
C44	C	-3.739670	0.423054	-0.547569
C45	C	-3.611638	0.411226	-0.461750
C46	C	-3.701852	0.380129	-0.305442
H47	H	-3.542881	0.185309	0.630606
H48	H	-3.666239	0.448374	-0.674847
O49	O	-4.364279	0.140386	0.955323
C50	C	-4.450766	0.063626	0.900464
H51	H	-4.320387	0.009450	0.838156
H52	H	-4.524405	0.103573	0.819302
C53	C	-4.782021	0.065538	1.110874
C54	C	-4.621889	-0.001007	1.034357
H55	H	-4.887584	0.025672	1.193463
H56	H	-4.723757	0.117256	1.147832
H57	H	-4.843362	0.098823	1.043223
H58	H	-4.560534	-0.034280	1.102002
H59	H	-4.680147	-0.052732	0.997413
H60	H	-4.064928	0.107458	1.069870
O61	O	-4.082124	0.415447	-0.560539
C62	C	-4.065479	0.519849	-0.630099
H63	H	-3.910011	0.556613	-0.639788
H64	H	-4.203273	0.566697	-0.558724
C65	C	-4.262121	0.475791	-0.777508
C66	C	-4.071164	0.520943	-0.789421
H67	H	-4.265638	0.476468	-0.875783
H68	H	-4.273343	0.405454	-0.730641
H69	H	-4.376929	0.514837	-0.718023
H70	H	-3.956363	0.481890	-0.848889
H71	H	-4.059923	0.591274	-0.836302
O72	O	-3.577186	0.368752	-0.222305
C73	C	-3.365222	0.392411	-0.318068
H74	H	-3.360890	0.445145	-0.423955
H75	H	-3.279089	0.316616	-0.352051
C76	C	-3.261209	0.384637	-0.103681
C77	C	-3.255889	0.449414	-0.233728
H78	H	-3.193762	0.419795	-0.051656
H79	H	-3.404011	0.368693	-0.039163
H80	H	-3.189434	0.321479	-0.132019
H81	H	-3.327685	0.512564	-0.205387
H82	H	-3.113095	0.465370	-0.298240
H83	H	-4.201819	0.198809	0.658399
H84	H	-3.671280	0.128906	0.914196
H85	H	-4.225830	0.357005	-0.263378
H86	H	-3.433940	0.426921	-0.519174
