data_functionalizedCrystal
_audit_creation_method	'MofGen! by Chris Wilmer'
_symmetry_space_group_name_H-M	'P1'
_symmetry_Int_Tables_number	1
_symmetry_cell_setting	triclinic
loop_
_symmetry_equiv_pos_as_xyz
  x,y,z
_cell_length_a	17.640280
_cell_length_b	17.077404
_cell_length_c	17.637464
_cell_angle_alpha	101.194991
_cell_angle_beta	87.849458
_cell_angle_gamma	101.200948
loop_
_atom_site_label
_atom_site_type_symbol
_atom_site_fract_x
_atom_site_fract_y
_atom_site_fract_z
Zn1	Zn	-0.389161	-1.204230	0.368373
Zn2	Zn	0.110839	-0.704230	0.868373
Zn3	Zn	-0.490483	-1.255172	0.215744
Zn4	Zn	0.009517	-0.755172	0.715744
Zn5	Zn	-0.363512	-1.093327	0.241390
Zn6	Zn	0.136488	-0.593327	0.741390
Zn7	Zn	-0.516101	-1.103600	0.342696
Zn8	Zn	-0.016101	-0.603600	0.842696
O9	O	-0.439814	-1.164082	0.292051
O10	O	0.060186	-0.664082	0.792051
O11	O	-0.402614	-1.320834	0.348140
O12	O	0.097386	-0.820834	0.848140
O13	O	-0.452185	-1.250723	0.112873
O14	O	0.047815	-0.750723	0.612873
O15	O	-0.260652	-1.082420	0.279713
O16	O	0.239348	-0.582420	0.779713
O17	O	-0.477055	-1.358261	0.236004
O18	O	0.022945	-0.858261	0.736004
O19	O	-0.279496	-1.163900	0.373007
O20	O	0.220504	-0.663900	0.873007
O21	O	-0.358901	-1.131816	0.131715
O22	O	0.141099	-0.631816	0.631715
O23	O	-0.383741	-0.984843	0.254815
O24	O	0.116259	-0.484843	0.754815
O25	O	-0.520716	-1.099928	0.452376
O26	O	-0.020716	-0.599928	0.952376
O27	O	-0.495847	-0.992390	0.329245
O28	O	0.004153	-0.492390	0.829245
O29	O	-0.427454	-1.173861	0.471240
O30	O	0.072546	-0.673861	0.971240
O31	O	-0.600144	-1.260684	0.211106
O32	O	-0.100144	-0.760684	0.711106
O33	O	-0.618965	-1.149325	0.304377
O34	O	-0.118965	-0.649325	0.804377
C35	C	-0.439791	-0.960134	0.292027
C36	C	0.060209	-0.460134	0.792027
C37	C	-0.439803	-0.872886	0.292031
C38	C	0.060197	-0.372886	0.792031
C39	C	-0.498233	-0.835877	0.330692
C40	C	0.001767	-0.335877	0.830692
C41	C	-0.498235	-0.753895	0.330702
C42	C	0.001765	-0.253895	0.830702
C43	C	-0.439809	-0.708925	0.292045
C44	C	0.060191	-0.208925	0.792045
C45	C	-0.381374	-0.745940	0.253382
C46	C	0.118626	-0.245940	0.753382
C47	C	-0.381369	-0.827918	0.253377
C48	C	0.118631	-0.327918	0.753377
C49	C	-0.381388	-0.575070	0.253392
C50	C	0.118612	-0.075070	0.753392
C51	C	-0.381393	-0.493086	0.253395
C52	C	0.118607	0.006914	0.753395
C53	C	-0.498254	-0.501047	0.330716
C54	C	0.001746	-0.001047	0.830716
C55	C	-0.498249	-0.583026	0.330712
C56	C	0.001751	-0.083026	0.830712
C57	C	-0.439814	-0.620035	0.292048
C58	C	0.060186	-0.120035	0.792048
C59	C	-0.637110	-1.211666	0.252189
C60	C	-0.137110	-0.711666	0.752189
C61	C	-0.721520	-1.232090	0.235162
C62	C	-0.221520	-0.732090	0.735162
C63	C	-1.048207	-1.009200	0.421684
C64	C	-0.548207	-0.509200	0.921684
C65	C	-1.127518	-1.028397	0.405660
C66	C	-0.627518	-0.528397	0.905660
C67	C	-1.107874	-1.144402	0.308635
C68	C	-0.607874	-0.644402	0.808635
C69	C	-1.028560	-1.125217	0.324653
C70	C	-0.528560	-0.625217	0.824653
C71	C	-0.998734	-1.057614	0.381178
C72	C	-0.498734	-0.557614	0.881178
C73	C	-0.979087	-1.173631	0.284148
C74	C	-0.479087	-0.673631	0.784148
C75	C	-0.899780	-1.154445	0.300163
C76	C	-0.399780	-0.654445	0.800163
C77	C	-0.869947	-1.086844	0.356683
C78	C	-0.369947	-0.586844	0.856683
C79	C	-0.919427	-1.038428	0.397193
C80	C	-0.419427	-0.538428	0.897193
C81	C	-1.008914	-1.241230	0.227619
C82	C	-0.508914	-0.741230	0.727619
C83	C	-0.959441	-1.289645	0.187113
C84	C	-0.459441	-0.789645	0.687113
C85	C	-0.880133	-1.270462	0.203132
C86	C	-0.380133	-0.770462	0.703132
C87	C	-0.850300	-1.202861	0.259652
C88	C	-0.350300	-0.702861	0.759652
C89	C	-0.830653	-1.318879	0.162622
C90	C	-0.330653	-0.818879	0.662622
C91	C	-0.751346	-1.299692	0.178637
C92	C	-0.251346	-0.799692	0.678637
C93	C	-0.770993	-1.183675	0.275667
C94	C	-0.270993	-0.683675	0.775667
C95	C	-0.241751	-1.116331	0.332085
C96	C	0.258249	-0.616331	0.832085
C97	C	-0.157348	-1.095983	0.349145
C98	C	0.342652	-0.595983	0.849145
C99	C	-0.479804	-1.132358	0.490134
C100	C	0.020196	-0.632358	0.990134
C101	C	-0.496845	-1.118839	0.574545
C102	C	0.003155	-0.618839	1.074545
C103	C	-0.439832	-0.368826	0.292068
C104	C	0.060168	0.131174	0.792068
C105	C	-0.439823	-0.456077	0.292057
C106	C	0.060177	0.043923	0.792057
C107	C	-0.399925	-1.195714	0.094750
C108	C	0.100075	-0.695714	0.594750
C109	C	-0.382670	-1.209334	0.010382
C110	C	0.117330	-0.709334	0.510382
C111	C	-0.569417	-1.061297	0.683699
C112	C	-0.069417	-0.561297	1.183699
C113	C	-0.553398	-1.074004	0.604383
C114	C	-0.053398	-0.574004	1.104383
C115	C	-0.456291	-1.150989	0.624018
C116	C	0.043709	-0.650989	1.124018
C117	C	-0.472304	-1.138292	0.703336
C118	C	0.027696	-0.638292	1.203336
C119	C	-0.528867	-1.093444	0.733171
C120	C	-0.028867	-0.593444	1.233171
C121	C	-0.431755	-1.170439	0.752808
C122	C	0.068245	-0.670439	1.252808
C123	C	-0.447764	-1.157739	0.832120
C124	C	0.052236	-0.657739	1.332120
C125	C	-0.504323	-1.112891	0.861961
C126	C	-0.004323	-0.612891	1.361961
C127	C	-0.544877	-1.080744	0.812483
C128	C	-0.044877	-0.580744	1.312483
C129	C	-0.375188	-1.215282	0.722973
C130	C	0.124812	-0.715282	1.222973
C131	C	-0.334639	-1.247429	0.772444
C132	C	0.165361	-0.747429	1.272444
C133	C	-0.350652	-1.234734	0.851757
C134	C	0.149348	-0.734734	1.351757
C135	C	-0.407210	-1.189886	0.881598
C136	C	0.092790	-0.689886	1.381598
C137	C	-0.310098	-1.266881	0.901236
C138	C	0.189902	-0.766881	1.401236
C139	C	-0.326107	-1.254181	0.980548
C140	C	0.173893	-0.754181	1.480548
C141	C	-0.423220	-1.177186	0.960911
C142	C	0.076780	-0.677186	1.460911
H143	H	-0.545815	-0.723766	0.362183
H144	H	-0.045815	-0.223766	0.862183
H145	H	-0.805368	-1.071220	0.369716
H146	H	-0.305368	-0.571220	0.869716
H147	H	-0.586408	-1.047804	0.564107
H148	H	-0.086408	-0.547804	1.064107
C149	C	-0.631639	-1.011970	0.716521
C150	C	-0.131639	-0.511970	1.216521
H151	H	-0.653498	-0.994639	0.675700
H152	H	-0.153498	-0.494639	1.175700
H153	H	-0.670971	-1.045021	0.740779
H154	H	-0.170971	-0.545021	1.240779
H155	H	-0.608827	-0.965806	0.753328
H156	H	-0.108827	-0.465806	1.253328
C157	C	-0.317104	-0.696478	0.210861
C158	C	0.182896	-0.196478	0.710861
H159	H	-0.282300	-0.730261	0.187841
H160	H	0.217700	-0.230261	0.687841
H161	H	-0.339410	-0.676792	0.171866
H162	H	0.160590	-0.176792	0.671866
H163	H	-0.289939	-0.651873	0.246649
H164	H	0.210061	-0.151873	0.746649
H165	H	-0.469284	-1.140673	0.985202
H166	H	0.030716	-0.640673	1.485202
H167	H	-0.517351	-1.102545	0.926544
H168	H	-0.017351	-0.602545	1.426544
H169	H	-0.854950	-1.373916	0.116594
H170	H	-0.354950	-0.873916	0.616594
H171	H	-0.333810	-0.456470	0.221928
H172	H	0.166190	0.043530	0.721928
H173	H	-0.333786	-0.858049	0.221900
H174	H	0.166214	-0.358049	0.721900
C175	C	-0.607099	-1.031417	0.845305
C176	C	-0.107099	-0.531417	1.345305
H177	H	-0.628958	-1.014087	0.804483
H178	H	-0.128958	-0.514087	1.304483
H179	H	-0.646431	-1.064468	0.869563
H180	H	-0.146431	-0.564468	1.369563
H181	H	-0.584286	-0.985253	0.882112
H182	H	-0.084286	-0.485253	1.382112
H183	H	-0.264039	-1.303390	0.876933
H184	H	0.235961	-0.803390	1.376933
C185	C	-0.281508	-1.289547	1.034969
C186	C	0.218492	-0.789547	1.534969
H187	H	-0.245535	-1.318083	1.005840
H188	H	0.254465	-0.818083	1.505840
H189	H	-0.254663	-1.246591	1.072594
H190	H	0.245337	-0.746591	1.572594
H191	H	-0.316815	-1.325800	1.060037
H192	H	0.183185	-0.825800	1.560037
H193	H	-0.410236	-1.187502	0.599716
H194	H	0.089764	-0.687502	1.099716
C195	C	-0.357574	-1.229254	0.635732
C196	C	0.142426	-0.729254	1.135732
H197	H	-0.318074	-1.260557	0.625050
H198	H	0.181926	-0.760557	1.125050
H199	H	-0.402955	-1.257516	0.607885
H200	H	0.097045	-0.757516	1.107885
H201	H	-0.340812	-1.178300	0.620441
H202	H	0.159188	-0.678300	1.120441
H203	H	-0.545832	-0.470909	0.362201
H204	H	-0.045832	0.029091	0.862201
C205	C	-0.272427	-1.296762	0.739621
C206	C	0.227573	-0.796762	1.239621
H207	H	-0.268703	-1.299727	0.685299
H208	H	0.231297	-0.799727	1.185299
H209	H	-0.224027	-1.270901	0.762930
H210	H	0.275973	-0.770901	1.262930
H211	H	-0.286183	-1.350106	0.750376
H212	H	0.213817	-0.850106	1.250376
C213	C	-1.015389	-0.934842	0.483864
C214	C	-0.515389	-0.434842	0.983864
H215	H	-0.961072	-0.930356	0.487602
H216	H	-0.461072	-0.430356	0.987602
H217	H	-1.026172	-0.887049	0.470075
H218	H	-0.526172	-0.387049	0.970075
H219	H	-1.038670	-0.941261	0.532283
H220	H	-0.538670	-0.441261	1.032283
C221	C	-0.696924	-1.352948	0.134085
C222	C	-0.196924	-0.852948	0.634085
H223	H	-0.726047	-1.395962	0.098133
H224	H	-0.226047	-0.895962	0.598133
H225	H	-0.659327	-1.320776	0.107210
H226	H	-0.159327	-0.820776	0.607210
H227	H	-0.671830	-1.374976	0.169429
H228	H	-0.171830	-0.874976	0.669429
H229	H	-0.545812	-0.872487	0.362169
H230	H	-0.045812	-0.372487	0.862169
H231	H	-1.132169	-1.199442	0.262610
H232	H	-0.632169	-0.699442	0.762610
C233	C	-0.562515	-0.632491	0.373235
C234	C	-0.062515	-0.132491	0.873235
H235	H	-0.597313	-0.598708	0.396269
H236	H	-0.097313	-0.098708	0.896269
H237	H	-0.589677	-0.677097	0.337453
H238	H	-0.089677	-0.177097	0.837453
H239	H	-0.540198	-0.652172	0.412231
H240	H	-0.040198	-0.152172	0.912231
H241	H	-1.167799	-0.988974	0.438658
H242	H	-0.667799	-0.488974	0.938658
H243	H	-0.333798	-0.605197	0.221916
H244	H	0.166202	-0.105197	0.721916
H245	H	-0.746709	-1.128631	0.321701
H246	H	-0.246709	-0.628631	0.821701
C247	C	-1.096149	-1.262337	0.209998
C248	C	-0.596149	-0.762337	0.709998
H249	H	-1.106826	-1.309525	0.170526
H250	H	-0.606826	-0.809525	0.670526
H251	H	-1.123971	-1.272359	0.255396
H252	H	-0.623971	-0.772359	0.755396
H253	H	-1.111466	-1.218149	0.193185
H254	H	-0.611466	-0.718149	0.693185
H255	H	-0.895143	-0.983384	0.443227
H256	H	-0.395143	-0.483384	0.943227
H257	H	-0.983737	-1.344685	0.141089
H258	H	-0.483737	-0.844685	0.641089
