data_functionalizedCrystal
_audit_creation_method	'MofGen! by Chris Wilmer'
_symmetry_space_group_name_H-M	'P1'
_symmetry_Int_Tables_number	1
_symmetry_cell_setting	triclinic
loop_
_symmetry_equiv_pos_as_xyz
  x,y,z
_cell_length_a	16.625548
_cell_length_b	19.077068
_cell_length_c	16.625539
_cell_angle_alpha	87.731298
_cell_angle_beta	89.982945
_cell_angle_gamma	87.671886
loop_
_atom_site_label
_atom_site_type_symbol
_atom_site_fract_x
_atom_site_fract_y
_atom_site_fract_z
Zn1	Zn	1.219728	0.280193	-0.468781
Zn2	Zn	1.719728	0.780193	0.031219
Zn3	Zn	1.214210	0.397894	-0.339355
Zn4	Zn	1.714210	0.897894	0.160645
Zn5	Zn	1.084897	0.280216	-0.333962
Zn6	Zn	1.584897	0.780216	0.166038
Zn7	Zn	1.079432	0.397857	-0.474143
Zn8	Zn	1.579432	0.897857	0.025857
O9	O	1.149567	0.339040	-0.404060
O10	O	1.649567	0.839040	0.095940
O11	O	1.331828	0.295812	-0.451625
O12	O	1.831828	0.795812	0.048375
O13	O	1.197034	0.382309	-0.225808
O14	O	1.697034	0.882309	0.274192
O15	O	1.107379	0.181722	-0.347345
O16	O	1.607379	0.681722	0.152655
O17	O	1.327774	0.382286	-0.356536
O18	O	1.827774	0.882286	0.143464
O19	O	1.206438	0.181705	-0.446396
O20	O	1.706438	0.681705	0.053604
O21	O	1.102028	0.295852	-0.221847
O22	O	1.602028	0.795852	0.278153
O23	O	0.971340	0.295816	-0.352545
O24	O	1.471340	0.795816	0.147455
O25	O	1.098065	0.382224	-0.586263
O26	O	1.598065	0.882224	-0.086263
O27	O	0.967325	0.382246	-0.455535
O28	O	1.467325	0.882246	0.044465
O29	O	1.201140	0.295777	-0.582324
O30	O	1.701140	0.795777	-0.082324
O31	O	1.191735	0.496380	-0.361736
O32	O	1.691735	0.996380	0.138264
O33	O	1.092715	0.496353	-0.460764
O34	O	1.592715	0.996353	0.039236
C35	C	0.940076	0.339030	-0.404037
C36	C	1.440076	0.839030	0.095963
C37	C	0.850455	0.339043	-0.404047
C38	C	1.350455	0.839043	0.095953
C39	C	1.141055	0.521905	-0.412435
C40	C	1.641055	1.021905	0.087565
C41	C	1.137488	0.600135	-0.416044
C42	C	1.637488	1.100135	0.083956
C43	C	1.149608	0.338994	-0.614367
C44	C	1.649608	0.838994	-0.114367
C45	C	1.149626	0.338974	-0.703988
C46	C	1.649626	0.838974	-0.203988
C47	C	0.522279	0.339048	-0.404082
C48	C	1.022279	0.839048	0.095918
C49	C	0.613587	0.339044	-0.404070
C50	C	1.113587	0.839044	0.095930
C51	C	0.686364	0.339046	-0.404064
C52	C	1.186364	0.839046	0.095936
C53	C	0.777678	0.339042	-0.404053
C54	C	1.277678	0.839042	0.095947
C55	C	1.359875	0.339051	-0.404084
C56	C	1.859875	0.839051	0.095916
C57	C	1.449496	0.339055	-0.404094
C58	C	1.949496	0.839055	0.095906
C59	C	1.158133	0.155462	-0.395671
C60	C	1.658133	0.655462	0.104329
C61	C	1.161784	0.077232	-0.392096
C62	C	1.661784	0.577232	0.107904
C63	C	1.187407	0.636878	-0.366224
C64	C	1.687407	1.136878	0.133776
C65	C	1.184056	0.710383	-0.369624
C66	C	1.684056	1.210383	0.130376
C67	C	1.130782	0.747144	-0.422840
C68	C	1.630782	1.247144	0.077160
C69	C	1.080861	0.710396	-0.472666
C70	C	1.580861	1.210396	0.027334
C71	C	1.084217	0.636892	-0.469270
C72	C	1.584217	1.136892	0.030730
C73	C	1.115218	0.966979	-0.438525
C74	C	1.615218	1.466979	0.061475
C75	C	1.111865	1.040489	-0.441916
C76	C	1.611865	1.540489	0.058084
C77	C	1.215061	1.040471	-0.338875
C78	C	1.715061	1.540471	0.161125
C79	C	1.218408	0.966966	-0.335480
C80	C	1.718408	1.466966	0.164520
C81	C	1.168491	0.930223	-0.385308
C82	C	1.668491	1.430223	0.114692
N83	N	1.127354	0.822279	-0.426315
N84	N	1.627354	1.322279	0.073685
N85	N	1.171923	0.855090	-0.381837
N86	N	1.671923	1.355090	0.118163
C87	C	1.149640	0.338958	-0.776769
C88	C	1.649640	0.838958	-0.276769
C89	C	1.149660	0.338932	-0.868077
C90	C	1.649660	0.838932	-0.368077
C91	C	1.149680	0.338908	-0.940852
C92	C	1.649680	0.838908	-0.440852
C93	C	1.149702	0.338882	-1.032165
C94	C	1.649702	0.838882	-0.532165
C95	C	1.149574	0.339036	-0.194569
C96	C	1.649574	0.839036	0.305431
C97	C	1.149722	0.338857	-0.104941
C98	C	1.649722	0.838857	0.395059
H99	H	1.230784	0.606952	-0.322886
H100	H	1.730784	1.106952	0.177114
F101	F	1.062090	0.927885	-0.491557
F102	F	1.562090	1.427885	0.008443
H103	H	1.261788	0.937036	-0.292147
H104	H	1.761788	1.437036	0.207853
F105	F	1.237189	0.749485	-0.316600
F106	F	1.737189	1.249485	0.183400
H107	H	1.255703	1.070394	-0.298308
H108	H	1.755703	1.570394	0.201692
F109	F	1.055153	1.079611	-0.498551
F110	F	1.555153	1.579611	0.001449
H111	H	1.037488	0.740332	-0.515999
H112	H	1.537488	1.240332	-0.015999
F113	F	1.031088	0.597787	-0.522297
F114	F	1.531088	1.097787	-0.022297
