data_functionalizedCrystal
_audit_creation_method	'MofGen! by Chris Wilmer'
_symmetry_space_group_name_H-M	'P1'
_symmetry_Int_Tables_number	1
_symmetry_cell_setting	triclinic
loop_
_symmetry_equiv_pos_as_xyz
  x,y,z
_cell_length_a	18.101395
_cell_length_b	12.759395
_cell_length_c	12.759387
_cell_angle_alpha	89.979491
_cell_angle_beta	89.967189
_cell_angle_gamma	90.032641
loop_
_atom_site_label
_atom_site_type_symbol
_atom_site_fract_x
_atom_site_fract_y
_atom_site_fract_z
Zn1	Zn	-0.294760	1.606149	-0.593990
Zn2	Zn	0.205240	2.106149	-0.093990
Zn3	Zn	-0.418620	1.605989	-0.418305
Zn4	Zn	0.081380	2.105989	0.081695
Zn5	Zn	-0.294801	1.430447	-0.418327
Zn6	Zn	0.205199	1.930447	0.081673
Zn7	Zn	-0.418568	1.430389	-0.593944
Zn8	Zn	0.081432	1.930389	-0.093944
O9	O	-0.356687	1.518244	-0.506141
O10	O	0.143313	2.018244	-0.006141
O11	O	-0.311196	1.753149	-0.570695
O12	O	0.188804	2.253149	-0.070695
O13	O	-0.402234	1.582661	-0.271286
O14	O	0.097766	2.082661	0.228714
O15	O	-0.191162	1.453845	-0.441658
O16	O	0.308838	1.953845	0.058342
O17	O	-0.402195	1.753032	-0.441620
O18	O	0.097805	2.253032	0.058380
O19	O	-0.191133	1.582933	-0.570717
O20	O	0.308867	2.082933	-0.070717
O21	O	-0.311264	1.453691	-0.271303
O22	O	0.188736	1.953691	0.228697
O23	O	-0.311213	1.283418	-0.441613
O24	O	0.188787	1.783418	0.058387
O25	O	-0.402105	1.453747	-0.740971
O26	O	0.097895	1.953747	-0.240971
O27	O	-0.402145	1.283376	-0.570638
O28	O	0.097855	1.783376	-0.070638
O29	O	-0.311145	1.582877	-0.741005
O30	O	0.188855	2.082877	-0.241005
O31	O	-0.522246	1.582604	-0.441575
O32	O	-0.022246	2.082604	0.058425
O33	O	-0.522208	1.453592	-0.570616
O34	O	-0.022208	1.953592	-0.070616
C35	C	-0.356678	1.245276	-0.506123
C36	C	0.143322	1.745276	-0.006123
C37	C	-0.356692	1.128499	-0.506141
C38	C	0.143308	1.628499	-0.006141
C39	C	-0.549098	1.518103	-0.506111
C40	C	-0.049098	2.018103	-0.006111
C41	C	-0.631412	1.518139	-0.506133
C42	C	-0.131412	2.018139	-0.006133
C43	C	-0.451532	1.128494	-0.640277
C44	C	0.048468	1.628494	-0.140277
C45	C	-0.498958	1.073630	-0.707348
C46	C	0.001042	1.573630	-0.207348
C47	C	-0.498967	0.963908	-0.707361
C48	C	0.001033	1.463908	-0.207361
C49	C	-0.451543	0.909048	-0.640297
C50	C	0.048457	1.409048	-0.140297
C51	C	-0.404118	0.963912	-0.573226
C52	C	0.095882	1.463912	-0.073226
C53	C	-0.404115	1.073636	-0.573219
C54	C	0.095885	1.573636	-0.073219
C55	C	-0.309275	0.963917	-0.439097
C56	C	0.190725	1.463917	0.060903
C57	C	-0.309269	1.073639	-0.439077
C58	C	0.190731	1.573639	0.060923
C59	C	-0.261852	0.909057	-0.372034
C60	C	0.238148	1.409057	0.127966
C61	C	-0.214429	0.963921	-0.304956
C62	C	0.285571	1.463921	0.195044
C63	C	-0.214422	1.073649	-0.304945
C64	C	0.285578	1.573649	0.195055
C65	C	-0.261843	1.128503	-0.372006
C66	C	0.238157	1.628503	0.127994
C67	C	-0.930503	1.518370	-0.506189
C68	C	-0.430503	2.018370	-0.006189
C69	C	-0.899184	1.437387	-0.587580
C70	C	-0.399184	1.937387	-0.087580
C71	C	-0.813566	1.437002	-0.587325
C72	C	-0.313566	1.937002	-0.087325
C73	C	-0.782120	1.518255	-0.506162
C74	C	-0.282120	2.018255	-0.006162
C75	C	-0.813280	1.488272	-0.395437
C76	C	-0.313280	1.988272	0.104563
C77	C	-0.898925	1.487750	-0.395924
C78	C	-0.398925	1.987750	0.104076
C79	C	-0.898842	1.629513	-0.534549
C80	C	-0.398842	2.129513	-0.034549
C81	C	-0.813191	1.628859	-0.536977
C82	C	-0.313191	2.128859	-0.036977
C83	C	-0.698261	1.518192	-0.506140
C84	C	-0.198261	2.018192	-0.006140
C85	C	-1.014362	1.518430	-0.506204
C86	C	-0.514362	2.018430	-0.006204
C87	C	-0.163525	1.518413	-0.506196
C88	C	0.336475	2.018413	-0.006196
C89	C	-0.081211	1.518486	-0.506219
C90	C	0.418789	2.018486	-0.006219
C91	C	-0.356615	1.518323	-0.780175
C92	C	0.143385	2.018323	-0.280175
C93	C	-0.356584	1.518357	-0.896952
C94	C	0.143416	2.018357	-0.396952
C95	C	-0.356697	1.792277	-0.506160
C96	C	0.143303	2.292277	-0.006160
C97	C	-0.356701	1.909054	-0.506168
C98	C	0.143299	2.409054	-0.006168
C99	C	-0.261872	1.652829	-0.897007
C100	C	0.238128	2.152829	-0.397007
C101	C	-0.214506	1.720080	-0.951896
C102	C	0.285494	2.220080	-0.451896
C103	C	-0.214479	1.720105	-1.061618
C104	C	0.285521	2.220105	-0.561618
C105	C	-0.261822	1.652871	-1.116453
C106	C	0.238178	2.152871	-0.616453
C107	C	-0.309189	1.585620	-1.061565
C108	C	0.190811	2.085620	-0.561565
C109	C	-0.309212	1.585604	-0.951840
C110	C	0.190788	2.085604	-0.451840
C111	C	-0.403895	1.451144	-1.061509
C112	C	0.096105	1.951144	-0.561509
C113	C	-0.403927	1.451122	-0.951788
C114	C	0.096073	1.951122	-0.451788
C115	C	-0.451238	1.383910	-1.116345
C116	C	0.048762	1.883910	-0.616345
C117	C	-0.498610	1.316662	-1.061456
C118	C	0.001390	1.816662	-0.561456
C119	C	-0.498636	1.316641	-0.951728
C120	C	0.001364	1.816641	-0.451728
C121	C	-0.451294	1.383872	-0.896899
C122	C	0.048706	1.883872	-0.396899
C123	C	-0.356706	1.518225	-0.233174
C124	C	0.143294	2.018225	0.266826
C125	C	-0.356528	1.518395	-0.116398
C126	C	0.143472	2.018395	0.383602
H127	H	-0.451535	1.217835	-0.640265
H128	H	0.048465	1.717835	-0.140265
Br129	Br	-0.777501	1.734754	-0.445383
Br130	Br	-0.277501	2.234754	0.054617
Br131	Br	-0.451330	1.383854	-0.747990
Br132	Br	0.048670	1.883854	-0.247990
Br133	Br	-0.261843	1.277412	-0.371990
Br134	Br	0.238157	1.777412	0.128010
Br135	Br	-0.778444	1.468266	-0.724168
Br136	Br	-0.278444	1.968266	-0.224168
H137	H	-0.919726	1.455960	-0.669948
H138	H	-0.419726	1.955960	-0.169948
Br139	Br	-0.932613	1.730081	-0.435763
Br140	Br	-0.432613	2.230081	0.064237
H141	H	-0.537568	1.118309	-0.761951
H142	H	-0.037568	1.618309	-0.261951
Br143	Br	-0.150181	1.811353	-1.136114
Br144	Br	0.349819	2.311353	-0.636114
Br145	Br	-0.933465	1.581783	-0.291397
Br146	Br	-0.433465	2.081783	0.208603
Br147	Br	-0.261919	1.652818	-0.748098
Br148	Br	0.238081	2.152818	-0.248098
H149	H	-0.261789	1.652889	-1.205794
H150	H	0.238211	2.152889	-0.705794
H151	H	-0.791898	1.407887	-0.370982
H152	H	-0.291898	1.907887	0.129018
H153	H	-0.792913	1.545401	-0.333141
H154	H	-0.292913	2.045401	0.166859
H155	H	-0.175958	1.774819	-0.907237
H156	H	0.324042	2.274819	-0.407237
H157	H	-0.261859	0.819716	-0.372054
H158	H	0.238141	1.319716	0.127946
H159	H	-0.537200	1.261865	-0.907044
H160	H	-0.037200	1.761865	-0.407044
H161	H	-0.918971	1.406505	-0.371899
H162	H	-0.418971	1.906505	0.128101
Br163	Br	-0.451201	1.383941	-1.265254
Br164	Br	0.048799	1.883941	-0.765254
Br165	Br	-0.934746	1.675074	-0.666829
Br166	Br	-0.434746	2.175074	-0.166829
H167	H	-0.792822	1.651469	-0.618465
H168	H	-0.292822	2.151469	-0.118465
H169	H	-0.537581	0.919238	-0.761981
H170	H	-0.037581	1.419238	-0.261981
H171	H	-0.451549	0.819707	-0.640323
H172	H	0.048451	1.319707	-0.140323
Br173	Br	-0.150068	0.889464	-0.213963
Br174	Br	0.349932	1.389464	0.286037
H175	H	-0.537149	1.261920	-1.106112
H176	H	-0.037149	1.761920	-0.606112
H177	H	-0.920773	1.355506	-0.569031
H178	H	-0.420773	1.855506	-0.069031
Br179	Br	-0.779524	1.299691	-0.556024
Br180	Br	-0.279524	1.799691	-0.056024
Br181	Br	-0.150049	1.148098	-0.213923
Br182	Br	0.349951	1.648098	0.286077
