data_functionalizedCrystal
_audit_creation_method	'MofGen! by Chris Wilmer'
_symmetry_space_group_name_H-M	'P1'
_symmetry_Int_Tables_number	1
_symmetry_cell_setting	triclinic
loop_
_symmetry_equiv_pos_as_xyz
  x,y,z
_cell_length_a	6.817900
_cell_length_b	15.866870
_cell_length_c	10.992410
_cell_angle_alpha	110.457062
_cell_angle_beta	108.764651
_cell_angle_gamma	102.655915
loop_
_atom_site_label
_atom_site_type_symbol
_atom_site_fract_x
_atom_site_fract_y
_atom_site_fract_z
V1	V	-4.122271	-0.132635	-0.463409
O2	O	-4.071990	0.006374	-0.389949
O3	O	-4.107734	-0.262994	-0.522407
O4	O	-4.099739	-0.130595	-0.637155
O5	O	-4.080041	-0.126941	-0.274406
V6	V	-4.598159	-0.116008	-0.433251
O7	O	-4.400277	-0.169108	-0.529564
O8	O	-4.770350	-0.079535	-0.367096
O9	O	-4.389489	0.014350	-0.374253
O10	O	-4.765836	-0.255017	-0.506711
O11	O	-4.757785	-0.121702	-0.622254
O12	O	-4.397483	-0.118048	-0.259505
C13	C	-3.960136	-0.294772	-0.531138
C14	C	-4.029710	-0.401342	-0.580534
C15	C	-3.950392	-0.683426	-0.122343
C16	C	-4.015783	-0.783569	-0.168801
C17	C	-4.139039	-0.810921	-0.417066
C18	C	-4.073647	-0.710778	-0.370629
C19	C	-3.979328	-0.647038	-0.223266
C20	C	-4.102583	-0.674391	-0.471551
C21	C	-4.037207	-0.574257	-0.425117
C22	C	-3.942895	-0.510511	-0.277760
C23	C	-3.913952	-0.546904	-0.176832
C24	C	-4.196917	-0.738133	-0.618914
C25	C	-4.225853	-0.701745	-0.719836
C26	C	-4.160462	-0.601610	-0.673402
C27	C	-4.066150	-0.537863	-0.526046
C28	C	-4.189405	-0.565216	-0.774331
C29	C	-4.124029	-0.465082	-0.727897
C30	C	-4.000774	-0.437729	-0.479612
C31	C	-3.949936	-0.125884	-0.677509
C32	C	-4.013022	-0.125078	-0.819955
C33	C	-3.879701	-0.117738	-1.011603
C34	C	-3.814226	-0.118973	-0.863704
C35	C	-4.216755	-0.219600	-0.941825
C36	C	-4.281018	-0.218764	-1.089996
C37	C	-4.147714	-0.035735	-0.965282
C38	C	-4.076977	-0.035287	-0.816056
C39	C	-4.200429	0.046123	-0.365521
C40	C	-4.110095	0.152692	-0.316134
C41	C	-4.210628	-0.122763	-0.219146
C42	C	-4.126780	-0.123564	-0.076696
H43	H	-3.889673	-0.428976	-0.239957
H44	H	-4.266226	-0.617128	-0.894315
O45	O	-3.612108	-0.028958	-0.750402
H46	H	-3.560351	0.015848	-0.800997
O47	O	-3.984525	-0.822810	-0.059932
H48	H	-4.045833	-0.903148	-0.116973
O49	O	-4.155475	-0.425753	-0.836661
H50	H	-3.990893	-0.377066	-0.814966
H51	H	-3.758358	-0.049306	-0.998022
O52	O	-3.812210	-0.478142	-0.017888
H53	H	-3.803071	-0.520264	0.044496
O54	O	-4.327580	-0.770498	-0.878772
H55	H	-4.482447	-0.761491	-0.935909
O56	O	-3.848649	-0.614664	0.036600
H57	H	-3.839511	-0.656786	0.098985
H58	H	-4.175026	-0.286265	-0.947792
O59	O	-3.851694	-0.201326	-1.114746
H60	H	-4.012988	-0.247004	-1.212168
H61	H	-4.463517	-0.226983	-1.136520
O62	O	-4.416587	-0.230057	-0.908627
H63	H	-4.372705	-0.167848	-0.804661
O64	O	-3.743613	-0.203724	-0.870953
H65	H	-3.756174	-0.243992	-0.980237
O66	O	-4.265675	-0.306840	-1.192995
H67	H	-4.382148	-0.373455	-1.205047
H68	H	-4.215848	-0.862832	-0.537051
H69	H	-4.040458	0.036042	-0.951646
O70	O	-4.267413	-0.846136	-0.669005
H71	H	-4.395883	-0.870293	-0.634170
O72	O	-3.881627	0.057342	-0.702853
H73	H	-3.739570	0.039515	-0.649572
H74	H	-3.923937	-0.385827	-0.359612
O75	O	-4.265085	-0.033798	-0.772248
H76	H	-4.414347	-0.100880	-0.850878
H77	H	-4.326905	-0.039171	-1.007749
