data_functionalizedCrystal
_audit_creation_method	'MofGen! by Chris Wilmer'
_symmetry_space_group_name_H-M	'P1'
_symmetry_Int_Tables_number	1
_symmetry_cell_setting	triclinic
loop_
_symmetry_equiv_pos_as_xyz
  x,y,z
_cell_length_a	14.519709
_cell_length_b	8.559649
_cell_length_c	7.088929
_cell_angle_alpha	95.344185
_cell_angle_beta	96.220807
_cell_angle_gamma	103.270595
loop_
_atom_site_label
_atom_site_type_symbol
_atom_site_fract_x
_atom_site_fract_y
_atom_site_fract_z
O1	O	1.198225	-0.225782	-0.158735
O2	O	1.698225	0.274218	0.341265
O3	O	0.927974	-0.250449	-0.158792
O4	O	1.427974	0.249551	0.341208
O5	O	1.086909	-0.005581	-0.158756
O6	O	1.586909	0.494419	0.341244
O7	O	1.039290	-0.470650	-0.158770
O8	O	1.539290	0.029350	0.341230
O9	O	1.108154	0.027217	0.159224
O10	O	1.608154	0.527217	0.659224
O11	O	0.949219	-0.217651	0.159188
O12	O	1.449219	0.282349	0.659188
O13	O	1.219470	-0.192984	0.159245
O14	O	1.719470	0.307016	0.659245
Cu15	Cu	1.086285	-0.202323	0.188251
Cu16	Cu	1.586285	0.297677	0.688251
Cu17	Cu	1.061160	-0.241111	-0.187797
Cu18	Cu	1.561160	0.258889	0.312203
O19	O	1.060535	-0.437852	0.159210
O20	O	1.560535	0.062148	0.659210
C21	C	0.904319	-0.232902	0.000190
C22	C	1.404319	0.267098	0.500190
C23	C	0.802183	-0.229460	0.000168
C24	C	1.302183	0.270540	0.500168
C25	C	1.101140	0.070337	0.000231
C26	C	1.601140	0.570337	0.500231
C27	C	1.111881	0.247686	0.000223
C28	C	1.611881	0.747686	0.500223
N29	N	1.103963	-0.175040	0.452743
N30	N	1.603963	0.324960	0.952743
C31	C	0.428203	-0.216772	0.000256
C32	C	0.928203	0.283228	0.500256
C33	C	0.532257	-0.220295	0.000231
C34	C	1.032257	0.279705	0.500231
C35	C	0.615190	-0.223116	0.000210
C36	C	1.115190	0.276884	0.500210
C37	C	0.719250	-0.226640	0.000189
C38	C	1.219250	0.273360	0.500189
C39	C	1.243125	-0.210532	0.000259
C40	C	1.743125	0.289468	0.500259
C41	C	1.345260	-0.213975	0.000268
C42	C	1.845260	0.286025	0.500268
C43	C	1.046304	-0.513771	0.000218
C44	C	1.546304	-0.013771	0.500218
C45	C	1.035562	-0.691121	0.000214
C46	C	1.535562	-0.191121	0.500214
N47	N	1.043489	-0.268380	-0.452289
N48	N	1.543489	0.231620	0.047711
H49	H	0.962005	0.225592	0.000204
H50	H	1.462005	0.725592	0.500204
H51	H	1.185445	0.330985	0.000254
H52	H	1.685445	0.830985	0.500254
Cl53	Cl	0.946724	-0.417723	0.421636
Cl54	Cl	1.446724	0.082277	0.921636
H55	H	1.166646	-0.078319	0.534413
H56	H	1.666646	0.421681	1.034413
