data_functionalizedCrystal
_audit_creation_method	'MofGen! by Chris Wilmer'
_symmetry_space_group_name_H-M	'P1'
_symmetry_Int_Tables_number	1
_symmetry_cell_setting	triclinic
loop_
_symmetry_equiv_pos_as_xyz
  x,y,z
_cell_length_a	16.120484
_cell_length_b	12.759395
_cell_length_c	12.759387
_cell_angle_alpha	89.980569
_cell_angle_beta	92.863576
_cell_angle_gamma	92.925231
loop_
_atom_site_label
_atom_site_type_symbol
_atom_site_fract_x
_atom_site_fract_y
_atom_site_fract_z
Zn1	Zn	-0.331865	1.584985	-0.615139
Zn2	Zn	0.168135	2.084985	-0.115139
Zn3	Zn	-0.471302	1.575933	-0.448352
Zn4	Zn	0.028698	2.075933	0.051648
Zn5	Zn	-0.331907	1.409280	-0.439482
Zn6	Zn	0.168093	1.909280	0.060518
Zn7	Zn	-0.471238	1.400337	-0.623990
Zn8	Zn	0.028762	1.900337	-0.123990
O9	O	-0.401578	1.492634	-0.531741
O10	O	0.098422	1.992634	-0.031741
O11	O	-0.350371	1.730804	-0.593022
O12	O	0.149629	2.230804	-0.093022
O13	O	-0.452854	1.553781	-0.300157
O14	O	0.047146	2.053781	0.199843
O15	O	-0.215236	1.440119	-0.455367
O16	O	0.284764	1.940119	0.044633
O17	O	-0.452814	1.724154	-0.470485
O18	O	0.047186	2.224154	0.029515
O19	O	-0.215206	1.569208	-0.584421
O20	O	0.284794	2.069208	-0.084421
O21	O	-0.350442	1.431342	-0.293640
O22	O	0.149558	1.931342	0.206360
O23	O	-0.350380	1.261073	-0.463949
O24	O	0.149620	1.761073	0.036051
O25	O	-0.452706	1.424876	-0.769835
O26	O	0.047294	1.924876	-0.269835
O27	O	-0.452746	1.254503	-0.599507
O28	O	0.047254	1.754503	-0.099507
O29	O	-0.350310	1.560536	-0.763332
O30	O	0.149690	2.060536	-0.263332
O31	O	-0.587958	1.545108	-0.479067
O32	O	-0.087958	2.045108	0.020933
O33	O	-0.587912	1.416099	-0.608108
O34	O	-0.087912	1.916099	-0.108108
C35	C	-0.401561	1.219667	-0.531727
C36	C	0.098439	1.719667	-0.031727
C37	C	-0.401574	1.102890	-0.531747
C38	C	0.098426	1.602890	-0.031747
C39	C	-0.295073	1.109784	-0.659574
C40	C	0.204927	1.609784	-0.159574
C41	C	-0.241832	1.058370	-0.723496
C42	C	0.258168	1.558370	-0.223496
C43	C	-0.241847	0.948648	-0.723510
C44	C	0.258153	1.448648	-0.223510
C45	C	-0.295106	0.890337	-0.659593
C46	C	0.204894	1.390337	-0.159593
C47	C	-0.348347	0.941751	-0.595670
C48	C	0.151653	1.441751	-0.095670
C49	C	-0.348328	1.051476	-0.595665
C50	C	0.151672	1.551476	-0.095665
C51	C	-0.454843	0.934856	-0.467839
C52	C	0.045157	1.434856	0.032161
C53	C	-0.454834	1.044578	-0.467829
C54	C	0.045166	1.544578	0.032171
C55	C	-0.508103	0.876545	-0.403922
C56	C	-0.008103	1.376545	0.096078
C57	C	-0.561349	0.927959	-0.340003
C58	C	-0.061349	1.427959	0.159997
C59	C	-0.561333	1.037688	-0.339993
C60	C	-0.061333	1.537688	0.160007
C61	C	-0.508075	1.095992	-0.403907
C62	C	-0.008075	1.595992	0.096093
C63	C	-0.618185	1.478679	-0.545533
C64	C	-0.118185	1.978679	-0.045533
C65	C	-0.710851	1.472806	-0.551469
C66	C	-0.210851	1.972806	-0.051469
C67	C	-0.880511	1.462088	-0.562328
C68	C	-0.380511	1.962088	-0.062328
C69	C	-0.921804	1.523367	-0.501171
C70	C	-0.421804	2.023367	-0.001171
C71	C	-1.016209	1.517404	-0.507213
C72	C	-0.516209	2.017404	-0.007213
C73	C	-0.786098	1.468050	-0.556287
C74	C	-0.286098	1.968050	-0.056287
C75	C	-0.184125	1.506671	-0.517917
C76	C	0.315875	2.006671	-0.017917
C77	C	-0.091459	1.512653	-0.512027
C78	C	0.408541	2.012653	-0.012027
C79	C	-0.401496	1.492718	-0.805769
C80	C	0.098504	1.992718	-0.305769
C81	C	-0.401461	1.492754	-0.922544
C82	C	0.098539	1.992754	-0.422544
C83	C	-0.401595	1.766666	-0.531756
C84	C	0.098405	2.266666	-0.031756
C85	C	-0.401602	1.883442	-0.531762
C86	C	0.098398	2.383442	-0.031762
C87	C	-0.294843	1.634026	-0.915793
C88	C	0.205157	2.134026	-0.415793
C89	C	-0.241521	1.704677	-0.967277
C90	C	0.258479	2.204677	-0.467277
C91	C	-0.241491	1.704705	-1.076997
C92	C	0.258509	2.204705	-0.576997
C93	C	-0.294786	1.634071	-1.135235
C94	C	0.205214	2.134071	-0.635235
C95	C	-0.348108	1.563420	-1.083750
C96	C	0.151892	2.063420	-0.583750
C97	C	-0.348134	1.563402	-0.974028
C98	C	0.151866	2.063402	-0.474028
C99	C	-0.454721	1.422145	-1.090501
C100	C	0.045279	1.922145	-0.590501
C101	C	-0.454757	1.422121	-0.980782
C102	C	0.045243	1.922121	-0.480782
C103	C	-0.508016	1.351512	-1.148739
C104	C	-0.008016	1.851512	-0.648739
C105	C	-0.561343	1.280864	-1.097255
C106	C	-0.061343	1.780864	-0.597255
C107	C	-0.561372	1.280840	-0.987529
C108	C	-0.061372	1.780840	-0.487529
C109	C	-0.508079	1.351470	-0.929298
C110	C	-0.008079	1.851470	-0.429298
C111	C	-0.401599	1.492614	-0.258775
C112	C	0.098401	1.992614	0.241225
C113	C	-0.401399	1.492796	-0.141986
C114	C	0.098601	1.992796	0.358014
H115	H	-0.295052	1.199127	-0.659564
H116	H	0.204948	1.699127	-0.159564
H117	H	-0.507984	1.351535	-1.238079
H118	H	-0.007984	1.851535	-0.738079
Cl119	Cl	-0.294738	1.634099	-1.273169
Cl120	Cl	0.205262	2.134099	-0.773169
H121	H	-0.916058	1.405150	-0.619217
H122	H	-0.416058	1.905150	-0.119217
H123	H	-0.295107	0.800995	-0.659601
H124	H	0.204893	1.300995	-0.159601
H125	H	-0.886255	1.580308	-0.444276
H126	H	-0.386255	2.080308	0.055724
Cl127	Cl	-0.628331	1.192072	-1.170472
Cl128	Cl	-0.128331	1.692072	-0.670472
Cl129	Cl	-0.628265	1.102313	-0.259624
Cl130	Cl	-0.128265	1.602313	0.240376
Cl131	Cl	-0.294889	1.634011	-0.777859
Cl132	Cl	0.205111	2.134011	-0.277859
H133	H	-0.198128	1.762184	-0.919847
H134	H	0.301872	2.262184	-0.419847
H135	H	-0.508052	1.185335	-0.403899
H136	H	-0.008052	1.685335	0.096101
Cl137	Cl	-0.174444	1.793508	-1.141722
Cl138	Cl	0.325556	2.293508	-0.641722
H139	H	-0.508100	1.351461	-0.839958
H140	H	-0.008100	1.851461	-0.339958
Cl141	Cl	-0.174880	1.131680	-0.803845
Cl142	Cl	0.325120	1.631680	-0.303845
Cl143	Cl	-0.174910	0.884010	-0.803863
Cl144	Cl	0.325090	1.384010	-0.303863
H145	H	-0.508109	0.787203	-0.403935
H146	H	-0.008109	1.287203	0.096065
Cl147	Cl	-0.628291	0.854650	-0.259652
Cl148	Cl	-0.128291	1.354650	0.240348
H149	H	-0.604785	1.223296	-0.945617
H150	H	-0.104785	1.723296	-0.445617
