data_functionalizedCrystal
_audit_creation_method	'MofGen! by Chris Wilmer'
_symmetry_space_group_name_H-M	'P1'
_symmetry_Int_Tables_number	1
_symmetry_cell_setting	triclinic
loop_
_symmetry_equiv_pos_as_xyz
  x,y,z
_cell_length_a	14.971494
_cell_length_b	15.944499
_cell_length_c	14.048226
_cell_angle_alpha	89.990949
_cell_angle_beta	89.995286
_cell_angle_gamma	83.547584
loop_
_atom_site_label
_atom_site_type_symbol
_atom_site_fract_x
_atom_site_fract_y
_atom_site_fract_z
O1	O	0.115141	1.114666	-0.079214
O2	O	0.129412	0.870125	-0.079203
O3	O	-0.007931	0.998946	-0.079207
O4	O	0.252484	0.985845	-0.079210
O5	O	-0.007939	0.998931	0.079115
O6	O	0.129404	0.870109	0.079118
O7	O	0.115133	1.114651	0.079107
Zn8	Zn	0.122267	0.992377	0.104250
Zn9	Zn	0.122278	0.992398	-0.104345
O10	O	0.252476	0.985829	0.079111
C11	C	0.128824	0.838822	-0.000041
C12	C	0.127072	0.745572	-0.000037
C13	C	0.206865	0.454114	-0.000052
C14	C	0.165391	0.515110	-0.078114
C15	C	0.120708	0.409929	-0.000059
C16	C	0.165359	0.515081	0.077978
C17	C	0.123840	0.574841	-0.000046
C18	C	0.079210	0.469697	-0.078185
C19	C	0.079191	0.469661	0.077978
C20	C	0.037654	0.530640	-0.000103
C21	C	0.118907	0.314927	-0.000067
C22	C	0.125634	0.669841	-0.000045
C23	C	-0.041259	0.998351	-0.000047
C24	C	-0.140554	0.996592	-0.000052
C25	C	-0.187193	0.995775	-0.086354
C26	C	-0.280490	0.994117	-0.086355
C27	C	-0.327147	0.993280	-0.000053
C28	C	-0.280501	0.994094	0.086256
C29	C	-0.187204	0.995747	0.086256
C30	C	-0.474959	0.990651	0.086250
C31	C	-0.568262	0.989000	0.086250
C32	C	-0.568245	0.989021	-0.086361
C33	C	-0.474949	0.990674	-0.086361
C34	C	-0.428309	0.991489	-0.000052
C35	C	0.285804	0.986424	-0.000050
C36	C	0.385099	0.988184	-0.000052
C37	C	0.115721	1.145954	-0.000057
C38	C	0.117473	1.239204	-0.000067
N39	N	0.122259	0.992370	0.246610
N40	N	0.122279	0.992412	-0.246706
C41	C	0.061469	1.049430	0.296427
C42	C	0.061468	1.049435	0.396085
C43	C	0.122263	0.992384	0.445924
C44	C	0.183057	0.935318	0.396101
C45	C	0.183052	0.935309	0.296445
C46	C	0.183063	0.935342	0.603815
C47	C	0.183069	0.935352	0.703478
C48	C	0.061479	1.049469	0.703455
C49	C	0.061475	1.049460	0.603799
C50	C	0.122270	0.992394	0.553982
H51	H	0.201838	0.535250	-0.144106
N52	N	0.030981	0.443205	-0.165699
H53	H	0.030097	0.379961	-0.165178
H54	H	0.063308	0.460175	-0.224539
N55	N	0.248628	0.873788	0.449860
H56	H	0.312115	0.883521	0.432502
H57	H	0.238219	0.814189	0.432520
N58	N	0.301569	0.410045	-0.000143
H59	H	0.345745	0.453481	-0.000792
H60	H	0.310895	0.373165	-0.058542
H61	H	-0.606223	0.988356	-0.156637
N62	N	-0.057143	0.574490	-0.000160
H63	H	-0.066679	0.611342	-0.058575
H64	H	-0.067020	0.610527	0.058839
N65	N	0.248614	0.873762	0.242709
H66	H	0.287129	0.837621	0.289402
H67	H	0.288173	0.905949	0.201342
H68	H	0.042777	0.449502	0.143976
H69	H	0.011967	1.095897	0.436645
N70	N	0.213638	0.541710	0.165396
H71	H	0.171298	0.581730	0.204512
H72	H	0.267104	0.570906	0.145402
H73	H	-0.149212	0.996461	-0.156631
N74	N	0.248636	0.873799	0.550078
H75	H	0.214436	0.836571	0.508748
H76	H	0.287138	0.837717	0.596830
H77	H	-0.318460	0.993455	-0.156631
H78	H	-0.436964	0.991361	-0.156636
H79	H	-0.436986	0.991297	0.156532
N80	N	-0.618594	0.988102	0.179326
H81	H	-0.595117	0.936352	0.217062
H82	H	-0.684760	0.986970	0.166136
N83	N	-0.330820	0.993202	0.179340
H84	H	-0.362281	0.940491	0.183195
H85	H	-0.376733	1.044587	0.183118
N86	N	-0.136895	0.996623	0.179338
H87	H	-0.180607	0.995844	0.234011
H88	H	-0.105441	1.049339	0.183098
N89	N	-0.004098	1.110969	0.242675
H90	H	-0.042610	1.147116	0.289359
H91	H	-0.043660	1.078772	0.201342
N92	N	-0.004089	1.110997	0.550040
H93	H	-0.042603	1.147148	0.596718
H94	H	-0.043648	1.078797	0.508707
N95	N	-0.004092	1.111021	0.757178
H96	H	0.005131	1.102370	0.827872
H97	H	-0.067553	1.101260	0.739768
H98	H	0.232574	0.888895	0.744052
