data_functionalizedCrystal
_audit_creation_method	'MofGen! by Chris Wilmer'
_symmetry_space_group_name_H-M	'P1'
_symmetry_Int_Tables_number	1
_symmetry_cell_setting	triclinic
loop_
_symmetry_equiv_pos_as_xyz
  x,y,z
_cell_length_a	11.169417
_cell_length_b	25.639239
_cell_length_c	11.169409
_cell_angle_alpha	90.039281
_cell_angle_beta	90.019824
_cell_angle_gamma	90.039565
loop_
_atom_site_label
_atom_site_type_symbol
_atom_site_fract_x
_atom_site_fract_y
_atom_site_fract_z
Zn1	Zn	1.834726	-0.208096	0.678485
Zn2	Zn	2.334726	0.291904	1.178485
Zn3	Zn	1.834516	-0.295546	0.477777
Zn4	Zn	2.334516	0.204454	0.977777
Zn5	Zn	1.634012	-0.208128	0.477819
Zn6	Zn	2.134012	0.291872	0.977819
Zn7	Zn	1.633920	-0.295504	0.678422
Zn8	Zn	2.133920	0.204496	1.178422
O9	O	1.734293	-0.251819	0.578126
O10	O	2.234293	0.248181	1.078126
O11	O	2.002648	-0.219701	0.651869
O12	O	2.502648	0.280299	1.151869
O13	O	1.807869	-0.283981	0.309833
O14	O	2.307869	0.216019	0.809833
O15	O	1.660763	-0.134959	0.504482
O16	O	2.160763	0.365041	1.004482
O17	O	2.002494	-0.283950	0.504410
O18	O	2.502494	0.216050	1.004410
O19	O	1.808227	-0.134935	0.651910
O20	O	2.308227	0.365065	1.151910
O21	O	1.660560	-0.219755	0.309864
O22	O	2.160560	0.280245	0.809864
O23	O	1.466050	-0.219714	0.504421
O24	O	1.966050	0.280286	1.004421
O25	O	1.660607	-0.283878	0.846380
O26	O	2.160607	0.216122	1.346380
O27	O	1.465983	-0.283909	0.651803
O28	O	1.965983	0.216091	1.151803
O29	O	1.808138	-0.219660	0.846426
O30	O	2.308138	0.280340	1.346426
O31	O	1.807780	-0.368706	0.504350
O32	O	2.307780	0.131294	1.004350
O33	O	1.660403	-0.368675	0.651763
O34	O	2.160403	0.131325	1.151763
C35	C	1.422469	-0.251811	0.578110
C36	C	1.922469	0.248189	1.078110
C37	C	1.289069	-0.251820	0.578132
C38	C	1.789069	0.248180	1.078132
C39	C	1.734092	-0.387661	0.578071
C40	C	2.234092	0.112339	1.078071
C41	C	1.734115	-0.445775	0.578088
C42	C	2.234115	0.054225	1.078088
C43	C	1.811233	-0.806142	0.501499
C44	C	2.311233	-0.306142	1.001499
C45	C	1.811279	-0.860746	0.501515
C46	C	2.311279	-0.360746	1.001515
O47	O	1.876638	-0.888986	0.436336
O48	O	2.376638	-0.388986	0.936336
N49	N	1.734504	-0.888058	0.578205
N50	N	2.234504	-0.388058	1.078205
C51	C	1.657686	-0.860762	0.654894
C52	C	2.157686	-0.360762	1.154894
O53	O	1.592388	-0.889006	0.720127
O54	O	2.092388	-0.389006	1.220127
C55	C	1.657647	-0.806159	0.654883
C56	C	2.157647	-0.306159	1.154883
C57	C	1.734418	-0.778850	0.578178
C58	C	2.234418	-0.278850	1.078178
C59	C	1.887999	-0.778833	0.424802
C60	C	2.387999	-0.278833	0.924802
C61	C	1.887951	-0.724233	0.424784
C62	C	2.387951	-0.224233	0.924784
C63	C	1.811136	-0.696941	0.501464
C64	C	2.311136	-0.196941	1.001464
C65	C	1.734370	-0.724249	0.578161
C66	C	2.234370	-0.224249	1.078161
C67	C	1.580836	-0.778864	0.731576
C68	C	2.080836	-0.278864	1.231576
C69	C	1.580804	-0.724257	0.731559
C70	C	2.080804	-0.224257	1.231559
C71	C	1.657575	-0.696948	0.654855
C72	C	2.157575	-0.196948	1.154855
C73	C	1.657507	-0.642357	0.654823
C74	C	2.157507	-0.142357	1.154823
N75	N	1.734282	-0.615046	0.578133
N76	N	2.234282	-0.115046	1.078133
C77	C	1.811097	-0.642338	0.501453
C78	C	2.311097	-0.142338	1.001453
C79	C	1.657777	-0.975432	0.654912
C80	C	2.157777	-0.475432	1.154912
C81	C	1.657809	-1.030035	0.654918
C82	C	2.157809	-0.530035	1.154918
C83	C	1.811404	-1.030015	0.501540
C84	C	2.311404	-0.530015	1.001540
C85	C	1.811365	-0.975412	0.501529
C86	C	2.311365	-0.475412	1.001529
C87	C	1.734552	-0.948121	0.578221
C88	C	2.234552	-0.448121	1.078221
C89	C	1.810988	-0.527673	0.501422
C90	C	2.310988	-0.027673	1.001422
C91	C	1.810930	-0.473067	0.501408
C92	C	2.310930	0.026933	1.001408
C93	C	1.657340	-0.473091	0.654789
C94	C	2.157340	0.026909	1.154789
C95	C	1.657393	-0.527692	0.654799
C96	C	2.157393	-0.027692	1.154799
C97	C	1.734228	-0.554981	0.578112
C98	C	2.234228	-0.054981	1.078112
O99	O	1.592185	-0.614082	0.719973
O100	O	2.092185	-0.114082	1.219973
O101	O	1.876395	-0.614086	0.436242
O102	O	2.376395	-0.114086	0.936242
C103	C	2.047336	-0.251827	0.578142
C104	C	2.547336	0.248173	1.078142
C105	C	2.180736	-0.251830	0.578149
C106	C	2.680736	0.248170	1.078149
C107	C	1.734386	-0.251761	0.891168
C108	C	2.234386	0.248239	1.391168
C109	C	1.734425	-0.251736	1.024569
C110	C	2.234425	0.248264	1.524569
C111	C	1.734529	-0.115446	0.578207
C112	C	2.234529	0.384554	1.078207
C113	C	1.734629	-0.057331	0.578242
C114	C	2.234629	0.442669	1.078242
C115	C	1.734271	-0.251839	0.266301
C116	C	2.234271	0.248161	0.766301
C117	C	1.734464	-0.251716	0.132902
C118	C	2.234464	0.248284	0.632902
H119	H	1.873446	-0.450834	0.438942
H120	H	2.373446	0.049166	0.938942
C121	C	1.496383	-0.808891	0.815962
C122	C	1.996383	-0.308891	1.315962
N123	N	1.432770	-0.831507	0.879528
N124	N	1.932770	-0.331507	1.379528
C125	C	1.895822	-0.945378	0.417153
C126	C	2.395822	-0.445378	0.917153
N127	N	1.959441	-0.922759	0.353599
N128	N	2.459441	-0.422759	0.853599
C129	C	1.496301	-0.694240	0.815929
C130	C	1.996301	-0.194240	1.315929
N131	N	1.432652	-0.671633	0.879475
N132	N	1.932652	-0.171633	1.379475
H133	H	1.950557	-0.801049	0.362360
H134	H	2.450557	-0.301049	0.862360
C135	C	1.572937	-0.557732	0.739173
C136	C	2.072937	-0.057732	1.239173
N137	N	1.509332	-0.580355	0.802734
N138	N	2.009332	-0.080355	1.302734
H139	H	1.595283	-1.052265	0.717367
H140	H	2.095283	-0.552265	1.217367
C141	C	1.972397	-0.694201	0.340393
C142	C	2.472397	-0.194201	0.840393
N143	N	2.036003	-0.671584	0.276822
N144	N	2.536003	-0.171584	0.776822
H145	H	1.873557	-0.549885	0.438978
H146	H	2.373557	-0.049885	0.938978
H147	H	1.873955	-1.052246	0.439107
H148	H	2.373955	-0.552246	0.939107
H149	H	1.594794	-0.450862	0.717218
H150	H	2.094794	0.049138	1.217218
C151	C	1.573276	-0.945417	0.739290
C152	C	2.073276	-0.445417	1.239290
N153	N	1.509636	-0.922813	0.802850
N154	N	2.009636	-0.422813	1.302850
