data_functionalizedCrystal
_audit_creation_method	'MofGen! by Chris Wilmer'
_symmetry_space_group_name_H-M	'P1'
_symmetry_Int_Tables_number	1
_symmetry_cell_setting	triclinic
loop_
_symmetry_equiv_pos_as_xyz
  x,y,z
_cell_length_a	19.121063
_cell_length_b	13.032951
_cell_length_c	13.032268
_cell_angle_alpha	89.114265
_cell_angle_beta	99.247498
_cell_angle_gamma	94.436940
loop_
_atom_site_label
_atom_site_type_symbol
_atom_site_fract_x
_atom_site_fract_y
_atom_site_fract_z
Zn1	Zn	-0.473708	-1.465014	-0.806619
Zn2	Zn	-0.578206	-1.479375	-0.640318
Zn3	Zn	-0.444404	-1.316943	-0.611263
Zn4	Zn	-0.574407	-1.285892	-0.790231
O5	O	-0.517681	-1.386806	-0.712108
O6	O	-0.501424	-1.609860	-0.803576
O7	O	-0.549783	-1.476833	-0.491968
O8	O	-0.350152	-1.343569	-0.631876
O9	O	-0.578198	-1.620411	-0.681396
O10	O	-0.371681	-1.452356	-0.775403
O11	O	-0.451479	-1.357494	-0.470621
O12	O	-0.447796	-1.169882	-0.615986
O13	O	-0.571724	-1.290648	-0.936902
O14	O	-0.543309	-1.147069	-0.747473
O15	O	-0.497740	-1.422248	-0.948941
O16	O	-0.675842	-1.446724	-0.665506
O17	O	-0.673051	-1.304573	-0.775647
C18	C	-0.491961	-1.121412	-0.676799
C19	C	-0.480976	-1.007871	-0.661719
C20	C	-0.699897	-1.373862	-0.721977
C21	C	-0.777861	-1.368414	-0.726246
C22	C	-0.523398	-0.945999	-0.719963
C23	C	-0.512045	-0.828649	-0.704379
C24	C	-0.815928	-1.439908	-0.670969
C25	C	-0.889184	-1.434789	-0.674990
C26	C	-0.924372	-1.358171	-0.734284
C27	C	-0.886301	-1.286673	-0.789568
C28	C	-0.813047	-1.291797	-0.785552
C29	C	-1.145482	-1.338999	-0.749283
C30	C	-1.218741	-1.333878	-0.753293
C31	C	-1.221620	-1.481996	-0.638716
C32	C	-1.148363	-1.487110	-0.634700
C33	C	-1.110299	-1.415615	-0.689988
C34	C	-0.999252	-1.352935	-0.738394
C35	C	-1.035421	-1.420857	-0.685884
C36	C	-0.334759	-1.399824	-0.702227
C37	C	-0.256808	-1.405372	-0.698016
C38	C	-0.537577	-1.351382	-0.981435
C39	C	-0.546055	-1.336287	-1.096207
C40	C	-0.543495	-0.653237	-0.747548
C41	C	-0.554473	-0.766778	-0.762631
C42	C	-0.513230	-1.394670	-1.153332
C43	C	-0.521992	-1.379070	-1.271954
C44	C	-0.497818	-1.422154	-0.443833
C45	C	-0.489162	-1.437461	-0.329078
H46	H	-0.568119	-0.979906	-0.781369
F47	F	-1.036708	-1.271393	-0.801497
H48	H	-0.454565	-1.498993	-1.290171
H49	H	-0.599196	-0.800678	-0.824044
F50	F	-0.468001	-1.475081	-1.102473
H51	H	-0.580640	-1.274747	-1.135118
F52	F	-0.422514	-0.963558	-0.581465
F53	F	-0.929695	-1.510887	-0.616160
F54	F	-0.772534	-1.215705	-0.844389
H55	H	-1.006770	-1.483243	-0.637611
H56	H	-0.467316	-0.794746	-0.642976
H57	H	-1.119715	-1.549499	-0.586418
F58	F	-0.778484	-1.521452	-0.607852
F59	F	-0.567203	-1.298630	-1.322804
H60	H	-1.252620	-1.540204	-0.593705
H61	H	-1.247392	-1.271496	-0.801597
H62	H	-1.114495	-1.280783	-0.794299
F63	F	-0.923753	-1.205134	-0.852680
