data_functionalizedCrystal
_audit_creation_method	'MofGen! by Chris Wilmer'
_symmetry_space_group_name_H-M	'P1'
_symmetry_Int_Tables_number	1
_symmetry_cell_setting	triclinic
loop_
_symmetry_equiv_pos_as_xyz
  x,y,z
_cell_length_a	23.532407
_cell_length_b	17.038272
_cell_length_c	15.500227
_cell_angle_alpha	93.043705
_cell_angle_beta	92.805592
_cell_angle_gamma	93.019883
loop_
_atom_site_label
_atom_site_type_symbol
_atom_site_fract_x
_atom_site_fract_y
_atom_site_fract_z
O1	O	0.121159	-1.040103	-0.071851
O2	O	0.621159	-0.540103	0.428149
O3	O	0.119196	-0.812488	-0.071876
O4	O	0.619196	-0.312488	0.428124
O5	O	0.037607	-0.933158	-0.071847
O6	O	0.537607	-0.433158	0.428153
O7	O	0.202748	-0.919432	-0.071880
O8	O	0.702748	-0.419432	0.428120
O9	O	0.042537	-0.925836	0.072040
O10	O	0.542537	-0.425836	0.572040
O11	O	0.124126	-0.805165	0.072011
O12	O	0.624126	-0.305165	0.572011
O13	O	0.126090	-1.032780	0.072036
O14	O	0.626090	-0.532780	0.572036
Cu15	Cu	0.125558	-0.918304	0.085162
Cu16	Cu	0.625558	-0.418304	0.585162
Cu17	Cu	0.119727	-0.926964	-0.085001
Cu18	Cu	0.619727	-0.426964	0.414999
O19	O	0.207678	-0.912110	0.072007
O20	O	0.707678	-0.412110	0.572007
C21	C	0.018838	-0.929147	0.000099
C22	C	0.518838	-0.429147	0.500099
C23	C	-0.044434	-0.928096	0.000105
C24	C	0.455566	-0.428096	0.500105
C25	C	0.119875	-0.779712	0.000065
C26	C	0.619875	-0.279712	0.500065
C27	C	0.114548	-0.692959	0.000056
C28	C	0.614548	-0.192959	0.500056
C29	C	0.125410	-1.065556	0.000094
C30	C	0.625410	-0.565556	0.500094
C31	C	0.130737	-1.152310	0.000097
C32	C	0.630737	-0.652310	0.500097
C33	C	-0.440131	-0.992917	0.000065
C34	C	0.059869	-0.492917	0.500065
C35	C	-0.499583	-0.991941	0.000058
C36	C	0.000417	-0.491941	0.500058
O37	O	-0.533169	-1.052030	0.000033
O38	O	-0.033169	-0.552030	0.500033
N39	N	-0.525981	-0.920202	0.000051
N40	N	-0.025981	-0.420202	0.500051
C41	C	-0.492924	-0.849435	0.000042
C42	C	0.007076	-0.349435	0.500042
O43	O	-0.520836	-0.788325	0.000034
O44	O	-0.020836	-0.288325	0.500034
C45	C	-0.433473	-0.850412	0.000042
C46	C	0.066527	-0.350412	0.500042
C47	C	-0.407078	-0.922155	0.000058
C48	C	0.092922	-0.422155	0.500058
C49	C	-0.413736	-1.064654	0.000080
C50	C	0.086264	-0.564654	0.500080
C51	C	-0.354288	-1.065630	0.000089
C52	C	0.145712	-0.565630	0.500089
C53	C	-0.321235	-0.994868	0.000082
C54	C	0.178765	-0.494868	0.500082
C55	C	-0.347631	-0.923131	0.000067
C56	C	0.152369	-0.423131	0.500067
C57	C	-0.400418	-0.779646	0.000027
C58	C	0.099582	-0.279646	0.500027
C59	C	-0.340963	-0.780629	0.000026
C60	C	0.159037	-0.280629	0.500026
C61	C	-0.314569	-0.852372	0.000043
C62	C	0.185431	-0.352372	0.500043
C63	C	-0.255130	-0.853344	0.000068
C64	C	0.244870	-0.353344	0.500068
N65	N	-0.228732	-0.925083	0.000075
N66	N	0.271268	-0.425083	0.500075
C67	C	-0.261785	-0.995845	0.000082
C68	C	0.238215	-0.495845	0.500082
C69	C	-0.617774	-0.847388	0.000039
C70	C	-0.117774	-0.347388	0.500039
C71	C	-0.677223	-0.846410	0.000045
C72	C	-0.177223	-0.346410	0.500045
C73	C	-0.683878	-0.988916	0.000060
C74	C	-0.183878	-0.488916	0.500060
C75	C	-0.624428	-0.989894	0.000061
C76	C	-0.124428	-0.489894	0.500061
C77	C	-0.591376	-0.919127	0.000047
C78	C	-0.091376	-0.419127	0.500047
C79	C	-0.136940	-0.997889	0.000100
C80	C	0.363060	-0.497889	0.500100
C81	C	-0.077487	-0.998858	0.000112
C82	C	0.422513	-0.498858	0.500112
C83	C	-0.070837	-0.856352	0.000093
C84	C	0.429163	-0.356352	0.500093
C85	C	-0.130285	-0.855382	0.000085
C86	C	0.369715	-0.355382	0.500085
C87	C	-0.163336	-0.926157	0.000086
C88	C	0.336664	-0.426157	0.500086
O89	O	-0.221508	-0.793287	0.000090
O90	O	0.278492	-0.293287	0.500090
O91	O	-0.233865	-1.056945	0.000078
O92	O	0.266135	-0.556945	0.500078
C93	C	0.226447	-0.916121	0.000059
C94	C	0.726447	-0.416121	0.500059
C95	C	0.289719	-0.917172	0.000047
C96	C	0.789719	-0.417172	0.500047
N97	N	0.129659	-0.912219	0.204845
N98	N	0.629659	-0.412219	0.704845
C99	C	0.163453	-0.642483	0.000046
C100	C	0.663453	-0.142483	0.500046
C101	C	0.158445	-0.560969	0.000059
C102	C	0.658445	-0.060969	0.500059
C103	C	0.104532	-0.529932	0.000075
C104	C	0.604532	-0.029932	0.500075
C105	C	0.055624	-0.580414	0.000087
C106	C	0.555624	-0.080414	0.500087
C107	C	0.060632	-0.661927	0.000080
C108	C	0.560632	-0.161927	0.500080
C109	C	0.086837	-0.284304	0.000102
C110	C	0.586837	0.215696	0.500102
C111	C	0.081832	-0.202786	0.000106
C112	C	0.581832	0.297214	0.500106
C113	C	0.184654	-0.183345	0.000080
C114	C	0.684654	0.316655	0.500080
C115	C	0.189658	-0.264860	0.000068
C116	C	0.689658	0.235140	0.500068
C117	C	0.140750	-0.315335	0.000084
C118	C	0.640750	0.184665	0.500084
C119	C	0.099412	-0.446612	0.000086
C120	C	0.599412	0.053388	0.500086
C121	C	0.145871	-0.398653	0.000080
C122	C	0.645871	0.101347	0.500080
N123	N	0.115622	-0.933055	-0.204685
N124	N	0.615622	-0.433055	0.295315
C125	C	0.095101	-0.963369	0.250134
C126	C	0.595101	-0.463369	0.750134
C127	C	0.098208	-0.958774	0.340706
C128	C	0.598208	-0.458774	0.840706
C129	C	0.135876	-0.903033	0.385987
C130	C	0.635876	-0.403033	0.885987
C131	C	0.170435	-0.851877	0.340691
C132	C	0.670435	-0.351877	0.840691
C133	C	0.167324	-0.856469	0.250121
C134	C	0.667324	-0.356469	0.750121
C135	C	0.147071	-0.886491	0.659450
C136	C	0.647071	-0.386491	1.159450
C137	C	0.150180	-0.881905	0.750026
C138	C	0.650180	-0.381905	1.250026
C139	C	0.077952	-0.988801	0.750034
C140	C	0.577952	-0.488801	1.250034
C141	C	0.074848	-0.993391	0.659462
C142	C	0.574848	-0.493391	1.159462
C143	C	0.109404	-0.942233	0.614175
C144	C	0.609404	-0.442233	1.114175
C145	C	0.139054	-0.898336	0.478566
C146	C	0.639054	-0.398336	0.978566
C147	C	0.106223	-0.946927	0.521598
C148	C	0.606223	-0.446927	1.021598
H149	H	-0.055999	-1.057282	0.000128
H150	H	0.444001	-0.557282	0.500128
H151	H	-0.314056	-0.723001	0.000014
H152	H	0.185944	-0.223001	0.500014
Cl153	Cl	0.047748	-1.033451	0.193219
Cl154	Cl	0.547748	-0.533451	0.693219
Cl155	Cl	-0.012153	-0.541397	0.000112
Cl156	Cl	0.487847	-0.041397	0.500112
Cl157	Cl	-0.163468	-0.765189	0.000081
Cl158	Cl	0.336532	-0.265189	0.500081
H159	H	0.044176	-1.038780	0.622596
H160	H	0.544176	-0.538780	1.122596
H161	H	0.049817	-1.030451	0.786915
H162	H	0.549817	-0.530451	1.286915
Cl163	Cl	-0.591252	-1.080088	0.000080
Cl164	Cl	-0.091252	-0.580088	0.500080
H165	H	0.070069	-1.000424	0.377580
H166	H	0.570069	-0.500424	0.877580
Cl167	Cl	-0.455277	-1.153625	0.000090
Cl168	Cl	0.044723	-0.653625	0.500090
Cl169	Cl	0.231232	-0.681491	0.000021
Cl170	Cl	0.731232	-0.181491	0.500021
Cl171	Cl	0.217786	-0.781797	0.397614
Cl172	Cl	0.717786	-0.281797	0.897614
Cl173	Cl	0.257436	-0.303871	0.000042
Cl174	Cl	0.757436	0.196129	0.500042
H175	H	0.198268	-0.519874	0.000051
H176	H	0.698268	-0.019874	0.500051
Cl177	Cl	0.197539	-0.811824	0.806945
Cl178	Cl	0.697539	-0.311824	1.306945
H179	H	0.175209	-0.844838	0.622584
H180	H	0.675209	-0.344838	1.122584
Cl181	Cl	0.210768	-0.792160	0.193187
Cl182	Cl	0.710768	-0.292160	0.693187
H183	H	-0.698708	-0.787989	0.000047
H184	H	-0.198708	-0.287989	0.500047
Cl185	Cl	0.246134	-0.119887	0.000063
Cl186	Cl	0.746134	0.380113	0.500063
Cl187	Cl	0.031637	-0.407588	0.000102
Cl188	Cl	0.531637	0.092412	0.500102
Cl189	Cl	-0.433585	-0.689449	0.000001
Cl190	Cl	0.066415	-0.189449	0.500001
H191	H	0.075552	-0.992309	0.484727
H192	H	0.575552	-0.492309	0.984727
H193	H	0.169725	-0.852952	0.515441
H194	H	0.669725	-0.352952	1.015441
H195	H	0.037928	-0.177520	0.000118
H196	H	0.537928	0.322480	0.500118
Cl197	Cl	-0.321116	-1.155828	0.000084
Cl198	Cl	0.178884	-0.655828	0.500084
Cl199	Cl	-0.178480	-1.086864	0.000103
Cl200	Cl	0.321520	-0.586864	0.500103
H201	H	0.047013	-0.325391	0.000116
H202	H	0.547013	0.174609	0.500116
H203	H	-0.710801	-1.046535	0.000062
H204	H	-0.210801	-0.546535	0.500062
Cl205	Cl	-0.000850	-0.725383	0.000096
Cl206	Cl	0.499150	-0.225383	0.500096
H207	H	-0.590866	-0.789757	0.000035
H208	H	-0.090866	-0.289757	0.500035
Cl209	Cl	0.213645	-0.437672	0.000063
Cl210	Cl	0.713645	0.062328	0.500063
H211	H	-0.043915	-0.798739	0.000090
H212	H	0.456085	-0.298739	0.500090
