data_functionalizedCrystal
_audit_creation_method	'MofGen! by Chris Wilmer'
_symmetry_space_group_name_H-M	'P1'
_symmetry_Int_Tables_number	1
_symmetry_cell_setting	triclinic
loop_
_symmetry_equiv_pos_as_xyz
  x,y,z
_cell_length_a	27.731994
_cell_length_b	27.731996
_cell_length_c	22.010155
_cell_angle_alpha	89.998256
_cell_angle_beta	89.997700
_cell_angle_gamma	82.620961
loop_
_atom_site_label
_atom_site_type_symbol
_atom_site_fract_x
_atom_site_fract_y
_atom_site_fract_z
O1	O	0.640937	0.057387	-0.050446
O2	O	0.500138	0.066160	-0.050468
O3	O	0.574924	-0.008626	-0.050443
O4	O	0.566152	0.132173	-0.050471
O5	O	0.574910	-0.008615	0.050607
O6	O	0.500125	0.066171	0.050583
O7	O	0.640924	0.057398	0.050604
Cu8	Cu	0.570523	0.061786	0.059820
Cu9	Cu	0.570539	0.061773	-0.059684
O10	O	0.566138	0.132184	0.050580
C11	C	0.482124	0.065986	0.000055
C12	C	0.428468	0.065443	0.000048
C13	C	0.095743	0.062034	0.055154
C14	C	-0.105915	0.059972	0.055161
O15	O	-0.131994	0.059690	0.102007
N16	N	-0.131122	0.059710	0.000079
C17	C	-0.105912	0.059960	-0.055009
O18	O	-0.131979	0.059685	-0.101860
C19	C	0.095746	0.062018	-0.055016
C20	C	0.120950	0.062285	0.000070
C21	C	0.120947	0.062300	0.110236
C22	C	0.171358	0.062818	0.110233
C23	C	0.196565	0.063070	0.055149
C24	C	0.171361	0.062803	0.000068
C25	C	0.120956	0.062265	-0.110103
C26	C	0.171373	0.062778	-0.110100
C27	C	0.196577	0.063045	-0.055014
C28	C	0.246979	0.063573	-0.055018
N29	N	0.272186	0.063835	0.000064
C30	C	0.246979	0.063583	0.055148
C31	C	-0.211785	0.058880	-0.055002
C32	C	-0.262199	0.058367	-0.055000
C33	C	-0.262199	0.058378	0.055171
C34	C	-0.211784	0.058895	0.055168
C35	C	-0.186578	0.059142	0.000081
C36	C	0.352846	0.064672	0.055139
C37	C	0.403261	0.065192	0.055131
C38	C	0.403257	0.065178	-0.055039
C39	C	0.352845	0.064660	-0.055032
C40	C	0.327642	0.064406	0.000062
O41	O	0.273089	0.063850	-0.101839
O42	O	0.273056	0.063848	0.101992
C43	C	0.045332	0.061516	0.055157
C44	C	0.020127	0.061249	0.000075
C45	C	0.045334	0.061501	-0.055009
C46	C	-0.030287	0.060735	0.000076
C47	C	-0.055494	0.060484	0.055160
C48	C	-0.030286	0.060746	0.110243
C49	C	0.020125	0.061264	0.110240
C50	C	0.020127	0.061238	-0.110091
C51	C	-0.030284	0.060721	-0.110085
C52	C	-0.055491	0.060469	-0.055001
C53	C	0.574737	-0.026628	0.000084
C54	C	0.574194	-0.080284	0.000090
C55	C	0.570787	-0.413005	-0.055023
C56	C	0.568726	-0.614663	-0.055034
O57	O	0.568445	-0.640739	-0.101880
N58	N	0.568462	-0.639874	0.000048
C59	C	0.568711	-0.614667	0.055137
O60	O	0.568435	-0.640737	0.101987
C61	C	0.570768	-0.413010	0.055147
C62	C	0.571037	-0.387802	0.000062
C63	C	0.571054	-0.387798	-0.110104
C64	C	0.571572	-0.337387	-0.110100
C65	C	0.571822	-0.312183	-0.055016
C66	C	0.571555	-0.337391	0.000065
C67	C	0.571014	-0.387803	0.110235
C68	C	0.571527	-0.337386	0.110233
C69	C	0.571795	-0.312178	0.055148
C70	C	0.572323	-0.261777	0.055153
N71	N	0.572586	-0.236566	0.000071
C72	C	0.572336	-0.261769	-0.055013
C73	C	0.567632	-0.720540	0.055128
C74	C	0.567118	-0.770955	0.055125
C75	C	0.567132	-0.770947	-0.055046
C76	C	0.567649	-0.720532	-0.055042
C77	C	0.567895	-0.695329	0.000046
C78	C	0.573424	-0.155902	-0.055002
C79	C	0.573944	-0.105487	-0.054994
C80	C	0.573928	-0.105499	0.055176
C81	C	0.573410	-0.155910	0.055168
C82	C	0.573157	-0.181110	0.000074
O83	O	0.572599	-0.235669	0.101974
O84	O	0.572602	-0.235689	-0.101857
C85	C	0.570269	-0.463417	-0.055026
C86	C	0.570001	-0.488624	0.000055
C87	C	0.570251	-0.463421	0.055140
C88	C	0.569487	-0.539039	0.000053
C89	C	0.569237	-0.564242	-0.055032
C90	C	0.569501	-0.539031	-0.110114
C91	C	0.570019	-0.488620	-0.110110
C92	C	0.569988	-0.488632	0.110222
C93	C	0.569470	-0.539043	0.110214
C94	C	0.569220	-0.564247	0.055129
C95	C	0.658938	0.057573	0.000080
C96	C	0.712594	0.058115	0.000084
C97	C	0.566325	0.150186	0.000051
C98	C	0.566868	0.203842	0.000041
N99	N	0.570515	0.061795	0.143873
N100	N	0.570551	0.061760	-0.143736
C101	C	0.603656	0.028662	0.563663
C102	C	0.603658	0.028659	0.627270
O103	O	0.631816	0.000494	0.660171
N104	N	0.570539	0.061762	0.659080
C105	C	0.537412	0.094868	0.627278
O106	O	0.509241	0.123025	0.660175
C107	C	0.537408	0.094869	0.563672
C108	C	0.570532	0.061766	0.531866
C109	C	0.636778	-0.004438	0.531857
C110	C	0.636776	-0.004434	0.468254
C111	C	0.603652	0.028670	0.436456
C112	C	0.570531	0.061770	0.468262
C113	C	0.504279	0.127972	0.531871
C114	C	0.504277	0.127970	0.468260
C115	C	0.537402	0.094867	0.436454
C116	C	0.537405	0.094879	0.372862
N117	N	0.570525	0.061775	0.341053
C118	C	0.603648	0.028671	0.372850
C119	C	0.537422	0.094864	0.760856
C120	C	0.537429	0.094866	0.824461
C121	C	0.603674	0.028655	0.824449
C122	C	0.603670	0.028656	0.760843
C123	C	0.570542	0.061760	0.729047
C124	C	0.603642	0.028682	0.239279
C125	C	0.603639	0.028690	0.175670
C126	C	0.537391	0.094899	0.175687
C127	C	0.537396	0.094893	0.239291
C128	C	0.570523	0.061780	0.271085
O129	O	0.509260	0.123028	0.339921
O130	O	0.631810	0.000514	0.339945
H131	H	0.100443	0.062047	-0.154960
H132	H	0.630643	0.001701	0.734950
Br133	Br	-0.177584	0.059257	0.129930
H134	H	0.423789	0.065385	-0.099887
H135	H	0.574163	-0.084965	-0.099853
H136	H	0.332322	0.064451	-0.099888
Br137	Br	0.459321	0.172899	0.575023
Br138	Br	-0.296418	0.058036	0.129927
Br139	Br	0.205556	0.063178	0.184997
Br140	Br	0.648628	-0.016272	0.867616
Br141	Br	0.437463	0.065557	0.129896
Br142	Br	0.492480	0.139800	0.867619
Br143	Br	0.569165	-0.573246	-0.184870
H144	H	0.191894	0.062980	-0.154960
H145	H	0.571720	-0.316867	0.155094
H146	H	0.566929	-0.791476	-0.099897
H147	H	0.040642	0.061481	0.155097
Br148	Br	-0.064506	0.060408	0.184999
Br149	Br	0.574268	-0.071285	0.129930
H150	H	0.510428	0.121852	0.265188
Br151	Br	0.573057	-0.190123	0.129928
H152	H	0.630615	0.001734	0.149775
Br153	Br	0.054328	0.061578	-0.184856
H154	H	0.663751	-0.031398	0.557740
H155	H	0.570237	-0.468100	-0.154967
Br156	Br	0.573080	-0.190095	-0.129774
H157	H	-0.191266	0.059081	-0.099863
H158	H	0.571789	-0.316867	-0.154957
Br159	Br	-0.064484	0.060363	-0.184852
H160	H	-0.282717	0.058157	-0.099857
Br161	Br	0.567961	-0.686343	0.129898
H162	H	0.570849	-0.408313	-0.154962
Br163	Br	0.568013	-0.686327	-0.129804
H164	H	0.510424	0.121854	0.149788
Br165	Br	0.569110	-0.573248	0.184980
H166	H	0.566907	-0.791476	0.099982
Br167	Br	0.570322	-0.454435	0.184987
Br168	Br	0.492461	0.139798	0.717710
Br169	Br	0.648601	-0.016257	0.282417
H170	H	0.570796	-0.408319	0.155092
H171	H	0.477298	0.154927	0.442375
H172	H	0.663747	-0.031391	0.442361
H173	H	0.100429	0.062094	0.155094
Br174	Br	0.318649	0.064324	0.129909
