data_functionalizedCrystal
_audit_creation_method	'MofGen! by Chris Wilmer'
_symmetry_space_group_name_H-M	'P1'
_symmetry_Int_Tables_number	1
_symmetry_cell_setting	triclinic
loop_
_symmetry_equiv_pos_as_xyz
  x,y,z
_cell_length_a	6.817900
_cell_length_b	16.417825
_cell_length_c	11.102182
_cell_angle_alpha	93.889239
_cell_angle_beta	108.603774
_cell_angle_gamma	103.385495
loop_
_atom_site_label
_atom_site_type_symbol
_atom_site_fract_x
_atom_site_fract_y
_atom_site_fract_z
V1	V	-4.084988	-0.115894	-0.396703
V2	V	-3.584988	0.384106	0.103297
O3	O	-4.071819	0.005560	-0.388693
O4	O	-3.571819	0.505560	0.111307
O5	O	-4.035698	-0.229790	-0.394431
O6	O	-3.535698	0.270210	0.105569
O7	O	-4.062169	-0.114115	-0.569518
O8	O	-3.562169	0.385885	-0.069518
O9	O	-4.045164	-0.110915	-0.212394
O10	O	-3.545164	0.389085	0.287606
V11	V	-4.565417	-0.101366	-0.374605
V12	V	-4.065417	0.398634	0.125395
O13	O	-4.353035	-0.147762	-0.445178
O14	O	-3.853035	0.352238	0.054822
O15	O	-4.747568	-0.069498	-0.326130
O16	O	-4.247568	0.430502	0.173870
O17	O	-4.391501	0.012529	-0.376877
O18	O	-3.891501	0.512529	0.123123
O19	O	-4.695983	-0.222821	-0.382615
O20	O	-4.195983	0.277179	0.117385
O21	O	-4.722638	-0.106345	-0.558914
O22	O	-4.222638	0.393655	-0.058914
O23	O	-4.365030	-0.103145	-0.201790
O24	O	-3.865030	0.396855	0.298210
C25	C	-3.879654	-0.257555	-0.388286
C26	C	-3.379654	0.242445	0.111714
C27	C	-3.920811	-0.350666	-0.387580
C28	C	-3.420811	0.149334	0.112420
C29	C	-3.958124	-0.552928	-0.269550
C30	C	-3.458124	-0.052928	0.230450
C31	C	-3.996819	-0.640417	-0.268896
C32	C	-3.496819	-0.140417	0.231104
C33	C	-4.111663	-0.664333	-0.501772
C34	C	-3.611663	-0.164333	-0.001772
C35	C	-4.072983	-0.576845	-0.502425
C36	C	-3.572983	-0.076845	-0.002425
C37	C	-3.996202	-0.521144	-0.386309
C38	C	-3.496202	-0.021144	0.113691
C39	C	-4.073578	-0.696121	-0.385003
C40	C	-3.573578	-0.196121	0.114997
C41	C	-4.115533	-0.790981	-0.384296
C42	C	-3.615533	-0.290981	0.115704
C43	C	-3.954248	-0.426278	-0.387017
C44	C	-3.454248	0.073722	0.112983
C45	C	-3.913420	-0.110000	-0.611626
C46	C	-3.413420	0.390000	-0.111626
C47	C	-3.976041	-0.109299	-0.752906
C48	C	-3.476041	0.390701	-0.252906
C49	C	-4.048075	-0.185668	-0.837735
C50	C	-3.548075	0.314332	-0.337735
C51	C	-4.106932	-0.184999	-0.970481
C52	C	-3.606932	0.315001	-0.470481
C53	C	-4.021702	-0.031585	-0.933555
C54	C	-3.521702	0.468415	-0.433555
C55	C	-3.962861	-0.032255	-0.800812
C56	C	-3.462861	0.467745	-0.300812
C57	C	-4.061254	-0.262712	-0.789829
C58	C	-3.561254	0.237288	-0.289829
C59	C	-4.133290	-0.339088	-0.874659
C60	C	-3.633290	0.160912	-0.374659
C61	C	-4.192147	-0.338419	-1.007405
C62	C	-3.692147	0.161581	-0.507405
C63	C	-4.178968	-0.261374	-1.055320
C64	C	-3.678968	0.238626	-0.555320
C65	C	-4.210886	0.040290	-0.383018
C66	C	-3.710886	0.540290	0.116982
C67	C	-4.148969	0.133401	-0.383732
C68	C	-3.648969	0.633401	0.116268
C69	C	-4.177120	-0.107263	-0.159675
C70	C	-3.677120	0.392737	0.340325
C71	C	-4.093738	-0.107960	-0.018394
C72	C	-3.593738	0.392040	0.481606
H73	H	-4.104005	-0.550968	-0.597511
H74	H	-3.604005	-0.050968	-0.097511
H75	H	-4.174178	-0.709694	-0.596309
H76	H	-3.674178	-0.209694	-0.096309
H77	H	-3.895605	-0.507578	-0.175001
H78	H	-3.395605	-0.007578	0.324999
H79	H	-4.013328	-0.263265	-0.681742
H80	H	-3.513328	0.236735	-0.181742
H81	H	-3.965811	-0.666290	-0.173819
H82	H	-3.465811	-0.166290	0.326181
H83	H	-4.010976	0.031141	-0.972578
H84	H	-3.510976	0.531141	-0.472578
H85	H	-4.144031	-0.401814	-0.835638
H86	H	-3.644031	0.098186	-0.335638
H87	H	-4.250818	-0.400608	-1.076472
H88	H	-3.750818	0.099392	-0.576472
H89	H	-4.226885	-0.260836	-1.163412
H90	H	-3.726885	0.239164	-0.663412
H91	H	-3.904206	0.029932	-0.731741
H92	H	-3.404206	0.529932	-0.231741
