data_functionalizedCrystal
_audit_creation_method	'MofGen! by Chris Wilmer'
_symmetry_space_group_name_H-M	'P1'
_symmetry_Int_Tables_number	1
_symmetry_cell_setting	triclinic
loop_
_symmetry_equiv_pos_as_xyz
  x,y,z
_cell_length_a	11.169416
_cell_length_b	12.759401
_cell_length_c	12.759393
_cell_angle_alpha	89.979527
_cell_angle_beta	89.974719
_cell_angle_gamma	90.014613
loop_
_atom_site_label
_atom_site_type_symbol
_atom_site_fract_x
_atom_site_fract_y
_atom_site_fract_z
Zn1	Zn	0.477694	-1.606273	0.594062
Zn2	Zn	0.678425	-1.606171	0.418400
Zn3	Zn	0.477759	-1.430573	0.418397
Zn4	Zn	0.678339	-1.430569	0.594037
O5	O	0.578054	-1.518397	0.506224
O6	O	0.504329	-1.753281	0.570772
O7	O	0.651869	-1.582836	0.271379
O8	O	0.309801	-1.453925	0.441709
O9	O	0.651806	-1.753205	0.441714
O10	O	0.309753	-1.583011	0.570769
O11	O	0.504442	-1.453826	0.271377
O12	O	0.504358	-1.283552	0.441685
O13	O	0.651659	-1.453917	0.741062
O14	O	0.651723	-1.283548	0.570727
O15	O	0.504246	-1.583007	0.741080
O16	O	0.846363	-1.582832	0.441689
O17	O	0.846300	-1.453818	0.570729
C18	C	0.889879	-1.518342	0.506230
C19	C	1.023279	-1.518415	0.506267
C20	C	0.578039	-1.245429	0.506203
C21	C	0.578062	-1.128653	0.506219
C22	C	0.577936	-1.518473	0.780258
C23	C	0.577885	-1.518506	0.897034
C24	C	1.265012	-1.518470	0.506253
C25	C	1.131612	-1.518474	0.506293
C26	C	0.578070	-1.792430	0.506246
C27	C	0.578076	-1.909207	0.506255
C28	C	0.654912	-1.073816	0.573306
C29	C	0.654916	-0.964092	0.573327
C30	C	0.501218	-0.964050	0.439166
C31	C	0.501209	-1.073772	0.439151
C32	C	0.578085	-1.518381	0.233257
C33	C	0.577798	-1.518552	0.116481
C34	C	0.501070	-1.585749	1.061639
C35	C	0.501116	-1.585729	0.951915
C36	C	0.654622	-1.451306	0.951884
C37	C	0.654580	-1.451332	1.061606
H38	H	0.717488	-1.118497	0.627920
H39	H	0.438638	-1.640449	0.907267
C40	C	0.738088	-1.378430	1.121018
C41	C	0.856843	-1.401254	1.094296
C42	C	0.933804	-1.334116	1.148993
H43	H	0.727236	-1.388007	1.194240
H44	H	0.720600	-1.307821	1.103009
H45	H	0.874326	-1.471846	1.112312
H46	H	0.867734	-1.391670	1.021083
H47	H	0.916316	-1.263507	1.130984
H48	H	0.922941	-1.343699	1.222212
H49	H	1.014387	-1.349587	1.130862
H50	H	0.717493	-0.919450	0.627957
C51	C	0.417914	-0.904274	0.366389
C52	C	0.434391	-0.796446	0.380740
C53	C	0.357681	-0.741351	0.313705
H54	H	0.337247	-0.922150	0.381816
H55	H	0.435388	-0.922157	0.295747
H56	H	0.416908	-0.778571	0.451366
H57	H	0.515042	-0.778539	0.365306
H58	H	0.375155	-0.759234	0.243063
H59	H	0.277019	-0.759236	0.329137
H60	H	0.368858	-0.668185	0.323426
H61	H	0.438621	-1.118421	0.384521
C62	C	0.737926	-1.378159	0.892448
C63	C	0.711815	-1.274220	0.919149
C64	C	0.788549	-1.206810	0.864435
H65	H	0.727051	-1.387617	0.819228
H66	H	0.818572	-1.393470	0.910459
H67	H	0.631188	-1.258914	0.901131
H68	H	0.722696	-1.264729	0.992359
H69	H	0.869195	-1.222121	0.882446
H70	H	0.777668	-1.216278	0.791219
H71	H	0.770851	-1.136281	0.882551
C72	C	0.417672	-1.658851	1.121029
C73	C	0.350511	-1.717715	1.049510
C74	C	0.273684	-1.785081	1.104178
H75	H	0.365250	-1.618805	1.163835
H76	H	0.463544	-1.704681	1.163810
H77	H	0.304642	-1.671890	1.006747
H78	H	0.402900	-1.757781	1.006701
H79	H	0.319557	-1.830911	1.146959
H80	H	0.221271	-1.745027	1.146983
H81	H	0.228115	-1.825034	1.055661
