data_functionalizedCrystal
_audit_creation_method	'MofGen! by Chris Wilmer'
_symmetry_space_group_name_H-M	'P1'
_symmetry_Int_Tables_number	1
_symmetry_cell_setting	triclinic
loop_
_symmetry_equiv_pos_as_xyz
  x,y,z
_cell_length_a	9.065218
_cell_length_b	17.699083
_cell_length_c	7.540329
_cell_angle_alpha	89.995522
_cell_angle_beta	89.996962
_cell_angle_gamma	84.149450
loop_
_atom_site_label
_atom_site_type_symbol
_atom_site_fract_x
_atom_site_fract_y
_atom_site_fract_z
O1	O	1.957110	0.110973	-0.147491
O2	O	1.527555	0.120075	-0.147494
O3	O	1.754468	0.005430	-0.147477
O4	O	1.730196	0.225619	-0.147508
O5	O	1.754455	0.005428	0.147488
O6	O	1.527542	0.120074	0.147471
O7	O	1.957096	0.110971	0.147474
Cu8	Cu	1.742318	0.115522	0.174405
Cu9	Cu	1.742334	0.115524	-0.174425
O10	O	1.730183	0.225617	0.147457
C11	C	1.472588	0.119200	-0.000012
C12	C	1.308822	0.116584	-0.000012
C13	C	1.753592	-0.022775	0.000006
C14	C	1.750983	-0.106813	0.000007
C15	C	1.884176	-0.154396	0.000010
C16	C	1.881716	-0.233358	-0.000006
C17	C	1.746060	-0.264737	-0.000012
C18	C	1.612857	-0.217149	-0.000021
C19	C	1.615319	-0.138188	-0.000018
C20	C	1.602925	-0.535589	-0.000035
C21	C	1.600474	-0.614556	-0.000033
C22	C	1.869322	-0.630760	-0.000023
C23	C	1.871784	-0.551799	-0.000020
C24	C	1.738581	-0.504217	-0.000038
C25	C	1.741251	-0.418597	-0.000025
C26	C	1.743390	-0.350355	-0.000013
C27	C	2.012064	0.111847	-0.000012
C28	C	2.175829	0.114463	-0.000023
C29	C	1.731059	0.253822	-0.000030
C30	C	1.733669	0.337860	-0.000042
N31	N	1.742317	0.115521	0.419754
N32	N	1.742346	0.115520	-0.419774
H33	H	1.994642	-0.128854	0.000026
H34	H	1.490001	-0.640101	-0.000035
H35	H	1.502404	-0.242703	-0.000037
H36	H	1.494463	-0.496857	-0.000050
O37	O	1.485839	-0.092041	-0.000255
C38	C	1.403487	-0.106388	-0.153047
H39	H	1.439925	-0.166022	-0.203972
H40	H	1.423519	-0.063069	-0.260020
C41	C	1.192495	-0.026776	-0.044108
C42	C	1.237240	-0.100022	-0.106646
H43	H	1.089945	-0.022846	-0.015490
H44	H	1.247978	-0.017107	0.058829
H45	H	1.209201	0.009315	-0.133262
H46	H	1.220551	-0.136111	-0.017484
H47	H	1.181750	-0.109697	-0.209567
O48	O	1.998817	-0.676905	-0.000264
C49	C	2.081192	-0.662543	-0.153044
H50	H	2.044754	-0.602905	-0.203969
H51	H	2.061184	-0.705855	-0.260023
C52	C	2.292175	-0.742156	-0.044083
C53	C	2.247430	-0.668905	-0.106621
H54	H	2.394720	-0.746084	-0.015452
H55	H	2.236677	-0.751834	0.058845
H56	H	2.275490	-0.778241	-0.133243
H57	H	2.264099	-0.632823	-0.017454
H58	H	2.302935	-0.659221	-0.209533
H59	H	1.990175	-0.272097	0.000001
H60	H	1.982248	-0.526255	-0.000006
