data_functionalizedCrystal
_audit_creation_method	'MofGen! by Chris Wilmer'
_symmetry_space_group_name_H-M	'P1'
_symmetry_Int_Tables_number	1
_symmetry_cell_setting	triclinic
loop_
_symmetry_equiv_pos_as_xyz
  x,y,z
_cell_length_a	12.759395
_cell_length_b	12.827892
_cell_length_c	12.827885
_cell_angle_alpha	90.029786
_cell_angle_beta	89.981133
_cell_angle_gamma	89.983071
loop_
_atom_site_label
_atom_site_type_symbol
_atom_site_fract_x
_atom_site_fract_y
_atom_site_fract_z
Zn1	Zn	1.606247	0.415940	-0.590837
Zn2	Zn	1.606140	0.590717	-0.416098
Zn3	Zn	1.430550	0.415995	-0.416112
Zn4	Zn	1.430535	0.590644	-0.590799
O5	O	1.518368	0.503324	-0.503462
O6	O	1.753254	0.439131	-0.567668
O7	O	1.582809	0.567594	-0.269864
O8	O	1.453907	0.269752	-0.439312
O9	O	1.753175	0.567540	-0.439287
O10	O	1.582991	0.269711	-0.567682
O11	O	1.453804	0.439226	-0.269874
O12	O	1.283527	0.439156	-0.439275
O13	O	1.453882	0.567415	-0.737040
O14	O	1.283516	0.567469	-0.567616
O15	O	1.582976	0.439061	-0.737068
O16	O	1.582795	0.736943	-0.439250
O17	O	1.453779	0.736890	-0.567602
C18	C	1.518302	0.774834	-0.503443
C19	C	1.518370	0.890987	-0.503470
C20	C	1.245400	0.503311	-0.503444
C21	C	1.128624	0.503331	-0.503461
C22	C	1.518439	0.503224	-0.776032
C23	C	1.518470	0.503181	-0.892185
C24	C	1.128651	0.637160	-0.636887
C25	C	1.073804	0.704083	-0.703602
C26	C	0.964082	0.704096	-0.703615
C27	C	0.909205	0.637176	-0.636907
C28	C	0.964052	0.570253	-0.570191
C29	C	1.073777	0.570250	-0.570183
C30	C	0.964025	0.436420	-0.436772
C31	C	1.073747	0.436411	-0.436753
C32	C	0.909148	0.369501	-0.370064
C33	C	0.963995	0.302582	-0.303341
C34	C	1.073724	0.302573	-0.303331
C35	C	1.128594	0.369489	-0.370037
C36	C	1.792401	0.503337	-0.503480
C37	C	1.909178	0.503343	-0.503488
C38	C	1.518463	0.230754	-0.503503
C39	C	1.518503	0.114601	-0.503521
C40	C	1.582287	0.942764	-0.440028
C41	C	1.582359	1.062814	-0.440054
C42	C	1.582357	0.439654	-0.943984
C43	C	1.582390	0.439609	-1.064034
C44	C	1.518357	0.503348	-0.231952
C45	C	1.518530	0.503097	-0.115799
H46	H	1.217992	0.637164	-0.636875
O47	O	1.654716	0.883772	-0.368053
H48	H	1.737189	0.904581	-0.386050
O49	O	1.654781	0.367659	-0.885003
H50	H	1.636813	0.285612	-0.905893
H51	H	0.819864	0.637183	-0.636933
O52	O	1.132983	0.776257	-0.775558
H53	H	1.111956	0.758425	-0.857603
H54	H	1.637089	0.385225	-1.108580
O55	O	1.246937	0.369488	-0.370026
H56	H	1.275860	0.311717	-0.312424
O57	O	1.654852	1.121776	-0.368098
H58	H	1.737303	1.100788	-0.386070
H59	H	1.463835	0.557491	-1.071260
H60	H	0.819807	0.369512	-0.370084
H61	H	1.463792	0.557527	-0.936715
H62	H	1.463774	1.070082	-0.557835
H63	H	0.919426	0.758585	-0.757946
O64	O	0.904796	0.230435	-0.231385
H65	H	0.854827	0.177335	-0.278250
O66	O	1.132881	0.230402	-0.231361
H67	H	1.076284	0.183885	-0.184974
O68	O	1.445942	0.949989	-0.575437
H69	H	1.493006	0.999646	-0.628607
