data_functionalizedCrystal
_audit_creation_method	'MofGen! by Chris Wilmer'
_symmetry_space_group_name_H-M	'P1'
_symmetry_Int_Tables_number	1
_symmetry_cell_setting	triclinic
loop_
_symmetry_equiv_pos_as_xyz
  x,y,z
_cell_length_a	19.188930
_cell_length_b	19.188930
_cell_length_c	17.666332
_cell_angle_alpha	89.988397
_cell_angle_beta	90.023234
_cell_angle_gamma	96.855221
loop_
_atom_site_label
_atom_site_type_symbol
_atom_site_fract_x
_atom_site_fract_y
_atom_site_fract_z
O1	O	0.926150	-0.087169	0.063200
O2	O	0.722838	-0.098903	0.063149
O3	O	0.830361	0.008620	0.063161
O4	O	0.818627	-0.194692	0.063188
O5	O	0.830342	0.008625	-0.062735
O6	O	0.722820	-0.098897	-0.062747
O7	O	0.926131	-0.087163	-0.062697
Cu8	Cu	0.824473	-0.093030	-0.074217
Cu9	Cu	0.824496	-0.093036	0.074670
O10	O	0.818608	-0.194686	-0.062709
C11	C	0.696818	-0.098520	0.000194
C12	C	0.619313	-0.097380	0.000174
C13	C	0.829972	0.034634	0.000211
C14	C	0.828831	0.112138	0.000204
N15	N	0.824463	-0.093025	-0.178937
C16	C	0.574389	-0.160470	0.000194
C17	C	0.501566	-0.159399	0.000203
C18	C	0.473669	-0.095233	0.000206
C19	C	0.518603	-0.032133	0.000181
C20	C	0.591425	-0.033207	0.000166
N21	N	0.365695	-0.046188	0.043078
N22	N	0.296517	-0.045172	0.043095
C23	C	0.254260	-0.091994	0.000252
N24	N	0.283795	-0.139881	-0.042599
N25	N	0.352979	-0.140899	-0.042612
C26	C	0.394707	-0.094062	0.000222
C27	C	0.130372	-0.153928	0.000280
C28	C	0.057547	-0.152853	0.000283
C29	C	0.074586	-0.025586	0.000270
C30	C	0.147409	-0.026662	0.000258
C31	C	0.175298	-0.090835	0.000267
C32	C	0.952151	-0.087546	0.000260
C33	C	1.029656	-0.088687	0.000285
C34	C	0.818997	-0.220700	0.000244
C35	C	0.820138	-0.298204	0.000255
C36	C	0.891922	0.157062	0.000216
C37	C	0.890850	0.229886	0.000228
C38	C	0.826684	0.257782	0.000212
C39	C	0.763585	0.212849	0.000205
C40	C	0.764658	0.140026	0.000200
N41	N	0.777630	0.365789	-0.042645
N42	N	0.776615	0.434968	-0.042642
C43	C	0.823446	0.477191	0.000227
N44	N	0.871341	0.447624	0.043084
N45	N	0.872359	0.378439	0.043079
C46	C	0.825513	0.336745	0.000218
C47	C	0.885379	0.601079	0.000253
C48	C	0.884305	0.673904	0.000270
C49	C	0.757038	0.656865	0.000239
C50	C	0.758114	0.584042	0.000230
C51	C	0.822287	0.556154	0.000233
C52	C	0.872089	-0.045437	-0.218541
C53	C	0.872093	-0.045433	-0.297789
C54	C	0.824478	-0.093030	-0.337429
C55	C	0.776842	-0.140621	-0.297815
C56	C	0.776835	-0.140619	-0.218569
N57	N	0.815401	-0.154837	-0.461841
N58	N	0.815413	-0.154837	-0.537121
C59	C	0.824496	-0.093040	-0.576193
N60	N	0.833582	-0.031239	-0.537140
N61	N	0.833574	-0.031240	-0.461853
C62	C	0.824480	-0.093038	-0.423358
C63	C	0.872130	-0.045444	-0.701727
C64	C	0.872129	-0.045440	-0.780976
C65	C	0.776881	-0.140634	-0.781000
C66	C	0.776878	-0.140632	-0.701753
C67	C	0.824506	-0.093038	-0.662121
N68	N	0.824512	-0.093036	0.179390
H69	H	0.597091	-0.212725	0.000203
H70	H	0.704792	0.679578	0.000230
O71	O	0.923506	0.005892	-0.823688
H72	H	0.894232	0.039765	-0.859810
O73	O	0.160454	-0.223141	0.000274
H74	H	0.193246	-0.226684	0.051585
H75	H	0.942228	0.266470	0.000241
O76	O	0.725495	-0.191963	-0.340572
H77	H	0.734224	-0.246368	-0.325333
O78	O	0.954590	0.570994	0.000274
H79	H	0.984896	0.589073	-0.051024
O80	O	0.725545	-0.191991	-0.823748
H81	H	0.692432	-0.225090	-0.782891
O82	O	0.952356	0.722364	0.000276
H83	H	0.997156	0.690734	0.000269
H84	H	0.738099	-0.179386	-0.669505
H85	H	0.183988	0.024713	0.000246
O86	O	0.696604	0.091572	0.000177
H87	H	0.694052	0.057975	0.051488
O88	O	0.923471	0.005916	-0.658978
H89	H	0.915464	-0.002075	-0.597218
O90	O	0.009087	-0.220904	0.000302
H91	H	0.040718	-0.265704	0.000312
O92	O	0.694375	0.242930	0.000179
H93	H	0.704227	0.301116	0.000174
O94	O	0.690066	0.535581	0.000198
H95	H	0.645266	0.567211	0.000180
H96	H	0.464982	-0.210776	0.000217
H97	H	0.495885	0.020111	0.000194
H98	H	0.910869	-0.006681	-0.186275
O99	O	0.044510	0.043625	0.000273
H100	H	-0.013676	0.033773	0.000291
O101	O	0.725470	-0.191953	-0.175845
H102	H	0.692361	-0.225053	-0.216719
H103	H	0.628003	0.018171	0.000150
O104	O	0.923470	0.005888	-0.340520
H105	H	0.956591	0.038979	-0.299648
H106	H	0.944176	0.134360	0.000222
