data_functionalizedCrystal
_audit_creation_method	'MofGen! by Chris Wilmer'
_symmetry_space_group_name_H-M	'P1'
_symmetry_Int_Tables_number	1
_symmetry_cell_setting	triclinic
loop_
_symmetry_equiv_pos_as_xyz
  x,y,z
_cell_length_a	15.944551
_cell_length_b	9.798715
_cell_length_c	10.723024
_cell_angle_alpha	90.001978
_cell_angle_beta	96.016696
_cell_angle_gamma	90.000805
loop_
_atom_site_label
_atom_site_type_symbol
_atom_site_fract_x
_atom_site_fract_y
_atom_site_fract_z
O1	O	1.115445	-0.113345	-0.160932
O2	O	1.448778	0.219988	0.172402
O3	O	1.782111	0.553322	0.505735
O4	O	0.871009	-0.113379	-0.180773
O5	O	1.204342	0.219955	0.152560
O6	O	1.537675	0.553288	0.485893
O7	O	0.998865	-0.113356	0.010795
O8	O	1.332198	0.219977	0.344128
O9	O	1.665532	0.553311	0.677462
O10	O	0.987588	-0.113368	-0.352500
O11	O	1.320922	0.219966	-0.019167
O12	O	1.654255	0.553299	0.314167
O13	O	0.998855	0.113626	0.010795
O14	O	1.332189	0.446959	0.344129
O15	O	1.665522	0.780293	0.677462
O16	O	0.870999	0.113604	-0.180773
O17	O	1.204332	0.446937	0.152560
O18	O	1.537666	0.780270	0.485894
O19	O	1.115435	0.113637	-0.160931
O20	O	1.448768	0.446970	0.172402
O21	O	1.782102	0.780304	0.505735
Zn22	Zn	0.993215	0.149659	-0.170852
Zn23	Zn	1.326549	0.482992	0.162481
Zn24	Zn	1.659882	0.816325	0.495815
Zn25	Zn	0.993228	-0.149400	-0.170853
Zn26	Zn	1.326561	0.183933	0.162481
Zn27	Zn	1.659895	0.517267	0.495814
O28	O	0.987579	0.113615	-0.352500
O29	O	1.320912	0.446948	-0.019166
O30	O	1.654245	0.780281	0.314167
C31	C	0.839705	0.000108	-0.179949
C32	C	1.173038	0.333442	0.153384
C33	C	1.506372	0.666775	0.486717
C34	C	0.746445	0.000095	-0.177480
C35	C	1.079778	0.333429	0.155853
C36	C	1.413112	0.666762	0.489187
N37	N	0.993213	0.353758	-0.170851
N38	N	1.326546	0.687092	0.162482
N39	N	1.659880	1.020425	0.495816
N40	N	0.993237	-0.353500	-0.170844
N41	N	1.326571	-0.020167	0.162490
N42	N	1.659904	0.313167	0.495823
C43	C	0.530875	0.000126	-0.052834
C44	C	0.864208	0.333459	0.280499
C45	C	1.197541	0.666793	0.613832
C46	C	0.470191	-0.111790	-0.110716
C47	C	0.803524	0.221543	0.222618
C48	C	1.136857	0.554876	0.555951
C49	C	0.575693	0.000112	-0.173012
C50	C	0.909027	0.333445	0.160321
C51	C	1.242360	0.666778	0.493654
C52	C	0.470204	0.111996	-0.110744
C53	C	0.803537	0.445330	0.222589
C54	C	1.136870	0.778663	0.555923
C55	C	0.410756	0.000133	-0.168688
C56	C	0.744089	0.333467	0.164645
C57	C	1.077423	0.666800	0.497978
C58	C	0.516238	-0.111897	-0.230927
C59	C	0.849571	0.221437	0.102407
C60	C	1.182904	0.554770	0.435740
C61	C	0.516257	0.111990	-0.230938
C62	C	0.849590	0.445324	0.102395
C63	C	1.182924	0.778657	0.435729
C64	C	0.455591	0.000047	-0.288907
C65	C	0.788924	0.333380	0.044426
C66	C	1.122258	0.666714	0.377760
C67	C	0.670710	0.000098	-0.175500
C68	C	1.004043	0.333431	0.157833
C69	C	1.337377	0.666765	0.491167
C70	C	0.315741	0.000137	-0.166210
C71	C	0.649074	0.333471	0.167123
C72	C	0.982407	0.666804	0.500457
C73	C	1.146738	0.000147	-0.161755
C74	C	1.480072	0.333481	0.171578
C75	C	1.813405	0.666814	0.504911
C76	C	1.239999	0.000151	-0.164225
C77	C	1.573332	0.333485	0.169109
C78	C	1.906665	0.666818	0.502442
C79	C	0.998039	0.000133	0.057284
C80	C	1.331373	0.333467	0.390618
C81	C	1.664706	0.666800	0.723951
C82	C	0.995584	0.000128	0.195808
C83	C	1.328918	0.333462	0.529141
C84	C	1.662251	0.666795	0.862474
C85	C	1.046896	0.421545	-0.090065
C86	C	1.380230	0.754878	0.243268
C87	C	1.713563	1.088211	0.576601
C88	C	1.046910	0.578707	-0.090061
C89	C	1.380243	0.912041	0.243273
C90	C	1.713576	1.245374	0.576606
C91	C	0.988404	0.000122	-0.398989
C92	C	1.321737	0.333455	-0.065656
C93	C	1.655071	0.666789	0.267678
C94	C	0.990859	0.000118	-0.537512
C95	C	1.324193	0.333452	-0.204179
C96	C	1.657526	0.666785	0.129154
C97	C	1.067126	0.000136	0.271694
C98	C	1.400459	0.333469	0.605027
C99	C	1.733793	0.666803	0.938361
C100	C	1.064590	0.000131	0.414865
C101	C	1.397923	0.333464	0.748199
C102	C	1.731257	0.666797	1.081532
H103	H	0.563637	-0.000009	0.046904
H104	H	0.896970	0.333324	0.380237
H105	H	1.230303	0.666657	0.713570
H106	H	0.947277	0.588216	-0.240016
H107	H	1.280611	0.921549	0.093317
H108	H	1.613944	1.254882	0.426651
H109	H	1.125835	0.000144	0.480072
H110	H	1.459169	0.333477	0.813405
H111	H	1.792502	0.666810	1.146738
H112	H	1.092844	0.363230	-0.020899
H113	H	1.426178	0.696564	0.312434
H114	H	1.759511	1.029897	0.645767
Br115	Br	0.916614	0.450944	-0.286120
Br116	Br	1.249948	0.784277	0.047213
Br117	Br	1.583281	1.117610	0.380547
H118	H	0.929611	0.000121	0.397289
H119	H	1.262944	0.333454	0.730622
H120	H	1.596277	0.666787	1.063955
H121	H	0.449793	-0.206404	-0.059886
H122	H	0.783127	0.126929	0.273448
H123	H	1.116460	0.460262	0.606781
Br124	Br	1.172348	0.000136	0.203332
Br125	Br	1.505681	0.333470	0.536665
Br126	Br	1.839015	0.666803	0.869998
Br127	Br	0.890362	0.000094	0.264170
Br128	Br	1.223696	0.333427	0.597503
Br129	Br	1.557029	0.666761	0.930837
H130	H	0.536520	-0.206616	-0.281719
H131	H	0.869854	0.126717	0.051614
H132	H	1.203187	0.460050	0.384947
H133	H	0.423004	-0.000019	-0.388748
H134	H	0.756337	0.333315	-0.055414
H135	H	1.089671	0.666648	0.277919
H136	H	0.449822	0.206609	-0.059891
H137	H	0.783156	0.539943	0.273442
H138	H	1.116489	0.873276	0.606776
Br139	Br	0.550292	0.269695	-0.315592
Br140	Br	0.883625	0.603028	0.017741
Br141	Br	1.216958	0.936362	0.351075
Br142	Br	1.123525	0.675859	0.025214
Br143	Br	1.456858	1.009193	0.358547
Br144	Br	1.790192	1.342526	0.691881
