data_functionalizedCrystal
_audit_creation_method	'MofGen! by Chris Wilmer'
_symmetry_space_group_name_H-M	'P1'
_symmetry_Int_Tables_number	1
_symmetry_cell_setting	triclinic
loop_
_symmetry_equiv_pos_as_xyz
  x,y,z
_cell_length_a	10.654558
_cell_length_b	15.944564
_cell_length_c	9.730223
_cell_angle_alpha	90.003283
_cell_angle_beta	89.995586
_cell_angle_gamma	96.003875
loop_
_atom_site_label
_atom_site_type_symbol
_atom_site_fract_x
_atom_site_fract_y
_atom_site_fract_z
O1	O	1.666318	-0.118006	-0.114275
O2	O	1.300696	-0.129238	-0.114282
O3	O	1.493483	-0.001406	-0.114265
O4	O	1.473531	-0.245838	-0.114292
O5	O	1.493463	-0.001409	0.114315
O6	O	1.300676	-0.129241	0.114298
O7	O	1.666298	-0.118008	0.114305
Zn8	Zn	1.483484	-0.123625	0.150593
Zn9	Zn	1.483510	-0.123622	-0.150570
O10	O	1.473511	-0.245841	0.114288
C11	C	1.253899	-0.128414	0.000007
C12	C	1.114488	-0.125942	0.000005
C13	C	0.918005	-0.122465	-0.124594
C14	C	1.048998	-0.124781	-0.124596
C15	C	1.048980	-0.124779	0.124615
C16	C	0.917991	-0.122458	0.124615
C17	C	0.852520	-0.121313	-0.249203
C18	C	0.918019	-0.122474	-0.373813
C19	C	1.049012	-0.124789	-0.373815
C20	C	1.114506	-0.125943	-0.249206
C21	C	1.492642	0.029891	0.000025
C22	C	1.490150	0.123151	0.000027
C23	C	1.364691	0.338735	0.000007
C24	C	1.422930	0.399413	0.112712
C25	C	1.485643	0.293902	0.000017
C26	C	1.422978	0.399399	-0.112650
C27	C	1.481279	0.458839	0.000002
C28	C	1.543914	0.353351	0.112815
C29	C	1.543945	0.353331	-0.112648
C30	C	1.602271	0.413990	0.000085
C31	C	1.488153	0.198886	0.000027
C32	C	1.478779	0.553854	0.000002
C33	C	1.713095	-0.118833	0.000013
C34	C	1.852506	-0.121305	0.000006
N35	N	1.483476	-0.123627	0.356130
C36	C	1.474335	0.722860	-0.000004
C37	C	1.476776	0.629596	-0.000009
C38	C	1.398098	-0.180207	0.428084
C39	C	1.398122	-0.180206	0.571967
C40	C	1.568904	-0.067039	0.571929
C41	C	1.568886	-0.067044	0.428049
C42	C	1.312688	-0.236789	0.356164
C43	C	1.227302	-0.293373	0.428118
C44	C	1.227326	-0.293372	0.572001
C45	C	1.312735	-0.236788	0.643930
N46	N	1.483518	-0.123621	0.643893
H47	H	0.864657	-0.121529	0.226075
H48	H	1.595067	0.332905	-0.207934
N49	N	1.728306	0.454877	0.000179
N50	N	1.746851	0.533591	-0.000717
H51	H	1.835861	0.562470	-0.000643
H52	H	1.312658	-0.236793	0.239008
H53	H	1.371813	0.419774	-0.207940
N54	N	1.248326	-0.128238	-0.249234
N55	N	1.318293	-0.070129	-0.193628
H56	H	1.412807	-0.071730	-0.193666
N57	N	1.140086	-0.351172	0.354631
N58	N	1.140077	-0.351169	0.226168
H59	H	1.078481	-0.391992	0.174267
H60	H	1.638440	-0.020970	0.630503
H61	H	1.157811	-0.339450	0.630585
H62	H	1.312755	-0.236799	0.761090
H63	H	1.595020	0.333063	0.208203
N64	N	1.238751	0.297690	0.000148
N65	N	1.165543	0.309971	0.096770
H66	H	1.076599	0.280983	0.096876
H67	H	1.638409	-0.020973	0.369464
H68	H	1.371764	0.419817	0.207993
N69	N	1.115896	-0.125956	0.251879
N70	N	1.232850	-0.128029	0.251860
H71	H	1.280110	-0.128862	0.341742
N72	N	0.718714	-0.118957	-0.249179
N73	N	0.648692	-0.177027	-0.193543
H74	H	0.554191	-0.175366	-0.193522
H75	H	1.102339	-0.125727	-0.475278
N76	N	0.851109	-0.121281	-0.501079
N77	N	0.734155	-0.119211	-0.501064
H78	H	0.686899	-0.118367	-0.590948
