data_functionalizedCrystal
_audit_creation_method	'MofGen! by Chris Wilmer'
_symmetry_space_group_name_H-M	'P1'
_symmetry_Int_Tables_number	1
_symmetry_cell_setting	triclinic
loop_
_symmetry_equiv_pos_as_xyz
  x,y,z
_cell_length_a	10.540539
_cell_length_b	16.992694
_cell_length_c	15.455313
_cell_angle_alpha	92.857794
_cell_angle_beta	92.694186
_cell_angle_gamma	92.403143
loop_
_atom_site_label
_atom_site_type_symbol
_atom_site_fract_x
_atom_site_fract_y
_atom_site_fract_z
O1	O	0.264111	-1.045302	-0.072015
O2	O	0.764111	-0.545302	0.427985
O3	O	0.261155	-0.817001	-0.072041
O4	O	0.761155	-0.317001	0.427959
O5	O	0.078379	-0.936360	-0.072026
O6	O	0.578379	-0.436360	0.427974
O7	O	0.446887	-0.925943	-0.072030
O8	O	0.946887	-0.425943	0.427970
O9	O	0.088785	-0.929534	0.072235
O10	O	0.588785	-0.429534	0.572235
O11	O	0.271561	-0.810175	0.072220
O12	O	0.771561	-0.310175	0.572220
O13	O	0.274517	-1.038476	0.072246
O14	O	0.774517	-0.538476	0.572246
Cu15	Cu	0.273989	-0.923702	0.085405
Cu16	Cu	0.773989	-0.423702	0.585405
Cu17	Cu	0.261683	-0.931774	-0.085200
Cu18	Cu	0.761683	-0.431774	0.414800
O19	O	0.457293	-0.919117	0.072232
O20	O	0.957293	-0.419117	0.572232
C21	C	0.262557	-0.784354	0.000086
C22	C	0.762557	-0.284354	0.500086
C23	C	0.251216	-0.697247	0.000077
C24	C	0.751216	-0.197247	0.500077
C25	C	0.036211	-0.932166	0.000103
C26	C	0.536211	-0.432166	0.500103
C27	C	-0.104941	-0.929829	0.000098
C28	C	0.395059	-0.429829	0.500098
N29	N	0.282645	-0.918030	0.205400
N30	N	0.782645	-0.418030	0.705400
C31	C	-0.296163	-0.840284	-0.000236
C32	C	0.203837	-0.340284	0.499764
C33	C	-0.149316	-0.842638	0.000089
C34	C	0.350684	-0.342638	0.500089
C35	C	-0.157014	-0.967891	0.082483
C36	C	0.342986	-0.467891	0.582483
C37	C	-0.303812	-0.964912	0.082552
C38	C	0.196188	-0.464912	0.582552
C39	C	-0.316010	-0.974447	-0.081500
C40	C	0.183990	-0.474447	0.418500
C41	C	-0.169037	-0.975302	-0.082589
C42	C	0.330963	-0.475302	0.417411
C43	C	0.499461	-0.923311	0.000101
C44	C	0.999461	-0.423311	0.500101
C45	C	0.640612	-0.925648	0.000100
C46	C	1.140612	-0.425648	0.500100
C47	C	0.273115	-1.071122	0.000117
C48	C	0.773115	-0.571122	0.500117
C49	C	0.284456	-1.158230	0.000121
C50	C	0.784456	-0.658230	0.500121
C51	C	0.360636	-0.647619	0.000076
C52	C	0.860636	-0.147619	0.500076
C53	C	0.349973	-0.565773	0.000088
C54	C	0.849973	-0.065773	0.500088
C55	C	0.229889	-0.533555	0.000094
C56	C	0.729889	-0.033555	0.500094
C57	C	0.120461	-0.583189	0.000097
C58	C	0.620461	-0.083189	0.500097
C59	C	0.131125	-0.665034	0.000092
C60	C	0.631125	-0.165034	0.500092
C61	C	0.185692	-0.289709	0.000118
C62	C	0.685692	0.210291	0.500118
C63	C	0.175036	-0.207858	0.000121
C64	C	0.675036	0.292142	0.500121
C65	C	0.404549	-0.190446	0.000114
C66	C	0.904549	0.309554	0.500114
C67	C	0.415202	-0.272294	0.000103
C68	C	0.915202	0.227706	0.500103
C69	C	0.305774	-0.321921	0.000110
C70	C	0.805774	0.178079	0.500110
N71	N	0.218988	-0.449895	0.000104
N72	N	0.718988	0.050105	0.500104
N73	N	0.316677	-0.405579	0.000107
N74	N	0.816677	0.094421	0.500107
N75	N	0.253018	-0.937452	-0.205195
N76	N	0.753018	-0.437452	0.294805
C77	C	0.205027	-0.968756	0.250801
C78	C	0.705027	-0.468756	0.750801
C79	C	0.211585	-0.964474	0.341608
C80	C	0.711585	-0.464474	0.841608
C81	C	0.295768	-0.909469	0.387013
C82	C	0.795768	-0.409469	0.887013
C83	C	0.373389	-0.858738	0.341607
C84	C	0.873389	-0.358738	0.841607
C85	C	0.366823	-0.863017	0.250801
C86	C	0.866823	-0.363017	0.750801
C87	C	0.324073	-0.891000	0.658593
C88	C	0.824073	-0.391000	1.158593
C89	C	0.330635	-0.886727	0.749405
C90	C	0.830635	-0.386727	1.249405
C91	C	0.168829	-0.992462	0.749400
C92	C	0.668829	-0.492462	1.249400
C93	C	0.162277	-0.996739	0.658592
C94	C	0.662277	-0.496739	1.158592
C95	C	0.239893	-0.946005	0.613193
C96	C	0.739893	-0.446005	1.113193
N97	N	0.302477	-0.905093	0.479833
N98	N	0.802477	-0.405093	0.979833
N99	N	0.233177	-0.950379	0.520375
N100	N	0.733177	-0.450379	1.020375
H101	H	-0.332013	-0.808637	-0.059316
H102	H	0.167987	-0.308637	0.440684
H103	H	0.441928	-0.813948	0.378581
H104	H	0.941928	-0.313948	0.878581
H105	H	0.399192	-0.841933	0.786370
H106	H	0.899192	-0.341933	1.286370
O107	O	0.450538	-0.808294	0.201842
O108	O	0.950538	-0.308294	0.701842
H109	H	0.390164	-0.771812	0.160495
H110	H	0.890164	-0.271812	0.660495
H111	H	-0.128883	-1.031777	0.085553
H112	H	0.371117	-0.531777	0.585553
O113	O	0.114218	-1.028072	0.201822
O114	O	0.614218	-0.528072	0.701822
H115	H	0.137899	-1.088503	0.219236
H116	H	0.637899	-0.588503	0.719236
O117	O	-0.102301	-0.802590	-0.078125
O118	O	0.397699	-0.302590	0.421875
H119	H	-0.184488	-0.781362	-0.116522
H120	H	0.315512	-0.281362	0.383478
H121	H	0.148382	-1.005778	0.378572
H122	H	0.648382	-0.505778	0.878572
H123	H	0.093728	-1.041528	0.621625
H124	H	0.593728	-0.541528	1.121625
H125	H	0.105637	-1.033766	0.786371
H126	H	0.605637	-0.533766	1.286371
O127	O	0.045509	-0.173108	0.000142
O128	O	0.545509	0.326892	0.500142
H129	H	0.030906	-0.139015	-0.058657
H130	H	0.530906	0.360985	0.441343
H131	H	0.458421	-0.673844	0.000071
H132	H	0.958421	-0.173844	0.500071
H133	H	0.022687	-0.556951	0.000115
H134	H	0.522687	-0.056951	0.500115
H135	H	-0.325110	-0.803202	0.058505
H136	H	0.174890	-0.303202	0.558505
O137	O	0.013112	-0.718568	0.000095
O138	O	0.513112	-0.218568	0.500095
H139	H	-0.048205	-0.709818	-0.058704
H140	H	0.451795	-0.209818	0.441296
H141	H	0.096587	-0.330106	0.000125
H142	H	0.596587	0.169894	0.500125
O143	O	0.407792	-0.836287	0.609633
O144	O	0.907792	-0.336287	1.109633
H145	H	0.509085	-0.846022	0.627048
H146	H	1.009085	-0.346022	1.127048
O147	O	-0.092157	-0.794908	0.078446
O148	O	0.407843	-0.294908	0.578446
H149	H	-0.169416	-0.770059	0.116259
H150	H	0.330584	-0.270059	0.616259
O151	O	-0.371384	-1.057902	-0.082239
O152	O	0.128616	-0.557902	0.417761
H153	H	-0.429525	-1.064632	-0.024805
H154	H	0.070475	-0.564632	0.475195
H155	H	-0.346069	-1.027442	0.086296
H156	H	0.153931	-0.527442	0.586296
O157	O	-0.338863	-0.919969	0.164110
O158	O	0.161137	-0.419969	0.664110
H159	H	-0.251011	-0.900560	0.203127
H160	H	0.248989	-0.400560	0.703127
O161	O	0.522564	-0.136915	0.000120
O162	O	1.022564	0.363085	0.500120
H163	H	0.575395	-0.151214	-0.058682
H164	H	1.075395	0.348786	0.441318
O165	O	-0.130129	-1.059820	-0.089174
O166	O	0.369871	-0.559820	0.410826
H167	H	-0.215874	-1.099937	-0.088360
H168	H	0.284126	-0.599937	0.411640
H169	H	-0.112522	-0.935843	0.143784
H170	H	0.387478	-0.435843	0.643784
O171	O	0.467989	-0.512242	0.000088
O172	O	0.967989	-0.012242	0.500088
H173	H	0.553281	-0.548396	0.000073
H174	H	1.053281	-0.048396	0.500073
H175	H	-0.135239	-0.947484	-0.143535
H176	H	0.364761	-0.447484	0.356465
O177	O	-0.367005	-0.941011	-0.164231
O178	O	0.132995	-0.441011	0.335769
H179	H	-0.330860	-0.878952	-0.167168
H180	H	0.169140	-0.378952	0.332832
O181	O	0.544722	-0.307043	0.000118
O182	O	1.044722	0.192957	0.500118
H183	H	0.619021	-0.258781	0.000133
H184	H	1.119021	0.241219	0.500133
