data_functionalizedCrystal
_audit_creation_method	'MofGen! by Chris Wilmer'
_symmetry_space_group_name_H-M	'P1'
_symmetry_Int_Tables_number	1
_symmetry_cell_setting	triclinic
loop_
_symmetry_equiv_pos_as_xyz
  x,y,z
_cell_length_a	12.594517
_cell_length_b	12.594509
_cell_length_c	18.101395
_cell_angle_alpha	90.030520
_cell_angle_beta	89.969464
_cell_angle_gamma	89.977786
loop_
_atom_site_label
_atom_site_type_symbol
_atom_site_fract_x
_atom_site_fract_y
_atom_site_fract_z
Zn1	Zn	1.627156	-0.601868	0.294818
Zn2	Zn	1.627000	-0.423883	0.418674
Zn3	Zn	1.449160	-0.423894	0.294849
Zn4	Zn	1.449095	-0.601810	0.418621
O5	O	1.538102	-0.512864	0.356741
O6	O	1.776081	-0.578278	0.311257
O7	O	1.603371	-0.274938	0.402283
O8	O	1.472863	-0.447532	0.191212
O9	O	1.775966	-0.447512	0.402253
O10	O	1.603636	-0.578289	0.191190
O11	O	1.472712	-0.274947	0.311310
O12	O	1.300205	-0.447476	0.311259
O13	O	1.472753	-0.750763	0.402164
O14	O	1.300158	-0.578189	0.402194
O15	O	1.603574	-0.750806	0.311206
O16	O	1.603308	-0.447456	0.522300
O17	O	1.472602	-0.578178	0.522261
C18	C	1.261562	-0.512828	0.356725
C19	C	1.143256	-0.512838	0.356736
C20	C	1.003234	-0.441905	0.307222
C21	C	1.074100	-0.539033	0.289178
C22	C	1.073962	-0.415722	0.374746
C23	C	1.003336	-0.610095	0.338686
C24	C	1.003192	-0.486718	0.424285
C25	C	1.074026	-0.583912	0.406267
C26	C	1.538174	-0.790485	0.356676
C27	C	1.538204	-0.908790	0.356648
C28	C	1.467073	-0.978020	0.406092
C29	C	1.564187	-1.048811	0.424187
C30	C	1.441166	-1.048799	0.338508
C31	C	1.635369	-0.978023	0.374779
C32	C	1.512282	-0.978004	0.289069
C33	C	1.609463	-1.048763	0.307138
C34	C	1.815723	-0.512900	0.356757
C35	C	1.934029	-0.512916	0.356765
C36	C	1.537960	-0.512832	0.549151
C37	C	1.537997	-0.512855	0.631465
C38	C	1.538093	-0.236323	0.356752
C39	C	1.538269	-0.118018	0.356571
C40	C	1.538274	-0.512918	0.163579
C41	C	1.538348	-0.512942	0.081265
C42	C	1.538230	-0.512912	0.930556
C43	C	1.456184	-0.595363	0.899238
C44	C	1.455794	-0.595105	0.813620
C45	C	1.538114	-0.512884	0.782174
C46	C	1.507742	-0.400708	0.813329
C47	C	1.507214	-0.401201	0.898975
C48	C	1.650827	-0.541650	0.898900
C49	C	1.650165	-0.544110	0.813249
C50	C	1.538050	-0.512862	0.698314
C51	C	1.538291	-0.512927	1.014416
H52	H	1.104911	-0.643999	0.448152
H53	H	1.673069	-0.626666	0.792882
C54	C	1.343053	-0.569388	0.786021
H55	H	1.342426	-0.569153	0.733539
H56	H	1.322233	-0.501531	0.803818
H57	H	1.294942	-0.621632	0.803671
H58	H	1.104989	-0.333558	0.389967
C59	C	1.593851	-1.090838	0.501343
H60	H	1.543221	-1.066623	0.536445
H61	H	1.662319	-1.065565	0.514544
H62	H	1.594288	-1.166261	0.500642
H63	H	1.669713	-1.079629	0.265292
H64	H	1.359076	-1.079888	0.323198
H65	H	1.406967	-0.946959	0.447970
H66	H	1.490294	-0.946879	0.231968
H67	H	1.426306	-0.375927	0.791945
C68	C	0.961074	-0.456781	0.501415
H69	H	0.985210	-0.387693	0.514130
H70	H	0.986365	-0.506490	0.536723
H71	H	0.885653	-0.457664	0.500970
C72	C	1.116171	-0.568945	0.212027
H73	H	1.157704	-0.631734	0.215435
H74	H	1.158702	-0.512717	0.193408
H75	H	1.058047	-0.580854	0.179641
H76	H	1.565621	-0.337600	0.792962
C77	C	1.746311	-0.936209	0.395517
H78	H	1.745606	-0.860780	0.395431
H79	H	1.796865	-0.961012	0.360569
H80	H	1.764900	-0.961027	0.443346
H81	H	1.373232	-0.576566	0.920824
C82	C	1.396025	-0.368326	0.926059
H83	H	1.394723	-0.368334	0.978536
H84	H	1.344840	-0.417202	0.907943
H85	H	1.379923	-0.299147	0.908414
C86	C	1.481427	-0.707477	0.785156
H87	H	1.492170	-0.753697	0.825935
H88	H	1.543980	-0.705315	0.755852
H89	H	1.423914	-0.732758	0.756131
H90	H	1.564380	-0.337674	0.919695
H91	H	1.474998	-0.678810	0.919782
C92	C	1.688234	-0.650272	0.927998
H93	H	1.635523	-0.679115	0.959729
H94	H	1.752626	-0.641659	0.954634
H95	H	1.699601	-0.697068	0.887580
H96	H	1.714528	-0.488435	0.791839
C97	C	1.733383	-0.460456	0.926185
H98	H	1.699458	-0.409298	0.956730
H99	H	1.764757	-0.425932	0.884955
H100	H	1.786847	-0.496027	0.953698
H101	H	0.972441	-0.692281	0.323398
H102	H	0.972154	-0.381962	0.265306
