data_functionalizedCrystal
_audit_creation_method	'MofGen! by Chris Wilmer'
_symmetry_space_group_name_H-M	'P1'
_symmetry_Int_Tables_number	1
_symmetry_cell_setting	triclinic
loop_
_symmetry_equiv_pos_as_xyz
  x,y,z
_cell_length_a	10.540510
_cell_length_b	10.540539
_cell_length_c	16.176319
_cell_angle_alpha	89.995366
_cell_angle_beta	89.992361
_cell_angle_gamma	84.519401
loop_
_atom_site_label
_atom_site_type_symbol
_atom_site_fract_x
_atom_site_fract_y
_atom_site_fract_z
O1	O	1.685914	0.178724	-0.068747
O2	O	1.316496	0.195619	-0.068748
O3	O	1.509633	0.002464	-0.068747
O4	O	1.492777	0.371879	-0.068749
O5	O	1.509606	0.002451	0.068747
O6	O	1.316469	0.195606	0.068746
O7	O	1.685887	0.178711	0.068746
Cu8	Cu	1.501176	0.187158	0.081300
Cu9	Cu	1.501208	0.187173	-0.081302
O10	O	1.492750	0.371866	0.068745
C11	C	1.269179	0.194354	-0.000001
C12	C	1.128229	0.190587	-0.000001
C13	C	0.910774	0.324771	-0.000318
C14	C	1.057370	0.328789	-0.000003
C15	C	1.083454	0.119833	0.078513
C16	C	0.936693	0.116794	0.078573
C17	C	0.936918	0.113930	-0.077782
C18	C	1.083259	0.120486	-0.078815
C19	C	1.508356	-0.044845	-0.000001
C20	C	1.504574	-0.185793	-0.000006
C21	C	1.359655	-0.369204	-0.000314
C22	C	1.363489	-0.222587	-0.000005
C23	C	1.572455	-0.247465	0.078510
C24	C	1.567640	-0.394009	0.078576
C25	C	1.570540	-0.394513	-0.077780
C26	C	1.571840	-0.247531	-0.078818
C27	C	1.733204	0.179976	-0.000003
C28	C	1.874154	0.183743	-0.000008
C29	C	1.494028	0.419175	-0.000002
C30	C	1.497810	0.560123	-0.000003
N31	N	1.501163	0.187146	0.195665
N32	N	1.501231	0.187174	-0.195667
C33	C	1.586710	0.101653	0.238930
C34	C	1.586717	0.101651	0.325477
C35	C	1.501181	0.187151	0.368758
C36	C	1.415624	0.272648	0.325487
C37	C	1.415613	0.272643	0.238941
C38	C	1.415668	0.272673	0.674515
C39	C	1.415689	0.272674	0.761067
C40	C	1.586772	0.101682	0.761051
C41	C	1.586760	0.101676	0.674505
C42	C	1.501200	0.187168	0.631242
C43	C	1.501192	0.187167	0.537398
C44	C	1.501194	0.187159	0.462600
H45	H	1.114297	0.168960	0.136942
H46	H	1.310075	-0.179972	-0.056288
N47	N	1.501145	-0.431361	0.156314
H48	H	1.422796	-0.474406	0.141098
H49	H	1.560940	-0.491987	0.189680
N50	N	1.121202	0.188649	-0.155759
H51	H	1.167329	0.264622	-0.139641
H52	H	1.179237	0.128440	-0.190578
H53	H	1.656436	0.032065	0.796285
H54	H	1.674702	-0.223320	-0.083559
H55	H	1.522172	-0.206662	-0.136901
N56	N	1.705526	-0.457075	-0.078485
H57	H	1.719555	-0.514527	-0.028697
H58	H	1.720227	-0.509155	-0.130606
N59	N	1.323421	0.364888	0.807751
H60	H	1.269211	0.419042	0.767213
H61	H	1.266883	0.315738	0.843672
H62	H	1.304139	-0.399411	0.055675
N63	N	1.702034	-0.457576	0.083300
H64	H	1.764140	-0.390366	0.085334
H65	H	1.711688	-0.511896	0.134763
N66	N	1.323350	0.364863	0.192276
H67	H	1.336318	0.351883	0.130883
H68	H	1.233168	0.349336	0.207420
H69	H	0.867256	0.378298	0.055669
N70	N	1.679021	0.009465	0.627823
H71	H	1.733216	-0.044699	0.668365
H72	H	1.629910	-0.047122	0.591927
H73	H	1.656368	0.032035	0.203696
N74	N	1.323394	0.364898	0.627871
H75	H	1.372399	0.421570	0.591951
H76	H	1.266755	0.315767	0.592025
N77	N	1.323364	0.364857	0.372170
H78	H	1.372384	0.421533	0.408065
H79	H	1.269184	0.418930	0.331578
N80	N	1.679029	0.009485	0.372142
H81	H	1.733234	-0.044658	0.331591
H82	H	1.735566	0.058677	0.408022
H83	H	1.086726	0.384140	-0.056287
H84	H	0.868832	0.378618	-0.056625
N85	N	1.292222	-0.167261	0.074673
H86	H	1.258197	-0.238133	0.107522
H87	H	1.351872	-0.121479	0.110385
N88	N	1.709711	-0.217921	0.082368
H89	H	1.729254	-0.164139	0.033141
H90	H	1.724265	-0.169815	0.134983
H91	H	0.913697	0.013427	0.082141
H92	H	1.525279	-0.204866	0.136938
H93	H	1.085762	0.384466	0.056373
H94	H	0.896465	0.165137	0.137263
N95	N	1.146230	-0.014931	0.082398
H96	H	1.122886	-0.063184	0.031539
H97	H	1.241785	-0.013189	0.084934
N98	N	0.880718	0.171786	-0.156615
H99	H	0.813994	0.243844	-0.142708
H100	H	0.950395	0.205602	-0.190684
H101	H	1.132328	0.019588	-0.083556
H102	H	0.914764	0.010169	-0.078312
H103	H	1.303934	-0.397793	-0.056619
H104	H	1.524889	-0.426056	-0.137289
