data_functionalizedCrystal
_audit_creation_method	'MofGen! by Chris Wilmer'
_symmetry_space_group_name_H-M	'P1'
_symmetry_Int_Tables_number	1
_symmetry_cell_setting	triclinic
loop_
_symmetry_equiv_pos_as_xyz
  x,y,z
_cell_length_a	14.395555
_cell_length_b	19.902436
_cell_length_c	19.902436
_cell_angle_alpha	89.995377
_cell_angle_beta	59.998580
_cell_angle_gamma	119.995417
loop_
_atom_site_label
_atom_site_type_symbol
_atom_site_fract_x
_atom_site_fract_y
_atom_site_fract_z
Zr1	Zr	1.016672	0.088128	0.647343
O2	O	1.210468	0.195419	0.540055
O3	O	0.822876	0.055237	0.680229
O4	O	1.016649	0.195405	0.680234
O5	O	1.016713	-0.055316	0.540050
O6	O	1.016631	0.195396	0.790812
O7	O	1.016695	0.055250	0.540050
O8	O	0.670007	-0.055340	0.790805
O9	O	1.363337	0.195420	0.540058
O10	O	0.902574	0.041204	0.776782
O11	O	0.902601	-0.041304	0.694258
O12	O	1.130743	0.123727	0.694264
O13	O	1.130770	0.041220	0.611740
Zr14	Zr	1.016672	-0.088226	0.823703
Zr15	Zr	1.016643	0.088114	0.823703
Zr16	Zr	1.016701	-0.088211	0.647343
Zr17	Zr	1.260481	0.088131	0.647348
Zr18	Zr	0.772863	-0.088228	0.823698
O19	O	1.210468	-0.055334	0.790816
O20	O	1.210427	0.195398	0.790817
O21	O	1.210509	-0.055314	0.540055
O22	O	0.822876	-0.195516	0.930991
O23	O	0.822835	0.055216	0.930991
O24	O	0.822917	-0.195496	0.680229
O25	O	1.016631	0.055218	0.930995
O26	O	1.016695	-0.195503	0.790812
O27	O	1.016713	-0.195494	0.680233
O28	O	1.016649	-0.055347	0.930995
O29	O	1.363315	0.195409	0.680241
O30	O	0.670030	-0.195506	0.790805
O31	O	0.670007	-0.195518	0.930988
O32	O	0.669984	-0.055351	0.930988
O33	O	1.363360	0.055254	0.540058
O34	O	1.363337	0.055243	0.680241
O35	O	0.902601	-0.123824	0.776782
O36	O	0.902574	-0.041317	0.859306
O37	O	1.130743	0.041206	0.776787
O38	O	1.130770	-0.041301	0.694263
C39	C	0.711704	-0.000052	0.735516
C40	C	0.608201	-0.000053	0.735514
C41	C	1.016636	0.220525	0.735523
C42	C	1.016624	0.295386	0.735523
C43	C	1.016708	-0.220623	0.735523
C44	C	1.016720	-0.295483	0.735523
C45	C	0.547623	-0.045042	0.690521
C46	C	0.561872	0.032550	0.657911
C47	C	0.409556	-0.077622	0.768104
C48	C	0.623876	0.077585	0.702859
C49	C	0.471497	-0.032643	0.813094
C50	C	0.485792	0.044996	0.780504
C51	C	1.321640	-0.000045	0.735529
C52	C	1.425144	-0.000044	0.735532
C53	C	1.016708	-0.000031	0.514923
C54	C	1.016720	-0.000025	0.440053
C55	C	1.016689	0.567435	0.735522
C56	C	0.872755	0.486887	0.787825
C57	C	0.872665	0.408984	0.787598
C58	C	1.016656	0.432468	0.735523
C59	C	1.088146	0.486596	0.645856
C60	C	1.087226	0.564158	0.646143
C61	C	1.090162	0.565287	0.772164
C62	C	1.087457	0.486409	0.773979
C63	C	1.016645	0.356193	0.735519
C64	C	1.016704	0.643711	0.735521
C65	C	1.016656	-0.000056	0.168051
C66	C	1.160589	0.051751	0.144487
C67	C	1.160680	0.052039	0.222325
C68	C	1.016689	-0.000041	0.302994
C69	C	0.945198	0.037916	0.300582
C70	C	0.946118	0.038299	0.222354
C71	C	0.943182	-0.089845	0.223341
C72	C	0.945888	-0.089707	0.300262
C73	C	1.016699	-0.000032	0.379261
C74	C	1.016640	-0.000062	0.091786
C75	C	1.016636	-0.000067	0.956123
C76	C	1.016624	-0.000073	1.030992
C77	C	0.711668	-0.000070	0.956116
C78	C	0.608152	-0.000077	1.030984
C79	C	0.711740	-0.220626	0.735516
C80	C	0.608249	-0.295488	0.735514
C81	C	0.711704	-0.220644	0.956116
C82	C	0.608201	-0.295512	1.030983
C83	C	1.321640	0.220547	0.514930
C84	C	1.425144	0.295415	0.440062
C85	C	1.321676	-0.000027	0.514929
C86	C	1.425192	-0.000020	0.440062
C87	C	1.321604	0.220529	0.735530
C88	C	1.425096	0.295391	0.735532
C89	C	0.559540	0.043002	1.023066
C90	C	0.462290	0.043012	1.093405
C91	C	0.413647	-0.000063	1.171661
C92	C	0.462268	-0.043143	1.179577
C93	C	0.559524	-0.043148	1.109239
C94	C	0.559648	-0.373726	0.778589
C95	C	0.462421	-0.444074	0.778584
C96	C	0.413789	-0.436181	0.735508
C97	C	0.462399	-0.357935	0.692427
C98	C	0.559631	-0.287589	0.692428
C99	C	0.559580	-0.287603	1.109226
C100	C	0.462341	-0.357942	1.179578
C101	C	0.413718	-0.436191	1.171687
C102	C	0.462348	-0.444098	1.093436
C103	C	0.559592	-0.373759	1.023085
C104	C	1.473776	0.287505	0.361820
C105	C	1.571045	0.357845	0.291467
C106	C	1.619673	0.436093	0.299359
C107	C	1.571037	0.444001	0.377610
C108	C	1.473777	0.373662	0.447960
C109	C	1.473814	-0.043092	0.447980
C110	C	1.571091	-0.043082	0.377641
C111	C	1.619738	-0.000005	0.299385
C112	C	1.571112	0.043072	0.291468
C113	C	1.473843	0.043067	0.361807
C114	C	1.473696	0.287472	0.778617
C115	C	1.570924	0.357806	0.778635
C116	C	1.619557	0.436058	0.735563
C117	C	1.570946	0.443975	0.692477
C118	C	1.473713	0.373642	0.692464
H119	H	0.599063	0.060123	0.592309
H120	H	1.434188	0.223798	0.355378
N121	N	1.424144	0.087044	0.353726
N122	N	1.337288	0.087034	0.416526
H123	H	1.302188	0.118094	0.410815
H124	H	0.599155	-0.223896	1.115667
H125	H	0.599091	-0.078232	1.115698
N126	N	1.025862	0.439625	0.608801
N127	N	0.977325	0.462481	0.585179
H128	H	0.933328	0.429307	0.559012
H129	H	1.192503	0.504933	0.739845
H130	H	0.840838	-0.131557	0.357720
H131	H	0.715436	0.143219	0.675228
H132	H	0.458837	0.083098	0.818552
N133	N	0.581828	-0.092681	0.642714
N134	N	0.697404	-0.059910	0.581708
H135	H	0.721569	-0.093550	0.547940
N136	N	0.609291	-0.381816	0.822602
N137	N	0.565874	-0.451685	0.861053
H138	H	0.600932	-0.457405	0.892138
N139	N	1.424091	0.381753	0.648446
N140	N	1.467534	0.451629	0.609993
H141	H	1.432492	0.457364	0.578903
N142	N	0.412794	-0.523987	0.822596
N143	N	0.456222	-0.531015	0.861060
H144	H	0.421177	-0.587452	0.892144
H145	H	0.996906	0.104371	0.185812
N146	N	0.813652	-0.005979	0.246603
N147	N	0.768346	-0.068266	0.226932
H148	H	0.674793	-0.099535	0.244060
N149	N	0.424850	-0.067262	0.895376
N150	N	0.326006	-0.139775	0.937204
H151	H	0.293054	-0.164233	0.995317
H152	H	0.317953	-0.143224	0.795658
N153	N	0.314471	-0.508050	0.735517
N154	N	0.271096	-0.577899	0.773986
H155	H	0.200950	-0.628661	0.773997
H156	H	0.816575	0.369583	0.853626
H157	H	0.816229	0.369946	0.762185
H158	H	0.422789	-0.351520	0.657355
H159	H	1.698869	0.493361	0.242068
H160	H	1.044089	0.568268	0.837196
H161	H	0.816251	0.485182	0.854024
N162	N	1.223169	0.636518	0.724621
N163	N	1.264496	0.685673	0.757914
H164	H	1.358428	0.735983	0.724336
H165	H	0.599189	-0.223886	0.657353
N166	N	1.620736	0.523938	0.385649
N167	N	1.707572	0.586727	0.322823
H168	H	1.742672	0.643185	0.328497
H169	H	1.434213	-0.078176	0.511694
H170	H	1.434181	0.380111	0.511667
N171	N	0.314201	-0.000144	1.243522
N172	N	0.205685	-0.028070	1.255642
H173	H	0.135414	-0.028160	1.306400
H174	H	0.816551	0.486139	0.762643
N175	N	1.620699	0.349742	0.211550
N176	N	1.577251	0.279870	0.204523
H177	H	1.612316	0.274144	0.148083
N178	N	0.412694	-0.349839	1.259496
N179	N	0.456115	-0.279967	1.266523
H180	H	0.421055	-0.274241	1.322963
H181	H	1.217055	0.026777	0.221048
H182	H	0.334536	-0.493458	1.228978
H183	H	0.422744	-0.507817	1.087023
H184	H	0.599166	-0.380210	0.959379
H185	H	1.610666	-0.078164	0.384103
N186	N	1.719100	0.000008	0.227531
N187	N	1.827639	0.066342	0.176900
H188	H	1.897813	0.066349	0.126155
H189	H	1.610735	0.078144	0.227743
N190	N	0.609228	0.086997	0.943127
N191	N	0.598381	0.049510	0.894259
H192	H	0.633474	0.080585	0.837803
N193	N	1.424047	0.207551	0.822621
N194	N	1.467461	0.200507	0.861089
H195	H	1.432397	0.144065	0.892173
H196	H	1.610493	0.351343	0.813719
H197	H	1.698730	0.493321	0.735580
N198	N	1.620641	0.523917	0.648489
N199	N	1.707460	0.586700	0.648510
H200	H	1.742566	0.643162	0.617441
H201	H	1.036437	0.563965	0.616809
N202	N	1.231118	0.134345	0.094426
N203	N	1.333002	0.163124	0.023457
H204	H	1.382808	0.221457	-0.011898
H205	H	1.192829	0.621198	0.605052
H206	H	1.194019	0.506365	0.605194
H207	H	1.217091	0.026422	0.105322
N208	N	1.022055	0.439573	0.856850
N209	N	0.923666	0.366735	0.887528
H210	H	0.877473	0.333651	0.946056
H211	H	0.994833	0.103359	0.302133
N212	N	1.231482	0.135131	0.220084
N213	N	1.280975	0.193089	0.160962
H214	H	1.330985	0.251777	0.159376
H215	H	0.839325	0.001997	0.357393
N216	N	1.000988	-0.129612	0.177784
N217	N	1.097049	-0.092254	0.104004
H218	H	1.137888	-0.120331	0.071823
N219	N	1.011310	-0.125264	0.299767
N220	N	1.109713	-0.084772	0.301422
H221	H	1.155929	-0.109879	0.301067
H222	H	0.837154	-0.128629	0.243256
N223	N	0.412651	0.087023	1.085292
N224	N	0.456090	0.125468	1.015413
H225	H	0.421035	0.156552	1.009680
H226	H	0.422649	-0.078213	1.243303
