data_functionalizedCrystal
_audit_creation_method	'MofGen! by Chris Wilmer'
_symmetry_space_group_name_H-M	'P1'
_symmetry_Int_Tables_number	1
_symmetry_cell_setting	triclinic
loop_
_symmetry_equiv_pos_as_xyz
  x,y,z
_cell_length_a	14.044209
_cell_length_b	10.868271
_cell_length_c	11.792241
_cell_angle_alpha	90.001559
_cell_angle_beta	91.309316
_cell_angle_gamma	90.000974
loop_
_atom_site_label
_atom_site_type_symbol
_atom_site_fract_x
_atom_site_fract_y
_atom_site_fract_z
O1	O	-1.259115	0.102175	0.273752
O2	O	-1.009115	0.352175	0.523752
O3	O	-0.759115	0.602175	0.773752
O4	O	-0.509115	0.852175	1.023752
O5	O	-0.983095	0.102210	0.263876
O6	O	-0.733095	0.352210	0.513876
O7	O	-0.483095	0.602210	0.763876
O8	O	-0.233095	0.852210	1.013876
O9	O	-1.127803	0.102183	0.104272
O10	O	-0.877803	0.352183	0.354272
O11	O	-0.627803	0.602183	0.604272
O12	O	-0.377803	0.852183	0.854272
O13	O	-1.114407	0.102202	0.433356
O14	O	-0.864407	0.352202	0.683356
O15	O	-0.614407	0.602202	0.933356
O16	O	-0.364407	0.852202	1.183356
O17	O	-1.127790	-0.102462	0.104277
O18	O	-0.877790	0.147538	0.354277
O19	O	-0.627790	0.397538	0.604277
O20	O	-0.377790	0.647538	0.854277
O21	O	-0.983082	-0.102435	0.263880
O22	O	-0.733082	0.147565	0.513880
O23	O	-0.483082	0.397565	0.763880
O24	O	-0.233082	0.647565	1.013880
O25	O	-1.259102	-0.102470	0.273757
O26	O	-1.009102	0.147530	0.523757
O27	O	-0.759102	0.397530	0.773757
O28	O	-0.509102	0.647530	1.023757
Zn29	Zn	-1.121090	-0.134944	0.268819
Zn30	Zn	-0.871090	0.115056	0.518819
Zn31	Zn	-0.621090	0.365056	0.768819
Zn32	Zn	-0.371090	0.615056	1.018819
Zn33	Zn	-1.121107	0.134684	0.268813
Zn34	Zn	-0.871107	0.384684	0.518813
Zn35	Zn	-0.621107	0.634684	0.768813
Zn36	Zn	-0.371107	0.884684	1.018813
O37	O	-1.114394	-0.102443	0.433360
O38	O	-0.864394	0.147557	0.683360
O39	O	-0.614394	0.397557	0.933360
O40	O	-0.364394	0.647557	1.183360
C41	C	-0.947752	-0.000108	0.259554
C42	C	-0.697752	0.249892	0.509554
C43	C	-0.447752	0.499892	0.759554
C44	C	-0.197752	0.749892	1.009554
C45	C	-0.842459	-0.000095	0.246656
C46	C	-0.592459	0.249905	0.496656
C47	C	-0.342459	0.499905	0.746656
C48	C	-0.092459	0.749905	0.996656
N49	N	-1.121085	-0.318958	0.268823
N50	N	-0.871085	-0.068958	0.518823
N51	N	-0.621085	0.181042	0.768823
N52	N	-0.371085	0.431042	1.018823
C53	C	-1.121092	-0.430296	0.268824
C54	C	-0.871092	-0.180296	0.518824
C55	C	-0.621092	0.069704	0.768824
C56	C	-0.371092	0.319704	1.018824
C57	C	-1.121105	-0.569974	0.268815
C58	C	-0.871105	-0.319974	0.518815
C59	C	-0.621105	-0.069974	0.768815
C60	C	-0.371105	0.180026	1.018815
C61	C	-0.649677	-0.000118	0.223076
C62	C	-0.399677	0.249882	0.473076
C63	C	-0.149677	0.499882	0.723076
C64	C	0.100323	0.749882	0.973076
C65	C	-0.592514	-0.000117	0.314561
C66	C	-0.342514	0.249883	0.564561
C67	C	-0.092514	0.499883	0.814561
C68	C	0.157486	0.749883	1.064561
C69	C	-0.485243	-0.000130	0.301441
C70	C	-0.235243	0.249870	0.551441
C71	C	0.014757	0.499870	0.801441
C72	C	0.264757	0.749870	1.051441
C73	C	-0.756958	-0.000105	0.236194
C74	C	-0.506958	0.249895	0.486194
C75	C	-0.256958	0.499895	0.736194
C76	C	-0.006958	0.749895	0.986194
C77	C	-0.294445	-0.000146	0.278081
C78	C	-0.044445	0.249854	0.528081
C79	C	0.205555	0.499854	0.778081
C80	C	0.455555	0.749854	1.028081
C81	C	-0.399736	-0.000140	0.290986
C82	C	-0.149736	0.249860	0.540986
C83	C	0.100264	0.499860	0.790986
C84	C	0.350264	0.749860	1.040986
C85	C	-1.126955	-0.000139	0.061905
C86	C	-0.876955	0.249861	0.311905
C87	C	-0.626955	0.499861	0.561905
C88	C	-0.376955	0.749861	0.811905
C89	C	-1.124436	-0.000138	-0.064346
C90	C	-0.874436	0.249862	0.185654
C91	C	-0.624436	0.499862	0.435654
C92	C	-0.374436	0.749862	0.685654
N93	N	-1.121120	0.318698	0.268801
N94	N	-0.871120	0.568698	0.518801
N95	N	-0.621120	0.818698	0.768801
N96	N	-0.371120	1.068698	1.018801
C97	C	-1.119805	-0.000116	-0.295493
C98	C	-0.869805	0.249884	-0.045493
C99	C	-0.619805	0.499884	0.204507
C100	C	-0.369805	0.749884	0.454507
C101	C	-1.122378	-0.000128	-0.166866
C102	C	-0.872378	0.249872	0.083134
C103	C	-0.622378	0.499872	0.333134
C104	C	-0.372378	0.749872	0.583134
C105	C	-1.115242	-0.000119	0.475728
C106	C	-0.865242	0.249881	0.725728
C107	C	-0.615242	0.499881	0.975728
C108	C	-0.365242	0.749881	1.225728
C109	C	-1.117760	-0.000112	0.601978
C110	C	-0.867760	0.249888	0.851978
C111	C	-0.617760	0.499888	1.101978
C112	C	-0.367760	0.749888	1.351978
H113	H	-0.624138	-0.000107	0.402738
H114	H	-0.374138	0.249893	0.652738
H115	H	-0.124138	0.499893	0.902738
H116	H	0.125862	0.749893	1.152738
H117	H	-0.618054	-0.000129	0.134906
H118	H	-0.368054	0.249871	0.384906
H119	H	-0.118054	0.499871	0.634906
H120	H	0.131946	0.749871	0.884906
