data_functionalizedCrystal
_audit_creation_method	'MofGen! by Chris Wilmer'
_symmetry_space_group_name_H-M	'P1'
_symmetry_Int_Tables_number	1
_symmetry_cell_setting	triclinic
loop_
_symmetry_equiv_pos_as_xyz
  x,y,z
_cell_length_a	23.532407
_cell_length_b	14.185569
_cell_length_c	15.625429
_cell_angle_alpha	120.547738
_cell_angle_beta	83.576757
_cell_angle_gamma	76.924672
loop_
_atom_site_label
_atom_site_type_symbol
_atom_site_fract_x
_atom_site_fract_y
_atom_site_fract_z
O1	O	0.734822	0.135217	0.142756
O2	O	0.568044	0.141576	0.160158
O3	O	0.663976	0.085941	0.007255
O4	O	0.638891	0.190851	0.295660
O5	O	0.692315	-0.097326	-0.037909
O6	O	0.596383	-0.041692	0.114994
O7	O	0.763161	-0.048051	0.097592
Cu8	Cu	0.682360	-0.061605	0.102169
Cu9	Cu	0.648846	0.155130	0.155581
O10	O	0.667229	0.007584	0.250495
C11	C	0.561020	0.049785	0.137134
C12	C	0.497871	0.049313	0.135805
N13	N	0.705936	-0.214045	0.064602
C14	C	0.556011	-0.494782	0.303471
C15	C	0.573873	-0.610155	0.275021
C16	C	0.658833	-0.659362	0.139675
C17	C	0.640976	-0.543992	0.168111
C18	C	0.589565	-0.461710	0.250010
C19	C	0.674531	-0.510920	0.114650
C20	C	0.656677	-0.395558	0.143087
C21	C	0.605269	-0.313269	0.224985
C22	C	0.571712	-0.346348	0.278448
C23	C	0.725944	-0.593202	0.032756
C24	C	0.759499	-0.560130	-0.020705
C25	C	0.741643	-0.444768	0.007727
C26	C	0.690235	-0.362479	0.089625
C27	C	0.775201	-0.411689	-0.045735
C28	C	0.757347	-0.296328	-0.017298
C29	C	0.672381	-0.247117	0.118062
C30	C	0.094481	0.079138	0.217923
C31	C	0.035146	0.078681	0.216684
O32	O	-0.005574	0.106336	0.292810
N33	N	0.017273	0.045618	0.125786
C34	C	0.058740	0.012998	0.036118
O35	O	0.038090	-0.015168	-0.041312
C36	C	0.118075	0.013447	0.037356
C37	C	0.135942	0.046524	0.128263
C38	C	0.112349	0.112211	0.308822
C39	C	0.171679	0.112669	0.310061
C40	C	0.213141	0.080055	0.220401
C41	C	0.195272	0.046983	0.129501
C42	C	0.159542	-0.019180	-0.052313
C43	C	0.218880	-0.018729	-0.051067
C44	C	0.236747	0.014348	0.039839
C45	C	0.296064	0.014827	0.041080
N46	N	0.313937	0.047891	0.131978
C47	C	0.272475	0.080505	0.221638
C48	C	-0.065867	0.012055	0.033525
C49	C	-0.125201	0.011614	0.032288
C50	C	-0.148791	0.077295	0.212854
C51	C	-0.089456	0.077744	0.214092
C52	C	-0.047994	0.045119	0.124423
C53	C	0.397074	0.081466	0.224233
C54	C	0.456409	0.081927	0.225465
C55	C	0.479995	0.016240	0.044899
C56	C	0.420664	0.015785	0.043667
C57	C	0.379204	0.048398	0.133342
O58	O	0.336817	-0.012818	-0.035007
O59	O	0.293137	0.108651	0.299052
C60	C	0.770185	0.043743	0.120617
C61	C	0.833333	0.044222	0.121947
N62	N	0.625275	0.307567	0.193141
C63	C	0.679819	-0.019109	-0.052217
C64	C	0.684801	-0.059086	-0.162138
C65	C	0.623937	0.308888	-0.400569
C66	C	0.628620	0.271290	-0.503863
C67	C	0.659513	0.071504	-0.553084
C68	C	0.654835	0.109086	-0.449792
C69	C	0.637046	0.227779	-0.373541
C70	C	0.667944	0.027977	-0.422765
C71	C	0.663264	0.065557	-0.319482
C72	C	0.645474	0.184245	-0.243225
C73	C	0.632365	0.265359	-0.270258
C74	C	0.685729	-0.090716	-0.499017
C75	C	0.698839	-0.171825	-0.471990
C76	C	0.694162	-0.134246	-0.368705
C77	C	0.676372	-0.015557	-0.292449
C78	C	0.707271	-0.215360	-0.341673
C79	C	0.702590	-0.177780	-0.238389
C80	C	0.671691	0.022022	-0.189165
C81	C	0.651386	0.112636	0.309968
C82	C	0.646403	0.152621	0.419890
H83	H	0.630513	-0.180121	0.184746
Br84	Br	0.608234	0.426445	-0.166767
Br85	Br	0.581041	-0.156702	0.263588
H86	H	0.801360	-0.627136	-0.087387
Br87	Br	-0.065215	0.122635	0.337469
H88	H	0.514143	-0.427785	0.370155
H89	H	0.784671	-0.269402	-0.060831
Br90	Br	0.480652	0.126827	0.348849
H91	H	0.078596	0.138767	0.381837
Br92	Br	0.536275	-0.028023	-0.076778
Br93	Br	0.844978	-0.523361	-0.156868
Br94	Br	0.195919	0.157557	0.433440
Br95	Br	0.501930	-0.234678	0.389586
Br96	Br	0.599805	0.469974	-0.297078
H97	H	0.363324	0.108019	0.297254
Br98	Br	0.610821	0.381380	-0.540537
H99	H	-0.182560	0.103846	0.285859
Br100	Br	-0.009602	-0.032217	-0.088178
H101	H	0.657211	0.118674	-0.127077
Br102	Br	0.683648	-0.089574	-0.656573
H103	H	0.700694	-0.726368	0.072994
H104	H	-0.139745	-0.015303	-0.041733
Br105	Br	0.722973	-0.332903	-0.575478
Br106	Br	0.135306	-0.064048	-0.175688
H107	H	0.252637	-0.045298	-0.124089
Br108	Br	0.639121	0.235251	-0.103051
Br109	Br	0.731398	-0.376436	-0.445162
Br110	Br	0.396414	-0.029108	-0.079707
Br111	Br	0.720383	-0.287856	-0.201703
H112	H	0.689534	-0.121309	-0.583114
H113	H	0.546544	-0.637072	0.318564
H114	H	0.740480	-0.687134	0.009608
