data_functionalizedCrystal
_audit_creation_method	'MofGen! by Chris Wilmer'
_symmetry_space_group_name_H-M	'P1'
_symmetry_Int_Tables_number	1
_symmetry_cell_setting	triclinic
loop_
_symmetry_equiv_pos_as_xyz
  x,y,z
_cell_length_a	21.395362
_cell_length_b	19.077068
_cell_length_c	21.395356
_cell_angle_alpha	92.269849
_cell_angle_beta	89.957023
_cell_angle_gamma	92.343691
loop_
_atom_site_label
_atom_site_type_symbol
_atom_site_fract_x
_atom_site_fract_y
_atom_site_fract_z
Zn1	Zn	0.947857	-0.279924	-0.364584
Zn2	Zn	1.447857	0.220076	0.135416
Zn3	Zn	0.943558	-0.397624	-0.264010
Zn4	Zn	1.443558	0.102376	0.235990
Zn5	Zn	0.843072	-0.279976	-0.259787
Zn6	Zn	1.343072	0.220024	0.240213
Zn7	Zn	0.838838	-0.397620	-0.368715
Zn8	Zn	1.338838	0.102380	0.131285
O9	O	0.893331	-0.338786	-0.314274
O10	O	1.393331	0.161214	0.185726
O11	O	1.034965	-0.295518	-0.351281
O12	O	1.534965	0.204482	0.148719
O13	O	0.930201	-0.382041	-0.175773
O14	O	1.430201	0.117959	0.324227
O15	O	0.860543	-0.181477	-0.270192
O16	O	1.360543	0.318523	0.229808
O17	O	1.031807	-0.381991	-0.277390
O18	O	1.531807	0.118009	0.222610
O19	O	0.937528	-0.181439	-0.347186
O20	O	1.437528	0.318561	0.152814
O21	O	0.856374	-0.295606	-0.172670
O22	O	1.356374	0.204394	0.327330
O23	O	0.754831	-0.295601	-0.274198
O24	O	1.254831	0.204399	0.225802
O25	O	0.853327	-0.381984	-0.455844
O26	O	1.353327	0.118016	0.044156
O27	O	0.751721	-0.382034	-0.354227
O28	O	1.251721	0.117966	0.145773
O29	O	0.933423	-0.295514	-0.452809
O30	O	1.433423	0.204486	0.047191
O31	O	0.926095	-0.496116	-0.281396
O32	O	1.426095	0.003884	0.218604
O33	O	0.849158	-0.496113	-0.358322
O34	O	1.349158	0.003887	0.141678
C35	C	0.730542	-0.338823	-0.314203
C36	C	1.230542	0.161177	0.185797
C37	C	0.660900	-0.338856	-0.314188
C38	C	1.160900	0.161144	0.185812
C39	C	0.626581	-0.383921	-0.355801
C40	C	1.126581	0.116079	0.144199
C41	C	0.561146	-0.383904	-0.355828
C42	C	1.061146	0.116096	0.144172
C43	C	0.530032	-0.338829	-0.314231
C44	C	1.030032	0.161171	0.185769
C45	C	0.564359	-0.293755	-0.272615
C46	C	1.064359	0.206245	0.227385
C47	C	0.629793	-0.293769	-0.272593
C48	C	1.129793	0.206231	0.227407
C49	C	0.426511	-0.333169	-0.257624
C50	C	0.926511	0.166831	0.242376
C51	C	0.361078	-0.333161	-0.257645
C52	C	0.861078	0.166839	0.242355
C53	C	0.328213	-0.338783	-0.314299
C54	C	0.828213	0.161217	0.185701
C55	C	0.360789	-0.344429	-0.370934
C56	C	0.860789	0.155571	0.129066
C57	C	0.426222	-0.344443	-0.370912
C58	C	0.926222	0.155557	0.129088
C59	C	0.459081	-0.338809	-0.314251
C60	C	0.959081	0.161191	0.185749
C61	C	0.222943	-0.383832	-0.355945
C62	C	0.722943	0.116168	0.144055
C63	C	0.157507	-0.383810	-0.355973
C64	C	0.657507	0.116190	0.144027
C65	C	0.160721	-0.293665	-0.272755
C66	C	0.660721	0.206335	0.227245
C67	C	0.226156	-0.293683	-0.272732
C68	C	0.726156	0.206317	0.227268
C69	C	0.257262	-0.338771	-0.314326
C70	C	0.757262	0.161229	0.185674
C71	C	0.886718	-0.521652	-0.320779
C72	C	1.386718	-0.021652	0.179221
C73	C	0.883946	-0.599883	-0.323583
C74	C	1.383946	-0.099883	0.176417
C75	C	0.922732	-0.636615	-0.284883
C76	C	1.422732	-0.136615	0.215117
C77	C	0.920129	-0.710121	-0.287523
C78	C	1.420129	-0.210121	0.212477
C79	C	0.878736	-0.746895	-0.328862
C80	C	1.378736	-0.246895	0.171138
C81	C	0.839948	-0.710158	-0.367567
C82	C	1.339948	-0.210158	0.132433
C83	C	0.842555	-0.636653	-0.364929
C84	C	1.342555	-0.136653	0.135071
C85	C	0.866643	-0.966733	-0.341047
C86	C	1.366643	-0.466733	0.158953
C87	C	0.864038	-1.040243	-0.343681
C88	C	1.364038	-0.540243	0.156319
C89	C	0.944219	-1.040201	-0.263637
C90	C	1.444219	-0.540201	0.236363
C91	C	0.946820	-0.966695	-0.261000
C92	C	1.446820	-0.466695	0.239000
C93	C	0.908035	-0.929965	-0.299707
C94	C	1.408035	-0.429965	0.200293
N95	N	0.876072	-0.822030	-0.331561
N96	N	1.376072	-0.322030	0.168439
N97	N	0.910702	-0.854831	-0.297011
N98	N	1.410702	-0.354831	0.202989
C99	C	1.056756	-0.338749	-0.314346
C100	C	1.556756	0.161251	0.185654
C101	C	1.126398	-0.338734	-0.314377
C102	C	1.626398	0.161266	0.185623
C103	C	0.893382	-0.338743	-0.477696
C104	C	1.393382	0.161257	0.022304
C105	C	0.893404	-0.338724	-0.547337
C106	C	1.393404	0.161276	-0.047337
C107	C	0.899987	-0.155206	-0.307757
C108	C	1.399987	0.344794	0.192243
C109	C	0.902824	-0.076975	-0.304980
C110	C	1.402824	0.423025	0.195020
C111	C	0.854973	-0.293712	-0.578424
C112	C	1.354973	0.206288	-0.078424
C113	C	0.854971	-0.293699	-0.643859
C114	C	1.354971	0.206301	-0.143859
C115	C	0.893412	-0.338690	-0.678204
C116	C	1.393412	0.161310	-0.178204
C117	C	0.931845	-0.383711	-0.647109
C118	C	1.431845	0.116289	-0.147109
C119	C	0.931841	-0.383728	-0.581675
C120	C	1.431841	0.116272	-0.081675
C121	C	0.949667	-0.344206	-0.782106
C122	C	1.449667	0.155794	-0.282106
C123	C	0.949672	-0.344185	-0.847538
C124	C	1.449672	0.155815	-0.347538
C125	C	0.893424	-0.338643	-0.880023
C126	C	1.393424	0.161357	-0.380023
C127	C	0.837169	-0.333108	-0.847067
C128	C	1.337169	0.166892	-0.347067
C129	C	0.837165	-0.333125	-0.781633
C130	C	1.337165	0.166875	-0.281633
C131	C	0.893420	-0.338678	-0.749156
C132	C	1.393420	0.161322	-0.249156
C133	C	0.854988	-0.293614	-0.982062
C134	C	1.354988	0.206386	-0.482062
C135	C	0.854985	-0.293606	-1.047499
C136	C	1.354985	0.206394	-0.547499
C137	C	0.931864	-0.383615	-1.050747
C138	C	1.431864	0.116385	-0.550747
C139	C	0.931862	-0.383627	-0.985312
C140	C	1.431862	0.116373	-0.485312
C141	C	0.893424	-0.338623	-0.950973
C142	C	1.393424	0.161377	-0.450973
C143	C	0.893318	-0.338779	-0.151486
C144	C	1.393318	0.161221	0.348514
C145	C	0.893425	-0.338599	-0.081839
C146	C	1.393425	0.161401	0.418161
H147	H	0.248271	-0.420541	-0.389817
H148	H	0.748271	0.079459	0.110183
C149	C	0.725961	-0.322160	-0.840020
C150	C	1.225961	0.177840	-0.340020
C151	C	0.775334	-0.327016	-0.882764
C152	C	1.275334	0.172984	-0.382764
H153	H	0.687789	-0.318393	-0.862061
H154	H	1.187789	0.181607	-0.362061
H155	H	0.723668	-0.362961	-0.815945
H156	H	1.223668	0.137039	-0.315945
H157	H	0.732937	-0.281825	-0.813072
H158	H	1.232937	0.218175	-0.313072
H159	H	0.768360	-0.367354	-0.909709
H160	H	1.268360	0.132646	-0.409709
H161	H	0.777626	-0.286211	-0.906849
H162	H	1.277626	0.213789	-0.406849
C163	C	0.367084	-0.355545	-0.482918
C164	C	0.867084	0.144455	0.017082
C165	C	0.324674	-0.350593	-0.433216
C166	C	0.824674	0.149407	0.066784
H167	H	0.344785	-0.359352	-0.521366
H168	H	0.844785	0.140648	-0.021366
H169	H	0.394105	-0.314762	-0.482320
H170	H	0.894105	0.185238	0.017680
H171	H	0.391116	-0.395889	-0.478780
H172	H	0.891116	0.104111	0.021220
H173	H	0.300645	-0.310247	-0.437352
H174	H	0.800645	0.189753	0.062648
H175	H	0.297642	-0.391381	-0.433815
H176	H	0.797642	0.108619	0.066185
H177	H	0.951712	-0.740025	-0.256009
H178	H	1.451712	-0.240025	0.243991
C179	C	0.750134	-0.259329	-1.066338
C180	C	1.250134	0.240671	-0.566338
C181	C	0.812735	-0.244124	-1.081667
C182	C	1.312735	0.255876	-0.581667
H183	H	0.724051	-0.228776	-1.087430
H184	H	1.224051	0.271224	-0.587430
H185	H	0.739251	-0.306611	-1.078737
H186	H	1.239251	0.193389	-0.578737
H187	H	0.744645	-0.252898	-1.022452
H188	H	1.244645	0.247102	-0.522452
H189	H	0.818225	-0.250560	-1.125554
H190	H	1.318225	0.249440	-0.625554
H191	H	0.823621	-0.196831	-1.069273
H192	H	1.323621	0.303169	-0.569273
C193	C	0.763038	-0.644073	-0.444313
C194	C	1.263038	-0.144073	0.055687
C195	C	0.799921	-0.596275	-0.407471
C196	C	1.299921	-0.096275	0.092529
H197	H	0.736717	-0.619145	-0.470576
H198	H	1.236717	-0.119145	0.029424
H199	H	0.789310	-0.672692	-0.469336
H200	H	1.289310	-0.172692	0.030664
H201	H	0.738064	-0.672792	-0.418009
H202	H	1.238064	-0.172792	0.081991
H203	H	0.824899	-0.567560	-0.433775
H204	H	1.324899	-0.067560	0.066225
H205	H	0.773646	-0.567644	-0.382446
H206	H	1.273646	-0.067644	0.117554
H207	H	0.657735	-0.257069	-0.238707
H208	H	1.157735	0.242931	0.261293
H209	H	0.956436	-0.606679	-0.251217
H210	H	1.456436	-0.106679	0.248783
C211	C	0.778984	-0.204739	-0.581791
C212	C	1.278984	0.295261	-0.081791
C213	C	0.812718	-0.244249	-0.540680
C214	C	1.312718	0.255751	-0.040680
H215	H	0.752895	-0.174207	-0.558487
H216	H	1.252895	0.325793	-0.058487
H217	H	0.807262	-0.177806	-0.606373
H218	H	1.307262	0.322194	-0.106373
H219	H	0.753908	-0.235411	-0.608386
H220	H	1.253908	0.264589	-0.108386
H221	H	0.837797	-0.213578	-0.514087
H222	H	1.337797	0.286422	-0.014087
H223	H	0.784436	-0.271184	-0.516087
H224	H	1.284436	0.228816	-0.016087
H225	H	0.452743	-0.349038	-0.417027
H226	H	0.952743	0.150962	0.082973
C227	C	0.160906	-0.472931	-0.438214
C228	C	0.660906	0.027069	0.061786
C229	C	0.119781	-0.433353	-0.401716
C230	C	0.619781	0.066647	0.098284
H231	H	0.137614	-0.503520	-0.466450
H232	H	0.637614	-0.003520	0.033550
H233	H	0.187574	-0.442311	-0.461130
H234	H	0.687574	0.057689	0.038870
H235	H	0.185415	-0.499812	-0.411813
H236	H	0.685415	0.000188	0.088187
H237	H	0.095275	-0.406467	-0.428117
H238	H	0.595275	0.093533	0.071883
H239	H	0.093102	-0.463976	-0.378798
H240	H	0.593102	0.036024	0.121202
C241	C	0.144887	-0.174440	-0.238166
C242	C	0.644887	0.325560	0.261834
C243	C	0.126517	-0.244125	-0.227032
C244	C	0.626517	0.255875	0.272968
H245	H	0.123762	-0.143858	-0.209941
H246	H	0.623762	0.356142	0.290059
H247	H	0.188761	-0.167995	-0.232187
H248	H	0.688761	0.332005	0.267813
H249	H	0.134585	-0.164206	-0.279920
H250	H	0.634585	0.335794	0.220080
H251	H	0.136823	-0.254360	-0.185279
H252	H	0.636823	0.245640	0.314721
H253	H	0.082632	-0.250573	-0.233006
H254	H	0.582632	0.249427	0.266994
H255	H	0.539022	-0.257054	-0.238748
H256	H	1.039022	0.242946	0.261252
H257	H	0.806248	-0.740105	-0.401229
H258	H	1.306248	-0.240105	0.098771
C259	C	0.247448	-0.259253	-0.165454
C260	C	0.747448	0.240747	0.334546
C261	C	0.263883	-0.244153	-0.226983
C262	C	0.763883	0.255847	0.273017
H263	H	0.270743	-0.228675	-0.137211
H264	H	0.770743	0.271325	0.362789
H265	H	0.204031	-0.252791	-0.159519
H266	H	0.704031	0.247209	0.340481
H267	H	0.256434	-0.306534	-0.157903
H268	H	0.756434	0.193466	0.342097
H269	H	0.254893	-0.196874	-0.234536
H270	H	0.754893	0.303126	0.265464
H271	H	0.307310	-0.250610	-0.232921
H272	H	0.807310	0.249390	0.267079
H273	H	0.334560	-0.328568	-0.211529
H274	H	0.834560	0.171432	0.288471
C275	C	0.785052	-1.032906	-0.422552
C276	C	1.285052	-0.532906	0.077448
C277	C	0.818541	-1.080667	-0.389130
C278	C	1.318541	-0.580667	0.110870
H279	H	0.756970	-1.057863	-0.450611
H280	H	1.256970	-0.557863	0.049389
H281	H	0.762110	-1.004288	-0.394202
H282	H	1.262110	-0.504288	0.105798
H283	H	0.813366	-1.004183	-0.445518
H284	H	1.313366	-0.504183	0.054482
H285	H	0.790227	-1.109386	-0.366161
H286	H	1.290227	-0.609386	0.133839
H287	H	0.841485	-1.109297	-0.417484
H288	H	1.341485	-0.609297	0.082516
H289	H	0.980525	-0.936755	-0.227339
H290	H	1.480525	-0.436755	0.272661
H291	H	0.823678	-0.257041	-0.669175
H292	H	1.323678	0.242959	-0.169175
C293	C	0.696709	-0.478625	-0.367719
C294	C	1.196709	0.021375	0.132281
C295	C	0.660775	-0.433472	-0.401527
C296	C	1.160775	0.066528	0.098473
H297	H	0.717817	-0.509216	-0.395951
H298	H	1.217817	-0.009216	0.104049
H299	H	0.726512	-0.451789	-0.342936
H300	H	1.226512	0.048211	0.157064
H301	H	0.670164	-0.505503	-0.341348
H302	H	1.170164	-0.005503	0.158652
H303	H	0.687320	-0.406591	-0.427894
H304	H	1.187320	0.093409	0.072106
H305	H	0.630968	-0.460312	-0.426320
H306	H	1.130968	0.039688	0.073680
H307	H	0.823690	-0.256970	-0.954102
H308	H	1.323690	0.243030	-0.454102
C309	C	0.966020	-0.423541	-1.152490
C310	C	1.466020	0.076459	-0.652490
C311	C	0.974128	-0.433063	-1.088491
C312	C	1.474128	0.066937	-0.588491
H313	H	0.992117	-0.454065	-1.175792
H314	H	1.492117	0.045935	-0.675792
H315	H	0.923556	-0.433858	-1.163550
H316	H	1.423556	0.066142	-0.663550
H317	H	0.976899	-0.376241	-1.161532
H318	H	1.476899	0.123759	-0.661532
H319	H	0.963244	-0.480362	-1.079448
H320	H	1.463244	0.019638	-0.579448
H321	H	1.016601	-0.422751	-1.077427
H322	H	1.516601	0.077249	-0.577427
C323	C	0.860818	-0.884037	-0.422358
C324	C	1.360818	-0.384037	0.077642
C325	C	0.824004	-0.926371	-0.383591
C326	C	1.324004	-0.426371	0.116409
H327	H	0.834491	-0.859122	-0.448626
H328	H	1.334491	-0.359122	0.051374
H329	H	0.885835	-0.851614	-0.397366
H330	H	1.385835	-0.351614	0.102634
H331	H	0.887089	-0.912668	-0.447382
H332	H	1.387089	-0.412668	0.052618
H333	H	0.797737	-0.897739	-0.358563
H334	H	1.297737	-0.397739	0.141437
H335	H	0.798976	-0.958798	-0.408586
H336	H	1.298976	-0.458798	0.091414
H337	H	0.533199	-0.420601	-0.389717
H338	H	1.033199	0.079399	0.110283
C339	C	0.765077	-0.386526	-0.709888
C340	C	1.265077	0.113474	-0.209888
C341	C	0.775334	-0.327051	-0.745406
C342	C	1.275334	0.172949	-0.245406
H343	H	0.726906	-0.382775	-0.687520
H344	H	1.226906	0.117225	-0.187520
H345	H	0.762784	-0.427308	-0.736863
H346	H	1.262784	0.072692	-0.236863
H347	H	0.798583	-0.389822	-0.681184
H348	H	1.298583	0.110178	-0.181184
H349	H	0.741830	-0.323757	-0.774113
H350	H	1.241830	0.176243	-0.274113
H351	H	0.777622	-0.286257	-0.718428
H352	H	1.277622	0.213743	-0.218428
H353	H	0.453264	-0.328588	-0.211486
H354	H	0.953264	0.171412	0.288514
H355	H	0.963138	-0.420382	-0.556364
H356	H	1.463138	0.079618	-0.056364
C357	C	1.021758	-0.290842	-0.706675
C358	C	1.521758	0.209158	-0.206675
C359	C	1.011501	-0.350296	-0.746403
C360	C	1.511501	0.149704	-0.246403
H361	H	1.059929	-0.294605	-0.684632
H362	H	1.559929	0.205395	-0.184632
H363	H	1.024051	-0.250045	-0.730755
H364	H	1.524051	0.249955	-0.230755
H365	H	0.988252	-0.287561	-0.677687
H366	H	1.488252	0.212439	-0.177687
H367	H	1.045004	-0.353574	-0.775394
H368	H	1.545004	0.146426	-0.275394
H369	H	1.009213	-0.391104	-0.722321
H370	H	1.509213	0.108896	-0.222321
C371	C	0.975839	-1.152860	-0.232150
C372	C	1.475839	-0.652860	0.267850
C373	C	0.986861	-1.080577	-0.221103
C374	C	1.486861	-0.580577	0.278897
H375	H	1.002172	-1.177784	-0.205895
H376	H	1.502172	-0.677784	0.294105
H377	H	0.933324	-1.164966	-0.223353
H378	H	1.433324	-0.664966	0.276647
H379	H	0.984556	-1.164853	-0.274694
H380	H	1.484556	-0.664853	0.225306
H381	H	0.978140	-1.068583	-0.178561
H382	H	1.478140	-0.568583	0.321439
H383	H	1.029386	-1.068466	-0.229896
H384	H	1.529386	-0.568466	0.270104
C385	C	1.007859	-0.472584	-0.995097
C386	C	1.507859	0.027416	-0.495097
C387	C	0.974115	-0.433097	-0.951136
C388	C	1.474115	0.066903	-0.451136
H389	H	1.033947	-0.503123	-0.973997
H390	H	1.533947	-0.003123	-0.473997
H391	H	0.979586	-0.499508	-1.021552
H392	H	1.479586	0.000492	-0.521552
H393	H	1.032935	-0.441898	-1.019550
H394	H	1.532935	0.058102	-0.519550
H395	H	0.949035	-0.463783	-0.926687
H396	H	1.449035	0.036217	-0.426687
H397	H	1.002391	-0.406171	-0.924670
H398	H	1.502391	0.093829	-0.424670
C399	C	1.052396	-0.293822	-0.865946
C400	C	1.552396	0.206178	-0.365946
C401	C	1.011511	-0.350263	-0.883751
C402	C	1.511511	0.149737	-0.383751
H403	H	1.090577	-0.297577	-0.888296
H404	H	1.590577	0.202423	-0.388296
H405	H	1.033919	-0.250982	-0.875140
H406	H	1.533919	0.249018	-0.375140
H407	H	1.060428	-0.294636	-0.822325
H408	H	1.560428	0.205364	-0.322325
H409	H	1.003475	-0.349446	-0.927371
H410	H	1.503475	0.150554	-0.427371
H411	H	1.029992	-0.393114	-0.874561
H412	H	1.529992	0.106886	-0.374561
C413	C	1.036701	-0.417968	-0.668539
C414	C	1.536701	0.082032	-0.168539
C415	C	0.974102	-0.433167	-0.684856
C416	C	1.474102	0.066833	-0.184856
H417	H	1.062786	-0.448506	-0.691839
H418	H	1.562786	0.051494	-0.191839
H419	H	1.047582	-0.370679	-0.677593
H420	H	1.547582	0.129321	-0.177593
H421	H	1.042188	-0.424422	-0.625118
H422	H	1.542188	0.075578	-0.125118
H423	H	0.968613	-0.426708	-0.728276
H424	H	1.468613	0.073292	-0.228276
H425	H	0.963217	-0.480467	-0.675806
H426	H	1.463217	0.019533	-0.175806
