data_functionalizedCrystal
_audit_creation_method	'MofGen! by Chris Wilmer'
_symmetry_space_group_name_H-M	'P1'
_symmetry_Int_Tables_number	1
_symmetry_cell_setting	triclinic
loop_
_symmetry_equiv_pos_as_xyz
  x,y,z
_cell_length_a	26.374263
_cell_length_b	26.373608
_cell_length_c	26.370205
_cell_angle_alpha	60.005297
_cell_angle_beta	60.010839
_cell_angle_gamma	59.993700
loop_
_atom_site_label
_atom_site_type_symbol
_atom_site_fract_x
_atom_site_fract_y
_atom_site_fract_z
O1	O	0.070152	-0.740800	0.619517
O2	O	0.026377	-0.576764	0.499159
O3	O	0.130245	-0.680560	0.499088
O4	O	-0.033715	-0.637003	0.619589
O5	O	0.164701	-0.646107	0.533470
O6	O	0.060833	-0.542310	0.533541
O7	O	0.104608	-0.706346	0.653899
Cu8	Cu	0.085867	-0.621182	0.596859
Cu9	Cu	0.045119	-0.661927	0.556199
O10	O	0.000741	-0.602549	0.653971
N11	N	0.114528	-0.592529	0.625461
N12	N	0.016463	-0.690587	0.527598
C13	C	0.181428	-0.355400	0.692330
C14	C	0.181530	-0.525690	0.862573
C15	C	0.181440	-0.525667	0.692313
C16	C	0.351736	-0.525673	0.692271
C17	C	0.200174	-0.411588	0.711047
C18	C	0.200232	-0.506954	0.806384
C19	C	0.295546	-0.506943	0.711016
C20	C	0.200182	-0.506940	0.711037
C21	C	0.157567	-0.283881	0.668507
C22	C	0.157587	-0.549500	0.668479
C23	C	0.224035	-0.483107	0.734871
C24	C	0.455739	-0.507754	0.637520
C25	C	0.520749	-0.529425	0.615835
C26	C	0.520768	-0.634611	0.655947
C27	C	0.455759	-0.612939	0.677633
C28	C	0.173240	-0.251367	0.604595
C29	C	0.151546	-0.186351	0.582941
C30	C	0.098512	-0.186369	0.689113
C31	C	0.120206	-0.251385	0.710768
C32	C	0.093669	-0.533798	0.684205
C33	C	0.071992	-0.555464	0.662532
C34	C	0.178144	-0.608536	0.609422
C35	C	0.199825	-0.586869	0.631088
C36	C	0.093821	-0.533842	0.966616
C37	C	0.072187	-0.555526	1.031630
C38	C	0.178370	-0.608608	1.031591
C39	C	0.200004	-0.586926	0.966576
C40	C	0.157728	-0.549541	0.934090
C41	C	0.423247	-0.549509	0.668416
C42	C	-0.097522	-0.709158	0.508557
C43	C	-0.002050	-0.709295	0.413344
C44	C	-0.002241	-0.804604	0.508735
C45	C	-0.002225	-0.709288	0.508793
C46	C	-0.026009	-0.733087	0.484858
N47	N	0.552340	-0.592538	0.625346
O48	O	0.750867	-0.598274	0.477076
O49	O	0.751048	-0.718989	0.640960
O50	O	0.750981	-0.718715	0.537020
O51	O	0.750934	-0.598547	0.581017
O52	O	0.647701	-0.684348	0.571512
O53	O	0.647768	-0.684622	0.675452
O54	O	0.647587	-0.563907	0.511569
Cu55	Cu	0.638247	-0.621127	0.596660
Cu56	Cu	0.760388	-0.661769	0.555869
O57	O	0.647654	-0.564181	0.615509
N58	N	0.846295	-0.690358	0.527176
N59	N	0.114503	-0.154778	0.625499
O60	O	-0.033701	0.043855	0.619632
O61	O	0.130190	0.043858	0.498933
O62	O	0.026233	0.043841	0.499224
O63	O	0.070257	0.043872	0.619341
O64	O	0.060690	-0.059448	0.533654
O65	O	0.164647	-0.059431	0.533363
O66	O	0.000756	-0.059434	0.654062
Cu67	Cu	0.085848	-0.068863	0.596857
Cu68	Cu	0.045099	0.053287	0.556138
O69	O	0.104714	-0.059417	0.653771
N70	N	0.016435	0.139202	0.527497
N71	N	0.114760	-0.592585	1.063190
O72	O	0.108896	-0.740779	1.261808
O73	O	-0.011787	-0.576838	1.261822
O74	O	-0.011509	-0.680779	1.261780
O75	O	0.108618	-0.636838	1.261850
O76	O	0.022916	-0.646341	1.158496
O77	O	0.022638	-0.542399	1.158538
O78	O	0.143321	-0.706341	1.158524
Cu79	Cu	0.086123	-0.621225	1.149100
Cu80	Cu	0.045411	-0.661953	1.271246
O81	O	0.143044	-0.602399	1.158566
N82	N	0.016774	-0.690600	1.357156
C83	C	0.039504	-0.538867	0.499769
C84	C	0.168130	-0.667407	0.499680
C85	C	0.091482	-0.744243	0.653289
C86	C	-0.037145	-0.615703	0.653378
C87	C	0.699429	-0.718429	0.678853
C88	C	0.699348	-0.718091	0.550135
C89	C	0.699202	-0.564465	0.473677
C90	C	0.699287	-0.564805	0.602393
C91	C	0.168023	-0.007659	0.499484
C92	C	0.039327	-0.007807	0.499887
C93	C	-0.037119	-0.007789	0.653468
C94	C	0.091620	-0.007770	0.653109
C95	C	-0.011194	-0.538964	1.210181
C96	C	-0.010843	-0.667676	1.210109
C97	C	0.142729	-0.744214	1.210165
C98	C	0.142386	-0.615494	1.210214
H99	H	0.059391	-0.503396	0.940172
H100	H	0.180620	-0.791296	1.210154
C101	C	-0.040238	-0.436957	1.210212
C102	C	-0.062346	-0.475404	1.210186
H103	H	-0.071820	-0.397719	1.210219
H104	H	-0.004954	-0.431524	1.174204
H105	H	-0.028957	-0.455549	1.246239
H106	H	-0.073623	-0.456814	1.174157
H107	H	-0.097642	-0.480835	1.246198
H108	H	-0.048566	-0.677061	1.210046
H109	H	0.030155	-0.491745	0.461969
C110	C	0.068864	-0.060924	0.432282
C111	C	0.026622	-0.007823	0.448937
H112	H	0.061026	-0.060932	0.400824
H113	H	0.064238	-0.096932	0.467601
H114	H	0.109977	-0.060913	0.417116
H115	H	-0.014491	-0.007836	0.464107
H116	H	0.031243	0.028195	0.413610
H117	H	0.180125	-0.606093	1.210228
C118	C	0.699531	-0.822738	0.742460
C119	C	0.699498	-0.769594	0.742390
H120	H	0.699571	-0.854323	0.781686
H121	H	0.735534	-0.836953	0.710850
H122	H	0.663501	-0.812980	0.734900
H123	H	0.735530	-0.779352	0.749945
H124	H	0.663491	-0.755378	0.774009
C125	C	-0.030596	-0.500857	1.025129
C126	C	0.001936	-0.538255	1.067377
H127	H	-0.073965	-0.490194	1.047199
H128	H	-0.019952	-0.522909	0.999769
H129	H	-0.019940	-0.464100	0.999773
H130	H	-0.008717	-0.575014	1.092730
H131	H	-0.008713	-0.516203	1.092747
C132	C	0.065605	-0.244867	0.813539
C133	C	0.102979	-0.287123	0.781022
H134	H	0.054973	-0.266933	0.856912
H135	H	0.028839	-0.219512	0.802891
H136	H	0.087661	-0.219506	0.802872
H137	H	0.080921	-0.312482	0.791685
H138	H	0.139751	-0.312490	0.791675
C139	C	0.051439	-0.007759	0.757327
C140	C	0.104337	-0.007760	0.704054
H141	H	0.059290	-0.007749	0.788776
H142	H	0.041594	-0.043779	0.771674
H143	H	0.017559	0.028260	0.747659
H144	H	0.138215	-0.043782	0.713720
H145	H	0.114190	0.028263	0.689705
C146	C	0.285504	-0.658904	1.025021
C147	C	0.224841	-0.649701	1.067299
H148	H	0.314191	-0.684281	1.047067
H149	H	0.291734	-0.619939	0.999674
H150	H	0.291729	-0.678743	0.999655
H151	H	0.218614	-0.629858	1.092662
H152	H	0.218609	-0.688674	1.092657
C153	C	0.223091	0.045925	0.396341
C154	C	0.231431	-0.007279	0.448195
H155	H	0.262237	0.046153	0.364676
H156	H	0.204379	0.081862	0.407782
H157	H	0.197007	0.045835	0.381390
H158	H	0.257511	-0.007186	0.463148
H159	H	0.250152	-0.043226	0.436752
C160	C	0.097251	-0.799908	0.756347
C161	C	0.104098	-0.807854	0.704321
H162	H	0.105044	-0.839180	0.787850
H163	H	0.056147	-0.773901	0.771452
H164	H	0.125929	-0.781265	0.745024
H165	H	0.075417	-0.826493	0.715644
H166	H	0.145209	-0.833871	0.689214
H167	H	0.699142	-0.526565	0.426612
C168	C	0.242821	-0.729844	0.434283
C169	C	0.231702	-0.679938	0.448593
H170	H	0.282069	-0.737582	0.402747
H171	H	0.211239	-0.720013	0.420021
H172	H	0.242706	-0.765787	0.470376
H173	H	0.231812	-0.643994	0.412500
H174	H	0.263292	-0.689767	0.462853
H175	H	0.252044	-0.599714	0.940097
H176	H	-0.084187	-0.007791	0.691362
C177	C	0.699210	-0.460562	0.562196
C178	C	0.699273	-0.513843	0.615096
H179	H	0.699206	-0.429102	0.570037
H180	H	0.663178	-0.446233	0.552369
H181	H	0.735210	-0.470214	0.528307
H182	H	0.663270	-0.504192	0.648983
H183	H	0.735309	-0.528174	0.624930
C184	C	0.009843	-0.438526	0.692787
C185	C	0.047240	-0.492715	0.725297
H186	H	-0.018818	-0.413162	0.718156
H187	H	-0.012211	-0.449186	0.682135
H188	H	0.035199	-0.416475	0.656026
H189	H	0.021885	-0.514768	0.762056
H190	H	0.069296	-0.482055	0.735958
C191	C	-0.025135	-0.560282	0.744477
C192	C	0.001733	-0.538216	0.679816
H193	H	-0.068508	-0.549638	0.755146
H194	H	-0.018275	-0.542027	0.762732
H195	H	-0.006848	-0.604149	0.759403
H196	H	-0.016551	-0.494348	0.664890
H197	H	-0.005132	-0.556468	0.661554
H198	H	0.699366	-0.755841	0.540718
H199	H	0.212545	-0.638970	0.578981
H200	H	0.429307	-0.646943	0.702793
C201	C	0.302579	-0.641491	0.576397
C202	C	0.270085	-0.604119	0.613796
H203	H	0.345954	-0.652140	0.565723
H204	H	0.291889	-0.619427	0.539655
H205	H	0.291938	-0.678256	0.598457
H206	H	0.280723	-0.567350	0.591734
H207	H	0.280780	-0.626183	0.650545
H208	H	0.547206	-0.495421	0.590679
C209	C	0.540776	-0.724144	0.637116
C210	C	0.556507	-0.704333	0.666073
H211	H	0.562839	-0.767188	0.643371
H212	H	0.551412	-0.701477	0.593890
H213	H	0.497407	-0.717210	0.654458
H214	H	0.599875	-0.711262	0.648728
H215	H	0.545874	-0.727007	0.709308
C216	C	0.462252	-0.405959	0.595697
C217	C	0.419999	-0.438029	0.627393
H218	H	0.440188	-0.362915	0.589447
H219	H	0.487593	-0.411990	0.556639
H220	H	0.487624	-0.421216	0.619516
H221	H	0.394630	-0.422775	0.603571
H222	H	0.394648	-0.431994	0.666457
H223	H	-0.084239	-0.606419	0.691217
H224	H	0.203661	-0.277820	0.570179
H225	H	0.164306	-0.159876	0.530897
H226	H	0.068098	-0.159910	0.723527
