data_functionalizedCrystal
_audit_creation_method	'MofGen! by Chris Wilmer'
_symmetry_space_group_name_H-M	'P1'
_symmetry_Int_Tables_number	1
_symmetry_cell_setting	triclinic
loop_
_symmetry_equiv_pos_as_xyz
  x,y,z
_cell_length_a	15.944551
_cell_length_b	16.974800
_cell_length_c	14.421503
_cell_angle_alpha	93.649336
_cell_angle_beta	90.001526
_cell_angle_gamma	83.444312
loop_
_atom_site_label
_atom_site_type_symbol
_atom_site_fract_x
_atom_site_fract_y
_atom_site_fract_z
O1	O	0.106997	1.049154	0.001649
O2	O	0.120644	0.818949	-0.015635
O3	O	-0.008462	0.940338	-0.006513
O4	O	0.236103	0.927765	-0.007473
O5	O	-0.008448	0.940319	0.147709
O6	O	0.120659	0.818930	0.138587
O7	O	0.107012	1.049135	0.155871
Cu8	Cu	0.113837	0.934030	0.161311
Cu9	Cu	0.113819	0.934053	-0.021075
O10	O	0.236118	0.927746	0.146749
C11	C	0.120134	0.789481	0.059264
C12	C	0.118583	0.701704	0.052674
C13	C	0.117860	0.660461	0.133646
C14	C	0.116389	0.577987	0.127457
C15	C	0.115647	0.536758	0.040294
C16	C	0.116367	0.578007	-0.040684
C17	C	0.117832	0.660480	-0.034494
C18	C	0.111258	0.290102	0.012766
C19	C	0.109796	0.207623	0.006581
C20	C	0.109816	0.207609	0.174723
C21	C	0.111286	0.290083	0.180906
C22	C	0.112002	0.331325	0.099928
N23	N	0.114146	0.452456	0.033965
N24	N	0.113497	0.415626	0.106257
C25	C	-0.039748	0.939806	0.070559
C26	C	-0.132992	0.938241	0.070442
C27	C	-0.347749	0.859259	0.064499
C28	C	-0.408805	0.895926	0.143294
C29	C	-0.303715	0.935411	0.070223
C30	C	-0.408803	0.895963	-0.008756
C31	C	-0.468624	0.932671	0.070006
C32	C	-0.363543	0.972099	0.149081
C33	C	-0.363534	0.972125	-0.003037
C34	C	-0.424573	1.008848	0.075780
C35	C	-0.208714	0.936987	0.070348
C36	C	-0.563623	0.931100	0.069888
C37	C	0.267404	0.928277	0.069675
C38	C	0.360648	0.929842	0.069785
C39	C	0.107522	1.078603	0.080970
C40	C	0.109073	1.166379	0.087554
N41	N	0.113848	0.934020	0.289591
N42	N	0.113801	0.934070	-0.149355
C43	C	0.174013	0.878353	0.596861
C44	C	0.098365	0.862354	0.533837
C45	C	0.113815	0.934053	0.661482
C46	C	0.189478	0.949998	0.540409
C47	C	0.113836	0.934035	0.478760
C48	C	0.038128	0.918018	0.599816
C49	C	0.129291	1.005694	0.606396
C50	C	0.053587	0.989725	0.543402
C51	C	0.113804	0.934061	0.766744
C52	C	0.113837	0.934027	0.373500
H53	H	0.118471	0.694023	0.204624
C54	C	-0.435912	0.852402	0.226872
N55	N	-0.456327	0.819614	0.289820
H56	H	0.085281	0.801762	0.502136
C57	C	0.109020	0.162236	0.263794
N58	N	0.108416	0.128062	0.330885
C59	C	0.147009	1.087523	0.649252
N60	N	0.160365	1.149156	0.681536
C61	C	0.275911	0.968233	0.505103
N62	N	0.341014	0.981962	0.478515
C63	C	-0.048322	0.899686	0.634962
N64	N	-0.113433	0.885875	0.661435
H65	H	-0.343587	1.004273	0.215855
H66	H	0.115786	0.544412	0.193394
C67	C	0.118629	0.705847	-0.123570
N68	N	0.119227	0.740017	-0.190666
H69	H	-0.343451	1.004315	-0.064911
C70	C	-0.015248	1.053350	0.511733
N71	N	-0.067097	1.101268	0.487877
H72	H	0.111887	0.323647	0.251883
H73	H	0.109194	0.174055	-0.064401
H74	H	-0.428846	0.863752	-0.075466
H75	H	0.224855	0.831226	0.620467
C76	C	-0.469486	1.094313	0.082257
N77	N	-0.503317	1.158684	0.087141
C78	C	0.115548	0.532652	-0.136565
N79	N	0.114934	0.498491	-0.208784
C80	C	0.112039	0.335459	-0.076314
N81	N	0.112623	0.369625	-0.143413
H82	H	-0.314362	0.796049	0.059829
