data_functionalizedCrystal
_audit_creation_method	'MofGen! by Chris Wilmer'
_symmetry_space_group_name_H-M	'P1'
_symmetry_Int_Tables_number	1
_symmetry_cell_setting	triclinic
loop_
_symmetry_equiv_pos_as_xyz
  x,y,z
_cell_length_a	12.594516
_cell_length_b	12.759401
_cell_length_c	12.759393
_cell_angle_alpha	89.979728
_cell_angle_beta	90.028074
_cell_angle_gamma	89.983125
loop_
_atom_site_label
_atom_site_type_symbol
_atom_site_fract_x
_atom_site_fract_y
_atom_site_fract_z
Zn1	Zn	-0.423667	-1.606233	0.594082
Zn2	Zn	-0.601683	-1.606127	0.418409
Zn3	Zn	-0.423722	-1.430539	0.418412
Zn4	Zn	-0.601606	-1.430520	0.594042
O5	O	-0.512669	-1.518355	0.506236
O6	O	-0.447290	-1.753240	0.570794
O7	O	-0.578131	-1.582799	0.271389
O8	O	-0.274768	-1.453898	0.441733
O9	O	-0.578078	-1.753162	0.441728
O10	O	-0.274728	-1.582980	0.570797
O11	O	-0.447383	-1.453795	0.271391
O12	O	-0.447309	-1.283515	0.441694
O13	O	-0.577947	-1.453865	0.741068
O14	O	-0.578000	-1.283501	0.570728
O15	O	-0.447216	-1.582961	0.741097
O16	O	-0.750619	-1.582780	0.441689
O17	O	-0.750562	-1.453762	0.570726
C18	C	-0.512653	-1.245388	0.506208
C19	C	-0.512672	-1.128611	0.506221
C20	C	-0.580826	-1.073769	0.573302
C21	C	-0.580828	-0.964045	0.573320
C22	C	-0.444520	-0.964014	0.439166
C23	C	-0.444513	-1.073736	0.439155
C24	C	-0.619018	-0.814143	0.697178
C25	C	-0.687189	-0.759298	0.764249
C26	C	-0.791062	-0.794893	0.780202
C27	C	-0.826787	-0.885331	0.729069
C28	C	-0.758622	-0.940171	0.661989
C29	C	-0.654734	-0.904578	0.646056
C30	C	-0.406334	-1.223640	0.315295
C31	C	-0.338174	-1.278482	0.248210
C32	C	-0.234298	-1.242889	0.232246
C33	C	-0.198578	-1.152447	0.283361
C34	C	-0.266738	-1.097605	0.350447
C35	C	-0.370612	-1.133206	0.366412
C36	C	-0.789210	-1.518286	0.506226
C37	C	-0.907516	-1.518353	0.506257
C38	C	-0.976777	-1.448173	0.576390
C39	C	-1.047646	-1.422576	0.480522
C40	C	-1.047446	-1.544046	0.602141
C41	C	-0.976827	-1.492705	0.410338
C42	C	-0.976620	-1.614219	0.532021
C43	C	-1.047457	-1.588658	0.436087
C44	C	-0.235049	-1.518453	0.506270
C45	C	-0.116743	-1.518494	0.506284
C46	C	-0.512567	-1.518423	0.780270
C47	C	-0.512524	-1.518452	0.897046
C48	C	-0.512684	-0.792388	0.506258
C49	C	-0.512682	-0.909165	0.506250
C50	C	-0.512695	-1.518348	0.233269
C51	C	-0.512438	-1.518522	0.116493
C52	C	-0.580564	-1.451254	0.951895
C53	C	-0.580524	-1.451292	1.061619
C54	C	-0.444395	-1.585727	1.061637
C55	C	-0.444441	-1.585694	0.951914
C56	C	-0.705986	-1.413752	1.211557
C57	C	-0.774017	-1.346538	1.266409
C58	C	-0.790365	-1.244007	1.230792
C59	C	-0.738666	-1.208669	1.140324
C60	C	-0.670628	-1.275878	1.085477
C61	C	-0.654300	-1.378423	1.121093
C62	C	-0.318978	-1.623223	0.801974
C63	C	-0.250933	-1.690427	0.747126
C64	C	-0.234574	-1.792960	0.782741
C65	C	-0.286254	-1.828294	0.873213
C66	C	-0.354298	-1.761090	0.928061
C67	C	-0.370659	-1.658558	0.892438
H68	H	-0.846567	-0.750230	0.834815
H69	H	-0.658092	-0.685663	0.805883
H70	H	-0.945402	-1.695208	0.553837
N71	N	-0.410049	-1.799190	1.025640
H72	H	-0.355579	-1.820734	1.079633
H73	H	-0.456290	-1.861277	1.007594
N74	N	-0.935915	-1.463863	0.302913
H75	H	-0.997832	-1.450890	0.254271
H76	H	-0.891157	-1.523132	0.274629
N77	N	-0.935654	-1.369417	0.654827
H78	H	-0.855467	-1.370391	0.654731
H79	H	-0.962519	-1.388066	0.727029
N80	N	-0.268612	-1.938882	0.911639
H81	H	-0.217668	-1.976094	0.863164
H82	H	-0.338574	-1.977527	0.912784
H83	H	-0.208845	-1.661646	0.673464
H84	H	-0.367267	-1.352124	0.206588
H85	H	-1.078296	-1.648068	0.376721
N86	N	-0.518382	-1.262016	0.332513
H87	H	-0.529250	-1.278073	0.409278
H88	H	-0.530606	-1.327596	0.289885
N89	N	-0.161171	-1.865443	0.723593
H90	H	-0.130903	-1.827503	0.660880
H91	H	-0.202130	-1.928969	0.699229
N92	N	-1.088543	-1.572754	0.709533
H93	H	-1.026712	-1.585067	0.758452
H94	H	-1.132625	-1.638671	0.704505
N95	N	-0.336632	-1.512632	0.763554
H96	H	-0.293561	-1.500443	0.697924
H97	H	-0.313743	-1.461458	0.819542
N98	N	-1.088959	-1.315265	0.451661
H99	H	-1.134211	-1.287233	0.510669
H100	H	-1.133069	-1.320426	0.385741
N101	N	-0.938833	-0.923710	0.746256
H102	H	-0.976595	-0.875245	0.796508
H103	H	-0.936887	-0.996816	0.776568
N104	N	-0.756307	-1.098078	1.101911
H105	H	-0.686393	-1.059342	1.100782
H106	H	-0.807293	-1.060961	1.150412
N107	N	-0.653986	-1.378727	0.892713
H108	H	-0.697081	-1.336162	0.944113
H109	H	-0.703267	-1.421453	0.847182
N110	N	-0.506980	-0.775749	0.679972
H111	H	-0.455062	-0.831687	0.702649
H112	H	-0.494803	-0.710118	0.722535
N113	N	-0.654335	-1.132958	0.645634
H114	H	-0.697509	-1.081562	0.688133
H115	H	-0.611066	-1.178516	0.694322
H116	H	-0.237642	-1.023968	0.392075
N117	N	-0.370953	-1.658233	1.120820
H118	H	-0.327857	-1.700799	1.069421
H119	H	-0.414260	-1.706852	1.166347
H120	H	-0.114000	-1.123455	0.270346
H121	H	-0.816109	-1.375320	1.340069
H122	H	-0.389030	-0.919322	0.384562
N123	N	-0.614881	-1.237784	0.987899
H124	H	-0.635560	-1.162629	0.973654
H125	H	-0.636259	-1.282956	0.926431
H126	H	-0.787708	-1.013803	0.620356
H127	H	-0.845757	-1.189281	1.275461
N128	N	-0.160784	-1.302030	0.159878
H129	H	-0.199172	-1.364722	0.129908
H130	H	-0.096451	-1.326428	0.200398
H131	H	-0.692693	-1.497245	1.240559
