data_functionalizedCrystal
_audit_creation_method	'MofGen! by Chris Wilmer'
_symmetry_space_group_name_H-M	'P1'
_symmetry_Int_Tables_number	1
_symmetry_cell_setting	triclinic
loop_
_symmetry_equiv_pos_as_xyz
  x,y,z
_cell_length_a	8.597340
_cell_length_b	13.339070
_cell_length_c	12.376774
_cell_angle_alpha	80.987710
_cell_angle_beta	85.059325
_cell_angle_gamma	100.340786
loop_
_atom_site_label
_atom_site_type_symbol
_atom_site_fract_x
_atom_site_fract_y
_atom_site_fract_z
O1	O	2.107573	0.130744	0.111274
O2	O	1.671316	0.150358	0.068782
O3	O	1.839375	-0.006310	0.085155
O4	O	1.939514	0.287412	0.094902
O5	O	1.772703	-0.040402	0.266666
O6	O	1.604644	0.116266	0.250293
O7	O	2.040901	0.096652	0.292785
Zn8	Zn	1.812187	0.101046	0.300358
Zn9	Zn	1.900031	0.145964	0.061209
O10	O	1.872842	0.253320	0.276413
C11	C	1.581004	0.133105	0.153988
C12	C	1.411226	0.132476	0.137451
C13	C	1.789125	-0.060909	0.174261
C14	C	1.738707	-0.172804	0.169346
C15	C	2.130743	-0.540753	0.207531
C16	C	2.178115	-0.435623	0.212156
C17	C	2.068267	-0.369914	0.201454
C18	C	1.911038	-0.409343	0.186126
C19	C	1.863658	-0.514485	0.181509
C20	C	1.801183	-0.343645	0.175432
C21	C	1.643954	-0.383075	0.160104
C22	C	1.596581	-0.488206	0.155488
C23	C	1.706429	-0.553916	0.166190
C24	C	1.848563	-0.238504	0.180048
C25	C	1.581478	-0.212236	0.154026
C26	C	1.534106	-0.317365	0.149402
C27	C	2.131215	0.113905	0.207577
C28	C	2.300995	0.114536	0.224107
C29	C	1.923094	0.307919	0.187304
C30	C	1.973514	0.419816	0.192212
N31	N	1.752247	0.070390	0.463572
N32	N	1.959979	0.176611	-0.102003
C33	C	1.613055	-0.000785	0.509184
C34	C	1.571081	-0.022241	0.623431
C35	C	1.668303	0.027470	0.692078
C36	C	1.807504	0.098641	0.646467
C37	C	1.849475	0.120105	0.532208
C38	C	1.904723	0.148360	0.715102
C39	C	2.043924	0.219532	0.669491
C40	C	2.085888	0.240992	0.555243
C41	C	1.988667	0.191281	0.486596
C42	C	1.862751	0.126896	0.829361
C43	C	2.099171	0.247787	0.852385
C44	C	2.141145	0.269243	0.738137
H45	H	1.336504	0.099650	0.310951
O46	O	1.364207	0.152194	0.022402
H47	H	1.233768	0.148602	0.027022
H48	H	1.976579	-0.206411	0.192528
H49	H	2.106848	-0.284313	0.205220
O50	O	2.347693	-0.393089	0.228663
H51	H	2.416124	-0.456437	0.235312
H52	H	1.634120	0.009995	0.785102
O53	O	2.249208	-0.611622	0.219086
H54	H	2.189844	-0.691351	0.213300
O55	O	1.655320	-0.667312	0.161215
H56	H	1.758120	-0.706375	0.171238
H57	H	1.468553	-0.520307	0.143015
O58	O	1.364518	-0.359899	0.132889
H59	H	1.350033	-0.444046	0.131488
H60	H	1.492028	-0.158735	0.145317
O61	O	1.712646	0.050111	0.878539
H62	H	1.608340	0.077079	0.845659
H63	H	1.457744	-0.080189	0.660559
H64	H	1.533907	-0.041247	0.453282
H65	H	2.022840	0.208742	0.393566
O66	O	2.236010	0.317765	0.506039
H67	H	2.296571	0.348724	0.572964
O68	O	2.291264	0.346018	0.688932
H69	H	2.371705	0.306841	0.642842
O70	O	2.204059	0.301403	0.926410
H71	H	2.151502	0.274511	1.013520
