data_functionalizedCrystal
_audit_creation_method	'MofGen! by Chris Wilmer'
_symmetry_space_group_name_H-M	'P1'
_symmetry_Int_Tables_number	1
_symmetry_cell_setting	triclinic
loop_
_symmetry_equiv_pos_as_xyz
  x,y,z
_cell_length_a	21.295417
_cell_length_b	19.077105
_cell_length_c	21.295420
_cell_angle_alpha	87.688020
_cell_angle_beta	90.017552
_cell_angle_gamma	92.273328
loop_
_atom_site_label
_atom_site_type_symbol
_atom_site_fract_x
_atom_site_fract_y
_atom_site_fract_z
Zn1	Zn	-0.289439	-1.075919	0.394522
Zn2	Zn	0.043894	-0.742586	0.727855
Zn3	Zn	0.377227	-0.409252	1.061188
Zn4	Zn	-0.394680	-1.075829	0.289244
Zn5	Zn	-0.061347	-0.742495	0.622577
Zn6	Zn	0.271986	-0.409162	0.955910
Zn7	Zn	-0.285195	-0.958231	0.285043
Zn8	Zn	0.048138	-0.624897	0.618377
Zn9	Zn	0.381471	-0.291564	0.951710
Zn10	Zn	-0.390436	-0.958178	0.390253
Zn11	Zn	-0.057103	-0.624844	0.723587
Zn12	Zn	0.276231	-0.291511	1.056920
O13	O	-0.339938	-1.017039	0.339766
O14	O	-0.006604	-0.683706	0.673099
O15	O	0.326729	-0.350372	1.006432
O16	O	-0.306952	-1.174397	0.384100
O17	O	0.026381	-0.841064	0.717434
O18	O	0.359715	-0.507731	1.050767
O19	O	-0.380157	-1.060213	0.200597
O20	O	-0.046824	-0.726880	0.533930
O21	O	0.286509	-0.393547	0.867263
O22	O	-0.197671	-0.973902	0.299594
O23	O	0.135662	-0.640569	0.632927
O24	O	0.468995	-0.307236	0.966261
O25	O	-0.384272	-1.174331	0.306753
O26	O	-0.050939	-0.840997	0.640087
O27	O	0.282394	-0.507664	0.973420
O28	O	-0.200789	-1.060367	0.380027
O29	O	0.132544	-0.727034	0.713361
O30	O	0.465878	-0.393701	1.046694
O31	O	-0.299719	-0.973815	0.197511
O32	O	0.033614	-0.640481	0.530844
O33	O	0.366948	-0.307148	0.864177
O34	O	-0.295603	-0.859733	0.295456
O35	O	0.037730	-0.526400	0.628789
O36	O	0.371063	-0.193067	0.962122
O37	O	-0.377038	-0.973812	0.478910
O38	O	-0.043705	-0.640479	0.812243
O39	O	0.289628	-0.307145	1.145576
O40	O	-0.372923	-0.859695	0.372753
O41	O	-0.039590	-0.526361	0.706086
O42	O	0.293743	-0.193028	1.039420
O43	O	-0.302836	-1.060316	0.482045
O44	O	0.030497	-0.726983	0.815379
O45	O	0.363830	-0.393649	1.148712
O46	O	-0.482205	-1.060162	0.302615
O47	O	-0.148871	-0.726829	0.635948
O48	O	0.184462	-0.393495	0.969281
O49	O	-0.479086	-0.973724	0.376826
O50	O	-0.145753	-0.640391	0.710159
O51	O	0.187580	-0.307058	1.043493
C52	C	-0.333343	-0.834177	0.333186
C53	C	-0.000009	-0.500843	0.666519
C54	C	0.333324	-0.167510	0.999852
C55	C	-0.330536	-0.755947	0.330386
C56	C	0.002797	-0.422614	0.663719
C57	C	0.336130	-0.089281	0.997052
C58	C	-0.503486	-1.016947	0.339727
C59	C	-0.170153	-0.683613	0.673061
C60	C	0.163181	-0.350280	1.006394
C61	C	-0.573455	-1.016972	0.339734
C62	C	-0.240122	-0.683638	0.673068
C63	C	0.093212	-0.350305	1.006401
C64	C	-0.339937	-1.017068	0.503957
C65	C	-0.006604	-0.683735	0.837290
C66	C	0.326729	-0.350402	1.170623
C67	C	-0.339937	-1.017081	0.573925
C68	C	-0.006604	-0.683747	0.907259
C69	C	0.326730	-0.350414	1.240592
C70	C	-0.607926	-1.062020	0.301135
C71	C	-0.274593	-0.728686	0.634469
C72	C	0.058741	-0.395353	0.967802
C73	C	-0.673670	-1.062053	0.301151
C74	C	-0.340336	-0.728719	0.634484
C75	C	-0.007003	-0.395386	0.967817
C76	C	-0.704939	-1.017025	0.339758
C77	C	-0.371606	-0.683692	0.673091
C78	C	-0.038273	-0.350358	1.006425
C79	C	-0.670461	-0.971974	0.378365
C80	C	-0.337127	-0.638641	0.711698
C81	C	-0.003794	-0.305307	1.045032
C82	C	-0.604718	-0.971947	0.378353
C83	C	-0.271385	-0.638614	0.711686
C84	C	0.061948	-0.305281	1.045020
N85	N	-0.805990	-0.955455	0.342341
N86	N	-0.472657	-0.622122	0.675675
N87	N	-0.139323	-0.288789	1.009008
N88	N	-0.868442	-0.955483	0.342349
N89	N	-0.535109	-0.622149	0.675682
N90	N	-0.201776	-0.288816	1.009016
C91	C	-0.903017	-1.017104	0.339797
C92	C	-0.569684	-0.683771	0.673130
C93	C	-0.236350	-0.350437	1.006464
N94	N	-0.872780	-1.078698	0.337225
N95	N	-0.539447	-0.745365	0.670558
N96	N	-0.206113	-0.412031	1.003891
N97	N	-0.810322	-1.078670	0.337214
N98	N	-0.476988	-0.745337	0.670547
N99	N	-0.143655	-0.412003	1.003880
C100	C	-0.776226	-1.017049	0.339775
C101	C	-0.442892	-0.683716	0.673109
C102	C	-0.109559	-0.350383	1.006442
C103	C	-1.008775	-1.062191	0.301212
C104	C	-0.675442	-0.728858	0.634546
C105	C	-0.342108	-0.395525	0.967879
C106	C	-1.074520	-1.062226	0.301232
C107	C	-0.741186	-0.728892	0.634566
C108	C	-0.407853	-0.395559	0.967899
C109	C	-1.071309	-0.972141	0.378443
C110	C	-0.737976	-0.638807	0.711776
C111	C	-0.404642	-0.305474	1.045110
C112	C	-1.005566	-0.972113	0.378427
C113	C	-0.672232	-0.638779	0.711760
C114	C	-0.338899	-0.305446	1.045093
C115	C	-0.974302	-1.017137	0.339808
C116	C	-0.640969	-0.683804	0.673141
C117	C	-0.307636	-0.350471	1.006475
C118	C	-0.175752	-1.017151	0.339818
C119	C	0.157582	-0.683817	0.673152
C120	C	0.490915	-0.350484	1.006485
C121	C	-0.105785	-1.017198	0.339841
C122	C	0.227548	-0.683865	0.673174
C123	C	0.560882	-0.350532	1.006507
C124	C	-0.346559	-1.200615	0.346371
C125	C	-0.013226	-0.867282	0.679705
C126	C	0.320108	-0.533949	1.013038
C127	C	-0.349381	-1.278845	0.349187
C128	C	-0.016047	-0.945511	0.682520
C129	C	0.317286	-0.612178	1.015853
C130	C	-0.369535	-0.719193	0.369252
C131	C	-0.036202	-0.385860	0.702585
C132	C	0.297132	-0.052526	1.035918
C133	C	-0.366890	-0.645688	0.366624
C134	C	-0.033557	-0.312355	0.699957
C135	C	0.299777	0.020978	1.033290
C136	C	-0.325249	-0.608939	0.325126
C137	C	0.008084	-0.275606	0.658460
C138	C	0.341418	0.057728	0.991793
C139	C	-0.286246	-0.645698	0.286259
C140	C	0.047087	-0.312365	0.619592
C141	C	0.380420	0.020968	0.952926
C142	C	-0.288889	-0.719202	0.288890
C143	C	0.044445	-0.385868	0.622224
C144	C	0.377778	-0.052535	0.955557
C145	C	-0.313020	-0.389108	0.312951
C146	C	0.020313	-0.055774	0.646284
C147	C	0.353647	0.277559	0.979617
C148	C	-0.310382	-0.315599	0.310321
C149	C	0.022951	0.017734	0.643654
C150	C	0.356285	0.351068	0.976987
C151	C	-0.391025	-0.315594	0.390687
C152	C	-0.057692	0.017739	0.724020
C153	C	0.275641	0.351073	1.057353
C154	C	-0.393667	-0.389099	0.393312
C155	C	-0.060333	-0.055766	0.726645
C156	C	0.273000	0.277568	1.059978
C157	C	-0.354661	-0.425852	0.354447
C158	C	-0.021328	-0.092518	0.687780
C159	C	0.312005	0.240815	1.021113
N160	N	-0.322546	-0.533805	0.322438
N161	N	0.010787	-0.200472	0.655771
N162	N	0.344121	0.132861	0.989105
N163	N	-0.357362	-0.500984	0.357139
N164	N	-0.024029	-0.167651	0.690472
N165	N	0.309305	0.165683	1.023805
C166	C	-0.298056	-0.972100	0.605175
C167	C	0.035277	-0.638766	0.938509
C168	C	0.368610	-0.305433	1.271842
C169	C	-0.298059	-0.972087	0.670917
C170	C	0.035274	-0.638754	1.004251
C171	C	0.368608	-0.305420	1.337584
C172	C	-0.339937	-1.017068	0.705407
C173	C	-0.006603	-0.683734	1.038741
C174	C	0.326730	-0.350401	1.372074
C175	C	-0.381825	-1.062052	0.674150
C176	C	-0.048492	-0.728718	1.007483
C177	C	0.284841	-0.395385	1.340816
C178	C	-0.381826	-1.062058	0.608409
C179	C	-0.048492	-0.728725	0.941742
C180	C	0.284841	-0.395392	1.275075
N181	N	-0.346985	-1.078662	0.810856
N182	N	-0.013652	-0.745329	1.144189
N183	N	0.319681	-0.411996	1.477523
N184	N	-0.346981	-1.078654	0.873307
N185	N	-0.013648	-0.745321	1.206640
N186	N	0.319685	-0.411987	1.539974
C187	C	-0.339939	-1.017050	0.903481
C188	C	-0.006606	-0.683716	1.236815
C189	C	0.326727	-0.350383	1.570148
N190	N	-0.332889	-0.955452	0.868845
N191	N	0.000444	-0.622119	1.202179
N192	N	0.333777	-0.288786	1.535512
N193	N	-0.332890	-0.955461	0.806389
N194	N	0.000443	-0.622128	1.139722
N195	N	0.333777	-0.288795	1.473055
C196	C	-0.339941	-1.017065	0.776693
C197	C	-0.006608	-0.683732	1.110026
C198	C	0.326725	-0.350399	1.443359
C199	C	-0.298059	-0.972051	1.006016
C200	C	0.035274	-0.638718	1.339350
C201	C	0.368607	-0.305384	1.672683
C202	C	-0.298067	-0.972037	1.071760
C203	C	0.035267	-0.638704	1.405093
C204	C	0.368600	-0.305370	1.738426
C205	C	-0.381830	-1.062008	1.074991
C206	C	-0.048497	-0.728675	1.408324
C207	C	0.284837	-0.395341	1.741657
C208	C	-0.381826	-1.062016	1.009249
C209	C	-0.048493	-0.728682	1.342582
C210	C	0.284841	-0.395349	1.675915
C211	C	-0.339937	-1.017038	0.974765
C212	C	-0.006604	-0.683705	1.308099
C213	C	0.326729	-0.350371	1.641432
C214	C	-0.339950	-1.017011	1.176213
C215	C	-0.006617	-0.683678	1.509546
C216	C	0.326716	-0.350344	1.842880
C217	C	-0.339945	-1.017017	1.106245
C218	C	-0.006612	-0.683684	1.439578
C219	C	0.326721	-0.350351	1.772912
H220	H	-0.582474	-1.098683	0.269691
H221	H	-0.249140	-0.765350	0.603025
H222	H	0.084193	-0.432016	0.936358
Br223	Br	-0.253873	-0.265725	0.253992
Br224	Br	0.079461	0.067609	0.587325
Br225	Br	0.412794	0.400942	0.920659
Br226	Br	-0.260081	-0.438977	0.260208
Br227	Br	0.073252	-0.105644	0.593541
Br228	Br	0.406586	0.227689	0.926875
Br229	Br	-0.958780	-0.910971	0.430813
Br230	Br	-0.625447	-0.577638	0.764146
Br231	Br	-0.292114	-0.244304	1.097480
H232	H	-0.263952	-0.935459	0.696366
H233	H	0.069382	-0.602126	1.029700
H234	H	0.402715	-0.268793	1.363033
Br235	Br	-0.235956	-0.769084	0.236145
Br236	Br	0.097377	-0.435750	0.569478
Br237	Br	0.430710	-0.102417	0.902812
H238	H	-0.403446	-0.749109	0.403041
H239	H	-0.070112	-0.415776	0.736375
H240	H	0.263221	-0.082442	1.069708
Br241	Br	-0.966342	-1.123292	0.248801
Br242	Br	-0.633009	-0.789959	0.582134
Br243	Br	-0.299676	-0.456625	0.915467
Br244	Br	-0.241215	-0.911009	0.959214
Br245	Br	0.092119	-0.577676	1.292547
Br246	Br	0.425452	-0.244342	1.625881
Br247	Br	-0.241244	-0.910962	1.114171
Br248	Br	0.092090	-0.577628	1.447504
Br249	Br	0.425423	-0.244295	1.780838
H250	H	-0.422780	-0.285662	0.422329
H251	H	-0.089447	0.047671	0.755663
H252	H	0.243887	0.381005	1.088996
H253	H	-0.252339	-0.615771	0.252474
H254	H	0.080995	-0.282438	0.585807
H255	H	0.414328	0.050895	0.919140
Br256	Br	-0.438665	-1.123092	0.720955
Br257	Br	-0.105331	-0.789759	1.054288
Br258	Br	0.228002	-0.456425	1.387622
Br259	Br	-1.121304	-1.123375	0.248850
Br260	Br	-0.787971	-0.790042	0.582183
Br261	Br	-0.454637	-0.456708	0.915516
H262	H	-0.415930	-1.098690	0.582965
H263	H	-0.082596	-0.765357	0.916299
H264	H	0.250737	-0.432024	1.249632
H265	H	-0.398647	-0.615766	0.398272
H266	H	-0.065314	-0.282433	0.731605
H267	H	0.268019	0.050900	1.064939
Br268	Br	-0.450185	-0.438968	0.449628
Br269	Br	-0.116851	-0.105635	0.782962
Br270	Br	0.216482	0.227699	1.116295
H271	H	-0.263949	-0.935473	0.577103
H272	H	0.069384	-0.602140	0.910436
H273	H	0.402717	-0.268806	1.243770
H274	H	-0.415928	-1.098646	0.983805
H275	H	-0.082595	-0.765313	1.317138
H276	H	0.250738	-0.431979	1.650471
H277	H	-0.701741	-1.098739	0.269719
H278	H	-0.368408	-0.765405	0.603052
H279	H	-0.035075	-0.432072	0.936385
Br280	Br	-0.557933	-0.910807	0.430743
Br281	Br	-0.224600	-0.577473	0.764076
Br282	Br	0.108734	-0.244140	1.097409
Br283	Br	-0.712896	-0.910870	0.430766
Br284	Br	-0.379563	-0.577537	0.764100
Br285	Br	-0.046230	-0.244203	1.097433
Br286	Br	-1.113740	-0.911038	0.430847
Br287	Br	-0.780406	-0.577704	0.764180
Br288	Br	-0.447073	-0.244371	1.097513
Br289	Br	-0.438671	-1.123048	1.121791
Br290	Br	-0.105338	-0.789714	1.455124
Br291	Br	0.227996	-0.456381	1.788458
