data_functionalizedCrystal
_audit_creation_method	'MofGen! by Chris Wilmer'
_symmetry_space_group_name_H-M	'P1'
_symmetry_Int_Tables_number	1
_symmetry_cell_setting	triclinic
loop_
_symmetry_equiv_pos_as_xyz
  x,y,z
_cell_length_a	14.044220
_cell_length_b	11.792241
_cell_length_c	10.868271
_cell_angle_alpha	90.003536
_cell_angle_beta	90.006815
_cell_angle_gamma	91.308853
loop_
_atom_site_label
_atom_site_type_symbol
_atom_site_fract_x
_atom_site_fract_y
_atom_site_fract_z
O1	O	0.129988	-1.519105	0.102206
O2	O	0.629988	-1.019105	0.602206
O3	O	0.143385	-1.190022	0.102234
O4	O	0.643385	-0.690022	0.602234
O5	O	-0.001324	-1.349624	0.102208
O6	O	0.498676	-0.849624	0.602208
O7	O	0.274696	-1.359503	0.102232
O8	O	0.774696	-0.859503	0.602232
O9	O	-0.001332	-1.349621	-0.102436
O10	O	0.498668	-0.849621	0.397564
O11	O	0.143377	-1.190019	-0.102410
O12	O	0.643377	-0.690019	0.397590
O13	O	0.129980	-1.519102	-0.102439
O14	O	0.629980	-1.019102	0.397561
Zn15	Zn	0.136677	-1.354560	-0.134916
Zn16	Zn	0.636677	-0.854560	0.365084
Zn17	Zn	0.136688	-1.354564	0.134712
Zn18	Zn	0.636688	-0.854564	0.634712
O19	O	0.274688	-1.359500	-0.102413
O20	O	0.774688	-0.859500	0.397587
C21	C	0.142539	-1.147650	-0.000084
C22	C	0.642539	-0.647650	0.499916
C23	C	0.140020	-1.021400	-0.000074
C24	C	0.640020	-0.521400	0.499926
N25	N	0.136688	-1.354566	0.318726
N26	N	0.636688	-0.854566	0.818726
C27	C	-0.036664	-1.345298	-0.000114
C28	C	0.463336	-0.845298	0.499886
C29	C	-0.141956	-1.332399	-0.000115
C30	C	0.358044	-0.832399	0.499885
C31	C	-0.334739	-1.308817	-0.000095
C32	C	0.165261	-0.808817	0.499905
C33	C	-0.391902	-1.400302	-0.000099
C34	C	0.108098	-0.900302	0.499901
C35	C	-0.499173	-1.387181	-0.000088
C36	C	0.000827	-0.887181	0.499912
C37	C	-0.227458	-1.321937	-0.000106
C38	C	0.272542	-0.821937	0.499894
C39	C	0.310029	-1.363826	-0.000088
C40	C	0.810029	-0.863826	0.499912
C41	C	0.415321	-1.376725	-0.000079
C42	C	0.915321	-0.876725	0.499921
C43	C	0.130826	-1.561474	-0.000118
C44	C	0.630826	-1.061474	0.499882
C45	C	0.133344	-1.687724	-0.000120
C46	C	0.633344	-1.187724	0.499880
C47	C	0.135389	-0.790253	-0.000109
C48	C	0.635389	-0.290253	0.499891
C49	C	0.137962	-0.918880	-0.000090
C50	C	0.637962	-0.418880	0.499910
N51	N	0.136669	-1.354566	-0.318930
N52	N	0.636669	-0.854566	0.181070
C53	C	0.136682	-1.354563	0.569732
C54	C	0.636682	-0.854563	1.069732
C55	C	0.136688	-1.354562	0.430054
C56	C	0.636688	-0.854562	0.930054
H57	H	-0.360278	-1.488479	-0.000024
H58	H	0.139722	-0.988479	0.499976
O59	O	-0.372414	-1.203604	0.000130
O60	O	0.127586	-0.703604	0.500130
C61	C	-0.341735	-1.144251	0.106099
C62	C	0.158265	-0.644251	0.606099
H63	H	-0.320742	-1.207393	0.180177
H64	H	0.179258	-0.707393	0.680177
H65	H	-0.401984	-1.089996	0.141678
H66	H	0.098016	-0.589996	0.641678
H67	H	-0.277673	-1.087372	0.082132
H68	H	0.222327	-0.587372	0.582132
