data_functionalizedCrystal
_audit_creation_method	'MofGen! by Chris Wilmer'
_symmetry_space_group_name_H-M	'P1'
_symmetry_Int_Tables_number	1
_symmetry_cell_setting	triclinic
loop_
_symmetry_equiv_pos_as_xyz
  x,y,z
_cell_length_a	29.839134
_cell_length_b	29.839131
_cell_length_c	21.395355
_cell_angle_alpha	90.027826
_cell_angle_beta	90.034273
_cell_angle_gamma	90.030088
loop_
_atom_site_label
_atom_site_type_symbol
_atom_site_fract_x
_atom_site_fract_y
_atom_site_fract_z
Zn1	Zn	0.686793	-0.178967	0.354383
Zn2	Zn	1.020127	0.154366	0.687717
Zn3	Zn	1.353460	0.487700	1.021050
Zn4	Zn	0.686718	-0.254082	0.249589
Zn5	Zn	1.020051	0.079251	0.582922
Zn6	Zn	1.353384	0.412584	0.916255
Zn7	Zn	0.611660	-0.178960	0.249602
Zn8	Zn	0.944993	0.154373	0.582936
Zn9	Zn	1.278327	0.487706	0.916269
Zn10	Zn	0.611632	-0.254064	0.354311
Zn11	Zn	0.944965	0.079269	0.687645
Zn12	Zn	1.278299	0.412603	1.020978
O13	O	0.649201	-0.216518	0.301971
O14	O	0.982534	0.116815	0.635305
O15	O	1.315867	0.450148	0.968638
O16	O	0.749650	-0.188942	0.340507
O17	O	1.082984	0.144392	0.673840
O18	O	1.416317	0.477725	1.007173
O19	O	0.676741	-0.244122	0.161913
O20	O	1.010074	0.089211	0.495246
O21	O	1.343408	0.422545	0.828579
O22	O	0.621670	-0.116094	0.263538
O23	O	0.955004	0.217239	0.596871
O24	O	1.288337	0.550573	0.930204
O25	O	0.749595	-0.244128	0.263515
O26	O	1.082928	0.089205	0.596848
O27	O	1.416261	0.422538	0.930181
O28	O	0.676870	-0.116099	0.340520
O29	O	1.010204	0.217234	0.673853
O30	O	1.343537	0.550568	1.007186
O31	O	0.621597	-0.188930	0.161923
O32	O	0.954930	0.144403	0.495256
O33	O	1.288263	0.477736	0.828589
O34	O	0.548789	-0.188912	0.263468
O35	O	0.882123	0.144421	0.596801
O36	O	1.215456	0.477754	0.930134
O37	O	0.621622	-0.244097	0.441999
O38	O	0.954956	0.089236	0.775332
O39	O	1.288289	0.422569	1.108665
O40	O	0.548769	-0.244091	0.340397
O41	O	0.882102	0.089243	0.673730
O42	O	1.215435	0.422576	1.007063
O43	O	0.676843	-0.188924	0.442052
O44	O	1.010176	0.144410	0.775385
O45	O	1.343510	0.477743	1.108718
O46	O	0.676714	-0.316947	0.263445
O47	O	1.010047	0.016386	0.596778
O48	O	1.343381	0.349720	0.930111
O49	O	0.621549	-0.316933	0.340384
O50	O	0.954882	0.016400	0.673717
O51	O	1.288216	0.349733	1.007050
C52	C	0.532478	-0.216499	0.301926
C53	C	0.865812	0.116834	0.635260
C54	C	1.199145	0.450167	0.968593
C55	C	0.482544	-0.216502	0.301922
C56	C	0.815877	0.116831	0.635255
C57	C	1.149210	0.450165	0.968588
C58	C	0.172899	-0.245292	0.341979
C59	C	0.506233	0.088041	0.675313
C60	C	0.839566	0.421375	1.008646
C61	C	-0.014774	-0.245305	0.342007
C62	C	0.318559	0.088029	0.675341
C63	C	0.651893	0.421362	1.008674
O64	O	-0.039040	-0.269762	0.376039
O65	O	0.294294	0.063571	0.709372
O66	O	0.627627	0.396905	1.042706
N67	N	-0.038241	-0.216535	0.302019
N68	N	0.295092	0.116799	0.635352
N69	N	0.628425	0.450132	0.968685
C70	C	-0.014788	-0.187758	0.262023
C71	C	0.318546	0.145576	0.595356
C72	C	0.651879	0.478909	0.928690
O73	O	-0.039054	-0.163284	0.228015
O74	O	0.294279	0.170049	0.561349
O75	O	0.627612	0.503383	0.894682
C76	C	0.172885	-0.187743	0.261999
C77	C	0.506218	0.145590	0.595332
C78	C	0.839551	0.478924	0.928665
C79	C	0.196350	-0.216518	0.301986
C80	C	0.529683	0.116815	0.635319
C81	C	0.863016	0.450149	0.968652
C82	C	0.196364	-0.274065	0.381963
C83	C	0.529697	0.059269	0.715297
C84	C	0.863031	0.392602	1.048630
C85	C	0.243280	-0.274063	0.381954
C86	C	0.576613	0.059271	0.715287
C87	C	0.909946	0.392604	1.048620
C88	C	0.266730	-0.245289	0.341960
C89	C	0.600063	0.088045	0.675293
C90	C	0.933397	0.421378	1.008626
C91	C	0.243265	-0.216516	0.301976
C92	C	0.576598	0.116817	0.635309
C93	C	0.909932	0.450150	0.968642
C94	C	0.196338	-0.158964	0.222007
C95	C	0.529671	0.174370	0.555340
C96	C	0.863004	0.507703	0.888674
C97	C	0.243259	-0.158962	0.222006
C98	C	0.576592	0.174372	0.555339
C99	C	0.909925	0.507705	0.888672
C100	C	0.266724	-0.187737	0.261992
C101	C	0.600057	0.145596	0.595326
C102	C	0.933390	0.478930	0.928659
C103	C	0.313631	-0.187740	0.261972
C104	C	0.646964	0.145593	0.595306
C105	C	0.980298	0.478926	0.928639
N106	N	0.337098	-0.216510	0.301961
N107	N	0.670432	0.116823	0.635294
N108	N	1.003765	0.450156	0.968628
C109	C	0.313648	-0.245285	0.341955
C110	C	0.646981	0.088049	0.675288
C111	C	0.980315	0.421382	1.008621
C112	C	-0.113318	-0.187768	0.262038
C113	C	0.220015	0.145566	0.595371
C114	C	0.553349	0.478899	0.928704
C115	C	-0.160236	-0.187772	0.262043
C116	C	0.173097	0.145561	0.595376
C117	C	0.506431	0.478895	0.928710
C118	C	-0.160219	-0.245319	0.342028
C119	C	0.173114	0.088015	0.675361
C120	C	0.506448	0.421348	1.008695
C121	C	-0.113300	-0.245317	0.342019
C122	C	0.220033	0.088017	0.675353
C123	C	0.553366	0.421350	1.008686
C124	C	-0.089851	-0.216538	0.302026
C125	C	0.243483	0.116796	0.635360
C126	C	0.576816	0.450129	0.968693
C127	C	0.412174	-0.245279	0.341931
C128	C	0.745507	0.088054	0.675264
C129	C	1.078840	0.421388	1.008597
C130	C	0.459093	-0.245276	0.341915
C131	C	0.792427	0.088057	0.675249
C132	C	1.125760	0.421391	1.008582
C133	C	0.459072	-0.187728	0.261933
C134	C	0.792406	0.145606	0.595266
C135	C	1.125739	0.478939	0.928600
C136	C	0.412157	-0.187732	0.261946
C137	C	0.745490	0.145601	0.595279
C138	C	1.078824	0.478934	0.928612
C139	C	0.388709	-0.216509	0.301949
C140	C	0.722042	0.116824	0.635283
C141	C	1.055375	0.450157	0.968616
O142	O	0.337926	-0.163292	0.227963
O143	O	0.671259	0.170041	0.561297
O144	O	1.004593	0.503374	0.894630
O145	O	0.337923	-0.269748	0.375967
O146	O	0.671256	0.063586	0.709300
O147	O	1.004589	0.396919	1.042634
C148	C	0.125984	-0.245294	0.341989
C149	C	0.459317	0.088039	0.675322
C150	C	0.792650	0.421373	1.008656
C151	C	0.102519	-0.216521	0.302005
C152	C	0.435852	0.116812	0.635338
C153	C	0.769185	0.450145	0.968672
C154	C	0.125969	-0.187747	0.262011
C155	C	0.459303	0.145586	0.595345
C156	C	0.792636	0.478919	0.928678
C157	C	0.055601	-0.216526	0.302010
C158	C	0.388934	0.116808	0.635344
C159	C	0.722268	0.450141	0.968677
C160	C	0.032150	-0.245300	0.342004
C161	C	0.365484	0.088034	0.675337
C162	C	0.698817	0.421367	1.008671
C163	C	0.055618	-0.274070	0.381993
C164	C	0.388951	0.059264	0.715326
C165	C	0.722284	0.392597	1.048659
C166	C	0.102533	-0.274068	0.381983
C167	C	0.435867	0.059265	0.715316
C168	C	0.769200	0.392599	1.048650
C169	C	0.102502	-0.158977	0.222023
C170	C	0.435835	0.174356	0.555356
C171	C	0.769169	0.507689	0.888689
C172	C	0.055586	-0.158982	0.222035
C173	C	0.388920	0.174352	0.555369
C174	C	0.722253	0.507685	0.888702
C175	C	0.032136	-0.187756	0.262029
C176	C	0.365469	0.145577	0.595362
C177	C	0.698803	0.478911	0.928696
C178	C	0.649132	-0.333241	0.301919
C179	C	0.982466	0.000092	0.635252
C180	C	1.315799	0.333426	0.968585
C181	C	0.649144	-0.383175	0.301917
C182	C	0.982477	-0.049842	0.635250
C183	C	1.315811	0.283491	0.968584
C184	C	0.677937	-0.692786	0.342113
C185	C	1.011271	-0.359453	0.675446
C186	C	1.344604	-0.026120	1.008780
C187	C	0.677986	-0.880459	0.342151
C188	C	1.011319	-0.547126	0.675484
C189	C	1.344653	-0.213793	1.008817
O190	O	0.702400	-0.904697	0.376288
O191	O	1.035733	-0.571363	0.709621
O192	O	1.369067	-0.238030	1.042954
N193	N	0.649277	-0.903960	0.302041
N194	N	0.982610	-0.570627	0.635374
N195	N	1.315944	-0.237294	0.968708
C196	C	0.620552	-0.880540	0.261922
C197	C	0.953885	-0.547207	0.595255
C198	C	1.287219	-0.213874	0.928588
O199	O	0.596131	-0.904836	0.227811
O200	O	0.929464	-0.571502	0.561145
O201	O	1.262798	-0.238169	0.894478
C202	C	0.620501	-0.692868	0.261888
C203	C	0.953835	-0.359535	0.595221
C204	C	1.287168	-0.026201	0.928554
C205	C	0.649215	-0.669369	0.301996
C206	C	0.982549	-0.336036	0.635329
C207	C	1.315882	-0.002703	0.968662
C208	C	0.706649	-0.669288	0.382218
C209	C	1.039982	-0.335954	0.715552
C210	C	1.373315	-0.002621	1.048885
C211	C	0.706638	-0.622372	0.382206
C212	C	1.039971	-0.289039	0.715539
C213	C	1.373304	0.044294	1.048873
C214	C	0.677916	-0.598955	0.342089
C215	C	1.011249	-0.265622	0.675422
C216	C	1.344582	0.067711	1.008755
C217	C	0.649204	-0.622454	0.301983
C218	C	0.982538	-0.289121	0.635317
C219	C	1.315871	0.044213	0.968650
C220	C	0.591774	-0.669449	0.221772
C221	C	0.925107	-0.336115	0.555105
C222	C	1.258441	-0.002782	0.888439
C223	C	0.591763	-0.622528	0.221768
C224	C	0.925096	-0.289194	0.555102
C225	C	1.258430	0.044139	0.888435
C226	C	0.620477	-0.599029	0.261876
C227	C	0.953810	-0.265696	0.595210
C228	C	1.287144	0.067637	0.928543
C229	C	0.620472	-0.552122	0.261854
C230	C	0.953805	-0.218788	0.595187
C231	C	1.287138	0.114545	0.928520
N232	N	0.649181	-0.528621	0.301964
N233	N	0.982514	-0.195287	0.635297
N234	N	1.315847	0.138046	0.968630
C235	C	0.677903	-0.552038	0.342081
C236	C	1.011236	-0.218704	0.675414
C237	C	1.344569	0.114629	1.008748
C238	C	0.620581	-0.979071	0.261942
C239	C	0.953914	-0.645737	0.595275
C240	C	1.287248	-0.312404	0.928608
C241	C	0.620594	-1.025989	0.261949
C242	C	0.953928	-0.692655	0.595282
C243	C	1.287261	-0.359322	0.928616
C244	C	0.678028	-1.025905	0.342179
C245	C	1.011361	-0.692571	0.675513
C246	C	1.344695	-0.359238	1.008846
C247	C	0.678017	-0.978986	0.342168
C248	C	1.011350	-0.645653	0.675501
C249	C	1.344683	-0.312319	1.008835
C250	C	0.649290	-0.955570	0.302051
C251	C	0.982623	-0.622237	0.635385
C252	C	1.315957	-0.288903	0.968718
C253	C	0.677878	-0.453512	0.342052
C254	C	1.011211	-0.120178	0.675385
C255	C	1.344545	0.213155	1.008719
C256	C	0.677866	-0.406592	0.342034
C257	C	1.011199	-0.073259	0.675368
C258	C	1.344533	0.260074	1.008701
C259	C	0.620431	-0.406680	0.261807
C260	C	0.953764	-0.073347	0.595140
C261	C	1.287098	0.259986	0.928474
C262	C	0.620444	-0.453596	0.261822
C263	C	0.953778	-0.120263	0.595155
C264	C	1.287111	0.213071	0.928489
C265	C	0.649170	-0.477010	0.301950
C266	C	0.982503	-0.143677	0.635283
C267	C	1.315836	0.189656	0.968616
O268	O	0.596067	-0.527855	0.227740
O269	O	0.929400	-0.194522	0.561073
O270	O	1.262734	0.138811	0.894406
O271	O	0.702313	-0.527734	0.376196
O272	O	1.035646	-0.194401	0.709530
O273	O	1.368979	0.138932	1.042863
C274	C	0.677948	-0.739702	0.342125
C275	C	1.011281	-0.406368	0.675459
C276	C	1.344615	-0.073035	1.008792
C277	C	0.649237	-0.763200	0.302020
C278	C	0.982570	-0.429867	0.635353
C279	C	1.315903	-0.096534	0.968687
C280	C	0.620515	-0.739784	0.261903
C281	C	0.953848	-0.406450	0.595236
C282	C	1.287181	-0.073117	0.928569
C283	C	0.649250	-0.810118	0.302028
C284	C	0.982583	-0.476785	0.635361
C285	C	1.315917	-0.143452	0.968694
C286	C	0.677972	-0.833535	0.342145
C287	C	1.011305	-0.500202	0.675478
C288	C	1.344639	-0.166868	1.008812
C289	C	0.706681	-0.810034	0.382255
C290	C	1.040014	-0.476701	0.715588
C291	C	1.373347	-0.143367	1.048922
C292	C	0.706670	-0.763119	0.382243
C293	C	1.040003	-0.429785	0.715576
C294	C	1.373337	-0.096452	1.048909
C295	C	0.591806	-0.763284	0.221793
C296	C	0.925139	-0.429951	0.555126
C297	C	1.258472	-0.096618	0.888460
C298	C	0.591819	-0.810200	0.221808
C299	C	0.925153	-0.476867	0.555141
C300	C	1.258486	-0.143533	0.888475
C301	C	0.620541	-0.833617	0.261925
C302	C	0.953875	-0.500284	0.595259
C303	C	1.287208	-0.166950	0.928592
C304	C	0.766379	-0.216538	0.302017
C305	C	1.099712	0.116796	0.635350
C306	C	1.433046	0.450129	0.968684
C307	C	0.816314	-0.216546	0.302037
C308	C	1.149647	0.116787	0.635370
C309	C	1.482980	0.450121	0.968703
C310	C	0.649238	-0.216509	0.465395
C311	C	0.982571	0.116824	0.798728
C312	C	1.315905	0.450157	1.132061
C313	C	0.649254	-0.216505	0.535036
C314	C	0.982587	0.116828	0.868369
C315	C	1.315921	0.450161	1.201703
C316	C	0.649282	-0.099340	0.302038
C317	C	0.982615	0.233993	0.635371
C318	C	1.315949	0.567327	0.968705
C319	C	0.649316	-0.049406	0.302067
C320	C	0.982650	0.283928	0.635400
C321	C	1.315983	0.617261	0.968733
C322	C	0.649190	-0.216495	0.139184
C323	C	0.982523	0.116838	0.472517
C324	C	1.315856	0.450172	0.805851
C325	C	0.649261	-0.216372	0.069543
C326	C	0.982594	0.116961	0.402876
C327	C	1.315927	0.450294	0.736210
C328	C	0.678006	-0.187775	0.567778
C329	C	1.011340	0.145558	0.901111
C330	C	1.344673	0.478891	1.234444
C331	C	0.678006	-0.187756	0.633213
C332	C	1.011339	0.145577	0.966547
C333	C	1.344672	0.478911	1.299880
C334	C	0.649258	-0.216475	0.665904
C335	C	0.982591	0.116859	0.999238
C336	C	1.315924	0.450192	1.332571
C337	C	0.620500	-0.245207	0.633155
C338	C	0.953833	0.088127	0.966488
C339	C	1.287166	0.421460	1.299821
C340	C	0.620498	-0.245222	0.567721
C341	C	0.953831	0.088111	0.901054
C342	C	1.287165	0.421445	1.234387
C343	C	0.645686	-0.256926	0.769560
C344	C	0.979020	0.076408	1.102893
C345	C	1.312353	0.409741	1.436227
C346	C	0.645691	-0.256911	0.834993
C347	C	0.979025	0.076422	1.168326
C348	C	1.312358	0.409756	1.501660
C349	C	0.649260	-0.216427	0.867725
C350	C	0.982594	0.116906	1.201059
C351	C	1.315927	0.450239	1.534392
C352	C	0.652834	-0.175957	0.835017
C353	C	0.986167	0.157376	1.168350
C354	C	1.319500	0.490710	1.501683
C355	C	0.652832	-0.175972	0.769582
C356	C	0.986165	0.157361	1.102916
C357	C	1.319499	0.490694	1.436249
C358	C	0.649256	-0.216461	0.736857
C359	C	0.982589	0.116872	1.070190
C360	C	1.315923	0.450206	1.403524
C361	C	0.678013	-0.187674	0.971420
C362	C	1.011347	0.145659	1.304753
C363	C	1.344680	0.478993	1.638086
C364	C	0.678010	-0.187654	1.036856
C365	C	1.011343	0.145680	1.370190
C366	C	1.344676	0.479013	1.703523
C367	C	0.620506	-0.245109	1.036797
C368	C	0.953839	0.088225	1.370130
C369	C	1.287173	0.421558	1.703463
C370	C	0.620508	-0.245125	0.971361
C371	C	0.953841	0.088209	1.304695
C372	C	1.287174	0.421542	1.638028
C373	C	0.649264	-0.216408	0.938677
C374	C	0.982597	0.116925	1.272010
C375	C	1.315930	0.450259	1.605343
H376	H	0.393051	-0.164302	0.229384
H377	H	0.726384	0.169031	0.562717
H378	H	1.059717	0.502365	0.896050
O379	O	0.592640	-1.048791	0.223050
O380	O	0.925973	-0.715458	0.556384
O381	O	1.259307	-0.382125	0.889717
C382	C	0.547859	-1.037343	0.236667
C383	C	0.881192	-0.704010	0.570000
C384	C	1.214525	-0.370677	0.903333
H385	H	0.545572	-1.024429	0.286717
H386	H	0.878906	-0.691095	0.620050
H387	H	1.212239	-0.357762	0.953383
H388	H	0.525670	-1.068215	0.231238
H389	H	0.859003	-0.734882	0.564572
H390	H	1.192337	-0.401549	0.897905
H391	H	0.536123	-1.010130	0.203056
H392	H	0.869456	-0.676796	0.536390
H393	H	1.202789	-0.343463	0.869723
O394	O	0.705962	-0.159911	0.665095
O395	O	1.039295	0.173422	0.998429
O396	O	1.372628	0.506756	1.331762
C397	C	0.734965	-0.185492	0.702947
C398	C	1.068298	0.147842	1.036281
C399	C	1.401631	0.481175	1.369614
H400	H	0.719091	-0.219531	0.712727
H401	H	1.052425	0.113803	1.046060
H402	H	1.385758	0.447136	1.379393
H403	H	0.741003	-0.167186	0.748971
H404	H	1.074336	0.166147	1.082305
H405	H	1.407669	0.499480	1.415638
H406	H	0.768252	-0.190443	0.677753
H407	H	1.101586	0.142890	1.011086
H408	H	1.434919	0.476223	1.344420
H409	H	0.701250	-0.387461	0.374695
H410	H	1.034583	-0.054128	0.708028
H411	H	1.367917	0.279206	1.041362
H412	H	0.701426	-0.164289	0.944806
H413	H	1.034759	0.169045	1.278140
H414	H	1.368092	0.502378	1.611473
H415	H	0.701266	-0.472570	0.374732
H416	H	1.034599	-0.139237	0.708065
H417	H	1.367932	0.194096	1.041399
H418	H	0.597082	-0.268617	0.541063
H419	H	0.930416	0.064716	0.874396
H420	H	1.263749	0.398050	1.207729
H421	H	0.597188	-0.960009	0.229272
H422	H	0.930521	-0.626675	0.562606
H423	H	1.263855	-0.293342	0.895939
H424	H	0.730018	-0.603243	0.414867
H425	H	1.063351	-0.269909	0.748201
H426	H	1.396685	0.063424	1.081534
O427	O	0.563836	-0.692198	0.182793
O428	O	0.897170	-0.358865	0.516127
O429	O	1.230503	-0.025532	0.849460
C430	C	0.538493	-0.661460	0.147381
C431	C	0.871826	-0.328127	0.480715
C432	C	1.205159	0.005207	0.814048
H433	H	0.536928	-0.628007	0.173041
H434	H	0.870262	-0.294673	0.506374
H435	H	1.203595	0.038660	0.839708
H436	H	0.503099	-0.675040	0.140651
H437	H	0.836432	-0.341706	0.473985
H438	H	1.169766	-0.008373	0.807318
H439	H	0.554956	-0.656478	0.099817
H440	H	0.888289	-0.323145	0.433151
H441	H	1.221623	0.010189	0.766484
O442	O	0.734595	-0.691961	0.421210
O443	O	1.067928	-0.358628	0.754544
O444	O	1.401262	-0.025294	1.087877
C445	C	0.759921	-0.661151	0.456612
C446	C	1.093254	-0.327817	0.789946
C447	C	1.426587	0.005516	1.123279
H448	H	0.761468	-0.627718	0.430940
H449	H	1.094801	-0.294384	0.764273
H450	H	1.428134	0.038949	1.097607
H451	H	0.795322	-0.674668	0.463350
H452	H	1.128655	-0.341334	0.796683
H453	H	1.461988	-0.008001	1.130017
H454	H	0.743453	-0.656152	0.504173
H455	H	1.076786	-0.322819	0.837507
H456	H	1.410120	0.010514	1.170840
H457	H	0.568369	-0.603465	0.189101
H458	H	0.901702	-0.270131	0.522435
H459	H	1.235036	0.063202	0.855768
H460	H	0.393088	-0.268711	0.374507
H461	H	0.726421	0.064622	0.707840
H462	H	1.059754	0.397956	1.041174
H463	H	0.597094	-0.268487	1.063413
H464	H	0.930428	0.064846	1.396746
H465	H	1.263761	0.398179	1.730080
H466	H	0.262349	-0.135523	0.189441
H467	H	0.595682	0.197810	0.522775
H468	H	0.929016	0.531143	0.856108
H469	H	0.478196	-0.268710	0.374478
H470	H	0.811530	0.064623	0.707811
H471	H	1.144863	0.397957	1.041145
H472	H	0.597097	-0.268522	0.944703
H473	H	0.930430	0.064811	1.278036
H474	H	1.263764	0.398144	1.611369
O475	O	0.592512	-0.476356	0.222839
O476	O	0.925846	-0.143022	0.556172
O477	O	1.259179	0.190311	0.889506
C478	C	0.567170	-0.445624	0.187414
C479	C	0.900503	-0.112290	0.520748
C480	C	1.233836	0.221043	0.854081
H481	H	0.565601	-0.412167	0.213065
H482	H	0.898935	-0.078834	0.546398
H483	H	1.232268	0.254500	0.879731
H484	H	0.531777	-0.459206	0.180683
H485	H	0.865111	-0.125873	0.514016
H486	H	1.198444	0.207460	0.847349
H487	H	0.583636	-0.440648	0.139852
H488	H	0.916970	-0.107314	0.473185
H489	H	1.250303	0.226019	0.806518
H490	H	0.730052	-0.743990	0.414903
H491	H	1.063385	-0.410656	0.748236
H492	H	1.396718	-0.077323	1.081569
O493	O	0.705863	-1.048676	0.381219
O494	O	1.039196	-0.715343	0.714553
O495	O	1.372530	-0.382010	1.047886
C496	C	0.680271	-1.075825	0.421633
C497	C	1.013604	-0.742492	0.754967
C498	C	1.346937	-0.409159	1.088300
H499	H	0.644884	-1.061708	0.425441
H500	H	0.978217	-0.728375	0.758774
H501	H	1.311550	-0.395042	1.092107
H502	H	0.696496	-1.076329	0.469880
H503	H	1.029830	-0.742996	0.803213
H504	H	1.363163	-0.409662	1.136547
H505	H	0.678737	-1.111392	0.402260
H506	H	1.012071	-0.778059	0.735594
H507	H	1.345404	-0.444725	1.068927
H508	H	0.730069	-0.829108	0.414918
H509	H	1.063402	-0.495775	0.748251
H510	H	1.396736	-0.162442	1.081585
O511	O	0.656214	-0.136629	0.866827
O512	O	0.989547	0.196704	1.200161
O513	O	1.322880	0.530037	1.533494
C514	C	0.617974	-0.130834	0.904650
C515	C	0.951307	0.202499	1.237983
C516	C	1.284640	0.535833	1.571317
H517	H	0.589076	-0.151459	0.884902
H518	H	0.922409	0.181875	1.218235
H519	H	1.255742	0.515208	1.551568
H520	H	0.608217	-0.093905	0.905382
H521	H	0.941550	0.239429	1.238715
H522	H	1.274884	0.572762	1.572049
H523	H	0.625706	-0.142452	0.954249
H524	H	0.959039	0.190882	1.287583
H525	H	1.292373	0.524215	1.620916
O526	O	0.592597	-0.273168	0.664839
O527	O	0.925930	0.060166	0.998172
O528	O	1.259263	0.393499	1.331505
C529	C	0.602390	-0.317949	0.648856
C530	C	0.935724	0.015384	0.982189
C531	C	1.269057	0.348718	1.315523
H532	H	0.619657	-0.318893	0.601359
H533	H	0.952991	0.014440	0.934693
H534	H	1.286324	0.347774	1.268026
H535	H	0.569953	-0.338088	0.646588
H536	H	0.903286	-0.004755	0.979921
H537	H	1.236620	0.328579	1.313254
H538	H	0.625478	-0.333077	0.685697
H539	H	0.958812	0.000257	1.019030
H540	H	1.292145	0.333590	1.352363
H541	H	-0.094198	-0.268747	0.374581
H542	H	0.239135	0.064586	0.707914
H543	H	0.572468	0.397919	1.041248
H544	H	0.597047	-0.387607	0.229142
H545	H	0.930380	-0.054274	0.562475
H546	H	1.263714	0.279060	0.895808
H547	H	-0.179337	-0.164345	0.229475
H548	H	0.153996	0.168988	0.562809
H549	H	0.487329	0.502322	0.896142
H550	H	0.701422	-0.164256	1.063513
H551	H	1.034756	0.169078	1.396847
H552	H	1.368089	0.502411	1.730180
H553	H	0.642784	-0.289864	0.861619
H554	H	0.976118	0.043469	1.194953
H555	H	1.309451	0.376802	1.528286
O556	O	0.563882	-0.832954	0.182823
O557	O	0.897216	-0.499621	0.516156
O558	O	1.230549	-0.166288	0.849490
C559	C	0.538539	-0.802219	0.147405
C560	C	0.871872	-0.468886	0.480738
C561	C	1.205205	-0.135552	0.814072
H562	H	0.536973	-0.768764	0.173060
H563	H	0.870306	-0.435431	0.506393
H564	H	1.203640	-0.102097	0.839726
H565	H	0.503146	-0.815800	0.140675
H566	H	0.836479	-0.482467	0.474009
H567	H	1.169812	-0.149133	0.807342
H568	H	0.555003	-0.797240	0.099841
H569	H	0.888336	-0.463907	0.433175
H570	H	1.221670	-0.130574	0.766508
O571	O	0.266049	-0.301964	0.420893
O572	O	0.599382	0.031369	0.754226
O573	O	0.932716	0.364703	1.087560
C574	C	0.254604	-0.292214	0.483362
C575	C	0.587937	0.041119	0.816696
C576	C	0.921271	0.374453	1.150029
H577	H	0.241729	-0.256327	0.486617
H578	H	0.575062	0.077007	0.819951
H579	H	0.908395	0.410340	1.153284
H580	H	0.285468	-0.296116	0.514311
H581	H	0.618801	0.037217	0.847644
H582	H	0.952135	0.370550	1.180977
H583	H	0.227362	-0.316315	0.499674
H584	H	0.560695	0.017019	0.833007
H585	H	0.894029	0.350352	1.166341
O586	O	0.173569	-0.301955	0.420882
O587	O	0.506902	0.031378	0.754215
O588	O	0.840236	0.364711	1.087549
C589	C	0.146451	-0.276432	0.461421
C590	C	0.479784	0.056901	0.794754
C591	C	0.813117	0.390235	1.128087
H592	H	0.160600	-0.241049	0.465389
H593	H	0.493934	0.092284	0.798722
H594	H	0.827267	0.425617	1.132055
H595	H	0.145942	-0.292735	0.509592
H596	H	0.479275	0.040598	0.842925
H597	H	0.812609	0.373931	1.176259
H598	H	0.110882	-0.274873	0.442063
H599	H	0.444215	0.058460	0.775396
H600	H	0.777548	0.391794	1.108730
O601	O	-0.183073	-0.273226	0.380861
O602	O	0.150261	0.060107	0.714195
O603	O	0.483594	0.393440	1.047528
C604	C	-0.229514	-0.267064	0.372275
C605	C	0.103819	0.066270	0.705609
C606	C	0.437153	0.399603	1.038942
H607	H	-0.235911	-0.232374	0.351842
H608	H	0.097422	0.100959	0.685175
H609	H	0.430756	0.434293	1.018509
H610	H	-0.247327	-0.270154	0.419199
H611	H	0.086007	0.063179	0.752532
H612	H	0.419340	0.396513	1.085866
H613	H	-0.242858	-0.293679	0.338843
H614	H	0.090475	0.039654	0.672176
H615	H	0.423808	0.372987	1.005510
O616	O	0.642192	-0.296292	0.737864
O617	O	0.975525	0.037041	1.071197
O618	O	1.308859	0.370374	1.404531
C619	C	0.639008	-0.332005	0.780762
C620	C	0.972342	0.001329	1.114095
C621	C	1.305675	0.334662	1.447429
H622	H	0.654152	-0.321382	0.827405
H623	H	0.987485	0.011951	1.160739
H624	H	1.320819	0.345285	1.494072
H625	H	0.658018	-0.362232	0.761841
H626	H	0.991351	-0.028898	1.095174
H627	H	1.324685	0.304435	1.428508
H628	H	0.602281	-0.341278	0.787728
H629	H	0.935615	-0.007945	1.121061
H630	H	1.268948	0.325388	1.454395
O631	O	-0.090612	-0.159797	0.223124
O632	O	0.242721	0.173536	0.556458
O633	O	0.576055	0.506869	0.889791
C634	C	-0.121391	-0.134401	0.187846
C635	C	0.211942	0.198932	0.521180
C636	C	0.545276	0.532265	0.854513
H637	H	-0.154843	-0.152808	0.185637
H638	H	0.178491	0.180526	0.518971
H639	H	0.511824	0.513859	0.852304
H640	H	-0.107862	-0.129555	0.138490
H641	H	0.225471	0.203778	0.471823
H642	H	0.558805	0.537112	0.805157
H643	H	-0.126357	-0.100306	0.210884
H644	H	0.206976	0.233027	0.544217
H645	H	0.540310	0.566360	0.877550
O646	O	0.125327	-0.131089	0.183137
O647	O	0.458660	0.202245	0.516470
O648	O	0.791993	0.535578	0.849803
C649	C	0.152421	-0.156623	0.142581
C650	C	0.485754	0.176710	0.475914
C651	C	0.819088	0.510044	0.809247
H652	H	0.159451	-0.190689	0.164587
H653	H	0.492784	0.142644	0.497920
H654	H	0.826118	0.475977	0.831253
H655	H	0.185415	-0.138311	0.134217
H656	H	0.518749	0.195022	0.467551
H657	H	0.852082	0.528356	0.800884
H658	H	0.134307	-0.161515	0.096144
H659	H	0.467640	0.171818	0.429477
H660	H	0.800974	0.505151	0.762811
H661	H	0.177240	-0.135533	0.189444
H662	H	0.510574	0.197800	0.522777
H663	H	0.843907	0.531134	0.856110
H664	H	0.478174	-0.164302	0.229369
H665	H	0.811508	0.169031	0.562702
H666	H	1.144841	0.502365	0.896036
O667	O	0.032813	-0.301956	0.420911
O668	O	0.366146	0.031377	0.754244
O669	O	0.699479	0.364711	1.087578
C670	C	0.005699	-0.276416	0.461435
C671	C	0.339032	0.056917	0.794769
C672	C	0.672366	0.390251	1.128102
H673	H	0.019863	-0.241039	0.465398
H674	H	0.353196	0.092295	0.798732
H675	H	0.686529	0.425628	1.132065
H676	H	0.005177	-0.292713	0.509611
H677	H	0.338510	0.040621	0.842944
H678	H	0.671844	0.373954	1.176278
H679	H	-0.029867	-0.274845	0.442067
H680	H	0.303467	0.058488	0.775401
H681	H	0.636800	0.391822	1.108734
O682	O	0.125254	-0.302033	0.420888
O683	O	0.458588	0.031301	0.754222
O684	O	0.791921	0.364634	1.087555
C685	C	0.094488	-0.327434	0.456174
C686	C	0.427821	0.005899	0.789507
C687	C	0.761154	0.339233	1.122841
H688	H	0.061054	-0.309033	0.458392
H689	H	0.394388	0.024300	0.791725
H690	H	0.727721	0.357633	1.125059
H691	H	0.108061	-0.332278	0.505527
H692	H	0.441394	0.001055	0.838860
H693	H	0.774728	0.334388	1.172194
H694	H	0.089469	-0.361530	0.433138
H695	H	0.422802	-0.028196	0.766471
H696	H	0.756135	0.305137	1.099804
O697	O	0.705920	-0.956231	0.381192
O698	O	1.039253	-0.622897	0.714526
O699	O	1.372587	-0.289564	1.047859
C700	C	0.731280	-0.986966	0.416587
C701	C	1.064613	-0.653633	0.749921
C702	C	1.397947	-0.320299	1.083254
H703	H	0.712886	-1.020424	0.418727
H704	H	1.046220	-0.687091	0.752060
H705	H	1.379553	-0.353757	1.085393
H706	H	0.736050	-0.973390	0.465961
H707	H	1.069383	-0.640056	0.799294
H708	H	1.402717	-0.306723	1.132627
H709	H	0.765410	-0.991937	0.393697
H710	H	1.098744	-0.658604	0.727030
H711	H	1.432077	-0.325270	1.060364
H712	H	0.568416	-0.744222	0.189125
H713	H	0.901749	-0.410889	0.522458
H714	H	1.235083	-0.077555	0.855792
H715	H	0.655740	-0.143020	0.742954
H716	H	0.989074	0.190314	1.076287
H717	H	1.322407	0.523647	1.409620
O718	O	0.705950	-0.159835	0.536126
O719	O	1.039283	0.173498	0.869459
O720	O	1.372617	0.506831	1.202793
C721	C	0.731335	-0.134481	0.579062
C722	C	1.064669	0.198853	0.912395
C723	C	1.398002	0.532186	1.245729
H724	H	0.712937	-0.132913	0.625692
H725	H	1.046270	0.200421	0.959025
H726	H	1.379603	0.533754	1.292359
H727	H	0.736152	-0.099089	0.560170
H728	H	1.069485	0.234244	0.893503
H729	H	1.402819	0.567578	1.226837
H730	H	0.765444	-0.150937	0.586043
H731	H	1.098777	0.182396	0.919376
H732	H	1.432110	0.515730	1.252710
O733	O	0.032865	-0.130985	0.183168
O734	O	0.366198	0.202348	0.516502
O735	O	0.699531	0.535681	0.849835
C736	C	0.063630	-0.105598	0.147860
C737	C	0.396963	0.227735	0.481193
C738	C	0.730296	0.561069	0.814527
H739	H	0.097088	-0.104075	0.173523
H740	H	0.430421	0.229259	0.506856
H741	H	0.763755	0.562592	0.840190
H742	H	0.050092	-0.070193	0.141280
H743	H	0.383426	0.263141	0.474614
H744	H	0.716759	0.596474	0.807947
H745	H	0.068585	-0.121996	0.100227
H746	H	0.401919	0.211337	0.433560
H747	H	0.735252	0.544671	0.766893
