data_functionalizedCrystal
_audit_creation_method	'MofGen! by Chris Wilmer'
_symmetry_space_group_name_H-M	'P1'
_symmetry_Int_Tables_number	1
_symmetry_cell_setting	triclinic
loop_
_symmetry_equiv_pos_as_xyz
  x,y,z
_cell_length_a	11.792241
_cell_length_b	16.776229
_cell_length_c	17.699083
_cell_angle_alpha	89.992455
_cell_angle_beta	83.738215
_cell_angle_gamma	89.997077
loop_
_atom_site_label
_atom_site_type_symbol
_atom_site_fract_x
_atom_site_fract_y
_atom_site_fract_z
O1	O	1.505669	-0.066213	0.103738
O2	O	1.175200	-0.066231	0.114429
O3	O	1.349771	-0.066214	-0.001056
O4	O	1.331098	-0.066229	0.219223
O5	O	1.349748	0.066362	-0.001063
O6	O	1.175177	0.066345	0.114422
O7	O	1.505646	0.066364	0.103731
Zn8	Zn	1.340408	0.087404	0.109075
Zn9	Zn	1.340438	-0.087271	0.109085
O10	O	1.331075	0.066347	0.219216
C11	C	1.132906	0.000055	0.113754
C12	C	1.006916	0.000048	0.111744
N13	N	1.340396	0.206615	0.109068
N14	N	1.340460	-0.206483	0.109086
C15	C	0.776248	0.000071	0.108048
C16	C	0.904609	0.000058	0.110101
C17	C	1.547941	0.000076	0.104406
C18	C	1.673930	0.000078	0.106416
C19	C	1.349091	0.000074	-0.029260
C20	C	1.347083	0.000074	-0.113289
C21	C	1.417719	0.248340	0.057953
C22	C	1.417725	0.331792	0.057952
C23	C	1.340413	0.373518	0.109071
C24	C	1.263081	0.331788	0.160189
C25	C	1.263070	0.248337	0.160185
C26	C	1.263122	0.668335	0.160204
C27	C	1.263141	0.751791	0.160205
C28	C	1.417777	0.751790	0.057971
C29	C	1.417766	0.668339	0.057967
C30	C	1.340431	0.626616	0.109082
C31	C	1.340424	0.536128	0.109081
C32	C	1.340425	0.464005	0.109076
C33	C	1.449553	0.000081	-0.161364
C34	C	1.447660	0.000074	-0.240317
C35	C	1.343297	0.000066	-0.271194
C36	C	1.240819	0.000056	-0.223113
C37	C	1.242713	0.000058	-0.144161
C38	C	1.233178	0.000049	-0.541517
C39	C	1.231292	0.000050	-0.620475
C40	C	1.438126	0.000066	-0.637673
C41	C	1.440020	0.000067	-0.558721
C42	C	1.337543	0.000054	-0.510647
C43	C	1.339596	0.000060	-0.425037
C44	C	1.341242	0.000065	-0.356803
C45	C	1.331756	0.000057	0.247420
C46	C	1.333763	0.000051	0.331449
H47	H	1.480687	0.365764	0.016329
O48	O	1.122649	0.000054	-0.489677
H49	H	1.072693	-0.053978	-0.500706
H50	H	1.200179	0.785763	0.201834
O51	O	1.179698	0.376786	0.215333
H52	H	1.124638	0.414828	0.183233
O53	O	1.558189	0.000087	-0.292163
H54	H	1.562300	-0.053954	-0.328532
O55	O	1.179721	0.623339	0.215338
H56	H	1.194029	0.639340	0.274404
H57	H	1.525003	0.000078	-0.533586
H58	H	1.480681	0.214372	0.016329
O59	O	1.132191	0.000051	-0.092306
H60	H	1.128102	0.054084	-0.055926
O61	O	1.118719	0.000041	-0.653776
H62	H	1.134623	0.000053	-0.716753
H63	H	1.521567	0.000073	-0.676825
H64	H	1.200104	0.214366	0.201808
H65	H	1.534538	0.000093	-0.136230
O66	O	1.128250	0.000056	-0.256410
H67	H	1.144146	0.000067	-0.319387
H68	H	1.480725	0.634368	0.016344
O69	O	1.501184	0.796789	0.002829
H70	H	1.488199	0.861828	0.011410
