data_functionalizedCrystal
_audit_creation_method	'MofGen! by Chris Wilmer'
_symmetry_space_group_name_H-M	'P1'
_symmetry_Int_Tables_number	1
_symmetry_cell_setting	triclinic
loop_
_symmetry_equiv_pos_as_xyz
  x,y,z
_cell_length_a	19.188930
_cell_length_b	10.065875
_cell_length_c	10.967953
_cell_angle_alpha	110.815185
_cell_angle_beta	83.947357
_cell_angle_gamma	81.269268
loop_
_atom_site_label
_atom_site_type_symbol
_atom_site_fract_x
_atom_site_fract_y
_atom_site_fract_z
O1	O	0.934326	-0.080359	0.142753
O2	O	1.434326	0.419641	0.642753
O3	O	0.730684	-0.075133	0.164570
O4	O	1.230684	0.424867	0.664570
O5	O	0.841158	-0.122166	-0.035209
O6	O	1.341158	0.377834	0.464791
O7	O	0.823852	-0.033326	0.342532
O8	O	1.323852	0.466674	0.842532
O9	O	0.820090	0.113827	0.003039
O10	O	1.320090	0.613827	0.503039
O11	O	0.709616	0.160860	0.202818
O12	O	1.209616	0.660860	0.702818
O13	O	0.913257	0.155634	0.181000
O14	O	1.413257	0.655634	0.681000
Zn15	Zn	0.808091	0.195716	0.197981
Zn16	Zn	1.308091	0.695716	0.697981
Zn17	Zn	0.835850	-0.115215	0.147589
Zn18	Zn	1.335850	0.384785	0.647589
O19	O	0.802783	0.202667	0.380779
O20	O	1.302783	0.702667	0.880779
C21	C	0.694148	0.042710	0.182990
C22	C	1.194148	0.542710	0.682990
C23	C	0.616671	0.042249	0.180876
C24	C	1.116671	0.542249	0.680876
N25	N	0.789152	0.407918	0.232372
N26	N	1.289152	0.907918	0.732372
C27	C	0.830957	-0.015537	-0.064413
C28	C	1.330957	0.484463	0.435587
C29	C	0.831941	-0.049410	-0.208413
C30	C	1.331941	0.450590	0.291587
C31	C	0.570020	0.069795	0.298092
C32	C	1.070020	0.569795	0.798092
C33	C	0.497227	0.069311	0.296098
C34	C	0.997227	0.569311	0.796098
C35	C	0.471091	0.041251	0.176878
C36	C	0.971091	0.541251	0.676878
C37	C	0.517752	0.013709	0.059648
C38	C	1.017752	0.513709	0.559648
C39	C	0.590542	0.014208	0.061648
C40	C	1.090542	0.514208	0.561648
N41	N	0.371631	-0.060557	0.072725
N42	N	0.871631	0.439443	0.572725
N43	N	0.302483	-0.061032	0.070833
N44	N	0.802483	0.438968	0.570833
C45	C	0.251779	0.039749	0.170848
C46	C	0.751779	0.539749	0.670848
N47	N	0.272835	0.141010	0.272842
N48	N	0.772835	0.641010	0.772842
N49	N	0.341990	0.141480	0.274737
N50	N	0.841990	0.641480	0.774737
C51	C	0.392164	0.040708	0.174697
C52	C	0.892164	0.540708	0.674697
C53	C	0.126197	0.066774	0.285910
C54	C	0.626197	0.566774	0.785910
C55	C	0.053402	0.066298	0.283913
C56	C	0.553402	0.566298	0.783913
C57	C	0.073929	0.010681	0.047457
C58	C	0.573929	0.510681	0.547457
C59	C	0.146721	0.011173	0.049460
C60	C	0.646721	0.511173	0.549460
C61	C	0.172851	0.039213	0.168689
C62	C	0.672851	0.539213	0.668689
C63	C	0.949793	0.037788	0.162580
C64	C	1.449793	0.537788	0.662580
C65	C	1.027271	0.038240	0.164692
C66	C	1.527271	0.538240	0.664692
N67	N	0.854795	-0.327419	0.113187
N68	N	1.354795	0.172581	0.613187
C69	C	0.829256	0.458552	0.159546
C70	C	1.329256	0.958552	0.659546
C71	C	0.814685	0.621953	0.186024
C72	C	1.314685	1.121953	0.686024
C73	C	0.822478	0.022750	-0.401628
C74	C	1.322478	0.522750	0.098372
C75	C	0.821463	0.057755	-0.252798
C76	C	1.321463	0.557755	0.247202
C77	C	0.812985	0.096035	0.409982
C78	C	1.312985	0.596035	0.909982
C79	C	0.812001	0.129899	0.553981
C80	C	1.312001	0.629899	1.053981
H81	H	0.591290	0.092625	0.395177
H82	H	1.091290	0.592625	0.895177
H83	H	0.811746	0.175412	-0.180624
H84	H	1.311746	0.675412	0.319376
H85	H	0.147471	0.089628	0.382997
H86	H	0.647471	0.589628	0.882997
N87	N	0.885822	0.361098	0.056702
N88	N	1.385822	0.861098	0.556702
N89	N	0.872145	0.259352	-0.036870
N90	N	1.372145	0.759352	0.463130
H91	H	0.912084	0.190492	-0.109515
H92	H	1.412084	0.690492	0.390485
N93	N	0.799815	0.277486	-0.355468
N94	N	1.299815	0.777486	0.144532
N95	N	0.799011	0.305712	-0.234697
N96	N	1.299011	0.805712	0.265303
H97	H	0.790405	0.409949	-0.170745
H98	H	1.290405	0.909949	0.329255
N99	N	0.844153	-0.197007	-0.298964
N100	N	1.344153	0.302993	0.201036
N101	N	0.844971	-0.225239	-0.419739
N102	N	1.344971	0.274761	0.080261
H103	H	0.853600	-0.329478	-0.483694
H104	H	1.353600	0.170522	0.016306
H105	H	0.052658	-0.012254	-0.049629
H106	H	0.552658	0.487746	0.450371
H107	H	0.459236	0.091747	0.391553
H108	H	0.959236	0.591747	0.891553
H109	H	0.496469	-0.009157	-0.037425
H110	H	0.996469	0.490843	0.462575
H111	H	0.832202	-0.094900	-0.473807
H112	H	1.332202	0.405100	0.026193
H113	H	0.899917	0.594964	0.031225
H114	H	1.399917	1.094964	0.531225
H115	H	0.628526	-0.008225	-0.033807
H116	H	1.128526	0.491775	0.466193
N117	N	0.005754	0.094458	0.403668
N118	N	0.505754	0.594458	0.903668
N119	N	0.029097	0.119494	0.510105
N120	N	0.529097	0.619494	1.010105
H121	H	-0.004554	0.139383	0.594686
H122	H	0.495446	0.639383	1.094686
H123	H	0.184707	-0.011266	-0.045991
H124	H	0.684707	0.488734	0.454009
N125	N	0.758073	0.719327	0.288825
N126	N	1.258073	1.219327	0.788825
N127	N	0.746314	0.851924	0.310184
N128	N	1.246314	1.351924	0.810184
H129	H	0.706332	0.920698	0.382784
H130	H	1.206332	1.420698	0.882784
H131	H	0.744028	0.485536	0.314320
H132	H	1.244028	0.985536	0.814320
