data_functionalizedCrystal
_audit_creation_method	'MofGen! by Chris Wilmer'
_symmetry_space_group_name_H-M	'P1'
_symmetry_Int_Tables_number	1
_symmetry_cell_setting	triclinic
loop_
_symmetry_equiv_pos_as_xyz
  x,y,z
_cell_length_a	19.288864
_cell_length_b	14.853567
_cell_length_c	18.366186
_cell_angle_alpha	89.997562
_cell_angle_beta	89.977106
_cell_angle_gamma	83.385589
loop_
_atom_site_label
_atom_site_type_symbol
_atom_site_fract_x
_atom_site_fract_y
_atom_site_fract_z
O1	O	0.921732	0.112464	-0.060777
O2	O	1.421732	0.612464	0.439223
O3	O	0.719523	0.127635	-0.060727
O4	O	1.219523	0.627635	0.439273
O5	O	0.826029	-0.011211	-0.060755
O6	O	1.326029	0.488789	0.439245
O7	O	0.815226	0.251310	-0.060748
O8	O	1.315226	0.751310	0.439252
O9	O	0.826011	-0.011217	0.060344
O10	O	1.326011	0.488783	0.560344
O11	O	0.719505	0.127629	0.060373
O12	O	1.219505	0.627629	0.560373
O13	O	0.921714	0.112457	0.060322
O14	O	1.421714	0.612457	0.560322
Zn15	Zn	0.820607	0.120042	0.079575
Zn16	Zn	1.320607	0.620042	0.579575
Zn17	Zn	0.820631	0.120051	-0.079979
Zn18	Zn	1.320631	0.620051	0.420021
O19	O	0.815208	0.251304	0.060351
O20	O	1.315208	0.751304	0.560351
C21	C	0.693636	0.127144	-0.000171
C22	C	1.193636	0.627144	0.499829
C23	C	0.616527	0.125679	-0.000152
C24	C	1.116527	0.625679	0.499848
C25	C	0.572106	0.207147	-0.000161
C26	C	1.072106	0.707147	0.499839
C27	C	0.499654	0.205770	-0.000169
C28	C	0.999654	0.705770	0.499831
C29	C	0.471627	0.122920	-0.000182
C30	C	0.971627	0.622920	0.499818
C31	C	0.516058	0.041441	-0.000169
C32	C	1.016058	0.541441	0.499831
C33	C	0.588508	0.042820	-0.000154
C34	C	1.088508	0.542820	0.499846
C35	C	0.363152	0.057794	-0.042635
C36	C	0.863152	0.557794	0.457365
C37	C	0.290702	0.056418	-0.042655
C38	C	0.790702	0.556418	0.457345
C39	C	0.248167	0.118664	-0.000227
C40	C	0.748167	0.618664	0.499773
C41	C	0.278088	0.182300	0.042212
C42	C	0.778088	0.682300	0.542212
C43	C	0.350538	0.183679	0.042228
C44	C	0.850538	0.683679	0.542228
C45	C	0.393068	0.121416	-0.000199
C46	C	0.893068	0.621416	0.499801
C47	C	0.125185	0.198645	-0.000243
C48	C	0.625185	0.698645	0.499757
C49	C	0.052732	0.197265	-0.000247
C50	C	0.552732	0.697265	0.499753
C51	C	0.069138	0.032933	-0.000254
C52	C	0.569138	0.532933	0.499746
C53	C	0.141589	0.034316	-0.000244
C54	C	0.641589	0.534316	0.499756
C55	C	0.169608	0.117174	-0.000242
C56	C	0.669608	0.617174	0.499758
C57	C	0.825530	-0.044800	-0.000208
C58	C	1.325530	0.455200	0.499792
C59	C	0.824064	-0.144875	-0.000214
C60	C	1.324064	0.355125	0.499786
C61	C	0.754596	-0.557014	-0.000182
C62	C	1.254596	-0.057014	0.499818
C63	C	0.881128	-0.579015	-0.000214
C64	C	1.381128	-0.079015	0.499786
C65	C	0.882507	-0.484989	-0.000219
C66	C	1.382507	0.015011	0.499781
C67	C	0.819930	-0.426971	-0.000204
C68	C	1.319930	0.073029	0.499796
C69	C	0.755974	-0.462979	-0.000185
C70	C	1.255974	0.037021	0.499815
C71	C	0.946462	-0.448973	-0.000231
C72	C	1.446462	0.051027	0.499769
C73	C	0.947844	-0.354942	-0.000235
C74	C	1.447844	0.145058	0.499765
C75	C	0.885266	-0.296923	-0.000225
C76	C	1.385266	0.203077	0.499775
C77	C	0.821307	-0.332936	-0.000207
C78	C	1.321307	0.167064	0.499793
C79	C	0.758730	-0.274918	-0.000192
C80	C	1.258730	0.225082	0.499808
C81	C	0.694770	-0.310930	-0.000179
C82	C	1.194770	0.189070	0.499821
C83	C	0.693396	-0.404960	-0.000176
C84	C	1.193396	0.095040	0.499824
C85	C	0.886641	-0.202893	-0.000228
C86	C	1.386641	0.297107	0.499772
C87	C	0.760107	-0.180883	-0.000194
C88	C	1.260107	0.319117	0.499806
C89	C	0.947601	0.112949	-0.000236
C90	C	1.447601	0.612949	0.499764
C91	C	1.024710	0.114414	-0.000259
C92	C	1.524710	0.614414	0.499741
C93	C	0.815707	0.284893	-0.000198
C94	C	1.315707	0.784893	0.499802
C95	C	0.817174	0.384968	-0.000197
C96	C	1.317174	0.884968	0.499803
N97	N	0.820595	0.120035	0.188466
N98	N	1.320595	0.620035	0.688466
N99	N	0.820647	0.120050	-0.188870
N100	N	1.320647	0.620050	0.311130
C101	C	0.867772	0.058584	0.226553
C102	C	1.367772	0.558584	0.726553
C103	C	0.867776	0.058580	0.302781
C104	C	1.367776	0.558580	0.802781
C105	C	0.820611	0.120043	0.340918
C106	C	1.320611	0.620043	0.840918
C107	C	0.773426	0.181498	0.302822
C108	C	1.273426	0.681498	0.802822
C109	C	0.773418	0.181495	0.226595
C110	C	1.273418	0.681495	0.726595
C111	C	0.811590	0.202186	0.461682
C112	C	1.311590	0.702186	0.961682
C113	C	0.811602	0.202191	0.537907
C114	C	1.311602	0.702191	1.037907
C115	C	0.820631	0.120054	0.576026
C116	C	1.320631	0.620054	1.076026
C117	C	0.829661	0.037908	0.537910
C118	C	1.329661	0.537908	1.037910
C119	C	0.829653	0.037905	0.461684
C120	C	1.329653	0.537905	0.961684
C121	C	0.820614	0.120053	0.423573
C122	C	1.320614	0.620053	0.923573
C123	C	0.867814	0.058594	0.696769
C124	C	1.367814	0.558594	1.196769
C125	C	0.867814	0.058588	0.772998
C126	C	1.367814	0.558588	1.272998
C127	C	0.773467	0.181514	0.773037
C128	C	1.273467	0.681514	1.273037
C129	C	0.773464	0.181512	0.696809
C130	C	1.273464	0.681512	1.196809
C131	C	0.820641	0.120052	0.658679
C132	C	1.320641	0.620052	1.158679
H133	H	0.463479	0.272114	-0.000174
H134	H	0.963479	0.772114	0.499826
C135	C	0.691273	-0.117067	-0.000182
C136	C	1.191273	0.382933	0.499818
H137	H	0.701251	-0.055908	-0.000189
H138	H	1.201251	0.444092	0.499811
H139	H	0.665042	-0.127957	0.042052
H140	H	1.165042	0.372043	0.542052
H141	H	0.665064	-0.127957	-0.042413
H142	H	1.165064	0.372043	0.457587
H143	H	0.938716	-0.173576	-0.000234
H144	H	1.438716	0.326424	0.499766
H145	H	0.906229	0.008543	0.804009
H146	H	1.406229	0.508543	1.304009
H147	H	0.641323	-0.434289	-0.000164
H148	H	1.141323	0.065711	0.499836
H149	H	0.374897	0.235492	0.076785
H150	H	0.874897	0.735492	0.576785
C151	C	1.018195	-0.315337	-0.000259
C152	C	1.518195	0.184663	0.499741
H153	H	1.055265	-0.363358	-0.000273
H154	H	1.555265	0.136642	0.499727
H155	H	1.021361	-0.279107	0.041966
H156	H	1.521361	0.220893	0.541966
H157	H	1.021365	-0.279120	-0.042500
H158	H	1.521365	0.220880	0.457500
H159	H	0.906227	0.008547	0.665722
H160	H	1.406227	0.508547	1.165722
H161	H	0.804254	0.269079	0.568935
H162	H	1.304254	0.769079	1.068935
C163	C	0.156013	0.289781	-0.000232
C164	C	0.656013	0.789781	0.499768
H165	H	0.205524	0.278935	-0.000232
H166	H	0.705524	0.778935	0.499768
H167	H	0.140748	0.323312	0.041997
H168	H	0.640748	0.823312	0.541997
H169	H	0.140791	0.323316	-0.042468
H170	H	0.640791	0.823316	0.457532
H171	H	0.243457	0.232986	0.076762
H172	H	0.743457	0.732986	0.576762
H173	H	0.906185	0.008539	0.195510
H174	H	1.406185	0.508539	0.695510
H175	H	0.735061	0.231555	0.804088
H176	H	1.235061	0.731555	1.304088
H177	H	0.804226	0.269076	0.430652
H178	H	1.304226	0.769076	0.930652
C179	C	0.684246	-0.596622	-0.000165
C180	C	1.184246	-0.096622	0.499835
H181	H	0.692385	-0.660932	-0.000162
H182	H	1.192385	-0.160932	0.499838
H183	H	0.658482	-0.576687	-0.042387
H184	H	1.158482	-0.076687	0.457613
H185	H	0.658474	-0.576692	0.042078
H186	H	1.158474	-0.076692	0.542078
C187	C	0.003865	0.286883	-0.000258
C188	C	0.503865	0.786883	0.499742
H189	H	-0.043297	0.274197	-0.000259
H190	H	0.456703	0.774197	0.499741
H191	H	0.012391	0.320866	-0.042487
H192	H	0.512391	0.820866	0.457513
H193	H	0.012346	0.320870	0.041978
H194	H	0.512346	0.820870	0.541978
H195	H	0.643820	-0.263680	-0.000162
H196	H	1.143820	0.236320	0.499838
H197	H	0.735022	0.231541	0.333877
H198	H	1.235022	0.731541	0.833877
H199	H	0.046319	-0.034525	-0.000311
H200	H	0.546319	0.465475	0.499689
C201	C	0.602923	0.298287	-0.000145
C202	C	1.102923	0.798287	0.499855
H203	H	0.566087	0.346610	-0.000144
H204	H	1.066087	0.846610	0.499856
H205	H	0.630873	0.302249	-0.042366
H206	H	1.130873	0.802249	0.457634
H207	H	0.630817	0.302235	0.042099
H208	H	1.130817	0.802235	0.542099
H209	H	0.624677	-0.023524	-0.000146
H210	H	1.124677	0.476476	0.499854
C211	C	0.949959	-0.642826	-0.000230
C212	C	1.449959	-0.142826	0.499770
H213	H	0.988245	-0.607912	-0.000237
H214	H	1.488245	-0.107912	0.499763
H215	H	0.952056	-0.679968	-0.042457
H216	H	1.452056	-0.179968	0.457543
H217	H	0.952045	-0.679960	0.042008
H218	H	1.452045	-0.179960	0.542008
C219	C	0.721527	0.249100	0.184697
C220	C	1.221527	0.749100	0.684697
H221	H	0.693438	0.285709	0.218325
H222	H	1.193438	0.785709	0.718325
H223	H	0.692584	0.216766	0.154975
H224	H	1.192584	0.716766	0.654975
H225	H	0.746550	0.286549	0.154950
H226	H	1.246550	0.786549	0.654950
H227	H	0.906194	0.008538	0.333798
H228	H	1.406194	0.508538	0.833798
H229	H	0.177758	-0.032025	-0.000240
H230	H	0.677758	0.467975	0.499760
C231	C	0.839575	-0.052445	0.419757
C232	C	1.339575	0.447555	0.919757
H233	H	0.845048	-0.101365	0.453369
H234	H	1.345048	0.398635	0.953369
H235	H	0.879954	-0.054351	0.389917
H236	H	1.379954	0.445649	0.889917
H237	H	0.799830	-0.057367	0.390125
H238	H	1.299830	0.442633	0.890125
C239	C	0.839587	-0.052447	0.579830
C240	C	1.339587	0.447553	1.079830
H241	H	0.838289	-0.040684	0.630686
H242	H	1.338289	0.459316	1.130686
H243	H	0.883360	-0.084745	0.567321
H244	H	1.383360	0.415255	1.067321
H245	H	0.803223	-0.087649	0.567354
H246	H	1.303223	0.412351	1.067354
H247	H	0.735051	0.231554	0.665796
H248	H	1.235051	0.731554	1.165796
C249	C	0.257796	-0.013581	-0.089332
C250	C	0.757796	0.486419	0.410668
H251	H	0.293504	-0.050467	-0.114587
H252	H	0.793504	0.449533	0.385413
H253	H	0.226441	0.017042	-0.123456
H254	H	0.726441	0.517042	0.376544
H255	H	0.233150	-0.050519	-0.058742
H256	H	0.733150	0.449481	0.441258
H257	H	0.397779	0.007104	-0.077190
H258	H	0.897779	0.507104	0.422810
H259	H	0.493234	-0.026016	-0.000190
H260	H	0.993234	0.473984	0.499810
H261	H	0.997409	-0.496218	-0.000236
H262	H	1.497409	0.003782	0.499764
