data_functionalizedCrystal
_audit_creation_method	'MofGen! by Chris Wilmer'
_symmetry_space_group_name_H-M	'P1'
_symmetry_Int_Tables_number	1
_symmetry_cell_setting	triclinic
loop_
_symmetry_equiv_pos_as_xyz
  x,y,z
_cell_length_a	9.065215
_cell_length_b	10.967829
_cell_length_c	9.482900
_cell_angle_alpha	92.505610
_cell_angle_beta	99.428423
_cell_angle_gamma	84.859043
loop_
_atom_site_label
_atom_site_type_symbol
_atom_site_fract_x
_atom_site_fract_y
_atom_site_fract_z
O1	O	1.989599	0.157405	0.160309
O2	O	1.560912	0.171840	0.163931
O3	O	1.776908	-0.009941	0.118382
O4	O	1.773603	0.339186	0.205858
O5	O	1.733043	0.027134	-0.114121
O6	O	1.517047	0.208915	-0.068571
O7	O	1.945734	0.194479	-0.072194
Cu8	Cu	1.727385	0.205082	-0.091612
Cu9	Cu	1.779261	0.161238	0.183349
O10	O	1.729738	0.376260	-0.026644
C11	C	1.483936	0.188991	0.047333
C12	C	1.319921	0.184844	0.046297
C13	C	1.751421	-0.036123	-0.009072
C14	C	1.740812	-0.169374	-0.042449
C15	C	1.758805	-0.247981	0.063115
C16	C	1.747840	-0.385703	0.028620
C17	C	2.022711	0.177328	0.044407
C18	C	2.186727	0.181473	0.045453
C19	C	1.755226	0.402442	0.100812
C20	C	1.765837	0.535691	0.134199
N21	N	1.690910	0.235919	-0.285005
C22	C	1.768491	0.170327	-0.373640
C23	C	1.738154	0.195993	-0.534626
N24	N	1.815748	0.130391	0.376740
H25	H	1.724307	-0.420357	-0.087302
H26	H	1.789344	-0.429653	0.250122
H27	H	1.717279	-0.204034	-0.158364
H28	H	1.602024	0.311072	-0.328304
O29	O	1.786688	-0.206470	0.201348
C30	C	1.666878	-0.123044	0.230053
H31	H	1.605236	-0.082804	0.125674
H32	H	1.585951	-0.172653	0.282776
C33	C	1.804301	-0.068681	0.459389
C34	C	1.728599	-0.019250	0.331189
H35	H	1.842370	-0.004659	0.521780
H36	H	1.885017	-0.124890	0.440053
H37	H	1.736850	-0.110022	0.503306
H38	H	1.796054	0.022075	0.287266
H39	H	1.647895	0.036968	0.350520
O40	O	1.874389	0.080628	-0.321817
C41	C	1.806715	-0.007558	-0.255864
H42	H	1.698147	0.035687	-0.222429
H43	H	1.780780	-0.087425	-0.334396
C44	C	2.047830	-0.107530	-0.163970
C45	C	1.914491	-0.054413	-0.122893
H46	H	2.114312	-0.136438	-0.081951
H47	H	2.093424	-0.048121	-0.208408
H48	H	2.026197	-0.174080	-0.229415
H49	H	1.936123	0.012143	-0.057464
H50	H	1.868903	-0.113813	-0.078441
O51	O	1.631912	0.285530	-0.586229
C52	C	1.491252	0.259067	-0.555769
H53	H	1.492217	0.156612	-0.539498
H54	H	1.467860	0.311717	-0.454350
C55	C	1.366711	0.423276	-0.701462
C56	C	1.367893	0.297437	-0.681489
H57	H	1.290615	0.446949	-0.779007
H58	H	1.461477	0.441108	-0.721980
H59	H	1.347223	0.467135	-0.616937
H60	H	1.387399	0.253579	-0.766006
H61	H	1.273127	0.279598	-0.660988
H62	H	1.904628	0.055224	-0.579970
