data_functionalizedCrystal
_audit_creation_method	'MofGen! by Chris Wilmer'
_symmetry_space_group_name_H-M	'P1'
_symmetry_Int_Tables_number	1
_symmetry_cell_setting	triclinic
loop_
_symmetry_equiv_pos_as_xyz
  x,y,z
_cell_length_a	6.394984
_cell_length_b	10.723023
_cell_length_c	9.198806
_cell_angle_alpha	89.996513
_cell_angle_beta	89.998362
_cell_angle_gamma	85.481450
loop_
_atom_site_label
_atom_site_type_symbol
_atom_site_fract_x
_atom_site_fract_y
_atom_site_fract_z
O1	O	0.293015	1.660294	-0.120872
O2	O	0.321064	1.297439	-0.120878
O3	O	0.003048	1.484021	-0.120871
O4	O	0.611031	1.473713	-0.120880
O5	O	0.003047	1.484006	0.120914
O6	O	0.321063	1.297424	0.120907
O7	O	0.293014	1.660279	0.120913
Cu8	Cu	0.307039	1.478850	0.142987
Cu9	Cu	0.307040	1.478868	-0.142952
O10	O	0.611030	1.473698	0.120905
C11	C	0.319023	1.250910	0.000014
C12	C	0.312917	1.112291	0.000011
C13	C	0.310194	1.050483	0.125262
C14	C	0.303883	0.907213	0.125263
C15	C	0.925200	1.481963	0.000026
C16	C	0.688873	1.475752	0.000023
C17	C	0.295055	1.706808	0.000018
C18	C	0.301161	1.845427	0.000010
N19	N	0.307037	1.478847	0.344101
N20	N	0.307025	1.478881	-0.344066
C21	C	0.172922	1.557181	0.416301
C22	C	0.172915	1.557200	0.583713
H23	H	0.310570	1.059142	-0.107220
H24	H	0.312523	1.103634	0.232493
H25	H	0.421860	1.411817	0.593854
H26	H	0.058098	1.624228	0.354177
H27	H	0.058101	1.624270	0.645802
H28	H	0.421845	1.411791	0.406226
H29	H	0.303515	0.898572	-0.107227
H30	H	0.301553	0.854058	0.232494
