data_functionalizedCrystal
_audit_creation_method	'MofGen! by Chris Wilmer'
_symmetry_space_group_name_H-M	'P1'
_symmetry_Int_Tables_number	1
_symmetry_cell_setting	triclinic
loop_
_symmetry_equiv_pos_as_xyz
  x,y,z
_cell_length_a	15.297475
_cell_length_b	19.121063
_cell_length_c	15.296720
_cell_angle_alpha	101.616247
_cell_angle_beta	91.617114
_cell_angle_gamma	83.156694
loop_
_atom_site_label
_atom_site_type_symbol
_atom_site_fract_x
_atom_site_fract_y
_atom_site_fract_z
Zn1	Zn	1.219315	-0.545242	-0.750522
Zn2	Zn	1.238271	-0.646121	-0.608463
Zn3	Zn	1.100653	-0.505885	-0.577035
Zn4	Zn	1.066927	-0.639234	-0.729290
O5	O	1.156291	-0.584120	-0.666328
O6	O	1.343197	-0.577977	-0.753716
O7	O	1.242063	-0.613929	-0.481124
O8	O	1.122575	-0.413080	-0.595782
O9	O	1.357124	-0.652092	-0.649346
O10	O	1.209755	-0.441996	-0.723241
O11	O	1.140956	-0.510898	-0.458034
O12	O	0.974811	-0.504221	-0.575194
O13	O	1.065095	-0.640355	-0.855277
O14	O	0.950033	-0.602192	-0.687055
O15	O	1.177053	-0.571299	-0.870876
O16	O	1.209361	-0.743232	-0.628758
O17	O	1.083475	-0.738173	-0.717529
C18	C	0.930952	-0.548189	-0.625411
C19	C	0.834547	-0.532837	-0.607928
C20	C	1.144835	-0.766125	-0.674274
C21	C	1.140009	-0.844004	-0.677717
C22	C	0.511335	-0.693852	-0.791283
C23	C	0.601913	-0.708281	-0.807706
C24	C	0.660075	-0.664421	-0.757763
C25	C	0.627652	-0.606129	-0.691393
C26	C	0.537065	-0.591702	-0.674963
C27	C	0.685806	-0.562271	-0.641444
C28	C	0.653382	-0.503980	-0.575074
C29	C	0.562804	-0.489555	-0.558647
C30	C	0.504642	-0.533415	-0.608590
C31	C	0.776392	-0.576699	-0.657874
C32	C	0.802123	-0.474549	-0.541555
C33	C	0.711545	-0.460120	-0.525131
C34	C	1.203317	-0.883214	-0.633171
C35	C	1.198782	-0.956391	-0.636415
C36	C	1.130934	-0.990354	-0.684201
C37	C	1.067622	-0.951139	-0.728752
C38	C	1.072161	-0.877965	-0.725513
C39	C	1.113949	-1.211161	-0.696297
C40	C	1.109413	-1.284340	-0.699531
C41	C	1.240575	-1.289587	-0.607195
C42	C	1.245105	-1.216411	-0.603955
C43	C	1.181796	-1.177203	-0.648510
C44	C	1.126295	-1.065151	-0.687516
C45	C	1.186440	-1.102408	-0.645200
C46	C	1.382510	-0.620193	-0.707405
C47	C	1.478911	-0.635564	-0.724910
C48	C	1.115197	-0.609449	-0.895906
C49	C	1.097685	-0.620243	-0.993739
C50	C	1.167812	-0.401410	-0.658374
C51	C	1.172722	-0.323550	-0.654985
C52	C	1.281492	-0.506860	-1.302001
C53	C	1.297950	-0.496721	-1.210084
C54	C	1.247885	-0.527600	-1.155993
C55	C	1.181359	-0.568621	-1.193829
C56	C	1.164903	-0.578765	-1.285757
C57	C	1.131297	-0.599506	-1.139748
C58	C	1.064771	-0.640526	-1.177584
C59	C	1.048318	-0.650669	-1.269503
C60	C	1.098383	-0.619789	-1.323594
C61	C	1.147753	-0.589361	-1.047821
C62	C	1.031165	-0.661267	-1.031576
C63	C	1.014706	-0.671406	-1.123494
C64	C	1.197279	-0.558848	-0.437649
C65	C	1.214971	-0.547884	-0.339838
H66	H	0.733828	-0.676173	-0.771140
H67	H	1.352118	-0.463323	-1.179285
H68	H	0.628306	-0.755743	-0.861743
C69	C	1.265571	-0.516588	-1.056164
C70	C	1.189572	-0.482217	-1.009957
C71	C	1.205831	-0.472081	-0.917991
H72	H	1.312319	-0.487723	-1.041232
H73	H	1.281390	-0.561899	-1.040052
H74	H	1.173764	-0.436913	-1.026062
H75	H	1.142814	-0.511071	-1.024861
H76	H	1.221650	-0.517392	-0.901879
H77	H	1.252581	-0.443217	-0.903068
H78	H	1.154267	-0.448765	-0.886628
C79	C	0.448043	-0.741362	-0.845432
C80	C	0.361776	-0.716241	-0.816849
C81	C	0.303447	-0.759988	-0.866722
H82	H	0.462137	-0.789364	-0.837237
H83	H	0.452891	-0.740066	-0.906854
H84	H	0.356932	-0.717544	-0.755442
H85	H	0.347655	-0.668245	-0.825046
H86	H	0.308294	-0.758692	-0.928143
H87	H	0.317549	-0.807988	-0.858523
H88	H	0.244908	-0.742946	-0.847340
H89	H	1.322252	-0.481727	-1.346050
C90	C	0.942416	-0.715940	-1.164405
C91	C	0.902075	-0.740801	-1.097366
C92	C	0.835471	-0.781821	-1.135019
H93	H	0.967150	-0.755755	-1.207606
H94	H	0.899856	-0.687079	-1.192210
H95	H	0.944628	-0.769662	-1.069576
H96	H	0.877323	-0.701002	-1.054161
H97	H	0.792911	-0.752959	-1.162823
H98	H	0.860212	-0.821631	-1.178219
H99	H	0.808086	-0.798688	-1.089538
H100	H	1.250334	-0.988313	-0.600140
H101	H	1.062399	-1.179243	-0.732574
H102	H	0.802783	-0.624160	-0.711914
H103	H	0.536410	-0.442096	-0.504596
H104	H	1.300353	-1.188759	-0.565044
C105	C	0.406286	-0.517640	-0.590847
C106	C	0.376446	-0.448703	-0.605113
C107	C	0.285842	-0.434157	-0.588792
H108	H	0.395083	-0.520094	-0.530839
H109	H	0.376268	-0.552078	-0.630122
H110	H	0.406454	-0.414273	-0.565838
H111	H	0.387626	-0.446231	-0.665116
H112	H	0.255824	-0.468596	-0.628068
H113	H	0.274648	-0.436615	-0.528785
H114	H	0.265582	-0.387385	-0.598477
C115	C	0.676369	-0.396740	-0.453181
C116	C	0.699280	-0.333089	-0.473471
C117	C	0.666881	-0.274689	-0.407218
H118	H	0.701124	-0.402650	-0.397111
H119	H	0.614087	-0.394385	-0.450557
H120	H	0.761550	-0.335444	-0.476085
H121	H	0.674526	-0.327155	-0.529529
H122	H	0.604598	-0.272334	-0.404594
H123	H	0.691638	-0.280606	-0.351152
H124	H	0.682414	-0.231495	-0.420979
H125	H	1.292119	-1.321518	-0.570922
H126	H	0.849480	-0.438836	-0.500886
H127	H	1.071051	-1.092812	-0.726421
H128	H	1.258564	-0.855565	-0.594254
H129	H	1.054170	-1.311994	-0.738461
C130	C	0.993998	-0.988132	-0.780550
C131	C	1.003556	-1.060602	-0.773832
C132	C	0.935740	-1.094698	-0.821525
H133	H	0.996734	-0.984734	-0.841494
H134	H	0.938771	-0.965504	-0.756501
H135	H	1.058768	-1.083224	-0.797885
H136	H	1.000810	-1.064022	-0.712900
H137	H	0.880513	-1.072069	-0.797475
H138	H	0.938482	-1.091294	-0.882466
H139	H	0.942211	-1.143870	-0.816967
C140	C	1.003319	-0.835507	-0.773903
C141	C	0.942916	-0.880906	-0.816429
C142	C	0.879483	-0.841819	-0.861012
H143	H	1.031265	-0.816438	-0.817094
H144	H	0.973304	-0.797268	-0.732100
H145	H	0.972928	-0.919132	-0.858228
H146	H	0.914948	-0.899976	-0.773258
H147	H	0.849467	-0.803580	-0.819209
H148	H	0.907437	-0.822752	-0.904198
H149	H	0.838487	-0.872615	-0.889864
C150	C	1.259977	-1.065463	-0.593180
C151	C	1.223611	-1.009468	-0.525952
C152	C	1.291325	-0.975417	-0.478003
H153	H	1.293520	-1.046552	-0.632370
H154	H	1.297031	-1.099261	-0.567052
H155	H	1.186573	-0.975675	-0.552079
H156	H	1.190075	-1.028359	-0.486742
H157	H	1.328378	-1.009215	-0.451875
H158	H	1.324863	-0.956510	-0.517200
H159	H	1.266660	-0.937424	-0.432378
C160	C	1.080512	-0.630948	-1.423402
C161	C	1.092967	-0.704523	-1.460739
C162	C	1.076504	-0.714829	-1.552678
H163	H	1.119828	-0.606744	-1.450306
H164	H	1.021567	-0.612244	-1.433539
H165	H	1.151902	-0.723219	-1.450610
H166	H	1.053654	-0.728743	-1.433861
H167	H	1.017560	-0.696124	-1.562814
H168	H	1.115822	-0.690621	-1.579573
H169	H	1.084945	-0.764750	-1.578021
H170	H	0.990399	-0.686413	-0.987536
C171	C	0.976042	-0.695108	-1.310693
C172	C	0.913519	-0.652417	-1.351676
C173	C	0.846937	-0.693336	-1.389641
H174	H	0.948477	-0.712066	-1.265409
H175	H	1.000857	-0.734865	-1.353947
H176	H	0.888706	-0.612673	-1.308426
H177	H	0.941057	-0.635459	-1.396971
H178	H	0.871752	-0.733092	-1.432895
H179	H	0.819379	-0.710291	-1.344352
H180	H	0.804512	-0.664377	-1.417459
H181	H	1.201919	-0.555961	-1.017024
