data_functionalizedCrystal
_audit_creation_method	'MofGen! by Chris Wilmer'
_symmetry_space_group_name_H-M	'P1'
_symmetry_Int_Tables_number	1
_symmetry_cell_setting	triclinic
loop_
_symmetry_equiv_pos_as_xyz
  x,y,z
_cell_length_a	10.654550
_cell_length_b	8.559649
_cell_length_c	9.130313
_cell_angle_alpha	90.000859
_cell_angle_beta	89.996220
_cell_angle_gamma	77.131784
loop_
_atom_site_label
_atom_site_type_symbol
_atom_site_fract_x
_atom_site_fract_y
_atom_site_fract_z
O1	O	1.644677	0.224178	-0.121910
O2	O	1.276992	0.245536	-0.121886
O3	O	1.493228	0.002614	-0.121899
O4	O	1.428441	0.467100	-0.121898
O5	O	1.493225	0.002621	0.121700
O6	O	1.276989	0.245543	0.121713
O7	O	1.644674	0.224184	0.121688
Cu8	Cu	1.460831	0.234864	0.143943
Cu9	Cu	1.460835	0.234856	-0.144141
O10	O	1.428438	0.467107	0.121701
C11	C	1.230355	0.243972	-0.000084
C12	C	1.091396	0.239279	-0.000075
C13	C	0.997136	0.382308	-0.000096
C14	C	0.866571	0.377890	-0.000121
C15	C	0.924542	0.087401	-0.000111
C16	C	1.055103	0.091821	-0.000075
C17	C	0.963666	0.550020	-0.000108
C18	C	0.833101	0.545601	-0.000133
C19	C	1.498136	-0.056858	-0.000103
C20	C	1.512750	-0.234076	-0.000112
C21	C	1.691311	0.225749	-0.000117
C22	C	1.830270	0.230441	-0.000136
C23	C	1.423530	0.526579	-0.000098
C24	C	1.408916	0.703797	-0.000099
N25	N	1.460838	0.234869	0.346566
N26	N	1.460839	0.234839	-0.346763
C27	C	1.556605	0.127340	0.423212
C28	C	1.556604	0.127320	0.576549
C29	C	1.365062	0.342374	0.576580
C30	C	1.365060	0.342384	0.423245
C31	C	1.667194	0.003185	0.423195
C32	C	1.667192	0.003166	0.576532
H33	H	0.784843	0.608790	-0.102087
C34	C	1.275388	-0.186548	-0.000327
C35	C	1.208616	-0.216262	-0.125629
C36	C	1.085600	-0.115283	-0.125880
H37	H	1.282786	-0.077990	-0.000411
H38	H	1.229823	-0.206476	0.084581
H39	H	1.254169	-0.196322	-0.210515
H40	H	1.201182	-0.324801	-0.125572
H41	H	1.040035	-0.135212	-0.040972
H42	H	1.093011	-0.006731	-0.125960
H43	H	1.040276	-0.135441	-0.210889
C44	C	1.783382	0.055299	0.359989
C45	C	1.783215	0.210826	0.407627
C46	C	1.890234	0.258893	0.349460
H47	H	1.779511	0.053681	0.256076
H48	H	1.859971	-0.015970	0.392157
H49	H	1.706645	0.282076	0.375451
H50	H	1.787104	0.212485	0.511532
H51	H	1.966824	0.187624	0.381627
H52	H	1.886354	0.257266	0.245549
H53	H	1.890142	0.364416	0.381784
C54	C	0.993737	0.637202	0.136006
C55	C	0.965889	0.556347	0.260974
C56	C	0.993592	0.636595	0.386385
H57	H	0.942825	0.743501	0.136209
H58	H	1.082347	0.640160	0.136115
H59	H	0.877295	0.553408	0.260866
H60	H	1.016797	0.450054	0.260820
H61	H	1.082202	0.639553	0.386494
H62	H	0.942678	0.742891	0.386573
H63	H	0.974713	0.581739	0.471191
H64	H	1.612835	-0.316473	-0.000107
H65	H	1.287069	0.429928	0.360841
C66	C	1.260898	0.458915	0.659761
C67	C	1.140144	0.431537	0.622492
C68	C	1.044157	0.538851	0.699101
H69	H	1.264058	0.565679	0.634709
H70	H	1.274529	0.443497	0.762073
H71	H	1.126517	0.446969	0.520203
H72	H	1.136942	0.324795	0.647548
H73	H	1.057788	0.523432	0.801413
H74	H	1.047329	0.645608	0.674044
H75	H	0.962216	0.520280	0.673836
H76	H	1.760879	0.030513	0.618142
H77	H	1.131848	-0.024647	-0.000037
H78	H	1.658424	-0.119498	0.381577
C79	C	0.765216	0.612844	0.140198
C80	C	0.715004	0.494160	0.209471
C81	C	0.652481	0.556022	0.338761
H82	H	0.697176	0.701814	0.117572
H83	H	0.824920	0.646323	0.203553
H84	H	0.655305	0.460705	0.146129
H85	H	0.783018	0.405183	0.232133
H86	H	0.712185	0.589501	0.402116
H87	H	0.584447	0.644992	0.316121
H88	H	0.618415	0.475501	0.385785
C89	C	1.642305	-0.151426	0.639727
C90	C	1.522062	-0.171829	0.592134
C91	C	1.499113	-0.314235	0.650296
H92	H	1.643067	-0.146302	0.743640
H93	H	1.707537	-0.239323	0.607524
H94	H	1.456847	-0.083954	0.624345
H95	H	1.521271	-0.176982	0.488229
H96	H	1.564345	-0.402132	0.618093
H97	H	1.499880	-0.309098	0.754207
H98	H	1.417532	-0.328105	0.618002
H99	H	0.993806	0.603419	-0.105280
H100	H	0.894975	-0.032654	-0.000133
