data_functionalizedCrystal
_audit_creation_method	'MofGen! by Chris Wilmer'
_symmetry_space_group_name_H-M	'P1'
_symmetry_Int_Tables_number	1
_symmetry_cell_setting	triclinic
loop_
_symmetry_equiv_pos_as_xyz
  x,y,z
_cell_length_a	19.188925
_cell_length_b	19.188930
_cell_length_c	13.101039
_cell_angle_alpha	93.345801
_cell_angle_beta	86.652915
_cell_angle_gamma	83.143665
loop_
_atom_site_label
_atom_site_type_symbol
_atom_site_fract_x
_atom_site_fract_y
_atom_site_fract_z
O1	O	0.930001	0.083283	-0.085248
O2	O	1.180001	0.333283	0.164752
O3	O	1.430001	0.583283	0.414752
O4	O	1.680001	0.833283	0.664752
O5	O	0.726690	0.095021	-0.085246
O6	O	0.976690	0.345021	0.164754
O7	O	1.226690	0.595021	0.414754
O8	O	1.476690	0.845021	0.664754
O9	O	0.834212	-0.012503	-0.085227
O10	O	1.084212	0.237497	0.164773
O11	O	1.334212	0.487497	0.414773
O12	O	1.584212	0.737497	0.664773
O13	O	0.822479	0.190807	-0.085267
O14	O	1.072479	0.440807	0.164733
O15	O	1.322479	0.690807	0.414733
O16	O	1.572479	0.940807	0.664733
O17	O	0.826497	-0.004776	0.085201
O18	O	1.076497	0.245224	0.335201
O19	O	1.326497	0.495224	0.585201
O20	O	1.576497	0.745224	0.835201
O21	O	0.718975	0.102748	0.085182
O22	O	0.968975	0.352748	0.335182
O23	O	1.218975	0.602748	0.585182
O24	O	1.468975	0.852748	0.835182
O25	O	0.922287	0.091010	0.085181
O26	O	1.172287	0.341010	0.335181
O27	O	1.422287	0.591010	0.585181
O28	O	1.672287	0.841010	0.835181
Zn29	Zn	0.819406	0.098106	0.112241
Zn30	Zn	1.069406	0.348106	0.362241
Zn31	Zn	1.319406	0.598106	0.612241
Zn32	Zn	1.569406	0.848106	0.862241
Zn33	Zn	0.829570	0.087925	-0.112306
Zn34	Zn	1.079570	0.337925	0.137694
Zn35	Zn	1.329570	0.587925	0.387694
Zn36	Zn	1.579570	0.837925	0.637694
O37	O	0.814765	0.198534	0.085161
O38	O	1.064765	0.448534	0.335161
O39	O	1.314765	0.698534	0.585161
O40	O	1.564765	0.948534	0.835161
C41	C	0.696821	0.098505	-0.000032
C42	C	0.946821	0.348505	0.249968
C43	C	1.196821	0.598505	0.499968
C44	C	1.446821	0.848505	0.749968
C45	C	0.619316	0.097366	-0.000030
C46	C	0.869316	0.347366	0.249970
C47	C	1.119316	0.597366	0.499970
C48	C	1.369316	0.847366	0.749970
C49	C	0.057547	0.152829	-0.000044
C50	C	0.307547	0.402829	0.249956
C51	C	0.557547	0.652829	0.499956
C52	C	0.807547	0.902829	0.749956
C53	C	0.130370	0.153906	-0.000049
C54	C	0.380370	0.403906	0.249951
C55	C	0.630370	0.653906	0.499951
C56	C	0.880370	0.903906	0.749951
C57	C	0.175304	0.090814	-0.000035
C58	C	0.425304	0.340814	0.249965
C59	C	0.675304	0.590814	0.499965
C60	C	0.925304	0.840814	0.749965
C61	C	0.147410	0.026640	-0.000042
C62	C	0.397410	0.276640	0.249958
C63	C	0.647410	0.526640	0.499958
C64	C	0.897410	0.776640	0.749958
C65	C	0.074588	0.025566	-0.000046
C66	C	0.324588	0.275566	0.249954
C67	C	0.574588	0.525566	0.499954
C68	C	0.824588	0.775566	0.749954
N69	N	0.293355	0.047769	0.057989
N70	N	0.543355	0.297769	0.307989
N71	N	0.793355	0.547769	0.557989
N72	N	1.043355	0.797769	0.807989
N73	N	0.362532	0.048794	0.057995
N74	N	0.612532	0.298794	0.307995
N75	N	0.862532	0.548794	0.557995
N76	N	1.112532	0.798794	0.807995
C77	C	0.394713	0.094049	-0.000024
C78	C	0.644713	0.344049	0.249976
C79	C	0.894713	0.594049	0.499976
C80	C	1.144713	0.844049	0.749976
N81	N	0.355101	0.138250	-0.058037
N82	N	0.605101	0.388250	0.191963
N83	N	0.855101	0.638250	0.441963
N84	N	1.105101	0.888250	0.691963
N85	N	0.285917	0.137227	-0.058039
N86	N	0.535917	0.387227	0.191961
N87	N	0.785917	0.637227	0.441961
N88	N	1.035917	0.887227	0.691961
C89	C	0.254268	0.091973	-0.000031
C90	C	0.504268	0.341973	0.249969
C91	C	0.754268	0.591973	0.499969
C92	C	1.004268	0.841973	0.749969
C93	C	0.501562	0.159385	-0.000031
C94	C	0.751562	0.409385	0.249969
C95	C	1.001562	0.659385	0.499969
C96	C	1.251562	0.909385	0.749969
C97	C	0.574387	0.160458	-0.000043
C98	C	0.824387	0.410458	0.249957
C99	C	1.074387	0.660458	0.499957
C100	C	1.324387	0.910458	0.749957
C101	C	0.591426	0.033192	-0.000025
C102	C	0.841426	0.283192	0.249975
C103	C	1.091426	0.533192	0.499975
C104	C	1.341426	0.783192	0.749975
C105	C	0.518602	0.032120	-0.000023
C106	C	0.768602	0.282120	0.249977
C107	C	1.018602	0.532120	0.499977
C108	C	1.268602	0.782120	0.749977
C109	C	0.473674	0.095219	-0.000021
C110	C	0.723674	0.345219	0.249979
C111	C	0.973674	0.595219	0.499979
C112	C	1.223674	0.845219	0.749979
C113	C	0.829974	-0.034650	-0.000010
C114	C	1.079974	0.215350	0.249990
C115	C	1.329974	0.465350	0.499990
C116	C	1.579974	0.715350	0.749990
C117	C	0.828833	-0.112154	-0.000001
C118	C	1.078833	0.137846	0.249999
C119	C	1.328833	0.387846	0.499999
C120	C	1.578833	0.637846	0.749999
C121	C	0.891924	-0.157079	0.000003
C122	C	1.141924	0.092921	0.250003
C123	C	1.391924	0.342921	0.500003
C124	C	1.641924	0.592921	0.750003
C125	C	0.890853	-0.229904	-0.000013
C126	C	1.140853	0.020096	0.249987
C127	C	1.390853	0.270096	0.499987
C128	C	1.640853	0.520096	0.749987
C129	C	0.826687	-0.257799	-0.000013
C130	C	1.076687	-0.007799	0.249987
C131	C	1.326687	0.242201	0.499987
C132	C	1.576687	0.492201	0.749987
C133	C	0.763588	-0.212865	-0.000024
C134	C	1.013588	0.037135	0.249976
C135	C	1.263588	0.287135	0.499976
C136	C	1.513588	0.537135	0.749976
C137	C	0.764661	-0.140042	-0.000017
C138	C	1.014661	0.109958	0.249983
C139	C	1.264661	0.359958	0.499983
C140	C	1.514661	0.609958	0.749983
N141	N	0.775014	-0.363173	0.057987
N142	N	1.025014	-0.113173	0.307987
N143	N	1.275014	0.136827	0.557987
N144	N	1.525014	0.386827	0.807987
N145	N	0.773999	-0.432352	0.057983
N146	N	1.023999	-0.182352	0.307983
N147	N	1.273999	0.067648	0.557983
N148	N	1.523999	0.317648	0.807983
C149	C	0.823450	-0.477209	-0.000034
C150	C	1.073450	-0.227209	0.249966
C151	C	1.323450	0.022791	0.499966
C152	C	1.573450	0.272791	0.749966
N153	N	0.873964	-0.450274	-0.058035
N154	N	1.123964	-0.200274	0.191965
N155	N	1.373964	0.049726	0.441965
N156	N	1.623964	0.299726	0.691965
N157	N	0.874981	-0.381089	-0.058027
N158	N	1.124981	-0.131089	0.191973
N159	N	1.374981	0.118911	0.441973
N160	N	1.624981	0.368911	0.691973
C161	C	0.825516	-0.336762	-0.000021
C162	C	1.075516	-0.086762	0.249979
C163	C	1.325516	0.163238	0.499979
C164	C	1.575516	0.413238	0.749979
C165	C	0.885384	-0.601099	-0.000049
C166	C	1.135384	-0.351099	0.249951
C167	C	1.385384	-0.101099	0.499951
C168	C	1.635384	0.148901	0.749951
C169	C	0.884310	-0.673925	-0.000072
C170	C	1.134310	-0.423925	0.249928
C171	C	1.384310	-0.173925	0.499928
C172	C	1.634310	0.076075	0.749928
C173	C	0.757043	-0.656883	-0.000072
C174	C	1.007043	-0.406883	0.249928
C175	C	1.257043	-0.156883	0.499928
C176	C	1.507043	0.093117	0.749928
C177	C	0.758119	-0.584060	-0.000059
C178	C	1.008119	-0.334060	0.249941
C179	C	1.258119	-0.084060	0.499941
C180	C	1.508119	0.165940	0.749941
C181	C	0.822291	-0.556172	-0.000043
C182	C	1.072291	-0.306172	0.249957
C183	C	1.322291	-0.056172	0.499957
C184	C	1.572291	0.193828	0.749957
C185	C	0.952155	0.087526	-0.000036
C186	C	1.202155	0.337526	0.249964
C187	C	1.452155	0.587526	0.499964
C188	C	1.702155	0.837526	0.749964
C189	C	1.029660	0.088664	-0.000044
C190	C	1.279660	0.338664	0.249956
C191	C	1.529660	0.588664	0.499956
C192	C	1.779660	0.838664	0.749956
C193	C	0.819002	0.220681	-0.000058
C194	C	1.069002	0.470681	0.249942
C195	C	1.319002	0.720681	0.499942
C196	C	1.569002	0.970681	0.749942
C197	C	0.820144	0.298185	-0.000074
C198	C	1.070144	0.548185	0.249926
C199	C	1.320144	0.798185	0.499926
C200	C	1.570144	1.048185	0.749926
N201	N	0.812474	0.105054	0.265488
N202	N	1.062474	0.355054	0.515488
N203	N	1.312474	0.605054	0.765488
N204	N	1.562474	0.855054	1.015488
N205	N	0.836508	0.080971	-0.265554
N206	N	1.086508	0.330971	-0.015554
N207	N	1.336508	0.580971	0.234446
N208	N	1.586508	0.830971	0.484446
C209	C	0.803043	0.114513	0.474529
C210	C	1.053043	0.364513	0.724529
C211	C	1.303043	0.614513	0.974529
C212	C	1.553043	0.864513	1.224529
C213	C	0.845936	0.071514	0.525412
C214	C	1.095936	0.321514	0.775412
C215	C	1.345936	0.571514	1.025412
C216	C	1.595936	0.821514	1.275412
C217	C	0.840689	0.076777	0.641730
C218	C	1.090689	0.326777	0.891730
C219	C	1.340689	0.576777	1.141730
C220	C	1.590689	0.826777	1.391730
C221	C	0.808290	0.109251	0.358201
C222	C	1.058290	0.359251	0.608201
C223	C	1.308290	0.609251	0.858201
C224	C	1.558290	0.859251	1.108201
H225	H	0.153079	0.206158	-0.000039
H226	H	0.403079	0.456158	0.249961
H227	H	0.653079	0.706158	0.499961
H228	H	0.903079	0.956158	0.749961
H229	H	0.942231	-0.266489	-0.000013
H230	H	1.192231	-0.016489	0.249987
H231	H	1.442231	0.233511	0.499987
H232	H	1.692231	0.483511	0.749987
Br233	Br	0.208390	-0.058985	-0.000031
Br234	Br	0.458390	0.191015	0.249969
Br235	Br	0.708390	0.441015	0.499969
Br236	Br	0.958390	0.691015	0.749969
H237	H	0.051885	-0.026687	-0.000047
H238	H	0.301885	0.223313	0.249953
H239	H	0.551885	0.473313	0.499953
H240	H	0.801885	0.723313	0.749953
H241	H	0.628011	-0.018179	-0.000021
H242	H	0.878011	0.231821	0.249979
H243	H	1.128011	0.481821	0.499979
H244	H	1.378011	0.731821	0.749979
H245	H	0.886600	0.030749	0.481617
H246	H	1.136600	0.280749	0.731617
H247	H	1.386600	0.530749	0.981617
H248	H	1.636600	0.780749	1.231617
H249	H	0.464980	0.210764	-0.000031
H250	H	0.714980	0.460764	0.249969
H251	H	0.964980	0.710764	0.499969
H252	H	1.214980	0.960764	0.749969
H253	H	0.762383	0.155277	0.518319
H254	H	1.012383	0.405277	0.768319
H255	H	1.262383	0.655277	1.018319
H256	H	1.512383	0.905277	1.268319
H257	H	0.944178	-0.134378	0.000013
H258	H	1.194178	0.115622	0.250013
H259	H	1.444178	0.365622	0.500013
H260	H	1.694178	0.615622	0.750013
Br261	Br	-0.003423	0.238462	-0.000053
Br262	Br	0.246577	0.488462	0.249947
Br263	Br	0.496577	0.738462	0.499947
Br264	Br	0.746577	0.988462	0.749947
H265	H	0.495897	-0.020130	-0.000017
H266	H	0.745897	0.229870	0.249983
H267	H	0.995897	0.479870	0.499983
H268	H	1.245897	0.729870	0.749983
H269	H	0.597090	0.212711	-0.000051
H270	H	0.847090	0.462711	0.249949
H271	H	1.097090	0.712711	0.499949
H272	H	1.347090	0.962711	0.749949
Br273	Br	0.676505	-0.250721	-0.000037
Br274	Br	0.926505	-0.000721	0.249963
Br275	Br	1.176505	0.249279	0.499963
Br276	Br	1.426505	0.499279	0.749963
H277	H	0.713283	-0.103463	-0.000021
H278	H	0.963283	0.146537	0.249979
H279	H	1.213283	0.396537	0.499979
H280	H	1.463283	0.646537	0.749979
H281	H	0.937636	-0.578392	-0.000040
H282	H	1.187636	-0.328392	0.249960
H283	H	1.437636	-0.078392	0.499960
H284	H	1.687636	0.171608	0.749960
H285	H	0.935689	-0.710503	-0.000074
H286	H	1.185689	-0.460503	0.249926
H287	H	1.435689	-0.210503	0.499926
H288	H	1.685689	0.039497	0.749926
H289	H	0.704798	-0.679595	-0.000077
H290	H	0.954798	-0.429595	0.249923
H291	H	1.204798	-0.179595	0.499923
H292	H	1.454798	0.070405	0.749923
Br293	Br	0.672490	-0.523086	-0.000064
Br294	Br	0.922490	-0.273086	0.249936
Br295	Br	1.172490	-0.023086	0.499936
Br296	Br	1.422490	0.226914	0.749936
