data_functionalizedCrystal
_audit_creation_method	'MofGen! by Chris Wilmer'
_symmetry_space_group_name_H-M	'P1'
_symmetry_Int_Tables_number	1
_symmetry_cell_setting	triclinic
loop_
_symmetry_equiv_pos_as_xyz
  x,y,z
_cell_length_a	16.625547
_cell_length_b	11.169416
_cell_length_c	11.169409
_cell_angle_alpha	90.030874
_cell_angle_beta	90.027407
_cell_angle_gamma	90.010278
loop_
_atom_site_label
_atom_site_type_symbol
_atom_site_fract_x
_atom_site_fract_y
_atom_site_fract_z
Zn1	Zn	1.232769	-0.477712	0.678798
Zn2	Zn	1.732769	0.022288	1.178798
Zn3	Zn	1.232695	-0.678452	0.478120
Zn4	Zn	1.732695	-0.178452	0.978120
Zn5	Zn	1.097925	-0.477782	0.478106
Zn6	Zn	1.597925	0.022218	0.978106
Zn7	Zn	1.097930	-0.678351	0.678738
Zn8	Zn	1.597930	-0.178351	1.178738
O9	O	1.165330	-0.578074	0.578440
O10	O	1.665330	-0.078074	1.078440
O11	O	1.345592	-0.504353	0.652208
O12	O	1.845592	-0.004353	1.152208
O13	O	1.214784	-0.651904	0.310168
O14	O	1.714784	-0.151904	0.810168
O15	O	1.115841	-0.309823	0.504747
O16	O	1.615841	0.190177	1.004747
O17	O	1.345537	-0.651837	0.504771
O18	O	1.845537	-0.151837	1.004771
O19	O	1.214911	-0.309771	0.652195
O20	O	1.714911	0.190229	1.152195
O21	O	1.115769	-0.504473	0.310158
O22	O	1.615769	-0.004473	0.810158
O23	O	0.985093	-0.504375	0.504689
O24	O	1.485093	-0.004375	1.004689
O25	O	1.115850	-0.651665	0.846696
O26	O	1.615850	-0.151665	1.346696
O27	O	0.985097	-0.651732	0.652093
O28	O	1.485097	-0.151732	1.152093
O29	O	1.214916	-0.504256	0.846740
O30	O	1.714916	-0.004256	1.346740
O31	O	1.214789	-0.846389	0.504713
O32	O	1.714789	-0.346389	1.004713
O33	O	1.115778	-0.846314	0.652107
O34	O	1.615778	-0.346314	1.152107
C35	C	1.165298	-0.889899	0.578431
C36	C	1.665298	-0.389899	1.078431
C37	C	1.165358	-1.023299	0.578467
C38	C	1.665358	-0.523299	1.078467
C39	C	0.955839	-0.578051	0.578384
C40	C	1.455839	-0.078051	1.078384
C41	C	0.866218	-0.578070	0.578388
C42	C	1.366218	-0.078070	1.078388
C43	C	0.793435	-0.578072	0.578403
C44	C	1.293435	-0.078072	1.078403
C45	C	0.702127	-0.578079	0.578433
C46	C	1.202127	-0.078079	1.078433
C47	C	0.629350	-0.578090	0.578463
C48	C	1.129350	-0.078090	1.078463
C49	C	0.538036	-0.578098	0.578492
C50	C	1.038036	-0.078098	1.078492
C51	C	1.375638	-0.578099	0.578498
C52	C	1.875638	-0.078099	1.078498
C53	C	1.465260	-0.578109	0.578522
C54	C	1.965260	-0.078109	1.078522
C55	C	1.165391	-0.577941	0.891483
C56	C	1.665391	-0.077941	1.391483
C57	C	1.165418	-0.577884	1.024883
C58	C	1.665418	-0.077884	1.524883
C59	C	1.165384	-0.265032	0.578476
C60	C	1.665384	0.234968	1.078476
C61	C	1.165407	-0.131632	0.578491
C62	C	1.665407	0.368368	1.078491
C63	C	1.165314	-0.578120	0.266616
C64	C	1.665314	-0.078120	0.766616
C65	C	1.165444	-0.577839	0.133216
C66	C	1.665444	-0.077839	0.633216
