data_functionalizedCrystal
_audit_creation_method	'MofGen! by Chris Wilmer'
_symmetry_space_group_name_H-M	'P1'
_symmetry_Int_Tables_number	1
_symmetry_cell_setting	triclinic
loop_
_symmetry_equiv_pos_as_xyz
  x,y,z
_cell_length_a	14.971486
_cell_length_b	23.532407
_cell_length_c	13.448316
_cell_angle_alpha	89.988737
_cell_angle_beta	89.998199
_cell_angle_gamma	83.231404
loop_
_atom_site_label
_atom_site_type_symbol
_atom_site_fract_x
_atom_site_fract_y
_atom_site_fract_z
O1	O	1.186163	0.074216	-0.082588
O2	O	0.925669	0.083104	-0.082616
O3	O	1.063771	-0.004238	-0.082583
O4	O	1.048061	0.161558	-0.082621
O5	O	1.063754	-0.004243	0.082801
O6	O	0.925652	0.083099	0.082767
O7	O	1.186146	0.074211	0.082796
Cu8	Cu	1.055897	0.078654	0.097882
Cu9	Cu	1.055918	0.078661	-0.097703
O10	O	1.048044	0.161553	0.082763
C11	C	0.892340	0.082704	0.000072
C12	C	0.793056	0.081513	0.000062
C13	C	0.735288	0.132824	0.000052
C14	C	0.642001	0.131701	0.000067
C15	C	0.606482	0.079267	0.000085
C16	C	0.664257	0.027952	0.000099
C17	C	0.757543	0.029075	0.000091
C18	C	0.469819	0.025615	0.000113
C19	C	0.376527	0.024491	0.000119
C20	C	0.354277	0.128241	0.000089
C21	C	0.447563	0.129364	0.000081
C22	C	0.505331	0.078049	0.000093
C23	C	1.063363	-0.025458	0.000111
C24	C	1.062160	-0.088680	0.000119
C25	C	1.136342	-0.487466	0.000072
C26	C	1.135224	-0.546871	0.000065
O27	O	1.203992	-0.583321	0.000035
N28	N	1.053123	-0.569849	0.000056
C29	C	0.972133	-0.533418	0.000046
O30	O	0.902196	-0.558417	0.000037
C31	C	0.973251	-0.474014	0.000046
C32	C	1.055358	-0.451040	0.000065
C33	C	1.218442	-0.464491	0.000090
C34	C	1.219559	-0.405090	0.000099
C35	C	1.138576	-0.368664	0.000091
C36	C	1.056475	-0.391639	0.000074
C37	C	0.892263	-0.437584	0.000029
C38	C	0.893388	-0.378177	0.000028
C39	C	0.975495	-0.355203	0.000047
C40	C	0.976609	-0.295812	0.000076
N41	N	1.058711	-0.272834	0.000084
C42	C	1.139694	-0.309260	0.000092
C43	C	0.969791	-0.658170	0.000043
C44	C	0.968671	-0.717573	0.000049
C45	C	1.131763	-0.731022	0.000066
C46	C	1.132882	-0.671618	0.000067
C47	C	1.051892	-0.635193	0.000051
C48	C	1.142034	-0.184513	0.000113
C49	C	1.143143	-0.125106	0.000126
C50	C	0.980052	-0.111663	0.000104
C51	C	0.978942	-0.171064	0.000096
C52	C	1.059940	-0.207489	0.000097
O53	O	0.907878	-0.259327	0.000101
O54	O	1.209619	-0.284253	0.000087
C55	C	1.219475	0.074611	0.000105
C56	C	1.318760	0.075802	0.000109
C57	C	1.048453	0.182773	0.000066
C58	C	1.049655	0.245996	0.000052
N59	N	1.055890	0.078650	0.235447
N60	N	1.055933	0.078661	-0.235267
C61	C	1.117060	0.039991	0.287502
C62	C	1.117066	0.039990	0.391605
C63	C	1.055904	0.078652	0.443651
C64	C	0.994728	0.117313	0.391589
C65	C	0.994718	0.117310	0.287488
C66	C	0.994752	0.117317	0.608569
C67	C	0.994762	0.117320	0.712678
C68	C	1.117100	0.039997	0.712686
C69	C	1.117090	0.039994	0.608585
C70	C	1.055914	0.078656	0.556530
H71	H	0.476478	0.172060	0.000057
O72	O	0.901413	-0.076249	-0.000082
C73	C	0.897218	-0.041466	-0.085724
H74	H	0.943163	-0.063183	-0.145580
H75	H	0.825115	-0.034832	-0.114493
H76	H	0.919981	0.001743	-0.066351
O77	O	0.298039	0.178036	0.000121
C78	C	0.208086	0.165804	0.000110
H79	H	0.204907	0.121072	0.031444
H80	H	0.165528	0.198510	0.048112
H81	H	0.181083	0.167941	-0.079232
H82	H	1.199740	-0.652917	0.000081
O83	O	0.935294	0.154928	0.558155
C84	C	0.881301	0.189046	0.626413
H85	H	0.917970	0.189728	0.700615
H86	H	0.867250	0.234512	0.596317
H87	H	0.815023	0.170486	0.637500
O88	O	1.176508	0.002379	0.237103
C89	C	1.230513	-0.031733	0.305377
H90	H	1.193854	-0.032412	0.379589
H91	H	1.244563	-0.077201	0.275318
H92	H	1.296790	-0.013171	0.316431
H93	H	0.825402	-0.456279	0.000008
H94	H	1.166897	0.008515	0.566209
H95	H	0.516853	-0.016172	0.000124
O96	O	1.176525	0.002518	0.442286
C97	C	1.231440	0.033083	0.502464
H98	H	1.195412	0.077609	0.518041
H99	H	1.245808	0.009331	0.575679
H100	H	1.297505	0.037025	0.462337
O101	O	1.176492	0.002361	0.763135
C102	C	1.162452	-0.054033	0.737737
H103	H	1.127965	-0.054001	0.662160
H104	H	1.229937	-0.082004	0.734172
H105	H	1.118102	-0.071696	0.796342
H106	H	0.944958	0.148802	0.755048
O107	O	0.935388	0.154943	0.236962
C108	C	0.949407	0.211337	0.262390
H109	H	1.021015	0.211693	0.290995
H110	H	0.938855	0.239905	0.193916
H111	H	0.899688	0.228013	0.322816
O112	O	0.342172	-0.026492	0.000183
C113	C	0.413160	-0.071543	0.000173
H114	H	0.476398	-0.055539	0.031478
H115	H	0.393984	-0.108146	0.048201
H116	H	0.426503	-0.087374	-0.079164
H117	H	0.804577	-0.012707	0.000098
O118	O	0.769828	0.183745	-0.000145
C119	C	0.823135	0.187497	-0.085793
H120	H	0.801336	0.157722	-0.145649
H121	H	0.814346	0.233390	-0.114556
H122	H	0.896826	0.174414	-0.066432
H123	H	1.286419	-0.386390	0.000110
O124	O	0.586013	0.181598	0.000011
C125	C	0.637366	0.228117	0.000012
H126	H	0.707122	0.213710	-0.031304
H127	H	0.602627	0.264074	-0.048010
H128	H	0.643873	0.244186	0.079349
O129	O	0.629862	-0.023018	-0.000018
C130	C	0.659408	-0.054291	-0.085678
H131	H	0.723976	-0.038726	-0.114240
H132	H	0.672778	-0.101709	-0.066404
H133	H	0.605362	-0.047729	-0.145656
H134	H	1.210008	-0.106405	0.000144
O135	O	0.935279	0.154790	0.442256
C136	C	0.880368	0.124232	0.502478
H137	H	0.916393	0.079706	0.518085
H138	H	0.866015	0.147990	0.575675
H139	H	0.814295	0.120292	0.462373
H140	H	1.284392	-0.494144	0.000092
O141	O	1.220796	-0.219809	0.000162
C142	C	1.293490	-0.186782	0.000154
H143	H	1.270364	-0.142471	0.031465
H144	H	1.350196	-0.208650	0.048179
H145	H	1.318693	-0.182519	-0.079183
H146	H	0.903835	-0.628515	0.000038
O147	O	1.210493	-0.766354	-0.000068
C148	C	1.260369	-0.755930	-0.085731
H149	H	1.238003	-0.710881	-0.114282
H150	H	1.335006	-0.760059	-0.066464
H151	H	1.248432	-0.788420	-0.145714
H152	H	0.901812	-0.736273	0.000052
O153	O	0.814630	-0.342875	0.000057
C154	C	0.741930	-0.375897	0.000013
H155	H	0.765038	-0.420218	0.031324
H156	H	0.685210	-0.354039	0.048018
H157	H	0.716753	-0.380138	-0.079336
H158	H	0.912084	-0.189771	0.000109
