data_functionalizedCrystal
_audit_creation_method	'MofGen! by Chris Wilmer'
_symmetry_space_group_name_H-M	'P1'
_symmetry_Int_Tables_number	1
_symmetry_cell_setting	triclinic
loop_
_symmetry_equiv_pos_as_xyz
  x,y,z
_cell_length_a	23.532407
_cell_length_b	23.532407
_cell_length_c	22.610064
_cell_angle_alpha	89.997161
_cell_angle_beta	89.999397
_cell_angle_gamma	82.848678
loop_
_atom_site_label
_atom_site_type_symbol
_atom_site_fract_x
_atom_site_fract_y
_atom_site_fract_z
O1	O	0.069127	0.755263	-0.049117
O2	O	0.079130	0.589400	-0.049135
O3	O	-0.008803	0.677333	-0.049114
O4	O	0.157060	0.667330	-0.049137
O5	O	-0.008790	0.677318	0.049255
O6	O	0.079143	0.589385	0.049234
O7	O	0.069140	0.755248	0.049252
Zn8	Zn	0.074144	0.672314	0.064862
Zn9	Zn	0.074127	0.672334	-0.064744
O10	O	0.157073	0.667315	0.049232
C11	C	0.078882	0.568176	0.000048
C12	C	0.078116	0.504959	0.000041
C13	C	0.125350	0.105856	0.000061
C14	C	0.124638	0.046456	0.000065
O15	O	0.168424	0.009711	0.000081
N16	N	0.072362	0.023830	0.000071
C17	C	0.020794	0.060607	0.000080
O18	O	-0.023737	0.035908	0.000086
C19	C	0.021506	0.120006	0.000080
C20	C	0.073785	0.142629	0.000068
C21	C	0.177625	0.128479	0.000050
C22	C	0.178336	0.187876	0.000045
C23	C	0.126772	0.224649	0.000052
C24	C	0.074497	0.202025	0.000063
C25	C	-0.030062	0.156783	0.000093
C26	C	-0.029345	0.216185	0.000094
C27	C	0.022934	0.238808	0.000082
C28	C	0.023643	0.298194	0.000065
N29	N	0.075920	0.320820	0.000059
C30	C	0.127484	0.284048	0.000052
C31	C	0.019302	-0.064135	0.000080
C32	C	0.018589	-0.123533	0.000075
C33	C	0.122434	-0.137680	0.000061
C34	C	0.123146	-0.078281	0.000062
C35	C	0.071578	-0.041509	0.000074
C36	C	0.128974	0.408784	0.000042
C37	C	0.129680	0.468186	0.000034
C38	C	0.025836	0.482329	0.000051
C39	C	0.025129	0.422932	0.000055
C40	C	0.076702	0.386160	0.000052
O41	O	-0.020119	0.334974	0.000052
O42	O	0.172007	0.308755	0.000054
C43	C	-0.030013	0.677071	0.000072
C44	C	-0.093230	0.676305	0.000076
C45	C	-0.492333	0.723539	0.000049
C46	C	-0.551733	0.722827	0.000044
O47	O	-0.588478	0.766613	0.000027
N48	N	-0.574359	0.670551	0.000039
C49	C	-0.537582	0.618983	0.000032
O50	O	-0.562281	0.574452	0.000027
C51	C	-0.478182	0.619695	0.000033
C52	C	-0.455560	0.671974	0.000044
C53	C	-0.469710	0.775814	0.000060
C54	C	-0.410313	0.776525	0.000065
C55	C	-0.373540	0.724961	0.000060
C56	C	-0.396164	0.672685	0.000050
C57	C	-0.441406	0.568127	0.000022
C58	C	-0.382004	0.568844	0.000021
C59	C	-0.359381	0.621123	0.000033
C60	C	-0.299995	0.621832	0.000050
N61	N	-0.277368	0.674109	0.000056
C62	C	-0.314141	0.725673	0.000061
C63	C	-0.662324	0.617491	0.000031
C64	C	-0.721722	0.616778	0.000034
C65	C	-0.735869	0.720623	0.000045
C66	C	-0.676470	0.721335	0.000046
C67	C	-0.639698	0.669767	0.000036
C68	C	-0.189405	0.727163	0.000073
C69	C	-0.130003	0.727869	0.000081
C70	C	-0.115860	0.624025	0.000067
C71	C	-0.175257	0.623318	0.000062
C72	C	-0.212029	0.674891	0.000063
O73	O	-0.263215	0.578070	0.000065
O74	O	-0.289433	0.770196	0.000058
C75	C	0.178283	0.667577	0.000045
C76	C	0.241500	0.668343	0.000036
C77	C	0.069388	0.776472	0.000069
C78	C	0.070154	0.839689	0.000071
N79	N	0.074155	0.672304	0.153314
N80	N	0.074111	0.672349	-0.153196
C81	C	0.035196	0.711273	0.561965
C82	C	0.035192	0.711276	0.623884
O83	O	0.002076	0.744384	0.655911
N84	N	0.074115	0.672334	0.654851
C85	C	0.113041	0.633383	0.623895
O86	O	0.146147	0.600259	0.655920
C87	C	0.113042	0.633377	0.561976
C88	C	0.074120	0.672326	0.531013
C89	C	-0.003724	0.750218	0.531001
C90	C	-0.003719	0.750215	0.469085
C91	C	0.035206	0.711268	0.438133
C92	C	0.074125	0.672323	0.469097
C93	C	0.151965	0.594424	0.531021
C94	C	0.151962	0.594422	0.469098
C95	C	0.113040	0.633370	0.438134
C96	C	0.113054	0.633374	0.376229
N97	N	0.074131	0.672316	0.345262
C98	C	0.035207	0.711263	0.376214
C99	C	0.113035	0.633396	0.753928
C100	C	0.113037	0.633403	0.815846
C101	C	0.035187	0.711296	0.815831
C102	C	0.035188	0.711291	0.753913
C103	C	0.074112	0.672338	0.722962
C104	C	0.035220	0.711255	0.246187
C105	C	0.035230	0.711251	0.184266
C106	C	0.113078	0.633357	0.184286
C107	C	0.113071	0.633363	0.246202
C108	C	0.074137	0.672314	0.277151
O109	O	0.146152	0.600281	0.344163
O110	O	0.002101	0.744376	0.344182
H111	H	-0.071339	0.246123	0.000104
H112	H	-0.765821	0.762610	0.000047
C113	C	-0.509723	0.831743	0.000036
C114	C	-0.566589	0.819945	0.000020
C115	C	-0.603461	0.871457	-0.000006
H116	H	-0.502964	0.853226	0.034334
H117	H	-0.502925	0.853203	-0.034278
H118	H	-0.573384	0.798495	0.034330
H119	H	-0.573367	0.798471	-0.034275
H120	H	-0.596663	0.892916	-0.034319
H121	H	-0.596697	0.892936	0.034293
H122	H	-0.642049	0.863459	-0.000022
H123	H	0.183658	0.562709	0.556223
H124	H	0.164421	-0.167632	0.000059
C125	C	-0.385646	0.833229	0.000097
C126	C	-0.325755	0.822828	0.000110
C127	C	-0.303017	0.875052	0.000144
H128	H	-0.398229	0.854488	-0.034197
H129	H	-0.398258	0.854448	0.034414
H130	H	-0.313148	0.801617	-0.034203
H131	H	-0.313157	0.801577	0.034402
H132	H	-0.315630	0.896271	0.034461
H133	H	-0.315605	0.896307	-0.034151
H134	H	-0.262380	0.868002	0.000158
C135	C	0.186487	0.492665	-0.000070
C136	C	0.217636	0.473931	-0.050675
C137	C	0.269970	0.496460	-0.050787
H138	H	0.179614	0.533306	-0.000104
H139	H	0.207739	0.480005	0.034213
H140	H	0.196389	0.486595	-0.084949
H141	H	0.224524	0.433293	-0.050652
H142	H	0.291222	0.483799	-0.016504
H143	H	0.263091	0.537100	-0.050819
H144	H	0.291113	0.483748	-0.085119
H145	H	-0.632386	0.575496	0.000028
C146	C	0.184924	0.368800	-0.000059
C147	C	0.187537	0.334278	-0.050659
C148	C	0.239066	0.297433	-0.050772
H149	H	0.216203	0.390716	-0.000098
H150	H	0.186821	0.345299	0.034228
H151	H	0.185646	0.357776	-0.084937
H152	H	0.156270	0.312350	-0.050631
H153	H	0.240963	0.273931	-0.016486
H154	H	0.270340	0.319353	-0.050810
H155	H	0.240843	0.274001	-0.085101
H156	H	0.144770	0.601653	0.271413
H157	H	-0.658056	0.763906	0.000054
C158	C	-0.046157	0.792431	0.435602
C159	C	-0.102018	0.783408	0.450778
C160	C	-0.141168	0.822281	0.419987
H161	H	-0.040270	0.830429	0.445753
H162	H	-0.040714	0.786916	0.394266
H163	H	-0.107459	0.788928	0.492104
H164	H	-0.107923	0.745417	0.440626
H165	H	-0.135725	0.816766	0.378652
H166	H	-0.135276	0.860276	0.430140
H167	H	-0.179074	0.816160	0.430276
H168	H	0.003516	0.742973	0.271379
H169	H	-0.035423	0.781933	0.556197
C170	C	-0.031689	0.398477	0.000090
C171	C	-0.076694	0.443398	0.000105
C172	C	-0.129044	0.420897	0.000150
H173	H	-0.034211	0.375606	-0.034200
H174	H	-0.034154	0.375619	0.034411
H175	H	-0.074231	0.466247	-0.034212
H176	H	-0.074192	0.466273	0.034393
H177	H	-0.131508	0.398039	0.034471
H178	H	-0.131560	0.398026	-0.034141
H179	H	-0.159586	0.451372	0.000166
H180	H	-0.219337	0.769159	0.000071
H181	H	0.003494	0.743005	0.728706
C182	C	-0.038231	-0.147980	0.000111
C183	C	-0.083232	-0.103055	0.000130
C184	C	-0.135584	-0.125551	0.000174
H185	H	-0.040755	-0.170848	-0.034181
H186	H	-0.040696	-0.170840	0.034430
H187	H	-0.080767	-0.080205	-0.034186
H188	H	-0.080726	-0.080183	0.034419
H189	H	-0.138050	-0.148411	0.034494
H190	H	-0.138103	-0.148419	-0.034118
H191	H	-0.166124	-0.095074	0.000193
H192	H	0.183658	0.562700	0.443901
H193	H	-0.740136	0.574207	0.000035
H194	H	-0.459814	0.525555	0.000009
C195	C	-0.036647	-0.024146	-0.000011
C196	C	-0.039274	0.010380	-0.050613
C197	C	-0.090801	0.047226	-0.050713
H198	H	-0.067927	-0.046061	-0.000039
H199	H	-0.038534	-0.000647	0.034274
H200	H	-0.037392	-0.013116	-0.084889
H201	H	-0.008006	0.032307	-0.050596
H202	H	-0.092688	0.070725	-0.016427
H203	H	-0.122077	0.025306	-0.050739
H204	H	-0.092588	0.070660	-0.085042
C205	C	-0.007144	0.753488	0.849475
C206	C	-0.041861	0.723347	0.885012
C207	C	-0.080865	0.762192	0.916007
H208	H	0.013154	0.777093	0.873677
H209	H	-0.030360	0.776675	0.822187
H210	H	-0.018647	0.700170	0.912296
H211	H	-0.062172	0.699744	0.860824
H212	H	-0.104081	0.785379	0.888720
H213	H	-0.060562	0.785796	0.940206
H214	H	-0.104428	0.741747	0.940119
H215	H	0.144772	0.601648	0.159075
C216	C	0.155365	0.591211	0.849491
C217	C	0.190086	0.621345	0.885027
C218	C	0.229088	0.582493	0.916020
H219	H	0.135065	0.567605	0.873694
H220	H	0.178578	0.568025	0.822202
H221	H	0.166875	0.644521	0.912312
H222	H	0.210399	0.644948	0.860838
H223	H	0.252302	0.559307	0.888731
H224	H	0.208783	0.558889	0.940220
H225	H	0.252654	0.602933	0.940130
C226	C	-0.086883	0.132343	0.000143
C227	C	-0.131881	0.177271	0.000170
C228	C	-0.184236	0.154780	0.000226
H229	H	-0.089417	0.109475	-0.034148
H230	H	-0.089344	0.109483	0.034464
H231	H	-0.129421	0.200121	-0.034147
H232	H	-0.129366	0.200142	0.034458
H233	H	-0.186697	0.131921	0.034547
H234	H	-0.186763	0.131912	-0.034065
H235	H	-0.214773	0.185260	0.000250
C236	C	0.155369	0.591082	0.720434
C237	C	0.189463	0.556994	0.760812
C238	C	0.228471	0.518013	0.729983
H239	H	0.135075	0.567432	0.696280
H240	H	0.179007	0.611416	0.696291
H241	H	0.165828	0.536661	0.784945
H242	H	0.209770	0.580628	0.784968
H243	H	0.252109	0.538347	0.705840
H244	H	0.208172	0.494368	0.705829
H245	H	0.251612	0.494884	0.757374
H246	H	-0.352066	0.526850	0.000013
C247	C	-0.199903	0.566601	-0.000037
C248	C	-0.233595	0.563174	-0.050645
C249	C	-0.256310	0.510938	-0.050758
H250	H	-0.169553	0.535943	-0.000067
H251	H	-0.222818	0.564154	0.034244
H252	H	-0.210681	0.565615	-0.084917
H253	H	-0.263954	0.593820	-0.050625
H254	H	-0.279226	0.508491	-0.016477
H255	H	-0.225957	0.480284	-0.050787
H256	H	-0.279177	0.508608	-0.085092
H257	H	0.003535	0.742969	0.159057
C258	C	0.235053	0.212517	0.000120
C259	C	0.238504	0.246218	0.050715
C260	C	0.290741	0.268932	0.050797
H261	H	0.265710	0.182167	0.000144
H262	H	0.237485	0.235426	-0.034170
H263	H	0.236077	0.223311	0.084996
H264	H	0.207859	0.276578	0.050701
H265	H	0.293173	0.291840	0.016508
H266	H	0.321394	0.238578	0.050820
H267	H	0.293087	0.291805	0.085123
C268	C	0.233676	0.088655	0.000009
C269	C	0.279602	0.121193	-0.000015
C270	C	0.331248	0.084531	-0.000066
H271	H	0.235652	0.065170	0.034301
H272	H	0.235585	0.065202	-0.034310
H273	H	0.277693	0.144636	0.034301
H274	H	0.277645	0.144676	-0.034305
H275	H	0.333157	0.061078	-0.034385
H276	H	0.333218	0.061048	0.034227
H277	H	0.362414	0.106603	-0.000088
C278	C	0.179966	-0.053833	0.000084
C279	C	0.224967	-0.098758	0.000090
C280	C	0.277319	-0.076262	0.000120
H281	H	0.182482	-0.030961	-0.034210
H282	H	0.182440	-0.030977	0.034402
H283	H	0.222494	-0.121604	-0.034225
H284	H	0.222470	-0.121634	0.034381
H285	H	0.279794	-0.053406	0.034438
H286	H	0.279829	-0.053390	-0.034174
H287	H	0.307859	-0.106739	0.000130
H288	H	-0.016146	0.512280	0.000054
H289	H	-0.111587	0.770443	0.000092
H290	H	-0.085909	0.582043	0.000065
