data_functionalizedCrystal
_audit_creation_method	'MofGen! by Chris Wilmer'
_symmetry_space_group_name_H-M	'P1'
_symmetry_Int_Tables_number	1
_symmetry_cell_setting	triclinic
loop_
_symmetry_equiv_pos_as_xyz
  x,y,z
_cell_length_a	18.215407
_cell_length_b	18.101395
_cell_length_c	18.215399
_cell_angle_alpha	89.971163
_cell_angle_beta	89.983176
_cell_angle_gamma	90.031552
loop_
_atom_site_label
_atom_site_type_symbol
_atom_site_fract_x
_atom_site_fract_y
_atom_site_fract_z
Zn1	Zn	1.125018	-0.294811	-0.416124
Zn2	Zn	1.625018	0.205189	0.083876
Zn3	Zn	1.124920	-0.418662	-0.293061
Zn4	Zn	1.624920	0.081338	0.206939
Zn5	Zn	1.001957	-0.294840	-0.293071
Zn6	Zn	1.501957	0.205160	0.206929
Zn7	Zn	1.001903	-0.418616	-0.416086
Zn8	Zn	1.501903	0.081384	0.083914
O9	O	1.063450	-0.356732	-0.354585
O10	O	1.563450	0.143268	0.145415
O11	O	1.227989	-0.311247	-0.399811
O12	O	1.727989	0.188753	0.100189
O13	O	1.108590	-0.402269	-0.190078
O14	O	1.608590	0.097731	0.309922
O15	O	1.018345	-0.191203	-0.309415
O16	O	1.518345	0.308797	0.190585
O17	O	1.227917	-0.402240	-0.309397
O18	O	1.727917	0.097760	0.190603
O19	O	1.108758	-0.191182	-0.399821
O20	O	1.608758	0.308818	0.100179
O21	O	1.018250	-0.311297	-0.190085
O22	O	1.518250	0.188703	0.309915
O23	O	0.898966	-0.311252	-0.309378
O24	O	1.398966	0.188748	0.190622
O25	O	1.018254	-0.402161	-0.519075
O26	O	1.518254	0.097839	-0.019075
O27	O	0.898926	-0.402190	-0.399756
O28	O	1.398926	0.097810	0.100244
O29	O	1.108706	-0.311202	-0.519103
O30	O	1.608706	0.188798	-0.019103
O31	O	1.108538	-0.522289	-0.309360
O32	O	1.608538	-0.022289	0.190640
O33	O	1.018158	-0.522255	-0.399746
O34	O	1.518158	-0.022255	0.100254
C35	C	0.872243	-0.356720	-0.354564
C36	C	1.372243	0.143280	0.145436
C37	C	0.790445	-0.356732	-0.354573
C38	C	1.290445	0.143268	0.145427
C39	C	0.602249	-0.404158	-0.401573
C40	C	1.102249	0.095842	0.098427
C41	C	0.525391	-0.404160	-0.401583
C42	C	1.025391	0.095840	0.098417
C43	C	0.525402	-0.309320	-0.307613
C44	C	1.025402	0.190680	0.192387
C45	C	0.602260	-0.309315	-0.307608
C46	C	1.102260	0.190685	0.192392
C47	C	0.640681	-0.356738	-0.354587
C48	C	1.140681	0.143262	0.145413
C49	C	0.486965	-0.356746	-0.354601
C50	C	0.986965	0.143254	0.145399
C51	C	0.403631	-0.356748	-0.354611
C52	C	0.903631	0.143252	0.145389
C53	C	0.724020	-0.356735	-0.354579
C54	C	1.224020	0.143265	0.145421
C55	C	1.063351	-0.549143	-0.354564
C56	C	1.563351	-0.049143	0.145436
C57	C	1.063376	-0.631457	-0.354579
C58	C	1.563376	-0.131457	0.145421
C59	C	1.063538	-0.930548	-0.354619
C60	C	1.563538	-0.430548	0.145381
C61	C	1.006805	-0.899232	-0.411628
C62	C	1.506805	-0.399232	0.088372
C63	C	1.006536	-0.813614	-0.411450
C64	C	1.506536	-0.313614	0.088550
C65	C	1.063458	-0.782165	-0.354600
C66	C	1.563458	-0.282165	0.145400
C67	C	1.042464	-0.813319	-0.277038
C68	C	1.542464	-0.313319	0.222962
C69	C	1.042098	-0.898964	-0.277380
C70	C	1.542098	-0.398964	0.222620
C71	C	1.141388	-0.898890	-0.374487
C72	C	1.641388	-0.398890	0.125513
C73	C	1.140931	-0.813239	-0.376188
C74	C	1.640931	-0.313239	0.123812
C75	C	1.063414	-0.698306	-0.354584
C76	C	1.563414	-0.198306	0.145416
C77	C	1.063580	-1.014407	-0.354629
C78	C	1.563580	-0.514407	0.145371
C79	C	1.255403	-0.356746	-0.354607
C80	C	1.755403	0.143254	0.145393
C81	C	1.337201	-0.356751	-0.354616
C82	C	1.837201	0.143249	0.145384
C83	C	1.063484	-0.356673	-0.546538
C84	C	1.563484	0.143327	-0.046538
C85	C	1.063499	-0.356648	-0.628337
C86	C	1.563499	0.143352	-0.128337
C87	C	1.063569	-0.163570	-0.354623
C88	C	1.563569	0.336430	0.145377
C89	C	1.063619	-0.081256	-0.354639
C90	C	1.563619	0.418744	0.145361
C91	C	1.016499	-0.309247	-0.816536
C92	C	1.516499	0.190753	-0.316536
C93	C	1.016512	-0.309232	-0.893395
C94	C	1.516512	0.190768	-0.393395
C95	C	1.110588	-0.403961	-0.893376
C96	C	1.610588	0.096039	-0.393376
C97	C	1.110571	-0.403979	-0.816519
C98	C	1.610571	0.096021	-0.316519
C99	C	1.063527	-0.356618	-0.778101
C100	C	1.563527	0.143382	-0.278101
C101	C	1.063557	-0.356585	-0.931817
C102	C	1.563557	0.143415	-0.431817
C103	C	1.063571	-0.356569	-1.015151
C104	C	1.563571	0.143431	-0.515151
C105	C	1.063512	-0.356634	-0.694762
C106	C	1.563512	0.143366	-0.194762
C107	C	1.063457	-0.356738	-0.163379
C108	C	1.563457	0.143262	0.336621
C109	C	1.063585	-0.356554	-0.081580
C110	C	1.563585	0.143446	0.418420
H111	H	1.019670	-0.792548	-0.468960
H112	H	1.519670	-0.292548	0.031040
H113	H	1.148889	-0.442520	-0.924666
H114	H	1.648889	0.057480	-0.424666
H115	H	0.978216	-0.270659	-0.924685
H116	H	1.478216	0.229341	-0.424685
N117	N	0.483956	-0.258194	-0.256929
N118	N	0.983956	0.241806	0.243071
H119	H	0.452085	-0.223913	-0.286885
H120	H	0.952085	0.276087	0.213115
H121	H	0.452093	-0.288322	-0.222793
H122	H	0.952093	0.211678	0.277207
H123	H	0.633552	-0.270695	-0.269346
H124	H	1.133552	0.229305	0.230654
N125	N	1.024019	-0.926449	-0.488057
N126	N	1.524019	-0.426449	0.011943
H127	H	1.068759	-0.959345	-0.486472
H128	H	1.568759	-0.459345	0.013528
H129	H	0.980804	-0.955342	-0.507615
H130	H	1.480804	-0.455342	-0.007615
H131	H	0.633530	-0.442771	-0.439829
H132	H	1.133530	0.057229	0.060171
N133	N	0.483938	-0.455309	-0.452257
N134	N	0.983938	0.044691	0.047743
H135	H	0.519943	-0.485349	-0.482014
H136	H	1.019943	0.014651	0.017986
H137	H	0.452023	-0.489543	-0.422240
H138	H	0.952023	0.010457	0.077760
N139	N	0.966718	-0.925516	-0.255084
N140	N	1.466718	-0.425516	0.244916
H141	H	0.929065	-0.906269	-0.291000
H142	H	1.429065	-0.406269	0.209000
H143	H	0.965791	-0.981303	-0.255074
H144	H	1.465791	-0.481303	0.244926
N145	N	1.199891	-0.784894	-0.325196
N146	N	1.699891	-0.284894	0.174804
H147	H	1.237634	-0.756394	-0.354358
H148	H	1.737634	-0.256394	0.145642
H149	H	1.177060	-0.751387	-0.287215
H150	H	1.677060	-0.251387	0.212785
H151	H	1.148868	-0.442556	-0.785224
H152	H	1.648868	0.057444	-0.285224
N153	N	0.930831	-0.927821	-0.394420
N154	N	1.430831	-0.427821	0.105580
H155	H	0.933002	-0.960969	-0.349857
H156	H	1.433002	-0.460969	0.150143
H157	H	0.897046	-0.884815	-0.384198
H158	H	1.397046	-0.384815	0.115802
H159	H	0.948831	-0.793192	-0.398289
H160	H	1.448831	-0.293192	0.101711
N161	N	1.197377	-0.925717	-0.319490
N162	N	1.697377	-0.425717	0.180510
H163	H	1.236650	-0.954968	-0.345675
H164	H	1.736650	-0.454968	0.154325
H165	H	1.220457	-0.881907	-0.294077
H166	H	1.720457	-0.381907	0.205923
N167	N	1.094444	-0.926428	-0.219194
N168	N	1.594444	-0.426428	0.280806
H169	H	1.145547	-0.907720	-0.230094
H170	H	1.645547	-0.407720	0.269906
H171	H	1.078181	-0.907732	-0.169557
H172	H	1.578181	-0.407732	0.330443
N173	N	1.095472	-0.786343	-0.219233
N174	N	1.595472	-0.286343	0.280767
H175	H	1.133696	-0.753588	-0.242824
H176	H	1.633696	-0.253588	0.257176
H177	H	1.067816	-0.757360	-0.180784
H178	H	1.567816	-0.257360	0.319216
N179	N	0.967883	-0.784997	-0.254336
N180	N	1.467883	-0.284997	0.245664
H181	H	0.947588	-0.751995	-0.294174
H182	H	1.447588	-0.251995	0.205826
H183	H	0.933597	-0.828130	-0.246366
H184	H	1.433597	-0.328130	0.253634
N185	N	1.166760	-0.927429	-0.448121
N186	N	1.666760	-0.427429	0.051879
H187	H	1.130753	-0.911855	-0.487333
H188	H	1.630753	-0.411855	0.012667
H189	H	1.216817	-0.906418	-0.459708
H190	H	1.716817	-0.406418	0.040292
N191	N	1.161909	-0.786267	-0.451796
N192	N	1.661909	-0.286267	0.048204
H193	H	1.121405	-0.754051	-0.471986
H194	H	1.621405	-0.254051	0.028014
H195	H	1.208851	-0.756721	-0.448636
H196	H	1.708851	-0.256721	0.051364
N197	N	0.965764	-0.258166	-0.775098
N198	N	1.465764	0.241834	-0.275098
H199	H	0.935974	-0.228155	-0.811112
H200	H	1.435974	0.271845	-0.311112
H201	H	0.931682	-0.288315	-0.743196
H202	H	1.431682	0.211685	-0.243196
