data_functionalizedCrystal
_audit_creation_method	'MofGen! by Chris Wilmer'
_symmetry_space_group_name_H-M	'P1'
_symmetry_Int_Tables_number	1
_symmetry_cell_setting	triclinic
loop_
_symmetry_equiv_pos_as_xyz
  x,y,z
_cell_length_a	14.519709
_cell_length_b	23.532357
_cell_length_c	13.596369
_cell_angle_alpha	89.988481
_cell_angle_beta	90.000291
_cell_angle_gamma	83.254219
loop_
_atom_site_label
_atom_site_type_symbol
_atom_site_fract_x
_atom_site_fract_y
_atom_site_fract_z
O1	O	1.222963	0.074656	-0.081676
O2	O	1.556297	0.407989	0.251658
O3	O	1.889630	0.741322	0.584991
O4	O	0.954380	0.083447	-0.081707
O5	O	1.287713	0.416781	0.251626
O6	O	1.621047	0.750114	0.584959
O7	O	1.096795	-0.003846	-0.081670
O8	O	1.430128	0.329488	0.251663
O9	O	1.763462	0.662821	0.584996
O10	O	1.080549	0.161948	-0.081713
O11	O	1.413882	0.495282	0.251621
O12	O	1.747215	0.828615	0.584954
O13	O	1.096781	-0.003850	0.081912
O14	O	1.430114	0.329483	0.415246
O15	O	1.763447	0.662816	0.748579
O16	O	0.954366	0.083443	0.081876
O17	O	1.287699	0.416776	0.415209
O18	O	1.621033	0.750109	0.748542
O19	O	1.222949	0.074651	0.081907
O20	O	1.556283	0.407984	0.415240
O21	O	1.889616	0.741318	0.748574
Zn22	Zn	1.088655	0.079046	0.107864
Zn23	Zn	1.421989	0.412379	0.441197
Zn24	Zn	1.755322	0.745713	0.774530
Zn25	Zn	1.088674	0.079052	-0.107664
Zn26	Zn	1.422007	0.412385	0.225669
Zn27	Zn	1.755341	0.745719	0.559003
O28	O	1.080535	0.161944	0.081870
O29	O	1.413868	0.495277	0.415203
O30	O	1.747201	0.828611	0.748537
C31	C	0.920018	0.083035	0.000080
C32	C	1.253352	0.416368	0.333414
C33	C	1.586685	0.749702	0.666747
C34	C	0.817652	0.081807	0.000069
C35	C	1.150985	0.415141	0.333403
C36	C	1.484318	0.748474	0.666736
C37	C	1.096382	-0.025066	0.000124
C38	C	1.429715	0.308267	0.333457
C39	C	1.763048	0.641600	0.666791
C40	C	1.095160	-0.088290	0.000133
C41	C	1.428493	0.245043	0.333466
C42	C	1.761826	0.578376	0.666800
C43	C	0.442811	0.077287	0.000115
C44	C	0.776144	0.410621	0.333448
C45	C	1.109477	0.743954	0.666782
C46	C	0.547104	0.078543	0.000102
C47	C	0.880437	0.411876	0.333435
C48	C	1.213770	0.745209	0.666769
C49	C	0.630228	0.079547	0.000091
C50	C	0.963561	0.412881	0.333425
C51	C	1.296895	0.746214	0.666758
C52	C	0.734527	0.080803	0.000080
C53	C	1.067861	0.414136	0.333413
C54	C	1.401194	0.747469	0.666747
C55	C	1.087497	-0.480334	-0.089090
C56	C	1.420831	-0.147001	0.244243
C57	C	1.754164	0.186333	0.577577
C58	C	1.086336	-0.539739	-0.089096
C59	C	1.419669	-0.206405	0.244238
C60	C	1.753002	0.126928	0.577571
O61	O	1.085710	-0.570456	-0.164931
O62	O	1.419044	-0.237122	0.168403
O63	O	1.752377	0.096211	0.501736
N64	N	1.085752	-0.569455	0.000072
N65	N	1.419086	-0.236122	0.333405
N66	N	1.752419	0.097212	0.666739
C67	C	1.086321	-0.539763	0.089251
C68	C	1.419654	-0.206429	0.422585
C69	C	1.752987	0.126904	0.755918
O70	O	1.085717	-0.570493	0.165095
O71	O	1.419050	-0.237160	0.498428
O72	O	1.752383	0.096173	0.831762
C73	C	1.087475	-0.480359	0.089256
C74	C	1.420809	-0.147025	0.422589
C75	C	1.754142	0.186308	0.755923
C76	C	1.088068	-0.450646	0.000083
C77	C	1.421402	-0.117313	0.333416
C78	C	1.754735	0.216021	0.666749
C79	C	1.088089	-0.450621	-0.178256
C80	C	1.421422	-0.117288	0.155077
C81	C	1.754756	0.216045	0.488410
C82	C	1.089252	-0.391221	-0.178250
C83	C	1.422586	-0.057887	0.155083
C84	C	1.755919	0.275446	0.488417
C85	C	1.089823	-0.361533	-0.089078
C86	C	1.423157	-0.028200	0.244256
C87	C	1.756490	0.305134	0.577589
C88	C	1.089232	-0.391246	0.000089
C89	C	1.422565	-0.057912	0.333422
C90	C	1.755898	0.275421	0.666755
C91	C	1.088037	-0.450667	0.178434
C92	C	1.421371	-0.117334	0.511768
C93	C	1.754704	0.216000	0.845101
C94	C	1.089191	-0.391259	0.178431
C95	C	1.422525	-0.057925	0.511765
C96	C	1.755858	0.275408	0.845098
C97	C	1.089784	-0.361546	0.089258
C98	C	1.423118	-0.028213	0.422591
C99	C	1.756451	0.305121	0.755925
C100	C	1.090966	-0.302157	0.089267
C101	C	1.424299	0.031176	0.422601
C102	C	1.757632	0.364509	0.755934
N103	N	1.091549	-0.272441	0.000099
N104	N	1.424883	0.060892	0.333433
N105	N	1.758216	0.394226	0.666766
C106	C	1.090978	-0.302129	-0.089073
C107	C	1.424311	0.031205	0.244260
C108	C	1.757645	0.364538	0.577594
C109	C	1.083894	-0.664515	0.089235
C110	C	1.417227	-0.331182	0.422568
C111	C	1.750561	0.002151	0.755901
C112	C	1.082746	-0.723919	0.089231
C113	C	1.416079	-0.390585	0.422564
C114	C	1.749413	-0.057252	0.755898
C115	C	1.082759	-0.723890	-0.089116
C116	C	1.416093	-0.390557	0.244217
C117	C	1.749426	-0.057224	0.577550
C118	C	1.083914	-0.664486	-0.089112
C119	C	1.417247	-0.331153	0.244222
C120	C	1.750581	0.002180	0.577555
C121	C	1.084478	-0.634799	0.000067
C122	C	1.417811	-0.301466	0.333400
C123	C	1.751144	0.031868	0.666734
C124	C	1.093422	-0.177384	-0.089053
C125	C	1.426755	0.155950	0.244280
C126	C	1.760088	0.489283	0.577613
C127	C	1.094589	-0.117978	-0.089039
C128	C	1.427922	0.215355	0.244294
C129	C	1.761255	0.548688	0.577627
C130	C	1.094570	-0.118011	0.089307
C131	C	1.427903	0.215322	0.422641
C132	C	1.761237	0.548655	0.755974
C133	C	1.093408	-0.177412	0.089294
C134	C	1.426741	0.155921	0.422627
C135	C	1.760075	0.489255	0.755961
C136	C	1.092831	-0.207096	0.000106
C137	C	1.426164	0.126237	0.333439
C138	C	1.759497	0.459570	0.666772
O139	O	1.091588	-0.271402	0.165063
O140	O	1.424921	0.061931	0.498397
O141	O	1.758255	0.395264	0.831730
O142	O	1.091570	-0.271390	-0.164904
O143	O	1.424903	0.061943	0.168430
O144	O	1.758237	0.395277	0.501763
C145	C	1.257311	0.075063	0.000117
C146	C	1.590645	0.408396	0.333451
C147	C	1.923978	0.741730	0.666784
C148	C	1.359678	0.076291	0.000122
C149	C	1.693011	0.409624	0.333455
C150	C	2.026344	0.742957	0.666789
C151	C	1.080948	0.183165	0.000073
C152	C	1.414281	0.516498	0.333407
C153	C	1.747615	0.849831	0.666740
C154	C	1.082170	0.246389	0.000058
C155	C	1.415503	0.579722	0.333391
C156	C	1.748836	0.913055	0.666725
N157	N	1.088650	0.079042	0.254955
N158	N	1.421983	0.412375	0.588289
N159	N	1.755316	0.745708	0.921622
N160	N	1.088687	0.079052	-0.254756
N161	N	1.422021	0.412385	0.078578
N162	N	1.755354	0.745719	0.411911
C163	C	1.088673	0.079053	0.656246
C164	C	1.422006	0.412386	0.989580
C165	C	1.755339	0.745719	1.322913
C166	C	1.088664	0.079052	0.544595
C167	C	1.421997	0.412385	0.877928
C168	C	1.755330	0.745718	1.211262
C169	C	1.088662	0.079048	0.455604
C170	C	1.421995	0.412381	0.788938
C171	C	1.755328	0.745714	1.122271
C172	C	1.088652	0.079045	0.343946
C173	C	1.421985	0.412379	0.677279
C174	C	1.755318	0.745712	1.010613
H175	H	1.095073	-0.093789	-0.161658
H176	H	1.428407	0.239544	0.171675
H177	H	1.761740	0.572877	0.505008
H178	H	1.092934	-0.201606	0.161906
H179	H	1.426267	0.131727	0.495240
H180	H	1.759600	0.465061	0.828573
Br181	Br	1.092637	-0.217660	-0.210096
Br182	Br	1.425971	0.115673	0.123238
Br183	Br	1.759304	0.449006	0.456571
Br184	Br	1.090050	-0.350905	-0.299278
Br185	Br	1.423384	-0.017572	0.034055
Br186	Br	1.756717	0.315761	0.367389
H187	H	1.084356	-0.640348	0.161859
H188	H	1.417689	-0.307014	0.495193
H189	H	1.751022	0.026319	0.828526
Br190	Br	1.087313	-0.490901	-0.299293
Br191	Br	1.420646	-0.157567	0.034040
Br192	Br	1.753980	0.175766	0.367374
H193	H	1.082277	-0.748107	0.161845
H194	H	1.415610	-0.414773	0.495179
H195	H	1.748944	-0.081440	0.828512
Br196	Br	1.084718	-0.624168	-0.210137
Br197	Br	1.418052	-0.290835	0.123197
Br198	Br	1.751385	0.042498	0.456530
Br199	Br	1.087229	-0.490976	0.299464
Br200	Br	1.420562	-0.157642	0.632797
Br201	Br	1.753896	0.175691	0.966131
Br202	Br	1.095348	-0.077710	0.210322
Br203	Br	1.428681	0.255624	0.543655
Br204	Br	1.762015	0.588957	0.876988
Br205	Br	1.081979	-0.764192	-0.210138
Br206	Br	1.415312	-0.430859	0.123196
Br207	Br	1.748645	-0.097525	0.456529
H208	H	1.089637	-0.367089	0.251053
H209	H	1.422970	-0.033756	0.584387
H210	H	1.756303	0.299577	0.917720
