data_functionalizedCrystal
_audit_creation_method	'MofGen! by Chris Wilmer'
_symmetry_space_group_name_H-M	'P1'
_symmetry_Int_Tables_number	1
_symmetry_cell_setting	triclinic
loop_
_symmetry_equiv_pos_as_xyz
  x,y,z
_cell_length_a	16.625547
_cell_length_b	29.839132
_cell_length_c	16.625539
_cell_angle_alpha	89.965692
_cell_angle_beta	90.024822
_cell_angle_gamma	89.954800
loop_
_atom_site_label
_atom_site_type_symbol
_atom_site_fract_x
_atom_site_fract_y
_atom_site_fract_z
Zn1	Zn	1.232553	0.178853	0.455967
Zn2	Zn	1.732553	0.678853	0.955967
Zn3	Zn	1.232402	0.253984	0.321120
Zn4	Zn	1.732402	0.753984	0.821120
Zn5	Zn	1.097715	0.178869	0.321138
Zn6	Zn	1.597715	0.678869	0.821138
Zn7	Zn	1.097631	0.253957	0.455900
Zn8	Zn	1.597631	0.753957	0.955900
O9	O	1.165075	0.216416	0.388531
O10	O	1.665075	0.716416	0.888531
O11	O	1.345365	0.188824	0.438100
O12	O	1.845365	0.688824	0.938100
O13	O	1.214508	0.244038	0.208290
O14	O	1.714508	0.744038	0.708290
O15	O	1.115699	0.116000	0.339058
O16	O	1.615699	0.616000	0.839058
O17	O	1.345255	0.244023	0.339029
O18	O	1.845255	0.744023	0.839029
O19	O	1.214764	0.115988	0.438117
O20	O	1.714764	0.615988	0.938117
O21	O	1.115553	0.188851	0.208303
O22	O	1.615553	0.688851	0.708303
O23	O	0.984871	0.188825	0.338993
O24	O	1.484871	0.688825	0.838993
O25	O	1.115557	0.243976	0.568741
O26	O	1.615557	0.743976	1.068741
O27	O	0.984810	0.243991	0.438003
O28	O	1.484810	0.743991	0.938003
O29	O	1.214683	0.188798	0.568791
O30	O	1.714683	0.688798	1.068791
O31	O	1.214427	0.316848	0.338964
O32	O	1.714427	0.816848	0.838964
O33	O	1.115411	0.316828	0.437986
O34	O	1.615411	0.816828	0.937986
C35	C	0.955584	0.216407	0.388493
C36	C	1.455584	0.716407	0.888493
C37	C	0.865963	0.216414	0.388496
C38	C	1.365963	0.716414	0.888496
C39	C	0.793181	0.216415	0.388506
C40	C	1.293181	0.716415	0.888506
C41	C	0.701872	0.216417	0.388526
C42	C	1.201872	0.716417	0.888526
C43	C	0.629096	0.216422	0.388547
C44	C	1.129096	0.716422	0.888547
C45	C	0.537782	0.216425	0.388566
C46	C	1.037782	0.716425	0.888566
C47	C	1.164916	0.333138	0.388483
C48	C	1.664916	0.833138	0.888483
C49	C	1.164921	0.383073	0.388490
C50	C	1.664921	0.883073	0.888490
C51	C	1.216669	0.692714	0.337013
C52	C	1.716669	1.192714	0.837013
C53	C	1.216746	0.880387	0.337031
C54	C	1.716746	1.380387	0.837031
O55	O	1.260657	0.904650	0.293249
O56	O	1.760657	1.404650	0.793249
N57	N	1.165160	0.903858	0.388544
N58	N	1.665160	1.403858	0.888544
C59	C	1.113554	0.880408	0.440061
C60	C	1.613554	1.380408	0.940061
O61	O	1.069684	0.904677	0.483882
O62	O	1.569684	1.404677	0.983882
C63	C	1.113482	0.692735	0.440046
C64	C	1.613482	1.192735	0.940046
C65	C	1.165066	0.669267	0.388523
C66	C	1.665066	1.169267	0.888523
C67	C	1.268250	0.669246	0.285495
C68	C	1.768250	1.169246	0.785495
C69	C	1.268227	0.622330	0.285488
C70	C	1.768227	1.122330	0.785488
C71	C	1.216623	0.598883	0.336998
C72	C	1.716623	1.098883	0.836998
C73	C	1.165043	0.622352	0.388516
C74	C	1.665043	1.122352	0.888516
C75	C	1.061881	0.669286	0.491566
C76	C	1.561881	1.169286	0.991566
C77	C	1.061869	0.622365	0.491559
C78	C	1.561869	1.122365	0.991559
C79	C	1.113453	0.598897	0.440036
C80	C	1.613453	1.098897	0.940036
C81	C	1.113417	0.551989	0.440020
C82	C	1.613417	1.051989	0.940020
N83	N	1.165003	0.528518	0.388506
N84	N	1.665003	1.028518	0.888506
C85	C	1.216607	0.551965	0.336996
C86	C	1.716607	1.051965	0.836996
C87	C	1.113595	0.978938	0.440064
C88	C	1.613595	1.478938	0.940064
C89	C	1.113612	1.025856	0.440066
C90	C	1.613612	1.525856	0.940066
C91	C	1.216805	1.025832	0.337038
C92	C	1.716805	1.525832	0.837038
C93	C	1.216783	0.978914	0.337031
C94	C	1.716783	1.478914	0.837031
C95	C	1.165181	0.955467	0.388550
C96	C	1.665181	1.455467	0.888550
C97	C	1.216554	0.453439	0.336984
C98	C	1.716554	0.953439	0.836984
C99	C	1.216524	0.406520	0.336979
C100	C	1.716524	0.906520	0.836979
C101	C	1.113335	0.406548	0.440010
C102	C	1.613335	0.906548	0.940010
C103	C	1.113361	0.453463	0.440013
C104	C	1.613361	0.953463	0.940013
C105	C	1.164977	0.476908	0.388497
C106	C	1.664977	0.976908	0.888497
O107	O	1.069535	0.527697	0.483785
O108	O	1.569535	1.027697	0.983785
O109	O	1.260482	0.527688	0.293193
O110	O	1.760482	1.027688	0.793193
C111	C	1.216692	0.739629	0.337020
C112	C	1.716692	1.239629	0.837020
C113	C	1.165112	0.763098	0.388538
C114	C	1.665112	1.263098	0.888538
C115	C	1.113508	0.739651	0.440048
C116	C	1.613508	1.239651	0.940048
C117	C	1.165128	0.810016	0.388540
C118	C	1.665128	1.310016	0.888540
C119	C	1.216732	0.833463	0.337030
C120	C	1.716732	1.333463	0.837030
C121	C	1.268318	0.809992	0.285517
C122	C	1.768318	1.309992	0.785517
C123	C	1.268295	0.763076	0.285509
C124	C	1.768295	1.263076	0.785509
C125	C	1.061922	0.763122	0.491561
C126	C	1.561922	1.263122	0.991561
C127	C	1.061948	0.810037	0.491564
C128	C	1.561948	1.310037	0.991564
C129	C	1.113552	0.833484	0.440053
C130	C	1.613552	1.333484	0.940053
C131	C	1.375384	0.216425	0.388570
C132	C	1.875384	0.716425	0.888570
C133	C	1.465005	0.216429	0.388586
C134	C	1.965005	0.716429	0.888586
C135	C	1.165227	1.099237	0.388580
C136	C	1.665227	1.599237	0.888580
C137	C	1.165215	1.049303	0.388556
C138	C	1.665215	1.549303	0.888556
C139	C	1.165128	0.216382	0.598840
C140	C	1.665128	0.716382	1.098840
C141	C	1.165150	0.216368	0.688461
C142	C	1.665150	0.716368	1.188461
C143	C	1.165069	0.216417	0.179040
C144	C	1.665069	0.716417	0.679040
C145	C	1.165203	0.216304	0.089420
C146	C	1.665203	0.716304	0.589420
C147	C	1.165187	0.216318	1.016637
C148	C	1.665187	0.716318	1.516637
C149	C	1.165175	0.216333	0.925329
C150	C	1.665175	0.716333	1.425329
C151	C	1.165169	0.216343	0.852552
C152	C	1.665169	0.716343	1.352552
C153	C	1.165156	0.216358	0.761238
C154	C	1.665156	0.716358	1.261238
H155	H	1.258530	0.387413	0.295020
H156	H	1.758530	0.887413	0.795020
H157	H	1.071317	0.387450	0.481947
H158	H	1.571317	0.887450	0.981947
O159	O	1.323942	0.737770	0.229944
O160	O	1.823942	1.237770	0.729944
H161	H	1.364934	0.716357	0.266072
H162	H	1.864934	1.216357	0.766072
H163	H	1.258587	0.472523	0.295037
H164	H	1.758587	0.972523	0.795037
H165	H	1.310333	0.829091	0.243572
H166	H	1.810333	1.329091	0.743572
O167	O	1.057713	0.478782	0.495565
O168	O	1.557713	0.978782	0.995565
H169	H	1.093785	0.500123	0.536626
H170	H	1.593785	1.000123	1.036626
H171	H	1.310233	0.603225	0.243536
H172	H	1.810233	1.103225	0.743536
H173	H	1.019935	0.829141	0.533519
H174	H	1.519935	1.329141	1.033519
O175	O	1.006246	0.694588	0.547145
O176	O	1.506246	1.194588	1.047145
H177	H	0.965238	0.715999	0.511030
H178	H	1.465238	1.215999	1.011030
O179	O	1.057920	0.953659	0.495629
O180	O	1.557920	1.453659	0.995629
H181	H	1.093962	0.932251	0.536704
H182	H	1.593962	1.432251	1.036704
H183	H	1.019901	0.744035	0.533509
H184	H	1.519901	1.244035	1.033509
H185	H	1.258788	0.959808	0.295078
H186	H	1.758788	1.459808	0.795078
O187	O	1.323906	0.694532	0.229927
O188	O	1.823906	1.194532	0.729927
H189	H	1.359760	0.670323	0.194105
H190	H	1.859760	1.170323	0.694105
H191	H	1.071599	1.044960	0.482014
H192	H	1.571599	1.544960	0.982014
O193	O	1.272480	1.051125	0.281492
O194	O	1.772480	1.551125	0.781492
H195	H	1.263828	1.087692	0.290164
H196	H	1.763828	1.587692	0.790164
O197	O	1.006201	0.597075	0.547116
O198	O	1.506201	1.097075	1.047116
H199	H	0.970332	0.621280	0.582932
H200	H	1.470332	1.121280	1.082932
