data_functionalizedCrystal
_audit_creation_method	'MofGen! by Chris Wilmer'
_symmetry_space_group_name_H-M	'P1'
_symmetry_Int_Tables_number	1
_symmetry_cell_setting	triclinic
loop_
_symmetry_equiv_pos_as_xyz
  x,y,z
_cell_length_a	16.109301
_cell_length_b	11.792254
_cell_length_c	14.586319
_cell_angle_alpha	89.996031
_cell_angle_beta	89.998857
_cell_angle_gamma	83.830091
loop_
_atom_site_label
_atom_site_type_symbol
_atom_site_fract_x
_atom_site_fract_y
_atom_site_fract_z
O1	O	1.103822	0.145886	-0.076190
O2	O	1.603822	0.645886	0.423810
O3	O	0.861846	0.164041	-0.076203
O4	O	1.361846	0.664041	0.423797
O5	O	0.988701	-0.010258	-0.076190
O6	O	1.488701	0.489742	0.423810
O7	O	0.976968	0.320184	-0.076204
O8	O	1.476968	0.820184	0.423796
O9	O	0.988692	-0.010260	0.076291
O10	O	1.488692	0.489740	0.576291
O11	O	0.861837	0.164038	0.076278
O12	O	1.361837	0.664038	0.576278
O13	O	1.103813	0.145883	0.076290
O14	O	1.603813	0.645883	0.576290
Cu15	Cu	0.982824	0.154960	0.090207
Cu16	Cu	1.482824	0.654960	0.590207
Cu17	Cu	0.982835	0.154963	-0.090120
Cu18	Cu	1.482835	0.654963	0.409880
O19	O	0.976959	0.320182	0.076277
O20	O	1.476959	0.820182	0.576277
C21	C	0.830863	0.163304	0.000036
C22	C	1.330863	0.663304	0.500036
C23	C	0.738558	0.161099	0.000031
C24	C	1.238558	0.661099	0.500031
C25	C	0.430015	0.257316	0.000043
C26	C	0.930015	0.757316	0.500043
C27	C	0.516746	0.259399	0.000037
C28	C	1.016746	0.759399	0.500037
C29	C	0.535639	0.052599	0.000034
C30	C	1.035639	0.552599	0.500034
C31	C	0.448910	0.050518	0.000032
C32	C	0.948910	0.550518	0.500032
C33	C	0.396100	0.152880	0.000042
C34	C	0.896100	0.652880	0.500042
C35	C	0.569559	0.157044	0.000037
C36	C	1.069559	0.657044	0.500037
C37	C	0.663596	0.159300	0.000032
C38	C	1.163596	0.659300	0.500032
C39	C	0.302058	0.150623	0.000046
C40	C	0.802058	0.650623	0.500046
C41	C	0.987957	-0.052543	0.000050
C42	C	1.487957	0.447457	0.500050
C43	C	0.985745	-0.178537	0.000049
C44	C	1.485745	0.321463	0.500049
C45	C	0.983947	-0.280858	0.000046
C46	C	1.483947	0.219142	0.500046
C47	C	0.981700	-0.409225	0.000037
C48	C	1.481700	0.090775	0.500037
C49	C	1.134796	0.146620	0.000050
C50	C	1.634796	0.646620	0.500050
C51	C	1.227102	0.148825	0.000048
C52	C	1.727102	0.648825	0.500048
C53	C	0.977702	0.362467	0.000035
C54	C	1.477702	0.862467	0.500035
C55	C	0.979915	0.488461	0.000030
C56	C	1.479915	0.988461	0.500030
N57	N	0.982823	0.154957	0.217038
N58	N	1.482823	0.654957	0.717038
N59	N	0.982843	0.154957	-0.216951
N60	N	1.482843	0.654957	0.283049
C61	C	1.039013	0.077804	0.452051
C62	C	1.539013	0.577804	0.952051
C63	C	1.039016	0.077801	0.548032
C64	C	1.539016	0.577801	1.048032
C65	C	0.926647	0.232114	0.548030
C66	C	1.426647	0.732114	1.048030
C67	C	0.926641	0.232111	0.452050
C68	C	1.426641	0.732111	0.952050
C69	C	0.982829	0.154957	0.404063
C70	C	1.482829	0.654957	0.904063
C71	C	0.982837	0.154958	0.596024
C72	C	1.482837	0.654958	1.096024
C73	C	0.982839	0.154955	0.700091
C74	C	1.482839	0.654955	1.200091
C75	C	0.982826	0.154958	0.299989
C76	C	1.482826	0.654958	0.799989
H77	H	0.578647	-0.030740	0.000028
H78	H	1.078647	0.469260	0.500028
H79	H	0.880901	0.294933	0.587110
H80	H	1.380901	0.794933	1.087110
O81	O	0.412321	-0.062128	0.000041
O82	O	0.912321	0.437872	0.500041
H83	H	0.463611	-0.132958	0.000052
H84	H	0.963611	0.367042	0.500052
O85	O	0.373061	0.367721	0.000045
O86	O	0.873061	0.867721	0.500045
H87	H	0.333101	0.371721	0.062199
H88	H	0.833101	0.871721	0.562199
O89	O	0.553322	0.372044	0.000054
O90	O	1.053322	0.872044	0.500054
H91	H	0.532138	0.421245	-0.062085
H92	H	1.032138	0.921245	0.437915
H93	H	1.084764	0.014979	0.412982
H94	H	1.584764	0.514979	0.912982
O95	O	1.099624	-0.005399	0.599794
O96	O	1.599624	0.494601	1.099794
H97	H	1.138698	-0.059036	0.550297
H98	H	1.638698	0.440964	1.050297
O99	O	0.866043	0.315333	0.400281
O100	O	1.366043	0.815333	0.900281
H101	H	0.826982	0.368996	0.449772
H102	H	1.326982	0.868996	0.949772
