data_functionalizedCrystal
_audit_creation_method	'MofGen! by Chris Wilmer'
_symmetry_space_group_name_H-M	'P1'
_symmetry_Int_Tables_number	1
_symmetry_cell_setting	triclinic
loop_
_symmetry_equiv_pos_as_xyz
  x,y,z
_cell_length_a	25.639239
_cell_length_b	18.215407
_cell_length_c	25.639233
_cell_angle_alpha	89.986457
_cell_angle_beta	89.981253
_cell_angle_gamma	90.039134
loop_
_atom_site_label
_atom_site_type_symbol
_atom_site_fract_x
_atom_site_fract_y
_atom_site_fract_z
Zn1	Zn	-0.208208	1.124956	-0.295622
Zn2	Zn	0.291792	1.624956	0.204378
Zn3	Zn	-0.295627	1.124848	-0.208186
Zn4	Zn	0.204373	1.624848	0.291814
Zn5	Zn	-0.208208	1.001902	-0.208199
Zn6	Zn	0.291792	1.501902	0.291801
Zn7	Zn	-0.295615	1.001824	-0.295589
Zn8	Zn	0.204385	1.501824	0.204411
O9	O	-0.251915	1.063382	-0.251899
O10	O	0.248085	1.563382	0.248101
O11	O	-0.219809	1.227926	-0.284032
O12	O	0.280191	1.727926	0.215968
O13	O	-0.284036	1.108526	-0.135023
O14	O	0.215964	1.608526	0.364977
O15	O	-0.135043	1.018303	-0.219815
O16	O	0.364957	1.518303	0.280185
O17	O	-0.284036	1.227846	-0.219793
O18	O	0.215964	1.727846	0.280207
O19	O	-0.135043	1.108710	-0.284044
O20	O	0.364957	1.608710	0.215956
O21	O	-0.219809	1.018198	-0.135032
O22	O	0.280191	1.518198	0.364968
O23	O	-0.219798	0.898907	-0.219783
O24	O	0.280202	1.398907	0.280217
O25	O	-0.284015	1.018171	-0.368759
O26	O	0.215985	1.518171	0.131241
O27	O	-0.284015	0.898850	-0.283989
O28	O	0.215985	1.398850	0.216011
O29	O	-0.219798	1.108635	-0.368783
O30	O	0.280202	1.608635	0.131217
O31	O	-0.368791	1.108451	-0.219761
O32	O	0.131209	1.608451	0.280239
O33	O	-0.368782	1.018066	-0.283976
O34	O	0.131218	1.518066	0.216024
C35	C	-0.251906	0.872176	-0.251884
C36	C	0.248094	1.372176	0.248116
C37	C	-0.251914	0.790377	-0.251890
C38	C	0.248086	1.290377	0.248110
C39	C	-0.387757	1.063259	-0.251875
C40	C	0.112243	1.563259	0.248125
C41	C	-0.445871	1.063273	-0.251883
C42	C	0.054129	1.563273	0.248117
C43	C	-0.285405	0.602173	-0.285280
C44	C	0.214595	1.102173	0.214720
C45	C	-0.285407	0.525314	-0.285286
C46	C	0.214593	1.025314	0.214714
C47	C	-0.218434	0.525344	-0.218530
C48	C	0.281566	1.025344	0.281470
C49	C	-0.218430	0.602201	-0.218526
C50	C	0.281570	1.102201	0.281474
C51	C	-0.251918	0.640614	-0.251901
C52	C	0.248082	1.140614	0.248099
C53	C	-0.251924	0.486898	-0.251911
C54	C	0.248076	0.986898	0.248089
C55	C	-0.251925	0.403564	-0.251917
C56	C	0.248075	0.903564	0.248083
C57	C	-0.251916	0.723953	-0.251895
C58	C	0.248084	1.223953	0.248105
C59	C	-0.806226	1.110569	-0.218520
C60	C	-0.306226	1.610569	0.281480
C61	C	-0.860830	1.110597	-0.218527
C62	C	-0.360830	1.610597	0.281473
O63	O	-0.889060	1.150681	-0.190134
O64	O	-0.389060	1.650681	0.309866
N65	N	-0.888154	1.063512	-0.251934
N66	N	-0.388154	1.563512	0.248066
C67	C	-0.860870	1.016400	-0.285340
C68	C	-0.360870	1.516400	0.214660
O69	O	-0.889124	0.976353	-0.313757
O70	O	-0.389124	1.476353	0.186243
C71	C	-0.806266	1.016376	-0.285335
C72	C	-0.306266	1.516376	0.214665
C73	C	-0.778946	1.063459	-0.251922
C74	C	-0.278946	1.563459	0.248078
C75	C	-0.778906	1.157649	-0.185110
C76	C	-0.278906	1.657649	0.314890
C77	C	-0.724305	1.157619	-0.185102
C78	C	-0.224305	1.657619	0.314898
C79	C	-0.697025	1.110509	-0.218505
C80	C	-0.197025	1.610509	0.281495
C81	C	-0.724345	1.063429	-0.251915
C82	C	-0.224345	1.563429	0.248085
C83	C	-0.778983	0.969268	-0.318744
C84	C	-0.278983	1.469268	0.181256
C85	C	-0.724376	0.969249	-0.318736
C86	C	-0.224376	1.469249	0.181264
C87	C	-0.697056	1.016332	-0.285323
C88	C	-0.197056	1.516332	0.214677
C89	C	-0.642465	1.016290	-0.285310
C90	C	-0.142465	1.516290	0.214690
N91	N	-0.615142	1.063375	-0.251902
N92	N	-0.115142	1.563375	0.248098
C93	C	-0.642422	1.110485	-0.218500
C94	C	-0.142422	1.610485	0.281500
C95	C	-0.975540	1.016456	-0.285348
C96	C	-0.475540	1.516456	0.214652
C97	C	-1.030142	1.016476	-0.285351
C98	C	-0.530142	1.516476	0.214649
C99	C	-1.030100	1.110674	-0.218538
C100	C	-0.530100	1.610674	0.281462
C101	C	-0.975496	1.110649	-0.218533
C102	C	-0.475496	1.610649	0.281467
C103	C	-0.948217	1.063541	-0.251941
C104	C	-0.448217	1.563541	0.248059
C105	C	-0.527757	1.110419	-0.218486
C106	C	-0.027757	1.610419	0.281514
C107	C	-0.473151	1.110383	-0.218480
C108	C	0.026849	1.610383	0.281520
C109	C	-0.473199	1.016188	-0.285295
C110	C	0.026801	1.516188	0.214705
C111	C	-0.527800	1.016220	-0.285299
C112	C	-0.027800	1.516220	0.214701
C113	C	-0.555077	1.063342	-0.251893
C114	C	-0.055077	1.563342	0.248107
O115	O	-0.614200	0.976229	-0.313689
O116	O	-0.114200	1.476229	0.186311
O117	O	-0.614161	1.150532	-0.190093
O118	O	-0.114161	1.650532	0.309907
C119	C	-0.115542	1.063527	-0.251935
C120	C	0.384458	1.563527	0.248065
C121	C	-0.057427	1.063588	-0.251950
C122	C	0.442573	1.563588	0.248050
C123	C	-0.251905	1.063406	-0.388272
C124	C	0.248095	1.563406	0.111728
C125	C	-0.251901	1.063416	-0.446386
C126	C	0.248099	1.563416	0.053614
C127	C	-0.251924	1.255335	-0.251915
C128	C	0.248076	1.755335	0.248085
C129	C	-0.251928	1.337134	-0.251921
C130	C	0.248072	1.837134	0.248079
C131	C	-0.218364	1.110581	-0.806768
C132	C	0.281636	1.610581	-0.306768
C133	C	-0.218350	1.110590	-0.861372
C134	C	0.281650	1.610590	-0.361372
O135	O	-0.189897	1.150631	-0.889624
O136	O	0.310103	1.650631	-0.389624
N137	N	-0.251779	1.063497	-0.888669
N138	N	0.248221	1.563497	-0.388669
C139	C	-0.285221	1.016388	-0.861359
C140	C	0.214779	1.516388	-0.361359
O141	O	-0.313654	0.976332	-0.889591
O142	O	0.186346	1.476332	-0.389591
C143	C	-0.285232	1.016375	-0.806756
C144	C	0.214768	1.516375	-0.306756
C145	C	-0.251805	1.063476	-0.779461
C146	C	0.248195	1.563476	-0.279461
C147	C	-0.184939	1.157677	-0.779473
C148	C	0.315061	1.657677	-0.279473
C149	C	-0.184954	1.157668	-0.724873
C150	C	0.315046	1.657668	-0.224873
C151	C	-0.218395	1.110564	-0.697567
C152	C	0.281605	1.610564	-0.197567
C153	C	-0.251820	1.063468	-0.724861
C154	C	0.248180	1.563468	-0.224861
C155	C	-0.318672	0.969263	-0.779446
C156	C	0.181328	1.469263	-0.279446
C157	C	-0.318680	0.969254	-0.724839
C158	C	0.181320	1.469254	-0.224839
C159	C	-0.285252	1.016355	-0.697545
C160	C	0.214748	1.516355	-0.197545
C161	C	-0.285276	1.016355	-0.642954
C162	C	0.214724	1.516355	-0.142954
N163	N	-0.251847	1.063447	-0.615657
N164	N	0.248153	1.563447	-0.115657
C165	C	-0.218406	1.110552	-0.642963
C166	C	0.281594	1.610552	-0.142963
C167	C	-0.285194	1.016416	-0.976030
C168	C	0.214806	1.516416	-0.476030
C169	C	-0.285185	1.016432	-1.030632
C170	C	0.214815	1.516432	-0.530632
C171	C	-0.218313	1.110633	-1.030641
C172	C	0.281687	1.610633	-0.530641
C173	C	-0.218325	1.110620	-0.976038
C174	C	0.281675	1.610620	-0.476038
C175	C	-0.251765	1.063508	-0.948733
C176	C	0.248235	1.563508	-0.448733
C177	C	-0.218441	1.110531	-0.528298
C178	C	0.281559	1.610531	-0.028298
C179	C	-0.218461	1.110521	-0.473693
C180	C	0.281539	1.610521	0.026307
C181	C	-0.285331	1.016317	-0.473688
C182	C	0.214669	1.516317	0.026312
C183	C	-0.285313	1.016330	-0.528289
C184	C	0.214687	1.516330	-0.028289
C185	C	-0.251864	1.063439	-0.555592
C186	C	0.248136	1.563439	-0.055592
O187	O	-0.313713	0.976332	-0.614667
O188	O	0.186287	1.476332	-0.114667
O189	O	-0.189973	1.150593	-0.614724
O190	O	0.310027	1.650593	-0.114724
C191	C	-0.251886	1.063401	-0.116057
C192	C	0.248114	1.563401	0.383943
C193	C	-0.251743	1.063534	-0.057943
C194	C	0.248257	1.563534	0.442057
H195	H	-0.312672	0.633446	-0.312457
H196	H	0.187328	1.133446	0.187543
C197	C	-0.192833	0.625860	-0.130033
C198	C	0.307167	1.125860	0.369967
C199	C	-0.181620	0.644463	-0.181832
C200	C	0.318380	1.144463	0.318168
H201	H	-0.170110	0.651955	-0.107383
H202	H	0.329890	1.151955	0.392617
H203	H	-0.188039	0.574596	-0.125260
H204	H	0.311961	1.074596	0.374740
H205	H	-0.227952	0.638425	-0.122326
H206	H	0.272048	1.138425	0.377674
H207	H	-0.146502	0.631893	-0.189540
H208	H	0.353498	1.131893	0.310460
H209	H	-0.186409	0.695738	-0.186607
H210	H	0.313591	1.195738	0.313393
H211	H	-0.312411	0.978086	-1.052850
H212	H	0.187589	1.478086	-0.552850
C213	C	-0.355663	1.006023	-0.412261
C214	C	0.144337	1.506023	0.087739
C215	C	-0.322086	0.964547	-0.443659
C216	C	0.177914	1.464547	0.056341
H217	H	-0.378349	0.974059	-0.393718
H218	H	0.121651	1.474059	0.106282
H219	H	-0.375663	1.038053	-0.433565
H220	H	0.124337	1.538053	0.066435
H221	H	-0.335746	1.034075	-0.388202
H222	H	0.164254	1.534075	0.111798
H223	H	-0.342003	0.936498	-0.467721
H224	H	0.157997	1.436498	0.032279
H225	H	-0.302083	0.932503	-0.422353
H226	H	0.197917	1.432503	0.077647
C227	C	-0.177677	1.256648	-0.663464
C228	C	0.322323	1.756648	-0.163464
C229	C	-0.148196	1.209417	-0.694868
C230	C	0.351804	1.709417	-0.194868
H231	H	-0.154978	1.288592	-0.644944
H232	H	0.345022	1.788592	-0.144944
H233	H	-0.197595	1.228598	-0.639389
H234	H	0.302405	1.728598	-0.139389
H235	H	-0.200446	1.284796	-0.684764
H236	H	0.299554	1.784796	-0.184764
H237	H	-0.125430	1.181266	-0.673568
H238	H	0.374570	1.681266	-0.173568
H239	H	-0.128269	1.237470	-0.718946
H240	H	0.371731	1.737470	-0.218946
H241	H	-0.191202	1.148890	-0.550522
H242	H	0.308798	1.648890	-0.050522
C243	C	-0.351610	0.533010	-0.351266
C244	C	0.148390	1.033010	0.148734
C245	C	-0.322219	0.483060	-0.321976
C246	C	0.177781	0.983060	0.178024
H247	H	-0.374339	0.506923	-0.373915
H248	H	0.125661	1.006923	0.126085
H249	H	-0.328859	0.563015	-0.371303
H250	H	0.171141	1.063015	0.128697
H251	H	-0.371573	0.562960	-0.328441
H252	H	0.128427	1.062960	0.171559
H253	H	-0.302253	0.453113	-0.344800
H254	H	0.197747	0.953113	0.155200
H255	H	-0.344973	0.453043	-0.301936
H256	H	0.155027	0.953043	0.198064
C257	C	-0.478602	1.203501	-0.152439
C258	C	0.021398	1.703501	0.347561
C259	C	-0.443122	1.162143	-0.181752
C260	C	0.056878	1.662143	0.318248
H261	H	-0.460063	1.235458	-0.129769
H262	H	0.039937	1.735458	0.370231
H263	H	-0.499931	1.171467	-0.132423
H264	H	0.000069	1.671467	0.367577
H265	H	-0.499869	1.231636	-0.175248
H266	H	0.000131	1.731636	0.324752
H267	H	-0.421858	1.134004	-0.158943
H268	H	0.078142	1.634004	0.341057
H269	H	-0.421784	1.194181	-0.201770
H270	H	0.078216	1.694181	0.298230
H271	H	-0.191169	0.494059	-0.191357
H272	H	0.308831	0.994059	0.308643
H273	H	-0.312427	0.978051	-0.953801
H274	H	0.187573	1.478051	-0.453801
C275	C	-0.589068	1.209481	-0.211295
C276	C	-0.089068	1.709481	0.288705
C277	C	-0.557729	1.162226	-0.181769
C278	C	-0.057729	1.662226	0.318231
H279	H	-0.607567	1.241468	-0.188626
H280	H	-0.107567	1.741468	0.311374
H281	H	-0.613162	1.181451	-0.231181
H282	H	-0.113162	1.681451	0.268819
H283	H	-0.567727	1.237581	-0.234095
H284	H	-0.067727	1.737581	0.265905
H285	H	-0.579071	1.134122	-0.158971
H286	H	-0.079071	1.634122	0.341029
H287	H	-0.533632	1.190259	-0.161875
H288	H	-0.033632	1.690259	0.338125
H289	H	-0.702064	1.195960	-0.157896
H290	H	-0.202064	1.695960	0.342104
C291	C	-0.773364	1.250743	-0.119064
C292	C	-0.273364	1.750743	0.380936
C293	C	-0.808886	1.209433	-0.148386
C294	C	-0.308886	1.709433	0.351614
H295	H	-0.791871	1.282708	-0.096386
H296	H	-0.291871	1.782708	0.403614
H297	H	-0.752042	1.278861	-0.141862
H298	H	-0.252042	1.778861	0.358138
H299	H	-0.752096	1.218674	-0.099050
H300	H	-0.252096	1.718674	0.400950
H301	H	-0.830153	1.241502	-0.168403
H302	H	-0.330153	1.741502	0.331597
H303	H	-0.830218	1.181313	-0.125584
H304	H	-0.330218	1.681313	0.374416
C305	C	-0.980951	1.203759	-0.152492
C306	C	-0.480951	1.703759	0.347508
C307	C	-0.945469	1.162409	-0.181808
C308	C	-0.445469	1.662409	0.318192
H309	H	-0.962414	1.235717	-0.129822
H310	H	-0.462414	1.735717	0.370178
H311	H	-1.002277	1.171720	-0.132476
H312	H	-0.502277	1.671720	0.367524
H313	H	-1.002221	1.231892	-0.175299
H314	H	-0.502221	1.731892	0.324701
H315	H	-0.924201	1.134271	-0.159001
H316	H	-0.424201	1.634271	0.340999
H317	H	-0.924134	1.194452	-0.201825
H318	H	-0.424134	1.694452	0.298175
H319	H	-1.052382	0.978129	-0.312554
H320	H	-0.552382	1.478129	0.187446
C321	C	-1.113789	1.152629	-0.188953
C322	C	-0.613789	1.652629	0.311047
C323	C	-1.060093	1.162525	-0.181867
C324	C	-0.560093	1.662525	0.318133
H325	H	-1.132305	1.184658	-0.166330
H326	H	-0.632305	1.684658	0.333670
H327	H	-1.122794	1.103220	-0.181226
H328	H	-0.622794	1.603220	0.318774
H329	H	-1.122682	1.163309	-0.224108
H330	H	-0.622682	1.663309	0.275892
H331	H	-1.051199	1.151839	-0.146712
H332	H	-0.551199	1.651839	0.353288
H333	H	-1.051084	1.211944	-0.189590
H334	H	-0.551084	1.711944	0.310410
C335	C	-0.981076	0.923339	-0.351386
C336	C	-0.481076	1.423339	0.148614
C337	C	-0.945557	0.964660	-0.322067
C338	C	-0.445557	1.464660	0.177933
H339	H	-0.962567	0.891361	-0.374052
H340	H	-0.462567	1.391361	0.125948
H341	H	-1.002339	0.955396	-0.371407
H342	H	-0.502339	1.455396	0.128593
H343	H	-1.002404	0.895228	-0.328580
H344	H	-0.502404	1.395228	0.171420
H345	H	-0.924231	0.992775	-0.344873
H346	H	-0.424231	1.492775	0.155127
H347	H	-0.924285	0.932599	-0.302045
H348	H	-0.424285	1.432599	0.197955
H349	H	-0.801218	0.930925	-0.345950
H350	H	-0.301218	1.430925	0.154050
H351	H	-0.702168	0.930888	-0.345943
H352	H	-0.202168	1.430888	0.154057
C353	C	-0.522354	0.923111	-0.351343
C354	C	-0.022354	1.423111	0.148657
C355	C	-0.557833	0.964467	-0.322027
C356	C	-0.057833	1.464467	0.177973
H357	H	-0.540894	0.891169	-0.374022
H358	H	-0.040894	1.391169	0.125978
H359	H	-0.501095	0.894968	-0.328541
H360	H	-0.001095	1.394968	0.171459
H361	H	-0.501018	0.955153	-0.371355
H362	H	-0.001018	1.455153	0.128645
H363	H	-0.579167	0.932425	-0.302012
H364	H	-0.079167	1.432425	0.197988
H365	H	-0.579102	0.992612	-0.344832
H366	H	-0.079102	1.492612	0.155168
C367	C	-0.389510	0.974338	-0.314949
C368	C	0.110490	1.474338	0.185051
C369	C	-0.443205	0.964410	-0.322012
C370	C	0.056795	1.464410	0.177988
H371	H	-0.370993	0.942378	-0.337622
H372	H	0.129007	1.442378	0.162378
H373	H	-0.380589	0.963590	-0.279816
H374	H	0.119411	1.463590	0.220184
H375	H	-0.380531	1.023778	-0.322628
H376	H	0.119469	1.523778	0.177372
H377	H	-0.452185	0.914971	-0.314329
H378	H	0.047815	1.414971	0.185671
H379	H	-0.452130	0.975152	-0.357153
H380	H	0.047870	1.475152	0.142847
C381	C	-0.152355	1.203635	-0.479195
C382	C	0.347645	1.703635	0.020805
C383	C	-0.181712	1.162294	-0.443692
C384	C	0.318288	1.662294	0.056308
H385	H	-0.129666	1.235591	-0.460674
H386	H	0.370334	1.735591	0.039326
H387	H	-0.175131	1.231763	-0.500492
H388	H	0.324869	1.731763	-0.000492
H389	H	-0.132352	1.171585	-0.500492
H390	H	0.367648	1.671585	-0.000492
H391	H	-0.201718	1.194344	-0.422397
H392	H	0.298282	1.694344	0.077603
H393	H	-0.158933	1.134163	-0.422386
H394	H	0.341067	1.634163	0.077614
C395	C	-0.384757	0.876133	-0.773929
C396	C	0.115243	1.376133	-0.273929
C397	C	-0.355412	0.917480	-0.809438
C398	C	0.144588	1.417480	-0.309438
H399	H	-0.407437	0.844159	-0.792445
H400	H	0.092563	1.344159	-0.292445
H401	H	-0.404765	0.908172	-0.752636
H402	H	0.095235	1.408172	-0.252636
H403	H	-0.361969	0.848017	-0.752629
H404	H	0.138031	1.348017	-0.252629
H405	H	-0.378200	0.945601	-0.830736
H406	H	0.121800	1.445601	-0.330736
H407	H	-0.335404	0.885437	-0.830740
H408	H	0.164596	1.385437	-0.330740
C409	C	-0.389023	0.958943	-0.663427
C410	C	0.110977	1.458943	-0.163427
C411	C	-0.355440	0.917473	-0.694821
C412	C	0.144560	1.417473	-0.194821
H413	H	-0.411715	0.926977	-0.644893
H414	H	0.088285	1.426977	-0.144893
H415	H	-0.409018	0.990981	-0.684731
H416	H	0.090982	1.490981	-0.184731
H417	H	-0.369111	0.986989	-0.639359
H418	H	0.130889	1.486989	-0.139359
H419	H	-0.375352	0.889431	-0.718892
H420	H	0.124648	1.389431	-0.218892
H421	H	-0.335444	0.885422	-0.673515
H422	H	0.164556	1.385422	-0.173515
H423	H	-0.157704	1.196035	-0.801700
H424	H	0.342296	1.696035	-0.301700
C425	C	-0.351416	0.923217	-0.522792
C426	C	0.148584	1.423217	-0.022792
C427	C	-0.322060	0.964561	-0.558294
C428	C	0.177940	1.464561	-0.058294
H429	H	-0.374096	0.891250	-0.541314
H430	H	0.125904	1.391250	-0.041314
H431	H	-0.371423	0.955258	-0.501501
H432	H	0.128577	1.455258	-0.001501
H433	H	-0.328635	0.895092	-0.501489
H434	H	0.171365	1.395092	-0.001489
H435	H	-0.344840	0.992690	-0.579594
H436	H	0.155160	1.492690	-0.079594
H437	H	-0.302051	0.932515	-0.579594
H438	H	0.197949	1.432515	-0.079594
H439	H	-0.191104	1.148973	-0.953819
H440	H	0.308896	1.648973	-0.453819
H441	H	-0.191083	1.148986	-1.052884
H442	H	0.308917	1.648986	-0.552884
