data_functionalizedCrystal
_audit_creation_method	'MofGen! by Chris Wilmer'
_symmetry_space_group_name_H-M	'P1'
_symmetry_Int_Tables_number	1
_symmetry_cell_setting	triclinic
loop_
_symmetry_equiv_pos_as_xyz
  x,y,z
_cell_length_a	9.016244
_cell_length_b	10.540539
_cell_length_c	10.540539
_cell_angle_alpha	84.525492
_cell_angle_beta	89.999933
_cell_angle_gamma	89.994699
loop_
_atom_site_label
_atom_site_type_symbol
_atom_site_fract_x
_atom_site_fract_y
_atom_site_fract_z
O1	O	0.123263	-1.685893	-0.178895
O2	O	0.123280	-1.316480	-0.195751
O3	O	0.123269	-1.509614	-0.002617
O4	O	0.123274	-1.492759	-0.372030
O5	O	-0.123411	-1.509586	-0.002621
O6	O	-0.123400	-1.316452	-0.195755
O7	O	-0.123418	-1.685865	-0.178900
Cu8	Cu	-0.145933	-1.501156	-0.187328
Cu9	Cu	0.145795	-1.501189	-0.187323
O10	O	-0.123407	-1.492730	-0.372034
C11	C	-0.000058	-1.269163	-0.194489
C12	C	-0.000051	-1.128215	-0.190707
C13	C	-0.000068	-1.508336	0.044684
C14	C	-0.000060	-1.504554	0.185632
N15	N	-0.351119	-1.501141	-0.187331
C16	C	-0.586146	-1.397510	-0.290298
C17	C	-0.414255	-1.397739	-0.290684
C18	C	-0.413464	-1.633864	-0.217464
C19	C	-0.585409	-1.633298	-0.218193
C20	C	-0.585663	-1.473367	-0.053892
C21	C	-0.413709	-1.470322	-0.054757
N22	N	0.350982	-1.501213	-0.187310
C23	C	-0.000077	-1.733182	-0.180161
C24	C	-0.000074	-1.874130	-0.183943
C25	C	-0.000628	-0.944788	-0.045790
C26	C	-0.000057	-1.091406	-0.049624
C27	C	0.140811	-1.066558	-0.258600
C28	C	0.140914	-0.920014	-0.253785
C29	C	-0.139608	-0.919493	-0.256660
C30	C	-0.141455	-1.066475	-0.257960
C31	C	-0.000066	-1.494008	-0.419335
C32	C	-0.000064	-1.497790	-0.560283
C33	C	0.000500	-1.359637	0.369059
C34	C	-0.000055	-1.363471	0.222441
C35	C	-0.140930	-1.572434	0.247287
C36	C	-0.141049	-1.567619	0.393832
C37	C	0.139473	-1.570520	0.394355
C38	C	0.141336	-1.571820	0.247373
H39	H	-0.372106	-1.299123	-0.272553
H40	H	-0.370737	-1.540849	0.025564
H41	H	-0.146173	-1.676041	0.224933
H42	H	-0.101034	-1.134008	0.003797
H43	H	-0.140559	-0.872266	-0.358564
H44	H	-0.373108	-1.415639	-0.389668
N45	N	0.279386	-1.506139	0.193139
H46	H	0.369959	-1.549827	0.233202
H47	H	0.278361	-1.413985	0.212003
H48	H	-0.372962	-1.372684	-0.031916
N49	N	-0.152730	-1.098552	-0.394212
H50	H	-0.065945	-1.153803	-0.414366
H51	H	-0.151529	-1.017320	-0.453353
H52	H	0.246209	-0.891816	-0.203602
H53	H	-0.147444	-1.669083	0.441800
N54	N	-0.638537	-1.665532	-0.347128
H55	H	-0.700907	-1.745430	-0.336527
H56	H	-0.550189	-1.679913	-0.402896
H57	H	0.101521	-1.303918	0.397661
H58	H	-0.245664	-1.107425	-0.208362
N59	N	-0.279793	-1.509969	0.190850
H60	H	-0.251773	-1.437714	0.125361
H61	H	-0.340174	-1.475634	0.260686
N62	N	-0.639530	-1.573494	0.047665
H63	H	-0.551650	-1.619527	0.089894
H64	H	-0.704676	-1.636523	0.007436
N65	N	0.152609	-1.708075	0.215301
H66	H	0.065827	-1.728222	0.160051
H67	H	0.151396	-1.767213	0.296536
N68	N	-0.640512	-1.738624	-0.122657
H69	H	-0.553101	-1.785223	-0.080264
H70	H	-0.702605	-1.800201	-0.167791
N71	N	0.280909	-1.510065	0.436152
H72	H	0.255957	-1.434910	0.484924
H73	H	0.342038	-1.480199	0.358720
N74	N	-0.643156	-1.347851	-0.015929
H75	H	-0.557016	-1.288850	-0.004177
H76	H	-0.700128	-1.362946	0.066628
N77	N	-0.359306	-1.738590	-0.120819
H78	H	-0.293676	-1.700916	-0.056420
H79	H	-0.300983	-1.802893	-0.165629
N80	N	0.133699	-1.292720	0.165997
H81	H	0.193552	-1.258755	0.236356
H82	H	0.099941	-1.219465	0.103963
N83	N	-0.132552	-1.286089	0.409057
H84	H	-0.193192	-1.341872	0.472748
H85	H	-0.195340	-1.259103	0.331817
H86	H	0.099828	-0.914592	0.009712
H87	H	-0.101200	-1.309661	0.180683
H88	H	-0.101649	-0.916191	0.009944
N89	N	0.140733	-1.705504	0.456902
H90	H	0.051406	-1.719532	0.514347
H91	H	0.234244	-1.720206	0.508988
N92	N	-0.280519	-1.501123	0.431181
H93	H	-0.253216	-1.422776	0.474237
H94	H	-0.340384	-1.560917	0.491797
N95	N	-0.640967	-1.266465	-0.266666
H96	H	-0.707095	-1.273044	-0.188974
H97	H	-0.698924	-1.228882	-0.343216
H98	H	0.101092	-1.133163	0.004177
H99	H	0.147309	-0.872045	-0.355250
H100	H	0.146054	-1.088912	-0.362208
N101	N	0.279681	-1.122977	-0.196133
H102	H	0.251670	-1.188460	-0.123870
H103	H	0.340036	-1.053127	-0.161807
H104	H	-0.629339	-1.415177	-0.388722
H105	H	-0.370386	-1.658762	-0.313702
H106	H	-0.246381	-0.887935	-0.211004
