data_functionalizedCrystal
_audit_creation_method	'MofGen! by Chris Wilmer'
_symmetry_space_group_name_H-M	'P1'
_symmetry_Int_Tables_number	1
_symmetry_cell_setting	triclinic
loop_
_symmetry_equiv_pos_as_xyz
  x,y,z
_cell_length_a	10.654544
_cell_length_b	9.482900
_cell_length_c	11.026607
_cell_angle_alpha	101.400185
_cell_angle_beta	96.535434
_cell_angle_gamma	80.618326
loop_
_atom_site_label
_atom_site_type_symbol
_atom_site_fract_x
_atom_site_fract_y
_atom_site_fract_z
O1	O	1.720222	-0.120929	0.151890
O2	O	1.358274	-0.120923	0.168160
O3	O	1.509249	-0.120920	-0.016880
O4	O	1.569246	-0.120932	0.336929
O5	O	1.478617	0.120871	0.020858
O6	O	1.327642	0.120868	0.205898
O7	O	1.689590	0.120863	0.189627
Cu8	Cu	1.505819	0.142943	0.201209
Cu9	Cu	1.542045	-0.143004	0.156579
O10	O	1.538614	0.120860	0.374667
C11	C	1.295901	-0.000027	0.185835
C12	C	1.155681	-0.000025	0.182261
C13	C	1.122263	0.263584	0.223418
C14	C	1.039681	0.395384	0.242321
C15	C	0.907934	0.395378	0.238959
C16	C	0.858767	0.263557	0.216690
C17	C	0.941349	0.131758	0.197788
C18	C	1.073098	0.131778	0.201155
C19	C	0.974766	-0.131848	0.156622
C20	C	1.106514	-0.131845	0.159992
C21	C	0.925599	-0.263669	0.134353
C22	C	1.008182	-0.395472	0.115459
C23	C	1.139937	-0.395460	0.118823
C24	C	1.189096	-0.263645	0.141090
C25	C	1.482865	-0.000026	-0.043315
C26	C	1.449871	-0.000031	-0.178307
C27	C	1.751964	-0.000037	0.171952
C28	C	1.892184	-0.000048	0.175525
N29	N	1.480348	0.344063	0.232598
N30	N	1.567523	-0.344123	0.125180
C31	C	1.534522	0.416263	0.165831
C32	C	1.513342	0.583680	0.191957
C33	C	1.540975	-0.000034	-0.251347
C34	C	1.506877	-0.000039	-0.390869
C35	C	1.564999	-0.000038	0.401102
C36	C	1.597994	-0.000042	0.536093
H37	H	1.229539	0.263603	0.226174
Cl38	Cl	1.101497	0.561092	0.270315
H39	H	1.346631	-0.000039	-0.219069
Cl40	Cl	1.629996	0.320352	0.047438
Cl41	Cl	0.804112	0.561070	0.262707
Cl42	Cl	1.663674	0.559975	0.007317
Cl43	Cl	0.693140	0.263554	0.212459
Cl44	Cl	0.759974	-0.263677	0.130138
Cl45	Cl	0.946363	-0.561169	0.087434
Cl46	Cl	1.347469	-0.000051	-0.453785
Cl47	Cl	1.384521	0.439975	0.350710
H48	H	1.207169	-0.502788	0.103427
Cl49	Cl	1.354721	-0.263619	0.145325
Cl50	Cl	1.700379	-0.000046	-0.188429
Cl51	Cl	1.417510	0.679587	0.310074
H52	H	1.701257	-0.000153	-0.423171
