data_functionalizedCrystal
_audit_creation_method	'MofGen! by Chris Wilmer'
_symmetry_space_group_name_H-M	'P1'
_symmetry_Int_Tables_number	1
_symmetry_cell_setting	triclinic
loop_
_symmetry_equiv_pos_as_xyz
  x,y,z
_cell_length_a	19.288867
_cell_length_b	14.044220
_cell_length_c	17.766277
_cell_angle_alpha	89.993125
_cell_angle_beta	89.992126
_cell_angle_gamma	88.162973
loop_
_atom_site_label
_atom_site_type_symbol
_atom_site_fract_x
_atom_site_fract_y
_atom_site_fract_z
O1	O	0.928948	0.118224	-0.062570
O2	O	0.727712	0.134169	-0.062577
O3	O	0.825310	-0.011776	-0.062566
O4	O	0.831351	0.264168	-0.062581
O5	O	0.825290	-0.011783	0.062622
O6	O	0.727693	0.134161	0.062611
O7	O	0.928929	0.118216	0.062619
Cu8	Cu	0.828309	0.126188	0.074046
Cu9	Cu	0.828332	0.126197	-0.074004
O10	O	0.831332	0.264161	0.062608
C11	C	0.701793	0.133652	0.000016
C12	C	0.624591	0.132110	0.000013
C13	C	0.068323	0.121014	-0.068218
C14	C	0.140863	0.122456	-0.068220
C15	C	0.177128	0.123178	0.000020
C16	C	0.140847	0.122433	0.068268
C17	C	0.068308	0.120981	0.068269
C18	C	0.290161	0.180977	0.052297
C19	C	0.362698	0.182435	0.052294
C20	C	0.400861	0.127652	0.000020
C21	C	0.366477	0.071423	-0.052263
C22	C	0.293939	0.069971	-0.052262
C23	C	0.255783	0.124752	0.000026
C24	C	0.515789	0.129954	-0.068227
C25	C	0.588331	0.131391	-0.068227
C26	C	0.588313	0.131376	0.068263
C27	C	0.515773	0.129930	0.068261
C28	C	0.479515	0.129224	0.000014
C29	C	0.822656	-0.047082	0.000028
C30	C	0.814768	-0.152275	0.000029
C31	C	0.800347	-0.344875	0.000018
C32	C	0.856291	-0.402746	0.000017
C33	C	0.848267	-0.509915	0.000011
C34	C	0.808370	-0.237695	0.000024
C35	C	0.954848	0.118733	0.000024
C36	C	1.032050	0.120274	0.000021
C37	C	0.833986	0.299467	0.000012
C38	C	0.841873	0.404660	0.000006
N39	N	0.828298	0.126181	0.178176
N40	N	0.828348	0.126196	-0.178135
C41	C	0.871532	0.061589	0.217568
C42	C	0.871535	0.061584	0.296370
C43	C	0.828313	0.126189	0.335777
C44	C	0.785071	0.190786	0.296375
C45	C	0.785064	0.190783	0.217575
C46	C	0.824562	0.212532	0.460610
C47	C	0.824575	0.212537	0.539409
C48	C	0.828333	0.126200	0.578823
C49	C	0.832093	0.039855	0.539429
C50	C	0.832085	0.039851	0.460628
C51	C	0.828316	0.126200	0.421222
C52	C	0.871572	0.061598	0.703661
C53	C	0.871571	0.061592	0.782464
C54	C	0.785111	0.190802	0.782468
C55	C	0.785108	0.190800	0.703666
C56	C	0.828343	0.126198	0.664267
H57	H	0.038806	0.120435	-0.123790
H58	H	0.821518	0.282844	0.571477
H59	H	0.821490	0.282842	0.428525
Br60	Br	0.726434	0.278468	0.650200
H61	H	0.910211	-0.371805	-0.000031
H62	H	0.617863	0.131986	-0.123798
Br63	Br	0.710481	-0.396443	0.000008
H64	H	0.486240	0.129331	0.123828
H65	H	0.906734	0.008985	0.185492
Br66	Br	0.837181	-0.077325	0.407167
H67	H	0.170401	0.123064	-0.123791
Br68	Br	0.930213	-0.026086	0.349840
H69	H	0.835152	-0.030449	0.571518
H70	H	0.906774	0.008992	0.671581
H71	H	0.906775	0.008988	0.814537
H72	H	0.390686	0.228242	0.094850
Br73	Br	0.726444	0.278470	0.835942
H74	H	0.259094	0.225583	0.094873
Br75	Br	0.726385	0.278449	0.164110
H76	H	0.749878	0.243387	0.328464
H77	H	0.397548	0.026817	-0.094832
Br78	Br	0.466578	0.128991	-0.160845
Br79	Br	0.637522	0.132335	0.160876
Br80	Br	0.190061	0.123404	0.160880
Br81	Br	0.247277	-0.006337	-0.123212
H82	H	0.038776	0.120382	0.123839
