data_functionalizedCrystal
_audit_creation_method	'MofGen! by Chris Wilmer'
_symmetry_space_group_name_H-M	'P1'
_symmetry_Int_Tables_number	1
_symmetry_cell_setting	triclinic
loop_
_symmetry_equiv_pos_as_xyz
  x,y,z
_cell_length_a	14.853558
_cell_length_b	14.853567
_cell_length_c	13.930277
_cell_angle_alpha	89.999243
_cell_angle_beta	89.993309
_cell_angle_gamma	83.633032
loop_
_atom_site_label
_atom_site_type_symbol
_atom_site_fract_x
_atom_site_fract_y
_atom_site_fract_z
O1	O	1.196374	0.117664	-0.079811
O2	O	0.933913	0.131694	-0.079814
O3	O	1.072154	-0.006551	-0.079815
O4	O	1.058133	0.255909	-0.079810
O5	O	1.072135	-0.006554	0.079846
O6	O	0.933894	0.131691	0.079847
O7	O	1.196354	0.117661	0.079851
Zn8	Zn	1.065121	0.124675	0.105199
Zn9	Zn	1.065146	0.124679	-0.105162
O10	O	1.058113	0.255906	0.079852
C11	C	0.900314	0.131058	0.000016
C12	C	0.800230	0.129158	0.000014
C13	C	1.071509	-0.040141	0.000013
C14	C	1.069605	-0.140225	0.000004
C15	C	0.753221	0.128268	-0.087021
C16	C	0.753198	0.128254	0.087048
C17	C	0.659164	0.126464	0.087050
C18	C	0.612155	0.125574	0.000015
C19	C	0.659179	0.126475	-0.087022
C20	C	0.612135	0.125553	0.174085
C21	C	0.518095	0.123762	0.174090
C22	C	0.471083	0.122879	0.087054
C23	C	0.518113	0.123781	0.000014
C24	C	0.471103	0.122891	-0.087022
C25	C	0.518130	0.123799	-0.174063
C26	C	0.612166	0.125591	-0.174059
C27	C	0.377047	0.121087	0.087049
C28	C	0.377061	0.121098	-0.087023
C29	C	0.979439	-0.552756	0.000021
C30	C	1.143673	-0.574042	0.000024
C31	C	1.145463	-0.480009	0.000018
C32	C	1.064240	-0.422344	0.000015
C33	C	0.981227	-0.458713	0.000019
C34	C	1.228474	-0.443632	0.000024
C35	C	1.230268	-0.349593	0.000020
C36	C	1.149044	-0.291927	0.000011
C37	C	1.066027	-0.328301	0.000013
C38	C	0.984805	-0.270637	0.000010
C39	C	0.901787	-0.307009	0.000006
C40	C	0.900003	-0.401047	0.000009
C41	C	1.150828	-0.197890	0.000007
C42	C	0.986592	-0.176594	0.000008
C43	C	1.229953	0.118296	0.000019
C44	C	1.330037	0.120197	0.000014
C45	C	1.058758	0.289496	0.000022
C46	C	1.060662	0.389580	0.000024
N47	N	1.065110	0.124672	0.248765
N48	N	1.065164	0.124675	-0.248728
C49	C	1.003931	0.185870	0.701035
C50	C	1.126387	0.063481	0.701003
C51	C	1.126376	0.063478	0.600508
C52	C	1.065143	0.124673	0.550271
C53	C	1.003920	0.185871	0.600530
C54	C	1.187604	0.002288	0.550241
C55	C	1.187596	0.002283	0.449739
C56	C	1.126358	0.063475	0.399501
C57	C	1.065132	0.124674	0.449766
C58	C	1.003898	0.185869	0.399529
C59	C	0.942668	0.247065	0.449792
C60	C	0.942682	0.247062	0.550291
C61	C	1.126344	0.063477	0.299002
C62	C	1.003888	0.185870	0.299024
H63	H	0.479843	0.123070	-0.244927
H64	H	1.237462	-0.047531	0.591147
N65	N	0.898991	-0.114393	0.000005
H66	H	0.862786	-0.126100	-0.059183
H67	H	0.862842	-0.126132	0.059230
H68	H	0.338760	0.120355	0.157917
H69	H	0.791514	0.129011	-0.157888
H70	H	1.176201	0.013657	0.258082
N71	N	1.316079	-0.505816	0.000021
H72	H	1.352282	-0.494107	0.059210
H73	H	1.302280	-0.570883	-0.000021
N74	N	1.253626	-0.063719	0.395525
H75	H	1.317624	-0.053222	0.412995
H76	H	1.243089	-0.127694	0.413043
N77	N	1.240357	-0.158660	0.000021
H78	H	1.229167	-0.090338	0.000021
H79	H	1.275883	-0.179746	0.059219
N80	N	0.662835	0.126518	0.267953
H81	H	0.653717	0.070358	0.305999
H82	H	0.729520	0.127831	0.254662
H83	H	0.832414	-0.430670	0.000007
N84	N	0.326359	0.120143	-0.180898
H85	H	0.370421	0.120991	-0.236033
H86	H	0.294589	0.063553	-0.184697
N87	N	0.814184	-0.244811	0.000027
H88	H	0.827920	-0.179722	0.000037
H89	H	0.778008	-0.256584	-0.059158
H90	H	0.650464	0.126329	-0.244923
H91	H	0.911848	-0.582375	0.000014
N92	N	0.937838	0.251878	0.244852
H93	H	0.972329	0.291862	0.203148
H94	H	0.897894	0.217291	0.203218
H95	H	0.479814	0.123021	0.244965
H96	H	0.791480	0.128971	0.157909
N97	N	0.937898	0.251876	0.755242
H98	H	0.899109	0.290641	0.708164
H99	H	0.898005	0.217289	0.796947
H100	H	1.209801	-0.620998	0.000033
H101	H	1.297865	-0.319987	0.000023
H102	H	0.892815	0.296894	0.408878
N103	N	0.876651	0.313059	0.604511
H104	H	0.911159	0.353037	0.646195
H105	H	0.837868	0.351767	0.557384
N106	N	1.192435	-0.002511	0.755181
H107	H	1.183154	0.006777	0.826474
H108	H	1.181943	-0.066488	0.737623
