data_functionalizedCrystal
_audit_creation_method	'MofGen! by Chris Wilmer'
_symmetry_space_group_name_H-M	'P1'
_symmetry_Int_Tables_number	1
_symmetry_cell_setting	triclinic
loop_
_symmetry_equiv_pos_as_xyz
  x,y,z
_cell_length_a	15.995292
_cell_length_b	10.489716
_cell_length_c	14.472310
_cell_angle_alpha	90.003057
_cell_angle_beta	89.985801
_cell_angle_gamma	83.998876
loop_
_atom_site_label
_atom_site_type_symbol
_atom_site_fract_x
_atom_site_fract_y
_atom_site_fract_z
O1	O	1.112007	0.164048	-0.076858
O2	O	0.868346	0.184428	-0.076853
O3	O	0.995732	-0.011442	-0.076859
O4	O	0.984621	0.359917	-0.076852
O5	O	0.995699	-0.011430	0.076823
O6	O	0.868313	0.184439	0.076829
O7	O	1.111974	0.164059	0.076824
Cu8	Cu	0.990140	0.174250	0.090859
Cu9	Cu	0.990179	0.174237	-0.090888
O10	O	0.984588	0.359928	0.076830
C11	C	0.837129	0.183604	-0.000012
C12	C	0.744161	0.181117	-0.000010
C13	C	0.406368	0.171975	-0.000021
C14	C	0.430525	0.313349	-0.000361
C15	C	0.527217	0.316036	-0.000011
C16	C	0.573951	0.176512	-0.000016
C17	C	0.544409	0.105838	0.087740
C18	C	0.447608	0.104136	0.087809
C19	C	0.447773	0.101236	-0.086956
C20	C	0.544297	0.106475	-0.088112
C21	C	0.668663	0.179068	-0.000010
C22	C	0.311657	0.169415	-0.000020
C23	C	0.994880	-0.058956	-0.000021
C24	C	0.992383	-0.200551	-0.000029
C25	C	1.070499	-0.299343	-0.000022
C26	C	1.029237	-0.376119	-0.075792
C27	C	1.029186	-0.376071	0.075726
C28	C	0.951153	-0.275462	-0.075862
C29	C	0.951114	-0.275409	0.075725
C30	C	0.909794	-0.352135	-0.000064
C31	C	1.143191	0.164883	-0.000019
C32	C	1.236158	0.167370	-0.000027
C33	C	0.985440	0.407443	-0.000010
C34	C	0.987937	0.549038	-0.000008
N35	N	0.990119	0.174259	0.218690
N36	N	0.990207	0.174218	-0.218719
C37	C	0.990178	0.174232	0.592781
C38	C	0.921784	0.278686	0.553618
C39	C	0.921946	0.279067	0.446530
C40	C	0.990148	0.174245	0.407190
C41	C	1.077689	0.203286	0.446026
C42	C	1.077305	0.204028	0.553148
C43	C	0.971810	0.040427	0.553308
C44	C	0.969811	0.041320	0.446181
C45	C	0.990137	0.174250	0.302302
C46	C	0.990196	0.174229	0.697669
H47	H	0.402868	0.367835	-0.063295
H48	H	0.918153	-0.231415	0.139788
H49	H	1.093371	0.301610	0.578125
N50	N	0.840234	0.257989	0.413603
N51	N	0.782692	0.242877	0.469738
H52	H	0.724937	0.228229	0.446488
N53	N	0.429466	-0.029317	-0.087729
N54	N	0.488044	-0.118020	-0.085535
H55	H	0.475116	-0.210222	-0.086078
H56	H	0.564747	0.154926	0.153051
H57	H	0.841795	-0.375592	-0.000103
H58	H	0.575663	0.003167	0.090999
N59	N	0.412696	0.156776	-0.170412
N60	N	0.437998	0.112917	-0.246926
H61	H	0.413225	0.152153	-0.305863
N62	N	0.909838	-0.220589	-0.156329
N63	N	0.878435	-0.290951	-0.213630
H64	H	0.849260	-0.252197	-0.270461
H65	H	1.129831	0.130947	0.579052
H66	H	0.546587	0.371377	-0.062920
N67	N	1.070564	-0.431187	0.156081
N68	N	1.146526	-0.419155	0.169558
H69	H	1.175756	-0.458079	0.226305
N70	N	1.070627	-0.431268	-0.156156
N71	N	1.146592	-0.419247	-0.169663
H72	H	1.175829	-0.458191	-0.226418
H73	H	0.856531	0.261673	0.579407
N74	N	0.584883	-0.021286	-0.094794
N75	N	0.629244	-0.053999	-0.163632
H76	H	0.657906	-0.144236	-0.168348
N77	N	0.893402	0.005390	0.587229
N78	N	0.891388	-0.095037	0.633296
H79	H	0.836009	-0.119768	0.657253
H80	H	0.933439	0.377422	0.580529
N81	N	0.550662	0.385956	0.079034
N82	N	0.534248	0.348741	0.158415
H83	H	0.550791	0.398153	0.214237
H84	H	0.933758	0.378361	0.420898
H85	H	1.138447	-0.275639	-0.000100
H86	H	1.129832	0.129229	0.420541
H87	H	0.563188	0.157933	-0.153033
N88	N	1.098294	0.324303	0.412354
N89	N	1.048654	0.389361	0.359766
H90	H	1.063202	0.474833	0.335985
H91	H	0.905411	0.019280	0.420799
N92	N	0.394507	0.381345	0.078140
N93	N	0.316546	0.394675	0.088932
H94	H	0.291106	0.442694	0.144375
N95	N	0.414322	0.165548	0.170110
N96	N	0.462607	0.209367	0.227096
H97	H	0.439104	0.252742	0.285224
N98	N	0.428584	-0.025899	0.092808
N99	N	0.486778	-0.115105	0.096241
H100	H	0.473346	-0.206942	0.099778
H101	H	1.016329	-0.040050	0.419405
N102	N	1.034369	-0.057077	0.585083
N103	N	1.092261	-0.028324	0.636574
H104	H	1.136446	-0.097176	0.659021
