data_functionalizedCrystal
_audit_creation_method	'MofGen! by Chris Wilmer'
_symmetry_space_group_name_H-M	'P1'
_symmetry_Int_Tables_number	1
_symmetry_cell_setting	triclinic
loop_
_symmetry_equiv_pos_as_xyz
  x,y,z
_cell_length_a	19.188930
_cell_length_b	19.188933
_cell_length_c	18.366186
_cell_angle_alpha	89.992367
_cell_angle_beta	89.988632
_cell_angle_gamma	83.145175
loop_
_atom_site_label
_atom_site_type_symbol
_atom_site_fract_x
_atom_site_fract_y
_atom_site_fract_z
O1	O	0.087175	0.926148	-0.060534
O2	O	0.587175	1.426148	0.439466
O3	O	0.098908	0.722837	-0.060541
O4	O	0.598908	1.222837	0.439459
O5	O	-0.008614	0.830360	-0.060523
O6	O	0.491386	1.330360	0.439477
O7	O	0.194697	0.818626	-0.060552
O8	O	0.694697	1.318626	0.439448
O9	O	-0.008619	0.830342	0.060576
O10	O	0.491381	1.330342	0.560576
O11	O	0.098903	0.722819	0.060558
O12	O	0.598903	1.222819	0.560558
O13	O	0.087170	0.926130	0.060566
O14	O	0.587170	1.426130	0.560566
Zn15	Zn	0.093035	0.824472	0.079789
Zn16	Zn	0.593035	1.324472	0.579789
Zn17	Zn	0.093042	0.824496	-0.079765
Zn18	Zn	0.593042	1.324496	0.420235
O19	O	0.194692	0.818608	0.060547
O20	O	0.694692	1.318608	0.560547
C21	C	0.098525	0.696817	0.000007
C22	C	0.598525	1.196817	0.500007
C23	C	0.097384	0.619313	0.000005
C24	C	0.597384	1.119313	0.500005
C25	C	0.089241	0.066067	-0.065997
C26	C	0.589241	0.566067	0.434003
C27	C	0.090310	0.138892	-0.066000
C28	C	0.590310	0.638892	0.434000
C29	C	0.090844	0.175299	0.000011
C30	C	0.590844	0.675299	0.500011
C31	C	0.090292	0.138878	0.066030
C32	C	0.590292	0.638878	0.566030
C33	C	0.089217	0.066056	0.066031
C34	C	0.589217	0.566056	0.566031
N35	N	0.132260	0.284311	0.049140
N36	N	0.632260	0.784311	0.549140
N37	N	0.133283	0.353489	0.049134
N38	N	0.633283	0.853489	0.549134
C39	C	0.094082	0.394707	0.000012
C40	C	0.594082	0.894707	0.500012
N41	N	0.053828	0.364134	-0.049117
N42	N	0.553828	0.864134	0.450883
N43	N	0.052808	0.294949	-0.049113
N44	N	0.552808	0.794949	0.450887
C45	C	0.092009	0.254262	0.000017
C46	C	0.592009	0.754262	0.500017
C47	C	0.095787	0.510084	-0.066006
C48	C	0.595787	1.010084	0.433994
C49	C	0.096851	0.582911	-0.066007
C50	C	0.596851	1.082911	0.433993
C51	C	0.096840	0.582894	0.066025
C52	C	0.596840	1.082894	0.566025
C53	C	0.095770	0.510071	0.066024
C54	C	0.595770	1.010071	0.566024
C55	C	0.095246	0.473669	0.000006
C56	C	0.595246	0.973669	0.500006
C57	C	-0.034628	0.829971	0.000029
C58	C	0.465372	1.329971	0.500029
C59	C	-0.112132	0.828830	0.000035
C60	C	0.387868	1.328830	0.500035
C61	C	-0.157056	0.891921	0.000041
C62	C	0.342944	1.391921	0.500041
C63	C	-0.229880	0.890849	0.000029
C64	C	0.270120	1.390849	0.500029
C65	C	-0.257777	0.826683	0.000026
C66	C	0.242223	1.326683	0.500026
C67	C	-0.212843	0.763584	0.000016
C68	C	0.287157	1.263584	0.500016
C69	C	-0.140021	0.764658	0.000021
C70	C	0.359979	1.264658	0.500021
N71	N	-0.365784	0.777630	0.041237
N72	N	0.134216	1.277630	0.541237
N73	N	-0.434962	0.776614	0.041234
N74	N	0.065038	1.276614	0.541234
C75	C	-0.477185	0.823445	0.000011
C76	C	0.022815	1.323445	0.500011
N77	N	-0.447618	0.871340	-0.041200
N78	N	0.052382	1.371340	0.458800
N79	N	-0.378433	0.872358	-0.041194
N80	N	0.121567	1.372358	0.458806
C81	C	-0.336739	0.825512	0.000021
C82	C	0.163261	1.325512	0.500021
C83	C	-0.601073	0.885378	0.000004
C84	C	-0.101073	1.385378	0.500004
C85	C	-0.673898	0.884304	-0.000013
C86	C	-0.173898	1.384304	0.499987
C87	C	-0.656860	0.757037	-0.000018
C88	C	-0.156860	1.257037	0.499982
C89	C	-0.584037	0.758113	-0.000010
C90	C	-0.084037	1.258113	0.499990
C91	C	-0.556148	0.822286	0.000005
C92	C	-0.056148	1.322286	0.500005
C93	C	0.220705	0.818997	-0.000006
C94	C	0.720705	1.318997	0.499994
C95	C	0.298210	0.820137	-0.000017
C96	C	0.798210	1.320137	0.499983
C97	C	0.087553	0.952150	0.000015
C98	C	0.587553	1.452150	0.500015
C99	C	0.088694	1.029655	0.000013
C100	C	0.588694	1.529655	0.500013
N101	N	0.093030	0.824460	0.188680
N102	N	0.593030	1.324460	0.688680
N103	N	0.093042	0.824513	-0.188656
N104	N	0.593042	1.324513	0.311344
C105	C	0.045443	0.872087	0.226789
C106	C	0.545443	1.372087	0.726789
C107	C	0.045440	0.872091	0.303017
C108	C	0.545440	1.372091	0.803017
C109	C	0.093036	0.824476	0.341133
C110	C	0.593036	1.324476	0.841133
C111	C	0.140627	0.776840	0.303015
C112	C	0.640627	1.276840	0.803015
C113	C	0.140624	0.776833	0.226789
C114	C	0.640624	1.276833	0.726789
C115	C	0.156652	0.815134	0.461884
C116	C	0.656652	1.315134	0.961884
C117	C	0.156656	0.815147	0.538109
C118	C	0.656656	1.315147	1.038109
C119	C	0.093045	0.824496	0.576240
C120	C	0.593045	1.324496	1.076240
C121	C	0.029427	0.833847	0.538138
C122	C	0.529427	1.333847	1.038138
C123	C	0.029424	0.833839	0.461911
C124	C	0.529424	1.333839	0.961911
C125	C	0.093044	0.824479	0.423788
C126	C	0.593044	1.324479	0.923788
C127	C	0.045450	0.872130	0.697004
C128	C	0.545450	1.372130	1.197004
C129	C	0.045446	0.872129	0.773233
C130	C	0.545446	1.372129	1.273233
C131	C	0.140639	0.776882	0.773230
C132	C	0.640639	1.276882	1.273230
C133	C	0.140637	0.776879	0.697003
C134	C	0.640637	1.276879	1.197003
C135	C	0.093043	0.824507	0.658894
C136	C	0.593043	1.324507	1.158894
H137	H	0.097291	0.612557	-0.119762
H138	H	0.597291	1.112557	0.380238
H139	H	0.088812	0.036434	-0.119754
H140	H	0.588812	0.536434	0.380246
N141	N	-0.278349	0.958897	0.000048
N142	N	0.221651	1.458897	0.500048
H143	H	-0.308936	0.961300	-0.044843
H144	H	0.191064	1.461300	0.455157
H145	H	-0.249585	0.999675	0.000086
H146	H	0.250415	1.499675	0.500086
H147	H	-0.679573	0.704792	-0.000024
H148	H	-0.179573	1.204792	0.499976
N149	N	-0.005882	0.923471	0.344129
N150	N	0.494118	1.423471	0.844129
H151	H	0.001345	0.916249	0.398201
H152	H	0.501345	1.416249	0.898201
H153	H	-0.055398	0.915568	0.330825
H154	H	0.444602	1.415568	0.830825
H155	H	0.179390	0.738099	0.665973
H156	H	0.679390	1.238099	1.165973
N157	N	0.088625	0.026778	0.137231
N158	N	0.588625	0.526778	0.637231
H159	H	0.088641	0.060953	0.179048
H160	H	0.588641	0.560953	0.679048
H161	H	0.131698	-0.008901	0.140321
H162	H	0.631698	0.491099	0.640321
N163	N	0.090899	0.178177	-0.137199
N164	N	0.590899	0.678177	0.362801
H165	H	0.090404	0.144067	-0.179020
H166	H	0.590404	0.644067	0.320980
H167	H	0.134620	0.202597	-0.140072
H168	H	0.634620	0.702597	0.359928
N169	N	-0.242927	0.694376	0.000009
N170	N	0.257073	1.194376	0.500009
H171	H	-0.295877	0.703268	0.000009
H172	H	0.204123	1.203268	0.500009
H173	H	-0.226487	0.666768	0.044900
H174	H	0.273513	1.166768	0.544900
H175	H	0.208455	0.807509	0.430844
H176	H	0.708455	1.307509	0.930844
N177	N	-0.091565	0.696606	0.000031
N178	N	0.408435	1.196606	0.500031
H179	H	-0.041200	0.707023	0.000040
H180	H	0.458800	1.207023	0.500040
H181	H	-0.100557	0.668634	-0.044863
H182	H	0.399443	1.168634	0.455137
N183	N	-0.535578	0.690065	-0.000012
N184	N	-0.035578	1.190065	0.499988
H185	H	-0.564299	0.649252	-0.000015
H186	H	-0.064299	1.149252	0.499985
H187	H	-0.505003	0.687732	0.044883
H188	H	-0.005003	1.187732	0.544883
H189	H	-0.022376	0.841451	0.430891
H190	H	0.477624	1.341451	0.930891
N191	N	-0.005891	0.923452	0.185686
N192	N	0.494109	1.423452	0.685686
H193	H	-0.036039	0.953624	0.221399
H194	H	0.463961	1.453624	0.721399
H195	H	-0.036695	0.896817	0.154075
H196	H	0.463305	1.396817	0.654075
N197	N	-0.722353	0.952357	-0.000001
N198	N	-0.222353	1.452357	0.499999
H199	H	-0.772719	0.941941	-0.000009
H200	H	-0.272719	1.441941	0.499991
H201	H	-0.713332	0.980344	-0.044887
H202	H	-0.213332	1.480344	0.455113
N203	N	0.090867	0.178140	0.137228
N204	N	0.590867	0.678140	0.637228
H205	H	0.091634	0.229798	0.127212
H206	H	0.591634	0.729798	0.627212
H207	H	0.133949	0.159613	0.166051
H208	H	0.633949	0.659613	0.666051
H209	H	0.179390	0.738110	0.804264
H210	H	0.679390	1.238110	1.304264
N211	N	-0.126984	0.961137	0.000051
N212	N	0.373016	1.461137	0.500051
H213	H	-0.143375	0.988774	-0.044839
H214	H	0.356625	1.488774	0.455161
H215	H	-0.074039	0.952193	0.000081
H216	H	0.425961	1.452193	0.500081
H217	H	0.179380	0.738070	0.334053
H218	H	0.679380	1.238070	0.834053
H219	H	-0.022371	0.841459	0.569183
H220	H	0.477629	1.341459	1.069183
N221	N	0.095182	0.470791	0.137221
N222	N	0.595182	0.970791	0.637221
H223	H	0.095198	0.504966	0.179038
H224	H	0.595198	1.004966	0.679038
H225	H	0.138255	0.435112	0.140311
H226	H	0.638255	0.935112	0.640311
N227	N	-0.005880	0.923505	0.814337
N228	N	0.494120	1.423505	1.314337
H229	H	0.001340	0.916283	0.868410
H230	H	0.501340	1.416283	1.368410
H231	H	-0.055395	0.915600	0.801026
H232	H	0.444605	1.415600	1.301026
H233	H	0.006694	0.910909	0.665975
H234	H	0.506694	1.410909	1.165975
N235	N	0.191950	0.725460	0.185681
N236	N	0.691950	1.225460	0.685681
H237	H	0.222101	0.695292	0.221391
H238	H	0.722101	1.195292	0.721391
H239	H	0.222753	0.752087	0.154040
H240	H	0.722753	1.252087	0.654040
H241	H	-0.578365	0.937631	0.000012
H242	H	-0.078365	1.437631	0.500012
H243	H	0.208457	0.807537	0.569126
H244	H	0.708457	1.307537	1.069126
H245	H	0.095358	0.480445	-0.119762
H246	H	0.595358	0.980445	0.380238
H247	H	0.097273	0.612537	0.119773
H248	H	0.597273	1.112537	0.619773
