data_functionalizedCrystal
_audit_creation_method	'MofGen! by Chris Wilmer'
_symmetry_space_group_name_H-M	'P1'
_symmetry_Int_Tables_number	1
_symmetry_cell_setting	triclinic
loop_
_symmetry_equiv_pos_as_xyz
  x,y,z
_cell_length_a	12.811457
_cell_length_b	12.837942
_cell_length_c	11.892314
_cell_angle_alpha	86.043680
_cell_angle_beta	80.242746
_cell_angle_gamma	89.411937
loop_
_atom_site_label
_atom_site_type_symbol
_atom_site_fract_x
_atom_site_fract_y
_atom_site_fract_z
O1	O	1.410164	0.142872	-0.050560
O2	O	1.103907	0.156077	-0.019163
O3	O	1.250245	-0.001501	-0.034172
O4	O	1.263826	0.300450	-0.035551
O5	O	1.263476	0.010473	-0.223529
O6	O	1.117138	0.168051	-0.208520
O7	O	1.423395	0.154846	-0.239917
Zn8	Zn	1.272367	0.163350	-0.254283
Zn9	Zn	1.254935	0.147573	-0.004797
O10	O	1.277057	0.312424	-0.224908
C11	C	1.071050	0.160957	-0.109795
C12	C	0.953436	0.157647	-0.097737
C13	C	0.746850	0.164462	-0.281539
C14	C	0.636341	0.161352	-0.270216
C15	C	0.621907	0.148308	-0.063767
C16	C	0.732416	0.151418	-0.075091
C17	C	0.794884	0.159497	-0.183980
C18	C	0.905395	0.162615	-0.195303
C19	C	0.890959	0.149564	0.011144
C20	C	0.780450	0.146453	0.022468
C21	C	1.252272	-0.034184	-0.128380
C22	C	1.238588	-0.149408	-0.126975
C23	C	1.403094	-0.388598	-0.143817
C24	C	1.390241	-0.496862	-0.142497
C25	C	1.200031	-0.474203	-0.123008
C26	C	1.212883	-0.365939	-0.124328
C27	C	1.314418	-0.323141	-0.134734
C28	C	1.327271	-0.214874	-0.136062
C29	C	1.137060	-0.192218	-0.116565
C30	C	1.124208	-0.300482	-0.115245
C31	C	1.456251	0.149966	-0.149283
C32	C	1.573866	0.153276	-0.161333
C33	C	1.275029	0.345107	-0.130698
C34	C	1.288713	0.460331	-0.132095
N35	N	1.284272	0.174117	-0.424551
C36	C	1.367281	0.249080	-0.610554
C37	C	1.358925	0.241550	-0.491360
C38	C	1.217967	0.114212	-0.476944
C39	C	1.226322	0.121743	-0.596139
C40	C	1.300983	0.189178	-0.662940
C41	C	1.309343	0.196703	-0.782136
C42	C	1.168380	0.069372	-0.767718
C43	C	1.160024	0.061841	-0.648524
N44	N	1.243038	0.136799	0.165471
H45	H	0.571027	0.141712	0.024885
H46	H	0.797712	0.171054	-0.370201
H47	H	0.729574	0.139871	0.111123
H48	H	1.117365	-0.509070	-0.114524
H49	H	0.597236	0.165400	-0.349658
H50	H	1.114394	0.020596	-0.810382
H51	H	0.930079	0.145527	0.090584
H52	H	1.462450	-0.550155	-0.149889
Br53	Br	1.465066	-0.156789	-0.150196
H54	H	1.370137	0.251610	-0.836525
H55	H	1.099235	0.006940	-0.594118
H56	H	1.428078	0.303982	-0.664946
Br57	Br	1.540889	-0.330506	-0.157974
H58	H	1.041540	-0.335344	-0.106769
H59	H	1.157176	0.059316	-0.422534
H60	H	1.412910	0.290331	-0.448713
H61	H	1.064855	-0.138909	-0.109178
Br62	Br	0.990172	0.173586	-0.343079
