data_functionalizedCrystal
_audit_creation_method	'MofGen! by Chris Wilmer'
_symmetry_space_group_name_H-M	'P1'
_symmetry_Int_Tables_number	1
_symmetry_cell_setting	triclinic
loop_
_symmetry_equiv_pos_as_xyz
  x,y,z
_cell_length_a	12.759401
_cell_length_b	16.625546
_cell_length_c	12.759393
_cell_angle_alpha	89.964856
_cell_angle_beta	89.981287
_cell_angle_gamma	90.023993
loop_
_atom_site_label
_atom_site_type_symbol
_atom_site_fract_x
_atom_site_fract_y
_atom_site_fract_z
Zn1	Zn	1.606187	-0.320930	-0.593986
Zn2	Zn	1.606061	-0.455784	-0.418292
Zn3	Zn	1.430492	-0.320973	-0.418322
Zn4	Zn	1.430453	-0.455728	-0.593930
O5	O	1.518298	-0.388353	-0.506132
O6	O	1.753191	-0.338824	-0.570692
O7	O	1.582735	-0.437942	-0.271275
O8	O	1.453867	-0.208134	-0.441660
O9	O	1.753098	-0.437901	-0.441610
O10	O	1.582949	-0.208103	-0.570720
O11	O	1.453745	-0.338897	-0.271297
O12	O	1.283466	-0.338842	-0.441605
O13	O	1.453801	-0.437805	-0.740958
O14	O	1.283438	-0.437846	-0.570623
O15	O	1.582912	-0.338769	-0.741000
O16	O	1.582697	-0.568609	-0.441555
O17	O	1.453679	-0.568567	-0.570595
C18	C	1.245331	-0.388344	-0.506112
C19	C	1.128554	-0.388359	-0.506128
C20	C	1.073705	-0.439989	-0.573202
C21	C	0.963981	-0.439992	-0.573223
C22	C	0.963965	-0.336733	-0.439086
C23	C	1.073687	-0.336726	-0.439071
C24	C	0.814075	-0.468924	-0.697080
C25	C	0.759222	-0.520566	-0.764145
C26	C	0.794805	-0.599254	-0.780084
C27	C	0.885240	-0.626316	-0.728944
C28	C	0.940087	-0.574678	-0.661871
C29	C	0.904505	-0.495978	-0.645952
C30	C	1.223595	-0.307803	-0.315212
C31	C	1.278444	-0.256168	-0.248134
C32	C	1.242863	-0.177479	-0.232183
C33	C	1.152425	-0.150420	-0.283306
C34	C	1.097576	-0.202054	-0.350384
C35	C	1.133165	-0.280743	-0.366336
C36	C	1.518199	-0.597844	-0.506088
C37	C	1.518252	-0.687465	-0.506105
C38	C	1.518436	-1.015641	-0.506214
C39	C	1.518381	-0.924332	-0.506187
C40	C	1.518343	-0.851556	-0.506159
C41	C	1.518290	-0.760242	-0.506132
C42	C	1.792331	-0.388364	-0.506154
C43	C	1.909108	-0.388368	-0.506163
C44	C	1.518366	-0.388276	-0.780166
C45	C	1.518395	-0.388243	-0.896943
C46	C	1.518427	-0.178044	-0.506200
C47	C	1.518481	-0.088423	-0.506228
C48	C	1.451190	-0.439787	-0.951785
C49	C	1.451227	-0.439757	-1.061509
C50	C	1.585678	-0.336632	-1.061539
C51	C	1.585645	-0.336667	-0.951817
C52	C	1.413674	-0.534799	-1.211433
C53	C	1.346452	-0.586336	-1.266279
C54	C	1.243920	-0.598721	-1.230662
C55	C	1.208587	-0.559558	-1.140201
C56	C	1.275803	-0.508016	-1.085361
C57	C	1.378351	-0.495646	-1.120976
C58	C	1.623188	-0.241623	-0.801891
C59	C	1.690399	-0.190076	-0.747049
C60	C	1.792934	-0.177682	-0.782664
C61	C	1.828262	-0.216831	-0.873128
C62	C	1.761051	-0.268379	-0.927970
C63	C	1.658517	-0.280773	-0.892348
C64	C	1.518291	-0.388372	-0.233165
C65	C	1.518466	-0.388178	-0.116389
H66	H	0.914198	-0.690395	-0.741919
C67	C	1.939642	-0.203308	-0.911606
C68	C	1.990950	-0.149805	-0.844200
C69	C	2.093559	-0.137332	-0.879603
H70	H	1.938010	-0.181329	-0.980321
H71	H	1.976082	-0.253123	-0.912612
H72	H	1.954520	-0.099998	-0.843205
H73	H	1.992612	-0.171768	-0.775482
H74	H	2.129999	-0.187147	-0.880610
H75	H	2.091916	-0.115355	-0.948318
H76	H	2.128387	-0.101035	-0.833869
C77	C	1.097277	-0.572864	-1.101400
C78	C	1.080717	-0.527522	-1.010460
C79	C	0.978186	-0.539753	-0.974691
H80	H	1.087149	-0.628269	-1.086235
H81	H	1.049083	-0.556497	-1.153989
H82	H	1.128896	-0.543893	-0.957882
H83	H	1.090823	-0.472114	-1.025598
H84	H	0.929992	-0.523386	-1.027281
H85	H	0.968067	-0.595159	-0.959532
H86	H	0.966933	-0.508985	-0.912991
C87	C	1.511803	-0.255000	-0.763335
C88	C	1.458290	-0.181503	-0.761911
C89	C	1.355678	-0.193828	-0.726431
H90	H	1.513431	-0.276921	-0.694588
H91	H	1.476859	-0.291289	-0.808997
H92	H	1.493225	-0.145228	-0.716249
H93	H	1.456633	-0.159571	-0.830645
H94	H	1.320734	-0.230116	-0.772094
H95	H	1.357317	-0.215750	-0.657687
H96	H	1.319354	-0.143964	-0.725469
H97	H	0.750136	-0.641301	-0.834692
C98	C	0.904203	-0.280767	-0.366323
C99	C	0.796372	-0.291836	-0.380671
C100	C	0.741290	-0.240301	-0.313648
H101	H	0.922090	-0.226573	-0.381762
H102	H	0.922086	-0.292506	-0.295678
H103	H	0.778497	-0.280092	-0.451300
H104	H	0.778454	-0.346019	-0.365224
H105	H	0.759173	-0.252040	-0.243003
H106	H	0.759186	-0.186110	-0.329093
H107	H	0.668122	-0.247809	-0.323367
C108	C	0.999515	-0.172582	-0.406036
C109	C	1.024810	-0.106555	-0.469356
C110	C	0.934507	-0.079393	-0.520648
H111	H	0.948679	-0.156958	-0.355608
H112	H	0.971945	-0.214571	-0.448326
H113	H	1.052364	-0.064575	-0.427069
H114	H	1.075631	-0.122160	-0.519803
H115	H	0.906938	-0.121382	-0.562938
H116	H	0.883678	-0.063773	-0.470212
H117	H	0.951659	-0.034596	-0.563623
H118	H	1.287527	-0.135441	-0.177553
C119	C	1.113983	-0.064943	-0.265898
C120	C	1.181389	-0.025508	-0.196236
C121	C	1.146019	0.053238	-0.180180
H122	H	1.045260	-0.066200	-0.237294
H123	H	1.113006	-0.037012	-0.330872
H124	H	1.182355	-0.053431	-0.131275
H125	H	1.250115	-0.024228	-0.224820
H126	H	1.145042	0.081169	-0.245154
H127	H	1.077296	0.051972	-0.151579
H128	H	1.191753	0.080006	-0.132921
H129	H	1.352083	-0.278207	-0.206507
H130	H	0.685591	-0.498525	-0.805785
H131	H	1.252581	-0.371876	-0.328203
H132	H	1.189187	-0.640683	-1.275325
H133	H	1.661623	-0.158193	-0.673394
C134	C	1.384687	-0.628754	-1.364612
C135	C	1.322011	-0.606166	-1.449728
C136	C	1.357202	-0.645215	-1.540332
H137	H	1.380395	-0.685313	-1.354924
H138	H	1.455371	-0.613992	-1.378034
H139	H	1.251345	-0.620934	-1.436308
H140	H	1.326296	-0.549614	-1.459449
H141	H	1.427885	-0.630452	-1.553755
H142	H	1.352908	-0.701772	-1.530634
H143	H	1.314688	-0.629889	-1.598096
C144	C	1.525027	-0.521530	-1.250131
C145	C	1.578393	-0.595089	-1.251597
C146	C	1.680969	-0.582896	-1.287259
H147	H	1.560140	-0.485274	-1.204576
H148	H	1.523294	-0.499628	-1.318899
H149	H	1.580133	-0.616979	-1.182839
H150	H	1.543312	-0.631355	-1.297155
H151	H	1.679235	-0.560995	-1.356027
H152	H	1.716072	-0.546639	-1.241700
H153	H	1.717188	-0.632804	-1.288268
H154	H	1.640429	-0.294640	-1.106232
H155	H	1.396424	-0.481778	-0.907109
H156	H	1.789822	-0.300252	-1.001634
C157	C	1.237434	-0.465363	-0.987259
C158	C	1.243823	-0.382047	-1.002010
C159	C	1.208466	-0.342741	-0.911659
H160	H	1.279815	-0.480498	-0.929326
H161	H	1.166718	-0.480074	-0.973908
H162	H	1.314527	-0.367343	-1.015348
H163	H	1.201440	-0.366889	-1.059925
H164	H	1.137751	-0.357452	-0.898308
H165	H	1.250852	-0.357882	-0.853732
H166	H	1.212788	-0.286208	-0.921658
H167	H	1.847652	-0.135698	-0.738009
H168	H	0.785101	-0.404847	-0.684119
C169	C	1.133221	-0.495938	-0.646188
C170	C	1.106606	-0.478459	-0.750182
C171	C	1.161419	-0.529975	-0.817451
H172	H	1.115253	-0.550130	-0.630830
H173	H	1.206434	-0.488535	-0.636645
H174	H	1.033410	-0.485869	-0.759720
H175	H	1.124577	-0.424277	-0.765573
H176	H	1.234632	-0.522572	-0.807909
H177	H	1.143446	-0.584164	-0.802084
H178	H	1.143375	-0.518118	-0.888019
C179	C	1.038155	-0.604190	-0.606277
C180	C	1.012858	-0.670229	-0.542980
C181	C	1.103175	-0.697444	-0.491761
H182	H	1.065794	-0.562249	-0.563975
H183	H	1.088940	-0.619811	-0.656778
H184	H	0.962091	-0.654607	-0.492485
H185	H	0.985232	-0.712186	-0.585256
H186	H	1.153960	-0.713064	-0.542263
H187	H	1.130807	-0.655497	-0.449466
H188	H	1.086026	-0.742258	-0.448816
