data_functionalizedCrystal
_audit_creation_method	'MofGen! by Chris Wilmer'
_symmetry_space_group_name_H-M	'P1'
_symmetry_Int_Tables_number	1
_symmetry_cell_setting	triclinic
loop_
_symmetry_equiv_pos_as_xyz
  x,y,z
_cell_length_a	12.759401
_cell_length_b	16.625546
_cell_length_c	12.759393
_cell_angle_alpha	89.964718
_cell_angle_beta	89.982824
_cell_angle_gamma	90.022629
loop_
_atom_site_label
_atom_site_type_symbol
_atom_site_fract_x
_atom_site_fract_y
_atom_site_fract_z
Zn1	Zn	1.606185	-0.320958	-0.593948
Zn2	Zn	1.606060	-0.455813	-0.418253
Zn3	Zn	1.430491	-0.320998	-0.418287
Zn4	Zn	1.430452	-0.455753	-0.593895
O5	O	1.518297	-0.388380	-0.506096
O6	O	1.753189	-0.338855	-0.570649
O7	O	1.582734	-0.437971	-0.271237
O8	O	1.453866	-0.208160	-0.441625
O9	O	1.753097	-0.437932	-0.441568
O10	O	1.582948	-0.208131	-0.570682
O11	O	1.453744	-0.338923	-0.271261
O12	O	1.283465	-0.338865	-0.441574
O13	O	1.453799	-0.437830	-0.740923
O14	O	1.283436	-0.437869	-0.570592
O15	O	1.582910	-0.338797	-0.740962
O16	O	1.582696	-0.568637	-0.441517
O17	O	1.453678	-0.568593	-0.570560
C18	C	1.245329	-0.388365	-0.506081
C19	C	1.128553	-0.388378	-0.506100
C20	C	1.073703	-0.440012	-0.573169
C21	C	0.963979	-0.440022	-0.573180
C22	C	0.963964	-0.336763	-0.439045
C23	C	1.073686	-0.336749	-0.439040
C24	C	1.073711	-0.499631	-0.650608
C25	C	0.963987	-0.499641	-0.650619
C26	C	1.518197	-0.597871	-0.506052
C27	C	1.518251	-0.687492	-0.506068
C28	C	1.518434	-1.015668	-0.506177
C29	C	1.518380	-0.924359	-0.506150
C30	C	1.518342	-0.851583	-0.506122
C31	C	1.518289	-0.760269	-0.506096
C32	C	1.792330	-0.388396	-0.506111
C33	C	1.909107	-0.388402	-0.506117
C34	C	1.518364	-0.388302	-0.780129
C35	C	1.518393	-0.388269	-0.896906
C36	C	1.518425	-0.178071	-0.506163
C37	C	1.518480	-0.088450	-0.506191
C38	C	1.451187	-0.439811	-0.951750
C39	C	1.451226	-0.439782	-1.061474
C40	C	1.585678	-0.336661	-1.061501
C41	C	1.585644	-0.336695	-0.951779
C42	C	1.373559	-0.499345	-0.951735
C43	C	1.373598	-0.499316	-1.061459
C44	C	1.518290	-0.388400	-0.233128
C45	C	1.518465	-0.388206	-0.116352
H46	H	1.107716	-0.558918	-0.621317
C47	C	1.134014	-0.279945	-0.365265
C48	C	1.209477	-0.216672	-0.410936
C49	C	1.269802	-0.159865	-0.337156
C50	C	1.254664	-0.166331	-0.217706
C51	C	1.179198	-0.229607	-0.172029
C52	C	1.118873	-0.286414	-0.245809
H53	H	1.220686	-0.211883	-0.499366
H54	H	1.325667	-0.113024	-0.370970
H55	H	1.299320	-0.124279	-0.163090
H56	H	1.167989	-0.234396	-0.083600
H57	H	1.063008	-0.333255	-0.211995
C58	C	1.412923	-0.579444	-1.107420
C59	C	1.418592	-0.590877	-1.227045
C60	C	1.457920	-0.671002	-1.273008
C61	C	1.491580	-0.739694	-1.199346
C62	C	1.485912	-0.728263	-1.079714
C63	C	1.446584	-0.648138	-1.033750
H64	H	1.393675	-0.540025	-1.281580
H65	H	1.462116	-0.679463	-1.361568
H66	H	1.520693	-0.799007	-1.233371
H67	H	1.510830	-0.779115	-1.025178
H68	H	1.442389	-0.639677	-0.945190
H69	H	1.640432	-0.294672	-1.106192
C70	C	0.918044	-0.469539	-0.755116
C71	C	0.846756	-0.394833	-0.756947
C72	C	0.800809	-0.364731	-0.861439
C73	C	0.826150	-0.409335	-0.964099
C74	C	0.897442	-0.484045	-0.962272
C75	C	0.943389	-0.514146	-0.857780
H76	H	0.827994	-0.361811	-0.680948
H77	H	0.748033	-0.309426	-0.862791
H78	H	0.792137	-0.387052	-1.041450
H79	H	0.916204	-0.517067	-1.038271
H80	H	0.996164	-0.569452	-0.856428
C81	C	1.263703	-0.476705	-1.101708
C82	C	1.175073	-0.458501	-1.023296
C83	C	1.065182	-0.435895	-1.063546
C84	C	1.043921	-0.431494	-1.182206
C85	C	1.132554	-0.449699	-1.260625
C86	C	1.242444	-0.472304	-1.220376
H87	H	1.190810	-0.461758	-0.935450
H88	H	0.999571	-0.422419	-1.005494
H89	H	0.962573	-0.414760	-1.212001
H90	H	1.116817	-0.446441	-1.348472
H91	H	1.308056	-0.485781	-1.278428
H92	H	0.934181	-0.562073	-0.628680
H93	H	1.640380	-0.294733	-0.907129
H94	H	0.919278	-0.294728	-0.384448
C95	C	1.402952	-0.583717	-0.911482
C96	C	1.500576	-0.595024	-0.842095
C97	C	1.529977	-0.679392	-0.801847
C98	C	1.461753	-0.752454	-0.830985
C99	C	1.364123	-0.741150	-0.900376
C100	C	1.334722	-0.656781	-0.940625
H101	H	1.551085	-0.540937	-0.820522
H102	H	1.602250	-0.687760	-0.750479
H103	H	1.483517	-0.814909	-0.801191
H104	H	1.313614	-0.795237	-0.921949
H105	H	1.262449	-0.648413	-0.991992
H106	H	1.103521	-0.482978	-0.732016
H107	H	1.296270	-0.476981	-0.917709
