data_functionalizedCrystal
_audit_creation_method	'MofGen! by Chris Wilmer'
_symmetry_space_group_name_H-M	'P1'
_symmetry_Int_Tables_number	1
_symmetry_cell_setting	triclinic
loop_
_symmetry_equiv_pos_as_xyz
  x,y,z
_cell_length_a	15.944493
_cell_length_b	15.944551
_cell_length_c	17.766277
_cell_angle_alpha	89.994570
_cell_angle_beta	89.994675
_cell_angle_gamma	83.486891
loop_
_atom_site_label
_atom_site_type_symbol
_atom_site_fract_x
_atom_site_fract_y
_atom_site_fract_z
O1	O	1.114556	0.108100	-0.062586
O2	O	1.614556	0.608100	0.437414
O3	O	0.870000	0.121507	-0.062590
O4	O	1.370000	0.621507	0.437410
O5	O	0.998956	-0.007473	-0.062581
O6	O	1.498956	0.492527	0.437419
O7	O	0.985600	0.237079	-0.062595
O8	O	1.485600	0.737079	0.437405
O9	O	0.998942	-0.007476	0.062608
O10	O	1.498942	0.492524	0.562608
O11	O	0.869985	0.121504	0.062599
O12	O	1.369985	0.621504	0.562599
O13	O	1.114542	0.108097	0.062603
O14	O	1.614542	0.608097	0.562603
Cu15	Cu	0.992262	0.114800	0.074031
Cu16	Cu	1.492262	0.614800	0.574031
Cu17	Cu	0.992279	0.114803	-0.074018
Cu18	Cu	1.492279	0.614803	0.425982
O19	O	0.985585	0.237076	0.062594
O20	O	1.485585	0.737076	0.562594
C21	C	0.838698	0.120957	0.000004
C22	C	1.338698	0.620957	0.500004
C23	C	0.745449	0.119314	0.000003
C24	C	1.245449	0.619314	0.500003
C25	C	0.509689	0.195235	-0.000002
C26	C	1.009689	0.695235	0.499998
C27	C	0.459124	0.154293	0.061728
C28	C	0.959124	0.654293	0.561728
C29	C	0.574728	0.116270	0.000004
C30	C	1.074728	0.616270	0.500004
C31	C	0.459143	0.154277	-0.061698
C32	C	0.959143	0.654277	0.438302
C33	C	0.409819	0.113336	0.000003
C34	C	0.909819	0.613336	0.500003
C35	C	0.525391	0.075349	0.061785
C36	C	1.025391	0.575349	0.561785
C37	C	0.525413	0.075345	-0.061696
C38	C	1.025413	0.575345	0.438304
C39	C	0.474880	0.034345	0.000049
C40	C	0.974880	0.534345	0.500049
C41	C	0.669728	0.117963	0.000006
C42	C	1.169728	0.617963	0.500006
C43	C	0.314821	0.111637	0.000007
C44	C	0.814821	0.611637	0.500007
C45	C	0.998395	-0.038768	0.000013
C46	C	1.498395	0.461232	0.500013
C47	C	0.996732	-0.132014	0.000014
C48	C	1.496732	0.367986	0.500014
C49	C	0.912826	-0.346853	0.000002
C50	C	1.412826	0.153147	0.500002
C51	C	0.951782	-0.407880	0.061728
C52	C	1.451782	0.092120	0.561728
C53	C	0.993725	-0.302739	0.000008
C54	C	1.493725	0.197261	0.500008
C55	C	0.951815	-0.407861	-0.061698
C56	C	1.451815	0.092139	0.438302
C57	C	0.990814	-0.467651	-0.000001
C58	C	1.490814	0.032349	0.499999
C59	C	1.032703	-0.362538	0.061785
C60	C	1.532703	0.137462	0.561785
C61	C	1.032726	-0.362512	-0.061696
C62	C	1.532726	0.137488	0.438304
C63	C	1.071741	-0.423521	0.000045
C64	C	1.571741	0.076479	0.500045
C65	C	0.995399	-0.207737	0.000014
C66	C	1.495399	0.292263	0.500014
C67	C	0.989146	-0.562652	-0.000001
C68	C	1.489146	-0.062652	0.499999
C69	C	1.145844	0.108646	0.000007
C70	C	1.645844	0.608646	0.500007
C71	C	1.239092	0.110289	0.000004
C72	C	1.739092	0.610289	0.500004
C73	C	0.986147	0.268372	-0.000002
C74	C	1.486147	0.768372	0.499998
C75	C	0.987809	0.361617	-0.000008
C76	C	1.487809	0.861617	0.499992
N77	N	0.992256	0.114797	0.178162
N78	N	1.492256	0.614797	0.678162
C79	C	1.049392	0.057705	0.782454
C80	C	1.549392	0.557705	1.282454
C81	C	1.049394	0.057707	0.703653
C82	C	1.549394	0.557707	1.203653
C83	C	0.992277	0.114797	0.664251
C84	C	1.492277	0.614797	1.164251
C85	C	0.935169	0.171904	0.703657
C86	C	1.435169	0.671904	1.203657
C87	C	0.935175	0.171907	0.782457
C88	C	1.435175	0.671907	1.282457
C89	C	0.915772	0.125779	0.539417
C90	C	1.415772	0.625779	1.039417
C91	C	0.915765	0.125771	0.460618
C92	C	1.415765	0.625771	0.960618
C93	C	0.992260	0.114795	0.421204
C94	C	1.492260	0.614795	0.921204
C95	C	1.068765	0.103809	0.460599
C96	C	1.568765	0.603809	0.960599
C97	C	1.068770	0.103812	0.539399
C98	C	1.568770	0.603812	1.039399
C99	C	0.992265	0.114801	0.578805
C100	C	1.492265	0.614801	1.078805
C101	C	1.049370	0.057697	0.296362
C102	C	1.549370	0.557697	0.796362
C103	C	1.049372	0.057705	0.217558
C104	C	1.549372	0.557705	0.717558
C105	C	0.935141	0.171899	0.217564
C106	C	1.435141	0.671899	0.717564
C107	C	0.935145	0.171895	0.296366
C108	C	1.435145	0.671895	0.796366
C109	C	0.992259	0.114790	0.335760
C110	C	1.492259	0.614790	0.835760
N111	N	0.992289	0.114801	0.821851
N112	N	1.492289	0.614801	1.321851
H113	H	0.554213	0.042020	0.114025
H114	H	1.054213	0.542020	0.614025
N115	N	0.454376	-0.055816	0.000104
N116	N	0.954376	0.444184	0.500104
H117	H	0.420878	-0.066371	-0.046515
H118	H	0.920878	0.433629	0.453485
H119	H	0.508520	-0.095395	0.000596
H120	H	1.008520	0.404605	0.500596
H121	H	1.066919	-0.342388	-0.113883
H122	H	1.566919	0.157612	0.386117
N123	N	0.873534	0.233482	0.175084
N124	N	1.373534	0.733482	0.675084
H125	H	0.905629	0.270686	0.142382
H126	H	1.405629	0.770686	0.642382
H127	H	0.836352	0.201311	0.142441
H128	H	1.336352	0.701311	0.642441
N129	N	0.563767	0.031200	-0.130818
N130	N	1.063767	0.531200	0.369182
H131	H	0.539547	0.061094	-0.177422
H132	H	1.039547	0.561094	0.322578
H133	H	0.626983	0.032179	-0.129980
H134	H	1.126983	0.532179	0.370020
N135	N	0.873540	0.233467	0.338861
N136	N	1.373540	0.733467	0.838861
H137	H	0.882210	0.224805	0.394759
H138	H	1.382210	0.724805	0.894759
H139	H	0.883242	0.293060	0.325081
H140	H	1.383242	0.793060	0.825081
N141	N	0.420780	0.198468	0.130846
N142	N	0.920780	0.698468	0.630846
H143	H	0.357685	0.196533	0.130584
H144	H	0.857685	0.696533	0.630584
H145	H	0.445881	0.169238	0.177430
H146	H	0.945881	0.669238	0.677430
N147	N	0.420723	0.198493	-0.130768
N148	N	0.920723	0.698493	0.369232
H149	H	0.433064	0.259240	-0.130697
H150	H	0.933064	0.759240	0.369303
H151	H	0.445720	0.169284	-0.177400
H152	H	0.945720	0.669284	0.322600
H153	H	1.095899	0.011208	0.814527
H154	H	1.595899	0.511208	1.314527
H155	H	1.138950	-0.456694	0.000081
H156	H	1.638950	0.043306	0.500081
N157	N	0.873557	0.233477	0.661167
N158	N	1.373557	0.733477	1.161167
H159	H	0.883234	0.293098	0.674870
H160	H	1.383234	0.793098	1.174870
H161	H	0.882244	0.224738	0.605282
H162	H	1.382244	0.724738	1.105282
H163	H	0.853470	0.134706	0.428550
H164	H	1.353470	0.634706	0.928550
N165	N	1.110979	-0.003886	0.338849
N166	N	1.610979	0.496114	0.838849
H167	H	1.148170	0.028228	0.371538
H168	H	1.648170	0.528228	0.871538
H169	H	1.078825	-0.041080	0.371506
H170	H	1.578825	0.458920	0.871506
N171	N	0.873577	0.233486	0.824955
N172	N	1.373577	0.733486	1.324955
H173	H	0.837392	0.269655	0.788040
H174	H	1.337392	0.769655	1.288040
H175	H	0.836447	0.201307	0.857653
H176	H	1.336447	0.701307	1.357653
H177	H	0.845675	-0.313532	0.000063
H178	H	1.345675	0.186468	0.500063
H179	H	1.066886	-0.342556	0.114027
H180	H	1.566886	0.157444	0.614027
N181	N	0.530388	0.285331	0.000061
N182	N	1.030388	0.785331	0.500061
H183	H	0.506139	0.315061	0.046730
H184	H	1.006139	0.815061	0.546730
H185	H	0.593678	0.285762	-0.000450
H186	H	1.093678	0.785762	0.499550
N187	N	1.110961	-0.003905	0.661150
N188	N	1.610961	0.496095	1.161150
H189	H	1.102282	0.004752	0.605253
H190	H	1.602282	0.504752	1.105253
H191	H	1.170561	0.005793	0.674900
H192	H	1.670561	0.505793	1.174900
H193	H	0.917594	-0.427929	-0.113886
H194	H	1.417594	0.072071	0.386114
N195	N	0.833262	0.137632	0.581925
N196	N	1.333262	0.637632	1.081925
H197	H	0.784798	0.144587	0.545014
H198	H	1.284798	0.644587	1.045014
H199	H	0.828352	0.086606	0.614630
H200	H	1.328352	0.586606	1.114630
H201	H	0.917558	-0.427983	0.113912
H202	H	1.417558	0.072017	0.613912
N203	N	1.151277	0.091985	0.581893
N204	N	1.651277	0.591985	1.081893
H205	H	1.156245	0.143010	0.614578
H206	H	1.656245	0.643010	1.114578
H207	H	1.153064	0.039966	0.614555
H208	H	1.653064	0.539966	1.114555
N209	N	1.151278	0.091969	0.418101
N210	N	1.651278	0.591969	0.918101
H211	H	1.139670	0.093639	0.362204
H212	H	1.639670	0.593639	0.862204
H213	H	1.186258	0.138683	0.431870
H214	H	1.686258	0.638683	0.931870
N215	N	1.110971	-0.003876	0.175062
N216	N	1.610971	0.496124	0.675062
H217	H	1.147149	-0.040049	0.211978
H218	H	1.647149	0.459951	0.711978
H219	H	1.078808	-0.041019	0.142373
H220	H	1.578808	0.458981	0.642373
