data_functionalizedCrystal
_audit_creation_method	'MofGen! by Chris Wilmer'
_symmetry_space_group_name_H-M	'P1'
_symmetry_Int_Tables_number	1
_symmetry_cell_setting	triclinic
loop_
_symmetry_equiv_pos_as_xyz
  x,y,z
_cell_length_a	15.995350
_cell_length_b	16.109301
_cell_length_c	14.586319
_cell_angle_alpha	89.998582
_cell_angle_beta	90.002117
_cell_angle_gamma	96.523072
loop_
_atom_site_label
_atom_site_type_symbol
_atom_site_fract_x
_atom_site_fract_y
_atom_site_fract_z
O1	O	0.107625	-1.103160	0.076178
O2	O	0.121018	-0.861102	0.076192
O3	O	-0.007568	-0.988748	0.076184
O4	O	0.236211	-0.975514	0.076186
O5	O	-0.007571	-0.988738	-0.076297
O6	O	0.121015	-0.861092	-0.076289
O7	O	0.107622	-1.103150	-0.076303
Cu8	Cu	0.114318	-0.982120	-0.090219
Cu9	Cu	0.114322	-0.982132	0.090107
O10	O	0.236208	-0.975504	-0.076295
C11	C	-0.038764	-0.988196	-0.000055
C12	C	-0.131714	-0.986556	-0.000050
C13	C	0.120474	-0.830122	-0.000047
C14	C	0.118848	-0.737826	-0.000041
C15	C	0.108166	-1.134130	-0.000062
C16	C	0.109792	-1.226426	-0.000062
C17	C	-0.469460	-0.980665	-0.000053
C18	C	-0.422001	-0.889758	0.000295
C19	C	-0.325311	-0.891399	-0.000049
C20	C	-0.301900	-0.983587	-0.000051
C21	C	-0.342992	-1.028420	-0.087126
C22	C	-0.439627	-1.026136	-0.087198
C23	C	-0.439982	-1.028026	0.086201
C24	C	-0.343037	-1.028004	0.087351
C25	C	-0.207203	-0.985243	-0.000053
C26	C	-0.564157	-0.979012	-0.000057
C27	C	0.267404	-0.976056	-0.000054
C28	C	0.360354	-0.977697	-0.000053
N29	N	0.114315	-0.982118	-0.217050
C30	C	0.191366	-0.515573	-0.000051
C31	C	0.189831	-0.428853	-0.000057
C32	C	0.037268	-0.448686	-0.000055
C33	C	0.038804	-0.535405	-0.000055
C34	C	0.115855	-0.568846	-0.000049
C35	C	0.112785	-0.395406	-0.000054
C36	C	0.111120	-0.301380	-0.000061
C37	C	0.117520	-0.662879	-0.000044
C38	C	0.057396	-1.038661	-0.548048
C39	C	0.057396	-1.038659	-0.452067
C40	C	0.171244	-0.925595	-0.452070
C41	C	0.171247	-0.925602	-0.548050
C42	C	0.114318	-0.982134	-0.596036
C43	C	0.114315	-0.982125	-0.404075
C44	C	0.114316	-0.982122	-0.300008
C45	C	0.114318	-0.982138	-0.700110
N46	N	0.114318	-0.982141	0.216939
H47	H	-0.296878	-0.856157	0.062370
H48	H	-0.327693	-1.095232	0.092608
Br49	Br	-0.019854	-1.115382	-0.386942
Br50	Br	-0.452865	-0.829199	0.104374
H51	H	0.011042	-1.084694	-0.587116
Br52	Br	-0.067297	-0.403296	-0.000060
Br53	Br	-0.278845	-0.832245	-0.104252
Br54	Br	0.248500	-0.848874	-0.386942
H55	H	-0.314603	-0.997273	-0.151923
Br56	Br	-0.470122	-0.971630	-0.195681
Br57	Br	-0.063683	-0.607710	-0.000064
H58	H	-0.441586	-0.853581	-0.061797
Br59	Br	-0.493411	-1.137373	-0.093797
H60	H	-0.328885	-1.096148	-0.090365
H61	H	-0.460512	-0.998308	0.152198
Br62	Br	0.248510	-0.848887	-0.613184
H63	H	0.254106	-0.542798	-0.000053
Br64	Br	0.292315	-0.356556	-0.000065
Br65	Br	-0.297064	-0.973830	0.194734
H66	H	-0.471761	-1.095051	0.086785
