data_functionalizedCrystal
_audit_creation_method	'MofGen! by Chris Wilmer'
_symmetry_space_group_name_H-M	'P1'
_symmetry_Int_Tables_number	1
_symmetry_cell_setting	triclinic
loop_
_symmetry_equiv_pos_as_xyz
  x,y,z
_cell_length_a	20.919309
_cell_length_b	19.902436
_cell_length_c	19.902436
_cell_angle_alpha	90.000006
_cell_angle_beta	62.593668
_cell_angle_gamma	57.439882
loop_
_atom_site_label
_atom_site_type_symbol
_atom_site_fract_x
_atom_site_fract_y
_atom_site_fract_z
Zr1	Zr	0.700853	-0.116922	0.675900
O2	O	0.834417	-0.229665	0.574071
O3	O	0.567290	-0.078572	0.703328
O4	O	0.700869	-0.224219	0.708775
O5	O	0.700825	0.026561	0.568636
O6	O	0.700882	-0.224232	0.819341
O7	O	0.700838	-0.084018	0.568624
O8	O	0.461932	0.036303	0.809597
O9	O	0.939774	-0.233974	0.578380
O10	O	0.622236	-0.066803	0.802117
O11	O	0.622217	0.015731	0.719612
O12	O	0.779490	-0.155749	0.726025
O13	O	0.779471	-0.073215	0.643520
Zr14	Zr	0.700853	0.059418	0.852260
Zr15	Zr	0.700873	-0.116944	0.852240
Zr16	Zr	0.700834	0.059439	0.675920
Zr17	Zr	0.868886	-0.123795	0.682773
Zr18	Zr	0.532821	0.066290	0.845388
O19	O	0.834417	0.021068	0.824833
O20	O	0.834445	-0.229695	0.824804
O21	O	0.834389	0.021098	0.574099
O22	O	0.567290	0.172160	0.954090
O23	O	0.567318	-0.078603	0.954061
O24	O	0.567262	0.172191	0.703356
O25	O	0.700882	-0.084066	0.959524
O26	O	0.700838	0.166714	0.819385
O27	O	0.700825	0.166728	0.708819
O28	O	0.700869	0.026513	0.959537
O29	O	0.939790	-0.233991	0.718547
O30	O	0.461917	0.176486	0.809613
O31	O	0.461932	0.176469	0.949780
O32	O	0.461948	0.036286	0.949764
O33	O	0.939759	-0.093790	0.578396
O34	O	0.939774	-0.093808	0.718563
O35	O	0.622217	0.098245	0.802135
O36	O	0.622236	0.015711	0.884640
O37	O	0.779490	-0.073235	0.808549
O38	O	0.779471	0.009299	0.726044
C39	C	0.490670	-0.020156	0.755483
C40	C	0.419336	-0.017238	0.752566
C41	C	0.700829	-0.028725	0.543505
C42	C	0.700820	-0.028716	0.468644
C43	C	0.700829	0.191849	0.764105
C44	C	0.700820	0.266719	0.764114
C45	C	0.385832	-0.058949	0.794259
C46	C	0.318801	-0.056200	0.791520
C47	C	0.285280	-0.011743	0.747082
C48	C	0.318786	0.029973	0.705387
C49	C	0.385811	0.027228	0.708131
C50	C	0.082902	-0.001295	0.736644
C51	C	0.015874	0.001444	0.733901
C52	C	0.015894	-0.084727	0.820036
C53	C	0.082924	-0.087473	0.822773
C54	C	0.116421	-0.045753	0.781081
C55	C	0.216765	-0.008934	0.744278
C56	C	0.184929	-0.048557	0.783890
C57	C	0.911037	-0.037349	0.772677
C58	C	0.982371	-0.040267	0.775595
C59	C	0.700878	-0.249353	0.764055
C60	C	0.700887	-0.324223	0.764047
C61	C	0.700865	0.538719	0.764069
C62	C	0.601666	0.566337	0.811821
C63	C	0.601604	0.488502	0.812111
C64	C	0.700842	0.403777	0.764091
C65	C	0.750113	0.404174	0.804062
C66	C	0.749479	0.482427	0.804415
C67	C	0.751502	0.481361	0.676353
C68	C	0.749638	0.404516	0.676419
C69	C	0.700835	0.327510	0.764103
C70	C	0.700875	0.614984	0.764060
C71	C	0.700865	-0.028764	0.196597
C72	C	0.601666	0.027097	0.273088
C73	C	0.601604	0.027391	0.350988
C74	C	0.700842	-0.028741	0.331563
C75	C	0.750099	0.007211	0.279463
C76	C	0.749465	0.007616	0.201875
C77	C	0.751516	-0.120627	0.200804
C78	C	0.749652	-0.120409	0.279606
C79	C	0.700835	-0.028728	0.407838
C80	C	0.700875	-0.028774	0.120321
C81	C	0.700878	-0.028779	0.984655
C82	C	0.700887	-0.028788	1.059516
C83	C	0.490695	-0.020182	0.976058
C84	C	0.419369	-0.017274	1.048002
C85	C	0.490645	0.200445	0.755508
C86	C	0.419302	0.278233	0.752599
C87	C	0.490670	0.200419	0.976083
C88	C	0.419336	0.278197	1.048035
C89	C	0.911037	-0.257923	0.552077
C90	C	0.982371	-0.335702	0.480125
C91	C	0.911012	-0.037322	0.552102
C92	C	0.982338	-0.040231	0.480159
C93	C	0.911062	-0.257950	0.772652
C94	C	0.982404	-0.335738	0.775561
C95	C	0.385873	-0.058987	1.038711
C96	C	0.318864	-0.056271	1.106303
C97	C	0.285348	-0.011836	1.183185
C98	C	0.318850	0.029878	1.192475
C99	C	0.385862	0.027156	1.124884
C100	C	0.385799	0.357842	0.794309
C101	C	0.318775	0.430938	0.791573
C102	C	0.285250	0.424424	0.747131
C103	C	0.318760	0.344806	0.705415
C104	C	0.385788	0.271712	0.708147
C105	C	0.385846	0.271641	1.124899
C106	C	0.318829	0.344715	1.192512
C107	C	0.285299	0.424345	1.183260
C108	C	0.318795	0.430899	1.106389
C109	C	0.385815	0.357826	1.038777
C110	C	1.015869	-0.329146	0.403262
C111	C	1.082907	-0.402221	0.335649
C112	C	1.116441	-0.481851	0.344901
C113	C	1.082940	-0.488405	0.421773
C114	C	1.015908	-0.415331	0.489384
C115	C	1.015840	0.001474	0.489450
C116	C	1.082868	-0.001262	0.421859
C117	C	1.116387	-0.045699	0.344976
C118	C	1.082882	-0.087409	0.335687
C119	C	1.015860	-0.084678	0.403277
C120	C	1.015908	-0.329196	0.820011
C121	C	1.082933	-0.402279	0.822761
C122	C	1.116458	-0.481903	0.781055
C123	C	1.082948	-0.488442	0.736603
C124	C	1.015919	-0.415360	0.733859
H125	H	0.413125	-0.095154	0.830442
Br126	Br	0.870424	0.303958	0.611682
H127	H	0.291485	0.495743	1.098868
Br128	Br	0.171252	0.051413	0.683985
Br129	Br	0.689787	-0.165234	0.339356
H130	H	0.413162	-0.095181	0.976115
Br131	Br	0.689751	0.407611	0.626712
H132	H	1.110254	-0.553282	0.702648
H133	H	0.413088	0.363162	0.830499
Br134	Br	0.273277	0.090325	0.645092
Br135	Br	0.273382	0.335800	1.296827
Br136	Br	0.431276	0.083844	0.651549
H137	H	0.824594	-0.162395	0.147018
Br138	Br	0.870332	-0.195092	0.253647
Br139	Br	0.970371	-0.221086	0.390683
Br140	Br	0.194342	0.523509	1.275028
H141	H	0.715880	0.074058	0.315525
Br142	Br	0.230420	-0.108884	0.844201
Br143	Br	0.536771	0.140443	0.413417
Br144	Br	0.871719	-0.057625	0.251475
Br145	Br	1.128323	0.055352	0.434485
Br146	Br	1.207414	-0.581016	0.253134
Br147	Br	0.698612	-0.171324	0.193655
H148	H	0.413057	0.206894	0.674184
H149	H	0.562946	0.491257	0.785074
Br150	Br	0.273310	0.538979	0.848193
H151	H	0.230671	0.483949	0.744913
Br152	Br	0.970368	0.061785	0.593782
Br153	Br	1.207346	-0.049398	0.253253
H154	H	0.291454	0.339515	0.669231
Br155	Br	0.970397	-0.141280	0.390653
H156	H	0.413074	0.363176	0.976194
H157	H	0.988648	-0.420698	0.697660
Br158	Br	0.431342	0.163581	1.137477
Br159	Br	1.128356	-0.393306	0.231334
H160	H	0.110164	0.032680	0.702699
H161	H	0.988622	-0.264370	0.853974
H162	H	1.110252	-0.553248	0.429297
Br163	Br	0.970450	-0.424244	0.593696
H164	H	1.110184	-0.123589	0.273080
H165	H	0.822245	-0.030654	0.147811
H166	H	0.824580	0.458452	0.640560
Br167	Br	0.698579	0.544043	0.621341
H168	H	1.110210	-0.396938	0.858957
Br169	Br	1.207428	-0.581078	0.784786
H170	H	0.110216	-0.123672	0.858958
Br171	Br	-0.029571	-0.141343	0.876616
H172	H	0.562723	0.607100	0.784901
Br173	Br	-0.029614	0.061776	0.673582
Br174	Br	0.536775	0.494113	0.919855
Br175	Br	0.691137	0.545719	0.912151
Br176	Br	0.537091	0.635502	0.918907
H177	H	0.291523	-0.090163	0.825471
Br178	Br	0.871732	0.304517	0.749171
Br179	Br	0.870780	0.445233	0.750569
Br180	Br	0.537080	0.139475	0.271711
Br181	Br	0.693101	0.403915	0.910809
Br182	Br	0.536768	-0.012471	0.273263
Br183	Br	0.537187	-0.012414	0.414015
H184	H	0.714450	0.075122	0.200645
H185	H	0.291595	-0.090240	1.098723
Br186	Br	0.273350	0.090181	1.296821
H187	H	0.413125	0.061129	1.132460
H188	H	0.230781	-0.009626	1.238216
