data_functionalizedCrystal
_audit_creation_method	'MofGen! by Chris Wilmer'
_symmetry_space_group_name_H-M	'P1'
_symmetry_Int_Tables_number	1
_symmetry_cell_setting	triclinic
loop_
_symmetry_equiv_pos_as_xyz
  x,y,z
_cell_length_a	18.050591
_cell_length_b	19.121063
_cell_length_c	18.050582
_cell_angle_alpha	92.415032
_cell_angle_beta	89.979078
_cell_angle_gamma	92.465257
loop_
_atom_site_label
_atom_site_type_symbol
_atom_site_fract_x
_atom_site_fract_y
_atom_site_fract_z
Zn1	Zn	1.122676	-0.279734	-0.432630
Zn2	Zn	1.372676	-0.029734	-0.182630
Zn3	Zn	1.622676	0.220266	0.067370
Zn4	Zn	1.872676	0.470266	0.317370
Zn5	Zn	1.117290	-0.397178	-0.313729
Zn6	Zn	1.367290	-0.147178	-0.063729
Zn7	Zn	1.617290	0.102822	0.186271
Zn8	Zn	1.867290	0.352822	0.436271
Zn9	Zn	0.998495	-0.279737	-0.308441
Zn10	Zn	1.248495	-0.029737	-0.058441
Zn11	Zn	1.498495	0.220263	0.191559
Zn12	Zn	1.748495	0.470263	0.441559
Zn13	Zn	0.993148	-0.397141	-0.437863
Zn14	Zn	1.243148	-0.147141	-0.187863
Zn15	Zn	1.493148	0.102859	0.062137
Zn16	Zn	1.743148	0.352859	0.312137
O17	O	1.057903	-0.338447	-0.373166
O18	O	1.307903	-0.088447	-0.123166
O19	O	1.557903	0.161553	0.126834
O20	O	1.807903	0.411553	0.376834
O21	O	1.225886	-0.295327	-0.416880
O22	O	1.475886	-0.045327	-0.166880
O23	O	1.725886	0.204673	0.083120
O24	O	1.975886	0.454673	0.333120
O25	O	1.101515	-0.381616	-0.209104
O26	O	1.351515	-0.131616	0.040896
O27	O	1.601515	0.118384	0.290896
O28	O	1.851515	0.368384	0.540896
O29	O	1.019460	-0.181452	-0.320512
O30	O	1.269460	0.068548	-0.070512
O31	O	1.519460	0.318548	0.179488
O32	O	1.769460	0.568548	0.429488
O33	O	1.221929	-0.381613	-0.329524
O34	O	1.471929	-0.131613	-0.079524
O35	O	1.721929	0.118387	0.170476
O36	O	1.971929	0.368387	0.420476
O37	O	1.110695	-0.181449	-0.411753
O38	O	1.360695	0.068551	-0.161753
O39	O	1.610695	0.318551	0.088247
O40	O	1.860695	0.568551	0.338247
O41	O	1.014237	-0.295332	-0.205219
O42	O	1.264237	-0.045332	0.044781
O43	O	1.514237	0.204668	0.294781
O44	O	1.764237	0.454668	0.544781
O45	O	0.893862	-0.295296	-0.325586
O46	O	1.143862	-0.045296	-0.075586
O47	O	1.393862	0.204704	0.174414
O48	O	1.643862	0.454704	0.424414
O49	O	1.010347	-0.381550	-0.541093
O50	O	1.260347	-0.131550	-0.291093
O51	O	1.510347	0.118450	-0.041093
O52	O	1.760347	0.368450	0.208907
O53	O	0.889934	-0.381552	-0.420672
O54	O	1.139934	-0.131552	-0.170672
O55	O	1.389934	0.118448	0.079328
O56	O	1.639934	0.368448	0.329328
O57	O	1.105510	-0.295291	-0.537248
O58	O	1.355510	-0.045291	-0.287248
O59	O	1.605510	0.204709	-0.037248
O60	O	1.855510	0.454709	0.212752
O61	O	1.096331	-0.495458	-0.334599
O62	O	1.346331	-0.245458	-0.084599
O63	O	1.596331	0.004542	0.165401
O64	O	1.846331	0.254542	0.415401
O65	O	1.005124	-0.495430	-0.425799
O66	O	1.255124	-0.245430	-0.175799
O67	O	1.505124	0.004570	0.074201
O68	O	1.755124	0.254570	0.324201
C69	C	0.864952	-0.338421	-0.373123
C70	C	1.114952	-0.088421	-0.123123
C71	C	1.364952	0.161579	0.126877
C72	C	1.614952	0.411579	0.376877
C73	C	0.782406	-0.338427	-0.373124
C74	C	1.032406	-0.088427	-0.123124
C75	C	1.282406	0.161573	0.126876
C76	C	1.532406	0.411573	0.376876
C77	C	0.585072	-0.291466	-0.321528
C78	C	0.835072	-0.041466	-0.071528
C79	C	1.085072	0.208534	0.178472
C80	C	1.335072	0.458534	0.428472
C81	C	0.532763	-0.355526	-0.306137
C82	C	0.782763	-0.105526	-0.056137
C83	C	1.032763	0.144474	0.193863
C84	C	1.282763	0.394474	0.443863
C85	C	0.631274	-0.338448	-0.373158
C86	C	0.881274	-0.088448	-0.123158
C87	C	1.131274	0.161552	0.126842
C88	C	1.381274	0.411552	0.376842
C89	C	0.536500	-0.274410	-0.388548
C90	C	0.786500	-0.024410	-0.138548
C91	C	1.036500	0.225590	0.111452
C92	C	1.286500	0.475590	0.361452
C93	C	0.485288	-0.338463	-0.373190
C94	C	0.735288	-0.088463	-0.123190
C95	C	0.985288	0.161537	0.126810
C96	C	1.235288	0.411537	0.376810
C97	C	0.580051	-0.402542	-0.357733
C98	C	0.830051	-0.152542	-0.107733
C99	C	1.080051	0.097458	0.142267
C100	C	1.330051	0.347458	0.392267
C101	C	0.583794	-0.321383	-0.440174
C102	C	0.833794	-0.071383	-0.190174
C103	C	1.083794	0.178617	0.059826
C104	C	1.333794	0.428617	0.309826
C105	C	0.531506	-0.385487	-0.424811
C106	C	0.781506	-0.135487	-0.174811
C107	C	1.031506	0.114513	0.075189
C108	C	1.281506	0.364513	0.325189
C109	C	0.715373	-0.338439	-0.373138
C110	C	0.965373	-0.088439	-0.123138
C111	C	1.215373	0.161561	0.126862
C112	C	1.465373	0.411561	0.376862
C113	C	0.401191	-0.338480	-0.373211
C114	C	0.651191	-0.088480	-0.123211
C115	C	0.901191	0.161520	0.126789
C116	C	1.151191	0.411520	0.376789
C117	C	1.049583	-0.520928	-0.381357
C118	C	1.299583	-0.270928	-0.131357
C119	C	1.549583	-0.020928	0.118643
C120	C	1.799583	0.229072	0.368643
C121	C	1.046092	-0.598994	-0.384886
C122	C	1.296092	-0.348994	-0.134886
C123	C	1.546092	-0.098994	0.115114
C124	C	1.796092	0.151006	0.365114
C125	C	1.091975	-0.635661	-0.339100
C126	C	1.341975	-0.385661	-0.089100
C127	C	1.591975	-0.135661	0.160900
C128	C	1.841975	0.114339	0.410900
C129	C	1.088695	-0.709012	-0.342424
C130	C	1.338695	-0.459012	-0.092424
C131	C	1.588695	-0.209012	0.157576
C132	C	1.838695	0.040988	0.407576
C133	C	1.039529	-0.745696	-0.391530
C134	C	1.289529	-0.495696	-0.141530
C135	C	1.539529	-0.245696	0.108470
C136	C	1.789529	0.004304	0.358470
C137	C	0.993644	-0.709024	-0.437321
C138	C	1.243644	-0.459024	-0.187321
C139	C	1.493644	-0.209024	0.062679
C140	C	1.743644	0.040976	0.312679
C141	C	0.996928	-0.635674	-0.434001
C142	C	1.246928	-0.385674	-0.184001
C143	C	1.496928	-0.135674	0.065999
C144	C	1.746928	0.114326	0.315999
C145	C	1.027241	-0.967166	-0.403932
C146	C	1.277241	-0.717166	-0.153932
C147	C	1.527241	-0.467166	0.096068
C148	C	1.777241	-0.217166	0.346068
C149	C	1.023960	-1.040521	-0.407247
C150	C	1.273960	-0.790521	-0.157247
C151	C	1.523960	-0.540521	0.092753
C152	C	1.773960	-0.290521	0.342753
C153	C	1.119012	-1.040504	-0.312351
C154	C	1.369012	-0.790504	-0.062351
C155	C	1.619012	-0.540504	0.187649
C156	C	1.869012	-0.290504	0.437649
C157	C	1.122288	-0.967153	-0.309032
C158	C	1.372288	-0.717153	-0.059032
C159	C	1.622288	-0.467153	0.190968
C160	C	1.872288	-0.217153	0.440968
C161	C	1.076406	-0.930487	-0.354825
C162	C	1.326406	-0.680487	-0.104825
C163	C	1.576406	-0.430487	0.145175
C164	C	1.826406	-0.180487	0.395175
C165	C	1.036174	-0.820673	-0.394927
C166	C	1.286174	-0.570673	-0.144927
C167	C	1.536174	-0.320673	0.105073
C168	C	1.786174	-0.070673	0.355073
C169	C	1.079765	-0.855512	-0.351432
C170	C	1.329765	-0.605512	-0.101432
C171	C	1.579765	-0.355512	0.148568
C172	C	1.829765	-0.105512	0.398568
C173	C	1.251607	-0.338474	-0.373208
C174	C	1.501607	-0.088474	-0.123208
C175	C	1.751607	0.161526	0.126792
C176	C	2.001607	0.411526	0.376792
C177	C	1.334152	-0.338485	-0.373227
C178	C	1.584152	-0.088485	-0.123227
C179	C	1.834152	0.161515	0.126773
C180	C	2.084152	0.411515	0.376773
C181	C	1.057933	-0.338416	-0.566870
C182	C	1.307933	-0.088416	-0.316870
C183	C	1.557933	0.161584	-0.066870
C184	C	1.807933	0.411584	0.183130
C185	C	1.057946	-0.338403	-0.649415
C186	C	1.307946	-0.088403	-0.399415
C187	C	1.557946	0.161597	-0.149415
C188	C	1.807946	0.411597	0.100585
C189	C	1.066275	-0.155254	-0.364959
C190	C	1.316275	0.094746	-0.114959
C191	C	1.566275	0.344746	0.135041
C192	C	1.816275	0.594746	0.385041
C193	C	1.069843	-0.077188	-0.361461
C194	C	1.319843	0.172812	-0.111461
C195	C	1.569843	0.422812	0.138539
C196	C	1.819843	0.672812	0.388539
C197	C	1.006237	-0.385246	-0.850954
C198	C	1.256237	-0.135246	-0.600954
C199	C	1.506237	0.114754	-0.350954
C200	C	1.756237	0.364754	-0.100954
C201	C	1.073218	-0.402419	-0.901126
C202	C	1.323218	-0.152419	-0.651126
C203	C	1.573218	0.097581	-0.401126
C204	C	1.823218	0.347581	-0.151126
C205	C	1.057985	-0.338349	-0.800543
C206	C	1.307985	-0.088349	-0.550543
C207	C	1.557985	0.161651	-0.300543
C208	C	1.807985	0.411651	-0.050543
C209	C	0.991042	-0.321157	-0.897452
C210	C	1.241042	-0.071157	-0.647452
C211	C	1.491042	0.178843	-0.397452
C212	C	1.741042	0.428843	-0.147452
C213	C	1.058017	-0.338299	-0.946526
C214	C	1.308017	-0.088299	-0.696526
C215	C	1.558017	0.161701	-0.446526
C216	C	1.808017	0.411701	-0.196526
C217	C	1.125000	-0.355556	-0.849629
C218	C	1.375000	-0.105556	-0.599629
C219	C	1.625000	0.144444	-0.349629
C220	C	1.875000	0.394444	-0.099629
C221	C	1.042780	-0.274264	-0.845950
C222	C	1.292780	-0.024264	-0.595950
C223	C	1.542780	0.225736	-0.345950
C224	C	1.792780	0.475736	-0.095950
C225	C	1.109809	-0.291412	-0.896099
C226	C	1.359809	-0.041412	-0.646099
C227	C	1.609809	0.208588	-0.396099
C228	C	1.859809	0.458588	-0.146099
C229	C	1.057966	-0.338380	-0.716446
C230	C	1.307966	-0.088380	-0.466446
C231	C	1.557966	0.161620	-0.216446
C232	C	1.807966	0.411620	0.033554
C233	C	1.058044	-0.338268	-1.030621
C234	C	1.308044	-0.088268	-0.780621
C235	C	1.558044	0.161732	-0.530621
C236	C	1.808044	0.411732	-0.280621
C237	C	1.057917	-0.338428	-0.180213
C238	C	1.307917	-0.088428	0.069787
C239	C	1.557917	0.161572	0.319787
C240	C	1.807917	0.411572	0.569787
C241	C	1.058057	-0.338243	-0.097659
C242	C	1.308057	-0.088243	0.152341
C243	C	1.558057	0.161757	0.402341
C244	C	1.808057	0.411757	0.652341
H245	H	0.608520	-0.251778	-0.277822
H246	H	0.858520	-0.001778	-0.027822
H247	H	1.108520	0.248222	0.222178
H248	H	1.358520	0.498222	0.472178
H249	H	0.599186	-0.456720	-0.344666
H250	H	0.849186	-0.206720	-0.094666
H251	H	1.099186	0.043280	0.155334
H252	H	1.349186	0.293280	0.405334
H253	H	1.153633	-0.251732	-0.915852
H254	H	1.403633	-0.001732	-0.665852
H255	H	1.653633	0.248268	-0.415852
H256	H	1.903633	0.498268	-0.165852
F257	F	1.174626	-0.928117	-0.256774
F258	F	1.424626	-0.678117	-0.006774
F259	F	1.674626	-0.428117	0.243226
F260	F	1.924626	-0.178117	0.493226
F261	F	1.167843	-1.079531	-0.263621
F262	F	1.417843	-0.829531	-0.013621
F263	F	1.667843	-0.579531	0.236379
F264	F	1.917843	-0.329531	0.486379
F265	F	1.199031	-0.374621	-0.822263
F266	F	1.449031	-0.124621	-0.572263
F267	F	1.699031	0.125379	-0.322263
F268	F	1.949031	0.375379	-0.072263
F269	F	0.949086	-0.437149	-0.824955
F270	F	1.199086	-0.187149	-0.574955
F271	F	1.449086	0.062851	-0.324955
F272	F	1.699086	0.312851	-0.074955
F273	F	1.025920	-0.203474	-0.814375
F274	F	1.275920	0.046526	-0.564375
F275	F	1.525920	0.296526	-0.314375
F276	F	1.775920	0.546526	-0.064375
F277	F	0.917030	-0.302177	-0.924946
F278	F	1.167030	-0.052177	-0.674946
F279	F	1.417030	0.197823	-0.424946
F280	F	1.667030	0.447823	-0.174946
H281	H	1.086097	-0.456593	-0.925266
H282	H	1.336097	-0.206593	-0.675266
H283	H	1.586097	0.043407	-0.425266
H284	H	1.836097	0.293407	-0.175266
H285	H	0.508190	-0.425270	-0.468489
H286	H	0.758190	-0.175270	-0.218489
H287	H	1.008190	0.074730	0.031511
H288	H	1.258190	0.324730	0.281511
H289	H	0.510374	-0.369971	-0.249476
H290	H	0.760374	-0.119971	0.000524
H291	H	1.010374	0.130029	0.250524
H292	H	1.260374	0.380029	0.500524
F293	F	1.137533	-0.748032	-0.293694
F294	F	1.387533	-0.498032	-0.043694
F295	F	1.637533	-0.248032	0.206306
F296	F	1.887533	0.001968	0.456306
H297	H	0.606202	-0.306918	-0.496817
H298	H	0.856202	-0.056918	-0.246817
H299	H	1.106202	0.193082	0.003183
H300	H	1.356202	0.443082	0.253183
H301	H	0.989881	-0.937319	-0.441218
H302	H	1.239881	-0.687319	-0.191218
H303	H	1.489881	-0.437319	0.058782
H304	H	1.739881	-0.187319	0.308782
F305	F	0.511365	-0.203618	-0.405545
F306	F	0.761365	0.046382	-0.155545
F307	F	1.011365	0.296382	0.094455
F308	F	1.261365	0.546382	0.344455
F309	F	1.144300	-0.596626	-0.286830
F310	F	1.394300	-0.346626	-0.036830
F311	F	1.644300	-0.096626	0.213170
F312	F	1.894300	0.153374	0.463170
H313	H	0.983931	-1.070387	-0.447248
H314	H	1.233931	-0.820387	-0.197248
H315	H	1.483931	-0.570387	0.052752
H316	H	1.733931	-0.320387	0.302752
F317	F	0.941321	-0.748067	-0.489588
F318	F	1.191321	-0.498067	-0.239588
F319	F	1.441321	-0.248067	0.010412
F320	F	1.691321	0.001933	0.260412
F321	F	0.948094	-0.596651	-0.482734
F322	F	1.198094	-0.346651	-0.232734
F323	F	1.448094	-0.096651	0.017266
F324	F	1.698094	0.153349	0.267266
H325	H	1.119799	-0.825642	-0.311452
H326	H	1.369799	-0.575642	-0.061452
H327	H	1.619799	-0.325642	0.188548
H328	H	1.869799	-0.075642	0.438548
H329	H	0.996142	-0.850549	-0.434907
H330	H	1.246142	-0.600549	-0.184907
H331	H	1.496142	-0.350549	0.065093
H332	H	1.746142	-0.100549	0.315093
