data_functionalizedCrystal
_audit_creation_method	'MofGen! by Chris Wilmer'
_symmetry_space_group_name_H-M	'P1'
_symmetry_Int_Tables_number	1
_symmetry_cell_setting	triclinic
loop_
_symmetry_equiv_pos_as_xyz
  x,y,z
_cell_length_a	20.875859
_cell_length_b	23.196402
_cell_length_c	23.196401
_cell_angle_alpha	90.013454
_cell_angle_beta	58.320594
_cell_angle_gamma	58.329611
loop_
_atom_site_label
_atom_site_type_symbol
_atom_site_fract_x
_atom_site_fract_y
_atom_site_fract_z
Zr1	Zr	0.740436	0.520974	-0.110170
O2	O	0.881552	0.422354	-0.208796
O3	O	0.599319	0.555748	-0.075375
O4	O	0.740439	0.549170	-0.202222
O5	O	0.740429	0.428955	0.012922
O6	O	0.740444	0.644039	-0.202224
O7	O	0.740431	0.428932	-0.081949
O8	O	0.488005	0.655805	0.024682
O9	O	0.992868	0.417188	-0.213983
O10	O	0.657366	0.635891	-0.066047
O11	O	0.657362	0.565109	0.004756
O12	O	0.823513	0.557364	-0.144590
O13	O	0.823508	0.486582	-0.073787
Zr14	Zr	0.740441	0.672315	0.041136
Zr15	Zr	0.740443	0.672279	-0.110173
Zr16	Zr	0.740433	0.521011	0.041139
Zr17	Zr	0.917973	0.512735	-0.118443
Zr18	Zr	0.562904	0.680554	0.049410
O19	O	0.881558	0.637541	0.006342
O20	O	0.881562	0.637489	-0.208800
O21	O	0.881548	0.422406	0.006346
O22	O	0.599325	0.770935	0.139763
O23	O	0.599329	0.770883	-0.075379
O24	O	0.599315	0.555800	0.139767
O25	O	0.740447	0.764334	-0.081956
O26	O	0.740438	0.644119	0.133189
O27	O	0.740433	0.549251	0.133191
O28	O	0.740446	0.764357	0.012916
O29	O	0.992874	0.537455	-0.213986
O30	O	0.488003	0.655834	0.144953
O31	O	0.488009	0.776101	0.144950
O32	O	0.488011	0.776072	0.024680
O33	O	0.992866	0.417217	-0.093713
O34	O	0.992872	0.537484	-0.093715
O35	O	0.657364	0.635925	0.075556
O36	O	0.657369	0.706707	0.004753
O37	O	0.823515	0.628180	-0.073789
O38	O	0.823510	0.557398	-0.002987
C39	C	0.518367	0.606950	-0.024168
C40	C	0.442997	0.610448	-0.020655
C41	C	0.740429	0.407386	-0.034513
C42	C	0.740426	0.343153	-0.034512
C43	C	0.012001	0.636300	0.005088
C44	C	0.082847	0.632973	0.001775
C45	C	0.179572	0.576184	-0.055001
C46	C	0.205450	0.522722	-0.108472
C47	C	0.134604	0.526052	-0.105162
C48	C	0.398030	0.560316	-0.070816
C49	C	0.468876	0.556989	-0.074121
C50	C	0.346268	0.667241	0.036126
C51	C	0.275426	0.670564	0.039434
C52	C	0.301310	0.617104	-0.014039
N53	N	0.251990	0.572781	-0.058388
N54	N	0.228893	0.620511	-0.010655
C55	C	0.653725	-0.078704	0.006484
C56	C	0.653719	-0.018347	0.006482
C57	C	0.740445	-0.029154	-0.034516
C58	C	0.827182	-0.100327	-0.075530
C59	C	0.827185	-0.160682	-0.075532
C60	C	0.806885	0.035071	-0.032332
C61	C	0.806879	0.095427	-0.032324
C62	C	0.740439	0.156999	-0.034511
C63	C	0.673990	0.158216	-0.036691
C64	C	0.673993	0.097861	-0.036694
C65	C	0.740451	0.036286	-0.034518
C66	C	0.653701	0.293608	0.006494
C67	C	0.653700	0.353965	0.006487
C68	C	0.827165	0.271983	-0.075519
C69	C	0.827165	0.211629	-0.075517
C70	C	0.740430	0.222446	-0.034506
C71	C	0.962510	0.586339	-0.044866
C72	C	1.037879	0.582841	-0.048378
C73	C	0.740442	0.596599	-0.223781
C74	C	0.740443	0.596584	-0.288016
C75	C	0.740448	0.785903	-0.034520
C76	C	0.740451	0.850136	-0.034522
C77	C	0.827167	0.555597	-0.359187
C78	C	0.827168	0.555615	-0.419543
C79	C	0.740441	0.596610	-0.408722
C80	C	0.653705	0.637605	-0.337538
C81	C	0.653706	0.637592	-0.277185
C82	C	0.673994	0.594444	-0.472943
C83	C	0.673996	0.594452	-0.533296
C84	C	0.740433	0.596655	-0.594869
C85	C	0.806884	0.598835	-0.596089
C86	C	0.806886	0.598822	-0.535736
C87	C	0.740430	0.596629	-0.474160
C88	C	0.827165	0.555686	-0.731488
C89	C	0.827162	0.555709	-0.791843
C90	C	0.653697	0.637695	-0.709836
C91	C	0.653701	0.637676	-0.649483
C92	C	0.740438	0.596668	-0.660314
C93	C	0.740435	0.596690	0.154748
C94	C	0.740434	0.596705	0.218983
C95	C	0.518376	0.796209	-0.024171
C96	C	0.443010	0.863939	-0.020660
C97	C	0.518363	0.606996	0.165097
C98	C	0.442993	0.610509	0.232844
C99	C	0.518372	0.796254	0.165093
C100	C	0.443005	0.864000	0.232839
C101	C	0.962504	0.397035	-0.234126
C102	C	1.037872	0.329289	-0.301872
C103	C	0.962501	0.397080	-0.044862
C104	C	1.037867	0.329350	-0.048373
C105	C	0.962514	0.586293	-0.234130
C106	C	1.037884	0.582780	-0.301877
C107	C	0.407616	0.858781	-0.055975
C108	C	0.336811	0.922415	-0.052690
C109	C	0.301397	0.991206	-0.014087
C110	C	0.336798	0.996363	0.021228
C111	C	0.407606	0.932730	0.017939
C112	C	0.407599	0.649124	0.301622
C113	C	0.336791	0.652422	0.365283
C114	C	0.301372	0.617109	0.360164
C115	C	0.336773	0.578489	0.291379
C116	C	0.407585	0.575187	0.227719
C117	C	0.407614	0.932768	0.227695
C118	C	0.336809	0.996428	0.291343
C119	C	0.301390	0.991318	0.360134
C120	C	0.336788	0.922543	0.365277
C121	C	0.407597	0.858884	0.301630
C122	C	1.073271	0.260520	-0.296728
C123	C	1.144099	0.196860	-0.360377
C124	C	1.179521	0.201969	-0.429169
C125	C	1.144118	0.270745	-0.434312
C126	C	1.073297	0.334404	-0.370664
C127	C	1.073268	0.334508	-0.013065
C128	C	1.144092	0.270873	-0.016367
C129	C	1.179509	0.202081	-0.054973
C130	C	1.144105	0.196925	-0.090285
C131	C	1.073287	0.260558	-0.086987
C132	C	1.073280	0.618102	-0.296735
C133	C	1.144089	0.614815	-0.360384
C134	C	1.179505	0.576202	-0.429175
C135	C	1.144102	0.540879	-0.434316
C136	C	1.073290	0.544171	-0.370667
H137	H	-0.066754	0.682541	0.051324
C138	C	0.446500	0.532714	0.152065
N139	N	0.475806	0.500723	0.095084
C140	C	0.169029	0.733055	0.101874
N141	N	0.088890	0.780129	0.148900
H142	H	1.237166	0.573527	-0.480996
C143	C	0.922575	0.510524	-0.497843
N144	N	0.994436	0.476562	-0.556817
C145	C	0.297825	1.072041	0.063696
N146	N	0.268462	1.129045	0.095688
C147	C	0.297854	0.694916	0.440940
N148	N	0.268527	0.726926	0.497923
C149	C	1.183037	0.498438	-0.509992
N150	N	1.212356	0.466479	-0.566992
C151	C	1.034354	0.410048	-0.376334
N152	N	1.005024	0.467023	-0.380610
H153	H	0.436442	0.936943	0.171687
C154	C	0.223491	1.061352	0.430143
N155	N	0.164813	1.114104	0.482871
H156	H	0.307925	0.549738	0.287222
H157	H	0.436450	0.802773	-0.087419
C158	C	0.223468	0.620756	0.430199
N159	N	0.164785	0.623509	0.482953
C160	C	0.879976	-0.032656	-0.029923
N161	N	0.935026	-0.083666	-0.028108
H162	H	1.044437	0.390516	0.018377
C163	C	0.426513	0.501494	-0.129623
N164	N	0.447968	0.457181	-0.173915
H165	H	1.172911	0.140866	-0.356176
C166	C	0.297876	1.072074	0.285670
N167	N	0.268551	1.129049	0.281395
H168	H	1.044455	0.649544	-0.240728
H169	H	1.172952	0.140906	-0.121717
H170	H	0.243740	1.043015	-0.011414
H171	H	1.237188	0.150128	-0.480990
H172	H	1.172906	0.275086	0.012392
H173	H	0.583094	0.039602	0.039886
H174	H	0.061768	0.676507	0.045311
C175	C	0.297810	0.916935	0.440956
N176	N	0.268443	0.912713	0.497959
C177	C	0.446522	0.938417	0.056799
N178	N	0.475829	0.942706	0.086072
C179	C	0.922576	0.510584	-0.743400
N180	N	0.994441	0.476614	-0.752375
C181	C	0.446517	0.783241	0.307301
N182	N	0.475830	0.726267	0.311578
C183	C	0.922581	-0.112213	-0.120627
N184	N	0.994438	-0.121168	-0.154597
C185	C	1.034326	0.254881	-0.221063
N186	N	1.005002	0.250628	-0.164074
H187	H	0.436429	0.677881	0.305803
H188	H	1.044465	0.256349	-0.115737
C189	C	0.311851	0.460257	-0.170931
N190	N	0.391992	0.413207	-0.217976
C191	C	1.183084	0.276354	-0.509990
N192	N	1.212430	0.280576	-0.566992
C193	C	1.257407	0.132089	-0.058590
N194	N	1.316077	0.079374	-0.061309
H195	H	0.897787	0.522335	-0.849796
C196	C	1.183024	0.653671	-0.354713
N197	N	1.212348	0.682936	-0.350440
C198	C	0.600904	0.592018	-0.405214
N199	N	0.545856	0.590190	-0.354203
H200	H	1.044478	0.515404	-0.374864
H201	H	0.583091	0.670985	-0.328731
H202	H	0.325204	0.710766	0.079660
C203	C	0.575280	0.494515	-0.136584
N204	N	0.655420	0.447462	-0.183628
H205	H	0.155682	0.482521	-0.148700
C206	C	0.558292	0.305506	0.051600
N207	N	0.486430	0.314469	0.085574
C208	C	0.297875	0.916726	-0.091534
N209	N	0.268548	0.912439	-0.120790
C210	C	0.600926	0.099189	-0.039122
N211	N	0.545901	0.100186	-0.040963
C212	C	0.922572	0.133348	-0.120621
N213	N	0.994437	0.074385	-0.154596
C214	C	0.879985	0.094077	-0.029939
N215	N	0.935056	0.093055	-0.028150
C216	C	0.600894	0.225947	-0.039089
N217	N	0.545837	0.276966	-0.040891
H218	H	0.583083	0.670969	-0.219231
H219	H	0.583098	-0.069890	0.039876
H220	H	0.583074	0.411909	0.039874
H221	H	0.897810	-0.218626	-0.108925
C222	C	0.879971	0.601230	-0.537075
N223	N	0.935017	0.603049	-0.538082
H224	H	0.897779	0.263182	-0.108904
C225	C	0.879969	0.601262	-0.663817
N226	N	0.935015	0.603089	-0.714831
H227	H	0.583081	0.671075	-0.701024
C228	C	0.558297	0.682757	-0.571189
N229	N	0.486433	0.716715	-0.512216
H230	H	0.897795	0.522208	-0.368013
C231	C	0.600903	0.592050	-0.531950
N232	N	0.545846	0.590240	-0.530934
