data_functionalizedCrystal
_audit_creation_method	'MofGen! by Chris Wilmer'
_symmetry_space_group_name_H-M	'P1'
_symmetry_Int_Tables_number	1
_symmetry_cell_setting	triclinic
loop_
_symmetry_equiv_pos_as_xyz
  x,y,z
_cell_length_a	6.394989
_cell_length_b	14.971486
_cell_length_c	13.448316
_cell_angle_alpha	90.001801
_cell_angle_beta	90.003556
_cell_angle_gamma	85.055920
loop_
_atom_site_label
_atom_site_type_symbol
_atom_site_fract_x
_atom_site_fract_y
_atom_site_fract_z
O1	O	-0.272213	-1.189891	-0.082571
O2	O	-0.304810	-0.929844	-0.082597
O3	O	0.015543	-1.063559	-0.082584
O4	O	-0.592567	-1.056176	-0.082583
O5	O	0.015563	-1.063541	0.082800
O6	O	-0.304791	-0.929826	0.082787
O7	O	-0.272193	-1.189874	0.082813
Cu8	Cu	-0.288490	-1.059848	0.097901
Cu9	Cu	-0.288513	-1.059869	-0.097685
O10	O	-0.592547	-1.056159	0.082800
C11	C	-0.303343	-0.896494	0.000091
C12	C	-0.298974	-0.797150	0.000081
C13	C	-0.273661	-1.223223	0.000122
C14	C	-0.278029	-1.322567	0.000126
N15	N	-0.288472	-1.059840	0.235465
C16	C	0.093378	-1.062090	0.000104
C17	C	0.329624	-1.057629	0.000102
N18	N	-0.288515	-1.059884	-0.235249
C19	C	-0.487173	-0.741960	0.000083
C20	C	-0.483056	-0.648616	0.000098
C21	C	-0.290737	-0.610464	0.000104
C22	C	-0.102524	-0.665661	0.000105
C23	C	-0.106643	-0.759003	0.000097
C24	C	-0.093951	-0.471106	0.000119
C25	C	-0.089830	-0.377757	0.000125
C26	C	-0.470364	-0.360719	0.000119
C27	C	-0.474483	-0.454061	0.000111
C28	C	-0.286268	-0.509252	0.000111
C29	C	-0.146678	-1.119069	0.287511
C30	C	-0.146676	-1.119074	0.391614
C31	C	-0.288480	-1.059855	0.443670
C32	C	-0.430282	-1.000620	0.391616
C33	C	-0.430272	-1.000611	0.287515
C34	C	-0.430296	-1.000645	0.608596
C35	C	-0.430309	-1.000655	0.712705
C36	C	-0.146700	-1.119109	0.712696
C37	C	-0.146690	-1.119099	0.608594
C38	C	-0.288495	-1.059865	0.556548
H39	H	-0.643782	-0.773016	0.000077
H40	H	0.046608	-0.803939	0.000096
C41	C	0.133670	-1.236147	0.297969
C42	C	0.009205	-1.184164	0.230297
H43	H	0.229918	-1.276329	0.262648
H44	H	0.046592	-1.269303	0.338560
H45	H	0.208936	-1.198062	0.338585
H46	H	-0.066074	-1.222249	0.189686
H47	H	0.096293	-1.151006	0.189690
H48	H	-0.636307	-0.603684	0.000098
H49	H	-0.545761	-0.952408	0.566224
H50	H	-0.031215	-1.167302	0.433990
C51	C	0.133656	-1.236183	0.619036
C52	C	0.009183	-1.184193	0.551373
H53	H	0.229896	-1.276363	0.583707
H54	H	0.046584	-1.269340	0.659626
H55	H	0.208932	-1.198102	0.659653
H56	H	-0.066105	-1.222273	0.510761
H57	H	0.096267	-1.151033	0.510765
C58	C	-0.710576	-0.883537	0.702263
C59	C	-0.586141	-0.935544	0.769927
H60	H	-0.806763	-0.843334	0.737592
H61	H	-0.785894	-0.921599	0.661658
H62	H	-0.623457	-0.850397	0.661662
H63	H	-0.673260	-0.968690	0.810523
H64	H	-0.510819	-0.897478	0.810549
C65	C	-0.475142	-0.879418	0.508714
C66	C	-0.586152	-0.935526	0.448838
H67	H	-0.571379	-0.839237	0.544043
H68	H	-0.388086	-0.846263	0.468114
H69	H	-0.390701	-0.914706	0.554605
H70	H	-0.670582	-0.900238	0.402942
H71	H	-0.673245	-0.968684	0.489442
C72	C	-0.710625	-0.883536	0.297974
C73	C	-0.586146	-0.935509	0.230302
H74	H	-0.806861	-0.843346	0.262651
H75	H	-0.623555	-0.850389	0.338585
H76	H	-0.785906	-0.921626	0.338569
H77	H	-0.510853	-0.897419	0.189711
H78	H	-0.673227	-0.968659	0.189674
C79	C	-0.699851	-0.549177	0.085087
C80	C	-0.685866	-0.496012	0.000085
H81	H	-0.830343	-0.575081	0.085062
H82	H	-0.690385	-0.513121	0.142758
H83	H	-0.588321	-0.595393	0.085079
H84	H	-0.797387	-0.449791	0.000096
H85	H	-0.695353	-0.532069	-0.057601
C86	C	-0.633037	-0.210070	0.000136
C87	C	-0.677256	-0.300056	0.000121
H88	H	-0.760761	-0.172619	0.000138
H89	H	-0.554195	-0.198275	-0.057527
H90	H	-0.554194	-0.198285	0.057819
H91	H	-0.756086	-0.311842	-0.057566
H92	H	-0.756131	-0.311855	0.057791
H93	H	0.066773	-0.346697	0.000131
H94	H	0.059314	-0.516040	0.000120
H95	H	0.054066	-0.634590	0.000124
H96	H	-0.031239	-1.167339	0.755078
