data_functionalizedCrystal
_audit_creation_method	'MofGen! by Chris Wilmer'
_symmetry_space_group_name_H-M	'P1'
_symmetry_Int_Tables_number	1
_symmetry_cell_setting	triclinic
loop_
_symmetry_equiv_pos_as_xyz
  x,y,z
_cell_length_a	14.971482
_cell_length_b	19.288865
_cell_length_c	13.448316
_cell_angle_alpha	89.988163
_cell_angle_beta	89.993798
_cell_angle_gamma	83.374428
loop_
_atom_site_label
_atom_site_type_symbol
_atom_site_fract_x
_atom_site_fract_y
_atom_site_fract_z
O1	O	1.186460	0.090505	-0.082691
O2	O	0.926001	0.101347	-0.082697
O3	O	1.063757	-0.005180	-0.082674
O4	O	1.048704	0.197032	-0.082714
O5	O	1.063739	-0.005186	0.082710
O6	O	0.925984	0.101341	0.082687
O7	O	1.186443	0.090499	0.082693
Cu8	Cu	1.056212	0.095919	0.097791
Cu9	Cu	1.056232	0.095927	-0.097795
O10	O	1.048687	0.197026	0.082670
C11	C	0.892670	0.100860	-0.000006
C12	C	0.793381	0.099408	-0.000007
C13	C	0.746730	0.098721	0.090145
C14	C	0.653439	0.097346	0.090146
C15	C	0.606800	0.096663	-0.000006
C16	C	0.653457	0.097348	-0.090164
C17	C	0.746747	0.098718	-0.090165
C18	C	0.459010	0.094494	-0.090157
C19	C	0.365713	0.093125	-0.090158
C20	C	0.365703	0.093121	0.090153
C21	C	0.458993	0.094492	0.090153
C22	C	0.505643	0.095178	-0.000006
C23	C	1.063264	-0.031061	0.000021
C24	C	1.061810	-0.108169	0.000030
C25	C	1.142639	-0.152603	0.000036
C26	C	1.141273	-0.225054	0.000021
C27	C	1.059073	-0.253069	0.000018
C28	C	0.978234	-0.208626	0.000006
C29	C	0.979602	-0.136176	0.000011
C30	C	0.994449	-0.361569	0.057947
C31	C	0.993084	-0.434018	0.057947
C32	C	1.054850	-0.476528	-0.000004
C33	C	1.117996	-0.446583	-0.057943
C34	C	1.119364	-0.374133	-0.057938
C35	C	1.057581	-0.331628	0.000011
C36	C	1.134203	-0.599523	-0.000016
C37	C	1.132834	-0.671975	-0.000038
C38	C	0.969793	-0.655545	-0.000043
C39	C	0.971165	-0.583094	-0.000031
C40	C	1.053372	-0.555088	-0.000013
C41	C	1.219774	0.090986	-0.000001
C42	C	1.319063	0.092438	-0.000006
C43	C	1.049180	0.222907	-0.000027
C44	C	1.050634	0.300015	-0.000042
N45	N	1.056204	0.095913	0.235355
N46	N	1.056247	0.095927	-0.235359
C47	C	1.117221	0.048762	0.287406
C48	C	1.117226	0.048762	0.391509
C49	C	1.056219	0.095916	0.443560
C50	C	0.995195	0.143069	0.391502
C51	C	0.995186	0.143066	0.287400
C52	C	0.995220	0.143074	0.608482
C53	C	0.995230	0.143078	0.712590
C54	C	1.117260	0.048770	0.712590
C55	C	1.117251	0.048767	0.608489
C56	C	1.056229	0.095921	0.556438
H57	H	0.615476	0.096787	-0.163567
H58	H	1.166947	0.010375	0.754976
H59	H	0.615463	0.096774	0.163557
H60	H	0.913780	-0.099997	0.000006
H61	H	0.784728	0.099279	-0.163576
H62	H	1.198657	-0.708153	-0.000038
H63	H	0.941663	-0.458393	0.105119
F64	F	1.186562	-0.342265	-0.119603
H65	H	0.945499	0.181460	0.245022
H66	H	0.945550	0.181475	0.754965
F67	F	0.508657	0.095222	-0.186116
H68	H	1.209578	-0.129805	0.000048
F69	F	0.316053	0.092391	0.186108
H70	H	1.168291	-0.481194	-0.105134
H71	H	1.201142	-0.576719	-0.000006
F72	F	1.182159	-0.001423	0.232019
H73	H	0.902865	-0.678354	-0.000050
H74	H	1.207095	-0.261239	0.000022
F75	F	0.508628	0.095225	0.186102
F76	F	0.885134	-0.535802	-0.000034
H77	H	0.945517	0.181460	0.433888
H78	H	1.166910	0.010368	0.433888
F79	F	0.928706	-0.316332	0.119633
F80	F	0.890752	-0.238442	-0.000004
F81	F	0.930269	0.193259	0.553090
H82	H	1.166933	0.010374	0.566109
F83	F	0.316078	0.092397	-0.186107
H84	H	0.784697	0.099282	0.163557
