data_functionalizedCrystal
_audit_creation_method	'MofGen! by Chris Wilmer'
_symmetry_space_group_name_H-M	'P1'
_symmetry_Int_Tables_number	1
_symmetry_cell_setting	triclinic
loop_
_symmetry_equiv_pos_as_xyz
  x,y,z
_cell_length_a	18.215407
_cell_length_b	14.908520
_cell_length_c	18.215399
_cell_angle_alpha	93.269364
_cell_angle_beta	89.980167
_cell_angle_gamma	93.321174
loop_
_atom_site_label
_atom_site_type_symbol
_atom_site_fract_x
_atom_site_fract_y
_atom_site_fract_z
Zn1	Zn	1.108178	-0.359158	-0.433017
Zn2	Zn	1.608178	0.140842	0.066983
Zn3	Zn	1.100989	-0.510027	-0.317051
Zn4	Zn	1.600989	-0.010027	0.182949
Zn5	Zn	0.985109	-0.359188	-0.309966
Zn6	Zn	1.485109	0.140812	0.190034
Zn7	Zn	0.977982	-0.509977	-0.440073
Zn8	Zn	1.477982	-0.009977	0.059927
O9	O	1.043064	-0.434588	-0.375027
O10	O	1.543064	0.065412	0.124973
O11	O	1.210208	-0.379180	-0.417646
O12	O	1.710208	0.120820	0.082354
O13	O	1.085592	-0.490052	-0.213128
O14	O	1.585592	0.009948	0.286872
O15	O	1.007425	-0.232939	-0.320371
O16	O	1.507425	0.267061	0.179629
O17	O	1.204927	-0.490023	-0.332446
O18	O	1.704927	0.009977	0.167554
O19	O	1.097843	-0.232917	-0.410776
O20	O	1.597843	0.267083	0.089224
O21	O	1.000455	-0.379230	-0.207923
O22	O	1.500455	0.120770	0.292077
O23	O	0.881180	-0.379182	-0.327213
O24	O	1.381180	0.120818	0.172787
O25	O	0.995278	-0.489937	-0.542120
O26	O	1.495278	0.010063	-0.042120
O27	O	0.875943	-0.489966	-0.422802
O28	O	1.375943	0.010034	0.077198
O29	O	1.090932	-0.379131	-0.536936
O30	O	1.590932	0.120869	-0.036936
O31	O	1.078681	-0.636266	-0.339288
O32	O	1.578681	-0.136266	0.160712
O33	O	0.988308	-0.636229	-0.429672
O34	O	1.488308	-0.136229	0.070328
C35	C	0.851859	-0.434572	-0.375005
C36	C	1.351859	0.065428	0.124995
C37	C	0.770059	-0.434587	-0.375014
C38	C	1.270059	0.065413	0.124986
C39	C	0.579154	-0.492363	-0.424733
C40	C	1.079154	0.007637	0.075267
C41	C	0.502295	-0.492366	-0.424742
C42	C	1.002295	0.007634	0.075258
C43	C	0.507726	-0.376828	-0.325338
C44	C	1.007726	0.123172	0.174662
C45	C	0.584584	-0.376822	-0.325333
C46	C	1.084584	0.123178	0.174667
C47	C	0.620295	-0.434594	-0.375029
C48	C	1.120295	0.065406	0.124971
C49	C	0.466579	-0.434604	-0.375044
C50	C	0.966579	0.065396	0.124956
C51	C	0.383245	-0.434606	-0.375053
C52	C	0.883245	0.065394	0.124947
C53	C	0.703635	-0.434591	-0.375021
C54	C	1.203635	0.065409	0.124979
C55	C	1.031961	-0.668981	-0.386030
C56	C	1.531961	-0.168981	0.113970
C57	C	1.027278	-0.769256	-0.390762
C58	C	1.527278	-0.269256	0.109238
C59	C	1.112681	-0.957660	-0.305613
C60	C	1.612681	-0.457660	0.194387
C61	C	1.108284	-1.051877	-0.310057
C62	C	1.608284	-0.551877	0.189943
C63	C	1.014091	-1.051908	-0.404097
C64	C	1.514091	-0.551908	0.095903
C65	C	1.018488	-0.957691	-0.399653
C66	C	1.518488	-0.457691	0.100347
C67	C	1.067784	-0.910570	-0.350409
C68	C	1.567784	-0.410570	0.149591
C69	C	1.072177	-0.816352	-0.345962
C70	C	1.572177	-0.316352	0.154038
C71	C	0.977988	-0.816385	-0.440005
C72	C	1.477988	-0.316385	0.059995
C73	C	0.973591	-0.910602	-0.444449
C74	C	1.473591	-0.410602	0.055551
C75	C	1.235017	-0.434604	-0.375049
C76	C	1.735017	0.065396	0.124951
C77	C	1.316815	-0.434611	-0.375059
C78	C	1.816815	0.065389	0.124941
C79	C	1.043112	-0.434526	-0.566977
C80	C	1.543112	0.065474	-0.066977
C81	C	1.043133	-0.434499	-0.648775
C82	C	1.543133	0.065501	-0.148775
C83	C	1.054231	-0.199279	-0.363996
C84	C	1.554231	0.300721	0.136004
C85	C	1.058990	-0.099004	-0.359296
C86	C	1.558990	0.400996	0.140704
C87	C	1.092959	-0.376748	-0.834268
C88	C	1.592959	0.123252	-0.334268
C89	C	1.092969	-0.376722	-0.911126
C90	C	1.592969	0.123278	-0.411126
C91	C	0.993364	-0.492110	-0.916513
C92	C	1.493364	0.007890	-0.416513
C93	C	0.993351	-0.492131	-0.839656
C94	C	1.493351	0.007869	-0.339656
C95	C	1.043153	-0.434452	-0.798536
C96	C	1.543153	0.065548	-0.298536
C97	C	1.043176	-0.434404	-0.952250
C98	C	1.543176	0.065596	-0.452250
C99	C	1.043186	-0.434376	-1.035582
C100	C	1.543186	0.065624	-0.535582
C101	C	1.043142	-0.434478	-0.715198
C102	C	1.543142	0.065522	-0.215198
C103	C	1.043062	-0.434585	-0.183820
C104	C	1.543062	0.065415	0.316180
C105	C	1.043196	-0.434357	-0.102011
C106	C	1.543196	0.065643	0.397989
H107	H	0.608228	-0.539403	-0.465200
H108	H	1.108228	-0.039403	0.034800
H109	H	1.152815	-0.919293	-0.265511
H110	H	1.652815	-0.419293	0.234489
H111	H	0.478640	-0.329793	-0.284876
H112	H	0.978640	0.170207	0.215124
H113	H	0.468801	-0.539406	-0.465216
H114	H	0.968801	-0.039406	0.034784
C115	C	0.629127	-0.314063	-0.271282
C116	C	1.129127	0.185937	0.228718
C117	C	0.581403	-0.263492	-0.227744
C118	C	1.081403	0.236508	0.272256
C119	C	0.622409	-0.205680	-0.177944
C120	C	1.122409	0.294320	0.322056
H121	H	0.660986	-0.274717	-0.297556
H122	H	1.160986	0.225283	0.202444
H123	H	0.657450	-0.348503	-0.240749
H124	H	1.157450	0.151497	0.259251
H125	H	0.553092	-0.229055	-0.258274
H126	H	1.053092	0.270945	0.241726
H127	H	0.549544	-0.302814	-0.201454
H128	H	1.049544	0.197186	0.298546
H129	H	0.650732	-0.240120	-0.147410
H130	H	1.150732	0.259880	0.352590
H131	H	0.654266	-0.166340	-0.204223
H132	H	1.154266	0.333660	0.295777
H133	H	0.590034	-0.171366	-0.148392
H134	H	1.090034	0.328634	0.351608
H135	H	1.133509	-0.329780	-0.800790
H136	H	1.633509	0.170220	-0.300790
C137	C	1.125770	-0.765352	-0.292478
C138	C	1.625770	-0.265352	0.207522
C139	C	1.164161	-0.826762	-0.254214
C140	C	1.664161	-0.326762	0.245786
C141	C	1.213545	-0.779816	-0.204946
C142	C	1.713545	-0.279816	0.295054
H143	H	1.099434	-0.728650	-0.258587
H144	H	1.599434	-0.228650	0.241413
H145	H	1.159573	-0.728560	-0.318910
H146	H	1.659573	-0.228560	0.181090
H147	H	1.130362	-0.863538	-0.227784
H148	H	1.630362	-0.363538	0.272216
H149	H	1.190512	-0.863465	-0.288086
H150	H	1.690512	-0.363465	0.211914
H151	H	1.247349	-0.743024	-0.231378
H152	H	1.747349	-0.243024	0.268622
H153	H	1.187204	-0.743117	-0.171061
H154	H	1.687204	-0.243117	0.328939
H155	H	1.239605	-0.821476	-0.178983
H156	H	1.739605	-0.321476	0.321017
C157	C	1.157064	-1.102841	-0.261331
C158	C	1.657064	-0.602841	0.238669
C159	C	1.201161	-1.041404	-0.217244
C160	C	1.701161	-0.541404	0.282756
C161	C	1.246101	-1.088319	-0.172341
C162	C	1.746101	-0.588319	0.327659
H163	H	1.187463	-1.139543	-0.291163
H164	H	1.687463	-0.639543	0.208837
H165	H	1.127231	-1.139629	-0.230932
H166	H	1.627231	-0.639629	0.269068
H167	H	1.230991	-1.004631	-0.247639
H168	H	1.730991	-0.504631	0.252361
H169	H	1.170781	-1.004700	-0.187397
H170	H	1.670781	-0.504700	0.312603
H171	H	1.216269	-1.125107	-0.141942
H172	H	1.716269	-0.625107	0.358058
H173	H	1.276496	-1.125019	-0.202178
H174	H	1.776496	-0.625019	0.297822
H175	H	1.276022	-1.046641	-0.142418
H176	H	1.776022	-0.546641	0.357582
C177	C	0.920051	-0.961603	-0.497984
C178	C	1.420051	-0.461603	0.002016
C179	C	0.881685	-0.900195	-0.536275
C180	C	1.381685	-0.400195	-0.036275
C181	C	0.832363	-0.947142	-0.585604
C182	C	1.332363	-0.447142	-0.085604
H183	H	0.886222	-0.998420	-0.471619
H184	H	1.386222	-0.498420	0.028381
H185	H	0.946455	-0.998280	-0.531849
H186	H	1.446455	-0.498280	-0.031849
H187	H	0.855283	-0.863533	-0.502415
H188	H	1.355283	-0.363533	-0.002415
H189	H	0.915495	-0.863377	-0.562654
H190	H	1.415495	-0.363377	-0.062654
H191	H	0.858767	-0.983819	-0.619469
H192	H	1.358767	-0.483819	-0.119469
H193	H	0.798539	-0.983956	-0.559234
H194	H	1.298539	-0.483956	-0.059234
H195	H	0.806331	-0.905484	-0.611595
H196	H	1.306331	-0.405484	-0.111595
C197	C	1.147079	-0.314218	-0.950024
C198	C	1.647079	0.185782	-0.450024
C199	C	1.191819	-0.365283	-0.996568
C200	C	1.691819	0.134717	-0.496568
C201	C	1.241666	-0.307729	-1.032421
C202	C	1.741666	0.192271	-0.532421
H203	H	1.176806	-0.279847	-0.914610
H204	H	1.676806	0.220153	-0.414610
H205	H	1.120812	-0.274914	-0.978198
H206	H	1.620812	0.225086	-0.478198
H207	H	1.218083	-0.404571	-0.968396
H208	H	1.718083	0.095429	-0.468396
H209	H	1.162112	-0.399651	-1.031996
H210	H	1.662112	0.100349	-0.531996
H211	H	1.215399	-0.268426	-1.060595
H212	H	1.715399	0.231574	-0.560595
H213	H	1.271387	-0.273362	-0.997002
H214	H	1.771387	0.226638	-0.497002
H215	H	1.272023	-0.342368	-1.064010
H216	H	1.772023	0.157632	-0.564010
H217	H	0.952819	-0.539073	-0.950002
H218	H	1.452819	-0.039073	-0.450002
H219	H	0.941427	-0.778034	-0.476478
H220	H	1.441427	-0.278034	0.023522
C221	C	0.939241	-0.554885	-0.800993
C222	C	1.439241	-0.054885	-0.300993
C223	C	0.895648	-0.605417	-0.853453
C224	C	1.395648	-0.105417	-0.353453
C225	C	0.845802	-0.663238	-0.817865
C226	C	1.345802	-0.163238	-0.317865
H227	H	0.908739	-0.520481	-0.769390
H228	H	1.408739	-0.020481	-0.269390
H229	H	0.965507	-0.594249	-0.772876
H230	H	1.465507	-0.094249	-0.272876
H231	H	0.869384	-0.566058	-0.881558
H232	H	1.369384	-0.066058	-0.381558
H233	H	0.926130	-0.639839	-0.885059
H234	H	1.426130	-0.139839	-0.385059
H235	H	0.872067	-0.702602	-0.789747
H236	H	1.372067	-0.202602	-0.289747
H237	H	0.815304	-0.628826	-0.786263
H238	H	1.315304	-0.128826	-0.286263
H239	H	0.816222	-0.697536	-0.853453
H240	H	1.316222	-0.197536	-0.353453
C241	C	0.960594	-1.103240	-0.457486
C242	C	1.460594	-0.603240	0.042514
C243	C	0.966346	-1.195830	-0.451775
C244	C	1.466346	-0.695830	0.048225
C245	C	0.917068	-1.243145	-0.500938
C246	C	1.417068	-0.743145	-0.000938
H247	H	0.972001	-1.087860	-0.506248
H248	H	1.472001	-0.587860	-0.006248
H249	H	0.911852	-1.087920	-0.445935
H250	H	1.411852	-0.587920	0.054065
H251	H	1.015077	-1.211144	-0.463331
H252	H	1.515077	-0.711144	0.036669
H253	H	0.954932	-1.211237	-0.403024
H254	H	1.454932	-0.711237	0.096976
H255	H	0.868326	-1.227824	-0.489388
H256	H	1.368326	-0.727824	0.010612
H257	H	0.928480	-1.227756	-0.549698
H258	H	1.428480	-0.727756	-0.049698
H259	H	0.920959	-1.305971	-0.497066
H260	H	1.420959	-0.805971	0.002934
