data_functionalizedCrystal
_audit_creation_method	'MofGen! by Chris Wilmer'
_symmetry_space_group_name_H-M	'P1'
_symmetry_Int_Tables_number	1
_symmetry_cell_setting	triclinic
loop_
_symmetry_equiv_pos_as_xyz
  x,y,z
_cell_length_a	27.732048
_cell_length_b	27.732046
_cell_length_c	12.503572
_cell_angle_alpha	86.512317
_cell_angle_beta	86.516589
_cell_angle_gamma	97.357683
loop_
_atom_site_label
_atom_site_type_symbol
_atom_site_fract_x
_atom_site_fract_y
_atom_site_fract_z
O1	O	0.643731	-0.054704	-0.089195
O2	O	0.502939	-0.063448	-0.089230
O3	O	0.577707	0.011320	-0.089187
O4	O	0.568963	-0.129472	-0.089238
O5	O	0.572084	0.005688	0.089451
O6	O	0.497316	-0.069080	0.089409
O7	O	0.638108	-0.060336	0.089443
Cu8	Cu	0.567198	-0.065222	0.105737
Cu9	Cu	0.573848	-0.058562	-0.105524
O10	O	0.563340	-0.135104	0.089401
C11	C	0.482120	-0.066081	0.000085
C12	C	0.428466	-0.065527	0.000073
C13	C	0.089650	-0.106232	0.000105
C14	C	-0.112010	-0.104181	0.000116
O15	O	-0.143267	-0.141403	0.000149
N16	N	-0.131134	-0.059847	0.000130
C17	C	-0.099840	-0.016022	0.000148
O18	O	-0.120733	0.021735	0.000171
C19	C	0.101819	-0.018073	0.000145
C20	C	0.120940	-0.062410	0.000120
C21	C	0.108771	-0.150566	0.000082
C22	C	0.159184	-0.151078	0.000073
C23	C	0.190474	-0.107256	0.000088
C24	C	0.171352	-0.062922	0.000112
C25	C	0.133112	0.025751	0.000171
C26	C	0.183529	0.025234	0.000173
C27	C	0.202650	-0.019103	0.000149
C28	C	0.253055	-0.019613	0.000119
N29	N	0.272179	-0.063947	0.000105
C30	C	0.240888	-0.107769	0.000090
C31	C	-0.205714	-0.014948	0.000147
C32	C	-0.256128	-0.014435	0.000146
C33	C	-0.268295	-0.102595	0.000116
C34	C	-0.217880	-0.103107	0.000109
C35	C	-0.186590	-0.059282	0.000133
C36	C	0.346758	-0.108841	0.000071
C37	C	0.397176	-0.109349	0.000058
C38	C	0.409338	-0.021189	0.000094
C39	C	0.358925	-0.020681	0.000101
C40	C	0.327636	-0.064511	0.000093
O41	O	0.284340	0.017589	0.000098
O42	O	0.261791	-0.145521	0.000090
C43	C	0.039237	-0.105720	0.000114
C44	C	0.020116	-0.061386	0.000137
C45	C	0.051406	-0.017565	0.000153
C46	C	-0.030299	-0.060873	0.000136
C47	C	-0.061589	-0.104695	0.000121
C48	C	-0.042465	-0.149030	0.000107
C49	C	0.007947	-0.149542	0.000098
C50	C	0.032282	0.026770	0.000166
C51	C	-0.018130	0.027279	0.000174
C52	C	-0.049421	-0.016543	0.000158
C53	C	0.574712	0.026511	0.000136
C54	C	0.574159	0.080165	0.000147
C55	C	0.614866	0.418982	0.000120
C56	C	0.612816	0.620642	0.000115
O57	O	0.650038	0.651898	0.000079
N58	N	0.568482	0.639766	0.000106
C59	C	0.524656	0.608471	0.000092
O60	O	0.486900	0.629365	0.000073
C61	C	0.526707	0.406813	0.000089
C62	C	0.571044	0.387691	0.000108
C63	C	0.659200	0.399860	0.000138
C64	C	0.659712	0.349447	0.000145
C65	C	0.615890	0.318157	0.000134
C66	C	0.571556	0.337279	0.000116
C67	C	0.482882	0.375520	0.000067
C68	C	0.483399	0.325102	0.000063
C69	C	0.527736	0.305981	0.000083
C70	C	0.528246	0.255576	0.000111
N71	N	0.572580	0.236452	0.000120
C72	C	0.616402	0.267743	0.000131
C73	C	0.523583	0.714345	0.000095
C74	C	0.523070	0.764760	0.000098
C75	C	0.611230	0.776927	0.000119
C76	C	0.611743	0.726511	0.000124
C77	C	0.567918	0.695221	0.000104
C78	C	0.617474	0.161873	0.000147
C79	C	0.617981	0.111456	0.000159
C80	C	0.529822	0.099293	0.000132
C81	C	0.529313	0.149706	0.000126
C82	C	0.573144	0.180995	0.000130
O83	O	0.491044	0.224292	0.000136
O84	O	0.654154	0.246840	0.000126
C85	C	0.614354	0.469394	0.000113
C86	C	0.570021	0.488516	0.000094
C87	C	0.526199	0.457225	0.000083
C88	C	0.569508	0.538930	0.000097
C89	C	0.613330	0.570220	0.000108
C90	C	0.657665	0.551096	0.000117
C91	C	0.658176	0.500684	0.000124
C92	C	0.481864	0.476349	0.000074
C93	C	0.481356	0.526762	0.000068
C94	C	0.525178	0.558052	0.000080
C95	C	0.658927	-0.057703	0.000126
C96	C	0.712581	-0.058256	0.000131
N97	N	0.562525	-0.069907	0.254327
C98	C	0.566336	0.849705	0.000088
C99	C	0.566892	0.796050	0.000109
N100	N	0.578526	-0.053873	-0.254113
C101	C	0.555649	-0.076802	0.473438
C102	C	0.585400	-0.046980	0.526782
C103	C	0.581574	-0.050816	0.648703
C104	C	0.559474	-0.072966	0.351506
H105	H	0.412741	-0.145455	0.000037
H106	H	0.486966	0.780323	0.000101
H107	H	0.057755	0.062456	0.000182
H108	H	0.527309	-0.105214	0.519329
H109	H	0.613743	-0.018567	0.480885
H110	H	0.445248	0.542325	0.000062
Br111	Br	-0.191935	-0.163281	0.000076
Br112	Br	0.678158	0.085509	0.000186
H113	H	0.695816	0.333884	0.000157
Br114	Br	-0.282071	0.045741	0.000147
Br115	Br	0.304302	-0.168325	0.000062
H116	H	-0.293781	-0.138276	0.000103
Br117	Br	0.185125	-0.211253	0.000044
Br118	Br	0.718352	0.474742	0.000144
Br119	Br	0.670703	0.819402	0.000132
H120	H	-0.180241	0.020742	0.000167
Br121	Br	0.676958	0.204329	0.000151
Br122	Br	0.671916	0.700566	0.000153
H123	H	0.083299	-0.186253	0.000073
Br124	Br	0.422385	0.433891	0.000053
H125	H	0.117553	0.061855	0.000193
H126	H	0.693346	0.576582	0.000131
Br127	Br	0.225991	0.084714	0.000212
H128	H	0.487893	0.688873	0.000079
Br129	Br	0.332974	0.039491	0.000138
Br130	Br	0.423919	0.282640	0.000031
Br131	Br	0.469140	0.175657	0.000124
H132	H	0.446778	0.391079	0.000044
Br133	Br	0.470352	0.056819	0.000117
H134	H	0.023510	-0.185646	0.000080
Br135	Br	-0.044073	0.087457	0.000189
Br136	Br	-0.084941	-0.208501	0.000078
H137	H	0.694887	0.425332	0.000144
H138	H	0.434824	0.014489	0.000102
