data_functionalizedCrystal
_audit_creation_method	'MofGen! by Chris Wilmer'
_symmetry_space_group_name_H-M	'P1'
_symmetry_Int_Tables_number	1
_symmetry_cell_setting	triclinic
loop_
_symmetry_equiv_pos_as_xyz
  x,y,z
_cell_length_a	14.519709
_cell_length_b	19.288865
_cell_length_c	18.366186
_cell_angle_alpha	89.988521
_cell_angle_beta	89.996571
_cell_angle_gamma	83.408197
loop_
_atom_site_label
_atom_site_type_symbol
_atom_site_fract_x
_atom_site_fract_y
_atom_site_fract_z
O1	O	1.223296	0.091051	-0.060464
O2	O	1.723296	0.591051	0.439536
O3	O	0.954751	0.101773	-0.060487
O4	O	1.454751	0.601773	0.439513
O5	O	1.096783	-0.004690	-0.060460
O6	O	1.596783	0.495310	0.439540
O7	O	1.081264	0.197514	-0.060490
O8	O	1.581264	0.697514	0.439510
O9	O	1.096759	-0.004696	0.060639
O10	O	1.596759	0.495304	0.560639
O11	O	0.954727	0.101768	0.060613
O12	O	1.454727	0.601768	0.560613
O13	O	1.223272	0.091046	0.060636
O14	O	1.723272	0.591046	0.560636
Zn15	Zn	1.088995	0.096406	0.079851
Zn16	Zn	1.588995	0.596406	0.579851
Zn17	Zn	1.089027	0.096413	-0.079702
Zn18	Zn	1.589027	0.596413	0.420298
O19	O	1.081240	0.197509	0.060609
O20	O	1.581240	0.697509	0.560609
C21	C	1.096272	-0.030571	0.000092
C22	C	1.596272	0.469429	0.500092
C23	C	1.094773	-0.107680	0.000098
C24	C	1.594773	0.392320	0.500098
C25	C	0.920382	0.101271	0.000060
C26	C	1.420382	0.601271	0.500060
C27	C	0.818010	0.099773	0.000052
C28	C	1.318010	0.599773	0.500052
C29	C	1.178111	-0.152077	0.000109
C30	C	1.678111	0.347923	0.500109
C31	C	1.176702	-0.224529	0.000097
C32	C	1.676702	0.275471	0.500097
C33	C	1.091951	-0.252581	0.000089
C34	C	1.591951	0.247419	0.500089
C35	C	1.008602	-0.208175	0.000074
C36	C	1.508602	0.291825	0.500074
C37	C	1.010013	-0.135725	0.000079
C38	C	1.510013	0.364275	0.500079
C39	C	1.025319	-0.361110	0.042502
C40	C	1.525319	0.138890	0.542502
C41	C	1.023911	-0.433560	0.042502
C42	C	1.523911	0.066440	0.542502
C43	C	1.087597	-0.476043	0.000073
C44	C	1.587597	0.023957	0.500073
C45	C	1.152705	-0.446068	-0.042348
C46	C	1.652705	0.053932	0.457652
C47	C	1.154116	-0.373618	-0.042343
C48	C	1.654116	0.126382	0.457657
C49	C	1.090412	-0.331141	0.000084
C50	C	1.590412	0.168859	0.500084
C51	C	1.169414	-0.599000	0.000070
C52	C	1.669414	-0.099000	0.500070
C53	C	1.168002	-0.671454	0.000054
C54	C	1.668002	-0.171454	0.500054
C55	C	0.999899	-0.655098	0.000038
C56	C	1.499899	-0.155098	0.500038
C57	C	1.001314	-0.582647	0.000047
C58	C	1.501314	-0.082647	0.500047
C59	C	1.086073	-0.554602	0.000066
C60	C	1.586073	-0.054602	0.500066
C61	C	0.443150	0.094261	0.000086
C62	C	0.943150	0.594261	0.500086
C63	C	0.547448	0.095792	0.000076
C64	C	1.047448	0.595792	0.500076
C65	C	0.630577	0.097017	0.000068
C66	C	1.130577	0.597017	0.500068
C67	C	0.734882	0.098548	0.000060
C68	C	1.234882	0.598548	0.500060
C69	C	1.257640	0.091548	0.000087
C70	C	1.757640	0.591548	0.500087
C71	C	1.360012	0.093045	0.000091
C72	C	1.860012	0.593045	0.500091
C73	C	1.081751	0.223390	0.000056
C74	C	1.581751	0.723390	0.500056
C75	C	1.083250	0.300499	0.000045
C76	C	1.583250	0.800499	0.500045
N77	N	1.088981	0.096401	0.188742
N78	N	1.588981	0.596401	0.688742
N79	N	1.089049	0.096413	-0.188594
N80	N	1.589049	0.596413	0.311406
C81	C	1.151893	0.049282	0.226855
C82	C	1.651893	0.549282	0.726855
C83	C	1.151899	0.049279	0.303082
C84	C	1.651899	0.549279	0.803082
C85	C	1.089001	0.096406	0.341195
C86	C	1.589001	0.596406	0.841195
C87	C	1.026077	0.143529	0.303074
C88	C	1.526077	0.643529	0.803074
C89	C	1.026067	0.143526	0.226847
C90	C	1.526067	0.643526	0.726847
C91	C	1.076656	0.159650	0.461945
C92	C	1.576656	0.659650	0.961945
C93	C	1.076672	0.159654	0.538170
C94	C	1.576672	0.659654	1.038170
C95	C	1.089027	0.096415	0.576303
C96	C	1.589027	0.596415	1.076303
C97	C	1.101385	0.033170	0.538201
C98	C	1.601385	0.533170	1.038201
C99	C	1.101375	0.033167	0.461974
C100	C	1.601375	0.533167	0.961974
C101	C	1.089005	0.096415	0.423850
C102	C	1.589005	0.596415	0.923850
C103	C	1.151949	0.049289	0.697070
C104	C	1.651949	0.549289	1.197070
C105	C	1.151949	0.049285	0.773299
C106	C	1.651949	0.549285	1.273299
C107	C	1.026131	0.143541	0.773289
C108	C	1.526131	0.643541	1.273289
C109	C	1.026128	0.143539	0.697061
C110	C	1.526128	0.643539	1.197061
C111	C	1.089041	0.096414	0.658956
C112	C	1.589041	0.596414	1.158956
H113	H	1.247128	-0.129248	0.000122
H114	H	1.747128	0.370752	0.500122
H115	H	0.939597	-0.231020	0.000066
H116	H	1.439597	0.268980	0.500066
H117	H	1.203119	0.010908	0.195832
H118	H	1.703119	0.510908	0.695832
O119	O	1.251766	-0.571784	-0.000052
O120	O	1.751766	-0.071784	0.499948
C121	C	1.302569	-0.594458	-0.062762
C122	C	1.802569	-0.094458	0.437238
H123	H	1.253008	-0.609581	-0.106602
H124	H	1.753008	-0.109581	0.393398
H125	H	1.341619	-0.550513	-0.083810
H126	H	1.841619	-0.050513	0.416190
H127	H	1.354158	-0.641613	-0.048585
H128	H	1.854158	-0.141613	0.451415
O129	O	1.213198	0.003626	0.660041
O130	O	1.713198	0.503626	1.160041
C131	C	1.269909	0.040956	0.615955
C132	C	1.769909	0.540956	1.115955
H133	H	1.271151	0.095745	0.638915
H134	H	1.771151	0.595745	1.138915
H135	H	1.343352	0.012785	0.615135
H136	H	1.843352	0.512785	1.115135
H137	H	1.241084	0.044523	0.558169
H138	H	1.741084	0.544523	1.058169
H139	H	0.974915	0.181911	0.804320
H140	H	1.474915	0.681911	1.304320
O141	O	1.213100	0.003476	0.340002
O142	O	1.713100	0.503476	0.840002
C143	C	1.268604	-0.038133	0.290024
C144	C	1.768604	0.461867	0.790024
H145	H	1.269525	-0.009657	0.235679
H146	H	1.769525	0.490343	0.735679
H147	H	1.342294	-0.048606	0.312046
H148	H	1.842294	0.451394	0.812046
H149	H	1.238877	-0.089782	0.281934
H150	H	1.738877	0.410218	0.781934
H151	H	1.066579	0.211150	0.430904
H152	H	1.566579	0.711150	0.930904
O153	O	1.113218	-0.028227	0.424890
O154	O	1.613218	0.471773	0.924890
C155	C	1.034931	-0.033956	0.380837
C156	C	1.534931	0.466044	0.880837
H157	H	0.997889	0.020307	0.369406
H158	H	1.497889	0.520307	0.869406
H159	H	1.057894	-0.060296	0.327238
H160	H	1.557894	0.439704	0.827238
H161	H	0.985706	-0.066511	0.410242
H162	H	1.485706	0.433489	0.910242
O163	O	1.113223	-0.028254	0.575260
O164	O	1.613223	0.471746	1.075260
C165	C	1.034983	-0.033989	0.619374
C166	C	1.534983	0.466011	1.119374
H167	H	0.972756	0.000535	0.596405
H168	H	1.472756	0.500535	1.096405
H169	H	1.019398	-0.090578	0.620247
H170	H	1.519398	0.409422	1.120247
H171	H	1.049528	-0.016563	0.677141
H172	H	1.549528	0.483437	1.177141
O173	O	0.964993	0.189238	0.189709
O174	O	1.464993	0.689238	0.689709
C175	C	0.978493	0.179145	0.114258
C176	C	1.478493	0.679145	0.614258
H177	H	1.013189	0.123979	0.103856
H178	H	1.513189	0.623979	0.603856
H179	H	0.908624	0.186758	0.085290
H180	H	1.408624	0.686758	0.585290
H181	H	1.024581	0.218536	0.092616
H182	H	1.524581	0.718536	0.592616
H183	H	0.974902	0.181911	0.666028
H184	H	1.474902	0.681911	1.166028
H185	H	0.930893	-0.677938	0.000028
H186	H	1.430893	-0.177938	0.500028
O187	O	1.248938	-0.714610	-0.000068
O188	O	1.748938	-0.214610	0.499932
C189	C	1.253161	-0.757001	-0.062783
C190	C	1.753161	-0.257001	0.437217
H191	H	1.205903	-0.730516	-0.106623
H192	H	1.705903	-0.230516	0.393377
H193	H	1.327487	-0.765047	-0.083824
H194	H	1.827487	-0.265047	0.416176
H195	H	1.229510	-0.809719	-0.048614
H196	H	1.729510	-0.309719	0.451386
O197	O	1.213156	0.003486	0.810211
O198	O	1.713156	0.503486	1.310211
C199	C	1.268665	-0.038115	0.760229
C200	C	1.768665	0.461885	1.260229
H201	H	1.269575	-0.009636	0.705885
H202	H	1.769575	0.490364	1.205885
H203	H	1.342358	-0.048579	0.782247
H204	H	1.842358	0.451421	1.282247
H205	H	1.238950	-0.089769	0.752138
H206	H	1.738950	0.410231	1.252138
O207	O	1.064618	0.221148	0.575066
O208	O	1.564618	0.721148	1.075066
C209	C	1.053720	0.276963	0.525067
C210	C	1.553720	0.776963	1.025067
H211	H	1.028458	0.257706	0.470740
H212	H	1.528458	0.757706	0.970740
H213	H	1.000798	0.320098	0.547088
H214	H	1.500798	0.820098	1.047088
H215	H	1.123091	0.298220	0.516942
H216	H	1.623091	0.798220	1.016942
H217	H	0.974863	0.181900	0.334109
H218	H	1.474863	0.681900	0.834109
O219	O	1.257720	-0.267596	0.000014
O220	O	1.757720	0.232404	0.500014
C221	C	1.309211	-0.254872	-0.062703
C222	C	1.809211	0.245128	0.437297
H223	H	1.286351	-0.199938	-0.083617
H224	H	1.786351	0.300062	0.416383
H225	H	1.386143	-0.259881	-0.048582
H226	H	1.886143	0.240119	0.451418
H227	H	1.296776	-0.294505	-0.106624
H228	H	1.796776	0.205495	0.393376
O229	O	1.217385	-0.344610	-0.083619
O230	O	1.717385	0.155390	0.416381
C231	C	1.273314	-0.397637	-0.121057
C232	C	1.773314	0.102363	0.378943
H233	H	1.234677	-0.445623	-0.126188
H234	H	1.734677	0.054377	0.373812
H235	H	1.289985	-0.378269	-0.177664
H236	H	1.789985	0.121731	0.322336
H237	H	1.340503	-0.411897	-0.089595
H238	H	1.840503	0.088103	0.410405
O239	O	0.928969	-0.092693	0.000104
O240	O	1.428969	0.407307	0.500104
C241	C	0.853860	-0.132985	0.000072
C242	C	1.353860	0.367015	0.500072
H243	H	0.877487	-0.187034	0.022995
H244	H	1.377487	0.312966	0.522995
H245	H	0.795478	-0.106342	0.035227
H246	H	1.295478	0.393658	0.535227
H247	H	0.827880	-0.138159	-0.058029
H248	H	1.327880	0.361841	0.441971
H249	H	1.204564	-0.480657	-0.076898
H250	H	1.704564	0.019343	0.423102
H251	H	0.970893	-0.457959	0.077039
H252	H	1.470893	0.042041	0.577039
O253	O	0.920273	-0.539615	0.000078
O254	O	1.420273	-0.039615	0.500078
C255	C	0.845165	-0.579908	0.000051
C256	C	1.345165	-0.079908	0.500051
H257	H	0.868795	-0.633956	0.022975
H258	H	1.368795	-0.133956	0.522975
H259	H	0.786784	-0.553265	0.035206
H260	H	1.286784	-0.053265	0.535206
H261	H	0.819182	-0.585084	-0.058050
H262	H	1.319182	-0.085084	0.441950
H263	H	0.973456	-0.326526	0.077057
H264	H	1.473456	0.173474	0.577057
