data_functionalizedCrystal
_audit_creation_method	'MofGen! by Chris Wilmer'
_symmetry_space_group_name_H-M	'P1'
_symmetry_Int_Tables_number	1
_symmetry_cell_setting	triclinic
loop_
_symmetry_equiv_pos_as_xyz
  x,y,z
_cell_length_a	26.210047
_cell_length_b	14.971486
_cell_length_c	27.732025
_cell_angle_alpha	96.876201
_cell_angle_beta	89.991759
_cell_angle_gamma	89.980506
loop_
_atom_site_label
_atom_site_type_symbol
_atom_site_fract_x
_atom_site_fract_y
_atom_site_fract_z
O1	O	0.042353	-1.185966	0.062990
O2	O	0.042365	-0.925445	0.070533
O3	O	0.042375	-1.063807	-0.003599
O4	O	0.042344	-1.047604	0.137122
O5	O	-0.042484	-1.063744	-0.003600
O6	O	-0.042493	-0.925382	0.070532
O7	O	-0.042505	-1.185902	0.062989
Cu8	Cu	-0.050247	-1.055636	0.066760
Cu9	Cu	0.050108	-1.055711	0.066762
O10	O	-0.042514	-1.047540	0.137121
C11	C	-0.000062	-0.892094	0.070195
C12	C	-0.000056	-0.792813	0.069184
C13	C	-0.000049	-1.063438	-0.021608
C14	C	-0.000034	-1.062424	-0.075268
N15	N	-0.120831	-1.055589	0.066759
C16	C	-0.526802	-0.994386	0.099571
C17	C	-0.313144	-0.994343	0.099571
O18	O	-0.285529	-0.942200	0.127464
N19	N	-0.286415	-1.055618	0.066758
C20	C	-0.313103	-1.116904	0.033939
O21	O	-0.285466	-1.169015	0.006026
C22	C	-0.526761	-1.116942	0.033937
C23	C	-0.553487	-1.055669	0.066757
C24	C	-0.553529	-0.933118	0.132388
C25	C	-0.606940	-0.933133	0.132389
C26	C	-0.633625	-0.994416	0.099574
C27	C	-0.606899	-1.055684	0.066758
C28	C	-0.553449	-1.178223	0.001117
C29	C	-0.606867	-1.178225	0.001119
C30	C	-0.633593	-1.116953	0.033938
C31	C	-0.686995	-1.116981	0.033945
N32	N	-0.713724	-1.055707	0.066758
C33	C	-0.687039	-0.994424	0.099573
C34	C	-0.200930	-1.116881	0.033943
C35	C	-0.147516	-1.116872	0.033944
C36	C	-0.147560	-0.994311	0.099576
C37	C	-0.200975	-0.994324	0.099577
C38	C	-0.227659	-1.055606	0.066757
C39	C	-0.799207	-0.994460	0.099574
C40	C	-0.852623	-0.994482	0.099574
C41	C	-0.852575	-1.117041	0.033941
C42	C	-0.799163	-1.117022	0.033942
C43	C	-0.772481	-1.055724	0.066761
O44	O	-0.714643	-1.169091	0.006063
O45	O	-0.714686	-0.942308	0.127475
C46	C	-0.473391	-0.994372	0.099570
C47	C	-0.446664	-1.055640	0.066754
C48	C	-0.473349	-1.116923	0.033939
C49	C	-0.393250	-1.055632	0.066755
C50	C	-0.366565	-0.994349	0.099570
C51	C	-0.393294	-0.933074	0.132383
C52	C	-0.446706	-0.933089	0.132385
C53	C	-0.446620	-1.178198	0.001125
C54	C	-0.393209	-1.178179	0.001127
C55	C	-0.366524	-1.116896	0.033942
N56	N	0.120692	-1.055765	0.066759
C57	C	-0.000076	-1.219253	0.063327
C58	C	-0.000078	-1.318534	0.064338
C59	C	-0.000066	-0.734893	0.112735
C60	C	-0.000074	-0.641609	0.111782
C61	C	-0.000068	-0.606247	0.067278
C62	C	-0.000059	-0.664174	0.023725
C63	C	-0.000055	-0.757456	0.024678
C64	C	-0.000066	-0.469743	0.021741
C65	C	-0.000068	-0.376454	0.020787
C66	C	-0.000084	-0.353896	0.108845
C67	C	-0.000080	-0.447178	0.109798
C68	C	-0.000071	-0.505099	0.066244
C69	C	0.046193	-1.055248	-0.458466
C70	C	0.046209	-1.059046	-0.256789
O71	O	0.085549	-1.059602	-0.230719
N72	N	-0.000046	-1.059486	-0.231566
C73	C	-0.046308	-1.058982	-0.256766
O74	O	-0.085650	-1.059453	-0.230686
C75	C	-0.046324	-1.055191	-0.458443
C76	C	-0.000066	-1.054742	-0.483662
C77	C	0.092447	-1.054800	-0.483686
C78	C	0.092442	-1.053846	-0.534102
C79	C	0.046183	-1.053339	-0.559298
C80	C	-0.000071	-1.053788	-0.534078
C81	C	-0.092585	-1.054694	-0.483642
C82	C	-0.092585	-1.053748	-0.534065
C83	C	-0.046328	-1.053299	-0.559284
C84	C	-0.046334	-1.052327	-0.609690
N85	N	-0.000079	-1.051887	-0.634913
C86	C	0.046180	-1.052393	-0.609717
C87	C	-0.046297	-1.060971	-0.150883
C88	C	-0.046293	-1.061917	-0.100464
C89	C	0.046224	-1.061983	-0.100491
C90	C	0.046220	-1.061030	-0.150910
C91	C	-0.000042	-1.060531	-0.176106
C92	C	0.046167	-1.050388	-0.715594
C93	C	0.046158	-1.049430	-0.766014
C94	C	-0.046359	-1.049370	-0.765983
C95	C	-0.046350	-1.050323	-0.715567
C96	C	-0.000084	-1.050835	-0.690374
O97	O	-0.085653	-1.051780	-0.635792
O98	O	0.085516	-1.051942	-0.635807
C99	C	0.046197	-1.056202	-0.408050
C100	C	-0.000057	-1.056650	-0.382831
C101	C	-0.046316	-1.056144	-0.408027
C102	C	-0.000053	-1.057597	-0.332412
C103	C	0.046205	-1.058103	-0.307215
C104	C	0.092460	-1.057663	-0.332438
C105	C	0.092456	-1.056709	-0.382854
C106	C	-0.092570	-1.056584	-0.382804
C107	C	-0.092562	-1.057538	-0.332388
C108	C	-0.046303	-1.058044	-0.307192
C109	C	-0.000089	-1.047909	0.155130
C110	C	-0.000101	-1.048924	0.208790
H111	H	-0.874382	-0.944587	0.126301
Cl112	Cl	-0.000097	-0.281082	0.163598
Cl113	Cl	-0.765672	-0.917400	0.140833
H114	H	-0.000071	-0.763677	0.148975
Cl115	Cl	-0.765566	-1.194062	-0.007312
H116	H	-0.628698	-0.883237	0.159112
H117	H	-0.628590	-1.228128	-0.025609
Cl118	Cl	0.150613	-1.058300	-0.300753
H119	H	-0.531807	-0.883210	0.159109
Cl120	Cl	-0.150730	-1.055945	-0.414471
H121	H	-0.222733	-0.944430	0.126301
H122	H	0.130110	-1.053486	-0.554631
H123	H	-0.000047	-0.804615	-0.010785
Cl124	Cl	-0.000083	-0.491633	0.165747
Cl125	Cl	-0.114003	-0.917269	0.140828
H126	H	-0.000082	-0.594454	0.147245
Cl127	Cl	-0.000077	-0.332000	-0.035161
H128	H	0.083887	-1.060662	-0.171440
Cl129	Cl	-0.113923	-1.193916	-0.007309
Cl130	Cl	-0.000055	-0.542557	-0.033014
H131	H	0.083841	-1.050806	-0.695087
Cl132	Cl	-0.000054	-0.619718	-0.032223
Cl133	Cl	-0.886130	-1.194080	-0.007310
Cl134	Cl	0.150608	-1.055436	-0.452020
Cl135	Cl	-0.480298	-0.856055	0.173645
H136	H	-0.222653	-1.166786	0.007217
Cl137	Cl	0.104315	-1.048864	-0.797715
H138	H	-0.531696	-1.228116	-0.025607
Cl139	Cl	-0.150742	-1.055248	-0.451949
Cl140	Cl	-0.104461	-1.060338	-0.182550
Cl141	Cl	-0.359737	-0.856036	0.173637
Cl142	Cl	-0.359616	-1.255218	-0.040134
H143	H	0.083890	-1.062389	-0.079967
Cl144	Cl	-0.104448	-1.062461	-0.068764
H145	H	-0.468343	-1.228101	-0.025597
Cl146	Cl	-0.150747	-1.053124	-0.565737
Cl147	Cl	-0.104504	-1.050887	-0.683862
Cl148	Cl	-0.104509	-1.048726	-0.797667
H149	H	0.130124	-1.056343	-0.403383
H150	H	-0.130234	-1.057895	-0.311858
