data_functionalizedCrystal
_audit_creation_method	'MofGen! by Chris Wilmer'
_symmetry_space_group_name_H-M	'P1'
_symmetry_Int_Tables_number	1
_symmetry_cell_setting	triclinic
loop_
_symmetry_equiv_pos_as_xyz
  x,y,z
_cell_length_a	10.723024
_cell_length_b	9.565339
_cell_length_c	10.723024
_cell_angle_alpha	89.998597
_cell_angle_beta	95.532131
_cell_angle_gamma	89.996087
loop_
_atom_site_label
_atom_site_type_symbol
_atom_site_fract_x
_atom_site_fract_y
_atom_site_fract_z
O1	O	-1.657188	0.116267	0.175018
O2	O	-1.294035	0.116267	0.191772
O3	O	-1.483988	0.116262	0.001819
O4	O	-1.467235	0.116273	0.364971
O5	O	-1.483973	-0.116258	0.001831
O6	O	-1.294020	-0.116253	0.191783
O7	O	-1.657173	-0.116253	0.175030
Zn8	Zn	-1.475594	-0.153170	0.183409
Zn9	Zn	-1.475614	0.153185	0.183393
O10	O	-1.467220	-0.116248	0.364983
C11	C	-1.247528	0.000007	0.190558
C12	C	-1.108974	0.000007	0.186911
C13	C	-1.033991	0.000010	0.293198
C14	C	-0.890788	0.000010	0.289431
N15	N	-1.475590	-0.362250	0.183419
C16	C	-1.387716	-0.453450	0.271236
C17	C	-1.500691	-0.546629	0.296416
C18	C	-1.362663	-0.546627	0.158249
C19	C	-1.588622	-0.453376	0.208655
C20	C	-1.450520	-0.453366	0.070439
C21	C	-1.563576	-0.546502	0.095571
C22	C	-0.703680	0.000007	0.176243
C23	C	-0.842234	0.000007	0.179891
C24	C	-1.482762	0.000004	-0.044675
C25	C	-1.479114	0.000009	-0.183229
N26	N	-1.475628	0.362264	0.183373
C27	C	-1.585401	0.000011	-0.258212
C28	C	-1.581634	0.000016	-0.401415
C29	C	-1.468447	0.000014	0.411477
C30	C	-1.472094	0.000018	0.550031
H31	H	-1.075814	0.000006	0.386984
H32	H	-1.521922	-0.587593	0.391941
H33	H	-0.826355	0.000019	0.380421
O34	O	-1.248764	-0.595422	0.132638
C35	C	-1.092448	-0.601148	-0.014359
C36	C	-1.221470	-0.545826	0.014461
H37	H	-1.070329	-0.561049	-0.109893
H38	H	-1.093794	-0.720321	-0.015137
H39	H	-1.017659	-0.562951	0.060675
H40	H	-1.296331	-0.583920	-0.060540
H41	H	-1.220019	-0.426656	0.015284
O42	O	-0.919033	0.000254	0.071294
C43	C	-0.982819	0.120669	-0.121756
C44	C	-0.895782	0.120580	0.001193
H45	H	-0.964033	0.217927	-0.178479
H46	H	-1.084641	0.120762	-0.099450
H47	H	-0.964156	0.023313	-0.178402
H48	H	-0.914333	0.217919	0.057899
H49	H	-0.793988	0.120414	-0.021201
H50	H	-1.684160	-0.412587	0.230039
O51	O	-1.652504	-0.594887	0.007081
C52	C	-1.871981	-0.601940	-0.066391
C53	C	-1.771400	-0.547075	0.033914
H54	H	-1.968128	-0.563282	-0.044747
H55	H	-1.870907	-0.721119	-0.066320
H56	H	-1.851346	-0.561957	-0.162428
H57	H	-1.791966	-0.586955	0.130000
H58	H	-1.772497	-0.427898	0.033732
H59	H	-1.385328	0.000018	-0.225051
H60	H	-1.067152	0.000040	0.093125
H61	H	-1.313472	-0.412594	0.345569
O62	O	-1.425376	-0.404375	-0.043530
C63	C	-1.498374	-0.267742	-0.224828
C64	C	-1.527042	-0.323164	-0.095795
H65	H	-1.580541	-0.202047	-0.267110
H66	H	-1.483097	-0.359511	-0.289466
H67	H	-1.410205	-0.200555	-0.213388
H68	H	-1.615222	-0.390329	-0.107114
H69	H	-1.542240	-0.231331	-0.031203
H70	H	-1.679187	0.000002	-0.216390
O71	O	-1.690275	0.000206	-0.478145
C72	C	-1.883256	0.120716	-0.542032
C73	C	-1.760277	0.120658	-0.455041
H74	H	-1.939875	0.218106	-0.523402
H75	H	-1.940042	0.023474	-0.523350
H76	H	-1.860846	0.120651	-0.643821
H77	H	-1.782573	0.120772	-0.353222
H78	H	-1.703526	0.217891	-0.473831
H79	H	-1.381099	0.000007	-0.385544
