data_functionalizedCrystal
_audit_creation_method	'MofGen! by Chris Wilmer'
_symmetry_space_group_name_H-M	'P1'
_symmetry_Int_Tables_number	1
_symmetry_cell_setting	triclinic
loop_
_symmetry_equiv_pos_as_xyz
  x,y,z
_cell_length_a	19.288864
_cell_length_b	16.176319
_cell_length_c	19.288865
_cell_angle_alpha	89.991322
_cell_angle_beta	96.863755
_cell_angle_gamma	90.019823
loop_
_atom_site_label
_atom_site_type_symbol
_atom_site_fract_x
_atom_site_fract_y
_atom_site_fract_z
O1	O	0.921350	0.069021	-0.086646
O2	O	1.254683	0.402354	0.246687
O3	O	1.588017	0.735688	0.580021
O4	O	0.719089	0.068966	-0.098335
O5	O	1.052423	0.402299	0.234998
O6	O	1.385756	0.735632	0.568332
O7	O	0.826064	0.068979	0.008640
O8	O	1.159397	0.402312	0.341973
O9	O	1.492731	0.735645	0.675306
O10	O	0.814375	0.069008	-0.193621
O11	O	1.147709	0.402342	0.139712
O12	O	1.481042	0.735675	0.473046
O13	O	0.826051	-0.068515	0.008640
O14	O	1.159385	0.264819	0.341973
O15	O	1.492718	0.598152	0.675307
O16	O	0.719077	-0.068527	-0.098335
O17	O	1.052410	0.264806	0.234999
O18	O	1.385743	0.598139	0.568332
O19	O	0.921337	-0.068472	-0.086646
O20	O	1.254671	0.264861	0.246687
O21	O	1.588004	0.598195	0.580021
Cu22	Cu	0.820206	-0.081054	-0.092490
Cu23	Cu	1.153539	0.252279	0.240843
Cu24	Cu	1.486873	0.585613	0.574176
Cu25	Cu	0.820221	0.081548	-0.092491
Cu26	Cu	1.153554	0.414881	0.240843
Cu27	Cu	1.486887	0.748214	0.574176
O28	O	0.814363	-0.068485	-0.193621
O29	O	1.147696	0.264848	0.139713
O30	O	1.481029	0.598182	0.473046
C31	C	0.693207	0.000212	-0.097959
C32	C	1.026540	0.333545	0.235375
C33	C	1.359873	0.666879	0.568708
C34	C	0.616103	0.000190	-0.096830
C35	C	0.949436	0.333523	0.236504
C36	C	1.282770	0.666857	0.569837
C37	C	0.571407	0.000212	-0.159598
C38	C	0.904740	0.333546	0.173736
C39	C	1.238073	0.666879	0.507069
C40	C	0.498960	0.000221	-0.158537
C41	C	0.832293	0.333555	0.174796
C42	C	1.165626	0.666888	0.508130
C43	C	0.471212	0.000225	-0.094705
C44	C	0.804545	0.333558	0.238629
C45	C	1.137879	0.666891	0.571962
C46	C	0.515918	0.000198	-0.031929
C47	C	0.849252	0.333531	0.301405
C48	C	1.182585	0.666864	0.634738
C49	C	0.588364	0.000181	-0.032991
C50	C	0.921697	0.333514	0.300342
C51	C	1.255030	0.666847	0.633676
C52	C	0.362955	0.048415	-0.044526
C53	C	0.696288	0.381748	0.288808
C54	C	1.029621	0.715082	0.622141
C55	C	0.290510	0.048437	-0.043466
C56	C	0.623843	0.381771	0.289868
C57	C	0.957177	0.715104	0.623201
C58	C	0.247767	0.000274	-0.091425
C59	C	0.581100	0.333608	0.241908
C60	C	0.914433	0.666941	0.575242
C61	C	0.277475	-0.047901	-0.140456
C62	C	0.610808	0.285433	0.192877
C63	C	0.944142	0.618766	0.526211
C64	C	0.349920	-0.047918	-0.141519
C65	C	0.683254	0.285415	0.191815
C66	C	1.016587	0.618749	0.525148
C67	C	0.392658	0.000243	-0.093546
C68	C	0.725991	0.333576	0.239788
C69	C	1.059325	0.666910	0.573121
C70	C	0.124514	0.000305	-0.153047
C71	C	0.457848	0.333638	0.180286
C72	C	0.791181	0.666972	0.513619
C73	C	0.052066	0.000309	-0.151984
C74	C	0.385400	0.333642	0.181349
C75	C	0.718733	0.666975	0.514683
C76	C	0.069026	0.000294	-0.025374
C77	C	0.402360	0.333627	0.307960
C78	C	0.735693	0.666960	0.641293
C79	C	0.141473	0.000281	-0.026439
C80	C	0.474806	0.333615	0.306894
C81	C	0.808140	0.666948	0.640228
C82	C	0.169212	0.000291	-0.090278
C83	C	0.502546	0.333624	0.243056
C84	C	0.835879	0.666958	0.576389
N85	N	0.820201	-0.195419	-0.092490
N86	N	1.153534	0.137914	0.240844
N87	N	1.486867	0.471247	0.574177
C88	C	0.862192	-0.238661	-0.134512
C89	C	1.195525	0.094672	0.198822
C90	C	1.528858	0.428006	0.532155
C91	C	0.862199	-0.325208	-0.134509
C92	C	1.195532	0.008125	0.198824
C93	C	1.528866	0.341458	0.532158
C94	C	0.820211	-0.368512	-0.092488
C95	C	1.153545	-0.035178	0.240846
C96	C	1.486878	0.298155	0.574179
C97	C	0.778219	-0.325264	-0.050461
C98	C	1.111552	0.008069	0.282873
C99	C	1.444885	0.341403	0.616206
C100	C	0.778215	-0.238718	-0.050460
C101	C	1.111549	0.094615	0.282873
C102	C	1.444882	0.427948	0.616207
C103	C	0.778232	-0.674292	-0.050461
C104	C	1.111565	-0.340959	0.282872
C105	C	1.444898	-0.007625	0.616205
C106	C	0.778236	-0.760844	-0.050467
C107	C	1.111570	-0.427510	0.282866
C108	C	1.444903	-0.094177	0.616200
C109	C	0.862215	-0.760782	-0.134510
C110	C	1.195549	-0.427449	0.198823
C111	C	1.528882	-0.094115	0.532156
C112	C	0.862212	-0.674236	-0.134510
C113	C	1.195545	-0.340903	0.198824
C114	C	1.528879	-0.007570	0.532157
C115	C	0.820222	-0.630996	-0.092480
C116	C	1.153556	-0.297663	0.240853
C117	C	1.486889	0.035671	0.574186
C118	C	0.820216	-0.537152	-0.092483
C119	C	1.153549	-0.203819	0.240850
C120	C	1.486882	0.129515	0.574184
C121	C	0.820214	-0.462354	-0.092488
C122	C	1.153547	-0.129021	0.240845
C123	C	1.486880	0.204312	0.574178
C124	C	0.947220	0.000284	-0.087022
C125	C	1.280553	0.333617	0.246311
C126	C	1.613887	0.666950	0.579645
C127	C	1.024324	0.000311	-0.088151
C128	C	1.357657	0.333644	0.245182
C129	C	1.690990	0.666977	0.578516
C130	C	0.825682	0.000229	0.034516
C131	C	1.159015	0.333563	0.367850
C132	C	1.492348	0.666896	0.701183
C133	C	0.824553	0.000222	0.111620
C134	C	1.157886	0.333555	0.444953
C135	C	1.491219	0.666889	0.778287
N136	N	0.820232	0.195913	-0.092486
N137	N	1.153565	0.529246	0.240848
N138	N	1.486898	0.862580	0.574181
C139	C	0.814745	0.000266	-0.219497
C140	C	1.148078	0.333599	0.113836
C141	C	1.481412	0.666933	0.447169
C142	C	0.815874	0.000279	-0.296601
C143	C	1.149207	0.333612	0.036733
C144	C	1.482541	0.666946	0.370066
C145	C	0.887321	0.000235	0.156316
C146	C	1.220654	0.333568	0.489650
C147	C	1.553987	0.666902	0.822983
C148	C	0.886260	0.000248	0.228763
C149	C	1.219593	0.333581	0.562097
C150	C	1.552927	0.666914	0.895430
C151	C	0.822428	0.000231	0.256511
C152	C	1.155761	0.333564	0.589844
C153	C	1.489094	0.666898	0.923178
C154	C	0.759652	0.000222	0.211805
C155	C	1.092985	0.333556	0.545138
C156	C	1.426318	0.666889	0.878471
C157	C	0.760714	0.000218	0.139359
C158	C	1.094047	0.333551	0.472693
C159	C	1.427381	0.666885	0.806026
C160	C	0.772244	-0.047944	0.364798
C161	C	1.105577	0.285390	0.698132
C162	C	1.438910	0.618723	1.031465
C163	C	0.771184	-0.047944	0.437243
C164	C	1.104517	0.285389	0.770576
C165	C	1.437851	0.618722	1.103909
C166	C	0.819148	0.000248	0.479956
C167	C	1.152481	0.333582	0.813290
C168	C	1.485815	0.666915	1.146623
C169	C	0.868184	0.048431	0.450218
C170	C	1.201517	0.381765	0.783552
C171	C	1.534851	0.715098	1.116885
C172	C	0.869246	0.048427	0.377773
C173	C	1.202580	0.381760	0.711106
C174	C	1.535913	0.715093	1.044439
C175	C	0.821269	0.000236	0.335065
C176	C	1.154602	0.333570	0.668398
C177	C	1.487935	0.666903	1.001732
C178	C	0.880770	0.000277	0.603209
C179	C	1.214104	0.333610	0.936542
C180	C	1.547437	0.666943	1.269875
C181	C	0.879707	0.000295	0.675657
C182	C	1.213040	0.333628	1.008990
C183	C	1.546374	0.666961	1.342323
C184	C	0.753097	0.000261	0.658697
C185	C	1.086430	0.333594	0.992030
C186	C	1.419763	0.666928	1.325363
C187	C	0.754162	0.000251	0.586250
C188	C	1.087495	0.333585	0.919583
C189	C	1.420829	0.666918	1.252917
C190	C	0.818001	0.000255	0.558511
C191	C	1.151334	0.333589	0.891844
C192	C	1.484667	0.666922	1.225177
H193	H	0.397751	0.087640	-0.005470
H194	H	0.731085	0.420974	0.327863
H195	H	1.064418	0.754307	0.661197
Cl196	Cl	0.725417	-0.619944	0.002348
Cl197	Cl	1.058750	-0.286611	0.335681
Cl198	Cl	1.392083	0.046723	0.669015
H199	H	0.374106	-0.087146	-0.181439
H200	H	0.707439	0.246187	0.151894
H201	H	1.040773	0.579520	0.485228
Cl202	Cl	0.223748	-0.108453	-0.200753
Cl203	Cl	0.557081	0.224880	0.132581
Cl204	Cl	0.890415	0.558214	0.465914
Cl205	Cl	0.914990	-0.619802	-0.187348
Cl206	Cl	1.248323	-0.286469	0.145986
Cl207	Cl	1.581656	0.046864	0.479319
Cl208	Cl	0.197666	0.000259	0.052474
Cl209	Cl	0.530999	0.333592	0.385807
Cl210	Cl	0.864332	0.666925	0.719141
Cl211	Cl	0.965174	0.000265	0.284963
Cl212	Cl	1.298507	0.333598	0.618297
Cl213	Cl	1.631841	0.666932	0.951630
H214	H	0.493322	0.000212	0.020044
H215	H	0.826655	0.333545	0.353377
H216	H	1.159988	0.666879	0.686711
Cl217	Cl	0.915005	-0.815147	-0.187346
Cl218	Cl	1.248339	-0.481813	0.145987
Cl219	Cl	1.581672	-0.148480	0.479320
H220	H	0.707679	0.000210	0.234401
H221	H	1.041012	0.333544	0.567735
H222	H	1.374346	0.666877	0.901068
Cl223	Cl	0.725435	-0.379703	0.002368
Cl224	Cl	1.058768	-0.046370	0.335701
Cl225	Cl	1.392101	0.286964	0.669035
Cl226	Cl	0.442760	0.000247	-0.237451
Cl227	Cl	0.776093	0.333581	0.095882
Cl228	Cl	1.109426	0.666914	0.429216
Cl229	Cl	0.958623	0.000317	0.731848
Cl230	Cl	1.291956	0.333650	1.065182
Cl231	Cl	1.625289	0.666983	1.398515
Cl232	Cl	0.725449	-0.815282	0.002365
Cl233	Cl	1.058782	-0.481948	0.335699
Cl234	Cl	1.392115	-0.148615	0.669032
Cl235	Cl	0.961023	0.000277	0.568333
Cl236	Cl	1.294356	0.333610	0.901666
Cl237	Cl	1.627689	0.666944	1.235000
Cl238	Cl	0.672850	0.000244	0.693572
Cl239	Cl	1.006183	0.333578	1.026906
Cl240	Cl	1.339516	0.666911	1.360239
Cl241	Cl	0.914989	-0.379566	-0.187341
Cl242	Cl	1.248322	-0.046233	0.145993
Cl243	Cl	1.581655	0.287101	0.479326
H244	H	0.624756	0.000163	0.018124
H245	H	0.958090	0.333496	0.351457
H246	H	1.291423	0.666830	0.684790
Cl247	Cl	0.034151	0.000288	0.054873
Cl248	Cl	0.367484	0.333622	0.388207
Cl249	Cl	0.700817	0.666955	0.721540
Cl250	Cl	0.928485	0.109022	0.503907
Cl251	Cl	1.261819	0.442356	0.837241
Cl252	Cl	1.595152	0.775689	1.170574
H253	H	0.703049	0.000236	0.549857
H254	H	1.036383	0.333569	0.883190
H255	H	1.369716	0.666903	1.216524
H256	H	0.733184	-0.087193	0.330026
H257	H	1.066517	0.246141	0.663359
H258	H	1.399850	0.579474	0.996693
H259	H	0.147101	0.000301	-0.205028
H260	H	0.480434	0.333634	0.128305
H261	H	0.813767	0.666967	0.461638
Cl262	Cl	0.253169	0.109008	0.018166
Cl263	Cl	0.586502	0.442341	0.351499
Cl264	Cl	0.919836	0.775675	0.684832
H265	H	0.731253	-0.087173	0.461449
H266	H	1.064586	0.246161	0.794783
H267	H	1.397920	0.579494	1.128116
H268	H	0.709599	0.000207	0.102967
H269	H	1.042932	0.333540	0.436300
H270	H	1.376266	0.666874	0.769633
Cl271	Cl	0.725432	-0.184357	0.002377
Cl272	Cl	1.058765	0.148977	0.335711
Cl273	Cl	1.392098	0.482310	0.669044
H274	H	0.593987	0.000222	-0.211580
H275	H	0.927320	0.333555	0.121753
H276	H	1.260654	0.666888	0.455087
H277	H	0.896379	-0.203409	-0.168735
H278	H	1.229712	0.129924	0.164599
H279	H	1.563045	0.463257	0.497932
Cl280	Cl	0.967575	0.000263	0.121448
Cl281	Cl	1.300908	0.333597	0.454781
Cl282	Cl	1.634241	0.666930	0.788114
H283	H	0.015674	0.000322	-0.203099
H284	H	0.349008	0.333655	0.130234
H285	H	0.682341	0.666989	0.463567
Cl286	Cl	0.930884	0.109002	0.340389
Cl287	Cl	1.264217	0.442335	0.673722
Cl288	Cl	1.597551	0.775668	1.007056
