data_functionalizedCrystal
_audit_creation_method	'MofGen! by Chris Wilmer'
_symmetry_space_group_name_H-M	'P1'
_symmetry_Int_Tables_number	1
_symmetry_cell_setting	triclinic
loop_
_symmetry_equiv_pos_as_xyz
  x,y,z
_cell_length_a	19.805405
_cell_length_b	19.805407
_cell_length_c	19.805399
_cell_angle_alpha	89.980803
_cell_angle_beta	90.029301
_cell_angle_gamma	89.977440
loop_
_atom_site_label
_atom_site_type_symbol
_atom_site_fract_x
_atom_site_fract_y
_atom_site_fract_z
Zn1	Zn	-0.269548	-1.034736	0.382705
Zn2	Zn	0.063785	-0.701402	0.716038
Zn3	Zn	0.397118	-0.368069	1.049371
Zn4	Zn	-0.382737	-1.034650	0.269513
Zn5	Zn	-0.049403	-0.701317	0.602846
Zn6	Zn	0.283930	-0.367984	0.936180
Zn7	Zn	-0.269559	-0.921550	0.269530
Zn8	Zn	0.063774	-0.588217	0.602863
Zn9	Zn	0.397107	-0.254884	0.936197
Zn10	Zn	-0.382693	-0.921514	0.382661
Zn11	Zn	-0.049360	-0.588180	0.715994
Zn12	Zn	0.283973	-0.254847	1.049327
O13	O	-0.326134	-0.978113	0.326102
O14	O	0.007199	-0.644779	0.659435
O15	O	0.340532	-0.311446	0.992769
O16	O	-0.284577	-1.129441	0.367701
O17	O	0.048757	-0.796108	0.701034
O18	O	0.382090	-0.462774	1.034368
O19	O	-0.367746	-1.019627	0.174799
O20	O	-0.034413	-0.686294	0.508132
O21	O	0.298920	-0.352960	0.841465
O22	O	-0.174841	-0.936615	0.284569
O23	O	0.158492	-0.603282	0.617902
O24	O	0.491825	-0.269949	0.951235
O25	O	-0.367736	-1.129378	0.284540
O26	O	-0.034402	-0.796045	0.617873
O27	O	0.298931	-0.462712	0.951206
O28	O	-0.174833	-1.019772	0.367717
O29	O	0.158500	-0.686439	0.701051
O30	O	0.491833	-0.353106	1.034384
O31	O	-0.284596	-0.936533	0.174811
O32	O	0.048738	-0.603200	0.508145
O33	O	0.382071	-0.269866	0.841478
O34	O	-0.284553	-0.826829	0.284526
O35	O	0.048780	-0.493496	0.617859
O36	O	0.382113	-0.160162	0.951192
O37	O	-0.367661	-0.936553	0.477383
O38	O	-0.034328	-0.603220	0.810716
O39	O	0.299005	-0.269887	1.144050
O40	O	-0.367672	-0.826802	0.367642
O41	O	-0.034339	-0.493469	0.700976
O42	O	0.298995	-0.160135	1.034309
O43	O	-0.284534	-1.019737	0.477415
O44	O	0.048799	-0.686404	0.810749
O45	O	0.382132	-0.353070	1.144082
O46	O	-0.477448	-1.019592	0.284497
O47	O	-0.144114	-0.686258	0.617830
O48	O	0.189219	-0.352925	0.951163
O49	O	-0.477416	-0.936471	0.367626
O50	O	-0.144082	-0.603137	0.700959
O51	O	0.189251	-0.269804	1.034292
C52	C	-0.501991	-0.978036	0.326069
C53	C	-0.168657	-0.644703	0.659403
C54	C	0.164676	-0.311370	0.992736
C55	C	-0.577222	-0.978066	0.326078
C56	C	-0.243889	-0.644732	0.659411
C57	C	0.089444	-0.311399	0.992745
C58	C	-0.326110	-0.802257	0.326081
C59	C	0.007224	-0.468923	0.659415
C60	C	0.340557	-0.135590	0.992748
C61	C	-0.326115	-0.727025	0.326089
C62	C	0.007218	-0.393691	0.659422
C63	C	0.340551	-0.060358	0.992755
C64	C	-0.612561	-1.021389	0.282838
C65	C	-0.279227	-0.688056	0.616171
C66	C	0.054106	-0.354722	0.949505
C67	C	-0.683249	-1.021418	0.282853
C68	C	-0.349916	-0.688084	0.616186
C69	C	-0.016583	-0.354751	0.949520
C70	C	-0.718598	-0.978119	0.326105
C71	C	-0.385265	-0.644786	0.659438
C72	C	-0.051931	-0.311453	0.992772
C73	C	-0.683255	-0.934794	0.369350
C74	C	-0.349921	-0.601461	0.702683
C75	C	-0.016588	-0.268128	1.036016
C76	C	-0.612568	-0.934769	0.369338
C77	C	-0.279234	-0.601436	0.702671
C78	C	0.054099	-0.268103	1.036004
C79	C	-0.968328	-0.934894	0.369400
C80	C	-0.634995	-0.601561	0.702733
C81	C	-0.301661	-0.268227	1.036067
C82	C	-1.039020	-0.934921	0.369407
C83	C	-0.705687	-0.601587	0.702740
C84	C	-0.372353	-0.268254	1.036074
C85	C	-1.039010	-1.021542	0.282915
C86	C	-0.705676	-0.688209	0.616249
C87	C	-0.372343	-0.354876	0.949582
C88	C	-0.968322	-1.021517	0.282903
C89	C	-0.634989	-0.688184	0.616237
C90	C	-0.301656	-0.354851	0.949570
C91	C	-0.932985	-0.978195	0.326150
C92	C	-0.599652	-0.644862	0.659483
C93	C	-0.266319	-0.311529	0.992817
C94	C	-0.856337	-0.978165	0.326134
C95	C	-0.523004	-0.644832	0.659468
C96	C	-0.189670	-0.311499	0.992801
C97	C	-0.795245	-0.978145	0.326118
C98	C	-0.461912	-0.644812	0.659451
C99	C	-0.128578	-0.311478	0.992785
C100	C	-0.282890	-0.691714	0.369456
C101	C	0.050443	-0.358380	0.702789
C102	C	0.383776	-0.025047	1.036122
C103	C	-0.282892	-0.621025	0.369457
C104	C	0.050441	-0.287692	0.702790
C105	C	0.383774	0.045641	1.036123
C106	C	-0.326124	-0.585649	0.326093
C107	C	0.007210	-0.252316	0.659427
C108	C	0.340543	0.081018	0.992760
C109	C	-0.369350	-0.620965	0.282721
C110	C	-0.036017	-0.287632	0.616055
C111	C	0.297316	0.045702	0.949388
C112	C	-0.369344	-0.691652	0.282718
C113	C	-0.036011	-0.358319	0.616051
C114	C	0.297322	-0.024985	0.949384
C115	C	-0.369375	-0.335892	0.282735
C116	C	-0.036042	-0.002558	0.616069
C117	C	0.297292	0.330775	0.949402
C118	C	-0.369379	-0.265199	0.282744
C119	C	-0.036046	0.068134	0.616077
C120	C	0.297287	0.401467	0.949410
C121	C	-0.282923	-0.265265	0.369474
C122	C	0.050410	0.068069	0.702808
C123	C	0.383744	0.401402	1.036141
C124	C	-0.282917	-0.335952	0.369470
C125	C	0.050416	-0.002619	0.702804
C126	C	0.383750	0.330715	1.036137
C127	C	-0.326141	-0.371262	0.326096
C128	C	0.007192	-0.037928	0.659430
C129	C	0.340525	0.295405	0.992763
C130	C	-0.326137	-0.447910	0.326095
C131	C	0.007196	-0.114577	0.659428
C132	C	0.340529	0.218757	0.992762
C133	C	-0.326131	-0.509002	0.326098
C134	C	0.007202	-0.175669	0.659431
C135	C	0.340535	0.157665	0.992764
C136	C	-0.149592	-0.978207	0.326150
C137	C	0.183742	-0.644874	0.659483
C138	C	0.517075	-0.311541	0.992816
C139	C	-0.074360	-0.978248	0.326170
C140	C	0.258974	-0.644915	0.659503
C141	C	0.592307	-0.311581	0.992837
C142	C	-0.326092	-0.978151	0.502645
C143	C	0.007242	-0.644817	0.835978
C144	C	0.340575	-0.311484	1.169312
C145	C	-0.326074	-0.978167	0.577877
C146	C	0.007260	-0.644833	0.911210
C147	C	0.340593	-0.311500	1.244544
C148	C	-0.326155	-0.154655	0.326117
C149	C	0.007179	0.178678	0.659451
C150	C	0.340512	0.512011	0.992784
C151	C	-0.326150	-0.229887	0.326108
C152	C	0.007183	0.103446	0.659441
C153	C	0.340516	0.436779	0.992775
C154	C	-0.326128	-0.978114	0.150246
C155	C	0.007205	-0.644780	0.483579
C156	C	0.340539	-0.311447	0.816913
C157	C	-0.325956	-0.978229	0.075015
C158	C	0.007378	-0.644895	0.408348
C159	C	0.340711	-0.311562	0.741681
C160	C	-0.282787	-1.021481	0.613239
C161	C	0.050546	-0.688148	0.946572
C162	C	0.383879	-0.354815	1.279906
C163	C	-0.282768	-1.021488	0.683928
C164	C	0.050566	-0.688155	1.017261
C165	C	0.383899	-0.354822	1.350594
C166	C	-0.326038	-0.978184	0.719253
C167	C	0.007295	-0.644850	1.052586
C168	C	0.340628	-0.311517	1.385919
C169	C	-0.369327	-0.934864	0.683886
C170	C	-0.035993	-0.601531	1.017219
C171	C	0.297340	-0.268197	1.350552
C172	C	-0.369342	-0.934854	0.613198
C173	C	-0.036009	-0.601521	0.946532
C174	C	0.297324	-0.268188	1.279865
C175	C	-0.369264	-0.934902	0.968959
C176	C	-0.035930	-0.601569	1.302292
C177	C	0.297403	-0.268236	1.635626
C178	C	-0.369246	-0.934917	1.039651
C179	C	-0.035913	-0.601584	1.372984
C180	C	0.297421	-0.268250	1.706318
C181	C	-0.282689	-1.021536	1.039688
C182	C	0.050644	-0.688203	1.373022
C183	C	0.383978	-0.354870	1.706355
C184	C	-0.282705	-1.021527	0.969001
C185	C	0.050629	-0.688193	1.302334
C186	C	0.383962	-0.354860	1.635668
C187	C	-0.325990	-0.978205	0.933640
C188	C	0.007343	-0.644872	1.266973
C189	C	0.340677	-0.311538	1.600307
C190	C	-0.326010	-0.978197	0.856992
C191	C	0.007323	-0.644864	1.190325
C192	C	0.340657	-0.311530	1.523658
C193	C	-0.326022	-0.978194	0.795900
C194	C	0.007311	-0.644861	1.129233
C195	C	0.340644	-0.311528	1.462566
H196	H	-0.583784	-1.056644	0.247614
H197	H	-0.250451	-0.723311	0.580948
H198	H	0.082882	-0.389978	0.914281
H199	H	-0.939544	-1.056773	0.247681
H200	H	-0.606210	-0.723439	0.581014
H201	H	-0.272877	-0.390106	0.914348
H202	H	-0.404542	-0.720401	0.247403
H203	H	-0.071209	-0.387068	0.580736
H204	H	0.262124	-0.053735	0.914070
F205	F	-0.415332	-0.888795	0.931334
F206	F	-0.081999	-0.555462	1.264668
F207	F	0.251335	-0.222129	1.598001
F208	F	-0.415357	-0.583313	0.236567
F209	F	-0.082023	-0.249980	0.569900
F210	F	0.251310	0.083354	0.903234
H211	H	-0.583796	-0.899492	0.404549
H212	H	-0.250462	-0.566159	0.737882
H213	H	0.082871	-0.232826	1.071216
H214	H	-1.067790	-1.056820	0.247704
H215	H	-0.734456	-0.723487	0.581037
H216	H	-0.401123	-0.390153	0.914371
H217	H	-0.404571	-0.364632	0.247418
H218	H	-0.071238	-0.031299	0.580751
H219	H	0.262095	0.302034	0.914085
F220	F	-0.236653	-1.067620	0.931409
F221	F	0.096681	-0.734286	1.264743
F222	F	0.430014	-0.400953	1.598076
F223	F	-0.930729	-0.888786	0.415426
F224	F	-0.597395	-0.555453	0.748760
F225	F	-0.264062	-0.222119	1.082093
H226	H	-0.247553	-1.056747	0.584482
H227	H	0.085780	-0.723414	0.917816
H228	H	0.419113	-0.390081	1.251149
H229	H	-0.247696	-0.592278	0.404772
H230	H	0.085638	-0.258945	0.738105
H231	H	0.418971	0.074389	1.071438
F232	F	-0.720877	-0.888717	0.415386
F233	F	-0.387544	-0.555383	0.748719
F234	F	-0.054211	-0.222050	1.082052
F235	F	-0.236720	-1.067613	0.721559
F236	F	0.096614	-0.734280	1.054893
F237	F	0.429947	-0.400946	1.388226
F238	F	-1.076640	-0.888835	0.415445
F239	F	-0.743306	-0.555502	0.748778
F240	F	-0.409973	-0.222169	1.082112
F241	F	-0.236618	-1.067642	1.077327
F242	F	0.096715	-0.734308	1.410661
F243	F	0.430049	-0.400975	1.743994
H244	H	-0.247688	-0.720512	0.404769
H245	H	0.085645	-0.387179	0.738102
H246	H	0.418978	-0.053845	1.071436
F247	F	-0.415412	-0.888751	0.575564
F248	F	-0.082079	-0.555418	0.908897
F249	F	0.251255	-0.222084	1.242230
F250	F	-0.415302	-0.888823	1.077245
F251	F	-0.081969	-0.555490	1.410579
F252	F	0.251364	-0.222157	1.743912
H253	H	-0.247716	-0.364752	0.404784
H254	H	0.085617	-0.031418	0.738117
H255	H	0.418950	0.301915	1.071450
H256	H	-0.404556	-0.899602	0.712653
H257	H	-0.071223	-0.566269	1.045986
H258	H	0.262111	-0.232935	1.379319
H259	H	-0.712019	-1.056695	0.247642
H260	H	-0.378685	-0.723362	0.580976
H261	H	-0.045352	-0.390029	0.914309
H262	H	-0.404585	-0.236398	0.247430
H263	H	-0.071252	0.096935	0.580763
H264	H	0.262082	0.430269	0.914096
F265	F	-0.236918	-0.227680	0.415636
F266	F	0.096415	0.105653	0.748969
F267	F	0.429749	0.438987	1.082302
