data_functionalizedCrystal
_audit_creation_method	'MofGen! by Chris Wilmer'
_symmetry_space_group_name_H-M	'P1'
_symmetry_Int_Tables_number	1
_symmetry_cell_setting	triclinic
loop_
_symmetry_equiv_pos_as_xyz
  x,y,z
_cell_length_a	16.109301
_cell_length_b	13.596369
_cell_length_c	14.519709
_cell_angle_alpha	90.006934
_cell_angle_beta	83.570813
_cell_angle_gamma	90.002607
loop_
_atom_site_label
_atom_site_type_symbol
_atom_site_fract_x
_atom_site_fract_y
_atom_site_fract_z
O1	O	1.103338	0.081731	0.118543
O2	O	1.353338	0.331731	0.368543
O3	O	1.603338	0.581731	0.618543
O4	O	1.853338	0.831731	0.868543
O5	O	0.861301	0.081747	0.133295
O6	O	1.111301	0.331747	0.383295
O7	O	1.361301	0.581747	0.633295
O8	O	1.611301	0.831747	0.883295
O9	O	0.988737	0.081730	-0.008333
O10	O	1.238737	0.331730	0.241667
O11	O	1.488737	0.581730	0.491667
O12	O	1.738737	0.831730	0.741667
O13	O	0.975902	0.081749	0.260171
O14	O	1.225902	0.331749	0.510171
O15	O	1.475902	0.581749	0.760171
O16	O	1.725902	0.831749	1.010171
O17	O	0.988724	-0.081853	-0.008341
O18	O	1.238724	0.168147	0.241659
O19	O	1.488724	0.418147	0.491659
O20	O	1.738724	0.668147	0.741659
O21	O	0.861289	-0.081836	0.133287
O22	O	1.111289	0.168164	0.383287
O23	O	1.361289	0.418164	0.633287
O24	O	1.611289	0.668164	0.883287
O25	O	1.103325	-0.081852	0.118535
O26	O	1.353325	0.168148	0.368535
O27	O	1.603325	0.418148	0.618535
O28	O	1.853325	0.668148	0.868535
Zn29	Zn	0.982305	-0.107816	0.125910
Zn30	Zn	1.232305	0.142184	0.375910
Zn31	Zn	1.482305	0.392184	0.625910
Zn32	Zn	1.732305	0.642184	0.875910
Zn33	Zn	0.982322	0.107712	0.125920
Zn34	Zn	1.232322	0.357712	0.375920
Zn35	Zn	1.482322	0.607712	0.625920
Zn36	Zn	1.732322	0.857712	0.875920
O37	O	0.975890	-0.081834	0.260163
O38	O	1.225890	0.168166	0.510163
O39	O	1.475890	0.418166	0.760163
O40	O	1.725890	0.668166	1.010163
C41	C	0.830319	-0.000042	0.132693
C42	C	1.080319	0.249958	0.382693
C43	C	1.330319	0.499958	0.632693
C44	C	1.580319	0.749958	0.882693
C45	C	0.738021	-0.000037	0.130902
C46	C	0.988021	0.249963	0.380902
C47	C	1.238021	0.499963	0.630902
C48	C	1.488021	0.749963	0.880902
N49	N	0.982300	-0.254908	0.125903
N50	N	1.232300	-0.004908	0.375903
N51	N	1.482300	0.245092	0.625903
N52	N	1.732300	0.495092	0.875903
C53	C	0.515887	-0.000042	0.210775
C54	C	0.765887	0.249958	0.460775
C55	C	1.015887	0.499958	0.710775
C56	C	1.265887	0.749958	0.960775
C57	C	0.429163	-0.000049	0.209085
C58	C	0.679163	0.249951	0.459085
C59	C	0.929163	0.499951	0.709085
C60	C	1.179163	0.749951	0.959085
C61	C	0.448747	-0.000056	0.041048
C62	C	0.698747	0.249944	0.291048
C63	C	0.948747	0.499944	0.541048
C64	C	1.198747	0.749944	0.791048
C65	C	0.535468	-0.000057	0.042739
C66	C	0.785468	0.249943	0.292739
C67	C	1.035468	0.499943	0.542739
C68	C	1.285468	0.749943	0.792739
C69	C	0.569036	-0.000045	0.127606
C70	C	0.819036	0.249955	0.377606
C71	C	1.069036	0.499955	0.627606
C72	C	1.319036	0.749955	0.877606
C73	C	0.395591	-0.000051	0.124224
C74	C	0.645591	0.249949	0.374224
C75	C	0.895591	0.499949	0.624224
C76	C	1.145591	0.749949	0.874224
C77	C	0.301562	-0.000058	0.122390
C78	C	0.551562	0.249942	0.372390
C79	C	0.801562	0.499942	0.622390
C80	C	1.051562	0.749942	0.872390
C81	C	0.663071	-0.000040	0.129440
C82	C	0.913071	0.249960	0.379440
C83	C	1.163071	0.499960	0.629440
C84	C	1.413071	0.749960	0.879440
C85	C	0.982321	-0.656199	0.125921
C86	C	1.232321	-0.406199	0.375921
C87	C	1.482321	-0.156199	0.625921
C88	C	1.732321	0.093801	0.875921
C89	C	0.982312	-0.544547	0.125919
C90	C	1.232312	-0.294547	0.375919
C91	C	1.482312	-0.044547	0.625919
C92	C	1.732312	0.205453	0.875919
C93	C	0.982311	-0.455557	0.125912
C94	C	1.232311	-0.205557	0.375912
C95	C	1.482311	0.044443	0.625912
C96	C	1.732311	0.294443	0.875912
C97	C	0.982301	-0.343898	0.125909
C98	C	1.232301	-0.093898	0.375909
C99	C	1.482301	0.156102	0.625909
C100	C	1.732301	0.406102	0.875909
C101	C	1.134307	-0.000060	0.119136
C102	C	1.384307	0.249940	0.369136
C103	C	1.634307	0.499940	0.619136
C104	C	1.884307	0.749940	0.869136
C105	C	1.226606	-0.000059	0.120928
C106	C	1.476606	0.249941	0.370928
C107	C	1.726606	0.499941	0.620928
C108	C	1.976606	0.749941	0.870928
C109	C	0.988132	-0.000062	-0.042696
C110	C	1.238132	0.249938	0.207304
C111	C	1.488132	0.499938	0.457304
C112	C	1.738132	0.749938	0.707304
C113	C	0.986340	-0.000062	-0.145073
C114	C	1.236340	0.249938	0.104927
C115	C	1.486340	0.499938	0.354927
C116	C	1.736340	0.749938	0.604927
N117	N	0.982334	0.254803	0.125920
N118	N	1.232334	0.504803	0.375920
N119	N	1.482334	0.754803	0.625920
N120	N	1.732334	1.004803	0.875920
C121	C	0.979741	-0.000036	-0.519955
C122	C	1.229741	0.249964	-0.269955
C123	C	1.479741	0.499964	-0.019955
C124	C	1.729741	0.749964	0.230045
C125	C	0.981574	-0.000044	-0.415651
C126	C	1.231574	0.249956	-0.165651
C127	C	1.481574	0.499956	0.084349
C128	C	1.731574	0.749956	0.334349
C129	C	0.983041	-0.000050	-0.332517
C130	C	1.233041	0.249950	-0.082517
C131	C	1.483041	0.499950	0.167483
C132	C	1.733041	0.749950	0.417483
C133	C	0.984873	-0.000056	-0.228207
C134	C	1.234873	0.249944	0.021793
C135	C	1.484873	0.499944	0.271793
C136	C	1.734873	0.749944	0.521793
C137	C	0.976494	-0.000041	0.294526
C138	C	1.226494	0.249959	0.544526
C139	C	1.476494	0.499959	0.794526
C140	C	1.726494	0.749959	1.044526
C141	C	0.978287	-0.000034	0.396903
C142	C	1.228287	0.249966	0.646903
C143	C	1.478287	0.499966	0.896903
C144	C	1.728287	0.749966	1.146903
H145	H	0.543214	-0.000040	0.279879
H146	H	0.793214	0.249960	0.529879
H147	H	1.043214	0.499960	0.779879
H148	H	1.293214	0.749960	1.029879
H149	H	0.578745	-0.000062	-0.024991
H150	H	0.828745	0.249938	0.225009
H151	H	1.078745	0.499938	0.475009
H152	H	1.328745	0.749938	0.725009
H153	H	0.421405	-0.000072	-0.028048
H154	H	0.671405	0.249928	0.221952
H155	H	0.921405	0.499928	0.471952
H156	H	1.171405	0.749928	0.721952
H157	H	0.385892	-0.000049	0.276810
H158	H	0.635892	0.249951	0.526810
H159	H	0.885892	0.499951	0.776810
H160	H	1.135892	0.749951	1.026810
