data_functionalizedCrystal
_audit_creation_method	'MofGen! by Chris Wilmer'
_symmetry_space_group_name_H-M	'P1'
_symmetry_Int_Tables_number	1
_symmetry_cell_setting	triclinic
loop_
_symmetry_equiv_pos_as_xyz
  x,y,z
_cell_length_a	14.044191
_cell_length_b	13.101039
_cell_length_c	17.699083
_cell_angle_alpha	93.354568
_cell_angle_beta	91.762604
_cell_angle_gamma	93.662449
loop_
_atom_site_label
_atom_site_type_symbol
_atom_site_fract_x
_atom_site_fract_y
_atom_site_fract_z
O1	O	1.262509	0.085168	-0.178644
O2	O	1.762509	0.585168	0.321356
O3	O	0.986555	0.085181	-0.172055
O4	O	1.486555	0.585181	0.327945
O5	O	1.132328	0.085165	-0.065699
O6	O	1.632328	0.585165	0.434301
O7	O	1.116736	0.085184	-0.285000
O8	O	1.616736	0.585184	0.215000
O9	O	1.121869	-0.085263	-0.073343
O10	O	1.621869	0.414737	0.426657
O11	O	0.976096	-0.085247	-0.179699
O12	O	1.476096	0.414753	0.320301
O13	O	1.252050	-0.085260	-0.186289
O14	O	1.752050	0.414740	0.313711
Zn15	Zn	1.112412	-0.112313	-0.184208
Zn16	Zn	1.612412	0.387687	0.315792
Zn17	Zn	1.126192	0.112234	-0.174136
Zn18	Zn	1.626192	0.612234	0.325864
O19	O	1.106277	-0.085244	-0.292645
O20	O	1.606277	0.414756	0.207355
C21	C	0.946018	-0.000032	-0.172994
C22	C	1.446018	0.499968	0.327006
C23	C	0.840812	-0.000027	-0.164396
C24	C	1.340812	0.499973	0.335604
C25	C	0.590421	-0.000033	-0.209657
C26	C	1.090421	0.499967	0.290343
C27	C	0.648190	-0.000037	-0.148690
C28	C	1.148190	0.499963	0.351310
C29	C	0.755375	-0.000031	-0.157431
C30	C	1.255375	0.499969	0.342569
C31	C	0.483226	-0.000039	-0.200917
C32	C	0.983226	0.499961	0.299083
N33	N	1.103014	-0.265561	-0.191082
N34	N	1.603014	0.234439	0.308918
C35	C	1.090228	-0.474602	-0.200441
C36	C	1.590228	0.025398	0.299559
C37	C	1.148381	-0.525484	-0.157899
C38	C	1.648381	-0.025484	0.342101
C39	C	1.141266	-0.641801	-0.163107
C40	C	1.641266	-0.141801	0.336893
C41	C	1.097341	-0.358274	-0.195235
C42	C	1.597341	0.141726	0.304765
C43	C	1.292587	-0.000045	-0.185349
C44	C	1.792587	0.499955	0.314651
C45	C	1.397793	-0.000043	-0.193947
C46	C	1.897793	0.499957	0.306053
C47	C	1.126539	-0.000049	-0.041286
C48	C	1.626539	0.499951	0.458714
C49	C	1.124863	-0.000049	0.042848
C50	C	1.624863	0.499951	0.542848
N51	N	1.135598	0.265482	-0.167256
N52	N	1.635598	0.765482	0.332744
C53	C	1.112065	-0.000028	-0.317058
C54	C	1.612065	0.499972	0.182942
C55	C	1.113742	-0.000021	-0.401192
C56	C	1.613742	0.499979	0.098808
C57	C	1.210429	-0.000055	0.085565
C58	C	1.710429	0.499945	0.585565
C59	C	1.208849	-0.000046	0.164617
C60	C	1.708849	0.499954	0.664617
C61	C	1.121702	-0.000038	0.200952
C62	C	1.621702	0.499962	0.700952
C63	C	1.036130	-0.000030	0.158230
C64	C	1.536130	0.499970	0.658230
C65	C	1.037711	-0.000032	0.079179
C66	C	1.537711	0.499968	0.579179
C67	C	1.029750	-0.000021	0.477034
C68	C	1.529750	0.499979	0.977034
C69	C	1.028175	-0.000023	0.556090
C70	C	1.528175	0.499977	1.056090
C71	C	1.200888	-0.000035	0.562472
C72	C	1.700888	0.499965	1.062472
C73	C	1.202469	-0.000037	0.483421
C74	C	1.702469	0.499963	0.983421
C75	C	1.116898	-0.000023	0.440706
C76	C	1.616898	0.499977	0.940706
C77	C	1.118612	-0.000031	0.354988
C78	C	1.618612	0.499969	0.854988
C79	C	1.119986	-0.000038	0.286668
C80	C	1.619986	0.499962	0.786668
H81	H	1.203510	-0.481687	-0.117567
H82	H	1.703510	0.018313	0.382433
H83	H	1.281394	-0.000067	0.055987
H84	H	1.781394	0.499933	0.555987
H85	H	0.617154	0.000030	-0.089926
H86	H	1.117154	0.500030	0.410074
H87	H	0.621460	-0.000025	-0.268413
H88	H	1.121460	0.499975	0.231587
Cl89	Cl	1.005121	-0.542214	-0.262711
Cl90	Cl	1.505121	-0.042214	0.237289
Cl91	Cl	1.316422	-0.000056	0.218315
Cl92	Cl	1.816422	0.499944	0.718315
Cl93	Cl	1.312030	-0.000043	0.437748
Cl94	Cl	1.812030	0.499957	0.937748
Cl95	Cl	1.308465	-0.000049	0.616176
Cl96	Cl	1.808465	0.499951	1.116176
H97	H	0.957205	-0.000019	0.585671
H98	H	1.457205	0.499981	1.085671
Cl99	Cl	0.922174	-0.000001	0.423345
Cl100	Cl	1.422174	0.499999	0.923345
H101	H	0.965173	-0.000018	0.187820
H102	H	1.465173	0.499982	0.687820
H103	H	0.968035	-0.000027	0.044400
H104	H	1.468035	0.499973	0.544400
