data_functionalizedCrystal
_audit_creation_method	'MofGen! by Chris Wilmer'
_symmetry_space_group_name_H-M	'P1'
_symmetry_Int_Tables_number	1
_symmetry_cell_setting	triclinic
loop_
_symmetry_equiv_pos_as_xyz
  x,y,z
_cell_length_a	14.971506
_cell_length_b	12.811415
_cell_length_c	13.448316
_cell_angle_alpha	84.562549
_cell_angle_beta	89.992937
_cell_angle_gamma	83.833801
loop_
_atom_site_label
_atom_site_type_symbol
_atom_site_fract_x
_atom_site_fract_y
_atom_site_fract_z
O1	O	1.187322	0.136885	-0.095041
O2	O	0.926970	0.153243	-0.096516
O3	O	1.063695	-0.007720	-0.081996
O4	O	1.050597	0.297849	-0.109560
O5	O	1.063678	-0.007730	0.083388
O6	O	0.926953	0.153233	0.068869
O7	O	1.187304	0.136875	0.070344
Cu8	Cu	1.057127	0.145054	0.084707
Cu9	Cu	1.057147	0.145065	-0.110879
O10	O	1.050580	0.297839	0.055824
C11	C	0.893635	0.152503	-0.013757
C12	C	0.794333	0.150299	-0.013559
C13	C	0.356293	0.236453	-0.021341
C14	C	0.449599	0.238515	-0.021531
C15	C	0.506552	0.143943	-0.012995
C16	C	0.470196	0.047302	-0.004279
C17	C	0.376891	0.045241	-0.004096
C18	C	0.664671	0.051605	-0.004659
C19	C	0.757982	0.053666	-0.004840
C20	C	0.737378	0.244879	-0.022094
C21	C	0.644074	0.242818	-0.021911
C22	C	0.607724	0.146177	-0.013193
C23	C	1.062952	-0.046830	0.004221
C24	C	1.060753	-0.163352	0.014726
C25	C	1.056624	-0.382286	-0.145858
C26	C	1.054558	-0.491768	-0.135993
C27	C	1.054548	-0.491800	0.044320
C28	C	1.056615	-0.382318	0.034455
C29	C	1.057654	-0.327565	-0.060637
C30	C	1.059726	-0.218081	-0.070501
C31	C	1.059710	-0.218114	0.109811
C32	C	1.057644	-0.327596	0.119676
C33	C	1.220640	0.137616	-0.012417
C34	C	1.319942	0.139820	-0.012622
C35	C	1.051323	0.336949	-0.030396
C36	C	1.053521	0.453471	-0.040907
N37	N	1.057119	0.145045	0.222272
N38	N	1.057162	0.145066	-0.248444
C39	C	1.117680	0.073799	0.280739
C40	C	1.117685	0.073799	0.384843
C41	C	1.057134	0.145049	0.430477
C42	C	0.996567	0.216297	0.372002
C43	C	0.996558	0.216292	0.267901
C44	C	0.996592	0.216304	0.588981
C45	C	0.996602	0.216311	0.693089
C46	C	1.117720	0.073811	0.705923
C47	C	1.117710	0.073806	0.601822
C48	C	1.057144	0.145056	0.543354
H49	H	0.309927	0.313465	-0.028283
H50	H	0.347297	-0.033448	0.003001
C51	C	0.419862	0.427310	-0.038546
C52	C	0.489555	0.344738	-0.031105
H53	H	0.444531	0.492889	-0.044451
H54	H	0.383907	0.422536	-0.095786
H55	H	0.383891	0.422513	0.019563
H56	H	0.525522	0.349531	-0.089218
H57	H	0.525525	0.349514	0.026140
H58	H	0.947269	0.274321	0.541380
H59	H	0.516575	-0.029700	0.002664
H60	H	1.166998	0.015785	0.432447
C61	C	0.871253	0.332953	-0.030095
C62	C	0.777330	0.351110	-0.031714
H63	H	0.895919	0.398535	-0.036046
H64	H	0.890773	0.294034	0.031093
H65	H	0.890764	0.293991	-0.084249
H66	H	0.757819	0.390066	0.022445
H67	H	0.757802	0.390046	-0.092910
C68	C	1.059513	-0.229150	0.289039
C69	C	1.060854	-0.157965	0.203496
H70	H	1.060231	-0.192016	0.346873
H71	H	1.006608	-0.263906	0.288434
H72	H	1.110802	-0.279796	0.289832
H73	H	1.009561	-0.107324	0.202699
H74	H	1.113764	-0.123192	0.204102
H75	H	1.060575	-0.173503	-0.147930
C76	C	1.056433	-0.393248	-0.323100
C77	C	1.057769	-0.322095	-0.250379
H78	H	1.057135	-0.356086	-0.387627
H79	H	1.107721	-0.443880	-0.314788
H80	H	1.003526	-0.428019	-0.316211
H81	H	1.110679	-0.287329	-0.257263
H82	H	1.006476	-0.271443	-0.258695
C83	C	0.874944	0.238829	0.487079
C84	C	0.930008	0.294615	0.422165
H85	H	0.833859	0.287184	0.518051
H86	H	0.842607	0.195081	0.450429
H87	H	0.911026	0.196401	0.536794
H88	H	0.893927	0.337038	0.372446
H89	H	0.962347	0.338381	0.458818
H90	H	1.053716	-0.536318	-0.205389
H91	H	1.166992	0.015784	0.243591
H92	H	0.597704	0.319827	-0.028854
C93	C	1.239137	0.050947	0.486481
C94	C	1.184050	-0.004643	0.551534
H95	H	1.280029	0.002473	0.455404
H96	H	1.203053	0.093504	0.436868
H97	H	1.271699	0.094552	0.523061
H98	H	1.151482	-0.048242	0.514952
H99	H	1.220138	-0.047218	0.601154
H100	H	0.804352	-0.023343	0.002102
H101	H	0.635079	-0.027090	0.002435
H102	H	1.056795	-0.372191	0.197098
C103	C	1.051415	-0.659654	0.139495
C104	C	1.053435	-0.552002	0.148839
H105	H	1.050742	-0.696820	0.204023
H106	H	0.998974	-0.669655	0.103384
H107	H	1.103169	-0.685499	0.104754
H108	H	1.001677	-0.526155	0.183574
H109	H	1.105881	-0.541995	0.184966
C110	C	1.169600	-0.107796	0.754342
C111	C	1.184299	-0.004513	0.770180
H112	H	1.210710	-0.156142	0.794010
H113	H	1.109878	-0.119320	0.772467
H114	H	1.178258	-0.117976	0.685808
H115	H	1.175634	0.005669	0.838713
H116	H	1.244035	0.007015	0.752062
C117	C	0.876850	0.357133	0.669956
C118	C	0.930026	0.294610	0.743254
H119	H	0.835743	0.405462	0.700929
H120	H	0.914203	0.394982	0.625932
H121	H	0.844529	0.313353	0.633308
H122	H	0.962352	0.338389	0.779898
H123	H	0.892668	0.256758	0.787296
H124	H	0.947242	0.274306	0.220298
