data_functionalizedCrystal
_audit_creation_method	'MofGen! by Chris Wilmer'
_symmetry_space_group_name_H-M	'P1'
_symmetry_Int_Tables_number	1
_symmetry_cell_setting	triclinic
loop_
_symmetry_equiv_pos_as_xyz
  x,y,z
_cell_length_a	11.026607
_cell_length_b	9.198806
_cell_length_c	10.723024
_cell_angle_alpha	90.002012
_cell_angle_beta	83.473057
_cell_angle_gamma	89.996461
loop_
_atom_site_label
_atom_site_type_symbol
_atom_site_fract_x
_atom_site_fract_y
_atom_site_fract_z
O1	O	1.614521	-0.120890	-0.523503
O2	O	1.260718	-0.120892	-0.463891
O3	O	1.445780	-0.120886	-0.313882
O4	O	1.429459	-0.120896	-0.673512
O5	O	1.445766	0.120900	-0.313879
O6	O	1.260704	0.120893	-0.463888
O7	O	1.614506	0.120895	-0.523499
Cu8	Cu	1.437603	0.142971	-0.493693
Cu9	Cu	1.437621	-0.142968	-0.493698
O10	O	1.429444	0.120889	-0.673508
C11	C	1.215408	0.000000	-0.452892
C12	C	1.080422	-0.000001	-0.420109
N13	N	1.437600	0.344085	-0.493691
N14	N	1.437634	-0.344082	-0.493692
C15	C	1.007369	-0.000004	-0.510629
C16	C	0.867853	-0.000005	-0.476748
C17	C	1.659816	-0.000000	-0.534498
C18	C	1.794803	-0.000009	-0.567282
C19	C	1.444585	0.000005	-0.267125
C20	C	1.441032	0.000000	-0.127803
C21	C	1.515302	0.416285	-0.430355
C22	C	1.515321	0.583697	-0.430355
C23	C	1.430639	-0.000005	-0.720266
C24	C	1.434193	-0.000010	-0.859587
C25	C	1.544583	-0.000001	-0.075171
C26	C	1.540912	-0.000007	0.068824
H27	H	1.048115	0.000001	-0.613209
H28	H	1.581809	0.354161	-0.376125
C29	C	1.660676	-0.000007	0.130017
N30	N	1.750886	-0.000010	0.176110
C31	C	1.668026	0.000010	-0.158308
N32	N	1.761007	0.000024	-0.220926
H33	H	1.371085	0.406211	-0.547910
C34	C	1.317588	0.000001	-0.044666
N35	N	1.224607	0.000007	0.017952
C36	C	1.605195	0.667574	-0.357096
N37	N	1.672889	0.730753	-0.301914
H38	H	0.827113	-0.000039	-0.374161
H39	H	1.039676	-0.000035	-0.317529
H40	H	1.345540	0.000001	0.095122
H41	H	0.835541	-0.000002	-0.669869
H42	H	1.371111	0.593839	-0.547925
