data_functionalizedCrystal
_audit_creation_method	'MofGen! by Chris Wilmer'
_symmetry_space_group_name_H-M	'P1'
_symmetry_Int_Tables_number	1
_symmetry_cell_setting	triclinic
loop_
_symmetry_equiv_pos_as_xyz
  x,y,z
_cell_length_a	16.109301
_cell_length_b	11.026607
_cell_length_c	14.586319
_cell_angle_alpha	89.998207
_cell_angle_beta	89.999213
_cell_angle_gamma	96.023749
loop_
_atom_site_label
_atom_site_type_symbol
_atom_site_fract_x
_atom_site_fract_y
_atom_site_fract_z
O1	O	1.126503	0.155971	-0.076179
O2	O	0.887350	0.175382	-0.076193
O3	O	0.987106	-0.010969	-0.076183
O4	O	1.026747	0.342322	-0.076188
O5	O	0.987097	-0.010971	0.076297
O6	O	0.887341	0.175379	0.076288
O7	O	1.126494	0.155969	0.076302
Cu8	Cu	1.006916	0.165674	0.090218
Cu9	Cu	1.006927	0.165677	-0.090108
O10	O	1.026738	0.342319	0.076293
C11	C	0.856253	0.174594	0.000046
C12	C	0.763604	0.172237	0.000040
C13	C	0.979788	-0.056178	0.000055
C14	C	0.957987	-0.190883	0.000051
C15	C	0.557080	0.277333	0.000050
C16	C	0.470027	0.275108	0.000056
C17	C	0.456769	0.054010	0.000055
C18	C	0.543821	0.056235	0.000055
C19	C	0.593975	0.167900	0.000048
C20	C	0.419869	0.163450	0.000053
C21	C	0.325481	0.161038	0.000060
C22	C	0.688369	0.170314	0.000043
C23	C	1.018183	-0.264713	0.000053
C24	C	0.995652	-0.403938	0.000048
C25	C	1.157591	0.156756	0.000062
C26	C	1.250240	0.159114	0.000061
C27	C	1.034056	0.387529	0.000052
C28	C	1.055857	0.522234	0.000051
N29	N	1.006915	0.165671	0.217050
N30	N	1.006934	0.165670	-0.216940
C31	C	1.051109	0.083182	0.452060
C32	C	1.051111	0.083179	0.548041
C33	C	0.962734	0.248163	0.548043
C34	C	0.962728	0.248159	0.452063
C35	C	1.006920	0.165670	0.404074
C36	C	1.006929	0.165671	0.596035
C37	C	1.006930	0.165668	0.700102
C38	C	1.006918	0.165671	0.300001
H39	H	0.439992	0.364219	0.000059
O40	O	0.914295	-0.451621	-0.000081
C41	C	0.805863	-0.577816	-0.079118
C42	C	0.898018	-0.523918	-0.079074
H43	H	0.792670	-0.636258	-0.142987
H44	H	0.792615	-0.636452	-0.015352
H45	H	0.764061	-0.500555	-0.079074
H46	H	0.939880	-0.601101	-0.079151
H47	H	0.911199	-0.465250	-0.142835
H48	H	1.124077	-0.437909	-0.000014
O49	O	1.093918	0.002858	0.405505
C50	C	1.111061	-0.208147	0.376257
C51	C	1.062505	-0.117292	0.429004
H52	H	1.085694	-0.305307	0.395251
H53	H	1.103467	-0.194124	0.299397
H54	H	1.180021	-0.192257	0.395121
H55	H	0.993529	-0.133127	0.410216
H56	H	1.070169	-0.131337	0.505850
O57	O	0.919697	0.328129	0.405401
C58	C	0.810049	0.353907	0.296995
C59	C	0.858700	0.263217	0.349799
H60	H	0.760734	0.301461	0.252014
H61	H	0.778408	0.412858	0.347735
H62	H	0.855038	0.414555	0.252094
H63	H	0.813767	0.202489	0.394702
H64	H	0.890354	0.204351	0.299009
O65	O	0.407926	-0.054350	0.000013
C66	C	0.267943	-0.155769	0.000062
C67	C	0.323156	-0.032965	0.000090
H68	H	0.199395	-0.138522	0.000144
H69	H	0.281730	-0.209859	-0.063766
H70	H	0.281837	-0.209849	0.063860
H71	H	0.309293	0.021214	-0.063664
H72	H	0.309359	0.021033	0.063961
H73	H	1.087093	0.016009	0.587109
O74	O	0.919755	0.328127	0.594764
C75	C	0.810052	0.353916	0.703100
C76	C	0.858670	0.263219	0.650263
H77	H	0.760642	0.301473	0.747969
H78	H	0.854977	0.414534	0.748089
H79	H	0.778506	0.412896	0.652299
H80	H	0.890219	0.204158	0.700999
H81	H	0.813706	0.202685	0.605261
O82	O	0.605678	0.385905	0.000091
C83	C	0.609635	0.604969	0.000045
C84	C	0.554504	0.482094	0.000015
H85	H	0.568284	0.682769	-0.000036
H86	H	0.650703	0.611616	0.063873
H87	H	0.650742	0.611480	-0.063753
H88	H	0.513347	0.475499	0.063770
H89	H	0.513491	0.475499	-0.063855
O90	O	0.579801	-0.049961	0.000090
C91	C	0.708039	-0.144510	0.000034
C92	C	0.667400	-0.024161	0.000012
H93	H	0.778869	-0.123692	-0.000049
H94	H	0.687716	-0.199484	0.063861
H95	H	0.687608	-0.199458	-0.063765
H96	H	0.687811	0.030886	0.063769
H97	H	0.687722	0.030722	-0.063856
O98	O	1.099524	-0.216966	0.000100
C99	C	1.196144	-0.034669	0.000053
C100	C	1.103990	-0.088575	0.000021
H101	H	1.199785	0.069141	-0.000030
H102	H	1.228451	-0.066552	0.063883
H103	H	1.228423	-0.066705	-0.063743
H104	H	1.071640	-0.056564	0.063774
H105	H	1.071746	-0.056698	-0.063851
H106	H	0.889771	-0.230748	0.000041
