data_functionalizedCrystal
_audit_creation_method	'MofGen! by Chris Wilmer'
_symmetry_space_group_name_H-M	'P1'
_symmetry_Int_Tables_number	1
_symmetry_cell_setting	triclinic
loop_
_symmetry_equiv_pos_as_xyz
  x,y,z
_cell_length_a	10.654553
_cell_length_b	14.044220
_cell_length_c	9.130313
_cell_angle_alpha	89.997493
_cell_angle_beta	89.999282
_cell_angle_gamma	88.837528
loop_
_atom_site_label
_atom_site_type_symbol
_atom_site_fract_x
_atom_site_fract_y
_atom_site_fract_z
O1	O	1.681221	0.133242	-0.121821
O2	O	1.317019	0.145932	-0.121820
O3	O	1.493653	0.001566	-0.121806
O4	O	1.504587	0.277607	-0.121835
O5	O	1.493651	0.001570	0.121793
O6	O	1.317017	0.145936	0.121778
O7	O	1.681219	0.133245	0.121778
Cu8	Cu	1.499118	0.139591	0.144021
Cu9	Cu	1.499120	0.139586	-0.144063
O10	O	1.504585	0.277611	0.121764
C11	C	1.270126	0.145001	-0.000021
C12	C	1.130403	0.142212	-0.000020
C13	C	0.933466	0.138276	0.132756
C14	C	1.064750	0.140903	0.132764
C15	C	1.064763	0.140904	-0.132821
C16	C	0.933480	0.138284	-0.132827
C17	C	0.933460	0.138271	0.286089
C18	C	1.064744	0.140898	0.286097
C19	C	1.488866	-0.033778	-0.000006
C20	C	1.474591	-0.139098	-0.000004
C21	C	1.448492	-0.331931	-0.000025
C22	C	1.549740	-0.388898	-0.000030
C23	C	1.535218	-0.496197	-0.000041
C24	C	1.463012	-0.224622	-0.000013
C25	C	1.728112	0.134176	-0.000025
C26	C	1.867835	0.136965	-0.000035
C27	C	1.509371	0.312955	-0.000039
C28	C	1.523647	0.418275	-0.000051
N29	N	1.499125	0.139594	0.346644
N30	N	1.499122	0.139576	-0.346686
C31	C	1.577363	0.075690	0.423302
C32	C	1.577359	0.075679	0.576639
C33	C	1.420875	0.203482	0.576645
C34	C	1.420874	0.203489	0.423311
C35	C	1.667712	0.001907	0.423299
C36	C	1.667707	0.001895	0.576636
H37	H	1.118227	0.141979	-0.240936
H38	H	1.101261	0.210084	0.333670
C39	C	0.780867	0.216753	-0.286909
C40	C	0.861342	0.136857	-0.278798
H41	H	0.736340	0.215874	-0.377034
H42	H	0.722983	0.215585	-0.207843
H43	H	0.828709	0.272985	-0.281375
H44	H	0.813499	0.080624	-0.284321
H45	H	0.919233	0.138016	-0.357886
H46	H	1.104440	0.075342	0.344970
C47	C	0.978657	0.283064	0.413731
C48	C	0.879857	0.226766	0.365542
H49	H	0.945561	0.337698	0.462770
H50	H	1.030391	0.247238	0.479120
H51	H	1.027011	0.302451	0.331976
H52	H	0.831508	0.207373	0.447298
H53	H	0.828101	0.262599	0.300149
H54	H	1.638942	-0.071003	0.381687
C55	C	1.251375	-0.344642	-0.125243
C56	C	1.316760	-0.374873	-0.000024
H57	H	1.170054	-0.371168	-0.125240
H58	H	1.243970	-0.277131	-0.125225
H59	H	1.295750	-0.365141	-0.210186
H60	H	1.272389	-0.354368	0.084920
H61	H	1.324159	-0.442399	-0.000028
C62	C	1.746844	-0.376206	0.125220
C63	C	1.681484	-0.345960	-0.000008
H64	H	1.828176	-0.349699	0.125230
H65	H	1.702471	-0.355708	0.210148
H66	H	1.754230	-0.443727	0.125194
H67	H	1.674090	-0.278439	0.000023
H68	H	1.725868	-0.366453	-0.084958
H69	H	1.357155	0.255515	0.360897
H70	H	1.357164	0.255503	0.639085
H71	H	1.761217	0.025010	0.375738
C72	C	0.985647	-0.013774	0.392526
C73	C	0.884138	0.044886	0.350331
H74	H	0.955193	-0.071423	0.432192
H75	H	1.036685	-0.027606	0.309619
H76	H	1.033892	0.017922	0.464404
H77	H	0.835897	0.013192	0.278444
H78	H	0.833078	0.058716	0.433248
C79	C	1.584064	-0.152210	0.526628
C80	C	1.617224	-0.091129	0.640848
H81	H	1.552917	-0.209643	0.566276
H82	H	1.520983	-0.122309	0.468100
H83	H	1.655811	-0.166115	0.468060
H84	H	1.545474	-0.077219	0.699411
H85	H	1.680310	-0.121036	0.699401
C86	C	1.800169	0.023816	0.786193
C87	C	1.800192	0.023836	0.632831
H88	H	1.881958	0.037356	0.820882
H89	H	1.742376	0.071012	0.820861
H90	H	1.776177	-0.036944	0.820841
H91	H	1.824175	0.084598	0.598183
H92	H	1.858004	-0.023363	0.598149
