data_functionalizedCrystal
_audit_creation_method	'MofGen! by Chris Wilmer'
_symmetry_space_group_name_H-M	'P1'
_symmetry_Int_Tables_number	1
_symmetry_cell_setting	triclinic
loop_
_symmetry_equiv_pos_as_xyz
  x,y,z
_cell_length_a	14.395555
_cell_length_b	14.395555
_cell_length_c	14.395555
_cell_angle_alpha	90.002623
_cell_angle_beta	60.003134
_cell_angle_gamma	59.996404
loop_
_atom_site_label
_atom_site_type_symbol
_atom_site_fract_x
_atom_site_fract_y
_atom_site_fract_z
Zr1	Zr	1.016784	0.894852	-0.121853
O2	O	1.210587	0.746511	-0.270184
O3	O	0.822981	0.940335	-0.076382
O4	O	1.016775	0.940324	-0.270174
O5	O	1.016800	0.746520	0.076476
O6	O	1.016768	1.093198	-0.270166
O7	O	1.016793	0.746521	-0.076392
O8	O	0.670106	1.093217	0.076493
O9	O	1.363462	0.746501	-0.270184
O10	O	0.902690	1.073811	-0.056982
O11	O	0.902700	0.959722	0.057095
O12	O	1.130868	0.959709	-0.171071
O13	O	1.130878	0.845620	-0.056994
Zr14	Zr	1.016784	1.138667	0.121966
Zr15	Zr	1.016773	1.138669	-0.121840
Zr16	Zr	1.016795	0.894850	0.121953
Zr17	Zr	1.260602	0.894837	-0.121852
Zr18	Zr	0.772966	1.138682	0.121965
O19	O	1.210587	1.093184	0.076494
O20	O	1.210571	1.093186	-0.270166
O21	O	1.210603	0.746508	0.076476
O22	O	0.822981	1.287008	0.270297
O23	O	0.822965	1.287011	-0.076363
O24	O	0.822997	0.940332	0.270278
O25	O	1.016768	1.286999	-0.076363
O26	O	1.016793	1.093194	0.270287
O27	O	1.016800	0.940320	0.270279
O28	O	1.016775	1.286998	0.076504
O29	O	1.363454	0.940303	-0.270173
O30	O	0.670114	1.093216	0.270286
O31	O	0.670106	1.287018	0.270296
O32	O	0.670097	1.287019	0.076504
O33	O	1.363471	0.746500	-0.076391
O34	O	1.363462	0.940301	-0.076380
O35	O	0.902700	1.073809	0.171184
O36	O	0.902690	1.187898	0.057107
O37	O	1.130868	1.073797	-0.056982
O38	O	1.130878	0.959708	0.057095
C39	C	0.711804	1.016778	0.000056
C40	C	0.608297	1.016785	0.000055
C41	C	0.485806	1.078966	-0.062147
C42	C	0.623936	0.971704	-0.107245
C43	C	0.471578	1.124027	0.045101
C44	C	0.562101	0.909409	-0.045103
C45	C	0.409668	1.061809	0.107303
C46	C	0.547789	0.954483	0.062231
C47	C	1.016798	0.711782	0.000040
C48	C	1.016802	0.608276	0.000035
C49	C	1.141215	0.485474	-0.062162
C50	C	1.079017	0.454642	-0.107236
C51	C	1.078995	0.454684	0.045101
C52	C	0.954604	0.578808	-0.045103
C53	C	0.954600	0.578846	0.107294
C54	C	0.892311	0.548088	0.062246
C55	C	1.321764	1.016741	0.000057
C56	C	1.425271	1.016734	0.000057
C57	C	1.016770	1.016762	-0.304907
C58	C	1.016766	1.016762	-0.408409
C59	C	1.016770	1.321737	0.000073
C60	C	1.016766	1.425243	0.000078
C61	C	0.892353	1.078981	-0.406792
C62	C	0.954551	0.971701	-0.499819
C63	C	0.954573	1.124016	-0.499810
C64	C	1.078964	0.909419	-0.500073
C65	C	1.078968	1.061812	-0.500050
C66	C	1.141257	0.954467	-0.593095
C67	C	1.016798	1.016757	0.305020
C68	C	1.016802	1.016756	0.408522
C69	C	0.711791	1.321756	0.000072
C70	C	0.608279	1.425269	0.000077
C71	C	0.711818	1.016776	0.305019
C72	C	0.608316	1.016782	0.408521
C73	C	0.711804	1.321753	0.305035
C74	C	0.608297	1.425266	0.408543
C75	C	1.321764	0.711765	-0.304923
C76	C	1.425271	0.608253	-0.408430
C77	C	1.321777	0.711763	0.000041
C78	C	1.425289	0.608250	0.000036
C79	C	1.321750	1.016743	-0.304906
C80	C	1.425252	1.016737	-0.408408
C81	C	0.547718	1.548067	0.062253
C82	C	0.409605	1.578936	0.107307
C83	C	0.562009	1.578834	-0.045031
C84	C	0.471466	1.454774	0.045194
C85	C	0.623943	1.454676	-0.107203
C86	C	0.485840	1.485472	-0.062176
C87	C	0.547731	0.954577	0.406903
C88	C	0.409624	1.061865	0.499926
C89	C	0.561969	0.909541	0.499926
C90	C	0.471509	1.124133	0.500181
C91	C	0.623928	0.971731	0.500166
C92	C	0.485830	1.079083	0.593207
C93	C	0.547691	1.423654	0.531332
C94	C	0.409588	1.516654	0.562129
C95	C	0.561865	1.516713	0.562169
C96	C	0.471495	1.516902	0.437977
C97	C	0.623846	1.516947	0.438020
C98	C	0.485752	1.609964	0.468744
H99	H	0.715548	0.933596	-0.197943
H100	H	0.458706	1.689597	0.443092
Br101	Br	0.440786	1.166893	0.725930
Br102	Br	0.256904	1.125406	0.501482
H103	H	0.599148	0.818840	0.500837
H104	H	0.715587	0.933579	0.499178
Br105	Br	0.440809	1.442716	-0.149873
Br106	Br	0.717013	1.166541	-0.273853
Br107	Br	0.592248	0.866829	0.150237
H108	H	0.598898	1.517702	0.615799
H109	H	1.246418	0.460024	-0.114839
Br110	Br	0.624046	1.667979	-0.108540
Br111	Br	0.409197	1.275385	0.498824
Br112	Br	0.409246	1.515498	0.348994
H113	H	0.574791	1.573506	0.114941
H114	H	0.599510	0.818652	-0.083309
Br115	Br	0.776732	1.365428	-0.258311
Br116	Br	0.592870	1.290710	0.573723
H117	H	0.574815	0.902051	0.327142
Br118	Br	0.776576	1.515357	0.348881
H119	H	0.787022	0.573751	0.114850
H120	H	0.317980	1.517562	0.615611
H121	H	0.458688	1.131484	-0.114812
Br122	Br	0.867038	0.668051	0.258420
Br123	Br	1.166647	0.365437	-0.258391
Br124	Br	0.867056	0.667724	-0.108806
Br125	Br	0.866924	0.908173	-0.501377
H126	H	0.317964	1.632481	0.197988
H127	H	0.318034	1.099943	0.197981
H128	H	0.434358	1.214742	0.083199
Br129	Br	1.166547	0.758163	-0.498720
Br130	Br	1.166677	0.365495	0.108596
H131	H	1.246546	0.901775	-0.672725
H132	H	1.131501	1.099948	-0.499073
H133	H	0.901969	1.214726	-0.500704
H134	H	0.434051	1.401439	0.083401
