data_functionalizedCrystal
_audit_creation_method	'MofGen! by Chris Wilmer'
_symmetry_space_group_name_H-M	'P1'
_symmetry_Int_Tables_number	1
_symmetry_cell_setting	triclinic
loop_
_symmetry_equiv_pos_as_xyz
  x,y,z
_cell_length_a	19.805407
_cell_length_b	12.759399
_cell_length_c	19.805399
_cell_angle_alpha	90.023653
_cell_angle_beta	90.019573
_cell_angle_gamma	90.015116
loop_
_atom_site_label
_atom_site_type_symbol
_atom_site_fract_x
_atom_site_fract_y
_atom_site_fract_z
Zn1	Zn	1.034789	-0.418291	0.382738
Zn2	Zn	1.034726	-0.593984	0.269558
Zn3	Zn	0.921603	-0.418320	0.269563
Zn4	Zn	0.921589	-0.593928	0.382704
O5	O	0.978177	-0.506131	0.326141
O6	O	1.129497	-0.441608	0.367736
O7	O	1.019700	-0.570717	0.174842
O8	O	0.936650	-0.271295	0.284592
O9	O	1.129451	-0.570689	0.284583
O10	O	1.019807	-0.271273	0.367741
O11	O	0.936589	-0.441657	0.174845
O12	O	0.826885	-0.441603	0.284559
O13	O	0.936626	-0.570594	0.477425
O14	O	0.826875	-0.570622	0.367684
O15	O	1.019793	-0.441554	0.477450
O16	O	1.019686	-0.740998	0.284551
O17	O	0.936565	-0.740957	0.367679
C18	C	0.802321	-0.506110	0.326119
C19	C	0.727089	-0.506127	0.326126
C20	C	0.978135	-0.779098	0.326125
C21	C	0.978180	-0.895875	0.326141
C22	C	0.691757	-0.573408	0.369339
C23	C	0.621069	-0.573410	0.369348
C24	C	0.585713	-0.506135	0.326141
C25	C	0.621050	-0.438847	0.282926
C26	C	0.691737	-0.438840	0.282920
C27	C	0.335977	-0.438870	0.282948
C28	C	0.265285	-0.438884	0.282956
C29	C	0.265308	-0.573440	0.369376
C30	C	0.335995	-0.573433	0.369370
C31	C	0.371326	-0.506141	0.326158
C32	C	0.447974	-0.506139	0.326149
C33	C	0.509066	-0.506143	0.326146
C34	C	1.021510	-0.950723	0.282906
C35	C	1.021554	-1.060447	0.282928
C36	C	0.934930	-1.060465	0.369424
C37	C	0.934891	-0.950743	0.369405
C38	C	1.101446	-1.210321	0.258846
C39	C	1.144771	-1.265173	0.215599
C40	C	1.155188	-1.229620	0.149559
C41	C	1.122271	-1.139217	0.126751
C42	C	1.078942	-1.084370	0.169994
C43	C	1.068537	-1.119922	0.236044
C44	C	0.854997	-0.800867	0.393480
C45	C	0.811663	-0.746018	0.436720
C46	C	0.801239	-0.781569	0.502762
C47	C	0.834144	-0.871976	0.525567
C48	C	0.877478	-0.926825	0.482327
C49	C	0.887903	-0.891266	0.416286
C50	C	1.154720	-0.506152	0.326163
C51	C	1.229952	-0.506160	0.326173
C52	C	0.978215	-0.506064	0.502684
C53	C	0.978231	-0.506036	0.577916
C54	C	0.978237	-0.232097	0.326171
C55	C	0.978263	-0.115321	0.326184
C56	C	0.978178	-0.506121	0.150285
C57	C	0.978293	-0.505853	0.075053
C58	C	1.021537	-0.438842	0.613274
C59	C	1.021544	-0.438811	0.683962
C60	C	0.978248	-0.505981	0.719291
C61	C	0.934937	-0.573179	0.683928
C62	C	0.934927	-0.573203	0.613241
C63	C	0.934975	-0.573081	0.969002
C64	C	0.934990	-0.573054	1.039694
C65	C	1.021592	-0.438689	1.039723
C66	C	1.021582	-0.438713	0.969036
C67	C	0.978269	-0.505906	0.933679
C68	C	0.978261	-0.505937	0.857030
C69	C	0.978259	-0.505957	0.795938
H70	H	0.720538	-0.628195	0.404521
H71	H	0.825657	-0.900922	0.579344
H72	H	0.899685	-1.105151	0.404647
H73	H	0.904274	-1.000436	0.500902
H74	H	0.765951	-0.736902	0.537966
H75	H	1.092975	-1.239270	0.312623
H76	H	1.171572	-1.338780	0.234176
H77	H	0.364778	-0.628219	0.404552
H78	H	1.056760	-0.906052	0.247679
H79	H	1.056810	-0.384097	0.712748
H80	H	0.592304	-0.628198	0.404536
H81	H	0.720504	-0.384048	0.247735
H82	H	0.236533	-0.628228	0.404564
H83	H	0.784874	-0.672399	0.418148
H84	H	0.899656	-0.627909	0.584453
H85	H	0.592258	-0.384066	0.247749
H86	H	0.863486	-0.771906	0.339705
H87	H	1.056796	-0.384147	0.584514
H88	H	1.056841	-0.384020	0.940274
H89	H	1.056857	-0.383973	1.068519
H90	H	0.899730	-0.627754	1.068457
H91	H	0.899717	-0.627809	0.940222
H92	H	0.899682	-0.627866	0.712699
H93	H	1.190465	-1.274288	0.114348
H94	H	0.364735	-0.384085	0.247757
H95	H	0.236500	-0.384094	0.247771
H96	H	1.052143	-1.010764	0.151425
H97	H	1.130751	-1.110283	0.072972
