data_functionalizedCrystal
_audit_creation_method	'MofGen! by Chris Wilmer'
_symmetry_space_group_name_H-M	'P1'
_symmetry_Int_Tables_number	1
_symmetry_cell_setting	triclinic
loop_
_symmetry_equiv_pos_as_xyz
  x,y,z
_cell_length_a	14.853567
_cell_length_b	14.853568
_cell_length_c	13.330367
_cell_angle_alpha	90.013807
_cell_angle_beta	89.994272
_cell_angle_gamma	96.364815
loop_
_atom_site_label
_atom_site_type_symbol
_atom_site_fract_x
_atom_site_fract_y
_atom_site_fract_z
O1	O	0.117703	-1.196345	0.083338
O2	O	0.131723	-0.933886	0.083356
O3	O	-0.006517	-1.072126	0.083350
O4	O	0.255943	-1.058105	0.083345
O5	O	-0.006508	-1.072152	-0.083497
O6	O	0.131732	-0.933912	-0.083491
O7	O	0.117712	-1.196371	-0.083509
Cu8	Cu	0.124723	-1.065144	-0.098734
Cu9	Cu	0.124712	-1.065113	0.098582
O10	O	0.255952	-1.058131	-0.083502
C11	C	0.131092	-0.900310	-0.000065
C12	C	0.129188	-0.800226	-0.000058
C13	C	0.121128	-0.377028	0.090877
C14	C	0.121139	-0.377078	-0.091027
C15	C	0.122927	-0.471111	-0.091024
C16	C	0.123817	-0.518108	-0.000070
C17	C	0.122920	-0.471070	0.090882
C18	C	0.123834	-0.518155	-0.181974
C19	C	0.125624	-0.612194	-0.181976
C20	C	0.126508	-0.659193	-0.091021
C21	C	0.125609	-0.612150	-0.000065
C22	C	0.126499	-0.659147	0.090889
C23	C	0.125593	-0.612106	0.181846
C24	C	0.123804	-0.518069	0.181837
C25	C	0.128298	-0.753230	-0.091012
C26	C	0.128290	-0.753189	0.090894
C27	C	-0.040101	-1.071504	-0.000071
C28	C	-0.140185	-1.069600	-0.000062
C29	C	-0.552719	-0.979434	-0.000075
C30	C	-0.573999	-1.143667	-0.000086
C31	C	-0.479965	-1.145457	-0.000080
C32	C	-0.422304	-1.064235	-0.000073
C33	C	-0.458676	-0.981222	-0.000072
C34	C	-0.443586	-1.228468	-0.000091
C35	C	-0.349547	-1.230262	-0.000087
C36	C	-0.291884	-1.149038	-0.000073
C37	C	-0.328261	-1.066022	-0.000070
C38	C	-0.270600	-0.984800	-0.000064
C39	C	-0.306975	-0.901783	-0.000054
C40	C	-0.401013	-0.899998	-0.000058
C41	C	-0.197846	-1.150823	-0.000069
C42	C	-0.176557	-0.986587	-0.000061
C43	C	0.289536	-1.058753	-0.000080
C44	C	0.389620	-1.060657	-0.000082
C45	C	0.118341	-0.229947	-0.000083
C46	C	0.120238	-0.330032	-0.000077
N47	N	0.124698	-1.065092	0.237363
N48	N	0.124730	-1.065172	-0.237516
C49	C	0.185816	-1.003833	0.709989
C50	C	0.063637	-1.126493	0.709951
C51	C	0.063631	-1.126480	0.604933
C52	C	0.124717	-1.065141	0.552438
C53	C	0.185809	-1.003815	0.604961
C54	C	0.002534	-1.187798	0.552402
C55	C	0.002524	-1.187786	0.447377
C56	C	0.063615	-1.126450	0.394880
C57	C	0.124711	-1.065123	0.447410
C58	C	0.185797	-1.003784	0.394914
C59	C	0.246897	-0.942461	0.447442
C60	C	0.246900	-0.942480	0.552464
C61	C	0.063612	-1.126431	0.289859
C62	C	0.185790	-1.003767	0.289886
H63	H	0.120388	-0.338724	0.164931
C64	C	0.314083	-0.874983	0.389684
N65	N	0.364684	-0.824160	0.346176
H66	H	0.126359	-0.650487	-0.256038
C67	C	-0.064694	-1.255235	0.389607
N68	N	-0.115326	-1.306036	0.346093
C69	C	0.314098	-0.875024	0.610252
N70	N	0.364708	-0.824213	0.653782
H71	H	-0.047205	-1.237734	0.595147
H72	H	0.123115	-0.479883	-0.256024
H73	H	0.235565	-0.953906	0.752760
H74	H	-0.260015	-0.835652	-0.000056
H75	H	0.120420	-0.338807	-0.165077
C76	C	-0.003574	-1.193942	0.767700
N77	N	-0.054205	-1.244742	0.811200
C78	C	0.252991	-0.936287	0.232150
N79	N	0.303605	-0.885460	0.188664
C80	C	-0.003593	-1.193884	0.232083
N81	N	-0.054213	-1.244696	0.188568
H82	H	0.126325	-0.650382	0.255900
H83	H	0.129044	-0.791525	-0.165067
H84	H	-0.129614	-0.920445	-0.000051
H85	H	0.129012	-0.791447	0.164961
H86	H	-0.168233	-1.218414	-0.000083
C87	C	-0.441034	-0.808688	-0.000069
N88	N	-0.471182	-0.739913	-0.000085
H89	H	0.123065	-0.479760	0.255889
H90	H	-0.582340	-0.911844	-0.000063
C91	C	-0.309542	-1.321581	-0.000089
N92	N	-0.279410	-1.390364	-0.000088
C93	C	-0.637429	-1.233007	-0.000099
N94	N	-0.685209	-1.300301	-0.000106
C95	C	-0.507018	-1.317807	-0.000106
N96	N	-0.554800	-1.385099	-0.000116
