data_functionalizedCrystal
_audit_creation_method	'MofGen! by Chris Wilmer'
_symmetry_space_group_name_H-M	'P1'
_symmetry_Int_Tables_number	1
_symmetry_cell_setting	triclinic
loop_
_symmetry_equiv_pos_as_xyz
  x,y,z
_cell_length_a	16.625548
_cell_length_b	19.120786
_cell_length_c	16.625548
_cell_angle_alpha	92.454923
_cell_angle_beta	90.008236
_cell_angle_gamma	92.466188
loop_
_atom_site_label
_atom_site_type_symbol
_atom_site_fract_x
_atom_site_fract_y
_atom_site_fract_z
Zn1	Zn	1.218869	-0.279724	0.442191
Zn2	Zn	1.213045	-0.397152	0.301599
Zn3	Zn	1.084061	-0.279716	0.307372
Zn4	Zn	1.078245	-0.397146	0.436389
O5	O	1.148555	-0.338434	0.371888
O6	O	1.330929	-0.295307	0.423553
O7	O	1.195931	-0.381573	0.189533
O8	O	1.106815	-0.181427	0.330100
O9	O	1.326650	-0.381580	0.320261
O10	O	1.205858	-0.181433	0.429151
O11	O	1.101167	-0.295293	0.193774
O12	O	0.970457	-0.295287	0.324474
O13	O	1.096903	-0.381571	0.549991
O14	O	0.966184	-0.381563	0.419263
O15	O	1.200219	-0.295301	0.554253
O16	O	1.190292	-0.495440	0.314635
O17	O	1.091255	-0.495436	0.413665
C18	C	0.939065	-0.338424	0.371866
C19	C	0.849443	-0.338437	0.371874
C20	C	0.521267	-0.338442	0.371909
C21	C	0.612576	-0.338438	0.371897
C22	C	0.685352	-0.338440	0.371891
C23	C	0.776666	-0.338436	0.371880
C24	C	1.139532	-0.520924	0.362912
C25	C	1.135746	-0.598993	0.359099
C26	C	1.185496	-0.635613	0.408920
C27	C	1.181935	-0.708968	0.405339
C28	C	1.128628	-0.745702	0.351932
C29	C	1.078873	-0.709076	0.302109
C30	C	1.082431	-0.635723	0.305695
C31	C	1.115306	-0.967184	0.338526
C32	C	1.111754	-1.040543	0.334943
C33	C	1.214815	-1.040429	0.438174
C34	C	1.218371	-0.967075	0.441752
C35	C	1.168613	-0.930456	0.391932
C36	C	1.124989	-0.820682	0.348268
C37	C	1.172249	-0.855477	0.395600
C38	C	1.358863	-0.338445	0.371910
C39	C	1.448484	-0.338450	0.371920
C40	C	1.148562	-0.338436	0.582196
C41	C	1.148565	-0.338437	0.671817
C42	C	1.157635	-0.155233	0.380916
C43	C	1.161504	-0.077163	0.384764
C44	C	1.148531	-0.338443	0.999993
C45	C	1.148538	-0.338444	0.908684
C46	C	1.148548	-0.338441	0.835908
C47	C	1.148555	-0.338440	0.744594
C48	C	1.148539	-0.338447	1.162396
C49	C	1.148532	-0.338441	1.072775
H50	H	1.228907	-0.605710	0.452406
H51	H	1.215648	-0.825566	0.439087
H52	H	1.035467	-0.738991	0.258627
H53	H	1.041918	-0.605908	0.265126
O54	O	1.073172	-0.856445	0.296492
C55	C	1.018987	-0.898889	0.340275
H56	H	1.046841	-0.909830	0.400876
H57	H	1.005716	-0.950494	0.304905
H58	H	0.960591	-0.870667	0.350447
H59	H	1.222452	-0.738781	0.445902
H60	H	1.261778	-0.937168	0.485240
H61	H	1.255324	-1.070252	0.478736
H62	H	1.074793	-0.937375	0.297959
O63	O	1.059854	-1.076198	0.283151
C64	C	0.980344	-1.058326	0.301562
H65	H	0.977202	-1.038143	0.366958
H66	H	0.938181	-1.106604	0.292226
H67	H	0.961354	-1.015782	0.260392
