data_functionalizedCrystal
_audit_creation_method	'MofGen! by Chris Wilmer'
_symmetry_space_group_name_H-M	'P1'
_symmetry_Int_Tables_number	1
_symmetry_cell_setting	triclinic
loop_
_symmetry_equiv_pos_as_xyz
  x,y,z
_cell_length_a	15.944499
_cell_length_b	17.038272
_cell_length_c	14.421503
_cell_angle_alpha	90.004327
_cell_angle_beta	89.989779
_cell_angle_gamma	87.294583
loop_
_atom_site_label
_atom_site_type_symbol
_atom_site_fract_x
_atom_site_fract_y
_atom_site_fract_z
O1	O	1.121742	0.100633	-0.077169
O2	O	1.455075	0.433966	0.256165
O3	O	1.788408	0.767300	0.589498
O4	O	0.878077	0.113107	-0.077158
O5	O	1.211410	0.446441	0.256175
O6	O	1.544743	0.779774	0.589508
O7	O	0.998461	-0.006945	-0.077156
O8	O	1.331794	0.326388	0.256177
O9	O	1.665128	0.659721	0.589511
O10	O	1.001357	0.220686	-0.077171
O11	O	1.334691	0.554019	0.256162
O12	O	1.668024	0.887352	0.589496
O13	O	0.998441	-0.006927	0.077067
O14	O	1.331774	0.326406	0.410401
O15	O	1.665107	0.659739	0.743734
O16	O	0.878057	0.113125	0.077065
O17	O	1.211390	0.446459	0.410398
O18	O	1.544723	0.779792	0.743732
O19	O	1.121721	0.100651	0.077055
O20	O	1.455055	0.433984	0.410388
O21	O	1.788388	0.767318	0.743721
Cu22	Cu	0.999887	0.106890	0.091142
Cu23	Cu	1.333220	0.440223	0.424475
Cu24	Cu	1.666554	0.773556	0.757808
Cu25	Cu	0.999911	0.106869	-0.091245
Cu26	Cu	1.333244	0.440202	0.242088
Cu27	Cu	1.666578	0.773535	0.575421
O28	O	1.001337	0.220704	0.077052
O29	O	1.334670	0.554037	0.410386
O30	O	1.668004	0.887370	0.743719
C31	C	0.846735	0.112606	-0.000045
C32	C	1.180069	0.445939	0.333288
C33	C	1.513402	0.779272	0.666621
C34	C	0.753378	0.111074	-0.000041
C35	C	1.086711	0.444408	0.333292
C36	C	1.420044	0.777741	0.666625
C37	C	0.466822	0.180822	-0.000060
C38	C	0.800155	0.514155	0.333274
C39	C	1.133488	0.847489	0.666607
C40	C	0.525272	0.144557	-0.076099
C41	C	0.858605	0.477890	0.257234
C42	C	1.191939	0.811223	0.590567
C43	C	0.417344	0.105512	-0.000062
C44	C	0.750677	0.438845	0.333271
C45	C	1.084011	0.772178	0.666604
C46	C	0.525237	0.144554	0.075953
C47	C	0.858570	0.477887	0.409286
C48	C	1.191903	0.811221	0.742620
C49	C	0.582448	0.108249	-0.000050
C50	C	0.915782	0.441582	0.333283
C51	C	1.249115	0.774916	0.666616
C52	C	0.474565	0.069226	-0.076165
C53	C	0.807898	0.402559	0.257169
C54	C	1.141232	0.735892	0.590502
C55	C	0.474524	0.069233	0.075956
C56	C	0.807857	0.402567	0.409289
C57	C	1.141190	0.735900	0.742623
C58	C	0.532953	0.032913	-0.000102
C59	C	0.866286	0.366247	0.333231
C60	C	1.199619	0.699580	0.666564
C61	C	0.322232	0.103937	-0.000070
C62	C	0.655565	0.437270	0.333263
C63	C	0.988898	0.770604	0.666597
C64	C	0.677559	0.109818	-0.000049
C65	C	1.010893	0.443151	0.333284
C66	C	1.344226	0.776484	0.666617
C67	C	0.995817	-0.036065	-0.000044
C68	C	1.329150	0.297268	0.333289
C69	C	1.662483	0.630602	0.666622
C70	C	0.987957	-0.122859	-0.000044
C71	C	1.321291	0.210474	0.333289
C72	C	1.654624	0.543808	0.666622
C73	C	1.060116	-0.172964	-0.000046
C74	C	1.393449	0.160369	0.333287
C75	C	1.726782	0.493703	0.666620
C76	C	1.052726	-0.254516	-0.000055
C77	C	1.386059	0.078818	0.333278
C78	C	1.719393	0.412151	0.666612
C79	C	0.973177	-0.285960	-0.000055
C80	C	1.306510	0.047373	0.333279
C81	C	1.639844	0.380706	0.666612
C82	C	0.901013	-0.235849	-0.000055
C83	C	1.234347	0.097485	0.333278
C84	C	1.567680	0.430818	0.666611
C85	C	0.908404	-0.154299	-0.000054
C86	C	1.241737	0.179035	0.333280
C87	C	1.575070	0.512368	0.666613
C88	C	0.947068	-0.531721	-0.000066
C89	C	1.280401	-0.198388	0.333267
C90	C	1.613734	0.134945	0.666600
C91	C	0.939682	-0.613278	-0.000065
C92	C	1.273016	-0.279944	0.333268
C93	C	1.606349	0.053389	0.666601
C94	C	1.091396	-0.631939	-0.000067
C95	C	1.424729	-0.298606	0.333267
C96	C	1.758063	0.034728	0.666600
C97	C	1.098780	-0.550387	-0.000059
C98	C	1.432113	-0.217053	0.333274
C99	C	1.765446	0.116280	0.666608
C100	C	1.026616	-0.500282	-0.000065
C101	C	1.359949	-0.166949	0.333269
C102	C	1.693282	0.166384	0.666602
C103	C	0.965622	-0.369319	-0.000060
C104	C	1.298955	-0.035985	0.333273
C105	C	1.632288	0.297348	0.666606
C106	C	1.034172	-0.416925	-0.000066
C107	C	1.367505	-0.083592	0.333268
C108	C	1.700838	0.249741	0.666601
C109	C	1.153063	0.101153	-0.000060
C110	C	1.486396	0.434486	0.333273
C111	C	1.819729	0.767819	0.666606
C112	C	1.246420	0.102684	-0.000071
C113	C	1.579754	0.436017	0.333263
C114	C	1.913087	0.769351	0.666596
C115	C	1.003981	0.249823	-0.000061
C116	C	1.337315	0.583157	0.333272
C117	C	1.670648	0.916490	0.666605
C118	C	1.011841	0.336617	-0.000067
C119	C	1.345174	0.669950	0.333266
C120	C	1.678508	1.003284	0.666599
N121	N	0.999877	0.106904	0.219423
N122	N	1.333210	0.440237	0.552756
N123	N	1.666543	0.773571	0.886090
N124	N	0.999928	0.106848	-0.219527
N125	N	1.333261	0.440181	0.113807
N126	N	1.666594	0.773515	0.447140
C127	C	0.944199	0.162391	0.469076
C128	C	1.277532	0.495725	0.802409
C129	C	1.610865	0.829058	1.135742
C130	C	1.021183	0.177557	0.530874
C131	C	1.354517	0.510891	0.864207
C132	C	1.687850	0.844224	1.197541
C133	C	0.999896	0.106885	0.408584
C134	C	1.333229	0.440219	0.741918
C135	C	1.666562	0.773552	1.075251
C136	C	0.922932	0.091738	0.530880
C137	C	1.256265	0.425071	0.864213
C138	C	1.589598	0.758404	1.197547
C139	C	0.999907	0.106869	0.591306
C140	C	1.333241	0.440202	0.924639
C141	C	1.666574	0.773536	1.257972
C142	C	1.076921	0.122086	0.469022
C143	C	1.410255	0.455420	0.802355
C144	C	1.743588	0.788753	1.135689
C145	C	0.978618	0.036236	0.469023
C146	C	1.311951	0.369570	0.802356
C147	C	1.645284	0.702903	1.135689
C148	C	1.055655	0.051372	0.530793
C149	C	1.388988	0.384705	0.864126
C150	C	1.722322	0.718039	1.197460
C151	C	0.999888	0.106897	0.303323
C152	C	1.333221	0.440230	0.636657
C153	C	1.666554	0.773563	0.969990
C154	C	0.999924	0.106857	0.696565
C155	C	1.333257	0.440191	1.029898
C156	C	1.666591	0.773524	1.363231
H157	H	0.547579	0.176427	0.140236
H158	H	0.880912	0.509761	0.473569
H159	H	1.214246	0.843094	0.806903
H160	H	0.960587	-0.023484	0.441833
H161	H	1.293920	0.309849	0.775167
H162	H	1.627254	0.643183	1.108500
H163	H	0.452126	0.037414	0.140247
H164	H	0.785460	0.370747	0.473581
H165	H	1.118793	0.704081	0.806914
H166	H	0.452322	0.037394	-0.140522
H167	H	0.785655	0.370728	0.192811
H168	H	1.118989	0.704061	0.526144
H169	H	1.142032	0.134963	0.441965
H170	H	1.475366	0.468296	0.775298
H171	H	1.808699	0.801629	1.108631
H172	H	1.039191	0.237297	0.558041
H173	H	1.372525	0.570630	0.891375
H174	H	1.705858	0.903963	1.224708
H175	H	1.102816	0.004423	0.557722
H176	H	1.436150	0.337756	0.891055
H177	H	1.769483	0.671089	1.224388
H178	H	1.124893	-0.147369	-0.000041
H179	H	1.458226	0.185964	0.333292
H180	H	1.791559	0.519298	0.666626
H181	H	0.561664	-0.029643	-0.000139
H182	H	0.894997	0.303691	0.333195
H183	H	1.228330	0.637024	0.666528
H184	H	0.897151	0.209369	0.441977
H185	H	1.230485	0.542702	0.775310
H186	H	1.563818	0.876036	1.108644
H187	H	1.111485	-0.295309	-0.000055
H188	H	1.444819	0.038025	0.333279
H189	H	1.778152	0.371358	0.666612
H190	H	0.857840	0.078933	0.558054
H191	H	1.191173	0.412267	0.891387
H192	H	1.524507	0.745600	1.224720
H193	H	1.163557	-0.524791	-0.000059
H194	H	1.496890	-0.191458	0.333274
H195	H	1.830223	0.141875	0.666608
H196	H	1.150147	-0.672743	-0.000064
H197	H	1.483481	-0.339409	0.333270
H198	H	1.816814	-0.006076	0.666603
H199	H	0.547653	0.176405	-0.140385
H200	H	0.880986	0.509738	0.192949
H201	H	1.214320	0.843072	0.526282
H202	H	0.437954	0.243322	-0.000137
H203	H	0.771288	0.576655	0.333196
H204	H	1.104621	0.909988	0.666529
H205	H	0.874901	-0.638876	-0.000050
H206	H	1.208234	-0.305543	0.333283
H207	H	1.541568	0.027791	0.666616
H208	H	0.888306	-0.490935	-0.000071
H209	H	1.221640	-0.157602	0.333263
H210	H	1.554973	0.175731	0.666596
H211	H	0.836243	-0.261457	-0.000061
H212	H	1.169576	0.071876	0.333272
H213	H	1.502909	0.405210	0.666606
H214	H	1.098940	-0.391320	-0.000086
H215	H	1.432274	-0.057986	0.333247
H216	H	1.765607	0.275347	0.666580
H217	H	0.849644	-0.113503	-0.000052
H218	H	1.182978	0.219830	0.333281
H219	H	1.516311	0.553164	0.666615
H220	H	0.900852	-0.394930	-0.000058
H221	H	1.234186	-0.061597	0.333275
H222	H	1.567519	0.271737	0.666608
