data_functionalizedCrystal
_audit_creation_method	'MofGen! by Chris Wilmer'
_symmetry_space_group_name_H-M	'P1'
_symmetry_Int_Tables_number	1
_symmetry_cell_setting	triclinic
loop_
_symmetry_equiv_pos_as_xyz
  x,y,z
_cell_length_a	27.732048
_cell_length_b	8.559649
_cell_length_c	7.088929
_cell_angle_alpha	84.674985
_cell_angle_beta	83.823277
_cell_angle_gamma	103.789340
loop_
_atom_site_label
_atom_site_type_symbol
_atom_site_fract_x
_atom_site_fract_y
_atom_site_fract_z
O1	O	-0.010831	-2.103996	-0.158953
O2	O	0.014155	-1.638173	-0.158972
O3	O	-0.069240	-1.885556	-0.158925
O4	O	0.072564	-1.856614	-0.158999
O5	O	-0.080408	-1.918617	0.159056
O6	O	0.002988	-1.671234	0.159009
O7	O	-0.021999	-2.137057	0.159029
Cu8	Cu	-0.010525	-1.907164	0.188053
Cu9	Cu	0.002682	-1.868066	-0.187997
O10	O	0.061397	-1.889674	0.158982
C11	C	-0.092810	-1.901480	0.000071
C12	C	-0.146402	-1.899652	0.000086
C13	C	0.010465	-1.595127	0.000017
C14	C	0.016101	-1.417607	0.000011
C15	C	-0.018308	-2.180103	0.000036
C16	C	-0.023944	-2.357622	0.000029
C17	C	-0.489909	-2.034313	-0.000006
C18	C	-0.691331	-2.027524	-0.000033
O19	O	-0.726877	-2.150662	-0.000112
N20	N	-0.705340	-1.880839	-0.000038
C21	C	-0.668990	-1.735839	-0.000048
O22	O	-0.685527	-1.610917	-0.000072
C23	C	-0.467569	-1.742628	-0.000034
C24	C	-0.453563	-1.889325	-0.000011
C25	C	-0.475902	-2.180997	0.000015
C26	C	-0.425550	-2.182694	0.000032
C27	C	-0.389204	-2.037706	0.000028
C28	C	-0.403211	-1.891021	0.000006
C29	C	-0.431219	-1.597629	-0.000058
C30	C	-0.380861	-1.599338	-0.000060
C31	C	-0.366856	-1.746035	-0.000036
C32	C	-0.316513	-1.747730	0.000019
N33	N	-0.302503	-1.894415	0.000023
C34	C	-0.338849	-2.039403	0.000028
C35	C	-0.774740	-1.732286	-0.000051
C36	C	-0.825096	-1.730588	-0.000051
C37	C	-0.847433	-2.022274	-0.000040
C38	C	-0.797077	-2.023971	-0.000026
C39	C	-0.760731	-1.878971	-0.000047
C40	C	-0.233105	-2.042956	0.000066
C41	C	-0.182747	-2.044640	0.000091
C42	C	-0.160414	-1.752955	0.000070
C43	C	-0.210768	-1.751270	0.000055
C44	C	-0.247112	-1.896283	0.000046
O45	O	-0.280940	-1.624656	0.000076
O46	O	-0.322300	-2.164303	0.000009
C47	C	-0.540261	-2.032616	-0.000023
C48	C	-0.554268	-1.885931	-0.000045
C49	C	-0.517922	-1.740943	-0.000049
C50	C	-0.604623	-1.884234	-0.000045
C51	C	-0.640968	-2.029222	-0.000041
C52	C	-0.626959	-2.175907	-0.000036
C53	C	-0.576607	-2.177604	-0.000019
C54	C	-0.531932	-1.594258	-0.000054
C55	C	-0.582285	-1.592574	-0.000069
C56	C	-0.618630	-1.737562	-0.000064
C57	C	0.084967	-1.873750	-0.000018
C58	C	0.138559	-1.875576	-0.000046
N59	N	-0.019815	-1.934676	0.452546
N60	N	0.011967	-1.840568	-0.452490
H61	H	-0.171348	-2.164104	0.000115
H62	H	0.044902	-1.743036	0.465846
Br63	Br	-0.088278	-1.498374	0.000044
H64	H	0.054701	-1.333145	-0.000020
Br65	Br	-0.074708	-2.097271	0.588662
H66	H	-0.262692	-2.161038	0.000051
H67	H	-0.505491	-2.299070	0.000012
Br68	Br	-0.406549	-2.381788	0.000011
H69	H	-0.785678	-2.143424	-0.000009
Br70	Br	-0.896768	-2.219042	-0.000039
H71	H	-0.836495	-1.611137	-0.000037
Br72	Br	-0.557607	-2.376702	0.000001
H73	H	-0.745150	-1.614202	-0.000067
H74	H	-0.442612	-1.478171	-0.000089
H75	H	-0.351269	-1.481259	-0.000079
H76	H	-0.130813	-1.634910	0.000073
Br77	Br	-0.229778	-1.552186	0.000067
Br78	Br	-0.482611	-1.397466	-0.000070
Br79	Br	-0.601285	-1.393467	-0.000086
Br80	Br	-0.676296	-2.372676	-0.000015
