data_functionalizedCrystal
_audit_creation_method	'MofGen! by Chris Wilmer'
_symmetry_space_group_name_H-M	'P1'
_symmetry_Int_Tables_number	1
_symmetry_cell_setting	triclinic
loop_
_symmetry_equiv_pos_as_xyz
  x,y,z
_cell_length_a	14.044220
_cell_length_b	14.519709
_cell_length_c	13.101039
_cell_angle_alpha	86.641741
_cell_angle_beta	86.332523
_cell_angle_gamma	91.565489
loop_
_atom_site_label
_atom_site_type_symbol
_atom_site_fract_x
_atom_site_fract_y
_atom_site_fract_z
O1	O	0.119055	-1.238528	0.085082
O2	O	0.133688	-0.971233	0.085114
O3	O	-0.011619	-1.100868	0.085089
O4	O	0.264362	-1.108893	0.085108
O5	O	-0.001176	-1.091568	-0.085340
O6	O	0.144131	-0.961933	-0.085314
O7	O	0.129498	-1.229228	-0.085346
Zn8	Zn	0.138473	-1.094104	-0.112389
Zn9	Zn	0.124714	-1.106357	0.112157
O10	O	0.274805	-1.099593	-0.085320
C11	C	0.138227	-0.932168	-0.000096
C12	C	0.136183	-0.829623	-0.000084
C13	C	-0.041718	-1.092705	-0.000126
C14	C	-0.146962	-1.082228	-0.000126
N15	N	0.147862	-1.085748	-0.265636
C16	C	-0.339657	-1.063075	-0.000109
C17	C	-0.397163	-1.137382	-0.000114
C18	C	-0.504385	-1.126725	-0.000105
C19	C	-0.232424	-1.073730	-0.000118
C20	C	0.304904	-1.107756	-0.000104
C21	C	0.410147	-1.118233	-0.000097
C22	C	0.124959	-1.268292	-0.000133
C23	C	0.127003	-1.370838	-0.000138
C24	C	0.128661	-0.454118	-0.000131
C25	C	0.130750	-0.558595	-0.000118
C26	C	0.132422	-0.641867	-0.000107
C27	C	0.134511	-0.746351	-0.000095
C28	C	0.160646	-1.074381	-0.474676
C29	C	0.102536	-1.126083	-0.525562
C30	C	0.109649	-1.119759	-0.641879
C31	C	0.153534	-1.080705	-0.358348
N32	N	0.115317	-1.114719	0.265404
H33	H	-0.365875	-1.209007	-0.000054
H34	H	-0.370948	-0.991459	-0.000098
H35	H	0.215734	-1.025371	-0.518464
H36	H	0.047446	-1.175098	-0.481769
