data_functionalizedCrystal
_audit_creation_method	'MofGen! by Chris Wilmer'
_symmetry_space_group_name_H-M	'P1'
_symmetry_Int_Tables_number	1
_symmetry_cell_setting	triclinic
loop_
_symmetry_equiv_pos_as_xyz
  x,y,z
_cell_length_a	19.077105
_cell_length_b	17.640280
_cell_length_c	19.076919
_cell_angle_alpha	81.491119
_cell_angle_beta	90.076224
_cell_angle_gamma	76.093206
loop_
_atom_site_label
_atom_site_type_symbol
_atom_site_fract_x
_atom_site_fract_y
_atom_site_fract_z
Zn1	Zn	1.129876	-0.382634	-0.374495
Zn2	Zn	1.463209	-0.049300	-0.041162
Zn3	Zn	1.796542	0.284033	0.292172
Zn4	Zn	1.158314	-0.509803	-0.235079
Zn5	Zn	1.491647	-0.176470	0.098255
Zn6	Zn	1.824981	0.156863	0.431588
Zn7	Zn	1.015111	-0.372039	-0.254114
Zn8	Zn	1.348444	-0.038705	0.079220
Zn9	Zn	1.681777	0.294628	0.412553
Zn10	Zn	1.036046	-0.509326	-0.347913
Zn11	Zn	1.369380	-0.175993	-0.014580
Zn12	Zn	1.702713	0.157340	0.318753
O13	O	1.084837	-0.443450	-0.302900
O14	O	1.418170	-0.110117	0.030433
O15	O	1.751503	0.223216	0.363766
O16	O	1.232847	-0.404137	-0.359159
O17	O	1.566180	-0.070804	-0.025826
O18	O	1.899514	0.262530	0.307507
O19	O	1.142458	-0.487294	-0.140002
O20	O	1.475791	-0.153961	0.193331
O21	O	1.809124	0.179373	0.526665
O22	O	1.009672	-0.262768	-0.289173
O23	O	1.343005	0.070566	0.044160
O24	O	1.676338	0.403899	0.377493
O25	O	1.253740	-0.497568	-0.256731
O26	O	1.587074	-0.164234	0.076603
O27	O	1.920407	0.169099	0.409936
O28	O	1.093989	-0.270552	-0.377617
O29	O	1.427322	0.062781	-0.044284
O30	O	1.760655	0.396115	0.289050
O31	O	1.037247	-0.386079	-0.153987
O32	O	1.370580	-0.052745	0.179346
O33	O	1.703914	0.280588	0.512680
O34	O	0.918689	-0.385616	-0.263398
O35	O	1.252022	-0.052283	0.069935
O36	O	1.585356	0.281050	0.403268
O37	O	1.045353	-0.496755	-0.449041
O38	O	1.378687	-0.163421	-0.115708
O39	O	1.712020	0.169912	0.217625
O40	O	0.934070	-0.486481	-0.332312
O41	O	1.267404	-0.153148	0.001021
O42	O	1.600737	0.180186	0.334354
O43	O	1.114289	-0.403674	-0.468571
O44	O	1.447623	-0.070341	-0.135237
O45	O	1.780956	0.262992	0.198096
O46	O	1.162758	-0.620416	-0.230956
O47	O	1.496091	-0.287083	0.102378
O48	O	1.829425	0.046250	0.435711
O49	O	1.072929	-0.620066	-0.313855
O50	O	1.406262	-0.286733	0.019479
O51	O	1.739595	0.046601	0.352812
C52	C	0.900659	-0.434848	-0.297037
C53	C	1.233992	-0.101514	0.036297
C54	C	1.567325	0.231819	0.369630
C55	C	0.821869	-0.431187	-0.294542
C56	C	1.155203	-0.097854	0.038792
C57	C	1.488536	0.235479	0.372125
C58	C	0.792897	-0.482056	-0.329166
C59	C	1.126231	-0.148722	0.004167
C60	C	1.459564	0.184611	0.337501
C61	C	0.718864	-0.478606	-0.326827
C62	C	1.052198	-0.145273	0.006507
C63	C	1.385531	0.188061	0.339840
C64	C	0.673806	-0.424291	-0.289859
C65	C	1.007139	-0.090958	0.043475
C66	C	1.340472	0.242376	0.376808
C67	C	0.702782	-0.373417	-0.255233
C68	C	1.036115	-0.040084	0.078100
C69	C	1.369449	0.293249	0.411433
C70	C	0.776813	-0.376864	-0.257577
C71	C	1.110146	-0.043530	0.075756
C72	C	1.443480	0.289803	0.409090
C73	C	0.451534	-0.408341	-0.279014
C74	C	0.784867	-0.075007	0.054319
C75	C	1.118200	0.258326	0.387653
C76	C	0.377499	-0.404900	-0.276671
C77	C	0.710832	-0.071566	0.056662
C78	C	1.044165	0.261767	0.389996
C79	C	0.393586	-0.510088	-0.348266
C80	C	0.726919	-0.176754	-0.014933
C81	C	1.060252	0.156579	0.318401
C82	C	0.467618	-0.513532	-0.350603
C83	C	0.800951	-0.180199	-0.017270
C84	C	1.134285	0.153134	0.316064
C85	C	0.496587	-0.462656	-0.315981
C86	C	0.829921	-0.129323	0.017353
C87	C	1.163254	0.204011	0.350686
N88	N	0.598132	-0.420765	-0.287465
N89	N	0.931466	-0.087432	0.045869
N90	N	1.264799	0.245901	0.379202
N91	N	0.572258	-0.466178	-0.318379
N92	N	0.905592	-0.132845	0.014954
N93	N	1.238925	0.200488	0.348287
C94	C	1.123220	-0.648940	-0.267471
C95	C	1.456553	-0.315606	0.065862
C96	C	1.789886	0.017727	0.399196
C97	C	1.139704	-0.736853	-0.252340
C98	C	1.473038	-0.403520	0.080994
C99	C	1.806371	-0.070186	0.414327
C100	C	0.959888	-1.025193	-0.418115
C101	C	1.293222	-0.691860	-0.084781
C102	C	1.626555	-0.358527	0.248552
C103	C	0.975380	-1.107800	-0.403874
C104	C	1.308713	-0.774467	-0.070541
C105	C	1.642047	-0.441134	0.262792
C106	C	1.068973	-1.108106	-0.317643
C107	C	1.402306	-0.774773	0.015690
C108	C	1.735640	-0.441440	0.349023
C109	C	1.053491	-1.025498	-0.331879
C110	C	1.386825	-0.692165	0.001454
C111	C	1.720158	-0.358831	0.334788
C112	C	0.998948	-0.984048	-0.382115
C113	C	1.332281	-0.650715	-0.048781
C114	C	1.665614	-0.317381	0.284552
C115	C	1.092551	-0.984353	-0.295879
C116	C	1.425884	-0.651019	0.037454
C117	C	1.759217	-0.317686	0.370788
C118	C	1.077068	-0.901751	-0.310111
C119	C	1.410401	-0.568418	0.023222
C120	C	1.743734	-0.235084	0.356556
C121	C	1.022525	-0.860295	-0.360343
C122	C	1.355858	-0.526962	-0.027010
C123	C	1.689192	-0.193628	0.306324
C124	C	0.983465	-0.901447	-0.396347
C125	C	1.316798	-0.568113	-0.063013
C126	C	1.650131	-0.234780	0.270320
C127	C	1.147091	-1.025804	-0.245640
C128	C	1.480424	-0.692470	0.087694
C129	C	1.813757	-0.359137	0.421027
C130	C	1.186150	-0.984658	-0.209640
C131	C	1.519483	-0.651325	0.123693
C132	C	1.852817	-0.317992	0.457027
C133	C	1.170671	-0.902056	-0.223875
C134	C	1.504004	-0.568722	0.109458
C135	C	1.837337	-0.235389	0.442791
C136	C	1.116128	-0.860600	-0.274107
C137	C	1.449461	-0.527266	0.059226
C138	C	1.782795	-0.193933	0.392559
C139	C	1.209731	-0.860904	-0.187872
C140	C	1.543064	-0.527571	0.145462
C141	C	1.876398	-0.194238	0.478795
C142	C	1.194248	-0.778303	-0.202104
C143	C	1.527581	-0.444970	0.131230
C144	C	1.860914	-0.111636	0.464563
C145	C	1.100645	-0.777998	-0.288339
C146	C	1.433978	-0.444665	0.044994
C147	C	1.767312	-0.111332	0.378327
C148	C	1.269734	-0.452087	-0.308787
C149	C	1.603067	-0.118754	0.024547
C150	C	1.936401	0.214579	0.357880
C151	C	1.348526	-0.455768	-0.311295
C152	C	1.681860	-0.122435	0.022038
C153	C	2.015193	0.210899	0.355371
C154	C	1.078984	-0.451343	-0.484821
C155	C	1.412318	-0.118010	-0.151487
C156	C	1.745651	0.215323	0.181846
C157	C	1.076490	-0.454707	-0.562344
C158	C	1.409824	-0.121373	-0.229011
C159	C	1.743157	0.211960	0.104323
C160	C	1.046323	-0.237160	-0.338484
C161	C	1.379656	0.096173	-0.005150
C162	C	1.712989	0.429506	0.328183
C163	C	1.029910	-0.149252	-0.353647
C164	C	1.363244	0.184081	-0.020314
C165	C	1.696577	0.517415	0.313019
C166	C	1.111208	-0.407827	-0.608934
C167	C	1.444541	-0.074494	-0.275600
C168	C	1.777875	0.258840	0.057733
C169	C	1.108856	-0.410984	-0.681775
C170	C	1.442189	-0.077651	-0.348442
C171	C	1.775522	0.255683	-0.015109
C172	C	1.071789	-0.461025	-0.708026
C173	C	1.405123	-0.127692	-0.374693
C174	C	1.738456	0.205641	-0.041359
C175	C	1.037067	-0.507907	-0.661431
C176	C	1.370400	-0.174573	-0.328098
C177	C	1.703734	0.158760	0.005236
C178	C	1.039416	-0.504745	-0.588591
C179	C	1.372749	-0.171412	-0.255258
C180	C	1.706082	0.161922	0.078076
C181	C	1.060912	-0.475673	-0.924783
C182	C	1.394246	-0.142340	-0.591450
C183	C	1.727579	0.190993	-0.258117
C184	C	1.058568	-0.478833	-0.997629
C185	C	1.391902	-0.145500	-0.664296
C186	C	1.725235	0.187834	-0.330962
C187	C	1.130356	-0.381909	-1.017969
C188	C	1.463689	-0.048576	-0.684635
C189	C	1.797023	0.284758	-0.351302
C190	C	1.132705	-0.378755	-0.945126
C191	C	1.466038	-0.045422	-0.611792
C192	C	1.799372	0.287911	-0.278459
C193	C	1.097980	-0.425634	-0.898538
C194	C	1.431313	-0.092300	-0.565204
C195	C	1.764646	0.241033	-0.231871
N196	N	1.069386	-0.464255	-0.782482
N197	N	1.402719	-0.130922	-0.449148
N198	N	1.736052	0.202412	-0.115815
N199	N	1.100379	-0.422399	-0.824084
N200	N	1.433713	-0.089066	-0.490751
N201	N	1.767046	0.244268	-0.157417
C202	C	1.090696	-0.435533	-0.121699
C203	C	1.424030	-0.102200	0.211635
C204	C	1.757363	0.231133	0.544968
C205	C	1.093286	-0.431953	-0.044218
C206	C	1.426619	-0.098620	0.289115
C207	C	1.759953	0.234713	0.622448
H208	H	0.475112	-0.366919	-0.250816
H209	H	0.808446	-0.033586	0.082518
H210	H	1.141779	0.299748	0.415851
H211	H	1.009915	-0.793035	-0.371925
H212	H	1.343248	-0.459702	-0.038591
H213	H	1.676582	-0.126369	0.294742
H214	H	1.162891	-0.338009	-0.923758
H215	H	1.496224	-0.004675	-0.590425
H216	H	1.829557	0.328658	-0.257092
H217	H	1.032649	-0.513857	-0.886858
H218	H	1.365983	-0.180524	-0.553524
H219	H	1.699316	0.152810	-0.220191
H220	H	0.504301	-0.557763	-0.380705
H221	H	0.837634	-0.224430	-0.047371
H222	H	1.170968	0.108904	0.285962
Cl223	Cl	0.990466	-0.570813	-0.694432
Cl224	Cl	1.323799	-0.237480	-0.361099
Cl225	Cl	1.657133	0.095854	-0.027765
H226	H	1.230557	-1.018418	-0.168736
H227	H	1.563891	-0.685085	0.164597
H228	H	1.897224	-0.351751	0.497931
Cl229	Cl	0.849536	-0.550344	-0.375639
Cl230	Cl	1.182870	-0.217011	-0.042306
Cl231	Cl	1.516203	0.116322	0.291028
H232	H	1.254135	-0.894665	-0.146965
H233	H	1.587469	-0.561332	0.186369
H234	H	1.920802	-0.227998	0.519702
H235	H	1.226054	-0.744802	-0.172788
H236	H	1.559387	-0.411469	0.160545
H237	H	1.892720	-0.078135	0.493879
Cl238	Cl	0.914901	-0.849332	-0.459509
Cl239	Cl	1.248234	-0.515999	-0.126175
Cl240	Cl	1.581567	-0.182665	0.207158
Cl241	Cl	0.646136	-0.305130	-0.208764
Cl242	Cl	0.979469	0.028203	0.124569
Cl243	Cl	1.312802	0.361536	0.457903
Cl244	Cl	0.891324	-0.973079	-0.481276
Cl245	Cl	1.224658	-0.639746	-0.147943
Cl246	Cl	1.557991	-0.306412	0.185390
H247	H	1.028383	-0.519584	-1.018998
H248	H	1.361716	-0.186251	-0.685665
H249	H	1.695049	0.147082	-0.352332
Cl250	Cl	1.174005	-0.322977	-1.076540
Cl251	Cl	1.507338	0.010356	-0.743207
Cl252	Cl	1.840671	0.343690	-0.409873
H253	H	0.340811	-0.360661	-0.246573
H254	H	0.674144	-0.027328	0.086761
H255	H	1.007478	0.306006	0.420094
Cl256	Cl	1.032081	-0.725884	-0.351501
Cl257	Cl	1.365414	-0.392551	-0.018168
Cl258	Cl	1.698748	-0.059217	0.315166
Cl259	Cl	0.813234	-0.312910	-0.214049
Cl260	Cl	1.146568	0.020423	0.119284
Cl261	Cl	1.479901	0.353756	0.452617
Cl262	Cl	1.137541	-1.160223	-0.254494
Cl263	Cl	1.470874	-0.826889	0.078839
Cl264	Cl	1.804208	-0.493556	0.412173
Cl265	Cl	0.926262	-1.159523	-0.449129
Cl266	Cl	1.259596	-0.826190	-0.115796
Cl267	Cl	1.592929	-0.492856	0.217538
Cl268	Cl	1.157813	-0.344919	-0.575940
Cl269	Cl	1.491146	-0.011585	-0.242607
Cl270	Cl	1.824479	0.321748	0.090726
H271	H	1.137129	-0.372812	-0.719706
H272	H	1.470462	-0.039478	-0.386373
H273	H	1.803795	0.293855	-0.053039
H274	H	0.695279	-0.520029	-0.355021
H275	H	1.028613	-0.186696	-0.021688
H276	H	1.361946	0.146638	0.311646
Cl277	Cl	0.995766	-0.563680	-0.530021
Cl278	Cl	1.329099	-0.230346	-0.196688
Cl279	Cl	1.662433	0.102987	0.136645
Cl280	Cl	1.166580	-1.129649	-0.227774
Cl281	Cl	1.499913	-0.796316	0.105559
Cl282	Cl	1.833246	-0.462983	0.438892
H283	H	0.369990	-0.551507	-0.376454
H284	H	0.703324	-0.218174	-0.043121
H285	H	1.036657	0.115159	0.290212
