data_functionalizedCrystal
_audit_creation_method	'MofGen! by Chris Wilmer'
_symmetry_space_group_name_H-M	'P1'
_symmetry_Int_Tables_number	1
_symmetry_cell_setting	triclinic
loop_
_symmetry_equiv_pos_as_xyz
  x,y,z
_cell_length_a	10.489746
_cell_length_b	10.489746
_cell_length_c	8.965430
_cell_angle_alpha	90.000118
_cell_angle_beta	89.999075
_cell_angle_gamma	84.541301
loop_
_atom_site_label
_atom_site_type_symbol
_atom_site_fract_x
_atom_site_fract_y
_atom_site_fract_z
O1	O	1.694053	0.179990	-0.123940
O2	O	1.322858	0.196875	-0.123965
O3	O	1.516899	0.002835	-0.123941
O4	O	1.500013	0.374030	-0.123965
O5	O	1.516882	0.002848	0.124138
O6	O	1.322842	0.196888	0.124113
O7	O	1.694037	0.180002	0.124139
Cu8	Cu	1.508438	0.188447	0.146778
Cu9	Cu	1.508457	0.188431	-0.146604
O10	O	1.499996	0.374043	0.124114
C11	C	1.275319	0.195605	0.000071
C12	C	1.133689	0.191785	0.000062
C13	C	0.980829	0.066062	0.000090
C14	C	1.058216	0.128925	0.122398
C15	C	1.058188	0.128942	-0.122188
C16	C	0.958727	0.247906	0.122507
C17	C	0.958693	0.247905	-0.122189
C18	C	1.036031	0.310856	0.000148
C19	C	1.515614	-0.044690	0.000098
C20	C	1.511794	-0.186319	0.000097
C21	C	1.386071	-0.339179	0.000070
C22	C	1.448935	-0.261792	-0.122239
C23	C	1.448948	-0.261821	0.122347
C24	C	1.567917	-0.361282	-0.122346
C25	C	1.567912	-0.361315	0.122350
C26	C	1.630864	-0.283978	0.000011
C27	C	1.741576	0.181273	0.000099
C28	C	1.883206	0.185093	0.000098
C29	C	1.501281	0.421568	0.000072
C30	C	1.505101	0.563197	0.000063
N31	N	1.508433	0.188457	0.353127
N32	N	1.508472	0.188411	-0.352954
C33	C	1.418668	0.278164	0.450421
C34	C	1.534165	0.303977	0.549841
C35	C	1.392985	0.162655	0.549834
C36	C	1.623989	0.214327	0.450358
C37	C	1.482733	0.072955	0.450342
C38	C	1.598312	0.098719	0.549717
H39	H	1.101637	0.078665	-0.225593
O40	O	1.115853	0.062372	0.259348
H41	H	1.094194	-0.039160	0.259097
H42	H	1.734444	-0.259501	-0.000048
O43	O	1.698994	-0.001798	0.607117
H44	H	1.652524	-0.072651	0.675244
H45	H	1.721659	0.236248	0.406845
O46	O	1.318202	0.378733	0.392663
H47	H	1.318459	0.377254	0.268872
O48	O	0.948051	-0.071026	0.000290
H49	H	0.842406	-0.072620	-0.000739
O50	O	1.248969	-0.371917	-0.000070
H51	H	1.199846	-0.331867	-0.101756
O52	O	1.068468	0.448053	0.000228
H53	H	1.124528	0.466028	-0.101361
H54	H	0.915442	0.298126	0.226029
O55	O	0.901049	0.314391	-0.259165
H56	H	0.941057	0.264751	-0.360555
H57	H	1.398694	-0.218323	-0.225651
O58	O	1.634430	-0.418598	-0.259486
H59	H	1.631032	-0.524029	-0.258455
O60	O	1.634408	-0.418944	0.259327
H61	H	1.584771	-0.378931	0.360717
O62	O	1.382371	-0.204285	0.259338
H63	H	1.280854	-0.225992	0.259064
H64	H	1.555929	0.401634	0.593545
H65	H	1.460933	-0.024672	0.406603
O66	O	1.263646	0.133755	0.607719
H67	H	1.189296	0.208372	0.567934
