data_functionalizedCrystal
_audit_creation_method	'MofGen! by Chris Wilmer'
_symmetry_space_group_name_H-M	'P1'
_symmetry_Int_Tables_number	1
_symmetry_cell_setting	triclinic
loop_
_symmetry_equiv_pos_as_xyz
  x,y,z
_cell_length_a	11.792254
_cell_length_b	9.065218
_cell_length_c	7.540329
_cell_angle_alpha	89.998243
_cell_angle_beta	89.997091
_cell_angle_gamma	84.607241
loop_
_atom_site_label
_atom_site_type_symbol
_atom_site_fract_x
_atom_site_fract_y
_atom_site_fract_z
O1	O	1.508020	0.202311	-0.147473
O2	O	1.841353	0.535644	0.185860
O3	O	2.174687	0.868977	0.519193
O4	O	1.177796	0.223132	-0.147476
O5	O	1.511129	0.556466	0.185857
O6	O	1.844463	0.889799	0.519190
O7	O	1.349734	-0.001984	-0.147471
O8	O	1.683067	0.331349	0.185862
O9	O	2.016400	0.664682	0.519195
O10	O	1.336082	0.427428	-0.147479
O11	O	1.669416	0.760761	0.185855
O12	O	2.002749	1.094094	0.519188
O13	O	1.349723	-0.001987	0.147494
O14	O	1.683057	0.331346	0.480827
O15	O	2.016390	0.664679	0.814161
O16	O	1.177786	0.223130	0.147489
O17	O	1.511119	0.556463	0.480822
O18	O	1.844452	0.889796	0.814155
O19	O	1.508009	0.202308	0.147492
O20	O	1.841343	0.535641	0.480825
O21	O	2.174676	0.868975	0.814158
Cu22	Cu	1.342897	0.212719	0.174423
Cu23	Cu	1.676230	0.546052	0.507756
Cu24	Cu	2.009563	0.879385	0.841090
Cu25	Cu	1.342909	0.212722	-0.174408
Cu26	Cu	1.676242	0.546055	0.158926
Cu27	Cu	2.009576	0.879389	0.492259
O28	O	1.336072	0.427425	0.147487
O29	O	1.669405	0.760758	0.480820
O30	O	2.002739	1.094091	0.814153
C31	C	1.348416	-0.056960	0.000008
C32	C	1.681750	0.276373	0.333342
C33	C	2.015083	0.609706	0.666675
C34	C	1.344494	-0.220767	-0.000000
C35	C	1.677827	0.112567	0.333333
C36	C	2.011160	0.445900	0.666667
C37	C	1.135493	0.221819	0.000006
C38	C	1.468826	0.555153	0.333339
C39	C	1.802160	0.888486	0.666672
C40	C	1.009458	0.217894	0.000004
C41	C	1.342792	0.551227	0.333338
C42	C	1.676125	0.884560	0.666671
C43	C	0.907104	0.214704	-0.000003
C44	C	1.240437	0.548037	0.333330
C45	C	1.573771	0.881370	0.666663
C46	C	0.778695	0.210715	-0.000004
C47	C	1.112029	0.544048	0.333329
C48	C	1.445362	0.877382	0.666662
C49	C	1.550313	0.203621	0.000006
C50	C	1.883646	0.536954	0.333339
C51	C	2.216979	0.870288	0.666672
C52	C	1.676347	0.207547	-0.000005
C53	C	2.009681	0.540880	0.333329
C54	C	2.343014	0.874214	0.666662
C55	C	1.337389	0.482401	0.000003
C56	C	1.670722	0.815734	0.333336
C57	C	2.004056	1.149067	0.666670
C58	C	1.341312	0.646207	-0.000000
C59	C	1.674645	0.979540	0.333333
C60	C	2.007979	1.312874	0.666666
N61	N	1.342896	0.212715	0.419771
N62	N	1.676230	0.546049	0.753105
N63	N	2.009563	0.879382	1.086438
N64	N	1.342918	0.212713	-0.419756
N65	N	1.676252	0.546047	-0.086423
N66	N	2.009585	0.879380	0.246911
