data_functionalizedCrystal
_audit_creation_method	'MofGen! by Chris Wilmer'
_symmetry_space_group_name_H-M	'P1'
_symmetry_Int_Tables_number	1
_symmetry_cell_setting	triclinic
loop_
_symmetry_equiv_pos_as_xyz
  x,y,z
_cell_length_a	23.096457
_cell_length_b	20.875641
_cell_length_c	23.096457
_cell_angle_alpha	122.413075
_cell_angle_beta	89.995370
_cell_angle_gamma	62.439477
loop_
_atom_site_label
_atom_site_type_symbol
_atom_site_fract_x
_atom_site_fract_y
_atom_site_fract_z
Zr1	Zr	0.581005	0.702142	0.099264
O2	O	0.492970	0.835981	0.196152
O3	O	0.604919	0.568317	0.066490
O4	O	0.609327	0.702163	0.191725
O5	O	0.488581	0.702113	-0.024374
O6	O	0.704607	0.702165	0.191728
O7	O	0.488562	0.702134	0.070917
O8	O	0.696722	0.462738	-0.032294
O9	O	0.496466	0.941540	0.199649
O10	O	0.689938	0.623358	0.056228
O11	O	0.618845	0.623341	-0.014890
O12	O	0.624035	0.780928	0.132558
O13	O	0.552943	0.780911	0.061441
Zr14	Zr	0.732997	0.702112	-0.052709
Zr15	Zr	0.732966	0.702145	0.099270
Zr16	Zr	0.581035	0.702109	-0.052714
Zr17	Zr	0.586581	0.870497	0.104840
Zr18	Zr	0.727420	0.533756	-0.058285
O19	O	0.709083	0.835937	-0.019934
O20	O	0.709039	0.835985	0.196160
O21	O	0.493013	0.835933	-0.019942
O22	O	0.821031	0.568273	-0.149596
O23	O	0.820988	0.568321	0.066498
O24	O	0.604962	0.568269	-0.149605
O25	O	0.825420	0.702141	0.070930
O26	O	0.704675	0.702091	-0.145169
O27	O	0.609394	0.702089	-0.145172
O28	O	0.825439	0.702120	-0.024361
O29	O	0.617255	0.941542	0.199653
O30	O	0.696746	0.462711	-0.153097
O31	O	0.817535	0.462714	-0.153093
O32	O	0.817511	0.462740	-0.032290
O33	O	0.496491	0.941514	0.078846
O34	O	0.617279	0.941516	0.078850
O35	O	0.689966	0.623326	-0.086002
O36	O	0.761059	0.623343	-0.014885
O37	O	0.695156	0.780913	0.061446
O38	O	0.624064	0.780896	-0.009672
C39	C	0.650026	0.491540	0.016303
C40	C	0.647659	0.420069	0.013936
C41	C	0.683654	0.386501	0.049947
C42	C	0.681431	0.319341	0.047716
C43	C	0.643209	0.285756	0.009478
C44	C	0.607213	0.319327	-0.026537
C45	C	0.609439	0.386481	-0.024310
C46	C	0.632573	0.084910	-0.001168
C47	C	0.630347	0.017753	-0.003391
C48	C	0.704568	0.017771	0.070861
C49	C	0.706788	0.084930	0.073089
C50	C	0.670794	0.118491	0.037071
N51	N	0.640935	0.217110	0.007198
N52	N	0.673073	0.187131	0.039346
C53	C	0.466920	0.702123	0.023271
C54	C	0.402409	0.702122	0.023268
C55	C	0.406503	0.619875	-0.016568
C56	C	0.345888	0.619873	-0.016572
C57	C	0.281178	0.702124	0.023276
C58	C	0.277086	0.784383	0.063115
C59	C	0.337701	0.784382	0.063111
N60	N	0.160398	0.763355	0.085721
N61	N	0.102818	0.763351	0.085723
C62	C	0.098546	0.702132	0.023289
N63	N	0.154034	0.640905	-0.039147
N64	N	0.211620	0.640907	-0.039148
C65	C	0.215447	0.702135	0.023284
C66	C	0.036917	0.619878	-0.016555
C67	C	-0.023701	0.619880	-0.016560
C68	C	-0.092503	0.784392	0.063134
C69	C	-0.031885	0.784387	0.063132
C70	C	0.032822	0.702128	0.023289
C71	C	0.847081	0.702130	0.023285
C72	C	0.911593	0.702132	0.023287
C73	C	0.656962	0.702169	0.213380
C74	C	0.656949	0.702183	0.277899
C75	C	0.663976	0.912713	0.030253
C76	C	0.666343	0.984185	0.032620
C77	C	0.709441	0.702187	0.308195
C78	C	0.709455	0.702170	0.368803
C79	C	0.656967	0.702168	0.399122
C80	C	0.604470	0.702160	0.368816
C81	C	0.604461	0.702167	0.308204
N82	N	0.596428	0.753516	0.519180
N83	N	0.596439	0.753511	0.576760
C84	C	0.656990	0.702144	0.581739
N85	N	0.717534	0.650794	0.526970
N86	N	0.717523	0.650803	0.469387
C87	C	0.656970	0.702160	0.464844
C88	C	0.709501	0.702129	0.677753
C89	C	0.709515	0.702107	0.738359
C90	C	0.604525	0.702106	0.738375
C91	C	0.604516	0.702119	0.677765
C92	C	0.657004	0.702135	0.647460
C93	C	0.657033	0.702093	0.833180
C94	C	0.657027	0.702104	0.768673
C95	C	0.840106	0.491544	0.016310
C96	C	0.902251	0.420074	0.013946
C97	C	0.650064	0.491498	-0.173799
C98	C	0.647710	0.420013	-0.240685
C99	C	0.840144	0.491502	-0.173792
C100	C	0.902302	0.420018	-0.240676
C101	C	0.473857	0.912752	0.220348
C102	C	0.411700	0.984236	0.287232
C103	C	0.473895	0.912710	0.030246
C104	C	0.411751	0.984180	0.032610
C105	C	0.663937	0.912755	0.220355
C106	C	0.666292	0.984241	0.287241
C107	C	0.894310	0.386518	0.049961
C108	C	0.952695	0.319374	0.047754
C109	C	1.019021	0.285782	0.009526
C110	C	1.026961	0.319344	-0.026491
C111	C	0.968576	0.386492	-0.024278
C112	C	0.683729	0.386435	-0.309222
C113	C	0.681514	0.319277	-0.372074
C114	C	0.643285	0.285692	-0.366388
C115	C	0.607261	0.319277	-0.297844
C116	C	0.609472	0.386439	-0.234993
C117	C	0.968607	0.386457	-0.234962
C118	C	1.027017	0.319299	-0.297801
C119	C	1.019119	0.285699	-0.366352
C120	C	0.952807	0.319267	-0.372063
C121	C	0.894399	0.386428	-0.309226
C122	C	0.345394	1.017805	0.281518
C123	C	0.286985	1.084984	0.344357
C124	C	0.294883	1.118587	0.412908
C125	C	0.361196	1.085015	0.418620
C126	C	0.419603	1.017843	0.355782
C127	C	0.419692	1.017742	-0.003399
C128	C	0.361307	1.084905	-0.001174
C129	C	0.294981	1.118500	0.037056
C130	C	0.287041	1.084934	0.073070
C131	C	0.345426	1.017777	0.070849
C132	C	0.704528	1.017804	0.281532
C133	C	0.706753	1.084963	0.344372
C134	C	0.670738	1.118563	0.412921
C135	C	0.632501	1.084993	0.418629
C136	C	0.630280	1.017830	0.355789
H137	H	0.459187	0.552893	-0.049007
N138	N	0.231881	1.191025	0.480679
H139	H	0.246940	1.207222	0.524976
H140	H	0.204579	1.246695	0.482478
H141	H	0.367785	1.112223	-0.030504
N142	N	0.547845	0.702159	0.275521
H143	H	0.514596	0.702151	0.303920
H144	H	0.522157	0.758099	0.277479
H145	H	0.089605	0.552897	-0.049012
H146	H	0.561770	0.702121	0.653099
N147	N	0.593655	1.121238	0.492566
H148	H	0.627308	1.109560	0.518985
H149	H	0.558538	1.188644	0.521538
H150	H	0.473590	0.990511	0.360442
N151	N	-0.019286	0.531166	-0.059533
H152	H	0.030904	0.479059	-0.084771
H153	H	-0.042946	0.527597	-0.025563
N154	N	0.724958	0.422656	-0.315368
H155	H	0.720899	0.470300	-0.265157
H156	H	0.775171	0.371365	-0.343877
N157	N	0.215501	1.121162	0.114288
H158	H	0.210714	1.149043	0.167146
H159	H	0.179772	1.168755	0.110161
N160	N	0.766132	0.702118	0.771040
H161	H	0.758176	0.702107	0.814035
H162	H	0.812451	0.646189	0.733338
H163	H	0.338950	0.990453	0.100170
H164	H	0.946386	0.291899	-0.427886
N165	N	0.232012	1.190933	0.039448
H166	H	0.247113	1.207091	0.010831
H167	H	0.202092	1.167508	0.017559
N168	N	0.720374	0.283051	-0.445999
H169	H	0.702611	0.334289	-0.449976
H170	H	0.771367	0.255174	-0.452547
H171	H	0.367618	1.112384	0.474442
N172	N	-0.162289	0.873108	0.106107
H173	H	-0.200069	0.860630	0.100064
H174	H	-0.166723	0.909036	0.159209
H175	H	0.224395	0.851352	0.095559
N176	N	0.491223	0.981530	-0.044626
H177	H	0.527012	0.933893	-0.040574
H178	H	0.495930	0.953714	-0.097460
H179	H	1.081006	0.291975	-0.293137
N180	N	0.743375	0.981574	0.207601
H181	H	0.767934	1.013032	0.213531
H182	H	0.778460	0.914156	0.178602
N183	N	0.747998	1.121160	0.338206
H184	H	0.770469	1.089685	0.285244
H185	H	0.716151	1.188577	0.363974
N186	N	0.944120	0.283173	0.086591
H187	H	0.991167	0.235540	0.079396
H188	H	0.918993	0.334477	0.140200
H189	H	0.672553	1.173251	0.464084
H190	H	0.576135	0.291922	-0.293225
N191	N	0.547915	0.702094	0.771061
H192	H	0.555885	0.702086	0.814055
H193	H	0.501594	0.758030	0.787577
N194	N	0.589036	0.981635	0.361953
H195	H	0.566559	1.013118	0.414915
H196	H	0.552106	0.993324	0.338811
N197	N	0.593757	0.121100	-0.040018
H198	H	0.569206	0.089633	-0.064577
H199	H	0.558668	0.188519	-0.003706
N200	N	0.724875	0.422729	0.091195
H201	H	0.747341	0.391269	0.113668
H202	H	0.761811	0.411037	0.056727
H203	H	0.710742	0.292010	0.077038
H204	H	0.737912	0.112273	0.104225
H205	H	0.975051	0.413804	-0.053611
H206	H	0.840412	0.413744	-0.313888
H207	H	0.733873	-0.009563	0.100185
N208	N	0.766052	0.702199	0.275507
H209	H	0.799309	0.702198	0.303899
H210	H	0.791733	0.646265	0.223254
H211	H	0.641490	0.231005	-0.417571
H212	H	1.066556	0.231105	0.007730
N213	N	0.589113	-0.018466	-0.044627
H214	H	0.566648	0.012986	-0.067106
H215	H	0.620965	-0.085887	-0.084176
H216	H	0.580143	0.413769	-0.179190
N217	N	0.977135	0.422681	-0.161031
H218	H	1.028007	0.391222	-0.166957
H219	H	0.955827	0.490100	-0.132025
N220	N	0.565992	0.283100	-0.067787
H221	H	0.570041	0.235465	-0.063733
H222	H	0.515780	0.334392	-0.046600
H223	H	-0.035223	0.851362	0.095577
H224	H	0.752202	0.702173	0.393475
N225	N	0.570620	0.422685	-0.063154
H226	H	0.546068	0.391221	-0.087716
H227	H	0.535532	0.490105	-0.026840
N228	N	0.822777	0.422740	0.091194
H229	H	0.826617	0.391289	0.113673
H230	H	0.798236	0.490160	0.130742
N231	N	0.766111	0.702142	0.645059
H232	H	0.799371	0.702135	0.673447
H233	H	0.791787	0.646212	0.592805
N234	N	1.098499	0.283109	-0.067720
H235	H	1.134275	0.235478	-0.063654
H236	H	1.103209	0.255276	-0.120556
H237	H	0.349222	0.552896	-0.049012
N238	N	0.333288	0.873095	0.106084
H239	H	0.283098	0.925203	0.131328
H240	H	0.356933	0.876681	0.143521
N241	N	0.547860	0.702151	0.401508
H242	H	0.555829	0.702149	0.444504
H243	H	0.501539	0.758086	0.418021
N244	N	1.082115	0.213256	-0.434128
H245	H	1.112063	0.236630	-0.433377
H246	H	1.109386	0.157563	-0.435953
N247	N	0.336866	0.981566	0.207586
H248	H	0.285995	1.013036	0.213513
H249	H	0.360795	0.993241	0.181202
H250	H	0.232997	1.112306	0.339693
