data_functionalizedCrystal
_audit_creation_method	'MofGen! by Chris Wilmer'
_symmetry_space_group_name_H-M	'P1'
_symmetry_Int_Tables_number	1
_symmetry_cell_setting	triclinic
loop_
_symmetry_equiv_pos_as_xyz
  x,y,z
_cell_length_a	19.805405
_cell_length_b	11.169417
_cell_length_c	19.805398
_cell_angle_alpha	89.986604
_cell_angle_beta	90.027637
_cell_angle_gamma	89.975367
loop_
_atom_site_label
_atom_site_type_symbol
_atom_site_fract_x
_atom_site_fract_y
_atom_site_fract_z
Zn1	Zn	-0.269522	-1.834731	0.382667
Zn2	Zn	0.230478	-1.334731	0.882667
Zn3	Zn	-0.382707	-1.834592	0.269475
Zn4	Zn	0.117293	-1.334592	0.769475
Zn5	Zn	-0.269534	-1.634045	0.269496
Zn6	Zn	0.230466	-1.134045	0.769496
Zn7	Zn	-0.382671	-1.633968	0.382627
Zn8	Zn	0.117329	-1.133968	0.882627
O9	O	-0.326109	-1.734334	0.326066
O10	O	0.173891	-1.234334	0.826066
O11	O	-0.284547	-2.002662	0.367660
O12	O	0.215453	-1.502662	0.867660
O13	O	-0.367715	-1.807964	0.174761
O14	O	0.132285	-1.307964	0.674761
O15	O	-0.174816	-1.660757	0.284534
O16	O	0.325184	-1.160757	0.784534
O17	O	-0.367703	-2.002560	0.284498
O18	O	0.132297	-1.502560	0.784498
O19	O	-0.174807	-1.808199	0.367680
O20	O	0.325193	-1.308199	0.867680
O21	O	-0.284567	-1.660623	0.174777
O22	O	0.215433	-1.160623	0.674777
O23	O	-0.284532	-1.466085	0.284496
O24	O	0.215468	-0.966085	0.784496
O25	O	-0.367641	-1.660624	0.477349
O26	O	0.132359	-1.160624	0.977349
O27	O	-0.367653	-1.466028	0.367612
O28	O	0.132347	-0.966028	0.867612
O29	O	-0.284511	-1.808124	0.477378
O30	O	0.215489	-1.308124	0.977378
O31	O	-0.477419	-1.807889	0.284460
O32	O	0.022581	-1.307889	0.784460
O33	O	-0.477392	-1.660491	0.367592
O34	O	0.022608	-1.160491	0.867592
C35	C	-0.326090	-1.422509	0.326052
C36	C	0.173910	-0.922509	0.826052
C37	C	-0.326099	-1.289109	0.326062
C38	C	0.173901	-0.789109	0.826062
C39	C	-0.501965	-1.734199	0.326034
C40	C	-0.001965	-1.234199	0.826034
C41	C	-0.577197	-1.734251	0.326042
C42	C	-0.077197	-1.234251	0.826042
C43	C	-0.612532	-1.811076	0.282801
C44	C	-0.112532	-1.311076	0.782801
C45	C	-0.683221	-1.811127	0.282816
C46	C	-0.183221	-1.311127	0.782816
C47	C	-0.718572	-1.734346	0.326069
C48	C	-0.218572	-1.234346	0.826069
C49	C	-0.683232	-1.657518	0.369316
C50	C	-0.183232	-1.157518	0.869316
C51	C	-0.612545	-1.657474	0.369304
C52	C	-0.112545	-1.157474	0.869304
C53	C	-0.968305	-1.657695	0.369366
C54	C	-0.468305	-1.157695	0.869366
C55	C	-1.038997	-1.657742	0.369373
C56	C	-0.538997	-1.157742	0.869373
C57	C	-1.038981	-1.811348	0.282878
C58	C	-0.538981	-1.311348	0.782878
C59	C	-0.968294	-1.811304	0.282866
C60	C	-0.468294	-1.311304	0.782866
C61	C	-0.932959	-1.734481	0.326114
C62	C	-0.432959	-1.234481	0.826114
C63	C	-0.856311	-1.734428	0.326099
C64	C	-0.356311	-1.234428	0.826099
C65	C	-0.795219	-1.734392	0.326082
C66	C	-0.295219	-1.234392	0.826082
C67	C	-0.149566	-1.734502	0.326114
C68	C	0.350434	-1.234502	0.826114
C69	C	-0.074334	-1.734574	0.326134
C70	C	0.425666	-1.234574	0.826134
C71	C	-0.326071	-1.734381	0.502609
C72	C	0.173929	-1.234381	1.002609
C73	C	-0.326055	-1.734401	0.577841
C74	C	0.173945	-1.234401	1.077841
C75	C	-0.326121	-1.047376	0.326077
C76	C	0.173879	-0.547376	0.826077
C77	C	-0.326109	-1.180776	0.326069
C78	C	0.173891	-0.680776	0.826069
C79	C	-0.326097	-1.734356	0.150210
C80	C	0.173903	-1.234356	0.650210
C81	C	-0.325922	-1.734569	0.074979
C82	C	0.174078	-1.234569	0.574979
C83	C	-0.282649	-1.811349	1.039649
C84	C	0.217351	-1.311349	1.539649
C85	C	-0.282670	-1.811330	0.968960
C86	C	0.217330	-1.311330	1.468960
C87	C	-0.325961	-1.734524	0.933603
C88	C	0.174039	-1.234524	1.433603
C89	C	-0.369239	-1.657741	0.968938
C90	C	0.130761	-1.157741	1.468938
C91	C	-0.369221	-1.657766	1.039625
C92	C	0.130779	-1.157766	1.539625
C93	C	-0.369312	-1.657636	0.683865
C94	C	0.130688	-1.157636	1.183865
C95	C	-0.369325	-1.657614	0.613172
C96	C	0.130675	-1.157614	1.113172
C97	C	-0.282761	-1.811200	0.613200
C98	C	0.217239	-1.311200	1.113200
C99	C	-0.282744	-1.811226	0.683887
C100	C	0.217256	-1.311226	1.183887
C101	C	-0.326024	-1.734447	0.719216
C102	C	0.173976	-1.234447	1.219216
C103	C	-0.326001	-1.734470	0.795864
C104	C	0.173999	-1.234470	1.295864
C105	C	-0.325980	-1.734494	0.856956
C106	C	0.174020	-1.234494	1.356956
H107	H	-0.583753	-1.873594	0.247576
H108	H	-0.083753	-1.373594	0.747576
H109	H	-0.404490	-1.595209	0.940145
H110	H	0.095510	-1.095209	1.440145
H111	H	-0.404552	-1.595117	0.712621
H112	H	0.095448	-1.095117	1.212621
O113	O	-0.415889	-1.574947	1.077737
O114	O	0.084111	-1.074947	1.577737
H115	H	-0.445990	-1.521524	1.041276
H116	H	0.054010	-1.021524	1.541276
H117	H	-0.247435	-1.873855	0.940198
H118	H	0.252565	-1.373855	1.440198
O119	O	-0.721335	-1.893980	0.236173
O120	O	-0.221335	-1.393980	0.736173
H121	H	-0.684878	-1.947349	0.206087
H122	H	-0.184878	-1.447349	0.706087
H123	H	-0.939513	-1.873821	0.247643
H124	H	-0.439513	-1.373821	0.747643
H125	H	-0.247489	-1.873765	0.712671
H126	H	0.252511	-1.373765	1.212671
O127	O	-0.236086	-1.894023	0.575091
O128	O	0.263914	-1.394023	1.075091
H129	H	-0.205976	-1.947423	0.611554
H130	H	0.294024	-1.447423	1.111554
H131	H	-0.404577	-1.595061	0.584387
H132	H	0.095423	-1.095061	1.084387
H133	H	-1.067759	-1.873906	0.247665
H134	H	-0.567759	-1.373906	0.747665
H135	H	-1.067778	-1.595219	0.404600
H136	H	-0.567778	-1.095219	0.904600
H137	H	-0.712021	-1.595007	0.404536
H138	H	-0.212021	-1.095007	0.904536
O139	O	-0.930198	-1.574803	0.415989
O140	O	-0.430198	-1.074803	0.915989
H141	H	-0.966658	-1.521402	0.446054
H142	H	-0.466658	-1.021402	0.946054
H143	H	-0.583775	-1.594917	0.404516
H144	H	-0.083775	-1.094917	0.904516
H145	H	-0.247393	-1.873885	1.068432
H146	H	0.252607	-1.373885	1.568432
