data_functionalizedCrystal
_audit_creation_method	'MofGen! by Chris Wilmer'
_symmetry_space_group_name_H-M	'P1'
_symmetry_Int_Tables_number	1
_symmetry_cell_setting	triclinic
loop_
_symmetry_equiv_pos_as_xyz
  x,y,z
_cell_length_a	17.699104
_cell_length_b	17.699092
_cell_length_c	17.766277
_cell_angle_alpha	89.995315
_cell_angle_beta	89.989752
_cell_angle_gamma	83.288943
loop_
_atom_site_label
_atom_site_type_symbol
_atom_site_fract_x
_atom_site_fract_y
_atom_site_fract_z
O1	O	1.004074	0.095787	-0.062607
O2	O	1.504074	0.595787	0.437393
O3	O	0.783698	0.108223	-0.062604
O4	O	1.283698	0.608223	0.437396
O5	O	0.900109	-0.008183	-0.062604
O6	O	1.400109	0.491817	0.437396
O7	O	0.887663	0.212193	-0.062607
O8	O	1.387663	0.712193	0.437393
O9	O	0.900088	-0.008189	0.062585
O10	O	1.400088	0.491811	0.562585
O11	O	0.783678	0.108217	0.062584
O12	O	1.283678	0.608217	0.562584
O13	O	1.004053	0.095781	0.062582
O14	O	1.504053	0.595781	0.562582
Cu15	Cu	0.893864	0.101999	0.074014
Cu16	Cu	1.393864	0.601999	0.574014
Cu17	Cu	0.893888	0.102006	-0.074036
Cu18	Cu	1.393888	0.602006	0.425964
O19	O	0.887643	0.212187	0.062581
O20	O	1.387643	0.712187	0.562581
C21	C	0.755491	0.107772	-0.000010
C22	C	1.255491	0.607772	0.499990
C23	C	0.671474	0.106427	-0.000009
C24	C	1.171474	0.606427	0.499991
C25	C	0.146605	0.167170	-0.000018
C26	C	0.646605	0.667170	0.499982
C27	C	0.225548	0.168430	-0.000020
C28	C	0.725548	0.668430	0.499980
C29	C	0.274164	0.100095	-0.000019
C30	C	0.774164	0.600095	0.499981
C31	C	0.243832	0.030496	-0.000023
C32	C	0.743832	0.530496	0.499977
C33	C	0.164890	0.029238	-0.000026
C34	C	0.664890	0.529238	0.499974
C35	C	0.562198	0.035569	-0.000011
C36	C	1.062198	0.535569	0.499989
C37	C	0.641145	0.036833	-0.000006
C38	C	1.141145	0.536833	0.499994
C39	C	0.622857	0.174761	-0.000005
C40	C	1.122857	0.674761	0.499995
C41	C	0.543915	0.173503	-0.000008
C42	C	1.043915	0.673503	0.499992
C43	C	0.513590	0.103905	-0.000016
C44	C	1.013590	0.603905	0.499984
C45	C	0.427990	0.102540	-0.000016
C46	C	0.927990	0.602540	0.499984
C47	C	0.359762	0.101458	-0.000014
C48	C	0.859762	0.601458	0.499986
C49	C	0.899652	-0.036383	-0.000011
C50	C	1.399652	0.463617	0.499989
C51	C	0.898311	-0.120401	-0.000014
C52	C	1.398311	0.379599	0.499986
C53	C	0.897693	-0.159865	-0.068255
C54	C	1.397693	0.340135	0.431745
C55	C	0.896428	-0.238808	-0.068256
C56	C	1.396428	0.261192	0.431744
C57	C	0.895786	-0.278286	-0.000015
C58	C	1.395786	0.221714	0.499985
C59	C	0.896401	-0.238816	0.068231
C60	C	1.396401	0.261184	0.568231
C61	C	0.897661	-0.159874	0.068231
C62	C	1.397661	0.340126	0.568231
C63	C	0.891321	-0.557182	0.068232
C64	C	1.391321	-0.057182	0.568232
C65	C	0.890064	-0.636130	0.068227
C66	C	1.390064	-0.136130	0.568227
C67	C	0.890089	-0.636116	-0.068255
C68	C	1.390089	-0.136116	0.431745
C69	C	0.891348	-0.557174	-0.068255
C70	C	1.391348	-0.057174	0.431745
C71	C	0.891959	-0.517710	-0.000009
C72	C	1.391959	-0.017710	0.499991
C73	C	0.893329	-0.432111	-0.000009
C74	C	1.393329	0.067889	0.499991
C75	C	0.894421	-0.363885	-0.000015
C76	C	1.394421	0.136115	0.499985
C77	C	1.032260	0.096232	-0.000014
C78	C	1.532260	0.596232	0.499986
C79	C	1.116278	0.097577	-0.000020
C80	C	1.616278	0.597577	0.499980
C81	C	0.888100	0.240387	-0.000013
C82	C	1.388100	0.740387	0.499987
C83	C	0.889441	0.324405	-0.000015
C84	C	1.389441	0.824405	0.499985
N85	N	0.893852	0.101993	0.178144
N86	N	1.393852	0.601993	0.678144
N87	N	0.893905	0.102005	-0.178167
N88	N	1.393905	0.602005	0.321833
C89	C	0.945416	0.050474	0.217531
C90	C	1.445416	0.550474	0.717531
C91	C	0.945420	0.050470	0.296333
C92	C	1.445420	0.550470	0.796333
C93	C	0.893868	0.101999	0.335745
C94	C	1.393868	0.601999	0.835745
C95	C	0.842295	0.153523	0.296348
C96	C	1.342295	0.653523	0.796348
C97	C	0.842287	0.153520	0.217548
C98	C	1.342287	0.653520	0.717548
C99	C	0.883827	0.170947	0.460582
C100	C	1.383827	0.670947	0.960582
C101	C	0.883840	0.170951	0.539380
C102	C	1.383840	0.670951	1.039380
C103	C	0.893888	0.102008	0.578791
C104	C	1.393888	0.602008	1.078791
C105	C	0.903940	0.033059	0.539393
C106	C	1.403940	0.533059	1.039393
C107	C	0.903932	0.033056	0.460593
C108	C	1.403932	0.533056	0.960593
C109	C	0.893871	0.102008	0.421190
C110	C	1.393871	0.602008	0.921190
C111	C	0.945459	0.050481	0.703624
C112	C	1.445459	0.550481	1.203624
C113	C	0.945458	0.050476	0.782427
C114	C	1.445458	0.550476	1.282427
C115	C	0.842337	0.153535	0.782441
C116	C	1.342337	0.653535	1.282441
C117	C	0.842335	0.153533	0.703639
C118	C	1.342335	0.653533	1.203639
C119	C	0.893900	0.102007	0.664235
C120	C	1.393900	0.602007	1.164235
H121	H	0.537518	-0.021102	-0.000016
H122	H	1.037518	0.478898	0.499984
H123	H	0.898152	-0.127742	0.123800
H124	H	1.398152	0.372258	0.623800
C125	C	0.990117	-0.080606	0.320612
C126	C	1.490117	0.419394	0.820612
C127	C	1.002099	-0.006164	0.339643
C128	C	1.502099	0.493836	0.839643
H129	H	1.025111	-0.115568	0.347346
H130	H	1.525111	0.384432	0.847346
H131	H	0.939629	-0.088761	0.333541
H132	H	1.439629	0.411239	0.833541
H133	H	0.997498	-0.087977	0.268041
H134	H	1.497498	0.412023	0.768041
H135	H	0.994713	0.001209	0.392213
H136	H	1.494713	0.501209	0.892213
H137	H	1.052599	0.001994	0.326719
H138	H	1.552599	0.501994	0.826719
H139	H	0.912122	-0.023081	0.571479
H140	H	1.412122	0.476919	1.071479
H141	H	0.912114	-0.023085	0.428518
H142	H	1.412114	0.476915	0.928518
C143	C	0.990168	-0.080591	0.679291
C144	C	1.490168	0.419409	1.179291
C145	C	1.002129	-0.006136	0.660273
C146	C	1.502129	0.493864	1.160273
H147	H	1.025151	-0.115534	0.652517
H148	H	1.525151	0.384466	1.152517
H149	H	0.997573	-0.087989	0.731847
H150	H	1.497573	0.412011	1.231847
H151	H	0.939670	-0.088747	0.666396
H152	H	1.439670	0.411253	1.166396
H153	H	1.052626	0.002022	0.673174
H154	H	1.552626	0.502022	1.173174
H155	H	0.994731	0.001265	0.607706
H156	H	1.494731	0.501265	1.107706
H157	H	0.283421	-0.025143	-0.000027
H158	H	0.783421	0.474857	0.499973
H159	H	0.680728	-0.018817	-0.000007
H160	H	1.180728	0.481183	0.499993
C161	C	0.931068	0.290361	0.436283
C162	C	1.431068	0.790361	0.936283
C163	C	0.872792	0.246733	0.417260
C164	C	1.372792	0.746733	0.917260
H165	H	0.924258	0.337142	0.409533
H166	H	1.424258	0.837142	0.909533
H167	H	0.929626	0.300233	0.488844
H168	H	1.429626	0.800233	0.988844
H169	H	0.978842	0.263297	0.423361
H170	H	1.478842	0.763297	0.923361
H171	H	0.825018	0.273794	0.430187
H172	H	1.325018	0.773794	0.930187
H173	H	0.874226	0.236862	0.364687
H174	H	1.374226	0.736862	0.864687
H175	H	0.891875	-0.525035	-0.123824
H176	H	1.391875	-0.025035	0.376176
C177	C	0.711242	0.198134	0.806728
C178	C	1.211242	0.698134	1.306728
C179	C	0.785667	0.210176	0.825753
C180	C	1.285667	0.710176	1.325753
H181	H	0.676255	0.233099	0.833473
H182	H	1.176255	0.733099	1.333473
H183	H	0.703865	0.205509	0.754166
H184	H	1.203865	0.705509	1.254166
H185	H	0.703129	0.147627	0.819654
H186	H	1.203129	0.647627	1.319654
H187	H	0.793782	0.260681	0.812821
H188	H	1.293782	0.760681	1.312821
H189	H	0.793048	0.202807	0.878326
H190	H	1.293048	0.702807	1.378326
H191	H	0.987401	0.008516	0.185451
H192	H	1.487401	0.508516	0.685451
H193	H	0.987445	0.008519	0.814497
H194	H	1.487445	0.508519	1.314497
H195	H	0.800350	0.195488	0.671568
H196	H	1.300350	0.695488	1.171568
C197	C	0.156187	-0.088712	-0.064380
C198	C	0.656187	0.411288	0.435620
C199	C	0.131552	-0.047262	-0.000027
C200	C	0.631552	0.452738	0.499973
H201	H	0.135609	-0.135942	-0.064380
H202	H	0.635609	0.364058	0.435620
H203	H	0.139500	-0.060578	-0.108028
H204	H	0.639500	0.439422	0.391972
H205	H	0.210160	-0.097736	-0.064368
H206	H	0.710160	0.402264	0.435632
H207	H	0.077579	-0.038232	-0.000042
H208	H	0.577579	0.461768	0.499958
H209	H	0.148235	-0.075402	0.043632
H210	H	0.648235	0.424598	0.543632
H211	H	0.800320	0.195477	0.328441
H212	H	1.300320	0.695477	0.828441
H213	H	0.875661	0.227094	0.571452
H214	H	1.375661	0.727094	1.071452
H215	H	0.800297	0.195474	0.185478
H216	H	1.300297	0.695474	0.685478
C217	C	0.888158	-0.757122	-0.128870
C218	C	1.388158	-0.257122	0.371130
C219	C	0.889406	-0.679496	-0.143275
C220	C	1.389406	-0.179496	0.356725
H221	H	0.887734	-0.783899	-0.175183
H222	H	1.387734	-0.283899	0.324817
H223	H	0.932062	-0.775909	-0.100836
H224	H	1.432062	-0.275909	0.399164
H225	H	0.843824	-0.764203	-0.100831
H226	H	1.343824	-0.264203	0.399169
H227	H	0.933743	-0.672414	-0.171309
H228	H	1.433743	-0.172414	0.328691
H229	H	0.845498	-0.660703	-0.171321
H230	H	1.345498	-0.160703	0.328679
C231	C	0.897584	-0.167788	-0.203166
C232	C	1.397584	0.332212	0.296834
C233	C	0.898397	-0.116474	-0.143269
C234	C	1.398397	0.383526	0.356731
H235	H	0.898011	-0.140999	-0.249477
H236	H	1.398011	0.359001	0.250523
H237	H	0.941208	-0.204425	-0.200329
H238	H	1.441208	0.295575	0.299671
H239	H	0.852971	-0.192732	-0.200319
H240	H	1.352971	0.307268	0.299681
H241	H	0.943013	-0.091535	-0.146114
H242	H	1.443013	0.408465	0.353886
H243	H	0.854768	-0.079824	-0.146108
H244	H	1.354768	0.420176	0.353892
H245	H	0.647557	0.231431	-0.000002
H246	H	1.147557	0.731431	0.499998
H247	H	0.107027	0.222817	-0.000013
H248	H	0.607027	0.722817	0.499987
H249	H	0.250236	0.225099	-0.000026
H250	H	0.750236	0.725099	0.499974
H251	H	0.889539	-0.668271	0.123800
H252	H	1.389539	-0.168271	0.623800
H253	H	0.504335	0.229148	-0.000005
H254	H	1.004335	0.729148	0.499995
H255	H	0.891833	-0.525062	0.123802
H256	H	1.391833	-0.025062	0.623802
C257	C	0.830003	-0.318942	-0.147473
C258	C	1.330003	0.181058	0.352527
C259	C	0.895762	-0.282175	-0.143277
C260	C	1.395762	0.217825	0.356723
H261	H	0.829593	-0.345706	-0.193795
H262	H	1.329593	0.154294	0.306205
H263	H	0.829440	-0.353759	-0.106847
H264	H	1.329440	0.146241	0.393153
H265	H	0.786379	-0.282291	-0.144634
H266	H	1.286379	0.217709	0.355366
H267	H	0.939386	-0.318826	-0.146110
H268	H	1.439386	0.181174	0.353890
H269	H	0.896332	-0.247354	-0.183915
H270	H	1.396332	0.252646	0.316085
H271	H	0.895874	-0.270965	0.123794
H272	H	1.395874	0.229035	0.623794
