data_functionalizedCrystal
_audit_creation_method	'MofGen! by Chris Wilmer'
_symmetry_space_group_name_H-M	'P1'
_symmetry_Int_Tables_number	1
_symmetry_cell_setting	triclinic
loop_
_symmetry_equiv_pos_as_xyz
  x,y,z
_cell_length_a	14.908571
_cell_length_b	12.645330
_cell_length_c	14.908308
_cell_angle_alpha	93.270889
_cell_angle_beta	89.824947
_cell_angle_gamma	93.277388
loop_
_atom_site_label
_atom_site_type_symbol
_atom_site_fract_x
_atom_site_fract_y
_atom_site_fract_z
Zn1	Zn	1.345246	0.553222	0.587613
Zn2	Zn	1.845246	1.053222	1.087613
Zn3	Zn	1.353812	0.720900	0.437262
Zn4	Zn	1.853812	1.220900	0.937262
Zn5	Zn	1.203563	0.532861	0.428609
Zn6	Zn	1.703563	1.032861	0.928609
Zn7	Zn	1.194840	0.719640	0.578914
Zn8	Zn	1.694840	1.219640	1.078914
O9	O	1.274365	0.631656	0.508099
O10	O	1.774365	1.131656	1.008099
O11	O	1.472208	0.584514	0.574930
O12	O	1.972208	1.084514	1.074930
O13	O	1.341117	0.687962	0.310289
O14	O	1.841117	1.187962	0.810289
O15	O	1.222424	0.387220	0.449721
O16	O	1.722424	0.887220	0.949721
O17	O	1.478501	0.707705	0.464468
O18	O	1.978501	1.207705	0.964468
O19	O	1.326518	0.402180	0.566540
O20	O	1.826518	0.902180	1.066540
O21	O	1.230730	0.549810	0.303932
O22	O	1.730730	1.049810	0.803932
O23	O	1.076581	0.548589	0.441286
O24	O	1.576581	1.048589	0.941286
O25	O	1.207556	0.705559	0.705893
O26	O	1.707556	1.205559	1.205893
O27	O	1.070172	0.685815	0.551714
O28	O	1.570172	1.185815	1.051714
O29	O	1.318059	0.583292	0.712284
O30	O	1.818059	1.083292	1.212284
O31	O	1.332658	0.869074	0.456033
O32	O	1.832658	1.369074	0.956033
O33	O	1.215861	0.868149	0.560104
O34	O	1.715861	1.368149	1.060104
C35	C	1.040751	0.614857	0.494617
C36	C	1.540751	1.114857	0.994617
C37	C	0.940809	0.607697	0.488871
C38	C	1.440809	1.107697	0.988871
C39	C	0.746390	0.737337	0.592907
C40	C	1.246390	1.237337	1.092907
C41	C	0.652485	0.730613	0.587511
C42	C	1.152485	1.230613	1.087511
C43	C	0.659092	0.587521	0.472688
C44	C	1.159092	1.087521	0.972688
C45	C	0.752997	0.594245	0.478084
C46	C	1.252997	1.094245	0.978084
C47	C	0.796643	0.669156	0.538195
C48	C	1.296643	1.169156	1.038195
C49	C	0.890550	0.675884	0.543586
C50	C	1.390550	1.175884	1.043586
C51	C	0.897155	0.532788	0.428768
C52	C	1.397155	1.032788	0.928768
C53	C	0.803250	0.526064	0.423372
C54	C	1.303250	1.026064	0.923372
C55	C	1.274266	0.907078	0.508085
C56	C	1.774266	1.407078	1.008085
C57	C	1.274303	1.024912	0.508113
C58	C	1.774303	1.524912	1.008113
C59	C	1.201080	1.191971	0.573816
C60	C	1.701080	1.691971	1.073816
C61	C	1.200755	1.069373	0.573571
C62	C	1.700755	1.569373	1.073571
C63	C	1.254120	1.061612	0.411877
C64	C	1.754120	1.561612	0.911877
C65	C	1.253658	1.184206	0.412277
C66	C	1.753658	1.684206	0.912277
C67	C	1.368130	1.200393	0.537905
C68	C	1.868130	1.700393	1.037905
C69	C	1.367442	1.077878	0.539942
C70	C	1.867442	1.577878	1.039942
C71	C	1.508892	0.648521	0.521635
C72	C	2.008892	1.148521	1.021635
C73	C	1.608833	0.655708	0.527403
C74	C	2.108833	1.155708	1.027403
C75	C	1.260879	0.646556	0.742626
C76	C	1.760879	1.146556	1.242626
C77	C	1.255132	0.652906	0.842567
C78	C	1.755132	1.152906	1.342567
C79	C	1.274457	1.355159	0.508137
C80	C	1.774457	1.855159	1.008137
C81	C	1.274415	1.237328	0.508157
C82	C	1.774415	1.737328	1.008157
C83	C	1.287851	0.616740	0.274489
C84	C	1.787851	1.116740	0.774489
C85	C	1.293772	0.610104	0.174558
C86	C	1.793772	1.110104	0.674558
C87	C	1.359397	0.537497	1.037023
C88	C	1.859397	1.037497	1.537023
C89	C	1.354000	0.543460	1.130927
C90	C	1.854000	1.043460	1.630927
C91	C	1.238936	0.670788	1.124279
C92	C	1.738936	1.170788	1.624279
C93	C	1.244334	0.664825	1.030375
C94	C	1.744334	1.164825	1.530375
C95	C	1.304567	0.598179	0.986751
C96	C	1.804567	1.098179	1.486751
C97	C	1.309968	0.592222	0.892846
C98	C	1.809968	1.092222	1.392846
C99	C	1.194901	0.719544	0.886200
C100	C	1.694901	1.219544	1.386200
C101	C	1.189504	0.725507	0.980103
C102	C	1.689504	1.225507	1.480103
H103	H	0.623539	0.526525	0.423755
H104	H	1.123539	1.026525	0.923755
F105	F	1.412356	0.478873	1.184427
F106	F	1.912356	0.978873	1.684427
F107	F	0.936999	0.755613	0.607557
F108	F	1.436999	1.255613	1.107557
H109	H	0.767700	0.465071	0.374434
H110	H	1.267700	0.965071	0.874434
H111	H	1.189897	0.725048	1.159815
H112	H	1.689897	1.225048	1.659815
F113	F	1.374075	0.521295	0.846418
F114	F	1.874075	1.021295	1.346418
F115	F	1.439460	1.238912	0.475496
F116	F	1.939460	1.738912	0.975496
H117	H	0.938081	0.477272	0.384215
H118	H	1.438081	0.977272	0.884215
H119	H	1.131176	1.034048	0.553430
H120	H	1.631176	1.534048	1.053430
H121	H	1.140462	0.779766	1.015635
H122	H	1.640462	1.279766	1.515635
F123	F	0.792843	0.817071	0.656872
F124	F	1.292843	1.317071	1.156872
F125	F	1.164329	1.213468	0.380169
F126	F	1.664329	1.713468	0.880169
F127	F	1.322048	1.023641	0.345869
F128	F	1.822048	1.523641	0.845869
F129	F	1.423508	0.466579	0.990593
F130	F	1.923508	0.966579	1.490593
F131	F	1.320824	1.223026	0.345762
F132	F	1.820824	1.723026	0.845762
H133	H	1.150256	0.768959	0.845258
H134	H	1.650256	1.268959	1.345258
H135	H	1.212749	1.044859	0.644758
H136	H	1.712749	1.544859	1.144758
F137	F	1.165774	1.013401	0.379337
F138	F	1.665774	1.513401	0.879337
F139	F	1.393583	1.248573	0.628448
F140	F	1.893583	1.748573	1.128448
F141	F	0.599005	0.803178	0.645746
F142	F	1.099005	1.303178	1.145746
H143	H	1.382762	1.054570	0.610794
H144	H	1.882762	1.554570	1.110794
H145	H	1.212906	1.227027	0.645226
H146	H	1.712906	1.727027	1.145226
F147	F	1.110687	1.224477	0.547808
F148	F	1.610687	1.724477	1.047808
F149	F	1.442060	1.038986	0.482561
F150	F	1.942060	1.538986	0.982561
