data_functionalizedCrystal
_audit_creation_method	'MofGen! by Chris Wilmer'
_symmetry_space_group_name_H-M	'P1'
_symmetry_Int_Tables_number	1
_symmetry_cell_setting	triclinic
loop_
_symmetry_equiv_pos_as_xyz
  x,y,z
_cell_length_a	18.050591
_cell_length_b	10.686285
_cell_length_c	10.685986
_cell_angle_alpha	98.412590
_cell_angle_beta	85.648298
_cell_angle_gamma	85.631765
loop_
_atom_site_label
_atom_site_type_symbol
_atom_site_fract_x
_atom_site_fract_y
_atom_site_fract_z
Zn1	Zn	-1.125158	0.450167	-0.678918
Zn2	Zn	-1.145725	0.678750	-0.450416
Zn3	Zn	-1.011272	0.466522	-0.466690
Zn4	Zn	-1.011286	0.662363	-0.662628
O5	O	-1.073360	0.564451	-0.564663
O6	O	-1.231811	0.480502	-0.648613
O7	O	-1.136491	0.664301	-0.274945
O8	O	-1.017766	0.286730	-0.508471
O9	O	-1.246922	0.648442	-0.480734
O10	O	-1.101437	0.274714	-0.664394
O11	O	-1.037709	0.508378	-0.286901
O12	O	-0.907349	0.492488	-0.492675
O13	O	-1.017790	0.620512	-0.842418
O14	O	-0.907359	0.636371	-0.636630
O15	O	-1.101451	0.464612	-0.854387
O16	O	-1.136505	0.854199	-0.464938
O17	O	-1.037733	0.842160	-0.620849
C18	C	-0.880408	0.564427	-0.564651
C19	C	-0.797862	0.564445	-0.564674
C20	C	-1.057328	0.538910	-0.895748
C21	C	-1.050496	0.528026	-1.036837
C22	C	-1.089371	0.894233	-0.539387
C23	C	-1.096287	1.035312	-0.528617
C24	C	-0.549078	0.642881	-0.642823
C25	C	-0.605575	0.682683	-0.524601
C26	C	-0.500744	0.564495	-0.564663
C27	C	-0.591330	0.524728	-0.682878
C28	C	-0.646728	0.564473	-0.564674
C29	C	-0.556160	0.604361	-0.446376
C30	C	-0.541904	0.446347	-0.604735
C31	C	-0.598381	0.486111	-0.486437
C32	C	-0.416647	0.564510	-0.564658
C33	C	-0.730824	0.564458	-0.564666
C34	C	-0.267067	0.564484	-0.564670
C35	C	-0.349615	0.564519	-0.564662
C36	C	-1.057306	0.233378	-0.590065
C37	C	-1.050464	0.092295	-0.600889
C38	C	-1.089369	0.589801	-0.234873
C39	C	-1.096327	0.600327	-0.093812
H40	H	-0.633307	0.782590	-0.490705
O41	O	-0.997369	0.444424	-1.107448
C42	C	-0.949249	0.510840	-1.178603
H43	H	-0.951430	0.613861	-1.130901
H44	H	-0.967615	0.507556	-1.278694
C45	C	-0.866253	0.322124	-1.244150
C46	C	-0.868927	0.448655	-1.185556
H47	H	-0.816706	0.283764	-1.248445
H48	H	-0.898673	0.277377	-1.196216
H49	H	-0.881562	0.319405	-1.327553
H50	H	-0.853627	0.451371	-1.102150
H51	H	-0.836502	0.493402	-1.233477
H52	H	-0.540572	0.638106	-0.346371
O53	O	-0.523305	0.722224	-0.721403
C54	C	-0.556031	0.846683	-0.678703
H55	H	-0.575091	0.857037	-0.573240
H56	H	-0.606101	0.866146	-0.734138
C57	C	-0.474983	0.929641	-0.829172
C58	C	-0.498388	0.942361	-0.699638
H59	H	-0.439429	0.988661	-0.842091
H60	H	-0.452937	0.845790	-0.857944
H61	H	-0.516715	0.945858	-0.875353
H62	H	-0.456659	0.926128	-0.653462
H63	H	-0.520427	1.026212	-0.670859
O64	O	-1.149313	0.684078	-1.023055
C65	C	-1.144576	0.676643	-0.893215
H66	H	-1.086107	0.636432	-0.878424
H67	H	-1.187150	0.611921	-0.860785
C68	C	-1.232683	0.859654	-0.833337
C69	C	-1.160869	0.810277	-0.815170
H70	H	-1.242737	0.942084	-0.785193
H71	H	-1.235877	0.864661	-0.920813
H72	H	-1.268153	0.805708	-0.806314
H73	H	-1.125400	0.864215	-0.842208
H74	H	-1.157670	0.805282	-0.727696
H75	H	-0.619895	0.419819	-0.420261
H76	H	-1.005944	1.033152	-0.671007
O77	O	-1.149422	1.105681	-0.444850
C78	C	-1.190650	1.024374	-0.379845
H79	H	-1.155872	0.930232	-0.382542
H80	H	-1.244090	1.006639	-0.427482
C81	C	-1.253188	1.202315	-0.237531
C82	C	-1.210471	1.086691	-0.240834
H83	H	-1.265419	1.240755	-0.151784
H84	H	-1.225414	1.257094	-0.281328
H85	H	-1.297717	1.187519	-0.277235
H86	H	-1.165940	1.101490	-0.201145
H87	H	-1.238238	1.031916	-0.197027
O88	O	-0.508818	0.327214	-0.645424
C89	C	-0.526474	0.285641	-0.770143
H90	H	-0.542076	0.371455	-0.817862
H91	H	-0.575524	0.224651	-0.766956
C92	C	-0.439261	0.101297	-0.787614
C93	C	-0.458418	0.206696	-0.846227
H94	H	-0.397283	0.052595	-0.834547
H95	H	-0.427367	0.129302	-0.703587
H96	H	-0.480142	0.050487	-0.784962
H97	H	-0.417540	0.257512	-0.848864
H98	H	-0.470303	0.178697	-0.930257
O99	O	-0.610175	0.484679	-0.802069
C100	C	-0.688333	0.484092	-0.800210
H101	H	-0.715840	0.552502	-0.714502
H102	H	-0.704738	0.384169	-0.793659
C103	C	-0.680608	0.441997	-1.028073
C104	C	-0.714392	0.526028	-0.922811
H105	H	-0.696683	0.467859	-1.103701
H106	H	-0.627951	0.442388	-1.029327
H107	H	-0.694281	0.358734	-1.022596
H108	H	-0.700711	0.609285	-0.928281
H109	H	-0.767047	0.525652	-0.921562
