data_functionalizedCrystal
_audit_creation_method	'MofGen! by Chris Wilmer'
_symmetry_space_group_name_H-M	'P1'
_symmetry_Int_Tables_number	1
_symmetry_cell_setting	triclinic
loop_
_symmetry_equiv_pos_as_xyz
  x,y,z
_cell_length_a	11.792254
_cell_length_b	10.489746
_cell_length_c	10.868271
_cell_angle_alpha	89.994561
_cell_angle_beta	89.995741
_cell_angle_gamma	84.369949
loop_
_atom_site_label
_atom_site_type_symbol
_atom_site_fract_x
_atom_site_fract_y
_atom_site_fract_z
O1	O	1.507375	0.174909	-0.102322
O2	O	1.177084	0.192910	-0.102325
O3	O	1.349742	-0.001713	-0.102314
O4	O	1.334717	0.369532	-0.102333
O5	O	1.349728	-0.001721	0.102330
O6	O	1.177070	0.192903	0.102320
O7	O	1.507360	0.174901	0.102322
Zn8	Zn	1.342213	0.183901	0.134813
Zn9	Zn	1.342232	0.183911	-0.134815
O10	O	1.334703	0.369525	0.102312
C11	C	1.134783	0.191773	-0.000003
C12	C	1.008761	0.188378	-0.000004
C13	C	0.906417	0.185621	-0.000009
C14	C	0.778021	0.182172	-0.000010
C15	C	1.348599	-0.049245	0.000008
C16	C	1.345200	-0.190862	0.000007
C17	C	1.233331	-0.343345	-0.000009
C18	C	1.289268	-0.266136	-0.100907
C19	C	1.289280	-0.266185	0.100857
C20	C	1.395138	-0.365983	-0.101001
C21	C	1.395134	-0.366037	0.100853
C22	C	1.451149	-0.288879	-0.000069
C23	C	1.549661	0.176039	-0.000002
C24	C	1.675683	0.179433	-0.000010
C25	C	1.335846	0.417056	-0.000013
C26	C	1.339245	0.558674	-0.000020
N27	N	1.342208	0.183893	0.318827
N28	N	1.342245	0.183908	-0.318829
C29	C	1.342226	0.183908	0.569833
C30	C	1.342212	0.183904	0.430155
H31	H	1.244563	-0.222508	-0.186211
O32	O	1.123515	-0.372647	-0.000287
C33	C	1.104143	-0.445687	-0.105766
H34	H	1.188643	-0.494808	-0.140430
H35	H	1.063561	-0.380126	-0.180649
C36	C	0.919873	-0.487353	-0.030431
C37	C	1.023656	-0.547692	-0.073000
H38	H	0.870221	-0.550270	-0.010222
H39	H	0.932921	-0.438140	0.040630
H40	H	0.886069	-0.432720	-0.092840
H41	H	1.057465	-0.602310	-0.010586
H42	H	1.010612	-0.596916	-0.144050
H43	H	1.439825	-0.409411	-0.186400
O44	O	1.561035	-0.259822	-0.000078
C45	C	1.563046	-0.125655	0.000902
H46	H	1.479452	-0.078956	0.040224
H47	H	1.574351	-0.090093	-0.097042
C48	C	1.765565	-0.147578	0.032863
C49	C	1.662896	-0.090222	0.081170
H50	H	1.827160	-0.125720	0.082371
H51	H	1.764212	-0.237969	0.032199
H52	H	1.774970	-0.117937	-0.048755
H53	H	1.653486	-0.119876	0.162780
H54	H	1.664250	0.000165	0.081850
H55	H	1.439800	-0.409689	0.186161
O56	O	1.235762	-0.214327	0.202598
C57	C	1.121024	-0.241535	0.202196
H58	H	1.112073	-0.329773	0.143107
H59	H	1.065268	-0.156278	0.162836
C60	C	1.094091	-0.158855	0.407318
C61	C	1.083099	-0.267237	0.334752
H62	H	1.070694	-0.174704	0.489085
H63	H	1.171391	-0.140520	0.407589
H64	H	1.047627	-0.087818	0.374504
H65	H	1.129573	-0.338268	0.367558
H66	H	1.005805	-0.285586	0.334490
