data_functionalizedCrystal
_audit_creation_method	'MofGen! by Chris Wilmer'
_symmetry_space_group_name_H-M	'P1'
_symmetry_Int_Tables_number	1
_symmetry_cell_setting	triclinic
loop_
_symmetry_equiv_pos_as_xyz
  x,y,z
_cell_length_a	10.654556
_cell_length_b	10.654550
_cell_length_c	9.130313
_cell_angle_alpha	89.996647
_cell_angle_beta	89.998135
_cell_angle_gamma	84.486220
loop_
_atom_site_label
_atom_site_type_symbol
_atom_site_fract_x
_atom_site_fract_y
_atom_site_fract_z
O1	O	1.667835	0.176437	-0.121740
O2	O	1.302357	0.193235	-0.121755
O3	O	1.493499	0.002097	-0.121742
O4	O	1.476693	0.367575	-0.121753
O5	O	1.493486	0.002091	0.121857
O6	O	1.302344	0.193229	0.121844
O7	O	1.667822	0.176431	0.121859
Cu8	Cu	1.485082	0.184830	0.144094
Cu9	Cu	1.485097	0.184836	-0.143990
O10	O	1.476680	0.367569	0.121846
C11	C	1.255553	0.191997	0.000043
C12	C	1.116110	0.188302	0.000037
C13	C	0.919572	0.183102	-0.132737
C14	C	1.050594	0.186566	-0.132746
C15	C	1.050598	0.186560	0.132839
C16	C	0.919580	0.183087	0.132846
C17	C	1.492259	-0.044704	0.000056
C18	C	1.488567	-0.184147	0.000051
C19	C	1.601108	-0.263631	0.000060
C20	C	1.597631	-0.394651	0.000049
C21	C	1.369062	-0.366693	0.000027
C22	C	1.372540	-0.235675	0.000027
C23	C	1.733070	-0.279773	0.000079
C24	C	1.729594	-0.410794	0.000069
C25	C	1.714626	0.177669	0.000058
C26	C	1.854069	0.181364	0.000054
C27	C	1.477920	0.414370	0.000045
C28	C	1.481612	0.553813	0.000041
N29	N	1.485080	0.184824	0.346717
N30	N	1.485109	0.184832	-0.346612
C31	C	1.569746	0.100224	0.423374
C32	C	1.569758	0.100225	0.576711
C33	C	1.400433	0.269436	0.576719
C34	C	1.400416	0.269428	0.423385
H35	H	0.866246	0.181670	0.240987
H36	H	1.638683	0.031333	0.360954
H37	H	1.274597	-0.408663	0.000007
Br38	Br	1.285494	0.384241	0.319337
Br39	Br	1.285540	0.384254	0.680774
H40	H	1.280898	-0.170963	-0.000000
Br41	Br	1.684661	-0.014600	0.680744
H42	H	0.866237	0.181698	-0.240865
H43	H	1.779310	-0.452555	0.102014
H44	H	1.103921	0.187979	-0.240878
Br45	Br	1.139512	0.188909	0.313048
H46	H	1.784691	-0.250411	-0.101858
Br47	Br	1.803071	-0.220378	0.175400
H48	H	1.769480	-0.456434	-0.105109
