data_functionalizedCrystal
_audit_creation_method	'MofGen! by Chris Wilmer'
_symmetry_space_group_name_H-M	'P1'
_symmetry_Int_Tables_number	1
_symmetry_cell_setting	triclinic
loop_
_symmetry_equiv_pos_as_xyz
  x,y,z
_cell_length_a	21.295420
_cell_length_b	21.295416
_cell_length_c	13.033288
_cell_angle_alpha	82.809210
_cell_angle_beta	97.188379
_cell_angle_gamma	89.971418
loop_
_atom_site_label
_atom_site_type_symbol
_atom_site_fract_x
_atom_site_fract_y
_atom_site_fract_z
Zn1	Zn	1.007478	0.205539	0.590887
Zn2	Zn	0.994035	0.324151	0.416123
Zn3	Zn	0.888857	0.218895	0.416148
Zn4	Zn	0.902166	0.310776	0.590823
O5	O	0.948134	0.264840	0.503495
O6	O	1.093785	0.221282	0.567721
O7	O	0.968888	0.321375	0.269885
O8	O	0.904649	0.129031	0.439365
O9	O	1.083909	0.308425	0.439323
O10	O	0.991799	0.119219	0.567745
O11	O	0.891614	0.244044	0.269903
O12	O	0.802532	0.231075	0.439303
O13	O	0.927331	0.285630	0.737073
O14	O	0.812310	0.298580	0.567636
O15	O	1.004703	0.208313	0.737120
O16	O	0.981792	0.410469	0.439261
O17	O	0.914296	0.400643	0.567612
C18	C	0.784580	0.264826	0.503465
C19	C	0.714613	0.264833	0.503477
C20	C	0.220259	0.300069	0.570254
C21	C	0.286001	0.300070	0.570243
C22	C	0.313777	0.264852	0.503528
C23	C	0.275805	0.229643	0.436801
C24	C	0.210064	0.229648	0.436806
N25	N	0.416417	0.210336	0.495667
N26	N	0.478869	0.210332	0.495668
C27	C	0.511850	0.264836	0.503506
N28	N	0.480022	0.319343	0.511363
N29	N	0.417565	0.319346	0.511368
C30	C	0.385061	0.264843	0.503514
C31	C	0.621098	0.300048	0.570212
C32	C	0.686841	0.300050	0.570194
C33	C	0.676644	0.229617	0.436757
C34	C	0.610903	0.229620	0.436770
C35	C	0.583134	0.264835	0.503503
C36	C	0.948048	0.428396	0.503449
C37	C	0.948072	0.498363	0.503464
C38	C	0.983258	0.536320	0.436703
C39	C	0.983290	0.602060	0.436731
C40	C	0.948124	0.629842	0.503510
C41	C	0.912935	0.591876	0.570285
C42	C	0.912909	0.526136	0.570262
N43	N	0.893665	0.732498	0.511474
N44	N	0.893691	0.794948	0.511490
C45	C	0.948200	0.827911	0.503584
N46	N	1.002683	0.796065	0.495642
N47	N	1.002656	0.733610	0.495621
C48	C	0.948148	0.701124	0.503542
C49	C	0.983425	0.937151	0.436849
C50	C	0.983458	1.002892	0.436885
C51	C	0.913097	0.992707	0.570433
C52	C	0.913070	0.926967	0.570403
C53	C	0.948232	0.899193	0.503606
C54	C	1.112326	0.264856	0.503526
C55	C	1.182296	0.264862	0.503539
C56	C	0.969001	0.243990	0.776076
C57	C	0.977893	0.235104	0.892233
C58	C	0.948241	1.100644	0.503583
C59	C	0.948292	1.030669	0.503666
C60	C	0.952764	0.260218	1.064052
C61	C	0.943572	0.269402	0.943997
C62	C	0.927342	0.285625	1.231975
C63	C	0.918448	0.294511	1.115818
H64	H	0.598488	0.328722	0.624549
H65	H	0.717750	0.328725	0.624518
H66	H	1.012058	0.914537	0.382462
C67	C	1.022168	1.044646	0.363442
C68	C	0.988664	1.096170	0.281375
C69	C	1.027374	1.137924	0.207931
C70	C	1.099588	1.128154	0.216552
C71	C	1.133096	1.076629	0.298622
C72	C	1.094385	1.034874	0.372067
H73	H	0.935204	1.103403	0.274990
H74	H	1.002570	1.176067	0.147177
H75	H	1.128244	1.159063	0.162184
H76	H	1.186556	1.069395	0.305008
H77	H	1.119190	0.996732	0.432821
C78	C	0.707187	0.190877	0.363364
C79	C	0.755885	0.138017	0.408778
C80	C	0.786429	0.099278	0.335377
C81	C	0.768276	0.113400	0.216562
C82	C	0.719575	0.166263	0.171141
C83	C	0.689031	0.205002	0.244543
H84	H	0.769326	0.127560	0.496738
H85	H	0.822481	0.060145	0.369001
H86	H	0.790886	0.084724	0.162226
H87	H	0.706134	0.176720	0.083182
H88	H	0.652979	0.244135	0.210919
H89	H	0.316916	0.328740	0.624573
H90	H	0.884467	1.015326	0.624810
C91	C	0.874198	0.484380	0.643699
C92	C	0.821307	0.442713	0.598320
C93	C	0.782594	0.400956	0.671756
C94	C	0.796771	0.400866	0.790571
C95	C	0.849664	0.442534	0.835955
C96	C	0.888378	0.484291	0.762519
H97	H	0.810810	0.442779	0.510361
H98	H	0.743439	0.370110	0.638159
H99	H	0.768113	0.369954	0.844932
H100	H	0.860161	0.442468	0.923914
H101	H	0.927533	0.515137	0.796117
H102	H	0.298425	0.200969	0.382480
H103	H	0.197654	0.328746	0.624589
H104	H	0.179154	0.200977	0.382479
H105	H	1.014083	0.198945	0.936789
H106	H	0.579992	0.200948	0.382448
H107	H	1.011891	0.513708	0.382315
H108	H	0.884414	0.896060	0.624762
H109	H	1.011946	0.632970	0.382366
H110	H	0.884304	0.614500	0.624658
H111	H	0.988952	0.224062	1.108612
H112	H	0.907387	0.305565	0.899440
H113	H	0.882265	0.330672	1.071257
