data_functionalizedCrystal
_audit_creation_method	'MofGen! by Chris Wilmer'
_symmetry_space_group_name_H-M	'P1'
_symmetry_Int_Tables_number	1
_symmetry_cell_setting	triclinic
loop_
_symmetry_equiv_pos_as_xyz
  x,y,z
_cell_length_a	23.096457
_cell_length_b	23.096457
_cell_length_c	23.096457
_cell_angle_alpha	60.000151
_cell_angle_beta	89.998020
_cell_angle_gamma	60.000185
loop_
_atom_site_label
_atom_site_type_symbol
_atom_site_fract_x
_atom_site_fract_y
_atom_site_fract_z
Zr1	Zr	0.557780	0.633742	-0.075976
O2	O	0.465333	0.754530	-0.168419
O3	O	0.586117	0.512955	-0.047641
O4	O	0.586119	0.633746	-0.168429
O5	O	0.465333	0.633735	0.047651
O6	O	0.681399	0.633747	-0.168432
O7	O	0.465332	0.633739	-0.047632
O8	O	0.681397	0.417675	0.047634
O9	O	0.465335	0.849807	-0.168415
O10	O	0.669312	0.562637	-0.035555
O11	O	0.598207	0.562633	0.035556
O12	O	0.598208	0.704848	-0.106655
O13	O	0.527103	0.704844	-0.035544
Zr14	Zr	0.709743	0.633738	0.075984
Zr15	Zr	0.709741	0.633744	-0.075982
Zr16	Zr	0.557782	0.633736	0.075989
Zr17	Zr	0.557784	0.785699	-0.075970
Zr18	Zr	0.709739	0.481781	0.075977
O19	O	0.681405	0.754525	0.047648
O20	O	0.681402	0.754533	-0.168427
O21	O	0.465336	0.754521	0.047656
O22	O	0.802190	0.512950	0.168426
O23	O	0.802187	0.512959	-0.047649
O24	O	0.586120	0.512947	0.168434
O25	O	0.802190	0.633745	-0.047644
O26	O	0.681404	0.633734	0.168436
O27	O	0.586123	0.633732	0.168439
O28	O	0.802191	0.633741	0.047639
O29	O	0.586124	0.849810	-0.168419
O30	O	0.681398	0.417670	0.168427
O31	O	0.802187	0.417672	0.168422
O32	O	0.802186	0.417677	0.047630
O33	O	0.465337	0.849803	-0.047623
O34	O	0.586126	0.849805	-0.047627
O35	O	0.669314	0.562631	0.106662
O36	O	0.740420	0.562635	0.035551
O37	O	0.669316	0.704847	-0.035549
O38	O	0.598210	0.704843	0.035562
C39	C	0.633757	0.443664	-0.000004
C40	C	0.633755	0.379154	-0.000007
C41	C	0.670867	0.348856	-0.037129
C42	C	0.670873	0.288233	-0.037123
C43	C	0.633755	0.257924	-0.000005
C44	C	0.596642	0.288227	0.037125
C45	C	0.596642	0.348842	0.037124
N46	N	0.573351	0.195527	-0.005150
N47	N	0.573352	0.137947	-0.005153
C48	C	0.633754	0.075292	0.000001
N49	N	0.694154	0.072400	0.005145
N50	N	0.694151	0.129989	0.005144
C51	C	0.633751	0.192196	0.000000
C52	C	0.670877	-0.020741	-0.037116
C53	C	0.670886	-0.081369	-0.037105
C54	C	0.596647	-0.081368	0.037138
C55	C	0.596645	-0.020748	0.037132
C56	C	0.633758	0.009564	0.000001
C57	C	0.443681	0.633737	0.000011
C58	C	0.379170	0.633736	0.000013
C59	C	0.385979	0.559505	0.037120
C60	C	0.325364	0.559504	0.037123
C61	C	0.257939	0.633737	0.000005
C62	C	0.251132	0.707978	-0.037103
C63	C	0.311747	0.707977	-0.037099
N64	N	0.135144	0.688995	-0.060404
N65	N	0.077564	0.688991	-0.060407
C66	C	0.075306	0.633745	-0.000007
N67	N	0.132809	0.578491	0.060393
N68	N	0.190395	0.578492	0.060394
C69	C	0.192208	0.633747	-0.000003
C70	C	0.016392	0.559508	0.037106
C71	C	-0.044226	0.559510	0.037111
C72	C	-0.118458	0.707986	-0.037122
C73	C	-0.057840	0.707982	-0.037120
C74	C	0.009583	0.633741	-0.000008
C75	C	0.823842	0.633743	-0.000003
C76	C	0.888353	0.633744	-0.000006
C77	C	0.633759	0.633747	-0.190082
C78	C	0.633758	0.633750	-0.254595
C79	C	0.633766	0.823815	0.000012
C80	C	0.633768	0.888325	0.000014
C81	C	0.596656	0.707962	-0.752210
C82	C	0.596650	0.707967	-0.691597
C83	C	0.633766	0.633735	-0.624170
C84	C	0.670876	0.559493	-0.617360
C85	C	0.670875	0.559490	-0.677973
N86	N	0.694171	0.578483	-0.501376
N87	N	0.694170	0.578491	-0.443798
C88	C	0.633769	0.633738	-0.441543
N89	N	0.573370	0.688991	-0.499047
N90	N	0.573372	0.688986	-0.556632
C91	C	0.633771	0.633730	-0.558441
C92	C	0.596651	0.707981	-0.382634
C93	C	0.596643	0.707983	-0.322018
C94	C	0.670875	0.559506	-0.247781
C95	C	0.670877	0.559507	-0.308397
C96	C	0.633766	0.633746	-0.375821
C97	C	0.633764	0.633732	0.190089
C98	C	0.633765	0.633730	0.254603
C99	C	0.823837	0.443668	-0.000011
C100	C	0.888347	0.379159	-0.000017
C101	C	0.633759	0.443657	0.190081
C102	C	0.633758	0.379144	0.254592
C103	C	0.823839	0.443660	0.190074
C104	C	0.888350	0.379149	0.254583
C105	C	0.443683	0.823820	-0.190067
C106	C	0.379173	0.888331	-0.254575
C107	C	0.443686	0.823812	0.000019
C108	C	0.379176	0.888321	0.000024
C109	C	0.633764	0.823823	-0.190074
C110	C	0.633764	0.888335	-0.254585
C111	C	0.881524	0.348866	-0.037142
C112	C	0.942132	0.288261	-0.037161
C113	C	1.009562	0.257947	-0.000050
C114	C	1.016384	0.288246	0.037077
C115	C	0.955776	0.348853	0.037091
C116	C	0.670875	0.348848	0.322010
C117	C	0.670872	0.288240	0.382630
C118	C	0.633755	0.257926	0.375831
C119	C	0.596634	0.288228	0.308406
C120	C	0.596633	0.348839	0.247787
C121	C	0.955768	0.348856	0.247757
C122	C	1.016388	0.288249	0.308363
C123	C	1.009590	0.257932	0.375795
C124	C	0.942165	0.288231	0.382619
C125	C	0.881546	0.348841	0.322013
C126	C	0.311755	0.918632	-0.247750
C127	C	0.251134	0.979257	-0.308356
C128	C	0.257933	1.009577	-0.375788
C129	C	0.325358	0.979274	-0.382612
C130	C	0.385977	0.918654	-0.322006
C131	C	0.385999	0.918620	0.037143
C132	C	0.325391	0.979242	0.037145
C133	C	0.257960	1.009558	0.000032
C134	C	0.251139	0.979256	-0.037092
C135	C	0.311746	0.918640	-0.037098
C136	C	0.670888	0.918630	-0.247763
C137	C	0.670903	0.979239	-0.308372
C138	C	0.633789	1.009555	-0.375802
C139	C	0.596664	0.979254	-0.382622
C140	C	0.596654	0.918643	-0.322014
H141	H	0.701095	0.263559	-0.067353
H142	H	0.566429	0.768431	-0.437534
H143	H	0.701099	0.003937	-0.067348
H144	H	0.566420	0.263544	0.067347
H145	H	0.566420	0.893983	-0.327578
H146	H	0.306205	0.893948	-0.192849
H147	H	0.701088	0.373532	-0.067361
H148	H	0.701098	0.499059	-0.302847
H149	H	0.440870	0.893984	-0.327572
F150	F	0.179383	1.011495	-0.301079
H151	H	0.701111	0.893956	-0.192864
H152	H	1.058907	0.208596	-0.000067
F153	F	0.332666	1.011478	0.076661
H154	H	0.566419	0.373512	0.067353
H155	H	0.701133	1.003903	-0.302805
F156	F	0.304496	0.786987	-0.076595
F157	F	0.332583	1.011550	-0.454383
H158	H	1.071283	0.263585	0.302794
F159	F	0.710373	0.480478	-0.670719
H160	H	-0.063388	0.768429	-0.067341
H161	H	0.701094	0.499053	-0.562457
F162	F	1.088154	0.255973	0.076572
H163	H	0.701103	0.263575	0.437524
H164	H	0.566447	1.003947	-0.437531
H165	H	0.961342	0.373510	0.067327
H166	H	0.566422	0.003924	0.067358
F167	F	0.710385	-0.113613	-0.076620
F168	F	0.633804	1.074065	-0.440301
H169	H	0.826653	0.373498	0.327581
F170	F	0.710385	0.381097	0.329262
H171	H	0.208567	1.058938	-0.425131
H172	H	0.961317	0.373531	0.192856
H173	H	0.566425	-0.106046	0.067361
H174	H	0.440874	0.499052	0.067335
H175	H	0.330909	0.499054	0.067340
F176	F	0.557134	0.255957	0.301181
F177	F	0.179372	0.786983	-0.076603
H178	H	0.071291	0.499056	0.067340
F179	F	-0.036973	0.480499	0.076615
F180	F	0.633762	0.193417	0.440354
F181	F	0.457758	0.886368	0.076645
H182	H	-0.173356	0.768429	-0.067344
H183	H	0.566437	0.768414	-0.807106
F184	F	0.934857	0.256023	-0.076675
F185	F	0.557162	0.786978	-0.698845
H186	H	0.826624	0.373547	-0.067371
F187	F	0.557129	0.381073	0.176038
F188	F	0.934940	0.255957	0.454391
F189	F	0.179369	1.011528	-0.076586
H190	H	1.058955	0.208579	0.425138
F191	F	0.710372	0.480502	-0.176025
F192	F	0.193462	1.074071	0.000045
F193	F	0.557130	0.786995	-0.329273
F194	F	0.304474	0.886395	-0.076603
