data_functionalizedCrystal
_audit_creation_method	'MofGen! by Chris Wilmer'
_symmetry_space_group_name_H-M	'P1'
_symmetry_Int_Tables_number	1
_symmetry_cell_setting	triclinic
loop_
_symmetry_equiv_pos_as_xyz
  x,y,z
_cell_length_a	14.519731
_cell_length_b	14.519709
_cell_length_c	13.330367
_cell_angle_alpha	89.999019
_cell_angle_beta	89.989571
_cell_angle_gamma	83.684499
loop_
_atom_site_label
_atom_site_type_symbol
_atom_site_fract_x
_atom_site_fract_y
_atom_site_fract_z
O1	O	1.223836	0.120978	0.083428
O2	O	1.723836	0.620978	0.583428
O3	O	0.955362	0.135194	0.083430
O4	O	1.455362	0.635194	0.583430
O5	O	1.096717	-0.006152	0.083420
O6	O	1.596717	0.493848	0.583420
O7	O	1.082481	0.262324	0.083438
O8	O	1.582481	0.762324	0.583438
O9	O	1.096744	-0.006143	-0.083427
O10	O	1.596744	0.493857	0.416573
O11	O	0.955388	0.135203	-0.083417
O12	O	1.455388	0.635203	0.416583
O13	O	1.223862	0.120987	-0.083419
O14	O	1.723862	0.620987	0.416581
Cu15	Cu	1.089628	0.128096	-0.098653
Cu16	Cu	1.589628	0.628096	0.401347
Cu17	Cu	1.089597	0.128085	0.098663
Cu18	Cu	1.589597	0.628085	0.598663
O19	O	1.082507	0.262333	-0.083409
O20	O	1.582507	0.762333	0.416591
C21	C	0.921016	0.134532	0.000006
C22	C	1.421016	0.634532	0.500006
C23	C	0.818635	0.132536	0.000007
C24	C	1.318635	0.632536	0.500007
C25	C	0.735491	0.130915	0.000011
C26	C	1.235491	0.630915	0.500011
C27	C	0.631182	0.128888	0.000011
C28	C	1.131182	0.628888	0.500011
C29	C	0.548043	0.127280	0.000011
C30	C	1.048043	0.627280	0.500011
C31	C	0.443728	0.125253	0.000013
C32	C	0.943728	0.625253	0.500013
C33	C	1.096067	-0.040507	-0.000004
C34	C	1.596067	0.459493	0.499996
C35	C	1.094079	-0.142889	-0.000005
C36	C	1.594079	0.357111	0.499995
C37	C	1.086759	-0.517785	0.000022
C38	C	1.586759	-0.017785	0.500022
C39	C	1.088792	-0.413477	0.000014
C40	C	1.588792	0.086523	0.500014
C41	C	1.090419	-0.330340	0.000008
C42	C	1.590419	0.169660	0.500008
C43	C	1.092452	-0.226025	0.000002
C44	C	1.592452	0.273975	0.500002
C45	C	1.258209	0.121649	0.000006
C46	C	1.758209	0.621649	0.500006
C47	C	1.360589	0.123645	0.000013
C48	C	1.860589	0.623645	0.500013
C49	C	1.083157	0.296688	0.000017
C50	C	1.583157	0.796688	0.500017
C51	C	1.085146	0.399070	0.000024
C52	C	1.585146	0.899070	0.500024
N53	N	1.089575	0.128071	0.237445
N54	N	1.589575	0.628071	0.737445
N55	N	1.089656	0.128103	-0.237434
N56	N	1.589656	0.628103	0.262566
C57	C	1.026935	0.190562	0.710072
C58	C	1.526935	0.690562	1.210072
C59	C	1.152360	0.065638	0.710031
C60	C	1.652360	0.565638	1.210031
C61	C	1.152346	0.065632	0.605013
C62	C	1.652346	0.565632	1.105013
C63	C	1.089625	0.128090	0.552519
C64	C	1.589625	0.628090	1.052519
C65	C	1.026917	0.190555	0.605044
C66	C	1.526917	0.690555	1.105044
C67	C	1.215046	0.003162	0.552480
C68	C	1.715046	0.503162	1.052480
C69	C	1.215034	0.003152	0.447456
C70	C	1.715034	0.503152	0.947456
C71	C	1.152316	0.065616	0.394960
C72	C	1.652316	0.565616	0.894960
C73	C	1.089607	0.128084	0.447491
C74	C	1.589607	0.628084	0.947491
C75	C	1.026886	0.190542	0.394997
C76	C	1.526886	0.690542	0.894997
C77	C	0.964180	0.253015	0.447527
C78	C	1.464180	0.753015	0.947527
C79	C	0.964200	0.253019	0.552548
C80	C	1.464200	0.753019	1.052548
C81	C	1.152296	0.065612	0.289938
C82	C	1.652296	0.565612	0.789938
C83	C	1.026868	0.190536	0.289969
C84	C	1.526868	0.690536	0.789969
H85	H	0.975796	0.241400	0.247235
H86	H	1.475796	0.741400	0.747235
N87	N	0.896525	0.320373	0.390905
N88	N	1.396525	0.820373	0.890905
H89	H	0.906030	0.310881	0.316405
H90	H	1.406030	0.810881	0.816405
H91	H	0.907158	0.385860	0.409239
H92	H	1.407158	0.885860	0.909239
N93	N	1.219914	-0.001765	0.233281
N94	N	1.719914	0.498235	0.733281
H95	H	1.259646	-0.041334	0.282472
H96	H	1.759646	0.458666	0.782472
H97	H	1.260659	0.033716	0.189688
H98	H	1.760659	0.533716	0.689688
H99	H	1.266107	-0.047695	0.595224
H100	H	1.766107	0.452305	1.095224
H101	H	0.913147	0.303881	0.595324
H102	H	1.413147	0.803881	1.095324
N103	N	0.959308	0.257943	0.766719
N104	N	1.459308	0.757943	1.266719
H105	H	0.968833	0.248476	0.841216
H106	H	1.468833	0.748476	1.341216
H107	H	0.893903	0.247009	0.748390
H108	H	1.393903	0.747009	1.248390
H109	H	1.203421	0.014782	0.752775
H110	H	1.703421	0.514782	1.252775
H111	H	1.266092	-0.047716	0.404693
H112	H	1.766092	0.452284	0.904693
