data_functionalizedCrystal
_audit_creation_method	'MofGen! by Chris Wilmer'
_symmetry_space_group_name_H-M	'P1'
_symmetry_Int_Tables_number	1
_symmetry_cell_setting	triclinic
loop_
_symmetry_equiv_pos_as_xyz
  x,y,z
_cell_length_a	16.625547
_cell_length_b	21.295417
_cell_length_c	16.625539
_cell_angle_alpha	90.033373
_cell_angle_beta	90.024822
_cell_angle_gamma	90.030443
loop_
_atom_site_label
_atom_site_type_symbol
_atom_site_fract_x
_atom_site_fract_y
_atom_site_fract_z
Zn1	Zn	1.232635	-0.250609	0.455972
Zn2	Zn	1.232520	-0.355882	0.321128
Zn3	Zn	1.097797	-0.250631	0.321143
Zn4	Zn	1.097749	-0.355844	0.455908
O5	O	1.165175	-0.303242	0.388538
O6	O	1.345452	-0.264581	0.438106
O7	O	1.214620	-0.341946	0.208297
O8	O	1.115753	-0.162539	0.339062
O9	O	1.345367	-0.341925	0.339036
O10	O	1.214818	-0.162523	0.438121
O11	O	1.115640	-0.264618	0.208308
O12	O	0.984958	-0.264581	0.338999
O13	O	1.115670	-0.341859	0.568749
O14	O	0.984923	-0.341881	0.438010
O15	O	1.214771	-0.264544	0.568796
O16	O	1.214573	-0.443967	0.338973
O17	O	1.115558	-0.443939	0.437995
C18	C	0.955684	-0.303229	0.388500
C19	C	0.866063	-0.303239	0.388502
C20	C	0.793281	-0.303241	0.388512
C21	C	0.701972	-0.303244	0.388533
C22	C	0.629196	-0.303250	0.388553
C23	C	0.537882	-0.303254	0.388572
C24	C	1.165070	-0.466793	0.388493
C25	C	1.165098	-0.536761	0.388501
C26	C	1.216701	-0.569622	0.336993
C27	C	1.216739	-0.635364	0.337011
C28	C	1.165159	-0.668244	0.388529
C29	C	1.113552	-0.635376	0.440047
C30	C	1.113522	-0.569634	0.440033
N31	N	1.094624	-0.771510	0.394663
N32	N	1.094656	-0.833961	0.394671
C33	C	1.165250	-0.866319	0.388575
N34	N	1.235813	-0.833866	0.382454
N35	N	1.235780	-0.771408	0.382441
C36	C	1.165187	-0.739529	0.388550
C37	C	1.216898	-0.970465	0.337084
C38	C	1.216937	-1.036208	0.337108
C39	C	1.113743	-1.036218	0.440139
C40	C	1.113712	-0.970476	0.440120
C41	C	1.165288	-0.937603	0.388588
C42	C	1.375484	-0.303254	0.388576
C43	C	1.465105	-0.303260	0.388593
C44	C	1.165228	-0.303195	0.598847
C45	C	1.165250	-0.303175	0.688468
C46	C	1.165303	-0.139051	0.388600
C47	C	1.165358	-0.069083	0.388627
C48	C	1.165169	-0.303243	0.179047
C49	C	1.165303	-0.303086	0.089426
C50	C	1.165287	-0.303104	1.016644
C51	C	1.165275	-0.303126	0.925335
C52	C	1.165269	-0.303140	0.852559
C53	C	1.165256	-0.303161	0.761244
H54	H	1.258700	-0.542859	0.295035
F55	F	1.058852	-1.071207	0.494973
F56	F	1.058661	-0.670369	0.494878
F57	F	1.058784	-0.935502	0.494939
H58	H	1.071500	-0.542879	0.481978
F59	F	1.271789	-0.935476	0.282239
H60	H	1.258764	-0.662124	0.295067
F61	F	1.271869	-1.071180	0.282288
