data_functionalizedCrystal
_audit_creation_method	'MofGen! by Chris Wilmer'
_symmetry_space_group_name_H-M	'P1'
_symmetry_Int_Tables_number	1
_symmetry_cell_setting	triclinic
loop_
_symmetry_equiv_pos_as_xyz
  x,y,z
_cell_length_a	14.044191
_cell_length_b	27.731996
_cell_length_c	12.503572
_cell_angle_alpha	93.487301
_cell_angle_beta	86.162165
_cell_angle_gamma	87.906582
loop_
_atom_site_label
_atom_site_type_symbol
_atom_site_fract_x
_atom_site_fract_y
_atom_site_fract_z
O1	O	1.261462	0.113918	-0.089295
O2	O	1.761462	0.613918	0.410705
O3	O	0.985557	0.109712	-0.089307
O4	O	1.485557	0.609712	0.410693
O5	O	1.132103	0.041821	-0.089277
O6	O	1.632103	0.541821	0.410723
O7	O	1.114916	0.181809	-0.089325
O8	O	1.614916	0.681809	0.410675
O9	O	1.121082	0.046936	0.089362
O10	O	1.621082	0.546936	0.589362
O11	O	0.974535	0.114827	0.089332
O12	O	1.474535	0.614827	0.589332
O13	O	1.250441	0.119033	0.089345
O14	O	1.750441	0.619033	0.589345
Cu15	Cu	1.111482	0.117397	0.105650
Cu16	Cu	1.611482	0.617397	0.605650
Cu17	Cu	1.124516	0.111348	-0.105612
Cu18	Cu	1.624516	0.611348	0.394388
O19	O	1.103895	0.186924	0.089315
O20	O	1.603895	0.686924	0.589315
C21	C	0.944759	0.110429	0.000011
C22	C	1.444759	0.610429	0.500011
C23	C	0.839616	0.104941	0.000008
C24	C	1.339616	0.604941	0.500008
C25	C	0.588896	0.133832	0.000009
C26	C	1.088896	0.633832	0.500009
C27	C	0.647108	0.094915	0.000020
C28	C	1.147108	0.594915	0.500020
C29	C	0.754229	0.100494	0.000013
C30	C	1.254229	0.600494	0.500013
C31	C	0.481765	0.128253	0.000015
C32	C	0.981765	0.628253	0.500015
C33	C	1.126239	0.026354	0.000046
C34	C	1.626239	0.526354	0.500046
C35	C	1.125175	-0.027352	0.000057
C36	C	1.625175	0.472648	0.500057
C37	C	1.124494	-0.363172	-0.097372
C38	C	1.624494	0.136828	0.402628
C39	C	1.120456	-0.565020	-0.097391
C40	C	1.620456	-0.065020	0.402609
O41	O	1.125003	-0.593489	-0.180207
O42	O	1.625003	-0.093489	0.319793
N43	N	1.113947	-0.587473	-0.000016
N44	N	1.613947	-0.087473	0.499984
C45	C	1.108441	-0.559460	0.097372
C46	C	1.608441	-0.059460	0.597372
O47	O	1.102802	-0.583188	0.180195
O48	O	1.602802	-0.083188	0.680195
C49	C	1.112472	-0.357612	0.097390
C50	C	1.612472	0.142388	0.597390
C51	C	1.118991	-0.335163	0.000008
C52	C	1.618991	0.164837	0.500008
C53	C	1.131012	-0.340722	-0.194746
C54	C	1.631012	0.159278	0.305254
C55	C	1.132026	-0.290263	-0.194740
C56	C	1.632026	0.209737	0.305260
C57	C	1.126523	-0.262254	-0.097361
C58	C	1.626523	0.237746	0.402639
C59	C	1.120005	-0.284704	0.000013
C60	C	1.620005	0.215296	0.500013
C61	C	1.106958	-0.329600	0.194776
C62	C	1.606958	0.170400	0.694776
C63	C	1.107964	-0.279135	0.194771
C64	C	1.607964	0.220865	0.694771
C65	C	1.114483	-0.256685	0.097390
C66	C	1.614483	0.243315	0.597390
C67	C	1.115517	-0.206235	0.097399
C68	C	1.615517	0.293765	0.597399
N69	N	1.122026	-0.183783	0.000023
N70	N	1.622026	0.316217	0.500023
C71	C	1.127529	-0.211792	-0.097356
C72	C	1.627529	0.288208	0.402644
C73	C	1.106327	-0.665433	0.097355
C74	C	1.606327	-0.165433	0.597355
C75	C	1.105321	-0.715894	0.097351
C76	C	1.605321	-0.215894	0.597351
C77	C	1.117335	-0.721451	-0.097412
C78	C	1.617335	-0.221451	0.402588
C79	C	1.118347	-0.670989	-0.097407
C80	C	1.618347	-0.170989	0.402593
C81	C	1.112836	-0.642980	-0.000020
C82	C	1.612836	-0.142980	0.499980
C83	C	1.129660	-0.105824	-0.097337
C84	C	1.629660	0.394176	0.402663
C85	C	1.130678	-0.055361	-0.097323
C86	C	1.630678	0.444639	0.402677
C87	C	1.118659	-0.049808	0.097440
C88	C	1.618659	0.450192	0.597440
C89	C	1.117646	-0.100267	0.097426
C90	C	1.617646	0.399733	0.597426
C91	C	1.123144	-0.128275	0.000029
C92	C	1.623144	0.371725	0.500029
O93	O	1.110963	-0.177737	0.180171
O94	O	1.610963	0.322263	0.680171
O95	O	1.133146	-0.188054	-0.180168
O96	O	1.633146	0.311946	0.319832
C97	C	1.123480	-0.413631	-0.097378
C98	C	1.623480	0.086369	0.402622
C99	C	1.116962	-0.436081	-0.000004
C100	C	1.616962	0.063919	0.499996
C101	C	1.111459	-0.408071	0.097376
C102	C	1.611459	0.091929	0.597376
C103	C	1.115956	-0.486542	-0.000008
C104	C	1.615956	0.013458	0.499992
C105	C	1.121459	-0.514551	-0.097388
C106	C	1.621459	-0.014551	0.402612
C107	C	1.127968	-0.492099	-0.194763
C108	C	1.627968	0.007901	0.305237
C109	C	1.128983	-0.441640	-0.194758
C110	C	1.628983	0.058360	0.305242
C111	C	1.104949	-0.430524	0.194751
C112	C	1.604949	0.069476	0.694751
C113	C	1.103936	-0.480983	0.194738
C114	C	1.603936	0.019017	0.694738
C115	C	1.109440	-0.508992	0.097358
C116	C	1.609440	-0.008992	0.597358
C117	C	1.291239	0.118316	0.000024
C118	C	1.791239	0.618316	0.500024
C119	C	1.396382	0.123804	0.000021
C120	C	1.896382	0.623804	0.500021
C121	C	1.109759	0.202391	-0.000011
C122	C	1.609759	0.702391	0.499989
C123	C	1.110824	0.256096	-0.000029
C124	C	1.610824	0.756096	0.499971
N125	N	1.102322	0.121652	0.254240
N126	N	1.602322	0.621652	0.754240
N127	N	1.133684	0.107090	-0.254203
N128	N	1.633684	0.607090	0.245797
C129	C	1.088846	0.127915	0.473353
C130	C	1.588846	0.627915	0.973353
C131	C	1.147156	0.100828	0.526692
C132	C	1.647156	0.600828	1.026692
C133	C	1.139658	0.104313	0.648614
C134	C	1.639658	0.604313	1.148614
C135	C	1.096343	0.124430	0.351420
C136	C	1.596343	0.624430	0.851420
H137	H	0.619507	0.171338	-0.000007
H138	H	1.119507	0.671338	0.499993
Cl139	Cl	1.233284	0.061186	0.455830
Cl140	Cl	1.733284	0.561186	0.955830
Cl141	Cl	1.003085	0.167757	0.544215
Cl142	Cl	1.503085	0.667757	1.044215
H143	H	0.616500	0.057403	-0.000043
H144	H	1.116500	0.557403	0.499957
Cl145	Cl	1.138876	-0.027142	-0.219755
Cl146	Cl	1.638876	0.472858	0.280245
H147	H	1.134132	-0.128622	-0.176647
H148	H	1.634132	0.371378	0.323353
H149	H	1.137331	-0.271989	-0.274039
H150	H	1.637331	0.228011	0.225961
Cl151	Cl	1.095745	-0.509199	0.317174
Cl152	Cl	1.595745	-0.009199	0.817174
H153	H	1.135490	-0.363522	-0.274049
H154	H	1.635490	0.136478	0.225951
H155	H	1.123655	-0.652714	-0.176704
H156	H	1.623655	-0.152714	0.323296
H157	H	1.121816	-0.744265	-0.176703
H158	H	1.621816	-0.244265	0.323297
Cl159	Cl	1.099392	-0.630228	0.219797
Cl160	Cl	1.599392	-0.130228	0.719797
Cl161	Cl	1.097143	-0.744111	0.219779
Cl162	Cl	1.597143	-0.244111	0.719779
H163	H	1.101651	-0.347869	0.274075
H164	H	1.601651	0.152131	0.774075
H165	H	1.103462	-0.256332	0.274077
H166	H	1.603462	0.243668	0.774077
H167	H	1.112346	-0.118547	0.176722
H168	H	1.612346	0.381453	0.676722
H169	H	1.114183	-0.026994	0.176724
H170	H	1.614183	0.473006	0.676724
Cl171	Cl	1.134891	-0.527320	-0.317182
Cl172	Cl	1.634891	-0.027320	0.182818
Cl173	Cl	1.137177	-0.413425	-0.317188
Cl174	Cl	1.637177	0.086575	0.182812
H175	H	1.100469	-0.407723	0.274051
H176	H	1.600469	0.092277	0.774051
