data_functionalizedCrystal
_audit_creation_method	'MofGen! by Chris Wilmer'
_symmetry_space_group_name_H-M	'P1'
_symmetry_Int_Tables_number	1
_symmetry_cell_setting	triclinic
loop_
_symmetry_equiv_pos_as_xyz
  x,y,z
_cell_length_a	16.120484
_cell_length_b	25.639242
_cell_length_c	16.120256
_cell_angle_alpha	92.869764
_cell_angle_beta	95.616173
_cell_angle_gamma	92.921537
loop_
_atom_site_label
_atom_site_type_symbol
_atom_site_fract_x
_atom_site_fract_y
_atom_site_fract_z
Zn1	Zn	-0.356869	0.772385	-0.489652
Zn2	Zn	0.143131	1.272385	0.010348
Zn3	Zn	-0.489555	0.772320	-0.356962
Zn4	Zn	0.010445	1.272320	0.143038
Zn5	Zn	-0.349789	0.689622	-0.349877
Zn6	Zn	0.150211	1.189622	0.150123
Zn7	Zn	-0.496587	0.680261	-0.496662
Zn8	Zn	0.003413	1.180261	0.003338
O9	O	-0.423200	0.728647	-0.423288
O10	O	0.076800	1.228647	0.076712
O11	O	-0.374490	0.845540	-0.472082
O12	O	0.125510	1.345540	0.027918
O13	O	-0.465108	0.765240	-0.239061
O14	O	0.034892	1.265240	0.260939
O15	O	-0.233764	0.704546	-0.362519
O16	O	0.266236	1.204546	0.137481
O17	O	-0.471973	0.845492	-0.374595
O18	O	0.028027	1.345492	0.125405
O19	O	-0.238965	0.765352	-0.465212
O20	O	0.261035	1.265352	0.034788
O21	O	-0.362423	0.704483	-0.233855
O22	O	0.137577	1.204483	0.266145
O23	O	-0.369243	0.615217	-0.369316
O24	O	0.130757	1.115217	0.130684
O25	O	-0.483960	0.688591	-0.612694
O26	O	0.016040	1.188591	-0.112694
O27	O	-0.477095	0.608339	-0.477159
O28	O	0.022905	1.108339	0.022841
O29	O	-0.381309	0.756275	-0.607544
O30	O	0.118691	1.256275	-0.107544
O31	O	-0.607452	0.756163	-0.381392
O32	O	-0.107452	1.256163	0.118608
O33	O	-0.612619	0.688528	-0.484029
O34	O	-0.112619	1.188528	0.015971
C35	C	-0.423164	0.592808	-0.423230
C36	C	0.076836	1.092808	0.076770
C37	C	-0.423170	0.534693	-0.423226
C38	C	0.076830	1.034693	0.076774
C39	C	-0.640365	0.721336	-0.434259
C40	C	-0.140365	1.221336	0.065741
C41	C	-0.733270	0.718255	-0.438980
C42	C	-0.233270	1.218255	0.061020
C43	C	-0.479445	0.170754	-0.479396
C44	C	0.020555	0.670754	0.020604
C45	C	-0.479451	0.116149	-0.479409
C46	C	0.020549	0.616149	0.020591
O47	O	-0.527255	0.084874	-0.527117
O48	O	-0.027255	0.584874	-0.027117
N49	N	-0.423226	0.092405	-0.423344
N50	N	0.076774	0.592405	0.076656
C51	C	-0.366986	0.123270	-0.367267
C52	C	0.133014	0.623270	0.132733
O53	O	-0.319162	0.098060	-0.319581
O54	O	0.180838	0.598060	0.180419
C55	C	-0.366976	0.177874	-0.367258
C56	C	0.133024	0.677874	0.132742
C57	C	-0.423211	0.201614	-0.423322
C58	C	0.076789	0.701614	0.076678
C59	C	-0.535675	0.194495	-0.535455
C60	C	-0.035675	0.694495	-0.035455
C61	C	-0.535670	0.249096	-0.535440
C62	C	-0.035670	0.749096	-0.035440
C63	C	-0.479435	0.279956	-0.479366
C64	C	0.020565	0.779956	0.020634
C65	C	-0.423206	0.256215	-0.423307
C66	C	0.076794	0.756215	0.076693
C67	C	-0.310733	0.208737	-0.311186
C68	C	0.189267	0.708737	0.188814
C69	C	-0.310728	0.263345	-0.311183
C70	C	0.189272	0.763345	0.188817
C71	C	-0.366963	0.287085	-0.367246
C72	C	0.133037	0.787085	0.132754
C73	C	-0.366967	0.341677	-0.367218
C74	C	0.133033	0.841677	0.132782
N75	N	-0.423192	0.365421	-0.423283
N76	N	0.076808	0.865421	0.076717
C77	C	-0.479426	0.334560	-0.479357
C78	C	0.020574	0.834560	0.020643
C79	C	-0.367008	0.008598	-0.367291
C80	C	0.132992	0.508598	0.132709
C81	C	-0.367020	-0.046005	-0.367295
C82	C	0.132980	0.453995	0.132705
C83	C	-0.479485	-0.053122	-0.479438
C84	C	0.020515	0.446878	0.020562
C85	C	-0.479476	0.001482	-0.479430
C86	C	0.020524	0.501482	0.020570
C87	C	-0.423233	0.032341	-0.423356
C88	C	0.076767	0.532341	0.076644
C89	C	-0.479412	0.449227	-0.479322
C90	C	0.020588	0.949227	0.020678
C91	C	-0.479405	0.503833	-0.479300
C92	C	0.020595	1.003833	0.020700
C93	C	-0.366937	0.510946	-0.367160
C94	C	0.133063	1.010946	0.132840
C95	C	-0.366947	0.456344	-0.367179
C96	C	0.133053	0.956344	0.132821
C97	C	-0.423188	0.425486	-0.423267
C98	C	0.076812	0.925486	0.076733
O99	O	-0.319185	0.372985	-0.319537
O100	O	0.180815	0.872985	0.180463
O101	O	-0.527235	0.359777	-0.527043
O102	O	-0.027235	0.859777	-0.027043
C103	C	-0.903369	0.712632	-0.447616
C104	C	-0.403369	1.212632	0.052384
C105	C	-0.942191	0.744755	-0.398974
C106	C	-0.442191	1.244755	0.101026
C107	C	-1.036840	0.741627	-0.403779
C108	C	-0.536840	1.241627	0.096221
C109	C	-0.808712	0.715760	-0.442812
C110	C	-0.308712	1.215760	0.057188
C111	C	-0.205189	0.736001	-0.412293
C112	C	0.294811	1.236001	0.087707
C113	C	-0.112285	0.739134	-0.407608
C114	C	0.387715	1.239134	0.092392
C115	C	-0.434209	0.721396	-0.641293
C116	C	0.065791	1.221396	-0.141293
C117	C	-0.438900	0.718306	-0.734194
C118	C	0.061100	1.218306	-0.234194
C119	C	-0.423237	0.865017	-0.423347
C120	C	0.076763	1.365017	0.076653
C121	C	-0.423252	0.923130	-0.423372
C122	C	0.076748	1.423130	0.076628
C123	C	-0.398715	0.744761	-0.943127
C124	C	0.101285	1.244761	-0.443127
C125	C	-0.447430	0.712648	-0.904278
C126	C	0.052570	1.212648	-0.404278
C127	C	-0.442682	0.715797	-0.809634
C128	C	0.057318	1.215797	-0.309634
C129	C	-0.403461	0.741612	-1.037779
C130	C	0.096539	1.241612	-0.537779
C131	C	-0.412174	0.735902	-0.206128
C132	C	0.087826	1.235902	0.293872
C133	C	-0.407248	0.739101	-0.113216
C134	C	0.092752	1.239101	0.386784
H135	H	-0.525207	0.424108	-0.524996
H136	H	-0.025207	0.924108	-0.024996
H137	H	-0.492697	0.682788	-0.942097
H138	H	0.007303	1.182788	-0.442097
H139	H	-0.353447	0.774616	-0.905310
H140	H	0.146553	1.274616	-0.405310
C141	C	-0.597539	0.160556	-0.597141
C142	C	-0.097539	0.660556	-0.097141
H143	H	-0.631024	0.182523	-0.630517
H144	H	-0.131024	0.682523	-0.130517
H145	H	-0.567478	0.139120	-0.632008
H146	H	-0.067478	0.639120	-0.132008
H147	H	-0.632302	0.139095	-0.566947
H148	H	-0.132302	0.639095	-0.066947
C149	C	-0.541340	-0.087073	-0.541125
C150	C	-0.041340	0.412927	-0.041125
H151	H	-0.574834	-0.065117	-0.574513
H152	H	-0.074834	0.434883	-0.074513
H153	H	-0.511263	-0.108507	-0.575982
H154	H	-0.011263	0.391493	-0.075982
H155	H	-0.576095	-0.108538	-0.510928
H156	H	-0.076095	0.391462	-0.010928
C157	C	-0.541261	0.529944	-0.540975
C158	C	-0.041261	1.029944	-0.040975
H159	H	-0.574745	0.503741	-0.574378
H160	H	-0.074745	1.003741	-0.074378
H161	H	-0.576013	0.551081	-0.510780
H162	H	-0.076013	1.051081	-0.010780
H163	H	-0.511178	0.551113	-0.575831
H164	H	-0.011178	1.051113	-0.075831
C165	C	-0.305094	0.430228	-0.305509
C166	C	0.194906	0.930228	0.194491
H167	H	-0.271600	0.456430	-0.272114
H168	H	0.228400	0.956430	0.227886
H169	H	-0.335164	0.409054	-0.270657
H170	H	0.164836	0.909054	0.229343
H171	H	-0.270340	0.409097	-0.335718
H172	H	0.229660	0.909097	0.164282
H173	H	-0.321155	0.536082	-0.321503
H174	H	0.178845	1.036082	0.178497
C175	C	-0.597519	0.275203	-0.597120
C176	C	-0.097519	0.775203	-0.097120
H177	H	-0.630999	0.248997	-0.630519
H178	H	-0.130999	0.748997	-0.130519
H179	H	-0.632274	0.296342	-0.566933
H180	H	-0.132274	0.796342	-0.066933
H181	H	-0.567433	0.296369	-0.631978
H182	H	-0.067433	0.796369	-0.131978
C183	C	-0.305168	-0.072114	-0.305621
C184	C	0.194832	0.427886	0.194379
H185	H	-0.271675	-0.045909	-0.272230
H186	H	0.228325	0.454091	0.227770
H187	H	-0.335239	-0.093284	-0.270766
H188	H	0.164761	0.406716	0.229234
H189	H	-0.270412	-0.093247	-0.335824
H190	H	0.229588	0.406753	0.164176
C191	C	-0.541327	0.027591	-0.541104
C192	C	-0.041327	0.527591	-0.041104
H193	H	-0.574813	0.001387	-0.574501
H194	H	-0.074813	0.501387	-0.074501
H195	H	-0.576077	0.048731	-0.510913
H196	H	-0.076077	0.548731	-0.010913
H197	H	-0.511243	0.048756	-0.575965
H198	H	-0.011243	0.548756	-0.075965
H199	H	-0.264942	0.189418	-0.265532
H200	H	0.235058	0.689418	0.234468
C201	C	-0.305146	0.042539	-0.305597
C202	C	0.194854	0.542539	0.194403
H203	H	-0.271671	0.020574	-0.272207
H204	H	0.228329	0.520574	0.227793
H205	H	-0.270386	0.064005	-0.335780
H206	H	0.229614	0.564005	0.164220
H207	H	-0.335223	0.063971	-0.270730
H208	H	0.164777	0.563971	0.229270
C209	C	-0.248859	0.297287	-0.249501
C210	C	0.251141	0.797287	0.250499
H211	H	-0.215376	0.275324	-0.216114
H212	H	0.284624	0.775324	0.283886
H213	H	-0.214106	0.318753	-0.279692
H214	H	0.285894	0.818753	0.220308
H215	H	-0.278931	0.318719	-0.214631
H216	H	0.221069	0.818719	0.285369
C217	C	-0.891072	0.785079	-0.337834
C218	C	-0.391072	1.285079	0.162166
H219	H	-0.927878	0.804824	-0.307949
H220	H	-0.427878	1.304824	0.192051
H221	H	-0.855219	0.767410	-0.299692
H222	H	-0.355219	1.267410	0.200308
H223	H	-0.858588	0.807888	-0.368150
H224	H	-0.358588	1.307888	0.131850
C225	C	-0.954491	0.672305	-0.508738
C226	C	-0.454491	1.172305	-0.008738
H227	H	-1.012320	0.675464	-0.503980
H228	H	-0.512320	1.175464	-0.003980
H229	H	-0.943042	0.678516	-0.564201
H230	H	-0.443042	1.178516	-0.064201
H231	H	-0.939666	0.638050	-0.495725
H232	H	-0.439666	1.138050	0.004275
