data_functionalizedCrystal
_audit_creation_method	'MofGen! by Chris Wilmer'
_symmetry_space_group_name_H-M	'P1'
_symmetry_Int_Tables_number	1
_symmetry_cell_setting	triclinic
loop_
_symmetry_equiv_pos_as_xyz
  x,y,z
_cell_length_a	12.759401
_cell_length_b	18.050590
_cell_length_c	12.759393
_cell_angle_alpha	90.035753
_cell_angle_beta	90.018496
_cell_angle_gamma	90.018713
loop_
_atom_site_label
_atom_site_type_symbol
_atom_site_fract_x
_atom_site_fract_y
_atom_site_fract_z
Zn1	Zn	1.606227	-0.295612	0.593951
Zn2	Zn	2.106227	0.204388	1.093951
Zn3	Zn	1.606110	-0.419823	0.418258
Zn4	Zn	2.106110	0.080177	0.918258
Zn5	Zn	1.430529	-0.295651	0.418290
Zn6	Zn	1.930529	0.204349	0.918290
Zn7	Zn	1.430506	-0.419765	0.593900
Zn8	Zn	1.930506	0.080235	1.093900
O9	O	1.518343	-0.357713	0.506100
O10	O	2.018343	0.142287	1.006100
O11	O	1.753233	-0.312097	0.570653
O12	O	2.253233	0.187903	1.070653
O13	O	1.582779	-0.403391	0.271241
O14	O	2.082779	0.096609	0.771241
O15	O	1.453895	-0.191722	0.441627
O16	O	1.953895	0.308278	0.941627
O17	O	1.753146	-0.403354	0.441572
O18	O	2.253146	0.096646	0.941572
O19	O	1.582979	-0.191693	0.570684
O20	O	2.082979	0.308307	1.070684
O21	O	1.453781	-0.312163	0.271265
O22	O	1.953781	0.187837	0.771265
O23	O	1.283505	-0.312108	0.441577
O24	O	1.783505	0.187892	0.941577
O25	O	1.453855	-0.403256	0.740927
O26	O	1.953855	0.096744	1.240927
O27	O	1.283488	-0.403294	0.570597
O28	O	1.783488	0.096706	1.070597
O29	O	1.582957	-0.312041	0.740965
O30	O	2.082957	0.187959	1.240965
O31	O	1.582757	-0.523740	0.441522
O32	O	2.082757	-0.023740	0.941522
O33	O	1.453741	-0.523698	0.570565
O34	O	1.953741	-0.023698	1.070565
C35	C	1.245376	-0.357699	0.506085
C36	C	1.745376	0.142301	1.006085
C37	C	1.128599	-0.357711	0.506104
C38	C	1.628599	0.142289	1.006104
C39	C	1.073756	-0.405268	0.573173
C40	C	1.573756	0.094732	1.073173
C41	C	0.964032	-0.405277	0.573185
C42	C	1.464032	0.094723	1.073185
C43	C	0.964004	-0.310171	0.439049
C44	C	1.464004	0.189829	0.939049
C45	C	1.073726	-0.310159	0.439043
C46	C	1.573726	0.189841	0.939043
C47	C	1.128629	-0.452820	0.640234
C48	C	1.628629	0.047180	1.140234
C49	C	1.073785	-0.500382	0.707308
C50	C	1.573785	-0.000382	1.207308
C51	C	0.964061	-0.500391	0.707320
C52	C	1.464061	-0.000391	1.207320
C53	C	0.909181	-0.452839	0.640257
C54	C	1.409181	0.047161	1.140257
C55	C	1.518262	-0.550665	0.506058
C56	C	2.018262	-0.050665	1.006058
C57	C	1.518324	-0.633211	0.506075
C58	C	2.018324	-0.133211	1.006075
C59	C	1.588628	-0.832657	0.435999
C60	C	2.088628	-0.332657	0.935999
C61	C	1.614296	-0.881981	0.531886
C62	C	2.114296	-0.381981	1.031886
C63	C	1.518384	-0.784341	0.506117
C64	C	2.018384	-0.284341	1.006117
C65	C	1.492823	-0.882099	0.410274
C66	C	1.992823	-0.382099	0.910274
C67	C	1.518443	-0.930326	0.506149
C68	C	2.018443	-0.430326	1.006149
C69	C	1.544100	-0.832578	0.602054
C70	C	2.044100	-0.332578	1.102054
C71	C	1.422583	-0.832691	0.480377
C72	C	1.922583	-0.332691	0.980377
C73	C	1.448214	-0.881993	0.576329
C74	C	1.948214	-0.381993	1.076329
C75	C	1.518352	-0.700243	0.506097
C76	C	2.018352	-0.200243	1.006097
C77	C	1.518475	-1.014423	0.506180
C78	C	2.018475	-0.514423	1.006180
C79	C	1.792376	-0.357727	0.506115
C80	C	2.292376	0.142273	1.006115
C81	C	1.909153	-0.357733	0.506121
C82	C	2.409153	0.142267	1.006121
C83	C	1.518417	-0.357638	0.780133
C84	C	2.018417	0.142362	1.280133
C85	C	1.518448	-0.357606	0.896910
C86	C	2.018448	0.142394	1.396910
C87	C	1.518453	-0.164007	0.506165
C88	C	2.018453	0.335993	1.006165
C89	C	1.518500	-0.081462	0.506192
C90	C	2.018500	0.418538	1.006192
C91	C	1.518330	-0.357734	0.233132
C92	C	2.018330	0.142266	0.733132
C93	C	1.518502	-0.357557	0.116356
C94	C	2.018502	0.142443	0.616356
C95	C	1.585680	-0.310106	0.951793
C96	C	2.085680	0.189894	1.451793
C97	C	1.585705	-0.310079	1.061517
C98	C	2.085705	0.189921	1.561517
C99	C	1.451263	-0.405059	1.061465
C100	C	1.951263	0.094941	1.561465
C101	C	1.451233	-0.405081	0.951743
C102	C	1.951233	0.094919	1.451743
C103	C	1.652895	-0.262631	0.896960
C104	C	2.152895	0.237369	1.396960
C105	C	1.720134	-0.215128	0.951844
C106	C	2.220134	0.284872	1.451844
C107	C	1.720159	-0.215101	1.061568
C108	C	2.220159	0.284899	1.561568
C109	C	1.652945	-0.262577	1.116408
C110	C	2.152945	0.237423	1.616408
H111	H	0.919410	-0.539112	0.761942
H112	H	1.419410	-0.039112	1.261942
Br113	Br	1.456749	-0.918357	0.275160
Br114	Br	1.956749	-0.418357	0.775160
Br115	Br	1.811327	-0.150684	0.877421
Br116	Br	2.311327	0.349316	1.377421
Br117	Br	1.360052	-0.469488	1.135891
Br118	Br	1.860052	0.030512	1.635891
Br119	Br	1.749375	-0.918051	0.568231
Br120	Br	2.249375	-0.418051	1.068231
Br121	Br	0.760268	-0.452845	0.640286
Br122	Br	1.260268	0.047155	1.140286
Br123	Br	1.287538	-0.796579	0.444015
Br124	Br	1.787538	-0.296579	0.944015
Br125	Br	0.889524	-0.245642	0.348041
Br126	Br	1.389524	0.254358	0.848041
H127	H	1.396470	-0.443749	0.907056
H128	H	1.896470	0.056251	1.407056
H129	H	1.118381	-0.271429	0.384437
H130	H	1.618381	0.228571	0.884437
Br131	Br	1.580346	-0.796483	0.737208
Br132	Br	2.080346	-0.296483	1.237208
Br133	Br	1.687664	-0.796548	0.337267
Br134	Br	2.187664	-0.296548	0.837267
Br135	Br	1.349244	-0.917875	0.675291
Br136	Br	1.849244	-0.417875	1.175291
H137	H	1.652885	-0.262649	0.807617
H138	H	2.152885	0.237351	1.307617
Br139	Br	1.652963	-0.262527	1.265321
Br140	Br	2.152963	0.237473	1.765321
Br141	Br	1.277539	-0.452815	0.640216
Br142	Br	1.777539	0.047185	1.140216
Br143	Br	1.148262	-0.564906	0.798326
Br144	Br	1.648262	-0.064906	1.298326
H145	H	1.774900	-0.176416	1.106251
H146	H	2.274900	0.323584	1.606251
