data_functionalizedCrystal
_audit_creation_method	'MofGen! by Chris Wilmer'
_symmetry_space_group_name_H-M	'P1'
_symmetry_Int_Tables_number	1
_symmetry_cell_setting	triclinic
loop_
_symmetry_equiv_pos_as_xyz
  x,y,z
_cell_length_a	14.044220
_cell_length_b	14.044220
_cell_length_c	22.610064
_cell_angle_alpha	89.990485
_cell_angle_beta	89.998097
_cell_angle_gamma	93.188878
loop_
_atom_site_label
_atom_site_type_symbol
_atom_site_fract_x
_atom_site_fract_y
_atom_site_fract_z
O1	O	-1.277165	-0.230146	-0.049124
O2	O	-0.777165	0.269854	0.450876
O3	O	-1.000493	-0.221841	-0.049139
O4	O	-0.500493	0.278159	0.450861
O5	O	-1.134676	-0.087658	-0.049126
O6	O	-0.634676	0.412342	0.450874
O7	O	-1.142982	-0.364329	-0.049137
O8	O	-0.642982	0.135671	0.450863
O9	O	-1.134670	-0.087695	0.049243
O10	O	-0.634670	0.412305	0.549243
O11	O	-1.000487	-0.221877	0.049230
O12	O	-0.500487	0.278123	0.549230
O13	O	-1.277158	-0.230183	0.049245
O14	O	-0.777158	0.269817	0.549245
Zn15	Zn	-1.138821	-0.226036	0.064856
Zn16	Zn	-0.638821	0.273964	0.564856
Zn17	Zn	-1.138830	-0.225988	-0.064750
Zn18	Zn	-0.638830	0.274012	0.435250
O19	O	-1.142975	-0.364366	0.049232
O20	O	-0.642975	0.135634	0.549232
C21	C	-0.964868	-0.218223	0.000044
C22	C	-0.464868	0.281777	0.500044
C23	C	-0.858725	-0.207379	0.000038
C24	C	-0.358725	0.292621	0.500038
N25	N	-1.138836	-0.225948	-0.153202
N26	N	-0.638836	0.274052	0.346798
C27	C	-1.131037	-0.052054	0.000059
C28	C	-0.631037	0.447946	0.500059
C29	C	-1.120193	0.054088	0.000059
C30	C	-0.620193	0.554088	0.500059
C31	C	-1.312783	-0.233800	0.000061
C32	C	-0.812783	0.266200	0.500061
C33	C	-1.418926	-0.244645	0.000063
C34	C	-0.918926	0.255355	0.500063
C35	C	-0.664388	-0.187553	0.000051
C36	C	-0.164388	0.312447	0.500051
C37	C	-0.613258	-0.264467	0.000050
C38	C	-0.113258	0.235533	0.500050
C39	C	-0.505122	-0.253435	0.000057
C40	C	-0.005122	0.246565	0.500057
C41	C	-0.772534	-0.198583	0.000044
C42	C	-0.272534	0.301417	0.500044
C43	C	-1.146614	-0.399969	0.000046
C44	C	-0.646614	0.100031	0.500046
C45	C	-1.157459	-0.506112	0.000042
C46	C	-0.657459	-0.006112	0.500042
C47	C	-1.100366	0.248426	0.000049
C48	C	-0.600366	0.748426	0.500049
C49	C	-1.177281	0.299556	0.000052
C50	C	-0.677281	0.799556	0.500052
C51	C	-1.166249	0.407692	0.000046
C52	C	-0.666249	0.907692	0.500046
C53	C	-1.111397	0.140280	0.000055
C54	C	-0.611397	0.640280	0.500055
N55	N	-1.138822	-0.226069	0.153308
N56	N	-0.638822	0.273931	0.653308
C57	C	-1.079378	-0.285404	0.438151
C58	C	-0.579378	0.214596	0.938151
C59	C	-1.079376	-0.285413	0.376231
C60	C	-0.579376	0.214587	0.876231
O61	O	-1.028809	-0.335902	0.344207
O62	O	-0.528809	0.164098	0.844207
N63	N	-1.138812	-0.226030	0.345261
N64	N	-0.638812	0.273970	0.845261
C65	C	-1.198247	-0.166627	0.376214
C66	C	-0.698247	0.333373	0.876214
O67	O	-1.248801	-0.116117	0.344186
O68	O	-0.748801	0.383883	0.844186
C69	C	-1.198243	-0.166614	0.438133
C70	C	-0.698243	0.333386	0.938133
C71	C	-1.138810	-0.226008	0.469099
C72	C	-0.638810	0.273992	0.969099
C73	C	-1.019949	-0.344793	0.469118
C74	C	-0.519949	0.155207	0.969118
C75	C	-1.019952	-0.344785	0.531033
C76	C	-0.519952	0.155215	1.031033
C77	C	-1.079384	-0.285389	0.561982
C78	C	-0.579384	0.214611	1.061982
C79	C	-1.138813	-0.226000	0.531015
C80	C	-0.638813	0.274000	1.031015
C81	C	-1.257672	-0.107206	0.469084
C82	C	-0.757672	0.392794	0.969084
C83	C	-1.257662	-0.107198	0.531007
C84	C	-0.757662	0.392802	1.031007
C85	C	-1.198229	-0.166592	0.561974
C86	C	-0.698229	0.333408	1.061974
C87	C	-1.198249	-0.166595	0.623879
C88	C	-0.698249	0.333405	1.123879
N89	N	-1.138813	-0.225979	0.654849
N90	N	-0.638813	0.274021	1.154849
C91	C	-1.079380	-0.285375	0.623901
C92	C	-0.579380	0.214625	1.123901
C93	C	-1.198249	-0.166658	0.246180
C94	C	-0.698249	0.333342	0.746180
C95	C	-1.198258	-0.166676	0.184262
C96	C	-0.698258	0.333324	0.684262
C97	C	-1.079386	-0.285461	0.184284
C98	C	-0.579386	0.214539	0.684284
C99	C	-1.079382	-0.285448	0.246203
C100	C	-0.579382	0.214552	0.746203
C101	C	-1.138813	-0.226041	0.277150
C102	C	-0.638813	0.273959	0.777150
C103	C	-1.079393	-0.285355	0.753928
C104	C	-0.579393	0.214645	1.253928
C105	C	-1.079404	-0.285344	0.815849
C106	C	-0.579404	0.214656	1.315849
C107	C	-1.198272	-0.166556	0.815822
C108	C	-0.698272	0.333444	1.315822
C109	C	-1.198265	-0.166569	0.753907
C110	C	-0.698265	0.333431	1.253907
C111	C	-1.138817	-0.225972	0.722961
C112	C	-0.638817	0.274028	1.222961
O113	O	-1.248787	-0.116130	0.655942
O114	O	-0.748787	0.383870	1.155942
O115	O	-1.028826	-0.335868	0.655937
O116	O	-0.528826	0.164132	1.155937
H117	H	-0.650697	-0.338600	0.000044
H118	H	-0.150697	0.161400	0.500044
F119	F	-1.274179	0.250623	0.000062
F120	F	-0.774179	0.750623	0.500062
F121	F	-1.003475	0.297359	0.000041
F122	F	-0.503475	0.797359	0.500041
F123	F	-0.615455	-0.090661	0.000057
F124	F	-0.115455	0.409339	0.500057
F125	F	-1.016147	-0.348564	0.848804
F126	F	-0.516147	0.151436	1.348804
F127	F	-1.016122	-0.348578	0.721002
F128	F	-0.516122	0.151422	1.221002
F129	F	-0.956691	-0.407995	0.563985
F130	F	-0.456691	0.092005	1.063985
H131	H	-0.971548	-0.393160	0.443925
H132	H	-0.471548	0.106840	0.943925
F133	F	-1.320916	-0.043965	0.563940
F134	F	-0.820916	0.456035	1.063940
H135	H	-1.246670	-0.118215	0.728693
H136	H	-0.746670	0.381785	1.228693
F137	F	-1.016125	-0.348662	0.279154
F138	F	-0.516125	0.151338	0.779154
H139	H	-1.030992	-0.333824	0.159074
H140	H	-0.530992	0.166176	0.659074
F141	F	-1.261527	-0.103474	0.151311
F142	F	-0.761527	0.396526	0.651311
F143	F	-1.261514	-0.103433	0.279112
F144	F	-0.761514	0.396567	0.779112
H145	H	-1.306067	-0.058842	0.443880
H146	H	-0.806067	0.441158	0.943880
F147	F	-1.261524	-0.103346	0.848770
F148	F	-0.761524	0.396654	1.348770
