data_functionalizedCrystal
_audit_creation_method	'MofGen! by Chris Wilmer'
_symmetry_space_group_name_H-M	'P1'
_symmetry_Int_Tables_number	1
_symmetry_cell_setting	triclinic
loop_
_symmetry_equiv_pos_as_xyz
  x,y,z
_cell_length_a	14.853569
_cell_length_b	11.792254
_cell_length_c	13.930277
_cell_angle_alpha	89.995290
_cell_angle_beta	89.994756
_cell_angle_gamma	83.917081
loop_
_atom_site_label
_atom_site_type_symbol
_atom_site_fract_x
_atom_site_fract_y
_atom_site_fract_z
O1	O	1.196950	0.148189	-0.079787
O2	O	0.934560	0.165839	-0.079799
O3	O	1.072116	-0.008195	-0.079786
O4	O	1.059393	0.322223	-0.079800
O5	O	1.072097	-0.008199	0.079876
O6	O	0.934541	0.165835	0.079863
O7	O	1.196931	0.148185	0.079875
Zn8	Zn	1.065733	0.157009	0.105218
Zn9	Zn	1.065758	0.157014	-0.105143
O10	O	1.059374	0.322219	0.079862
C11	C	0.900958	0.165037	0.000031
C12	C	0.800865	0.162639	0.000026
C13	C	0.764078	0.058135	0.000027
C14	C	0.743601	0.264892	0.000029
C15	C	0.649558	0.262643	0.000030
C16	C	0.612771	0.158138	0.000032
C17	C	0.670027	0.055882	0.000031
C18	C	0.592295	0.364896	0.000040
C19	C	0.498246	0.362651	0.000043
C20	C	0.461457	0.258145	0.000037
C21	C	0.518719	0.155886	0.000036
C22	C	0.481932	0.051381	0.000037
C23	C	0.539193	-0.050880	0.000029
C24	C	0.633238	-0.048624	0.000026
C25	C	0.367412	0.255889	0.000040
C26	C	0.387881	0.049129	0.000041
C27	C	1.071305	-0.050483	0.000045
C28	C	1.068906	-0.176481	0.000044
C29	C	1.066957	-0.278806	0.000040
C30	C	1.064520	-0.407177	0.000031
C31	C	1.230532	0.148987	0.000043
C32	C	1.330625	0.151384	0.000041
C33	C	1.060185	0.364506	0.000029
C34	C	1.062584	0.490505	0.000024
N35	N	1.065722	0.157005	0.248785
N36	N	1.065776	0.157009	-0.248709
C37	C	1.004845	0.234046	0.701048
C38	C	1.126695	0.079974	0.701029
C39	C	1.126684	0.079970	0.600533
C40	C	1.065754	0.157007	0.550290
C41	C	1.004835	0.234047	0.600543
C42	C	1.187609	0.002939	0.550273
C43	C	1.187601	0.002933	0.449771
C44	C	1.126666	0.079965	0.399526
C45	C	1.065743	0.157008	0.449785
C46	C	1.004813	0.234045	0.399542
C47	C	0.943885	0.311083	0.449800
C48	C	0.943899	0.311080	0.550298
C49	C	1.126652	0.079969	0.299027
C50	C	1.004802	0.234046	0.299037
H51	H	0.509228	-0.135968	0.000023
N52	N	0.629886	0.471628	0.000049
N53	N	0.713857	0.473619	0.000041
H54	H	0.740411	0.549002	0.000045
H55	H	0.773559	0.349975	0.000035
H56	H	0.451632	0.445919	0.000047
N57	N	0.881668	0.389780	0.601619
N58	N	0.827267	0.458555	0.556753
H59	H	0.783315	0.514138	0.593001
H60	H	1.237211	-0.059796	0.408858
H61	H	0.810703	-0.025124	0.000017
H62	H	0.320795	0.339148	0.000055
H63	H	0.955182	0.296775	0.258136
N64	N	0.881650	0.389790	0.398488
N65	N	0.883396	0.494701	0.409706
H66	H	0.839444	0.550289	0.373465
H67	H	0.955236	0.296767	0.741970
N68	N	1.188926	0.001305	0.752370
N69	N	1.159992	-0.069203	0.808477
H70	H	1.203946	-0.124762	0.844744
N71	N	0.350322	-0.057633	0.000032
N72	N	0.401459	-0.148920	0.000021
H73	H	0.374934	-0.224322	0.000014
N74	N	0.691740	-0.153061	0.000014
N75	N	0.775707	-0.151032	0.000013
H76	H	0.817028	-0.224789	0.000006
N77	N	1.249874	-0.075694	0.601607
N78	N	1.249890	-0.075658	0.691338
H79	H	1.293877	-0.131181	0.727599
N80	N	1.188803	0.001175	0.247707
N81	N	1.243146	-0.067669	0.292577
H82	H	1.287009	-0.123365	0.256334
