data_functionalizedCrystal
_audit_creation_method	'MofGen! by Chris Wilmer'
_symmetry_space_group_name_H-M	'P1'
_symmetry_Int_Tables_number	1
_symmetry_cell_setting	triclinic
loop_
_symmetry_equiv_pos_as_xyz
  x,y,z
_cell_length_a	23.532407
_cell_length_b	16.992695
_cell_length_c	16.053802
_cell_angle_alpha	87.258926
_cell_angle_beta	92.559697
_cell_angle_gamma	86.758450
loop_
_atom_site_label
_atom_site_type_symbol
_atom_site_fract_x
_atom_site_fract_y
_atom_site_fract_z
O1	O	-0.762229	-0.091835	-0.069325
O2	O	-0.597050	-0.105601	-0.069350
O3	O	-0.678977	0.015419	-0.069331
O4	O	-0.680302	-0.212855	-0.069344
O5	O	-0.674466	0.008785	0.069527
O6	O	-0.592539	-0.112235	0.069508
O7	O	-0.757718	-0.098469	0.069533
Zn8	Zn	-0.674413	-0.106406	0.091567
Zn9	Zn	-0.680356	-0.097665	-0.091384
O10	O	-0.675791	-0.219489	0.069514
C11	C	-0.573561	-0.108568	0.000076
C12	C	-0.510292	-0.107513	0.000067
C13	C	-0.781207	-0.095503	0.000105
C14	C	-0.844476	-0.096557	0.000109
C15	C	-0.114414	-0.172521	0.000101
C16	C	-0.054965	-0.171542	0.000106
O17	O	-0.021210	-0.231805	0.000133
N18	N	-0.028768	-0.099595	0.000109
C19	C	-0.062024	-0.028623	0.000115
O20	O	-0.034283	0.032663	0.000119
C21	C	-0.121471	-0.029603	0.000116
C22	C	-0.147665	-0.101554	0.000105
C23	C	-0.140607	-0.244467	0.000091
C24	C	-0.200052	-0.245445	0.000084
C25	C	-0.233304	-0.174478	0.000088
C26	C	-0.207110	-0.102533	0.000098
C27	C	-0.154726	0.041368	0.000128
C28	C	-0.214177	0.040381	0.000129
C29	C	-0.240371	-0.031570	0.000118
C30	C	-0.299806	-0.032545	0.000095
N31	N	-0.326002	-0.104492	0.000092
C32	C	-0.292751	-0.175458	0.000088
C33	C	0.062821	-0.026571	0.000115
C34	C	0.122267	-0.025590	0.000108
C35	C	0.129322	-0.168509	0.000101
C36	C	0.069874	-0.169489	0.000102
C37	C	0.036624	-0.098518	0.000112
C38	C	-0.417590	-0.177508	0.000074
C39	C	-0.477041	-0.178480	0.000063
C40	C	-0.484091	-0.035561	0.000075
C41	C	-0.424645	-0.034588	0.000081
C42	C	-0.391396	-0.105568	0.000083
O43	O	-0.333597	0.027687	0.000071
O44	O	-0.320500	-0.236735	0.000096
C45	C	-0.675018	0.041301	0.000098
C46	C	-0.669935	0.128306	0.000097
C47	C	-0.679750	-0.245372	0.000083
C48	C	-0.684834	-0.332376	0.000079
N49	N	-0.670361	-0.112370	0.216427
C50	C	-0.718981	0.178928	0.000105
C51	C	-0.714202	0.260678	0.000096
C52	C	-0.660375	0.291804	0.000085
C53	C	-0.611326	0.241175	0.000075
C54	C	-0.616106	0.159427	0.000077
C55	C	-0.640564	0.535248	0.000071
C56	C	-0.635788	0.617002	0.000071
C57	C	-0.738664	0.636499	0.000091
C58	C	-0.743439	0.554748	0.000098
C59	C	-0.694390	0.504127	0.000083
N60	N	-0.655489	0.375365	0.000079
N61	N	-0.699277	0.420568	0.000084
N62	N	-0.684412	-0.091694	-0.216243
C63	C	-0.705235	-0.060894	0.260128
C64	C	-0.702407	-0.065074	0.347535
C65	C	-0.664706	-0.120734	0.391237
C66	C	-0.629827	-0.172213	0.347529
C67	C	-0.632654	-0.168028	0.260125
C68	C	-0.652360	-0.138988	0.652644
C69	C	-0.649537	-0.143170	0.740055
C70	C	-0.722116	-0.036030	0.740054
C71	C	-0.724941	-0.031854	0.652648
C72	C	-0.690061	-0.083330	0.608947
N73	N	-0.661815	-0.125009	0.480580
N74	N	-0.692949	-0.079050	0.519606
H75	H	-0.390525	-0.235307	0.000078
H76	H	-0.511174	0.022218	0.000075
C77	C	-0.187089	-0.386612	0.000091
C78	C	-0.228838	-0.324538	0.000087
H79	H	-0.204858	-0.435443	0.000101
H80	H	-0.165622	-0.380944	-0.048330
H81	H	-0.162478	-0.385554	0.048516
H82	H	-0.253447	-0.325593	-0.048341
H83	H	-0.250315	-0.330207	0.048513
C84	C	-0.519846	0.246309	0.071433
C85	C	-0.552157	0.275382	0.000060
H86	H	-0.483316	0.267422	0.071420
H87	H	-0.538621	0.261408	0.119851
H88	H	-0.515680	0.190377	0.071423
H89	H	-0.556326	0.331314	0.000073
H90	H	-0.533377	0.260288	-0.048371
C91	C	-0.071984	-0.322873	-0.071305
C92	C	-0.104063	-0.322482	0.000080
H93	H	-0.049424	-0.371038	-0.071312
H94	H	-0.096894	-0.317962	-0.119715
H95	H	-0.047870	-0.279889	-0.071290
H96	H	-0.128180	-0.365463	0.000062
H97	H	-0.079150	-0.327401	0.048503
C98	C	-0.005809	0.051855	0.071493
C99	C	0.026274	0.051450	0.000112
H100	H	-0.028365	0.100023	0.071492
H101	H	-0.029920	0.008877	0.071486
H102	H	0.019104	0.046951	0.119911
H103	H	0.001362	0.056348	-0.048307
H104	H	0.050388	0.094440	0.000111
H105	H	-0.600624	0.494041	0.000059
H106	H	-0.618835	-0.188499	0.775633
C107	C	-0.560635	-0.274358	0.268899
C108	C	-0.594321	-0.224616	0.212084
H109	H	-0.536972	-0.309295	0.239239
H110	H	-0.537572	-0.243506	0.302998
H111	H	-0.584518	-0.304018	0.302981
H112	H	-0.570438	-0.194952	0.178005
H113	H	-0.617386	-0.255472	0.177971
C114	C	0.082833	-0.310657	0.000095
C115	C	0.041086	-0.248580	0.000099
H116	H	0.065061	-0.359485	0.000100
H117	H	0.104299	-0.304986	-0.048327
H118	H	0.107445	-0.309605	0.048519
H119	H	0.016476	-0.249628	-0.048329
H120	H	0.019610	-0.254252	0.048526
H121	H	-0.599128	-0.217530	0.383117
H122	H	0.156406	-0.226294	0.000102
C123	C	-0.810454	0.173783	-0.071269
C124	C	-0.778148	0.144716	0.000112
H125	H	-0.846980	0.152659	-0.071268
H126	H	-0.814625	0.229707	-0.071262
H127	H	-0.791667	0.158684	-0.119687
H128	H	-0.796933	0.159820	0.048531
H129	H	-0.773979	0.088780	0.000113
H130	H	-0.241247	0.098177	0.000138
C131	C	-0.532212	0.121045	-0.071317
C132	C	-0.562193	0.103780	0.000069
H133	H	-0.498926	0.086694	-0.071321
H134	H	-0.555704	0.113962	-0.119726
H135	H	-0.521666	0.174187	-0.071309
H136	H	-0.572743	0.050640	0.000058
H137	H	-0.538696	0.110857	0.048491
H138	H	-0.133410	0.099958	0.000138
H139	H	-0.735938	-0.015573	0.224552
H140	H	-0.730804	-0.023157	0.383116
H141	H	-0.754140	0.301892	0.000105
H142	H	-0.787270	0.529412	0.000107
C143	C	0.187335	0.055023	0.071490
C144	C	0.151057	0.053500	0.000108
H145	H	0.205109	0.103849	0.071489
H146	H	0.165858	0.049360	0.119902
H147	H	0.215647	0.012897	0.071482
H148	H	0.122741	0.095622	0.000119
H149	H	0.172535	0.059171	-0.048316
C150	C	-0.796392	0.073638	0.661430
C151	C	-0.766380	0.029334	0.604613
H152	H	-0.821973	0.111414	0.631773
H153	H	-0.817252	0.039523	0.695509
H154	H	-0.770305	0.100033	0.695533
H155	H	-0.792467	0.002934	0.570514
H156	H	-0.745519	0.063454	0.570520
C157	C	-0.364191	0.052840	-0.071288
C158	C	-0.395849	0.044500	0.000085
H159	H	-0.346419	0.101668	-0.071280
H160	H	-0.335881	0.010719	-0.071279
H161	H	-0.388806	0.051801	-0.119711
H162	H	-0.371233	0.045532	0.048509
H163	H	-0.424162	0.086631	0.000084
H164	H	-0.750513	0.005880	0.775643
H165	H	-0.623959	-0.180903	0.617070
H166	H	-0.778597	0.677723	0.000101
C167	C	-0.464086	-0.319655	0.000062
C168	C	-0.505831	-0.257574	0.000057
H169	H	-0.481860	-0.368482	0.000064
H170	H	-0.442616	-0.313987	-0.048356
H171	H	-0.439478	-0.318604	0.048490
H172	H	-0.530437	-0.258622	-0.048375
H173	H	-0.527311	-0.263244	0.048480
C174	C	-0.548954	0.628976	-0.071345
C175	C	-0.576620	0.651223	0.000049
H176	H	-0.512430	0.650109	-0.071360
H177	H	-0.544775	0.573052	-0.071341
H178	H	-0.570890	0.648693	-0.119754
H179	H	-0.554685	0.631501	0.048458
H180	H	-0.580795	0.707158	0.000052
