data_functionalizedCrystal
_audit_creation_method	'MofGen! by Chris Wilmer'
_symmetry_space_group_name_H-M	'P1'
_symmetry_Int_Tables_number	1
_symmetry_cell_setting	triclinic
loop_
_symmetry_equiv_pos_as_xyz
  x,y,z
_cell_length_a	16.625546
_cell_length_b	12.759401
_cell_length_c	12.759393
_cell_angle_alpha	89.979527
_cell_angle_beta	90.035675
_cell_angle_gamma	89.976007
loop_
_atom_site_label
_atom_site_type_symbol
_atom_site_fract_x
_atom_site_fract_y
_atom_site_fract_z
Zn1	Zn	-0.320925	-1.606205	0.593986
Zn2	Zn	0.012408	-1.272872	0.927320
Zn3	Zn	0.345741	-0.939538	1.260653
Zn4	Zn	-0.455781	-1.606074	0.418292
Zn5	Zn	-0.122448	-1.272740	0.751626
Zn6	Zn	0.210886	-0.939407	1.084959
Zn7	Zn	-0.320970	-1.430505	0.418322
Zn8	Zn	0.012364	-1.097172	0.751655
Zn9	Zn	0.345697	-0.763838	1.084988
Zn10	Zn	-0.455723	-1.430472	0.593930
Zn11	Zn	-0.122390	-1.097138	0.927263
Zn12	Zn	0.210943	-0.763805	1.260596
O13	O	-0.388350	-1.518314	0.506132
O14	O	-0.055016	-1.184980	0.839466
O15	O	0.278317	-0.851647	1.172799
O16	O	-0.338820	-1.753208	0.570692
O17	O	-0.005487	-1.419875	0.904025
O18	O	0.327847	-1.086542	1.237358
O19	O	-0.437941	-1.582743	0.271275
O20	O	-0.104607	-1.249410	0.604608
O21	O	0.228726	-0.916076	0.937942
O22	O	-0.208131	-1.453881	0.441660
O23	O	0.125202	-1.120548	0.774993
O24	O	0.458535	-0.787214	1.108327
O25	O	-0.437898	-1.753112	0.441610
O26	O	-0.104564	-1.419779	0.774943
O27	O	0.228769	-1.086445	1.108277
O28	O	-0.208099	-1.582967	0.570720
O29	O	0.125234	-1.249633	0.904053
O30	O	0.458568	-0.916300	1.237387
O31	O	-0.338895	-1.453754	0.271297
O32	O	-0.005562	-1.120420	0.604630
O33	O	0.327771	-0.787087	0.937963
O34	O	-0.338839	-1.283480	0.441605
O35	O	-0.005506	-0.950146	0.774938
O36	O	0.327827	-0.616813	1.108271
O37	O	-0.437799	-1.453824	0.740958
O38	O	-0.104466	-1.120491	1.074292
O39	O	0.228867	-0.787157	1.407625
O40	O	-0.437842	-1.283455	0.570623
O41	O	-0.104509	-0.950122	0.903957
O42	O	0.228824	-0.616788	1.237290
O43	O	-0.338764	-1.582934	0.741000
O44	O	-0.005431	-1.249601	1.074333
O45	O	0.327903	-0.916268	1.407667
O46	O	-0.568606	-1.582711	0.441555
O47	O	-0.235272	-1.249377	0.774888
O48	O	0.098061	-0.916044	1.108222
O49	O	-0.568563	-1.453697	0.570595
O50	O	-0.235230	-1.120363	0.903928
O51	O	0.098103	-0.787030	1.237261
C52	C	-0.597841	-1.518214	0.506088
C53	C	-0.264507	-1.184881	0.839422
C54	C	0.068826	-0.851548	1.172755
C55	C	-0.687462	-1.518268	0.506105
C56	C	-0.354128	-1.184935	0.839438
C57	C	-0.020795	-0.851601	1.172771
C58	C	-0.388340	-1.245346	0.506112
C59	C	-0.055007	-0.912013	0.839445
C60	C	0.278327	-0.578680	1.172778
C61	C	-0.388355	-1.128570	0.506128
C62	C	-0.055022	-0.795236	0.839461
C63	C	0.278312	-0.461903	1.172794
C64	C	-0.388270	-1.518390	0.780166
C65	C	-0.054937	-1.185057	1.113499
C66	C	0.278396	-0.851723	1.446833
C67	C	-0.388237	-1.518423	0.896943
C68	C	-0.054903	-1.185089	1.230276
C69	C	0.278430	-0.851756	1.563609
C70	C	-1.015637	-1.518451	0.506214
C71	C	-0.682304	-1.185118	0.839548
C72	C	-0.348971	-0.851785	1.172881
C73	C	-0.924329	-1.518397	0.506187
C74	C	-0.590996	-1.185063	0.839520
C75	C	-0.257662	-0.851730	1.172853
C76	C	-0.851552	-1.518359	0.506159
C77	C	-0.518219	-1.185025	0.839492
C78	C	-0.184886	-0.851692	1.172826
C79	C	-0.760238	-1.518306	0.506132
C80	C	-0.426905	-1.184973	0.839466
C81	C	-0.093572	-0.851639	1.172799
C82	C	-0.178041	-1.518442	0.506200
C83	C	0.155292	-1.185109	0.839533
C84	C	0.488626	-0.851776	1.172866
C85	C	-0.088420	-1.518497	0.506228
C86	C	0.244914	-1.185164	0.839562
C87	C	0.578247	-0.851830	1.172895
C88	C	-0.388360	-1.792347	0.506154
C89	C	-0.055027	-1.459014	0.839487
C90	C	0.278306	-1.125680	1.172821
C91	C	-0.388365	-1.909124	0.506163
C92	C	-0.055031	-1.575790	0.839496
C93	C	0.278302	-1.242457	1.172830
C94	C	-0.439984	-1.073723	0.573202
C95	C	-0.106651	-0.740389	0.906535
C96	C	0.226682	-0.407056	1.239868
C97	C	-0.439988	-0.963998	0.573223
C98	C	-0.106654	-0.630665	0.906556
C99	C	0.226679	-0.297332	1.239889
C100	C	-0.336730	-0.963979	0.439086
C101	C	-0.003396	-0.630645	0.772419
C102	C	0.329937	-0.297312	1.105753
C103	C	-0.336723	-1.073701	0.439071
C104	C	-0.003390	-0.740367	0.772405
C105	C	0.329943	-0.407034	1.105738
C106	C	-0.388371	-1.518298	0.233165
C107	C	-0.055037	-1.184965	0.566498
C108	C	0.278296	-0.851631	0.899832
C109	C	-0.388177	-1.518469	0.116389
C110	C	-0.054844	-1.185136	0.449722
C111	C	0.278489	-0.851802	0.783056
C112	C	-0.336630	-1.585677	1.061559
C113	C	-0.003297	-1.252344	1.394893
C114	C	0.330037	-0.919011	1.728226
C115	C	-0.336661	-1.585657	0.951835
C116	C	-0.003328	-1.252324	1.285168
C117	C	0.330005	-0.918990	1.618502
C118	C	-0.439790	-1.451212	0.951780
C119	C	-0.106456	-1.117878	1.285113
C120	C	0.226877	-0.784545	1.618447
C121	C	-0.439762	-1.451238	1.061502
C122	C	-0.106429	-1.117905	1.394835
C123	C	0.226905	-0.784571	1.728169
H124	H	-0.482024	-1.118394	0.627806
H125	H	-0.148691	-0.785060	0.961139
H126	H	0.184642	-0.451727	1.294473
H127	H	-0.482028	-0.919347	0.627843
H128	H	-0.148695	-0.586013	0.961176
H129	H	0.184639	-0.252680	1.294509
H130	H	-0.294694	-0.919291	0.384490
H131	H	0.038639	-0.585957	0.717823
H132	H	0.371973	-0.252624	1.051156
H133	H	-0.294675	-1.118358	0.384451
H134	H	0.038658	-0.785025	0.717785
H135	H	0.371991	-0.451692	1.051118
F136	F	-0.281799	-1.657191	0.893486
F137	F	0.051534	-1.323858	1.226819
F138	F	0.384868	-0.990525	1.560153
F139	F	-0.281728	-1.657229	1.119970
F140	F	0.051605	-1.323895	1.453304
F141	F	0.384939	-0.990562	1.786637
F142	F	-0.494682	-1.379658	0.893356
F143	F	-0.161349	-1.046325	1.226690
F144	F	0.171985	-0.712991	1.560023
H145	H	-0.481742	-1.396508	1.106146
H146	H	-0.148409	-1.063175	1.439479
H147	H	0.184924	-0.729841	1.772812
