data_functionalizedCrystal
_audit_creation_method	'MofGen! by Chris Wilmer'
_symmetry_space_group_name_H-M	'P1'
_symmetry_Int_Tables_number	1
_symmetry_cell_setting	triclinic
loop_
_symmetry_equiv_pos_as_xyz
  x,y,z
_cell_length_a	13.032721
_cell_length_b	18.215407
_cell_length_c	18.215399
_cell_angle_alpha	89.980167
_cell_angle_beta	97.154738
_cell_angle_gamma	97.205008
loop_
_atom_site_label
_atom_site_type_symbol
_atom_site_fract_x
_atom_site_fract_y
_atom_site_fract_z
Zn1	Zn	-0.416041	1.087881	-0.453320
Zn2	Zn	-0.082708	1.421214	-0.119987
Zn3	Zn	0.250626	1.754548	0.213346
Zn4	Zn	-0.590804	1.072167	-0.345882
Zn5	Zn	-0.257471	1.405500	-0.012549
Zn6	Zn	0.075862	1.738833	0.320784
Zn7	Zn	-0.416075	0.964810	-0.330271
Zn8	Zn	-0.082742	1.298144	0.003063
Zn9	Zn	0.250591	1.631477	0.336396
Zn10	Zn	-0.590746	0.949162	-0.468902
Zn11	Zn	-0.257413	1.282495	-0.135569
Zn12	Zn	0.075920	1.615829	0.197765
O13	O	-0.503417	1.018505	-0.399594
O14	O	-0.170083	1.351838	-0.066260
O15	O	0.163250	1.685172	0.267073
O16	O	-0.439234	1.188780	-0.439081
O17	O	-0.105900	1.522113	-0.105748
O18	O	0.227433	1.855446	0.227586
O19	O	-0.567665	1.057898	-0.240831
O20	O	-0.234332	1.391231	0.092503
O21	O	0.099002	1.724565	0.425836
O22	O	-0.269831	0.994261	-0.333539
O23	O	0.063502	1.327595	-0.000206
O24	O	0.396835	1.660928	0.333128
O25	O	-0.567632	1.177235	-0.360147
O26	O	-0.234298	1.510568	-0.026813
O27	O	0.099035	1.843901	0.306520
O28	O	-0.269806	1.084681	-0.423943
O29	O	0.063527	1.418014	-0.090610
O30	O	0.396861	1.751347	0.242724
O31	O	-0.439292	0.979024	-0.229361
O32	O	-0.105959	1.312357	0.103973
O33	O	0.227375	1.645691	0.437306
O34	O	-0.439236	0.859751	-0.348648
O35	O	-0.105902	1.193085	-0.015315
O36	O	0.227431	1.526418	0.318019
O37	O	-0.567533	0.967591	-0.569816
O38	O	-0.234199	1.300924	-0.236483
O39	O	0.099134	1.634257	0.096851
O40	O	-0.567566	0.848254	-0.450500
O41	O	-0.234232	1.181588	-0.117166
O42	O	0.099101	1.514921	0.216167
O43	O	-0.439177	1.069507	-0.558368
O44	O	-0.105844	1.402840	-0.225035
O45	O	0.227489	1.736174	0.108299
O46	O	-0.737036	1.042724	-0.375256
O47	O	-0.403703	1.376058	-0.041922
O48	O	-0.070369	1.709391	0.291411
O49	O	-0.736993	0.952353	-0.465638
O50	O	-0.403660	1.285687	-0.132304
O51	O	-0.070327	1.619020	0.201029
C52	C	-0.503399	0.827300	-0.399571
C53	C	-0.170066	1.160634	-0.066238
C54	C	0.163268	1.493967	0.267096
C55	C	-0.503416	0.745500	-0.399581
C56	C	-0.170083	1.078833	-0.066248
C57	C	0.163250	1.412166	0.267086
C58	C	-0.570343	0.551329	-0.452566
C59	C	-0.237010	0.884663	-0.119232
C60	C	0.096324	1.217996	0.214101
C61	C	-0.570346	0.474470	-0.452575
C62	C	-0.237013	0.807804	-0.119242
C63	C	0.096321	1.141137	0.214092
C64	C	-0.436510	0.486431	-0.346640
C65	C	-0.103176	0.819764	-0.013306
C66	C	0.230157	1.153098	0.320027
C67	C	-0.436502	0.563289	-0.346634
C68	C	-0.103168	0.896622	-0.013301
C69	C	0.230165	1.229956	0.320032
C70	C	-0.503424	0.595736	-0.399597
C71	C	-0.170091	0.929069	-0.066263
C72	C	0.163242	1.262402	0.267070
C73	C	-0.503435	0.442019	-0.399612
C74	C	-0.170102	0.775352	-0.066278
C75	C	0.163231	1.108685	0.267055
C76	C	-0.503438	0.358685	-0.399621
C77	C	-0.170105	0.692018	-0.066288
C78	C	0.163228	1.025351	0.267045
C79	C	-0.503420	0.679075	-0.399588
C80	C	-0.170087	1.012408	-0.066254
C81	C	0.163246	1.345742	0.267079
C82	C	-0.774933	0.994156	-0.423847
C83	C	-0.441600	1.327489	-0.090514
C84	C	-0.108266	1.660822	0.242819
C85	C	-0.891089	0.983806	-0.434248
C86	C	-0.557756	1.317140	-0.100915
C87	C	-0.224422	1.650473	0.232419
C88	C	-0.942861	1.023945	-0.394199
C89	C	-0.609528	1.357279	-0.060866
C90	C	-0.276195	1.690612	0.272468
C91	C	-1.062914	1.013250	-0.404947
C92	C	-0.729581	1.346583	-0.071614
C93	C	-0.396248	1.679916	0.261719
C94	C	-0.230840	1.042969	-0.375262
C95	C	0.102493	1.376303	-0.041928
C96	C	0.435827	1.709636	0.291405
C97	C	-0.114684	1.053395	-0.364893
C98	C	0.218649	1.386728	-0.031559
C99	C	0.551982	1.720061	0.301774
C100	C	-0.503345	1.018556	-0.591540
C101	C	-0.170011	1.351890	-0.258207
C102	C	0.163322	1.685223	0.075126
C103	C	-0.503314	1.018578	-0.673337
C104	C	-0.169981	1.351911	-0.340003
C105	C	0.163353	1.685245	-0.006670
C106	C	-0.503435	1.210456	-0.399617
C107	C	-0.170102	1.543789	-0.066284
C108	C	0.163231	1.877123	0.267050
C109	C	-0.503443	1.292254	-0.399627
C110	C	-0.170110	1.625588	-0.066294
C111	C	0.163223	1.958921	0.267040
C112	C	-0.436417	1.071668	-0.855565
C113	C	-0.103084	1.405002	-0.522232
C114	C	0.230250	1.738335	-0.188899
C115	C	-0.436386	1.071680	-0.932421
C116	C	-0.103053	1.405013	-0.599088
C117	C	0.230280	1.738347	-0.265755
C118	C	-0.570049	0.965554	-0.944331
C119	C	-0.236716	1.298888	-0.610998
C120	C	0.096617	1.632221	-0.277665
C121	C	-0.570074	0.965540	-0.867476
C122	C	-0.236740	1.298873	-0.534143
C123	C	0.096593	1.632207	-0.200809
C124	C	-0.503259	1.018601	-0.823095
C125	C	-0.169926	1.351935	-0.489762
C126	C	0.163408	1.685268	-0.156429
C127	C	-0.503204	1.018627	-0.976807
C128	C	-0.169871	1.351960	-0.643473
C129	C	0.163462	1.685294	-0.310140
C130	C	-0.503172	1.018639	-1.060137
C131	C	-0.169838	1.351972	-0.726804
C132	C	0.163495	1.685306	-0.393471
C133	C	-0.503290	1.018589	-0.739759
C134	C	-0.169957	1.351922	-0.406426
C135	C	0.163377	1.685255	-0.073092
C136	C	-0.503413	1.018503	-0.208387
C137	C	-0.170080	1.351836	0.124946
C138	C	0.163254	1.685170	0.458279
C139	C	-0.503149	1.018650	-0.126565
C140	C	-0.169816	1.351983	0.206768
C141	C	0.163517	1.685317	0.540101
H142	H	-0.382002	0.599447	-0.303500
H143	H	-0.048669	0.932780	0.029834
H144	H	0.284664	1.266113	0.363167
Br145	Br	-0.661163	0.595362	-0.524444
Br146	Br	-0.327830	0.928696	-0.191111
Br147	Br	0.005503	1.262029	0.142223
H148	H	-0.898309	1.066232	-0.351957
H149	H	-0.564976	1.399565	-0.018623
H150	H	-0.231643	1.732898	0.314710
Br151	Br	-0.660786	0.893509	-0.823404
Br152	Br	-0.327452	1.226843	-0.490071
Br153	Br	0.005881	1.560176	-0.156738
H154	H	-0.624836	0.438318	-0.495709
H155	H	-0.291503	0.771651	-0.162375
H156	H	0.041830	1.104984	0.170958
H157	H	-1.107465	0.970967	-0.447198
H158	H	-0.774132	1.304300	-0.113864
H159	H	-0.440798	1.637633	0.219469
Br160	Br	-0.345739	1.143678	-0.795336
Br161	Br	-0.012405	1.477011	-0.462003
Br162	Br	0.320928	1.810345	-0.128669
H163	H	-0.382025	0.460003	-0.303519
H164	H	-0.048692	0.793336	0.029815
H165	H	0.284642	1.126670	0.363148
H166	H	-1.070135	1.095684	-0.322648
H167	H	-0.736802	1.429017	0.010686
H168	H	-0.403468	1.762350	0.344019
H169	H	-0.935643	0.941526	-0.476495
H170	H	-0.602310	1.274859	-0.143162
H171	H	-0.268977	1.608193	0.190171
Br172	Br	-0.345676	1.143707	-0.976486
Br173	Br	-0.012342	1.477041	-0.643152
Br174	Br	0.320991	1.810374	-0.309819
H175	H	-0.624450	0.922355	-0.980476
H176	H	-0.291116	1.255689	-0.647142
H177	H	0.042217	1.589022	-0.313809
