data_functionalizedCrystal
_audit_creation_method	'MofGen! by Chris Wilmer'
_symmetry_space_group_name_H-M	'P1'
_symmetry_Int_Tables_number	1
_symmetry_cell_setting	triclinic
loop_
_symmetry_equiv_pos_as_xyz
  x,y,z
_cell_length_a	12.503572
_cell_length_b	17.699083
_cell_length_c	17.699083
_cell_angle_alpha	83.283015
_cell_angle_beta	93.515225
_cell_angle_gamma	86.494917
loop_
_atom_site_label
_atom_site_type_symbol
_atom_site_fract_x
_atom_site_fract_y
_atom_site_fract_z
O1	O	0.089171	-1.008441	-0.091332
O2	O	0.089207	-0.788064	-0.103783
O3	O	0.089179	-0.904478	0.012631
O4	O	0.089200	-0.892027	-0.207746
O5	O	-0.089461	-0.895723	0.003862
O6	O	-0.089433	-0.779309	-0.112552
O7	O	-0.089468	-0.999686	-0.100101
Cu8	Cu	-0.105762	-0.888698	-0.107128
Cu9	Cu	0.105500	-0.899052	-0.096757
O10	O	-0.089440	-0.883272	-0.216516
C11	C	-0.000109	-0.755490	-0.107721
C12	C	-0.000095	-0.671473	-0.106382
N13	N	-0.254352	-0.881421	-0.114421
C14	C	-0.000151	-1.032260	-0.096163
C15	C	-0.000157	-1.116278	-0.097502
C16	C	-0.473465	-0.870717	-0.125157
C17	C	-0.526803	-0.917037	-0.078723
C18	C	-0.648725	-0.911081	-0.084697
C19	C	-0.351532	-0.876672	-0.119185
N20	N	0.254091	-0.906335	-0.089457
C21	C	-0.000141	-0.899655	0.036444
C22	C	-0.000142	-0.898316	0.120462
C23	C	-0.000089	-0.622852	-0.174715
C24	C	-0.000103	-0.543908	-0.173453
C25	C	-0.000116	-0.513587	-0.103857
C26	C	-0.000125	-0.562213	-0.035519
C27	C	-0.000119	-0.641155	-0.036782
C28	C	-0.000152	-0.243849	-0.030425
C29	C	-0.000155	-0.164901	-0.029168
C30	C	-0.000137	-0.146602	-0.167097
C31	C	-0.000130	-0.225544	-0.168359
C32	C	-0.000145	-0.274163	-0.100022
C33	C	-0.000132	-0.359763	-0.101391
C34	C	-0.000121	-0.427989	-0.102487
C35	C	-0.000118	-0.888096	-0.240328
C36	C	-0.000111	-0.889435	-0.324345
C37	C	-0.000154	-0.966649	0.169082
C38	C	-0.000144	-0.965387	0.248026
C39	C	-0.000130	-0.895791	0.278347
C40	C	-0.000114	-0.827453	0.229721
C41	C	-0.000116	-0.828716	0.150779
C42	C	-0.000105	-0.822359	0.548084
C43	C	-0.000106	-0.821101	0.627032
C44	C	-0.000133	-0.959029	0.645331
C45	C	-0.000135	-0.960292	0.566389
C46	C	-0.000113	-0.891955	0.517770
C47	C	-0.000122	-0.893324	0.432171
C48	C	-0.000129	-0.894421	0.363945
H49	H	-0.480901	-0.961167	-0.034484
Cl50	Cl	-0.000083	-0.739962	0.267840
H51	H	-0.000097	-0.504324	-0.229097
H52	H	-0.000152	-1.016964	0.541706
H53	H	-0.519362	-0.826591	-0.169395
Cl54	Cl	-0.000066	-0.660962	-0.262212
Cl55	Cl	-0.000108	-0.263658	-0.255854
Cl56	Cl	-0.000183	-1.054145	0.130971
Cl57	Cl	-0.000163	-1.051295	0.309146
Cl58	Cl	-0.000148	-0.524095	0.051973
Cl59	Cl	-0.000123	-0.085475	-0.253008
Cl60	Cl	-0.000085	-0.733602	0.665149
H61	H	-0.000145	-1.014673	0.684927
H62	H	-0.000123	-0.680742	0.018862
H63	H	-0.000087	-0.766714	0.508508
Cl64	Cl	-0.000172	-0.126784	0.058331
H65	H	-0.000106	-0.773073	0.111192
Cl66	Cl	-0.000170	-0.304960	0.055485
