data_functionalizedCrystal
_audit_creation_method	'MofGen! by Chris Wilmer'
_symmetry_space_group_name_H-M	'P1'
_symmetry_Int_Tables_number	1
_symmetry_cell_setting	triclinic
loop_
_symmetry_equiv_pos_as_xyz
  x,y,z
_cell_length_a	6.817900
_cell_length_b	12.840933
_cell_length_c	12.200863
_cell_angle_alpha	81.743960
_cell_angle_beta	107.143441
_cell_angle_gamma	88.345099
loop_
_atom_site_label
_atom_site_type_symbol
_atom_site_fract_x
_atom_site_fract_y
_atom_site_fract_z
V1	V	-3.917138	0.325322	-0.161416
O2	O	-3.887723	0.319020	0.004976
O3	O	-3.887692	0.323202	-0.317386
O4	O	-3.812583	0.467158	-0.160153
O5	O	-3.963352	0.174067	-0.153345
V6	V	-4.405586	0.307218	-0.141369
O7	O	-4.167592	0.365034	-0.205389
O8	O	-4.605329	0.267505	-0.097395
O9	O	-4.211825	0.309338	0.014601
O10	O	-4.552398	0.313520	-0.307761
O11	O	-4.476769	0.458472	-0.149439
O12	O	-4.286934	0.165381	-0.142632
C13	C	-3.739121	0.318097	-0.355370
C14	C	-3.795958	0.317309	-0.482885
C15	C	-3.643323	0.501726	-0.154798
C16	C	-3.639170	0.619857	-0.154796
C17	C	-4.119536	0.130808	-0.147984
C18	C	-4.102539	0.012676	-0.147983
C19	C	-3.899979	0.315874	-0.716350
C20	C	-3.842086	0.316672	-0.586433
V21	V	-3.900087	0.811486	-0.161423
O22	O	-3.935683	0.962686	-0.153351
O23	O	-3.805680	0.664301	-0.160161
O24	O	-3.869103	0.852994	-0.317391
O25	O	-3.871821	0.772687	0.004967
V26	V	-4.386590	0.848918	-0.141384
O27	O	-4.152480	0.795989	-0.205401
O28	O	-4.583602	0.887101	-0.097412
O29	O	-4.258184	0.984854	-0.142642
O30	O	-4.468185	0.703633	-0.149457
O31	O	-4.532047	0.893632	-0.307776
O32	O	-4.194762	0.796162	0.014588
C33	C	-4.023740	0.314440	0.052579
C34	C	-3.946139	0.315235	0.180093
C35	C	-3.720081	0.860554	-0.355367
C36	C	-3.775583	0.897631	-0.482880
C37	C	-4.007716	0.771634	0.052574
C38	C	-3.931490	0.733520	0.180090
C39	C	-3.982399	0.920500	-0.548655
C40	C	-4.034576	0.955353	-0.668465
C41	C	-3.879933	0.967329	-0.722500
C42	C	-3.673099	0.944460	-0.656717
C43	C	-3.620924	0.909614	-0.536907
C44	C	-3.722320	0.703202	0.234101
C45	C	-3.650665	0.667402	0.353917
C46	C	-3.788186	0.661914	0.419719
C47	C	-3.997374	0.692239	0.365700
C48	C	-4.069023	0.728045	0.245887
H49	H	-4.108345	0.910750	-0.504677
H50	H	-3.480330	0.642714	0.397881
H51	H	-3.547202	0.954216	-0.700730
C52	C	-4.275104	1.013596	-0.857336
C53	C	-4.261935	0.980474	-0.740763
H54	H	-4.415465	1.029106	-0.901963
H55	H	-4.216471	0.959100	-0.885551
H56	H	-4.202333	1.075057	-0.863552
H57	H	-4.334694	0.919007	-0.734545
H58	H	-4.320596	1.034974	-0.712540
H59	H	-3.729819	0.632755	0.517277
C60	C	-3.866735	0.928796	-0.907141
C61	C	-3.937302	1.005622	-0.854201
H62	H	-3.902154	0.952438	-0.988446
H63	H	-3.928762	0.864958	-0.893191
H64	H	-3.721423	0.916904	-0.875699
H65	H	-4.082617	1.017508	-0.885636
H66	H	-3.875283	1.069478	-0.868160
C67	C	-4.041440	0.648349	0.554602
C68	C	-4.148526	0.686191	0.438038
H69	H	-4.134761	0.644604	0.599258
H70	H	-3.939007	0.694740	0.582793
H71	H	-3.977956	0.580029	0.560807
H72	H	-4.211999	0.754515	0.431833
H73	H	-4.250996	0.639799	0.409840
H74	H	-4.239351	0.752723	0.201920
H75	H	-3.452513	0.890991	-0.483362
H76	H	-3.610312	0.707669	0.180541
