data_functionalizedCrystal
_audit_creation_method	'MofGen! by Chris Wilmer'
_symmetry_space_group_name_H-M	'P1'
_symmetry_Int_Tables_number	1
_symmetry_cell_setting	triclinic
loop_
_symmetry_equiv_pos_as_xyz
  x,y,z
_cell_length_a	12.759401
_cell_length_b	12.827892
_cell_length_c	12.827885
_cell_angle_alpha	90.029786
_cell_angle_beta	89.981935
_cell_angle_gamma	89.984447
loop_
_atom_site_label
_atom_site_type_symbol
_atom_site_fract_x
_atom_site_fract_y
_atom_site_fract_z
Zn1	Zn	1.606246	0.415978	-0.590815
Zn2	Zn	1.606139	0.590755	-0.416075
Zn3	Zn	1.430549	0.416029	-0.416092
Zn4	Zn	1.430534	0.590678	-0.590779
O5	O	1.518367	0.503360	-0.503440
O6	O	1.753253	0.439173	-0.567643
O7	O	1.582809	0.567631	-0.269841
O8	O	1.453906	0.269787	-0.439292
O9	O	1.753175	0.567582	-0.439263
O10	O	1.582990	0.269749	-0.567660
O11	O	1.453803	0.439261	-0.269854
O12	O	1.283526	0.439186	-0.439257
O13	O	1.453881	0.567450	-0.737020
O14	O	1.283515	0.567500	-0.567598
O15	O	1.582976	0.439098	-0.737046
O16	O	1.582794	0.736981	-0.439228
O17	O	1.453778	0.736924	-0.567582
C18	C	1.245400	0.503341	-0.503426
C19	C	1.128623	0.503358	-0.503445
C20	C	1.518301	0.774870	-0.503422
C21	C	1.518369	0.891023	-0.503449
C22	C	1.518439	0.503260	-0.776011
C23	C	1.518469	0.503217	-0.892164
C24	C	1.073783	0.570278	-0.570162
C25	C	0.964059	0.570291	-0.570173
C26	C	0.964025	0.436462	-0.436742
C27	C	1.073747	0.436444	-0.436736
C28	C	1.128659	0.637192	-0.636870
C29	C	1.073819	0.704118	-0.703592
C30	C	0.964095	0.704131	-0.703603
C31	C	0.909211	0.637218	-0.636893
C32	C	1.792400	0.503380	-0.503455
C33	C	1.909177	0.503389	-0.503462
C34	C	1.518462	0.230790	-0.503482
C35	C	1.518502	0.114637	-0.503499
C36	C	1.582287	0.942801	-0.440006
C37	C	1.582358	1.062852	-0.440032
C38	C	1.582356	0.439692	-0.943962
C39	C	1.582389	0.439647	-1.064012
C40	C	1.518356	0.503385	-0.231931
C41	C	1.518529	0.503133	-0.115778
H42	H	1.218002	0.637190	-0.636867
Cl43	Cl	1.666844	1.131594	-0.356162
H44	H	0.919447	0.758618	-0.757938
Cl45	Cl	1.142813	0.788226	-0.787457
H46	H	1.463773	1.070117	-0.557815
Cl47	Cl	0.771271	0.637229	-0.636918
Cl48	Cl	1.434050	0.587131	-0.960907
H49	H	1.463705	0.935571	-0.557789
Cl50	Cl	1.666743	0.355746	-0.875219
Cl51	Cl	0.895027	0.352352	-0.352881
H52	H	1.118399	0.381944	-0.382417
Cl53	Cl	1.666702	0.874032	-0.356118
H54	H	1.463834	0.557526	-1.071240
Cl55	Cl	1.666846	0.355680	-1.132780
