data_functionalizedCrystal
_audit_creation_method	'MofGen! by Chris Wilmer'
_symmetry_space_group_name_H-M	'P1'
_symmetry_Int_Tables_number	1
_symmetry_cell_setting	triclinic
loop_
_symmetry_equiv_pos_as_xyz
  x,y,z
_cell_length_a	12.645331
_cell_length_b	25.639239
_cell_length_c	12.645323
_cell_angle_alpha	90.031874
_cell_angle_beta	90.018010
_cell_angle_gamma	90.039097
loop_
_atom_site_label
_atom_site_type_symbol
_atom_site_fract_x
_atom_site_fract_y
_atom_site_fract_z
Zn1	Zn	1.620577	-0.208141	0.599263
Zn2	Zn	2.120577	0.291859	1.099263
Zn3	Zn	1.620393	-0.295580	0.421981
Zn4	Zn	2.120393	0.204420	0.921981
Zn5	Zn	1.443291	-0.208161	0.422021
Zn6	Zn	1.943291	0.291839	0.922021
Zn7	Zn	1.443208	-0.295548	0.599211
Zn8	Zn	1.943208	0.204452	1.099211
O9	O	1.531867	-0.251857	0.510619
O10	O	2.031867	0.248143	1.010619
O11	O	1.768899	-0.219745	0.575751
O12	O	2.268899	0.280255	1.075751
O13	O	1.596858	-0.284005	0.273639
O14	O	2.096858	0.215995	0.773639
O15	O	1.466920	-0.134993	0.445571
O16	O	1.966920	0.365007	0.945571
O17	O	1.768765	-0.283986	0.445503
O18	O	2.268765	0.216014	0.945503
O19	O	1.597171	-0.134978	0.575790
O20	O	2.097171	0.365022	1.075790
O21	O	1.466742	-0.219779	0.273669
O22	O	1.966742	0.280221	0.773669
O23	O	1.294933	-0.219748	0.445521
O24	O	1.794933	0.280252	0.945521
O25	O	1.466778	-0.283931	0.747565
O26	O	1.966778	0.216069	1.247565
O27	O	1.294872	-0.283951	0.575702
O28	O	1.794872	0.216049	1.075702
O29	O	1.597090	-0.219714	0.747603
O30	O	2.097090	0.280286	1.247603
O31	O	1.596778	-0.368741	0.445452
O32	O	2.096778	0.131259	0.945452
O33	O	1.466600	-0.368717	0.575662
O34	O	1.966600	0.131283	1.075662
C35	C	1.256438	-0.251848	0.510611
C36	C	1.756438	0.248152	1.010611
C37	C	1.138607	-0.251857	0.510632
C38	C	1.638607	0.248143	1.010632
C39	C	1.093723	-0.292316	0.592409
C40	C	1.593723	0.207684	1.092409
C41	C	0.971162	-0.292482	0.592166
C42	C	1.471162	0.207518	1.092166
C43	C	0.970643	-0.266573	0.398772
C44	C	1.470643	0.233427	0.898772
C45	C	1.093241	-0.266859	0.399246
C46	C	1.593241	0.233141	0.899246
C47	C	1.093502	-0.196596	0.539739
C48	C	1.593502	0.303404	1.039739
C49	C	0.970897	-0.196901	0.542202
C50	C	1.470897	0.303099	1.042202
C51	C	1.531689	-0.387700	0.510570
C52	C	2.031689	0.112300	1.010570
C53	C	1.531710	-0.445814	0.510585
C54	C	2.031710	0.054186	1.010585
C55	C	1.599827	-0.806177	0.442934
C56	C	2.099827	-0.306177	0.942934
C57	C	1.599868	-0.860781	0.442948
C58	C	2.099868	-0.360781	0.942948
O59	O	1.657600	-0.889017	0.385376
O60	O	2.157600	-0.389017	0.885376
N61	N	1.532054	-0.888096	0.510689
N62	N	2.032054	-0.388096	1.010689
C63	C	1.464201	-0.860805	0.578428
C64	C	1.964201	-0.360805	1.078428
O65	O	1.406523	-0.889053	0.636049
O66	O	1.906523	-0.389053	1.136049
C67	C	1.464166	-0.806201	0.578418
C68	C	1.964166	-0.306201	1.078418
C69	C	1.531978	-0.778889	0.510665
C70	C	2.031978	-0.278889	1.010665
C71	C	1.667635	-0.778864	0.375188
C72	C	2.167635	-0.278864	0.875188
C73	C	1.667592	-0.724263	0.375172
C74	C	2.167592	-0.224263	0.875172
C75	C	1.599742	-0.696976	0.442904
C76	C	2.099742	-0.196976	0.942904
C77	C	1.531935	-0.724288	0.510650
C78	C	2.031935	-0.224288	1.010650
C79	C	1.396319	-0.778911	0.646162
C80	C	1.896319	-0.278911	1.146162
C81	C	1.396290	-0.724304	0.646147
C82	C	1.896290	-0.224304	1.146147
C83	C	1.464102	-0.696991	0.578394
C84	C	1.964102	-0.196991	1.078394
C85	C	1.464042	-0.642400	0.578366
C86	C	1.964042	-0.142400	1.078366
N87	N	1.531857	-0.615084	0.510625
N88	N	2.031857	-0.115084	1.010625
C89	C	1.599707	-0.642372	0.442894
C90	C	2.099707	-0.142372	0.942894
C91	C	1.464281	-0.975475	0.578444
C92	C	1.964281	-0.475475	1.078444
C93	C	1.464309	-1.030078	0.578449
C94	C	1.964309	-0.530078	1.078449
C95	C	1.599979	-1.030050	0.442971
C96	C	2.099979	-0.530050	0.942971
C97	C	1.599944	-0.975447	0.442961
C98	C	2.099944	-0.475447	0.942961
C99	C	1.532095	-0.948160	0.510703
C100	C	2.032095	-0.448160	1.010703
C101	C	1.599611	-0.527707	0.442866
C102	C	2.099611	-0.027707	0.942866
C103	C	1.599560	-0.473102	0.442854
C104	C	2.099560	0.026898	0.942854
C105	C	1.463894	-0.473134	0.578336
C106	C	1.963894	0.026866	1.078336
C107	C	1.463942	-0.527735	0.578345
C108	C	1.963942	-0.027735	1.078345
C109	C	1.531809	-0.555020	0.510606
C110	C	2.031809	-0.055020	1.010606
O111	O	1.406343	-0.614129	0.635912
O112	O	1.906343	-0.114129	1.135912
O113	O	1.657385	-0.614118	0.385293
O114	O	2.157385	-0.114118	0.885293
C115	C	1.808372	-0.251867	0.510628
C116	C	2.308372	0.248133	1.010628
C117	C	1.926202	-0.251871	0.510632
C118	C	2.426202	0.248129	1.010632
C119	C	1.531945	-0.251817	0.787124
C120	C	2.031945	0.248183	1.287124
C121	C	1.531979	-0.251800	0.904955
C122	C	2.031979	0.248200	1.404955
C123	C	1.532075	-0.115484	0.510691
C124	C	2.032075	0.384516	1.010691
C125	C	1.532164	-0.057370	0.510722
C126	C	2.032164	0.442630	1.010722
C127	C	1.531850	-0.251860	0.235189
C128	C	2.031850	0.248140	0.735189
C129	C	1.532023	-0.251730	0.117360
C130	C	2.032023	0.248270	0.617360
C131	C	1.449747	-0.292009	1.072495
C132	C	1.949747	0.207991	1.572495
C133	C	1.449962	-0.292208	0.949935
C134	C	1.949962	0.207792	1.449935
C135	C	1.643667	-0.266752	0.949462
C136	C	2.143667	0.233248	1.449462
C137	C	1.643216	-0.267005	1.072060
C138	C	2.143216	0.232995	1.572060
C139	C	1.503578	-0.196413	1.072168
C140	C	2.003578	0.303587	1.572168
C141	C	1.501086	-0.196745	0.949562
C142	C	2.001086	0.303255	1.449562
H143	H	1.122533	-0.166455	0.480183
H144	H	1.622533	0.333545	0.980183
H145	H	1.124470	-0.333032	0.573332
H146	H	1.624470	0.166968	1.073332
H147	H	1.423555	-0.182783	1.103082
H148	H	1.923555	0.317217	1.603082
H149	H	0.939884	-0.306522	0.373754
H150	H	1.439884	0.193478	0.873754
H151	H	1.409080	-1.052311	0.633611
H152	H	1.909080	-0.552311	1.133611
H153	H	1.668196	-0.306766	0.918761
H154	H	2.168196	0.193234	1.418761
H155	H	1.468736	-0.333216	0.920609
H156	H	1.968736	0.166784	1.420609
H157	H	1.408648	-0.450908	0.633479
H158	H	1.908648	0.049092	1.133479
H159	H	1.667331	-0.307442	1.100659
H160	H	2.167331	0.192558	1.600659
H161	H	1.418893	-0.185469	0.920472
H162	H	1.918893	0.314531	1.420472
H163	H	1.556637	-0.165149	0.918944
H164	H	2.056637	0.334851	1.418944
H165	H	1.706594	-0.238941	1.101740
H166	H	2.206594	0.261059	1.601740
H167	H	1.123248	-0.283250	0.675595
H168	H	1.623248	0.216750	1.175595
H169	H	1.563505	-0.166404	1.101185
H170	H	2.063505	0.333596	1.601185
H171	H	0.941116	-0.283311	0.675094
H172	H	1.441116	0.216689	1.175094
H173	H	1.706611	-0.238343	0.920328
H174	H	2.206611	0.261657	1.420328
H175	H	0.941774	-0.333435	0.572855
H176	H	1.441774	0.166565	1.072855
H177	H	1.654878	-0.549916	0.387710
H178	H	2.154878	-0.049916	0.887710
H179	H	0.941857	-0.185810	0.624524
H180	H	1.441857	0.314190	1.124524
H181	H	1.367140	-0.282851	0.919842
H182	H	1.867140	0.217149	1.419842
H183	H	1.121775	-0.307247	0.374646
H184	H	1.621775	0.192753	0.874646
H185	H	1.654780	-0.450866	0.387678
H186	H	2.154780	0.049134	0.887678
H187	H	1.722813	-0.702029	0.320005
H188	H	2.222813	-0.202029	0.820005
H189	H	1.722892	-0.801076	0.320032
H190	H	2.222892	-0.301076	0.820032
H191	H	1.655163	-0.953212	0.387792
H192	H	2.155163	-0.453212	0.887792
H193	H	1.122933	-0.238650	0.336225
H194	H	1.622933	0.261350	0.836225
H195	H	0.941521	-0.238010	0.336168
H196	H	1.441521	0.261990	0.836168
H197	H	1.366679	-0.282742	1.101977
H198	H	1.866679	0.217258	1.601977
H199	H	1.409021	-0.953261	0.633605
H200	H	1.909021	-0.453261	1.133605
H201	H	1.124468	-0.183162	0.619933
H202	H	1.624468	0.316838	1.119933
H203	H	1.655230	-1.052278	0.387824
H204	H	2.155230	-0.552278	0.887824
H205	H	1.341094	-0.801139	0.701328
H206	H	1.841094	-0.301139	1.201328
H207	H	1.468338	-0.332761	1.103302
H208	H	1.968338	0.167239	1.603302
H209	H	1.341041	-0.702089	0.701314
H210	H	1.841041	-0.202089	1.201314
H211	H	1.408727	-0.549974	0.633518
H212	H	1.908727	-0.049974	1.133518
H213	H	0.940296	-0.165167	0.487030
H214	H	1.440296	0.334833	0.987030
