data_functionalizedCrystal
_audit_creation_method	'MofGen! by Chris Wilmer'
_symmetry_space_group_name_H-M	'P1'
_symmetry_Int_Tables_number	1
_symmetry_cell_setting	triclinic
loop_
_symmetry_equiv_pos_as_xyz
  x,y,z
_cell_length_a	23.532357
_cell_length_b	23.532407
_cell_length_c	22.610064
_cell_angle_alpha	89.990066
_cell_angle_beta	90.010031
_cell_angle_gamma	97.161515
loop_
_atom_site_label
_atom_site_type_symbol
_atom_site_fract_x
_atom_site_fract_y
_atom_site_fract_z
O1	O	0.069135	-0.755256	0.049118
O2	O	0.569135	-0.255256	0.549118
O3	O	0.079139	-0.589391	0.049136
O4	O	0.579139	-0.089391	0.549136
O5	O	-0.008797	-0.677340	0.049114
O6	O	0.491203	-0.177340	0.549114
O7	O	0.157071	-0.667307	0.049140
O8	O	0.657071	-0.167307	0.549140
O9	O	-0.008797	-0.677314	-0.049255
O10	O	0.491203	-0.177314	0.450745
O11	O	0.079139	-0.589365	-0.049233
O12	O	0.579139	-0.089365	0.450767
O13	O	0.069135	-0.755231	-0.049251
O14	O	0.569135	-0.255231	0.450749
Zn15	Zn	0.074137	-0.672294	-0.064860
Zn16	Zn	0.574137	-0.172294	0.435140
Zn17	Zn	0.074137	-0.672328	0.064745
Zn18	Zn	0.574137	-0.172328	0.564745
O19	O	0.157071	-0.667281	-0.049229
O20	O	0.657071	-0.167281	0.450771
C21	C	0.078884	-0.568162	-0.000046
C22	C	0.578884	-0.068162	0.499954
C23	C	0.078118	-0.504945	-0.000040
C24	C	0.578118	-0.004945	0.499960
C25	C	-0.030013	-0.677076	-0.000072
C26	C	0.469987	-0.177076	0.499928
C27	C	-0.093232	-0.676322	-0.000078
C28	C	0.406768	-0.176322	0.499922
N29	N	0.074137	-0.672275	-0.153313
N30	N	0.574137	-0.172275	0.346687
C31	C	-0.485243	-0.671599	0.053576
C32	C	0.014757	-0.171599	0.553576
C33	C	-0.544643	-0.670882	0.053579
C34	C	-0.044643	-0.170882	0.553579
O35	O	-0.575359	-0.670503	0.099182
O36	O	-0.075359	-0.170503	0.599182
N37	N	-0.574354	-0.670512	-0.000041
N38	N	-0.074354	-0.170512	0.499959
C39	C	-0.544662	-0.670854	-0.053668
C40	C	-0.044662	-0.170854	0.446332
O41	O	-0.575388	-0.670473	-0.099276
O42	O	-0.075388	-0.170473	0.400724
C43	C	-0.485263	-0.671567	-0.053671
C44	C	0.014737	-0.171567	0.446329
C45	C	-0.455556	-0.671943	-0.000047
C46	C	0.044444	-0.171943	0.499953
C47	C	-0.455536	-0.671974	0.107195
C48	C	0.044464	-0.171974	0.607195
C49	C	-0.396141	-0.672692	0.107192
C50	C	0.103859	-0.172692	0.607192
C51	C	-0.366453	-0.673036	0.053569
C52	C	0.133547	-0.173036	0.553569
C53	C	-0.396160	-0.672661	-0.000051
C54	C	0.103840	-0.172661	0.499949
C55	C	-0.455571	-0.671905	-0.107298
C56	C	0.044429	-0.171905	0.392702
C57	C	-0.396168	-0.672618	-0.107296
C58	C	0.103832	-0.172618	0.392704
C59	C	-0.366461	-0.672993	-0.053672
C60	C	0.133539	-0.172993	0.446328
C61	C	-0.307077	-0.673723	-0.053678
C62	C	0.192923	-0.173723	0.446322
N63	N	-0.277366	-0.674092	-0.000057
N64	N	0.222634	-0.174092	0.499943
C65	C	-0.307054	-0.673749	0.053566
C66	C	0.192946	-0.173749	0.553566
C67	C	-0.669403	-0.669355	-0.053658
C68	C	-0.169403	-0.169355	0.446342
C69	C	-0.728802	-0.668646	-0.053656
C70	C	-0.228802	-0.168646	0.446344
C71	C	-0.728778	-0.668673	0.053592
C72	C	-0.228778	-0.168673	0.553592
C73	C	-0.669380	-0.669386	0.053589
C74	C	-0.169380	-0.169386	0.553589
C75	C	-0.639692	-0.669725	-0.000038
C76	C	-0.139692	-0.169725	0.499962
C77	C	-0.182320	-0.675258	0.053554
C78	C	0.317680	-0.175258	0.553554
C79	C	-0.122920	-0.675978	0.053545
C80	C	0.377080	-0.175978	0.553545
C81	C	-0.122948	-0.675948	-0.053702
C82	C	0.377052	-0.175948	0.446298
C83	C	-0.182343	-0.675231	-0.053694
C84	C	0.317657	-0.175231	0.446306
C85	C	-0.212027	-0.674883	-0.000061
C86	C	0.287973	-0.174883	0.499939
O87	O	-0.276323	-0.674099	-0.099257
O88	O	0.223677	-0.174099	0.400743
O89	O	-0.276320	-0.674122	0.099166
O90	O	0.223680	-0.174122	0.599166
C91	C	0.178287	-0.667545	-0.000042
C92	C	0.678287	-0.167545	0.499958
C93	C	0.241506	-0.668300	-0.000032
C94	C	0.741506	-0.168300	0.499968
C95	C	0.069390	-0.776459	-0.000068
C96	C	0.569390	-0.276459	0.499932
C97	C	0.070156	-0.839676	-0.000070
C98	C	0.570156	-0.339676	0.499930
C99	C	0.125353	-0.105834	-0.000059
C100	C	0.625353	0.394166	0.499941
C101	C	0.124641	-0.046434	-0.000063
C102	C	0.624641	0.453566	0.499937
O103	O	0.168428	-0.009681	-0.000078
O104	O	0.668428	0.490319	0.499922
N105	N	0.072364	-0.023817	-0.000070
N106	N	0.572364	0.476183	0.499930
C107	C	0.020794	-0.060604	-0.000079
C108	C	0.520794	0.439396	0.499921
O109	O	-0.023737	-0.035912	-0.000086
O110	O	0.476263	0.464088	0.499914
C111	C	0.021506	-0.120003	-0.000080
C112	C	0.521506	0.379997	0.499920
C113	C	0.073787	-0.142616	-0.000067
C114	C	0.573787	0.357384	0.499933
C115	C	0.177629	-0.128448	-0.000047
C116	C	0.677629	0.371552	0.499953
C117	C	0.178341	-0.187844	-0.000042
C118	C	0.678341	0.312156	0.499958
C119	C	0.126775	-0.224626	-0.000050
C120	C	0.626775	0.275374	0.499950
C121	C	0.074498	-0.202012	-0.000062
C122	C	0.574498	0.297988	0.499938
C123	C	-0.030063	-0.156788	-0.000093
C124	C	0.469937	0.343212	0.499907
C125	C	-0.029346	-0.216191	-0.000094
C126	C	0.470654	0.283809	0.499906
C127	C	0.022935	-0.238804	-0.000081
C128	C	0.522935	0.261196	0.499919
C129	C	0.023644	-0.298190	-0.000065
C130	C	0.523644	0.201810	0.499935
N131	N	0.075922	-0.320807	-0.000058
N132	N	0.575922	0.179193	0.499942
C133	C	0.127487	-0.284025	-0.000050
C134	C	0.627487	0.215975	0.499950
C135	C	0.019303	0.064139	-0.000079
C136	C	0.519303	0.564139	0.499921
C137	C	0.018590	0.123536	-0.000075
C138	C	0.518590	0.623536	0.499925
C139	C	0.122437	0.137702	-0.000059
C140	C	0.622437	0.637702	0.499941
C141	C	0.123149	0.078303	-0.000060
C142	C	0.623149	0.578303	0.499940
C143	C	0.071580	0.041522	-0.000072
C144	C	0.571580	0.541522	0.499928
C145	C	0.128977	-0.408761	-0.000040
C146	C	0.628977	0.091239	0.499960
C147	C	0.129684	-0.468163	-0.000032
C148	C	0.629684	0.031837	0.499968
C149	C	0.025836	-0.482324	-0.000051
C150	C	0.525836	0.017676	0.499949
C151	C	0.025130	-0.422927	-0.000055
C152	C	0.525130	0.077073	0.499945
C153	C	0.076704	-0.386147	-0.000051
C154	C	0.576704	0.113853	0.499949
O155	O	-0.020120	-0.334977	-0.000052
O156	O	0.479880	0.165023	0.499948
O157	O	0.172011	-0.308725	-0.000051
O158	O	0.672011	0.191275	0.499949
C159	C	0.108498	-0.706666	-0.561953
C160	C	0.608498	-0.206666	-0.061953
C161	C	0.108497	-0.706673	-0.623873
C162	C	0.608497	-0.206673	-0.123873
O163	O	0.137709	-0.735891	-0.655890
O164	O	0.637709	-0.235891	-0.155890
N165	N	0.074130	-0.672339	-0.654850
N166	N	0.574130	-0.172339	-0.154850
C167	C	0.039759	-0.637999	-0.623904
C168	C	0.539759	-0.137999	-0.123904
O169	O	0.010527	-0.608796	-0.655939
O170	O	0.510527	-0.108796	-0.155939
C171	C	0.039757	-0.637995	-0.561985
C172	C	0.539757	-0.137995	-0.061985
C173	C	0.074131	-0.672328	-0.531011
C174	C	0.574131	-0.172328	-0.031011
C175	C	0.142868	-0.740996	-0.530979
C176	C	0.642868	-0.240996	-0.030979
C177	C	0.142870	-0.740988	-0.469063
C178	C	0.642870	-0.240988	0.030937
C179	C	0.108502	-0.706650	-0.438122
C180	C	0.608502	-0.206650	0.061878
C181	C	0.074133	-0.672320	-0.469096
C182	C	0.574133	-0.172320	0.030904
C183	C	0.005383	-0.603659	-0.531041
C184	C	0.505383	-0.103659	-0.031041
C185	C	0.005385	-0.603659	-0.469118
C186	C	0.505385	-0.103659	0.030882
C187	C	0.039758	-0.637991	-0.438144
C188	C	0.539758	-0.137991	0.061856
C189	C	0.039767	-0.637973	-0.376239
C190	C	0.539767	-0.137973	0.123761
N191	N	0.074133	-0.672308	-0.345261
N192	N	0.574133	-0.172308	0.154739
C193	C	0.108501	-0.706646	-0.376203
C194	C	0.608501	-0.206646	0.123797
C195	C	0.039763	-0.638010	-0.753938
C196	C	0.539763	-0.138010	-0.253938
C197	C	0.039767	-0.638010	-0.815855
C198	C	0.539767	-0.138010	-0.315855
C199	C	0.108504	-0.706686	-0.815820
C200	C	0.608504	-0.206686	-0.315820
C201	C	0.108503	-0.706682	-0.753901
C202	C	0.608503	-0.206682	-0.253901
C203	C	0.074130	-0.672345	-0.722961
C204	C	0.574130	-0.172345	-0.222961
C205	C	0.108503	-0.706626	-0.246175
C206	C	0.608503	-0.206626	0.253825
C207	C	0.108504	-0.706613	-0.184254
C208	C	0.608504	-0.206613	0.315746
C209	C	0.039765	-0.637940	-0.184295
C210	C	0.539765	-0.137940	0.315705
C211	C	0.039766	-0.637951	-0.246211
C212	C	0.539766	-0.137951	0.253789
C213	C	0.074137	-0.672298	-0.277150
C214	C	0.574137	-0.172298	0.222850
O215	O	0.010568	-0.608772	-0.344182
O216	O	0.510568	-0.108772	0.155818
O217	O	0.137722	-0.735850	-0.344161
O218	O	0.637722	-0.235850	0.155839
N219	N	0.074133	-0.672351	0.153198
N220	N	0.574133	-0.172351	0.653198
H221	H	-0.098735	-0.676285	0.097214
H222	H	0.401265	-0.176285	0.597214
H223	H	-0.016147	-0.512282	-0.000055
H224	H	0.483853	-0.012282	0.499945
O225	O	-0.032160	0.145567	-0.000158
O226	O	0.467840	0.645567	0.499842
C227	C	-0.035690	0.179496	-0.051114
C228	C	0.464310	0.679496	0.448886
H229	H	0.009282	0.194552	-0.068094
H230	H	0.509282	0.694552	0.431906
H231	H	-0.061038	0.153109	-0.086791
H232	H	0.438962	0.653109	0.413209
C233	C	-0.121294	0.213370	-0.014790
C234	C	0.378706	0.713370	0.485210
C235	C	-0.066057	0.231866	-0.035643
C236	C	0.433943	0.731866	0.464357
H237	H	-0.140028	0.245674	-0.005248
H238	H	0.359972	0.745674	0.494752
H239	H	-0.118917	0.190511	0.019539
H240	H	0.381083	0.690511	0.519539
H241	H	-0.142410	0.191381	-0.044524
H242	H	0.357590	0.691381	0.455476
H243	H	-0.044941	0.253849	-0.005906
H244	H	0.455059	0.753849	0.494094
H245	H	-0.068431	0.254731	-0.069966
H246	H	0.431569	0.754731	0.430034
H247	H	0.011784	-0.609987	-0.271432
H248	H	0.511784	-0.109987	0.228568
H249	H	0.172259	-0.486571	-0.000021
H250	H	0.672259	0.013429	0.499979
H251	H	0.136489	-0.734645	-0.841024
H252	H	0.636489	-0.234645	-0.341024
H253	H	-0.645196	-0.669691	0.097254
H254	H	-0.145196	-0.169691	0.597254
H255	H	-0.072635	-0.138388	-0.000105
H256	H	0.427365	0.361612	0.499895
O257	O	-0.367239	-0.673095	0.159250
O258	O	0.132761	-0.173095	0.659250
C259	C	-0.339555	-0.722801	0.162493
C260	C	0.160445	-0.222801	0.662493
H261	H	-0.362168	-0.757114	0.132124
H262	H	0.137832	-0.257114	0.632124
H263	H	-0.293035	-0.712168	0.148036
H264	H	0.206965	-0.212168	0.648036
C265	C	-0.313837	-0.702964	0.263885
C266	C	0.186163	-0.202964	0.763885
C267	C	-0.341613	-0.745109	0.226590
C268	C	0.158387	-0.245109	0.726590
H269	H	-0.315104	-0.716724	0.303424
H270	H	0.184896	-0.216724	0.803424
H271	H	-0.332486	-0.669475	0.261701
H272	H	0.167514	-0.169475	0.761701
H273	H	-0.275072	-0.694107	0.251831
H274	H	0.224928	-0.194107	0.751831
H275	H	-0.380379	-0.753960	0.238641
H276	H	0.119621	-0.253960	0.738641
H277	H	-0.322971	-0.778601	0.228778
H278	H	0.177029	-0.278601	0.728778
O279	O	-0.079428	-0.251942	-0.000208
O280	O	0.420572	0.248058	0.499792
C281	C	-0.082119	-0.286730	-0.051145
C282	C	0.417881	0.213270	0.448855
H283	H	-0.052866	-0.264809	-0.086750
H284	H	0.447134	0.235191	0.413250
H285	H	-0.067635	-0.329847	-0.039620
H286	H	0.432365	0.170153	0.460380
C287	C	-0.180069	-0.323023	-0.030527
C288	C	0.319931	0.176977	0.469473
C289	C	-0.144144	-0.296097	-0.074259
C290	C	0.355856	0.203903	0.425741
H291	H	-0.218329	-0.328803	-0.044784
H292	H	0.281671	0.171197	0.455216
H293	H	-0.178256	-0.299588	0.003791
H294	H	0.321744	0.200412	0.503791
H295	H	-0.167992	-0.358951	-0.020927
H296	H	0.332008	0.141049	0.479073
H297	H	-0.156217	-0.260166	-0.083853
H298	H	0.343783	0.239834	0.416147
H299	H	-0.145961	-0.319526	-0.108579
H300	H	0.354039	0.180474	0.391421
H301	H	0.219623	-0.098505	-0.000043
H302	H	0.719623	0.401495	0.499957
H303	H	0.170974	-0.378821	-0.000039
H304	H	0.670974	0.121179	0.499961
O305	O	0.229177	-0.209711	-0.000063
O306	O	0.729177	0.290289	0.499937
C307	C	0.274531	-0.164500	-0.000044
C308	C	0.774531	0.335500	0.499956
H309	H	0.258792	-0.124235	-0.018668
H310	H	0.758792	0.375765	0.481332
H311	H	0.290423	-0.156010	0.047149
H312	H	0.790423	0.343990	0.547149
C313	C	0.343195	-0.230425	-0.015746
C314	C	0.843195	0.269575	0.484254
C315	C	0.323866	-0.180973	-0.038624
C316	C	0.823866	0.319027	0.461376
H317	H	0.373628	-0.240587	-0.039541
H318	H	0.873628	0.259413	0.460459
H319	H	0.312640	-0.260886	-0.015756
H320	H	0.812640	0.239114	0.484244
H321	H	0.356435	-0.223344	0.023582
H322	H	0.856435	0.276656	0.523582
H323	H	0.310620	-0.188057	-0.077948
H324	H	0.810620	0.311943	0.422052
H325	H	0.354420	-0.150514	-0.038621
H326	H	0.854420	0.349486	0.461379
H327	H	-0.206481	-0.674972	0.097227
H328	H	0.293519	-0.174972	0.597227
H329	H	-0.017442	-0.404515	-0.000057
H330	H	0.482558	0.095485	0.499943
H331	H	0.011784	-0.610046	-0.841069
H332	H	0.511784	-0.110046	-0.341069
O333	O	-0.484285	-0.671669	0.159342
O334	O	0.015715	-0.171669	0.659342
C335	C	-0.445313	-0.672137	0.206659
C336	C	0.054687	-0.172137	0.706659
H337	H	-0.405437	-0.690670	0.190923
H338	H	0.094563	-0.190670	0.690923
H339	H	-0.432756	-0.626522	0.223156
H340	H	0.067244	-0.126522	0.723156
C341	C	-0.522548	-0.686469	0.276647
C342	C	-0.022548	-0.186469	0.776647
C343	C	-0.473574	-0.709236	0.257321
C344	C	0.026426	-0.209236	0.757321
H345	H	-0.539980	-0.709351	0.307899
H346	H	-0.039980	-0.209351	0.807899
H347	H	-0.548804	-0.686151	0.244769
H348	H	-0.048804	-0.186151	0.744769
H349	H	-0.512076	-0.648457	0.290390
H350	H	-0.012076	-0.148457	0.790390
H351	H	-0.484046	-0.747244	0.243572
H352	H	0.015954	-0.247244	0.743572
H353	H	-0.447320	-0.709561	0.289198
H354	H	0.052680	-0.209561	0.789198
O355	O	0.006362	-0.604593	-0.723976
O356	O	0.506362	-0.104593	-0.223976
C357	C	-0.023977	-0.574303	-0.764601
C358	C	0.476023	-0.074303	-0.264601
H359	H	-0.000379	-0.570850	-0.808733
H360	H	0.499621	-0.070850	-0.308733
H361	H	-0.068802	-0.598026	-0.771191
H362	H	0.431198	-0.098026	-0.271191
C363	C	-0.057427	-0.518075	-0.686257
C364	C	0.442573	-0.018075	-0.186257
C365	C	-0.028441	-0.513830	-0.740459
C366	C	0.471559	-0.013830	-0.240459
H367	H	-0.060183	-0.480773	-0.671365
H368	H	0.439817	0.019227	-0.171365
H369	H	-0.036989	-0.538483	-0.658887
H370	H	0.463011	-0.038483	-0.158887
H371	H	-0.094779	-0.537846	-0.691756
H372	H	0.405221	-0.037846	-0.191756
H373	H	0.008912	-0.494065	-0.734959
H374	H	0.508912	0.005935	-0.234959
H375	H	-0.048872	-0.493417	-0.767828
H376	H	0.451128	0.006583	-0.267828
H377	H	-0.752961	-0.668391	0.097255
H378	H	-0.252961	-0.168391	0.597255
H379	H	-0.479749	-0.671600	-0.150964
H380	H	0.020251	-0.171600	0.349036
O381	O	0.141962	-0.739880	-0.154141
O382	O	0.641962	-0.239880	0.345859
C383	C	0.180995	-0.704924	-0.118320
C384	C	0.680995	-0.204924	0.381680
H385	H	0.187337	-0.659574	-0.136990
H386	H	0.687337	-0.159574	0.363010
H387	H	0.163405	-0.704064	-0.071394
H388	H	0.663405	-0.204064	0.428606
C389	C	0.231036	-0.784865	-0.094427
C390	C	0.731036	-0.284865	0.405573
C391	C	0.238829	-0.729166	-0.117362
C392	C	0.738829	-0.229166	0.382638
H393	H	0.266710	-0.799819	-0.093833
H394	H	0.766710	-0.299819	0.406167
H395	H	0.204738	-0.808416	-0.118559
H396	H	0.704738	-0.308416	0.381441
H397	H	0.216376	-0.784140	-0.055325
H398	H	0.716376	-0.284140	0.444675
H399	H	0.253481	-0.729892	-0.156466
H400	H	0.753481	-0.229892	0.343534
H401	H	0.265131	-0.705615	-0.093236
H402	H	0.765131	-0.205615	0.406764
O403	O	0.006446	-0.604502	-0.154258
O404	O	0.506446	-0.104502	0.345742
C405	C	0.022501	-0.546604	-0.169404
C406	C	0.522501	-0.046604	0.330596
H407	H	0.068457	-0.540820	-0.186423
H408	H	0.568457	-0.040820	0.313577
H409	H	-0.007296	-0.533564	-0.205349
H410	H	0.492704	-0.033564	0.294651
C411	C	-0.038235	-0.515891	-0.093502
C412	C	0.461765	-0.015891	0.406498
C413	C	0.018211	-0.508786	-0.114400
C414	C	0.518211	-0.008786	0.385600
H415	H	-0.040883	-0.492563	-0.059574
H416	H	0.459117	0.007437	0.440426
H417	H	-0.049053	-0.554898	-0.083298
H418	H	0.450947	-0.054898	0.416702
H419	H	-0.063059	-0.505025	-0.123461
H420	H	0.436941	-0.005025	0.376539
H421	H	0.043033	-0.519659	-0.084444
H422	H	0.543033	-0.019659	0.415556
H423	H	0.029033	-0.469780	-0.124597
H424	H	0.529033	0.030220	0.375403
O425	O	0.141945	-0.740004	-0.276132
O426	O	0.641945	-0.240004	0.223868
C427	C	0.172267	-0.770310	-0.235505
C428	C	0.672267	-0.270310	0.264495
H429	H	0.175704	-0.746705	-0.191376
H430	H	0.675704	-0.246705	0.308624
H431	H	0.148579	-0.815149	-0.228908
H432	H	0.648579	-0.315149	0.271092
C433	C	0.228522	-0.803720	-0.313849
C434	C	0.728522	-0.303720	0.186151
C435	C	0.232748	-0.774726	-0.259651
C436	C	0.732748	-0.274726	0.240349
H437	H	0.265828	-0.806447	-0.328744
H438	H	0.765828	-0.306447	0.171256
H439	H	0.208092	-0.783304	-0.341221
H440	H	0.708092	-0.283304	0.158779
H441	H	0.208780	-0.841083	-0.308344
H442	H	0.708780	-0.341083	0.191656
H443	H	0.252483	-0.737361	-0.265158
H444	H	0.752483	-0.237361	0.234842
H445	H	0.253182	-0.795135	-0.232281
H446	H	0.753182	-0.295135	0.267719
H447	H	-0.371999	-0.672885	-0.150966
H448	H	0.128001	-0.172885	0.349034
O449	O	-0.757704	-0.668204	-0.105711
O450	O	-0.257704	-0.168204	0.394289
C451	C	-0.785310	-0.618446	-0.108918
C452	C	-0.285310	-0.118446	0.391082
H453	H	-0.791964	-0.601910	-0.062358
H454	H	-0.291964	-0.101910	0.437642
H455	H	-0.757696	-0.584171	-0.135366
H456	H	-0.257696	-0.084171	0.364634
C457	C	-0.835604	-0.653040	-0.196777
C458	C	-0.335604	-0.153040	0.303223
C459	C	-0.843781	-0.632733	-0.139591
C460	C	-0.343781	-0.132733	0.360409
H461	H	-0.871671	-0.661852	-0.215700
H462	H	-0.371671	-0.161852	0.284300
H463	H	-0.817005	-0.686562	-0.194618
H464	H	-0.317005	-0.186562	0.305382
H465	H	-0.812591	-0.624474	-0.218809
H466	H	-0.312591	-0.124474	0.281191
H467	H	-0.866787	-0.661302	-0.117557
H468	H	-0.366787	-0.161302	0.382443
H469	H	-0.862386	-0.599217	-0.141747
H470	H	-0.362386	-0.099217	0.358253
O471	O	0.172545	0.173415	0.000048
O472	O	0.672545	0.673415	0.500048
C473	C	0.204318	0.163199	0.050990
C474	C	0.704318	0.663199	0.550990
H475	H	0.174138	0.142718	0.086597
H476	H	0.674138	0.642718	0.586597
H477	H	0.237110	0.133143	0.039477
H478	H	0.737110	0.633143	0.539477
C479	C	0.272566	0.245461	0.030357
C480	C	0.772566	0.745461	0.530357
C481	C	0.235497	0.220311	0.074092
C482	C	0.735497	0.720311	0.574092
H483	H	0.291801	0.280689	0.044607
H484	H	0.791801	0.780689	0.544607
H485	H	0.251162	0.252343	-0.003965
H486	H	0.751162	0.752343	0.496035
H487	H	0.299887	0.220409	0.020767
H488	H	0.799887	0.720409	0.520767
H489	H	0.208172	0.245359	0.083677
H490	H	0.708172	0.745359	0.583677
H491	H	0.256897	0.213434	0.108417
H492	H	0.756897	0.713434	0.608417
H493	H	-0.022608	-0.575702	-0.556249
H494	H	0.477392	-0.075702	-0.056249
H495	H	-0.645236	-0.669633	-0.097330
H496	H	-0.145236	-0.169633	0.402670
O497	O	0.176270	-0.774398	-0.439071
O498	O	0.676270	-0.274398	0.060929
C499	C	0.206608	-0.804694	-0.479669
C500	C	0.706608	-0.304694	0.020331
H501	H	0.183010	-0.808151	-0.523808
H502	H	0.683010	-0.308151	-0.023808
H503	H	0.251434	-0.780973	-0.486252
H504	H	0.751434	-0.280973	0.013748
C505	C	0.240054	-0.860914	-0.401284
C506	C	0.740054	-0.360914	0.098716
C507	C	0.211068	-0.865165	-0.455496
C508	C	0.711068	-0.365165	0.044504
H509	H	0.242808	-0.898215	-0.386372
H510	H	0.742808	-0.398215	0.113628
H511	H	0.219617	-0.840502	-0.373932
H512	H	0.719617	-0.340502	0.126068
H513	H	0.277406	-0.841145	-0.406777
H514	H	0.777406	-0.341145	0.093223
H515	H	0.173715	-0.884927	-0.450000
H516	H	0.673715	-0.384927	0.050000
H517	H	0.231500	-0.885582	-0.482846
H518	H	0.731500	-0.385582	0.017154
H519	H	0.170854	-0.768962	-0.556165
H520	H	0.670854	-0.268962	-0.056165
O521	O	-0.027939	-0.570214	-0.439090
O522	O	0.472061	-0.070214	0.060910
C523	C	-0.011877	-0.512321	-0.454250
C524	C	0.488123	-0.012321	0.045750
H525	H	0.034081	-0.506546	-0.471263
H526	H	0.534081	-0.006546	0.028737
H527	H	-0.041668	-0.499286	-0.490203
H528	H	0.458332	0.000714	0.009797
C529	C	-0.072617	-0.481583	-0.378366
C530	C	0.427383	0.018417	0.121634
C531	C	-0.016169	-0.474489	-0.399257
C532	C	0.483831	0.025511	0.100743
H533	H	-0.075267	-0.458245	-0.344445
H534	H	0.424733	0.041755	0.155555
H535	H	-0.083441	-0.520587	-0.368153
H536	H	0.416559	-0.020587	0.131847
H537	H	-0.097437	-0.470721	-0.408332
H538	H	0.402563	0.029279	0.091668
H539	H	0.008648	-0.485357	-0.369294
H540	H	0.508648	0.014643	0.130706
H541	H	-0.005341	-0.435486	-0.409463
H542	H	0.494659	0.064514	0.090537
O543	O	0.173898	0.056271	-0.000128
O544	O	0.673898	0.556271	0.499872
C545	C	0.177429	0.022358	-0.051082
C546	C	0.677429	0.522358	0.448918
H547	H	0.132457	0.007308	-0.068077
H548	H	0.632457	0.507308	0.431923
H549	H	0.202778	0.048755	-0.086750
H550	H	0.702778	0.548755	0.413250
C551	C	0.263031	-0.011529	-0.014727
C552	C	0.763031	0.488471	0.485273
C553	C	0.207795	-0.030018	-0.035598
C554	C	0.707795	0.469982	0.464402
H555	H	0.281764	-0.043836	-0.005178
H556	H	0.781764	0.456164	0.494822
H557	H	0.260654	0.011320	0.019600
H558	H	0.760654	0.511320	0.519600
H559	H	0.284148	0.010469	-0.044455
H560	H	0.784148	0.510469	0.455545
H561	H	0.186677	-0.052009	-0.005869
H562	H	0.686677	0.447991	0.494131
H563	H	0.210169	-0.052872	-0.069921
H564	H	0.710169	0.447128	0.430079
O565	O	0.141971	-0.740002	-0.723881
O566	O	0.641971	-0.240002	-0.223881
C567	C	0.199862	-0.723872	-0.738994
C568	C	0.699862	-0.223872	-0.238994
H569	H	0.202418	-0.701768	-0.783953
H570	H	0.702418	-0.201768	-0.283953
H571	H	0.220995	-0.693198	-0.704146
H572	H	0.720995	-0.193198	-0.204146
C573	C	0.227961	-0.804693	-0.686624
C574	C	0.727961	-0.304693	-0.186624
C575	C	0.231100	-0.777549	-0.741846
C576	C	0.731100	-0.277549	-0.241846
H577	H	0.247232	-0.837803	-0.688381
H578	H	0.747232	-0.337803	-0.188381
H579	H	0.188960	-0.815560	-0.676440
H580	H	0.688960	-0.315560	-0.176440
H581	H	0.245571	-0.779127	-0.657590
H582	H	0.745571	-0.279127	-0.157590
H583	H	0.213484	-0.803113	-0.770878
H584	H	0.713484	-0.303113	-0.270878
H585	H	0.270100	-0.766688	-0.752035
H586	H	0.770100	-0.266688	-0.252035
O587	O	-0.211114	-0.674847	-0.105835
O588	O	0.288886	-0.174847	0.394165
C589	C	-0.172172	-0.675322	-0.153164
C590	C	0.327828	-0.175322	0.346836
H591	H	-0.127365	-0.657810	-0.137443
H592	H	0.372635	-0.157810	0.362557
H593	H	-0.172102	-0.721091	-0.169659
H594	H	0.327898	-0.221091	0.330341
C595	C	-0.245290	-0.659181	-0.223130
C596	C	0.254710	-0.159181	0.276870
C597	C	-0.190258	-0.637667	-0.203822
C598	C	0.309742	-0.137667	0.296178
H599	H	-0.256447	-0.635956	-0.254380
H600	H	0.243553	-0.135956	0.245620
H601	H	-0.271527	-0.658863	-0.191244
H602	H	0.228473	-0.158863	0.308756
H603	H	-0.245225	-0.697321	-0.236872
H604	H	0.254775	-0.197321	0.263128
H605	H	-0.190326	-0.599531	-0.190074
H606	H	0.309674	-0.099531	0.309926
H607	H	-0.164022	-0.637978	-0.235707
H608	H	0.335978	-0.137978	0.264293
O609	O	-0.030848	0.028492	-0.000056
O610	O	0.469152	0.528492	0.499944
C611	C	-0.077136	0.061197	-0.000076
C612	C	0.422864	0.561197	0.499924
H613	H	-0.062414	0.105612	0.018547
H614	H	0.437586	0.605612	0.518547
H615	H	-0.093180	0.065344	-0.047270
H616	H	0.406820	0.565344	0.452730
C617	C	-0.143997	-0.023227	0.015625
C618	C	0.356003	0.476773	0.515625
C619	C	-0.125916	0.031322	0.038503
C620	C	0.374084	0.531322	0.538503
H621	H	-0.174088	-0.041656	0.039420
H622	H	0.325912	0.458344	0.539420
H623	H	-0.112812	-0.045263	0.015636
H624	H	0.387188	0.454737	0.515636
H625	H	-0.157362	-0.019764	-0.023703
H626	H	0.342638	0.480236	0.476297
H627	H	-0.112544	0.027858	0.077827
H628	H	0.387456	0.527858	0.577827
H629	H	-0.157100	0.053356	0.038499
H630	H	0.342900	0.553356	0.538499
H631	H	-0.098766	-0.676231	-0.097360
H632	H	0.401234	-0.176231	0.402640
