data_functionalizedCrystal
_audit_creation_method	'MofGen! by Chris Wilmer'
_symmetry_space_group_name_H-M	'P1'
_symmetry_Int_Tables_number	1
_symmetry_cell_setting	triclinic
loop_
_symmetry_equiv_pos_as_xyz
  x,y,z
_cell_length_a	14.519709
_cell_length_b	14.519709
_cell_length_c	17.766277
_cell_angle_alpha	90.000159
_cell_angle_beta	89.996257
_cell_angle_gamma	96.319856
loop_
_atom_site_label
_atom_site_type_symbol
_atom_site_fract_x
_atom_site_fract_y
_atom_site_fract_z
O1	O	1.223874	-0.120893	-0.062486
O2	O	1.557207	0.212441	0.270848
O3	O	1.890540	0.545774	0.604181
O4	O	0.955397	-0.135129	-0.062507
O5	O	1.288730	0.198204	0.270826
O6	O	1.622064	0.531537	0.604159
O7	O	1.096754	0.006228	-0.062503
O8	O	1.430087	0.339561	0.270831
O9	O	1.763420	0.672894	0.604164
O10	O	1.082517	-0.262249	-0.062490
O11	O	1.415850	0.071084	0.270843
O12	O	1.749184	0.404417	0.604177
O13	O	1.096729	0.006235	0.062686
O14	O	1.430062	0.339568	0.396019
O15	O	1.763395	0.672901	0.729352
O16	O	0.955372	-0.135122	0.062681
O17	O	1.288705	0.198211	0.396015
O18	O	1.622039	0.531545	0.729348
O19	O	1.223849	-0.120885	0.062703
O20	O	1.557182	0.212448	0.396036
O21	O	1.890516	0.545781	0.729370
Cu22	Cu	1.089608	-0.128003	0.074123
Cu23	Cu	1.422942	0.205330	0.407456
Cu24	Cu	1.756275	0.538664	0.740789
Cu25	Cu	1.089638	-0.128012	-0.073927
Cu26	Cu	1.422971	0.205322	0.259406
Cu27	Cu	1.756304	0.538655	0.592740
O28	O	1.082492	-0.262242	0.062698
O29	O	1.415826	0.071091	0.396032
O30	O	1.749159	0.404425	0.729365
C31	C	0.921025	-0.134462	0.000084
C32	C	1.254358	0.198871	0.333417
C33	C	1.587691	0.532205	0.666751
C34	C	0.818643	-0.132474	0.000075
C35	C	1.151977	0.200859	0.333408
C36	C	1.485310	0.534193	0.666742
C37	C	0.443748	-0.125154	0.000109
C38	C	0.777081	0.208179	0.333442
C39	C	1.110414	0.541512	0.666776
C40	C	0.548056	-0.127187	0.000099
C41	C	0.881389	0.206146	0.333433
C42	C	1.214722	0.539480	0.666766
C43	C	0.631192	-0.128814	0.000091
C44	C	0.964526	0.204519	0.333425
C45	C	1.297859	0.537853	0.666758
C46	C	0.735507	-0.130847	0.000083
C47	C	1.068840	0.202486	0.333416
C48	C	1.402173	0.535820	0.666750
C49	C	1.083168	-0.296605	0.000106
C50	C	1.416501	0.036728	0.333439
C51	C	1.749835	0.370061	0.666773
C52	C	1.085156	-0.398987	0.000111
C53	C	1.418490	-0.065653	0.333444
C54	C	1.751823	0.267680	0.666778
C55	C	1.092476	-0.773883	0.000082
C56	C	1.425809	-0.440549	0.333415
C57	C	1.759142	-0.107216	0.666748
C58	C	1.090443	-0.669575	0.000090
C59	C	1.423777	-0.336241	0.333424
C60	C	1.757110	-0.002908	0.666757
C61	C	1.088816	-0.586438	0.000097
C62	C	1.422150	-0.253105	0.333431
C63	C	1.755483	0.080229	0.666764
C64	C	1.086783	-0.482123	0.000104
C65	C	1.420117	-0.148790	0.333438
C66	C	1.753450	0.184543	0.666771
C67	C	1.258221	-0.121553	0.000110
C68	C	1.591554	0.211781	0.333443
C69	C	1.924888	0.545114	0.666777
C70	C	1.360602	-0.123541	0.000114
C71	C	1.693936	0.209793	0.333447
C72	C	2.027269	0.543126	0.666781
C73	C	1.096078	0.040591	0.000088
C74	C	1.429411	0.373924	0.333421
C75	C	1.762744	0.707258	0.666755
C76	C	1.094090	0.142972	0.000078
C77	C	1.427423	0.476306	0.333411
C78	C	1.760756	0.809639	0.666745
N79	N	1.089594	-0.127996	0.178253
N80	N	1.422928	0.205337	0.511586
N81	N	1.756261	0.538670	0.844920
N82	N	1.089659	-0.128011	-0.178057
N83	N	1.422992	0.205322	0.155276
N84	N	1.756326	0.538656	0.488609
C85	C	1.152207	-0.065434	0.217642
C86	C	1.485541	0.267899	0.550975
C87	C	1.818874	0.601232	0.884309
C88	C	1.152213	-0.065430	0.296444
C89	C	1.485546	0.267903	0.629777
C90	C	1.818879	0.601237	0.963111
C91	C	1.089614	-0.128004	0.335854
C92	C	1.422947	0.205330	0.669187
C93	C	1.756280	0.538663	1.002520
C94	C	1.026989	-0.190570	0.296455
C95	C	1.360322	0.142763	0.629789
C96	C	1.693655	0.476096	0.963122
C97	C	1.026979	-0.190567	0.217655
C98	C	1.360312	0.142767	0.550988
C99	C	1.693646	0.476100	0.884322
C100	C	1.077669	-0.211975	0.460695
C101	C	1.411002	0.121359	0.794028
C102	C	1.744335	0.454692	1.127362
C103	C	1.077685	-0.211980	0.539494
C104	C	1.411018	0.121354	0.872827
C105	C	1.744352	0.454687	1.206160
C106	C	1.089638	-0.128015	0.578900
C107	C	1.422972	0.205318	0.912233
C108	C	1.756305	0.538652	1.245567
C109	C	1.101595	-0.044042	0.539498
C110	C	1.434929	0.289292	0.872831
C111	C	1.768262	0.622625	1.206164
C112	C	1.101586	-0.044038	0.460697
C113	C	1.434919	0.289295	0.794031
C114	C	1.768252	0.622629	1.127364
C115	C	1.089617	-0.128014	0.421299
C116	C	1.422950	0.205319	0.754633
C117	C	1.756284	0.538652	1.087966
C118	C	1.152261	-0.065443	0.703735
C119	C	1.485594	0.267890	1.037068
C120	C	1.818927	0.601223	1.370402
C121	C	1.152260	-0.065438	0.782538
C122	C	1.485593	0.267896	1.115872
C123	C	1.818926	0.601229	1.449205
C124	C	1.027040	-0.190586	0.782548
C125	C	1.360373	0.142747	1.115881
C126	C	1.693707	0.476081	1.449215
C127	C	1.027037	-0.190584	0.703746
C128	C	1.360370	0.142750	1.037080
C129	C	1.693703	0.476083	1.370413
C130	C	1.089652	-0.128013	0.664344
C131	C	1.422985	0.205320	0.997678
C132	C	1.756319	0.538654	1.331011
H133	H	1.203190	-0.014484	0.185563
H134	H	1.536523	0.318849	0.518897
H135	H	1.869857	0.652183	0.852230
H136	H	1.203243	-0.014492	0.671653
H137	H	1.536576	0.318842	1.004986
H138	H	1.869910	0.652175	1.338319
Br139	Br	1.237233	0.019482	0.835999
Br140	Br	1.570566	0.352816	1.169332
Br141	Br	1.903900	0.686149	1.502666
Br142	Br	0.942061	-0.275496	0.650284
Br143	Br	1.275394	0.057838	0.983617
Br144	Br	1.608728	0.391171	1.316950
Br145	Br	1.117830	0.069919	0.592967
Br146	Br	1.451164	0.403252	0.926300
Br147	Br	1.784497	0.736586	1.259634
H148	H	1.067919	-0.280353	0.428617
H149	H	1.401252	0.052980	0.761950
H150	H	1.734585	0.386313	1.095284
Br151	Br	1.237194	0.019484	0.349910
Br152	Br	1.570527	0.352817	0.683243
Br153	Br	1.903860	0.686151	1.016577
Br154	Br	1.117803	0.069919	0.407225
Br155	Br	1.451136	0.403253	0.740558
Br156	Br	1.784470	0.736586	1.073891
Br157	Br	0.942074	-0.275498	0.836026
Br158	Br	1.275407	0.057835	1.169360
Br159	Br	1.608740	0.391168	1.502693
Br160	Br	1.061468	-0.325941	0.592960
Br161	Br	1.394802	0.007392	0.926294
Br162	Br	1.728135	0.340725	1.259627
H163	H	0.976018	-0.241517	0.328547
H164	H	1.309351	0.091816	0.661880
H165	H	1.642685	0.425149	0.995213
H166	H	0.975991	-0.241513	0.185584
H167	H	1.309324	0.091820	0.518917
H168	H	1.642657	0.425154	0.852250
