data_functionalizedCrystal
_audit_creation_method	'MofGen! by Chris Wilmer'
_symmetry_space_group_name_H-M	'P1'
_symmetry_Int_Tables_number	1
_symmetry_cell_setting	triclinic
loop_
_symmetry_equiv_pos_as_xyz
  x,y,z
_cell_length_a	18.215405
_cell_length_b	12.759401
_cell_length_c	12.759393
_cell_angle_alpha	90.022497
_cell_angle_beta	89.963505
_cell_angle_gamma	89.974293
loop_
_atom_site_label
_atom_site_type_symbol
_atom_site_fract_x
_atom_site_fract_y
_atom_site_fract_z
Zn1	Zn	-0.292933	-1.606192	-0.594020
Zn2	Zn	0.207067	-1.106192	-0.094020
Zn3	Zn	-0.416017	-1.606052	-0.418322
Zn4	Zn	0.083983	-1.106052	0.081678
Zn5	Zn	-0.292970	-1.430491	-0.418350
Zn6	Zn	0.207030	-0.930491	0.081650
Zn7	Zn	-0.415964	-1.430451	-0.593954
Zn8	Zn	0.084036	-0.930451	-0.093954
O9	O	-0.354471	-1.518297	-0.506162
O10	O	0.145529	-1.018297	-0.006162
O11	O	-0.309266	-1.753194	-0.570729
O12	O	0.190734	-1.253194	-0.070729
O13	O	-0.399732	-1.582721	-0.271304
O14	O	0.100268	-1.082721	0.228696
O15	O	-0.189981	-1.453873	-0.441693
O16	O	0.310019	-0.953873	0.058307
O17	O	-0.399696	-1.753091	-0.441644
O18	O	0.100304	-1.253091	0.058356
O19	O	-0.189953	-1.582960	-0.570757
O20	O	0.310047	-1.082960	-0.070757
O21	O	-0.309330	-1.453737	-0.271325
O22	O	0.190670	-0.953737	0.228675
O23	O	-0.309279	-1.283465	-0.441629
O24	O	0.190721	-0.783465	0.058371
O25	O	-0.399605	-1.453806	-0.740984
O26	O	0.100395	-0.953806	-0.240984
O27	O	-0.399642	-1.283436	-0.570644
O28	O	0.100358	-0.783436	-0.070644
O29	O	-0.309215	-1.582922	-0.741032
O30	O	0.190785	-1.082922	-0.241032
O31	O	-0.518994	-1.582683	-0.441580
O32	O	-0.018994	-1.082683	0.058420
O33	O	-0.518955	-1.453670	-0.570617
O34	O	-0.018955	-0.953670	-0.070617
C35	C	-0.354459	-1.245329	-0.506133
C36	C	0.145541	-0.745329	-0.006133
C37	C	-0.354472	-1.128553	-0.506146
C38	C	0.145528	-0.628553	-0.006146
C39	C	-0.401595	-1.073703	-0.573217
C40	C	0.098405	-0.573703	-0.073217
C41	C	-0.401597	-0.963979	-0.573235
C42	C	0.098403	-0.463979	-0.073235
C43	C	-0.307351	-0.963964	-0.439102
C44	C	0.192649	-0.463964	0.060898
C45	C	-0.307346	-1.073686	-0.439090
C46	C	0.192654	-0.573686	0.060910
C47	C	-0.545677	-1.518186	-0.506111
C48	C	-0.045677	-1.018186	-0.006111
C49	C	-0.627476	-1.518234	-0.506125
C50	C	-0.127476	-1.018234	-0.006125
C51	C	-0.815666	-1.585569	-0.439059
C52	C	-0.315666	-1.085569	0.060941
C53	C	-0.892524	-1.585616	-0.439084
C54	C	-0.392524	-1.085616	0.060916
C55	C	-0.892524	-1.451158	-0.573340
C56	C	-0.392524	-0.951158	-0.073340
C57	C	-0.815666	-1.451118	-0.573319
C58	C	-0.315666	-0.951118	-0.073319
C59	C	-0.777239	-1.518321	-0.506172
C60	C	-0.277239	-1.018321	-0.006172
C61	C	-0.930955	-1.518409	-0.506219
C62	C	-0.430955	-1.018409	-0.006219
C63	C	-1.014289	-1.518460	-0.506247
C64	C	-0.514289	-1.018460	-0.006247
C65	C	-0.693900	-1.518272	-0.506145
C66	C	-0.193900	-1.018272	-0.006145
C67	C	-0.162518	-1.518437	-0.506235
C68	C	0.337482	-1.018437	-0.006235
C69	C	-0.080719	-1.518496	-0.506267
C70	C	0.419281	-1.018496	-0.006267
C71	C	-0.354400	-1.518375	-0.780195
C72	C	0.145600	-1.018375	-0.280195
C73	C	-0.354370	-1.518409	-0.896972
C74	C	0.145630	-1.018409	-0.396972
C75	C	-0.354480	-0.792330	-0.506184
C76	C	0.145520	-0.292330	-0.006184
C77	C	-0.354479	-0.909106	-0.506176
C78	C	0.145521	-0.409106	-0.006176
C79	C	-0.307296	-1.585644	-0.951861
C80	C	0.192704	-1.085644	-0.451861
C81	C	-0.307264	-1.585662	-1.061585
C82	C	0.192736	-1.085662	-0.561585
C83	C	-0.401387	-1.451206	-1.061522
C84	C	0.098613	-0.951206	-0.561522
C85	C	-0.401414	-1.451183	-0.951799
C86	C	0.098586	-0.951183	-0.451799
C87	C	-0.354488	-1.518279	-0.233194
C88	C	0.145512	-1.018279	0.266806
C89	C	-0.354311	-1.518449	-0.116418
C90	C	0.145689	-1.018449	0.383582
H91	H	-0.439967	-1.118372	-0.627821
H92	H	0.060033	-0.618372	-0.127821
N93	N	-0.256508	-1.132854	-0.366759
N94	N	0.243492	-0.632854	0.133241
H95	H	-0.226657	-1.081449	-0.324279
H96	H	0.273343	-0.581449	0.175721
H97	H	-0.286415	-1.178346	-0.318054
H98	H	0.213585	-0.678346	0.181946
H99	H	-0.784380	-1.640292	-0.384386
H100	H	-0.284380	-1.140292	0.115614
N101	N	-0.452174	-1.378640	-0.892588
N102	N	0.047826	-0.878640	-0.392588
H103	H	-0.481972	-1.336056	-0.943969
H104	H	0.018028	-0.836056	-0.443969
H105	H	-0.486248	-1.421354	-0.847046
H106	H	0.013752	-0.921354	-0.347046
H107	H	-0.439968	-0.919325	-0.627852
H108	H	0.060032	-0.419325	-0.127852
N109	N	-0.256483	-1.658177	-1.120775
N110	N	0.243517	-1.158177	-0.620775
H111	H	-0.267921	-1.733232	-1.101693
H112	H	0.232079	-1.233232	-0.601693
H113	H	-0.263617	-1.647905	-1.198586
H114	H	0.236383	-1.147905	-0.698586
N115	N	-0.452114	-1.378686	-1.120657
N116	N	0.047886	-0.878686	-0.620657
H117	H	-0.444952	-1.388897	-1.198495
H118	H	0.055048	-0.888897	-0.698495
H119	H	-0.504684	-1.394975	-1.101468
H120	H	-0.004684	-0.894975	-0.601468
N121	N	-0.256543	-0.904786	-0.366752
N122	N	0.243457	-0.404786	0.133248
H123	H	-0.263703	-0.826954	-0.376925
H124	H	0.236297	-0.326954	0.123075
H125	H	-0.267952	-0.923938	-0.291696
H126	H	0.232048	-0.423938	0.208304
H127	H	-0.923808	-1.640377	-0.384435
H128	H	-0.423808	-1.140377	0.115565
N129	N	-0.933970	-1.378673	-0.645754
N130	N	-0.433970	-0.878673	-0.145754
H131	H	-0.988490	-1.388898	-0.635582
H132	H	-0.488490	-0.888898	-0.135582
H133	H	-0.920586	-1.303642	-0.629324
H134	H	-0.420586	-0.803642	-0.129324
H135	H	-0.268988	-1.640381	-0.907223
H136	H	0.231012	-1.140381	-0.407223
H137	H	-0.784378	-1.396356	-0.627976
H138	H	-0.284378	-0.896356	-0.127976
