data_functionalizedCrystal
_audit_creation_method	'MofGen! by Chris Wilmer'
_symmetry_space_group_name_H-M	'P1'
_symmetry_Int_Tables_number	1
_symmetry_cell_setting	triclinic
loop_
_symmetry_equiv_pos_as_xyz
  x,y,z
_cell_length_a	10.489716
_cell_length_b	10.489741
_cell_length_c	13.448316
_cell_angle_alpha	89.993703
_cell_angle_beta	89.993632
_cell_angle_gamma	84.534155
loop_
_atom_site_label
_atom_site_type_symbol
_atom_site_fract_x
_atom_site_fract_y
_atom_site_fract_z
O1	O	1.694076	0.179822	-0.082683
O2	O	1.322876	0.196747	-0.082687
O3	O	1.516922	0.002686	-0.082679
O4	O	1.500029	0.373883	-0.082691
O5	O	1.516898	0.002674	0.082705
O6	O	1.322851	0.196735	0.082697
O7	O	1.694051	0.179810	0.082701
Cu8	Cu	1.508449	0.188271	0.097800
Cu9	Cu	1.508478	0.188286	-0.097786
O10	O	1.500005	0.373871	0.082693
C11	C	1.275332	0.195470	0.000004
C12	C	1.133701	0.191665	0.000003
C13	C	1.036027	0.310669	-0.000003
C14	C	0.958669	0.247779	0.081546
C15	C	0.958699	0.247763	-0.081509
C16	C	1.058208	0.128824	0.081620
C17	C	1.058244	0.128826	-0.081509
C18	C	0.980935	0.065848	0.000060
C19	C	1.515634	-0.044852	0.000012
C20	C	1.511817	-0.186481	0.000010
C21	C	1.388351	-0.254610	0.000002
C22	C	1.446663	-0.346744	0.081545
C23	C	1.446716	-0.346706	-0.081510
C24	C	1.570180	-0.276749	0.081621
C25	C	1.570216	-0.276702	-0.081508
C26	C	1.628618	-0.368808	0.000056
C27	C	1.741596	0.181087	0.000007
C28	C	1.883227	0.184892	0.000002
C29	C	1.501293	0.421409	-0.000001
C30	C	1.505110	0.563038	-0.000006
N31	N	1.508438	0.188260	0.235364
N32	N	1.508499	0.188287	-0.235350
C33	C	1.594389	0.102366	0.287408
C34	C	1.594397	0.102365	0.391511
C35	C	1.508459	0.188266	0.443568
C36	C	1.422499	0.274164	0.391517
C37	C	1.422486	0.274158	0.287416
C38	C	1.422534	0.274173	0.608497
C39	C	1.422548	0.274181	0.712606
C40	C	1.594445	0.102380	0.712592
C41	C	1.594432	0.102374	0.608491
C42	C	1.508473	0.188274	0.556447
H43	H	0.915176	0.298011	0.150486
H44	H	1.352494	0.344100	0.245043
H45	H	1.664435	0.032437	0.754973
Br46	Br	1.219157	-0.171842	0.000127
Br47	Br	1.077159	0.483196	0.000116
Br48	Br	1.359580	-0.398432	0.196449
H49	H	0.956505	-0.037744	0.000111
H50	H	1.622365	-0.245927	0.150637
H51	H	1.101514	0.078611	0.150631
H52	H	1.730222	-0.418241	0.000102
Br53	Br	1.130782	0.045179	-0.196419
H54	H	1.664383	0.032422	0.433885
H55	H	0.915226	0.298029	-0.150443
Br56	Br	1.359626	-0.398338	-0.196405
Br57	Br	1.657236	-0.224955	-0.196416
Br58	Br	1.711035	-0.014212	0.216769
Br59	Br	1.711072	-0.014194	0.537838
H60	H	1.352568	0.344129	0.754986
H61	H	1.352520	0.344102	0.433909
Br62	Br	1.305867	0.390749	0.537869
