data_functionalizedCrystal
_audit_creation_method	'MofGen! by Chris Wilmer'
_symmetry_space_group_name_H-M	'P1'
_symmetry_Int_Tables_number	1
_symmetry_cell_setting	triclinic
loop_
_symmetry_equiv_pos_as_xyz
  x,y,z
_cell_length_a	13.032831
_cell_length_b	11.169416
_cell_length_c	11.169409
_cell_angle_alpha	90.030874
_cell_angle_beta	82.804574
_cell_angle_gamma	97.184303
loop_
_atom_site_label
_atom_site_type_symbol
_atom_site_fract_x
_atom_site_fract_y
_atom_site_fract_z
Zn1	Zn	1.597817	0.711078	-0.911316
Zn2	Zn	2.097817	1.211078	-0.411316
Zn3	Zn	1.597720	0.911805	-0.710624
Zn4	Zn	2.097720	1.411805	-0.210624
Zn5	Zn	1.423042	0.685622	-0.685190
Zn6	Zn	1.923042	1.185622	-0.185190
Zn7	Zn	1.423049	0.886192	-0.885824
Zn8	Zn	1.923049	1.386192	-0.385824
O9	O	1.510407	0.798674	-0.798238
O10	O	2.010407	1.298674	-0.298238
O11	O	1.744048	0.759077	-0.906006
O12	O	2.244048	1.259077	-0.406006
O13	O	1.574506	0.881866	-0.539294
O14	O	2.074506	1.381866	-0.039294
O15	O	1.446264	0.521054	-0.715211
O16	O	1.946264	1.021054	-0.215211
O17	O	1.743977	0.906550	-0.758559
O18	O	2.243977	1.406550	-0.258559
O19	O	1.574670	0.539757	-0.881344
O20	O	2.074670	1.039757	-0.381344
O21	O	1.446171	0.715690	-0.520608
O22	O	1.946171	1.215690	-0.020608
O23	O	1.276799	0.690855	-0.690492
O24	O	1.776799	1.190855	-0.190492
O25	O	1.446275	0.862898	-1.057161
O26	O	1.946275	1.362898	-0.557161
O27	O	1.276804	0.838214	-0.837896
O28	O	1.776804	1.338214	-0.337896
O29	O	1.574676	0.734242	-1.075890
O30	O	2.074676	1.234242	-0.575890
O31	O	1.574512	1.076351	-0.733840
O32	O	2.074512	1.576351	-0.233840
O33	O	1.446182	1.057534	-0.862559
O34	O	1.946182	1.557534	-0.362559
C35	C	1.238882	0.758994	-0.758669
C36	C	1.738882	1.258994	-0.258669
C37	C	1.122722	0.742047	-0.741769
C38	C	1.622722	1.242047	-0.241769
C39	C	1.510365	1.110493	-0.798223
C40	C	2.010365	1.610493	-0.298223
C41	C	1.510443	1.243904	-0.798271
C42	C	2.010443	1.743904	-0.298271
C43	C	1.510487	0.798553	-1.111293
C44	C	2.010487	1.298553	-0.611293
C45	C	1.510521	0.798501	-1.244698
C46	C	2.010521	1.298501	-0.744698
C47	C	1.070964	0.807519	-0.807058
C48	C	1.570964	1.307519	-0.307058
C49	C	0.950907	0.790005	-0.789593
C50	C	1.450907	1.290005	-0.289593
C51	C	1.782992	0.838510	-0.837963
C52	C	2.282992	1.338510	-0.337963
C53	C	1.899152	0.855486	-0.854892
C54	C	2.399152	1.355486	-0.354892
C55	C	1.510477	0.485642	-0.798284
C56	C	2.010477	0.985642	-0.298284
C57	C	1.510507	0.352246	-0.798304
C58	C	2.010507	0.852246	-0.298304
C59	C	1.510387	0.798717	-0.486411
C60	C	2.010387	1.298717	0.013589
C61	C	1.510555	0.798461	-0.353036
C62	C	2.010555	1.298461	0.146964
H63	H	1.115534	0.876533	-0.875889
H64	H	1.615534	1.376533	-0.375889
H65	H	0.943717	0.924503	-0.923730
H66	H	1.443717	1.424503	-0.423730
H67	H	1.078152	0.673024	-0.672948
H68	H	1.578152	1.173024	-0.172948
H69	H	0.906341	0.720977	-0.720767
H70	H	1.406341	1.220977	-0.220767
