data_functionalizedCrystal
_audit_creation_method	'MofGen! by Chris Wilmer'
_symmetry_space_group_name_H-M	'P1'
_symmetry_Int_Tables_number	1
_symmetry_cell_setting	triclinic
loop_
_symmetry_equiv_pos_as_xyz
  x,y,z
_cell_length_a	10.654550
_cell_length_b	27.732048
_cell_length_c	9.130313
_cell_angle_alpha	89.993840
_cell_angle_beta	89.996220
_cell_angle_gamma	83.563778
loop_
_atom_site_label
_atom_site_type_symbol
_atom_site_fract_x
_atom_site_fract_y
_atom_site_fract_z
O1	O	1.664980	0.067884	-0.121937
O2	O	1.299230	0.074351	-0.121916
O3	O	1.493465	0.000792	-0.121899
O4	O	1.470746	0.141444	-0.121954
O5	O	1.493462	0.000794	0.121700
O6	O	1.299228	0.074353	0.121683
O7	O	1.664978	0.067886	0.121661
Cu8	Cu	1.482103	0.071120	0.143915
Cu9	Cu	1.482105	0.071117	-0.144169
O10	O	1.470743	0.141446	0.121645
C11	C	1.252451	0.073878	-0.000113
C12	C	1.113067	0.072457	-0.000103
C13	C	1.031761	0.115768	-0.000142
C14	C	0.900796	0.114430	-0.000166
C15	C	0.932457	0.026466	-0.000121
C16	C	1.063419	0.027805	-0.000086
C17	C	1.013480	0.166553	-0.000174
C18	C	0.882516	0.165215	-0.000199
C19	C	1.492987	-0.017217	-0.000096
C20	C	1.491551	-0.070881	-0.000084
C21	C	1.597290	-0.409038	-0.000165
C22	C	1.591962	-0.610731	-0.000185
O23	O	1.688653	-0.641384	-0.000255
N24	N	1.476789	-0.630572	-0.000177
C25	C	1.362940	-0.599986	-0.000173
O26	O	1.264856	-0.621490	-0.000182
C27	C	1.368269	-0.398294	-0.000164
C28	C	1.483449	-0.378456	-0.000157
C29	C	1.712461	-0.389199	-0.000160
C30	C	1.713792	-0.338779	-0.000147
C31	C	1.599951	-0.308197	-0.000139
C32	C	1.484780	-0.328036	-0.000144
C33	C	1.254421	-0.367709	-0.000171
C34	C	1.255764	-0.317284	-0.000172
C35	C	1.370944	-0.297446	-0.000165
C36	C	1.372271	-0.247034	-0.000123
N37	N	1.487444	-0.227193	-0.000131
C38	C	1.601284	-0.257775	-0.000139
C39	C	1.360150	-0.705877	-0.000175
C40	C	1.358817	-0.756300	-0.000175
C41	C	1.587840	-0.767041	-0.000190
C42	C	1.589171	-0.716618	-0.000180
C43	C	1.475323	-0.686036	-0.000184
C44	C	1.604070	-0.151888	-0.000111
C45	C	1.605391	-0.101463	-0.000092
C46	C	1.376369	-0.090726	-0.000085
C47	C	1.375047	-0.141147	-0.000096
C48	C	1.488908	-0.171727	-0.000114
O49	O	1.275631	-0.216352	-0.000070
O50	O	1.699354	-0.236261	-0.000163
C51	C	1.595959	-0.459458	-0.000178
C52	C	1.480788	-0.479296	-0.000183
C53	C	1.366948	-0.448715	-0.000175
C54	C	1.479455	-0.529719	-0.000183
C55	C	1.593296	-0.560301	-0.000191
C56	C	1.708469	-0.540460	-0.000199
C57	C	1.709800	-0.490040	-0.000186
C58	C	1.251774	-0.468556	-0.000167
C59	C	1.250453	-0.518976	-0.000178
C60	C	1.364293	-0.549558	-0.000186
C61	C	1.711757	0.068360	-0.000144
C62	C	1.851141	0.069780	-0.000164
C63	C	1.471221	0.159454	-0.000162
C64	C	1.472657	0.213118	-0.000183
N65	N	1.482110	0.071121	0.346538
N66	N	1.482108	0.071112	-0.346792
C67	C	1.568138	0.038560	0.423197
C68	C	1.568135	0.038554	0.576534
C69	C	1.396071	0.103675	0.576538
C70	C	1.396069	0.103678	0.423204
C71	C	1.667482	0.000964	0.423195
C72	C	1.667479	0.000959	0.576532
H73	H	1.696787	-0.176781	-0.000131
C74	C	1.723554	-0.666156	0.125037
C75	C	1.715781	-0.694815	-0.000185
H76	H	1.801725	-0.652702	0.125032
H77	H	1.655962	-0.640724	0.125026
H78	H	1.718265	-0.685609	0.209978
H79	H	1.721061	-0.675361	-0.085127
H80	H	1.783391	-0.720250	-0.000188
H81	H	1.699189	-0.085314	-0.000083
C82	C	1.783695	0.016094	0.205801
C83	C	1.789876	0.016879	0.358961
H84	H	1.859245	0.025931	0.166148
H85	H	1.774094	-0.015859	0.173670
H86	H	1.713564	0.037687	0.173716
H87	H	1.860003	-0.004717	0.391047
H88	H	1.799492	0.048837	0.391106
C89	C	1.120404	-0.405630	0.125079
C90	C	1.126634	-0.434942	-0.000152
H91	H	1.043144	-0.384878	0.125085
H92	H	1.124647	-0.425530	0.210005
H93	H	1.189186	-0.386596	0.125062
H94	H	1.057856	-0.453978	-0.000130
H95	H	1.122378	-0.415040	-0.085100
H96	H	1.267435	-0.680982	-0.000178
C97	C	1.851575	-0.026717	0.717907
C98	C	1.797289	0.012137	0.632719
H99	H	1.931712	-0.019817	0.752587
H100	H	1.798150	-0.031319	0.798811
H101	H	1.861697	-0.055365	0.660084
H102	H	1.787158	0.040784	0.690546
H103	H	1.850726	0.016745	0.551804
H104	H	1.680533	-0.791950	-0.000196
H105	H	1.326007	0.130188	0.360790
H106	H	1.163052	-0.292386	-0.000177
H107	H	1.807584	-0.322632	-0.000148
H108	H	1.326018	0.130181	0.638977
C109	C	0.944312	0.208283	0.220885
C110	C	1.051962	0.193363	0.137445
H111	H	0.968074	0.224831	0.305847
H112	H	0.887176	0.229434	0.164227
H113	H	0.904693	0.180701	0.249189
H114	H	1.091577	0.220946	0.109131
H115	H	1.109120	0.172211	0.194114
H116	H	1.048457	0.182723	-0.105352
C117	C	0.921239	0.208044	-0.221296
C118	C	0.825082	0.191044	-0.137836
H119	H	0.885779	0.223987	-0.306265
H120	H	0.962795	0.230202	-0.164657
H121	H	0.980345	0.181469	-0.249588
H122	H	0.765980	0.217619	-0.109535
H123	H	0.783505	0.168884	-0.194486
C124	C	1.938964	-0.394738	-0.000148
C125	C	1.837610	-0.422810	-0.000156
H126	H	2.016230	-0.415486	-0.000128
H127	H	1.934719	-0.374848	-0.085096
H128	H	1.934689	-0.374847	0.084802
H129	H	1.841880	-0.442698	-0.085112
H130	H	1.841857	-0.442708	0.084800
H131	H	1.129616	-0.007463	-0.000034
H132	H	0.836198	0.180563	0.104963
C133	C	1.224449	-0.806763	-0.125392
C134	C	1.232209	-0.778104	-0.000168
H135	H	1.146286	-0.820224	-0.125386
H136	H	1.229733	-0.787312	-0.210322
H137	H	1.292057	-0.832194	-0.125378
H138	H	1.164605	-0.752670	-0.000187
H139	H	1.226913	-0.797556	0.084785
H140	H	0.892018	-0.009888	-0.000129
H141	H	1.160629	-0.383852	-0.000185
C142	C	1.903272	-0.565163	0.125010
C143	C	1.833604	-0.574083	-0.000211
H144	H	1.980516	-0.585924	0.124997
H145	H	1.920562	-0.532300	0.125006
H146	H	1.855991	-0.571224	0.209952
H147	H	1.880882	-0.568019	-0.085153
H148	H	1.816318	-0.606954	-0.000220
H149	H	1.281258	-0.157300	-0.000061
C150	C	1.602622	-0.077563	0.526543
C151	C	1.628336	-0.046440	0.640756
H152	H	1.578477	-0.106826	0.566198
H153	H	1.535896	-0.062327	0.468016
H154	H	1.676065	-0.084648	0.467972
H155	H	1.554890	-0.039352	0.699321
H156	H	1.695068	-0.061679	0.699307
H157	H	1.283683	-0.065818	-0.000073
H158	H	1.803591	-0.473893	-0.000181
H159	H	1.156652	-0.535123	-0.000171
H160	H	1.647601	-0.036186	0.381591
