data_functionalizedCrystal
_audit_creation_method	'MofGen! by Chris Wilmer'
_symmetry_space_group_name_H-M	'P1'
_symmetry_Int_Tables_number	1
_symmetry_cell_setting	triclinic
loop_
_symmetry_equiv_pos_as_xyz
  x,y,z
_cell_length_a	17.699077
_cell_length_b	17.699092
_cell_length_c	16.176319
_cell_angle_alpha	89.994879
_cell_angle_beta	89.993140
_cell_angle_gamma	83.283472
loop_
_atom_site_label
_atom_site_type_symbol
_atom_site_fract_x
_atom_site_fract_y
_atom_site_fract_z
O1	O	1.004084	0.095691	-0.068732
O2	O	1.504084	0.595691	0.431268
O3	O	0.783706	0.108148	-0.068736
O4	O	1.283706	0.608148	0.431264
O5	O	0.900118	-0.008269	-0.068732
O6	O	1.400118	0.491731	0.431268
O7	O	0.887672	0.212109	-0.068736
O8	O	1.387672	0.712109	0.431264
O9	O	0.900102	-0.008276	0.068761
O10	O	1.400102	0.491724	0.568761
O11	O	0.783690	0.108141	0.068757
O12	O	1.283690	0.608141	0.568757
O13	O	1.004068	0.095684	0.068761
O14	O	1.504068	0.595684	0.568761
Cu15	Cu	0.893878	0.101912	0.081313
Cu16	Cu	1.393878	0.601912	0.581313
Cu17	Cu	0.893897	0.101920	-0.081289
Cu18	Cu	1.393897	0.601920	0.418711
O19	O	0.887656	0.212101	0.068757
O20	O	1.387656	0.712101	0.568757
C21	C	0.755501	0.107699	0.000010
C22	C	1.255501	0.607699	0.500010
C23	C	0.671482	0.106362	0.000008
C24	C	1.171482	0.606362	0.500008
C25	C	0.632006	0.105728	0.074957
C26	C	1.132006	0.605728	0.574957
C27	C	0.553064	0.104460	0.074958
C28	C	1.053064	0.604460	0.574958
C29	C	0.513598	0.103831	0.000009
C30	C	1.013598	0.603831	0.500009
C31	C	0.553080	0.104463	-0.074945
C32	C	1.053080	0.604463	0.425055
C33	C	0.632022	0.105726	-0.074945
C34	C	1.132022	0.605726	0.425055
C35	C	0.234716	0.099370	-0.074946
C36	C	0.734716	0.599370	0.425054
C37	C	0.155769	0.098109	-0.074940
C38	C	0.655769	0.598109	0.425060
C39	C	0.155758	0.098104	0.074956
C40	C	0.655758	0.598104	0.574956
C41	C	0.234700	0.099367	0.074956
C42	C	0.734700	0.599367	0.574956
C43	C	0.274176	0.099994	0.000003
C44	C	0.774176	0.599994	0.500003
C45	C	0.359774	0.101368	0.000003
C46	C	0.859774	0.601368	0.500003
C47	C	0.428000	0.102463	0.000009
C48	C	0.928000	0.602463	0.500009
C49	C	0.899663	-0.036470	0.000013
C50	C	1.399663	0.463530	0.500013
C51	C	0.898322	-0.120487	0.000009
C52	C	1.398322	0.379513	0.500009
C53	C	0.897702	-0.159951	-0.074939
C54	C	1.397702	0.340049	0.425061
C55	C	0.896438	-0.238894	-0.074940
C56	C	1.396438	0.261106	0.425060
C57	C	0.895798	-0.278373	0.000008
C58	C	1.395798	0.221627	0.500008
C59	C	0.896415	-0.238903	0.074962
C60	C	1.396415	0.261097	0.574962
C61	C	0.897674	-0.159961	0.074962
C62	C	1.397674	0.340039	0.574962
C63	C	0.891335	-0.557268	0.074963
C64	C	1.391335	-0.057268	0.574963
C65	C	0.890077	-0.636216	0.074958
C66	C	1.390077	-0.136216	0.574958
C67	C	0.890098	-0.636201	-0.074939
C68	C	1.390098	-0.136201	0.425061
C69	C	0.891357	-0.557259	-0.074939
C70	C	1.391357	-0.057259	0.425061
C71	C	0.891970	-0.517796	0.000014
C72	C	1.391970	-0.017796	0.500014
C73	C	0.893341	-0.432197	0.000015
C74	C	1.393341	0.067803	0.500015
C75	C	0.894433	-0.363971	0.000009
C76	C	1.394433	0.136029	0.500009
C77	C	1.032274	0.096133	0.000013
C78	C	1.532274	0.596133	0.500013
C79	C	1.116292	0.097470	0.000009
C80	C	1.616292	0.597470	0.500009
C81	C	0.888111	0.240302	0.000010
C82	C	1.388111	0.740302	0.500010
C83	C	0.889452	0.324320	0.000008
C84	C	1.389452	0.824320	0.500008
N85	N	0.893870	0.101905	0.195678
N86	N	1.393870	0.601905	0.695678
N87	N	0.893910	0.101921	-0.195654
N88	N	1.393910	0.601921	0.304346
C89	C	0.945433	0.050376	0.238944
C90	C	1.445433	0.550376	0.738944
C91	C	0.945437	0.050376	0.325491
C92	C	1.445437	0.550376	0.825491
C93	C	0.893881	0.101908	0.368771
C94	C	1.393881	0.601908	0.868771
C95	C	0.842312	0.153439	0.325499
C96	C	1.342312	0.653439	0.825499
C97	C	0.842305	0.153435	0.238953
C98	C	1.342305	0.653435	0.738953
C99	C	0.842338	0.153453	0.674527
C100	C	1.342338	0.653453	1.174527
C101	C	0.842351	0.153454	0.761079
C102	C	1.342351	0.653454	1.261079
C103	C	0.945469	0.050393	0.761065
C104	C	1.445469	0.550393	1.261065
C105	C	0.945463	0.050390	0.674520
C106	C	1.445463	0.550390	1.174520
C107	C	0.893892	0.101918	0.631255
C108	C	1.393892	0.601918	1.131255
C109	C	0.893887	0.101917	0.537411
C110	C	1.393887	0.601917	1.037411
C111	C	0.893888	0.101913	0.462613
C112	C	1.393888	0.601913	0.962613
H113	H	0.664133	0.106247	0.135989
H114	H	1.164133	0.606247	0.635989
H115	H	0.898228	-0.127813	-0.135971
H116	H	1.398228	0.372187	0.364029
F117	F	1.000310	-0.004469	0.192891
F118	F	1.500310	0.495531	0.692891
H119	H	0.889594	-0.668340	-0.135970
H120	H	1.389594	-0.168340	0.364030
H121	H	0.520927	0.103931	0.135988
H122	H	1.020927	0.603931	0.635988
F123	F	0.787438	0.208280	0.371561
F124	F	1.287438	0.708280	0.871561
F125	F	0.898333	-0.117962	0.154733
F126	F	1.398333	0.382038	0.654733
F127	F	0.787456	0.208294	0.628489
F128	F	1.287456	0.708294	1.128489
H129	H	0.266829	0.099883	0.135987
H130	H	0.766829	0.599883	0.635987
H131	H	0.987447	0.008430	0.639284
H132	H	1.487447	0.508430	1.139284
H133	H	0.987422	0.008417	0.360718
H134	H	1.487422	0.508417	0.860718
F135	F	0.113740	0.097433	0.154730
F136	F	0.613740	0.597433	0.654730
H137	H	0.895889	-0.271053	0.135987
H138	H	1.395889	0.228947	0.635987
F139	F	1.000354	-0.004451	0.807116
F140	F	1.500354	0.495549	1.307116
F141	F	0.787474	0.208303	0.807139
F142	F	1.287474	0.708303	1.307139
H143	H	0.891882	-0.525119	-0.135970
H144	H	1.391882	-0.025119	0.364030
H145	H	0.123638	0.097597	-0.135976
H146	H	0.623638	0.597597	0.364024
F147	F	0.276719	0.100038	-0.154719
F148	F	0.776719	0.600038	0.345281
H149	H	0.891849	-0.525149	0.135995
H150	H	1.391849	-0.025149	0.635995
F151	F	0.889395	-0.678231	0.154732
F152	F	1.389395	-0.178231	0.654732
H153	H	0.520941	0.103946	-0.135969
H154	H	1.020941	0.603946	0.364031
F155	F	0.674035	0.106398	-0.154715
F156	F	1.174035	0.606398	0.345285
H157	H	0.895936	-0.271022	-0.135971
H158	H	1.395936	0.228978	0.364029
F159	F	0.787423	0.208277	0.192908
F160	F	1.287423	0.708277	0.692908
