data_functionalizedCrystal
_audit_creation_method	'MofGen! by Chris Wilmer'
_symmetry_space_group_name_H-M	'P1'
_symmetry_Int_Tables_number	1
_symmetry_cell_setting	triclinic
loop_
_symmetry_equiv_pos_as_xyz
  x,y,z
_cell_length_a	25.639242
_cell_length_b	16.994747
_cell_length_c	25.639233
_cell_angle_alpha	89.993240
_cell_angle_beta	90.022166
_cell_angle_gamma	90.006589
loop_
_atom_site_label
_atom_site_type_symbol
_atom_site_fract_x
_atom_site_fract_y
_atom_site_fract_z
Zn1	Zn	0.799326	-0.314218	0.295835
Zn2	Zn	0.799291	-0.446103	0.208438
Zn3	Zn	0.711902	-0.314207	0.208399
Zn4	Zn	0.711889	-0.446074	0.295828
O5	O	0.755602	-0.380150	0.252125
O6	O	0.872486	-0.331730	0.284261
O7	O	0.787690	-0.428614	0.135268
O8	O	0.723518	-0.203827	0.219984
O9	O	0.872461	-0.428625	0.220051
O10	O	0.787748	-0.203835	0.284223
O11	O	0.723485	-0.331710	0.135239
O12	O	0.638735	-0.331682	0.219977
O13	O	0.723497	-0.428575	0.368994
O14	O	0.638726	-0.428564	0.284211
O15	O	0.787736	-0.331702	0.368999
O16	O	0.787677	-0.556480	0.220044
O17	O	0.723463	-0.556459	0.284249
C18	C	0.619759	-0.380119	0.252090
C19	C	0.561645	-0.380125	0.252087
C20	C	0.755572	-0.585090	0.252149
C21	C	0.755575	-0.674412	0.252147
Zn22	Zn	0.711917	-0.945293	0.208384
Zn23	Zn	0.799349	-0.945283	0.295812
Zn24	Zn	0.711907	-0.813466	0.295819
Zn25	Zn	0.799301	-0.813358	0.208421
O26	O	0.755618	-0.879350	0.252109
O27	O	0.723539	-1.055673	0.219963
O28	O	0.787765	-0.927838	0.368978
O29	O	0.638743	-0.831003	0.284209
O30	O	0.787775	-1.055666	0.284196
O31	O	0.638750	-0.927855	0.219971
O32	O	0.723522	-0.830993	0.368984
O33	O	0.723476	-0.703071	0.284244
O34	O	0.787693	-0.830819	0.135251
O35	O	0.787683	-0.702991	0.220033
O36	O	0.723492	-0.927751	0.135224
O37	O	0.872508	-0.927734	0.284232
O38	O	0.872472	-0.830809	0.220026
C39	C	0.201286	-0.430681	0.285540
C40	C	0.146682	-0.430686	0.285548
O41	O	0.118449	-0.473632	0.313961
N42	N	0.119363	-0.380172	0.252159
C43	C	0.146651	-0.329644	0.218764
O44	O	0.118400	-0.286678	0.190365
C45	C	0.201254	-0.329636	0.218758
C46	C	0.228570	-0.380159	0.252146
C47	C	0.228603	-0.481199	0.318925
C48	C	0.283203	-0.481195	0.318916
C49	C	0.310487	-0.430673	0.285522
C50	C	0.283171	-0.380155	0.252137
C51	C	0.228541	-0.279105	0.185366
C52	C	0.283148	-0.279101	0.185364
C53	C	0.310464	-0.329624	0.218751
C54	C	0.365056	-0.329629	0.218733
N55	N	0.392375	-0.380143	0.252122
C56	C	0.365091	-0.430665	0.285517
C57	C	0.031980	-0.329664	0.218778
C58	C	-0.022622	-0.329676	0.218780
C59	C	-0.022587	-0.430717	0.285565
C60	C	0.032016	-0.430709	0.285560
C61	C	0.059299	-0.380178	0.252167
C62	C	0.479756	-0.430653	0.285495
C63	C	0.534361	-0.430647	0.285481
C64	C	0.534321	-0.329604	0.218698
C65	C	0.479721	-0.329612	0.218709
C66	C	0.452439	-0.380140	0.252112
O67	O	0.393324	-0.286702	0.190336
O68	O	0.393348	-0.473617	0.313916
C69	C	0.891975	-0.380182	0.252161
C70	C	0.950089	-0.380196	0.252176
C71	C	0.755619	-0.380137	0.388498
C72	C	0.755626	-0.380131	0.446612
C73	C	0.755635	-0.174410	0.252098
C74	C	0.755651	-0.085088	0.252087
C75	C	0.755615	-0.380107	0.116283
C76	C	0.755709	-0.379891	0.058169
C77	C	0.789118	-0.329539	0.806984
C78	C	0.789124	-0.329517	0.861588
O79	O	0.817558	-0.286595	0.889832
N80	N	0.755684	-0.379946	0.888895
C81	C	0.722231	-0.430394	0.861595
O82	O	0.693787	-0.473285	0.889835
C83	C	0.722222	-0.430411	0.806991
C84	C	0.755668	-0.379985	0.779687
C85	C	0.822561	-0.279115	0.779680
C86	C	0.822555	-0.279139	0.725079
C87	C	0.789106	-0.329585	0.697783
C88	C	0.755662	-0.380008	0.725087
C89	C	0.688767	-0.480855	0.779692
C90	C	0.688761	-0.480868	0.725085
C91	C	0.722207	-0.430441	0.697781
C92	C	0.722207	-0.430477	0.643190
N93	N	0.755648	-0.380048	0.615883
C94	C	0.789097	-0.329602	0.643179
C95	C	0.722251	-0.430353	0.976265
C96	C	0.722262	-0.430340	1.030868
C97	C	0.789155	-0.329462	1.030857
C98	C	0.789146	-0.329479	0.976254
C99	C	0.755691	-0.379924	0.948958
C100	C	0.789083	-0.329655	0.528514
C101	C	0.789075	-0.329684	0.473909
C102	C	0.722181	-0.430560	0.473924
C103	C	0.722190	-0.430533	0.528524
C104	C	0.755642	-0.380074	0.555818
O105	O	0.693787	-0.473375	0.614911
O106	O	0.817531	-0.286711	0.614932
C107	C	0.891461	-0.879261	0.252133
C108	C	0.949575	-0.879245	0.252159
C109	C	0.755588	-0.879274	0.115736
C110	C	0.755576	-0.879241	0.057622
C111	C	0.619245	-0.879442	0.252086
C112	C	0.561131	-0.879481	0.252077
C113	C	0.755611	-0.879471	0.387952
C114	C	0.755477	-0.879654	0.446065
C115	C	0.976869	-0.929749	0.285572
C116	C	1.031473	-0.929750	0.285597
C117	C	1.058783	-0.879243	0.252210
C118	C	1.031485	-0.828737	0.218793
C119	C	0.976881	-0.828741	0.218766
C120	C	0.722140	-0.929694	0.030314
C121	C	0.722118	-0.929663	-0.024290
C122	C	0.755534	-0.879184	-0.051586
C123	C	0.788971	-0.828726	-0.024274
C124	C	0.788991	-0.828753	0.030330
C125	C	0.533834	-0.829068	0.285518
C126	C	0.479229	-0.829089	0.285509
C127	C	0.451924	-0.879529	0.252061
C128	C	0.479225	-0.929944	0.218616
C129	C	0.533828	-0.929919	0.218623
C130	C	0.722207	-0.828952	0.473337
C131	C	0.722071	-0.829124	0.527941
C132	C	0.755210	-0.879994	0.555273
C133	C	0.788482	-0.930701	0.527998
C134	C	0.788615	-0.930533	0.473394
H135	H	0.556600	-0.471792	0.312670
H136	H	1.103244	-0.879248	0.252237
H137	H	0.816221	-0.787670	0.052560
O138	O	0.820656	-0.980038	0.554632
C139	C	0.813391	-0.969317	0.608673
H140	H	0.796525	-0.908292	0.616153
H141	H	0.785298	-1.015865	0.624032
C142	C	0.886903	-1.052114	0.627663
C143	C	0.866192	-0.977159	0.636851
H144	H	0.919472	-1.056954	0.645046
H145	H	0.891796	-1.059339	0.591255
H146	H	0.863487	-1.090895	0.640463
H147	H	0.889604	-0.938380	0.624046
H148	H	0.861303	-0.969927	0.673258
H149	H	0.694927	-0.970803	0.052531
H150	H	0.694888	-0.970753	-0.046520
O151	O	0.821593	-0.280472	1.057459
C152	C	0.814431	-0.291285	1.111507
H153	H	0.774080	-0.317118	1.118954
H154	H	0.845441	-0.333284	1.127025
C155	C	0.868786	-0.179738	1.130380
C156	C	0.819224	-0.211460	1.139526
H157	H	0.871745	-0.130499	1.147664
H158	H	0.873613	-0.172454	1.093967
H159	H	0.894622	-0.214744	1.143311
H160	H	0.793390	-0.176458	1.126589
H161	H	0.814393	-0.218736	1.175938
H162	H	0.054191	-0.288517	0.191581
O163	O	0.950428	-0.978887	0.318025
C164	C	0.986237	-1.023442	0.347527
H165	H	1.025159	-1.026127	0.326123
H166	H	0.992046	-0.994627	0.387258
C167	C	0.917123	-1.104114	0.381285
C168	C	0.964927	-1.107417	0.354994
H169	H	0.903978	-1.155913	0.385893
H170	H	0.892998	-1.074095	0.361411
H171	H	0.921970	-1.080098	0.414392
H172	H	0.960078	-1.131423	0.321885
H173	H	0.989051	-1.137442	0.374863
O174	O	0.309710	-0.530184	0.351429
C175	C	0.296375	-0.513066	0.403552
H176	H	0.281372	-0.450056	0.406243
H177	H	0.264680	-0.555382	0.417181
C178	C	0.363317	-0.599712	0.435136
C179	C	0.344895	-0.522320	0.438442
H180	H	0.393245	-0.605423	0.456659
H181	H	0.372300	-0.611248	0.400020
H182	H	0.336900	-0.634967	0.446492
H183	H	0.371309	-0.487067	0.427080
H184	H	0.335918	-0.510779	0.473557
H185	H	1.053692	-0.970877	0.312811
O186	O	0.821507	-0.779736	-0.050733
C187	C	0.873625	-0.796969	-0.037400
H188	H	0.874726	-0.827301	0.002244
H189	H	0.891228	-0.837507	-0.068133
C190	C	0.903934	-0.682804	-0.083566
C191	C	0.905288	-0.720053	-0.034872
H192	H	0.923467	-0.635360	-0.082009
H193	H	0.868822	-0.671195	-0.092551
H194	H	0.918603	-0.716594	-0.109172
H195	H	0.890614	-0.686267	-0.009269
H196	H	0.940399	-0.731655	-0.025883
H197	H	0.556059	-0.787991	0.312755
H198	H	0.815711	-0.971818	0.451195
O199	O	0.755472	-0.879300	-0.104627
C200	C	0.718788	-0.934652	-0.122872
H201	H	0.711481	-0.980740	-0.091401
H202	H	0.680655	-0.903401	-0.132571
C203	C	0.749071	-0.918468	-0.210861
C204	C	0.740100	-0.975078	-0.172211
H205	H	0.762216	-0.943403	-0.241297
H206	H	0.773785	-0.881174	-0.198571
H207	H	0.717292	-0.892430	-0.218938
H208	H	0.771881	-1.001109	-0.164130
H209	H	0.715393	-1.012378	-0.184501
O210	O	0.309709	-0.230127	0.152897
C211	C	0.341263	-0.274955	0.119071
H212	H	0.349452	-0.334774	0.137455
H213	H	0.320196	-0.283536	0.080321
C214	C	0.383068	-0.158059	0.087056
C215	C	0.393130	-0.231526	0.109637
H216	H	0.415061	-0.131269	0.081234
H217	H	0.361809	-0.127856	0.109843
H218	H	0.365512	-0.165220	0.054767
H219	H	0.410680	-0.224364	0.141928
H220	H	0.414394	-0.261727	0.086855
H221	H	0.457008	-0.788034	0.312745
O222	O	0.560366	-0.978788	0.186086
C223	C	0.591949	-0.933862	0.152331
H224	H	0.575492	-0.871740	0.149104
H225	H	0.633337	-0.931141	0.168500
C226	C	0.612986	-1.048680	0.101939
C227	C	0.592770	-0.972382	0.097972
H228	H	0.613495	-1.072442	0.068408
H229	H	0.591709	-1.078949	0.124681
H230	H	0.647474	-1.046402	0.115415
H231	H	0.558281	-0.974662	0.084502
H232	H	0.614041	-0.942115	0.075226
O233	O	0.398882	-0.879479	0.252142
C234	C	0.380649	-0.824150	0.288825
H235	H	0.412128	-0.813106	0.319372
H236	H	0.370944	-0.766627	0.268103
C237	C	0.292655	-0.869900	0.278105
C238	C	0.331317	-0.856341	0.315626
H239	H	0.262224	-0.889754	0.294636
H240	H	0.304938	-0.907174	0.253389
H241	H	0.284575	-0.821961	0.260840
H242	H	0.339402	-0.904281	0.332886
H243	H	0.319034	-0.819075	0.340345
O244	O	0.452673	-0.979026	0.186204
C245	C	0.421095	-1.029980	0.215970
H246	H	0.437570	-1.034862	0.257147
H247	H	0.379712	-1.005607	0.217776
C248	C	0.400016	-1.105977	0.139846
C249	C	0.420253	-1.111977	0.190419
H250	H	0.399494	-1.156556	0.124084
H251	H	0.421288	-1.071647	0.119792
H252	H	0.365531	-1.085662	0.141358
H253	H	0.454739	-1.132282	0.188906
H254	H	0.398987	-1.146313	0.210473
H255	H	0.954663	-0.787610	0.191558
H256	H	0.695221	-0.787524	0.451090
O257	O	0.689679	-0.779897	0.554369
C258	C	0.637523	-0.796563	0.540862
H259	H	0.636400	-0.826758	0.501177
H260	H	0.619645	-0.837021	0.571493
C261	C	0.607600	-0.682243	0.587082
C262	C	0.606220	-0.719322	0.538338
H263	H	0.588289	-0.634598	0.585527
H264	H	0.642738	-0.671016	0.596184
H265	H	0.592702	-0.715965	0.612602
H266	H	0.621123	-0.685604	0.512820
H267	H	0.571083	-0.730542	0.529231
O268	O	0.453340	-0.479808	0.317959
C269	C	0.489168	-0.524375	0.347430
H270	H	0.528077	-0.527049	0.326000
H271	H	0.495002	-0.495576	0.387163
C272	C	0.420077	-0.605064	0.381216
C273	C	0.467865	-0.608353	0.354894
H274	H	0.406936	-0.656864	0.385823
H275	H	0.395939	-0.575037	0.361363
H276	H	0.424945	-0.581061	0.414324
H277	H	0.462995	-0.632346	0.321785
H278	H	0.492002	-0.638387	0.374742
O279	O	0.202081	-0.530170	0.351422
C280	C	0.170501	-0.485358	0.385233
H281	H	0.186950	-0.423234	0.388520
H282	H	0.129108	-0.482622	0.369079
C283	C	0.149497	-0.600328	0.435512
C284	C	0.169703	-0.524027	0.439552
H285	H	0.149002	-0.624181	0.469018
H286	H	0.170771	-0.630520	0.412732
H287	H	0.115004	-0.598037	0.422049
H288	H	0.204197	-0.526320	0.453009
H289	H	0.148434	-0.493836	0.462336
O290	O	-0.049177	-0.479717	0.317993
C291	C	-0.103228	-0.468896	0.310826
H292	H	-0.110687	-0.407986	0.293755
H293	H	-0.118741	-0.515623	0.282944
C294	C	-0.122079	-0.551045	0.384690
C295	C	-0.131240	-0.476231	0.363727
H296	H	-0.139359	-0.555573	0.417321
H297	H	-0.085664	-0.558338	0.389517
H298	H	-0.135006	-0.589976	0.361450
H299	H	-0.118307	-0.437303	0.386964
H300	H	-0.167653	-0.468932	0.358905
O301	O	1.058097	-0.779698	0.186414
C302	C	1.112143	-0.790545	0.193602
H303	H	1.119587	-0.816460	0.233935
H304	H	1.127643	-0.832488	0.162566
C305	C	1.131043	-0.678896	0.139356
C306	C	1.140186	-0.710720	0.188896
H307	H	1.148342	-0.629658	0.136451
H308	H	1.094631	-0.671590	0.134512
H309	H	1.143960	-0.713856	0.113498
H310	H	1.127263	-0.675765	0.214753
H311	H	1.176596	-0.718018	0.193745
O312	O	0.202096	-0.229948	0.152919
C313	C	0.237897	-0.185371	0.123442
H314	H	0.276829	-0.182699	0.144859
H315	H	0.243684	-0.214159	0.083704
C316	C	0.168779	-0.104678	0.089686
C317	C	0.216595	-0.101392	0.115993
H318	H	0.155639	-0.052877	0.085089
H319	H	0.144658	-0.134712	0.109543
H320	H	0.173608	-0.128672	0.056574
H321	H	0.211765	-0.077408	0.149107
H322	H	0.240715	-0.071352	0.096141
H323	H	0.755098	-0.880122	0.599734
O324	O	0.560890	-0.280639	0.186236
C325	C	0.592448	-0.325470	0.152415
H326	H	0.600628	-0.385292	0.170797
H327	H	0.571389	-0.334042	0.113660
C328	C	0.634271	-0.208578	0.120414
C329	C	0.644321	-0.282050	0.142994
H330	H	0.666267	-0.181794	0.114601
H331	H	0.613008	-0.178374	0.143198
H332	H	0.616720	-0.215732	0.088121
H333	H	0.661865	-0.274895	0.175289
H334	H	0.665587	-0.312253	0.120215
H335	H	0.054253	-0.471848	0.312748
O336	O	0.821629	-0.280617	0.554941
C337	C	0.851133	-0.236110	0.519124
H338	H	0.852926	-0.268441	0.480212
H339	H	0.831999	-0.176199	0.513295
C340	C	0.904585	-0.185038	0.588231
C341	C	0.906791	-0.224751	0.540439
H342	H	0.938917	-0.178028	0.601380
H343	H	0.884707	-0.215021	0.612362
H344	H	0.888637	-0.135117	0.583367
H345	H	0.922732	-0.274675	0.545305
H346	H	0.926673	-0.194776	0.516309
O347	O	0.821490	-0.280649	0.447332
C348	C	0.791724	-0.229694	0.415740
H349	H	0.752099	-0.257516	0.407550
H350	H	0.785984	-0.171237	0.436773
C351	C	0.869158	-0.181247	0.373938
C352	C	0.820491	-0.215422	0.363876
H353	H	0.886903	-0.172440	0.341947
H354	H	0.889212	-0.215574	0.395224
H355	H	0.864368	-0.132536	0.391468
H356	H	0.825282	-0.264136	0.346353
H357	H	0.800438	-0.181103	0.342586
O358	O	0.855107	-0.230085	0.806109
C359	C	0.884608	-0.185576	0.770291
H360	H	0.886397	-0.217905	0.731377
H361	H	0.865474	-0.125665	0.764465
C362	C	0.938068	-0.134511	0.839393
C363	C	0.940269	-0.174221	0.791600
H364	H	0.972401	-0.127503	0.852539
H365	H	0.918192	-0.164495	0.863526
H366	H	0.922121	-0.084589	0.834532
H367	H	0.956209	-0.224146	0.796463
H368	H	0.960149	-0.144246	0.767469
H369	H	0.457479	-0.288474	0.191521
O370	O	0.821649	-0.280417	0.949814
C371	C	0.851183	-0.235908	0.985622
H372	H	0.829772	-0.233167	1.024539
H373	H	0.890887	-0.264802	0.991444
C374	C	0.885028	-0.155330	0.916504
C375	C	0.858729	-0.151957	0.964301
H376	H	0.889686	-0.103545	0.903351
H377	H	0.865133	-0.185317	0.892378
H378	H	0.918113	-0.179412	0.921362
H379	H	0.825643	-0.127884	0.959441
H380	H	0.878619	-0.121963	0.988425
H381	H	0.695032	-0.471411	1.053094
O382	O	0.689814	-0.479482	0.949775
C383	C	0.701226	-0.558091	0.963154
H384	H	0.742998	-0.562068	0.978173
H385	H	0.673199	-0.578692	0.994849
C386	C	0.643823	-0.605874	0.896215
C387	C	0.695129	-0.610760	0.914659
H388	H	0.640060	-0.638364	0.866303
H389	H	0.636132	-0.552914	0.887203
H390	H	0.620473	-0.623040	0.922633
H391	H	0.718478	-0.593585	0.888243
H392	H	0.702823	-0.663719	0.923666
O393	O	0.656224	-0.529861	0.806126
C394	C	0.626710	-0.574392	0.770313
H395	H	0.624911	-0.542090	0.731384
H396	H	0.645840	-0.634309	0.764525
C397	C	0.573269	-0.625403	0.839415
C398	C	0.571056	-0.585726	0.791602
H399	H	0.538939	-0.632398	0.852547
H400	H	0.593154	-0.595404	0.863543
H401	H	0.589212	-0.675330	0.834584
H402	H	0.555118	-0.535797	0.796434
H403	H	0.551166	-0.615717	0.767475
H404	H	-0.044858	-0.288543	0.191587
O405	O	0.689765	-0.479598	0.447340
C406	C	0.719525	-0.530568	0.415785
H407	H	0.759155	-0.502761	0.407621
H408	H	0.725256	-0.589024	0.436837
C409	C	0.642087	-0.578998	0.373931
C410	C	0.690759	-0.544841	0.363901
H411	H	0.624342	-0.587806	0.341928
H412	H	0.622036	-0.544661	0.395192
H413	H	0.646869	-0.627707	0.391476
H414	H	0.685976	-0.496129	0.346362
H415	H	0.710808	-0.579171	0.342636
H416	H	0.849790	-0.238074	0.702853
O417	O	0.689675	-0.479409	0.555106
C418	C	0.655906	-0.434473	0.586653
H419	H	0.674360	-0.374699	0.594825
H420	H	0.617163	-0.425801	0.565590
C421	C	0.623759	-0.551260	0.628492
C422	C	0.646427	-0.477848	0.638532
H423	H	0.617910	-0.578017	0.660492
H424	H	0.646508	-0.581536	0.607236
H425	H	0.591476	-0.544023	0.610937
H426	H	0.678712	-0.485086	0.656080
H427	H	0.623683	-0.447574	0.659792
H428	H	0.661511	-0.521939	0.702864
