data_functionalizedCrystal
_audit_creation_method	'MofGen! by Chris Wilmer'
_symmetry_space_group_name_H-M	'P1'
_symmetry_Int_Tables_number	1
_symmetry_cell_setting	triclinic
loop_
_symmetry_equiv_pos_as_xyz
  x,y,z
_cell_length_a	11.792254
_cell_length_b	7.088670
_cell_length_c	8.559649
_cell_angle_alpha	82.338650
_cell_angle_beta	76.988631
_cell_angle_gamma	83.068835
loop_
_atom_site_label
_atom_site_type_symbol
_atom_site_fract_x
_atom_site_fract_y
_atom_site_fract_z
O1	O	1.495980	-0.158983	0.233652
O2	O	1.995980	0.341017	0.733652
O3	O	1.163578	-0.158986	0.256185
O4	O	1.663578	0.341014	0.756185
O5	O	1.359064	-0.158983	0.012572
O6	O	1.859064	0.341017	0.512572
O7	O	1.300494	-0.158987	0.477265
O8	O	1.800494	0.341013	0.977265
O9	O	1.340807	0.159007	-0.016872
O10	O	1.840807	0.659007	0.483128
O11	O	1.145322	0.159003	0.226741
O12	O	1.645322	0.659003	0.726741
O13	O	1.477723	0.159006	0.204208
O14	O	1.977723	0.659006	0.704208
Cu15	Cu	1.309855	0.188040	0.212786
Cu16	Cu	1.809855	0.688040	0.712786
Cu17	Cu	1.331446	-0.188020	0.247607
Cu18	Cu	1.831446	0.311980	0.747607
O19	O	1.282238	0.159003	0.447821
O20	O	1.782238	0.659003	0.947821
C21	C	1.112289	0.000008	0.240044
C22	C	1.612289	0.500008	0.740044
C23	C	0.986665	0.000006	0.235795
C24	C	1.486665	0.500006	0.735795
N25	N	1.294678	0.452540	0.188294
N26	N	1.794678	0.952540	0.688294
C27	C	1.354374	0.000009	-0.061641
C28	C	1.854374	0.500009	0.438359
C29	C	1.367587	-0.000002	-0.238905
C30	C	1.867587	0.499998	0.261095
C31	C	0.884645	-0.000002	0.232344
C32	C	1.384645	0.499998	0.732344
C33	C	0.756654	-0.000003	0.228028
C34	C	1.256654	0.499997	0.728028
C35	C	1.529013	0.000008	0.220350
C36	C	2.029013	0.500008	0.720350
C37	C	1.654637	-0.000003	0.224599
C38	C	2.154637	0.499997	0.724599
N39	N	1.346624	0.547480	0.272096
N40	N	1.846624	1.047480	0.772096
C41	C	1.286927	0.000007	0.522034
C42	C	1.786927	0.500007	1.022034
C43	C	1.273716	0.000005	0.699299
C44	C	1.773716	0.500005	1.199299
H45	H	1.240872	0.534231	0.101455
H46	H	1.740872	1.034231	0.601455
H47	H	1.400441	0.465780	0.358932
H48	H	1.900441	0.965780	0.858932
N49	N	1.487437	0.000008	-0.348468
N50	N	1.987437	0.500008	0.151532
H51	H	1.537972	-0.117873	-0.316586
H52	H	2.037972	0.382127	0.183414
H53	H	1.524335	0.117963	-0.338355
H54	H	2.024335	0.617963	0.161645
H55	H	1.183241	0.000010	-0.217994
H56	H	1.683241	0.500010	0.282006
