data_functionalizedCrystal
_audit_creation_method	'MofGen! by Chris Wilmer'
_symmetry_space_group_name_H-M	'P1'
_symmetry_Int_Tables_number	1
_symmetry_cell_setting	triclinic
loop_
_symmetry_equiv_pos_as_xyz
  x,y,z
_cell_length_a	9.065218
_cell_length_b	10.654550
_cell_length_c	9.130313
_cell_angle_alpha	90.000110
_cell_angle_beta	90.000341
_cell_angle_gamma	84.750394
loop_
_atom_site_label
_atom_site_type_symbol
_atom_site_fract_x
_atom_site_fract_y
_atom_site_fract_z
O1	O	-1.959386	-0.184154	-0.121799
O2	O	-1.530019	-0.199259	-0.121801
O3	O	-1.754575	-0.009006	-0.121794
O4	O	-1.734831	-0.374407	-0.121805
O5	O	-1.754572	-0.009012	0.121804
O6	O	-1.530016	-0.199264	0.121798
O7	O	-1.959384	-0.184159	0.121800
Cu8	Cu	-1.744700	-0.191712	0.144041
Cu9	Cu	-1.744703	-0.191706	-0.144042
O10	O	-1.734828	-0.374412	0.121793
C11	C	-1.753124	0.037795	0.000003
C12	C	-1.748786	0.177255	-0.000002
C13	C	-1.475039	-0.197810	-0.000002
C14	C	-1.311220	-0.193469	-0.000002
C15	C	-2.014364	-0.185608	-0.000003
C16	C	-2.178183	-0.189949	-0.000012
C17	C	-1.736279	-0.421213	-0.000007
C18	C	-1.740616	-0.560673	-0.000012
N19	N	-1.744708	-0.191716	0.346664
C20	C	-1.881001	0.256217	0.000003
C21	C	-1.876917	0.387254	-0.000007
C22	C	-1.608391	0.360354	-0.000021
C23	C	-1.612477	0.229320	-0.000021
C24	C	-2.036032	0.271749	0.000017
C25	C	-2.031948	0.402786	0.000007
N26	N	-1.744706	-0.191693	-0.346665
C27	C	-1.844167	-0.107501	0.423319
C28	C	-1.844163	-0.107486	0.576656
C29	C	-1.645236	-0.275911	0.576669
C30	C	-1.645234	-0.275919	0.423335
C31	C	-1.959020	-0.010265	0.423312
C32	C	-1.959016	-0.010250	0.576649
H33	H	-1.504815	0.165033	-0.000046
Cl34	Cl	-1.520190	-0.381762	0.673065
Cl35	Cl	-1.903660	0.130800	0.650075
H36	H	-2.096672	0.242153	-0.101921
Cl37	Cl	-2.122124	0.466909	0.157397
H38	H	-1.933829	0.086367	0.381695
H39	H	-2.072399	-0.032218	0.618265
H40	H	-1.564234	-0.344483	0.360924
H41	H	-2.078802	0.448245	-0.105172
H42	H	-2.066144	-0.041278	0.375753
H43	H	-1.497413	0.402762	-0.000038
H44	H	-2.085399	0.235924	0.105199
