data_functionalizedCrystal
_audit_creation_method	'MofGen! by Chris Wilmer'
_symmetry_space_group_name_H-M	'P1'
_symmetry_Int_Tables_number	1
_symmetry_cell_setting	triclinic
loop_
_symmetry_equiv_pos_as_xyz
  x,y,z
_cell_length_a	12.759401
_cell_length_b	16.120484
_cell_length_c	12.759401
_cell_angle_alpha	87.115907
_cell_angle_beta	90.003120
_cell_angle_gamma	92.925560
loop_
_atom_site_label
_atom_site_type_symbol
_atom_site_fract_x
_atom_site_fract_y
_atom_site_fract_z
Zn1	Zn	1.584795	-0.332041	0.615157
Zn2	Zn	1.575794	-0.471427	0.448367
Zn3	Zn	1.409144	-0.332031	0.439496
Zn4	Zn	1.400144	-0.471417	0.624008
O5	O	1.492469	-0.401729	0.531757
O6	O	1.730621	-0.350539	0.593041
O7	O	1.553688	-0.452936	0.300169
O8	O	1.439978	-0.215365	0.455381
O9	O	1.724008	-0.452946	0.470501
O10	O	1.569028	-0.215372	0.584439
O11	O	1.431251	-0.350522	0.293652
O12	O	1.260930	-0.350512	0.463963
O13	O	1.424638	-0.452928	0.769855
O14	O	1.254317	-0.452918	0.599523
O15	O	1.560300	-0.350529	0.763352
O16	O	1.544960	-0.588094	0.479083
O17	O	1.415911	-0.588086	0.608125
C18	C	1.219503	-0.401714	0.531742
C19	C	1.102725	-0.401727	0.531761
C20	C	1.044442	-0.455135	0.602242
C21	C	0.934717	-0.455146	0.602254
C22	C	0.941569	-0.348338	0.461296
C23	C	1.051292	-0.348323	0.461290
C24	C	1.095876	-0.508539	0.672713
C25	C	1.037592	-0.561952	0.743199
C26	C	0.927867	-0.561963	0.743211
C27	C	0.876426	-0.508560	0.672737
C28	C	1.478511	-0.618340	0.545550
C29	C	1.472635	-0.711007	0.551485
C30	C	1.461914	-0.880672	0.562344
C31	C	1.523212	-0.921946	0.501187
C32	C	1.517247	-1.016353	0.507229
C33	C	1.467878	-0.786256	0.556304
C34	C	1.766501	-0.401745	0.531773
C35	C	1.883278	-0.401752	0.531780
C36	C	1.492469	-0.401728	0.805790
C37	C	1.492469	-0.401728	0.922567
C38	C	1.506511	-0.184272	0.517933
C39	C	1.512495	-0.091605	0.512043
C40	C	1.563102	-0.348421	0.974045
C41	C	1.563098	-0.348424	1.083770
C42	C	1.421823	-0.455050	1.090527
C43	C	1.421824	-0.455041	0.980805
C44	C	1.633748	-0.295107	0.915807
C45	C	1.704387	-0.241796	0.967286
C46	C	1.704383	-0.241799	1.077010
C47	C	1.633738	-0.295114	1.135256
C48	C	1.492461	-0.401746	1.258791
C49	C	1.492464	-0.401740	1.142014
H50	H	0.880416	-0.605449	0.800610
H51	H	1.079483	-0.605426	0.800581
H52	H	0.787081	-0.508566	0.672762
H53	H	1.404959	-0.916235	0.619234
C54	C	1.782090	-0.183151	0.903221
C55	C	1.782103	-0.183145	0.782531
C56	C	1.859808	-0.124497	0.718469
C57	C	1.937500	-0.065856	0.775097
C58	C	1.937490	-0.065860	0.895794
C59	C	1.859785	-0.124507	0.959856
H60	H	1.724588	-0.226556	0.740605
H61	H	1.859815	-0.124495	0.629121
H62	H	1.995022	-0.022442	0.727675
H63	H	1.995005	-0.022448	0.937720
H64	H	1.859778	-0.124510	1.049204
C65	C	1.600151	-0.873906	0.424310
C66	C	1.606077	-0.778133	0.418288
C67	C	1.683005	-0.730089	0.341409
C68	C	1.754009	-0.777818	0.270551
C69	C	1.748085	-0.873595	0.276570
C70	C	1.671156	-0.921639	0.353450
H71	H	1.553514	-0.742797	0.470744
H72	H	1.687390	-0.659188	0.336953
H73	H	1.810956	-0.742253	0.213640
H74	H	1.800648	-0.908932	0.224115
H75	H	1.666772	-0.992541	0.357905
H76	H	1.633762	-0.295100	0.826464
H77	H	1.761893	-0.198385	1.118920
H78	H	1.364293	-0.498436	0.938889
H79	H	1.185219	-0.508538	0.672710
H80	H	1.633729	-0.295103	1.224600
H81	H	1.098748	-0.304827	0.403906
C82	C	0.884986	-0.289604	0.383772
C83	C	0.764295	-0.289622	0.383774
C84	C	0.707714	-0.230890	0.306245
C85	C	0.771823	-0.172140	0.228716
C86	C	0.892522	-0.172120	0.228711
C87	C	0.949103	-0.230852	0.306240
H88	H	0.716831	-0.333114	0.441168
H89	H	0.618365	-0.230906	0.306249
H90	H	0.729939	-0.128664	0.171324
H91	H	0.939986	-0.128628	0.171317
H92	H	1.038452	-0.230837	0.306236
C93	C	1.344127	-0.513699	1.154595
C94	C	1.344129	-0.513712	1.275286
C95	C	1.266433	-0.572364	1.339352
C96	C	1.188736	-0.631004	1.282727
C97	C	1.188731	-0.630993	1.162030
C98	C	1.266426	-0.572340	1.097964
H99	H	1.401647	-0.470302	1.317209
H100	H	1.266437	-0.572372	1.428700
H101	H	1.131221	-0.674422	1.330153
H102	H	1.131212	-0.674403	1.120107
H103	H	1.266422	-0.572332	1.008615
