data_functionalizedCrystal
_audit_creation_method	'MofGen! by Chris Wilmer'
_symmetry_space_group_name_H-M	'P1'
_symmetry_Int_Tables_number	1
_symmetry_cell_setting	triclinic
loop_
_symmetry_equiv_pos_as_xyz
  x,y,z
_cell_length_a	17.077404
_cell_length_b	11.169416
_cell_length_c	17.077395
_cell_angle_alpha	90.018561
_cell_angle_beta	89.984359
_cell_angle_gamma	89.986686
loop_
_atom_site_label
_atom_site_type_symbol
_atom_site_fract_x
_atom_site_fract_y
_atom_site_fract_z
Zn1	Zn	1.200078	0.477815	-0.443890
Zn2	Zn	1.200017	0.678522	-0.312644
Zn3	Zn	1.068819	0.477853	-0.312638
Zn4	Zn	1.068800	0.678455	-0.443867
O5	O	1.134428	0.578161	-0.378260
O6	O	1.309917	0.504451	-0.426492
O7	O	1.182595	0.651947	-0.202796
O8	O	1.086264	0.309898	-0.330056
O9	O	1.309872	0.651910	-0.330066
O10	O	1.182700	0.309870	-0.426486
O11	O	1.086204	0.504516	-0.202792
O12	O	0.958969	0.504451	-0.330034
O13	O	1.086233	0.651796	-0.553717
O14	O	0.958956	0.651833	-0.426448
O15	O	1.182682	0.504387	-0.553734
O16	O	1.182577	0.846463	-0.330044
O17	O	1.086173	0.846414	-0.426453
C18	C	0.930481	0.578140	-0.378238
C19	C	0.843231	0.578159	-0.378247
C20	C	1.134388	0.889986	-0.378264
C21	C	1.134442	1.023386	-0.378292
C22	C	0.802254	0.655017	-0.428370
C23	C	0.720274	0.655019	-0.428382
C24	C	0.679271	0.578169	-0.378268
C25	C	0.720254	0.501303	-0.328144
C26	C	0.802233	0.501296	-0.328136
C27	C	0.549384	0.501327	-0.328163
C28	C	0.467399	0.501336	-0.328169
C29	C	0.467425	0.655051	-0.428409
C30	C	0.549404	0.655043	-0.428401
C31	C	0.590380	0.578178	-0.378275
C32	C	1.339173	0.578184	-0.378282
C33	C	1.426423	0.578194	-0.378291
C34	C	1.134483	1.265119	-0.378281
C35	C	1.134486	1.131719	-0.378311
C36	C	1.134462	0.578080	-0.583004
C37	C	1.134477	0.578045	-0.670254
C38	C	1.184785	0.501126	-1.046078
C39	C	1.184769	0.501168	-0.964098
C40	C	1.134541	0.577931	-0.923103
C41	C	1.084332	0.654667	-0.964093
C42	C	1.084353	0.654630	-1.046072
C43	C	1.084291	0.654736	-0.793223
C44	C	1.084270	0.654772	-0.711238
C45	C	1.184707	0.501274	-0.711249
C46	C	1.184728	0.501237	-0.793228
C47	C	1.134518	0.577971	-0.834212
C48	C	1.134440	0.578156	-0.174312
C49	C	1.134578	0.577853	-0.087063
H50	H	0.835632	0.717601	-0.469176
H51	H	1.225624	0.438725	-0.826604
H52	H	0.434058	0.717633	-0.469225
Cl53	Cl	0.415854	0.404729	-0.265164
Cl54	Cl	1.021234	0.751093	-1.097595
H55	H	0.582745	0.438725	-0.287352
H56	H	0.686914	0.717606	-0.469196
Cl57	Cl	1.021130	0.751283	-0.659702
H58	H	1.043407	0.717224	-0.826589
Cl59	Cl	0.668708	0.404683	-0.265148
H60	H	0.835595	0.438704	-0.287325
Cl61	Cl	1.021190	0.751172	-0.912556
H62	H	1.225681	0.438608	-1.079451
Cl63	Cl	0.600949	0.751664	-0.491397
H64	H	1.225589	0.438792	-0.677876
H65	H	1.225654	0.438693	-0.930732
