data_functionalizedCrystal
_audit_creation_method	'MofGen! by Chris Wilmer'
_symmetry_space_group_name_H-M	'P1'
_symmetry_Int_Tables_number	1
_symmetry_cell_setting	triclinic
loop_
_symmetry_equiv_pos_as_xyz
  x,y,z
_cell_length_a	14.908783
_cell_length_b	12.759400
_cell_length_c	12.759393
_cell_angle_alpha	90.023884
_cell_angle_beta	93.322580
_cell_angle_gamma	93.294885
loop_
_atom_site_label
_atom_site_type_symbol
_atom_site_fract_x
_atom_site_fract_y
_atom_site_fract_z
Zn1	Zn	1.379368	-0.325639	0.686932
Zn2	Zn	1.379304	-0.501359	0.511268
Zn3	Zn	1.228493	-0.335816	0.501110
Zn4	Zn	1.228516	-0.511401	0.676754
O5	O	1.303920	-0.418554	0.594016
O6	O	1.505606	-0.340487	0.672140
O7	O	1.359262	-0.479456	0.362897
O8	O	1.248524	-0.187444	0.525768
O9	O	1.505559	-0.469588	0.543081
O10	O	1.359371	-0.179967	0.662290
O11	O	1.248462	-0.357833	0.355434
O12	O	1.102250	-0.367570	0.515898
O13	O	1.248563	-0.486703	0.825127
O14	O	1.102266	-0.496571	0.644943
O15	O	1.359393	-0.350224	0.832605
O16	O	1.359284	-0.649713	0.533212
O17	O	1.248501	-0.657091	0.654793
C18	C	1.069524	-0.434265	0.578215
C19	C	0.969248	-0.441012	0.571480
C20	C	0.780866	-0.319441	0.693419
C21	C	0.686648	-0.325777	0.687095
C22	C	0.686592	-0.460012	0.552501
C23	C	0.780810	-0.453677	0.558826
C24	C	0.827944	-0.383390	0.629288
C25	C	0.922164	-0.377061	0.635617
C26	C	0.922106	-0.511290	0.501020
C27	C	0.827888	-0.517626	0.494695
C28	C	1.303913	-0.691522	0.594025
C29	C	1.303992	-0.808293	0.594069
C30	C	1.303988	-0.418449	0.868054
C31	C	1.304016	-0.418404	0.984832
C32	C	1.539232	-0.402782	0.609879
C33	C	1.639508	-0.396061	0.616639
C34	C	1.303952	-0.144519	0.594031
C35	C	1.303966	-0.027741	0.594038
C36	C	1.246264	0.023230	0.522964
C37	C	1.246274	0.132955	0.522982
C38	C	1.361697	0.140728	0.665151
C39	C	1.361681	0.031005	0.665137
C40	C	1.303905	-0.418580	0.321047
C41	C	1.304051	-0.418317	0.204281
C42	C	1.361730	-0.347328	1.043590
C43	C	1.361745	-0.347282	1.153315
C44	C	1.246331	-0.489396	1.145515
C45	C	1.246312	-0.489436	1.035792
H46	H	0.648321	-0.273700	0.739314
H47	H	1.408714	-0.289486	1.002102
O48	O	0.635742	-0.535807	0.476503
H49	H	0.684305	-0.579208	0.432961
O50	O	0.777049	-0.593428	0.418695
H51	H	0.734150	-0.649823	0.462754
H52	H	0.819243	-0.262215	0.750797
O53	O	0.973002	-0.301244	0.711603
H54	H	0.954952	-0.320554	0.792822
O55	O	1.423915	-0.023981	0.741806
H56	H	1.469791	-0.070923	0.697876
H57	H	1.408740	-0.289404	1.201151
H58	H	0.960447	-0.563371	0.448807
O59	O	1.184008	-0.040137	0.446293
H60	H	1.143879	0.013745	0.396882
O61	O	1.184048	0.187936	0.446313
H62	H	1.143923	0.128650	0.396867
O63	O	1.423957	0.204088	0.741823
H64	H	1.414284	0.288951	0.729884
O65	O	1.184095	-0.566009	1.200477
H66	H	1.193808	-0.554047	1.286647
O67	O	1.184035	-0.566070	0.972403
H68	H	1.143912	-0.615457	1.026270
