data_functionalizedCrystal
_audit_creation_method	'MofGen! by Chris Wilmer'
_symmetry_space_group_name_H-M	'P1'
_symmetry_Int_Tables_number	1
_symmetry_cell_setting	triclinic
loop_
_symmetry_equiv_pos_as_xyz
  x,y,z
_cell_length_a	14.908571
_cell_length_b	18.050589
_cell_length_c	14.908694
_cell_angle_alpha	93.272134
_cell_angle_beta	83.592472
_cell_angle_gamma	86.724558
loop_
_atom_site_label
_atom_site_type_symbol
_atom_site_fract_x
_atom_site_fract_y
_atom_site_fract_z
Zn1	Zn	1.413277	-0.390979	-0.591527
Zn2	Zn	1.913277	0.109021	-0.091527
Zn3	Zn	1.404426	-0.507570	-0.440167
Zn4	Zn	1.904426	-0.007570	0.059833
Zn5	Zn	1.253181	-0.375789	-0.431461
Zn6	Zn	1.753181	0.124211	0.068539
Zn7	Zn	1.261858	-0.507512	-0.582766
Zn8	Zn	1.761858	-0.007512	-0.082766
O9	O	1.333185	-0.445463	-0.511480
O10	O	1.833185	0.054537	-0.011480
O11	O	1.538769	-0.412826	-0.578759
O12	O	2.038769	0.087174	-0.078759
O13	O	1.377028	-0.483756	-0.312347
O14	O	1.877028	0.016244	0.187653
O15	O	1.274492	-0.273884	-0.452717
O16	O	1.774492	0.226116	0.047283
O17	O	1.532266	-0.498485	-0.467556
O18	O	2.032266	0.001515	0.032444
O19	O	1.392113	-0.285044	-0.570317
O20	O	1.892113	0.214956	-0.070317
O21	O	1.265909	-0.386937	-0.305950
O22	O	1.765909	0.113063	0.194050
O23	O	1.127666	-0.386881	-0.444222
O24	O	1.627666	0.113119	0.055778
O25	O	1.289279	-0.498387	-0.710594
O26	O	1.789279	0.001613	-0.210594
O27	O	1.134041	-0.483658	-0.555385
O28	O	1.634041	0.016342	-0.055385
O29	O	1.400526	-0.412770	-0.717030
O30	O	1.900526	0.087230	-0.217030
O31	O	1.385441	-0.611482	-0.459061
O32	O	1.885441	-0.111482	0.040939
O33	O	1.280696	-0.611440	-0.563827
O34	O	1.780696	-0.111440	-0.063827
C35	C	1.098011	-0.433615	-0.497908
C36	C	1.598011	0.066385	0.002092
C37	C	0.997403	-0.428566	-0.492124
C38	C	1.497403	0.071434	0.007876
C39	C	0.815028	-0.519991	-0.596852
C40	C	1.315028	-0.019991	-0.096852
C41	C	0.720498	-0.515249	-0.591420
C42	C	1.220498	-0.015249	-0.091420
C43	C	0.713813	-0.414338	-0.475833
C44	C	1.213813	0.085662	0.024167
C45	C	0.808342	-0.419080	-0.481265
C46	C	1.308342	0.080920	0.018735
C47	C	0.858947	-0.471909	-0.541776
C48	C	1.358947	0.028091	-0.041776
C49	C	0.953478	-0.476653	-0.547203
C50	C	1.453478	0.023347	-0.047203
C51	C	0.946791	-0.375739	-0.431621
C52	C	1.446791	0.124261	0.068379
C53	C	0.852261	-0.370997	-0.426189
C54	C	1.352261	0.129003	0.073811
C55	C	1.333075	-0.638408	-0.511459
C56	C	1.833075	-0.138408	-0.011459
C57	C	1.333113	-0.720957	-0.511485
C58	C	1.833113	-0.220957	-0.011485
C59	C	1.276211	-0.920414	-0.568439
C60	C	1.776211	-0.420414	-0.068439
C61	C	1.249382	-0.964597	-0.484573
C62	C	1.749382	-0.464597	0.015427
C63	C	1.333202	-0.872093	-0.511502
C64	C	1.833202	-0.372093	-0.011502
C65	C	1.360076	-0.974993	-0.595380
C66	C	1.860076	-0.474993	-0.095380
C67	C	1.333288	-1.018083	-0.511525
C68	C	1.833288	-0.518083	-0.011525
C69	C	1.306328	-0.915185	-0.427589
C70	C	1.806328	-0.415185	0.072411
C71	C	1.417063	-0.925581	-0.538454
C72	C	1.917063	-0.425581	-0.038454
C73	C	1.390262	-0.969741	-0.454533
C74	C	1.890262	-0.469741	0.045467
C75	C	1.333151	-0.787991	-0.511489
C76	C	1.833151	-0.287991	-0.011489
C77	C	1.333339	-1.102182	-0.511528
C78	C	1.833339	-0.602182	-0.011528
C79	C	1.569279	-0.457356	-0.525106
C80	C	2.069279	0.042644	-0.025106
C81	C	1.669887	-0.462425	-0.530912
C82	C	2.169887	0.037575	-0.030912
C83	C	1.346858	-0.457267	-0.747573
C84	C	1.846858	0.042733	-0.247573
C85	C	1.352684	-0.462297	-0.848182
C86	C	1.852684	0.037703	-0.348182
C87	C	1.333322	-0.251765	-0.511523
C88	C	1.833322	0.248235	-0.011523
C89	C	1.333380	-0.169223	-0.511541
C90	C	1.833380	0.330777	-0.011541
C91	C	1.247903	-0.370933	-1.030577
C92	C	1.747903	0.129067	-0.530577
C93	C	1.253374	-0.375656	-1.125107
C94	C	1.753374	0.124344	-0.625107
C95	C	1.369092	-0.476471	-1.131776
C96	C	1.869092	0.023529	-0.631776
C97	C	1.363621	-0.471747	-1.037245
C98	C	1.863621	0.028253	-0.537245
C99	C	1.303025	-0.418976	-0.986649
C100	C	1.803025	0.081024	-0.486649
C101	C	1.297559	-0.414249	-0.892117
C102	C	1.797559	0.085751	-0.392117
C103	C	1.413272	-0.515066	-0.898787
C104	C	1.913272	-0.015066	-0.398787
C105	C	1.418743	-0.519790	-0.993317
C106	C	1.918743	-0.019790	-0.493317
C107	C	1.319619	-0.433653	-0.276309
C108	C	1.819619	0.066347	0.223691
C109	C	1.313968	-0.428423	-0.175710
C110	C	1.813968	0.071577	0.324290
H111	H	0.672595	-0.371323	-0.426574
H112	H	1.172595	0.128677	0.073426
H113	H	1.438491	-0.991262	-0.406334
H114	H	1.938491	-0.491262	0.093666
H115	H	1.382772	-1.001090	-0.666306
H116	H	1.882772	-0.501090	-0.166306
Br117	Br	0.783577	-0.299300	-0.344077
Br118	Br	1.283577	0.200700	0.155923
H119	H	1.458160	-0.554184	-0.863011
H120	H	1.958160	-0.054184	-0.363011
H121	H	0.982559	-0.336589	-0.386771
H122	H	1.482559	0.163411	0.113229
H123	H	1.227936	-0.898748	-0.616512
H124	H	1.727936	-0.398748	-0.116512
H125	H	0.684743	-0.554401	-0.636271
H126	H	1.184743	-0.054401	-0.136271
Br127	Br	1.022154	-0.548352	-0.629318
Br128	Br	1.522154	-0.048352	-0.129318
Br129	Br	1.131240	-0.993447	-0.446580
Br130	Br	1.631240	-0.493447	0.053420
H131	H	1.208488	-0.336535	-1.160870
H132	H	1.708488	0.163465	-0.660870
H133	H	0.856230	-0.563010	-0.646118
H134	H	1.356230	-0.063010	-0.146118
Br135	Br	1.215328	-0.342628	-0.823450
Br136	Br	1.715328	0.157372	-0.323450
Br137	Br	1.268368	-0.871836	-0.309332
Br138	Br	1.768368	-0.371836	0.190668
Br139	Br	1.500970	-0.591409	-1.061991
Br140	Br	2.000970	-0.091409	-0.561991
H141	H	1.418414	-0.519444	-1.172987
H142	H	1.918414	-0.019444	-0.672987
H143	H	1.487928	-0.908256	-0.561270
H144	H	1.987928	-0.408256	-0.061270
Br145	Br	1.165682	-0.299307	-0.961906
Br146	Br	1.665682	0.200693	-0.461906
