data_functionalizedCrystal
_audit_creation_method	'MofGen! by Chris Wilmer'
_symmetry_space_group_name_H-M	'P1'
_symmetry_Int_Tables_number	1
_symmetry_cell_setting	triclinic
loop_
_symmetry_equiv_pos_as_xyz
  x,y,z
_cell_length_a	10.654554
_cell_length_b	10.654551
_cell_length_c	17.766277
_cell_angle_alpha	89.996514
_cell_angle_beta	89.990493
_cell_angle_gamma	84.486102
loop_
_atom_site_label
_atom_site_type_symbol
_atom_site_fract_x
_atom_site_fract_y
_atom_site_fract_z
O1	O	1.667847	0.176429	-0.062592
O2	O	1.302369	0.193229	-0.062593
O3	O	1.493511	0.002090	-0.062593
O4	O	1.476706	0.367568	-0.062592
O5	O	1.493477	0.002080	0.062596
O6	O	1.302335	0.193219	0.062596
O7	O	1.667813	0.176419	0.062596
Cu8	Cu	1.485071	0.184818	0.074027
Cu9	Cu	1.485111	0.184830	-0.074023
O10	O	1.476672	0.367558	0.062596
C11	C	1.255555	0.191989	0.000002
C12	C	1.116112	0.188295	0.000001
C13	C	0.933549	0.068808	-0.000005
C14	C	1.064571	0.072279	0.000000
C15	C	1.036623	0.300848	0.000005
C16	C	0.905604	0.297376	0.000005
C17	C	0.882016	-0.047215	-0.000014
C18	C	0.961496	-0.159769	-0.000016
C19	C	1.092517	-0.156299	-0.000011
C20	C	1.144059	-0.040274	-0.000003
C21	C	1.492259	-0.044713	-0.000000
C22	C	1.488567	-0.184156	-0.000005
C23	C	1.486853	-0.249663	-0.068244
C24	C	1.483373	-0.380683	-0.068241
C25	C	1.483326	-0.380680	0.068247
C26	C	1.486797	-0.249661	0.068242
C27	C	1.488623	-0.184159	-0.136492
C28	C	1.486911	-0.249665	-0.204736
C29	C	1.483431	-0.380686	-0.204733
C30	C	1.481663	-0.446199	-0.136485
C31	C	1.714628	0.177659	0.000000
C32	C	1.854071	0.181353	-0.000004
C33	C	1.477923	0.414361	0.000002
C34	C	1.481616	0.553804	0.000002
N35	N	1.485052	0.184809	0.178157
N36	N	1.485140	0.184829	-0.178154
C37	C	1.569717	0.100215	0.217544
C38	C	1.569725	0.100209	0.296346
C39	C	1.485079	0.184819	0.335758
C40	C	1.400397	0.269419	0.296361
C41	C	1.400384	0.269414	0.217561
C42	C	1.469620	0.299057	0.460596
C43	C	1.469642	0.299064	0.539395
C44	C	1.485112	0.184834	0.578804
C45	C	1.500588	0.070594	0.539405
C46	C	1.500574	0.070589	0.460604
C47	C	1.485083	0.184833	0.421203
C48	C	1.569790	0.100227	0.703637
C49	C	1.569789	0.100220	0.782440
C50	C	1.400467	0.269441	0.782454
C51	C	1.400463	0.269438	0.703652
C52	C	1.485131	0.184832	0.664248
H53	H	1.157227	-0.247945	-0.000005
H54	H	1.638729	0.031326	0.814509
H55	H	1.457000	0.392082	0.428515
H56	H	1.331525	0.338327	0.671581
F57	F	1.453181	0.420647	0.581319
F58	F	1.283507	-0.036587	0.000045
F59	F	1.091483	0.424320	0.000009
H60	H	0.840890	0.389020	0.000009
F61	F	1.481595	-0.450398	-0.277363
H62	H	1.488165	-0.196321	0.123808
H63	H	1.488339	-0.196314	-0.260301
H64	H	1.638671	0.031319	0.328420
H65	H	1.478811	-0.552883	-0.136488
F66	F	1.492333	-0.044716	-0.136501
H67	H	1.331542	0.338328	0.814543
H68	H	1.481887	-0.434032	0.123811
F69	F	1.310307	0.359464	0.338307
H70	H	0.775334	-0.050054	-0.000021
H71	H	1.331438	0.338302	0.185492
F72	F	1.659823	0.010167	0.175609
F73	F	1.517033	-0.050991	0.418676
H74	H	1.513185	-0.022423	0.571490
F75	F	1.659896	0.010177	0.661699
H76	H	0.919521	-0.254231	-0.000029
