data_functionalizedCrystal
_audit_creation_method	'MofGen! by Chris Wilmer'
_symmetry_space_group_name_H-M	'P1'
_symmetry_Int_Tables_number	1
_symmetry_cell_setting	triclinic
loop_
_symmetry_equiv_pos_as_xyz
  x,y,z
_cell_length_a	11.026607
_cell_length_b	14.519731
_cell_length_c	9.482900
_cell_angle_alpha	99.351580
_cell_angle_beta	78.636152
_cell_angle_gamma	96.137435
loop_
_atom_site_label
_atom_site_type_symbol
_atom_site_fract_x
_atom_site_fract_y
_atom_site_fract_z
O1	O	1.629932	0.375019	-0.120915
O2	O	1.963265	0.708352	0.212418
O3	O	2.296598	1.041686	0.545752
O4	O	1.276526	0.331028	-0.120915
O5	O	1.609859	0.664362	0.212419
O6	O	1.943192	0.997695	0.545752
O7	O	1.462583	0.220329	-0.120902
O8	O	1.795917	0.553663	0.212432
O9	O	2.129250	0.886996	0.545765
O10	O	1.443874	0.485718	-0.120928
O11	O	1.777208	0.819051	0.212405
O12	O	2.110541	1.152385	0.545739
O13	O	1.424791	0.242930	0.120888
O14	O	1.758124	0.576264	0.454222
O15	O	2.091458	0.909597	0.787555
O16	O	1.238733	0.353629	0.120875
O17	O	1.572067	0.686963	0.454209
O18	O	1.905400	1.020296	0.787542
O19	O	1.592139	0.397620	0.120875
O20	O	1.925473	0.730953	0.454208
O21	O	2.258806	1.064287	0.787542
Cu22	Cu	1.411986	0.377688	0.142952
Cu23	Cu	1.745319	0.711022	0.476286
Cu24	Cu	2.078652	1.044355	0.809619
Cu25	Cu	1.456679	0.350960	-0.142992
Cu26	Cu	1.790013	0.684293	0.190341
Cu27	Cu	2.123346	1.017627	0.523675
O28	O	1.406082	0.508319	0.120862
O29	O	1.739415	0.841652	0.454195
O30	O	2.072749	1.174986	0.787529
C31	C	1.212400	0.334213	-0.000019
C32	C	1.545734	0.667547	0.333314
C33	C	1.879067	1.000880	0.666647
C34	C	1.077631	0.310021	-0.000019
C35	C	1.410965	0.643354	0.333314
C36	C	1.744298	0.976687	0.666648
C37	C	1.003978	0.376820	-0.000026
C38	C	1.337312	0.710153	0.333307
C39	C	1.670645	1.043487	0.666640
C40	C	0.864687	0.351817	-0.000026
C41	C	1.198021	0.685151	0.333307
C42	C	1.531354	1.018484	0.666641
C43	C	1.442810	0.197126	-0.000006
C44	C	1.776143	0.530459	0.333327
C45	C	2.109477	0.863793	0.666660
C46	C	1.440183	0.094313	-0.000005
C47	C	1.773516	0.427646	0.333328
C48	C	2.106849	0.760980	0.666661
C49	C	1.438048	0.010817	-0.000009
C50	C	1.771381	0.344150	0.333325
C51	C	2.104715	0.677483	0.666658
C52	C	1.435382	-0.093933	-0.000020
C53	C	1.768716	0.239401	0.333313
C54	C	2.102049	0.572734	0.666647
C55	C	1.433266	-0.177421	-0.000029
C56	C	1.766600	0.155912	0.333304
C57	C	2.099933	0.489245	0.666637
C58	C	1.430600	-0.282177	-0.000038
C59	C	1.763934	0.051156	0.333296
C60	C	2.097267	0.384490	0.666629
C61	C	1.656265	0.394435	-0.000023
C62	C	1.989599	0.727768	0.333310
C63	C	2.322932	1.061101	0.666643
C64	C	1.791036	0.418626	-0.000033
C65	C	2.124369	0.751960	0.333300
C66	C	2.457703	1.085293	0.666633
C67	C	1.425855	0.531522	-0.000037
C68	C	1.759189	0.864855	0.333297
C69	C	2.092522	1.198189	0.666630
C70	C	1.428485	0.634334	-0.000047
C71	C	1.761818	0.967667	0.333286
C72	C	2.095151	1.301001	0.666620
N73	N	1.380559	0.396488	0.344070
N74	N	1.713893	0.729822	0.677404
N75	N	2.047226	1.063155	1.010737
N76	N	1.488115	0.332154	-0.344110
N77	N	1.821449	0.665488	-0.010777
N78	N	2.154782	0.998821	0.322557
C79	C	1.447402	0.356499	0.416274
C80	C	1.780735	0.689832	0.749608
C81	C	2.114068	1.023166	1.082941
C82	C	1.421263	0.372149	0.583690
C83	C	1.754597	0.705483	0.917023
C84	C	2.087930	1.038816	1.250357
H85	H	0.824634	0.276110	-0.000056
H86	H	1.157968	0.609443	0.333278
H87	H	1.491301	0.942776	0.666611
H88	H	1.344677	0.417971	0.645809
H89	H	1.678010	0.751305	0.979142
H90	H	2.011343	1.084638	1.312476
H91	H	1.044042	0.452520	-0.000026
H92	H	1.377375	0.785853	0.333308
H93	H	1.710708	1.119187	0.666641
H94	H	1.564693	0.286324	0.593771
H95	H	1.898026	0.619657	0.927104
H96	H	2.231360	0.952991	1.260438
H97	H	1.303978	0.442307	0.406195
H98	H	1.637311	0.775641	0.739528
H99	H	1.970645	1.108974	1.072862
H100	H	0.831092	0.494332	-0.000031
H101	H	1.164425	0.827665	0.333302
H102	H	1.497758	1.160998	0.666635
H103	H	1.037572	0.234318	-0.000049
H104	H	1.370906	0.567651	0.333285
H105	H	1.704239	0.900985	0.666618
H106	H	1.523975	0.310672	0.354152
H107	H	1.857308	0.644005	0.687485
H108	H	2.190641	0.977338	1.020818
