data_functionalizedCrystal
_audit_creation_method	'MofGen! by Chris Wilmer'
_symmetry_space_group_name_H-M	'P1'
_symmetry_Int_Tables_number	1
_symmetry_cell_setting	triclinic
loop_
_symmetry_equiv_pos_as_xyz
  x,y,z
_cell_length_a	27.732048
_cell_length_b	27.732048
_cell_length_c	26.210047
_cell_angle_alpha	90.000479
_cell_angle_beta	89.996535
_cell_angle_gamma	97.357345
loop_
_atom_site_label
_atom_site_type_symbol
_atom_site_fract_x
_atom_site_fract_y
_atom_site_fract_z
O1	O	0.640931	-0.057510	-0.042369
O2	O	1.140931	0.442490	0.457631
O3	O	0.500138	-0.066256	-0.042385
O4	O	1.000138	0.433744	0.457615
O5	O	0.574907	0.008514	-0.042367
O6	O	1.074907	0.508514	0.457633
O7	O	0.566162	-0.132279	-0.042387
O8	O	1.066162	0.367721	0.457613
O9	O	0.574893	0.008502	0.042491
O10	O	1.074893	0.508502	0.542491
O11	O	0.500123	-0.066267	0.042473
O12	O	1.000123	0.433733	0.542473
O13	O	0.640917	-0.057522	0.042489
O14	O	1.140917	0.442478	0.542489
Cu15	Cu	0.570519	-0.061896	0.050229
Cu16	Cu	1.070519	0.438104	0.550229
Cu17	Cu	0.570536	-0.061882	-0.050125
Cu18	Cu	1.070536	0.438118	0.449875
O19	O	0.566147	-0.132291	0.042471
O20	O	1.066147	0.367709	0.542471
C21	C	0.482124	-0.066078	0.000042
C22	C	0.982124	0.433922	0.500042
C23	C	0.428469	-0.065525	0.000036
C24	C	0.928469	0.434475	0.500036
C25	C	0.089654	-0.106229	0.000053
C26	C	0.589654	0.393771	0.500053
C27	C	-0.112006	-0.104178	0.000057
C28	C	0.387994	0.395822	0.500057
O29	O	-0.143262	-0.141398	0.000074
O30	O	0.356738	0.358602	0.500074
N31	N	-0.131130	-0.059843	0.000063
N32	N	0.368870	0.440157	0.500063
C33	C	-0.099835	-0.016017	0.000071
C34	C	0.400165	0.483983	0.500071
O35	O	-0.120728	0.021740	0.000081
O36	O	0.379272	0.521740	0.500081
C37	C	0.101824	-0.018068	0.000069
C38	C	0.601824	0.481932	0.500069
C39	C	0.120944	-0.062407	0.000059
C40	C	0.620944	0.437593	0.500059
C41	C	0.108775	-0.150563	0.000043
C42	C	0.608775	0.349437	0.500043
C43	C	0.159187	-0.151076	0.000039
C44	C	0.659187	0.348924	0.500039
C45	C	0.190477	-0.107253	0.000045
C46	C	0.690477	0.392747	0.500045
C47	C	0.171356	-0.062919	0.000055
C48	C	0.671356	0.437081	0.500055
C49	C	0.133117	0.025757	0.000081
C50	C	0.633117	0.525757	0.500081
C51	C	0.183535	0.025240	0.000082
C52	C	0.683535	0.525240	0.500082
C53	C	0.202655	-0.019098	0.000071
C54	C	0.702655	0.480902	0.500071
C55	C	0.253059	-0.019609	0.000057
C56	C	0.753059	0.480391	0.500057
N57	N	0.272183	-0.063944	0.000051
N58	N	0.772183	0.436056	0.500051
C59	C	0.240892	-0.107766	0.000045
C60	C	0.740892	0.392234	0.500045
C61	C	-0.205709	-0.014943	0.000070
C62	C	0.294291	0.485057	0.500070
C63	C	-0.256124	-0.014430	0.000070
C64	C	0.243876	0.485570	0.500070
C65	C	-0.268291	-0.102591	0.000057
C66	C	0.231709	0.397409	0.500057
C67	C	-0.217876	-0.103104	0.000054
C68	C	0.282124	0.396896	0.500054
C69	C	-0.186585	-0.059278	0.000065
C70	C	0.313415	0.440722	0.500065
C71	C	0.346761	-0.108839	0.000036
C72	C	0.846761	0.391161	0.500036
C73	C	0.397178	-0.109347	0.000030
C74	C	0.897178	0.390653	0.500030
C75	C	0.409341	-0.021186	0.000045
C76	C	0.909341	0.478814	0.500045
C77	C	0.358929	-0.020678	0.000049
C78	C	0.858929	0.479322	0.500049
C79	C	0.327639	-0.064508	0.000046
C80	C	0.827639	0.435492	0.500046
O81	O	0.284343	0.017592	0.000046
O82	O	0.784343	0.517592	0.500046
O83	O	0.261794	-0.145518	0.000047
O84	O	0.761794	0.354482	0.500047
C85	C	0.039242	-0.105716	0.000057
C86	C	0.539242	0.394284	0.500057
C87	C	0.020120	-0.061382	0.000067
C88	C	0.520120	0.438618	0.500067
C89	C	0.051411	-0.017560	0.000073
C90	C	0.551411	0.482440	0.500073
C91	C	-0.030294	-0.060869	0.000066
C92	C	0.469706	0.439131	0.500066
C93	C	-0.061585	-0.104691	0.000060
C94	C	0.438415	0.395309	0.500060
C95	C	-0.042461	-0.149026	0.000054
C96	C	0.457539	0.350974	0.500054
C97	C	0.007951	-0.149539	0.000050
C98	C	0.507951	0.350461	0.500050
C99	C	0.032287	0.026775	0.000078
C100	C	0.532287	0.526775	0.500078
C101	C	-0.018125	0.027284	0.000082
C102	C	0.481875	0.527284	0.500082
C103	C	-0.049416	-0.016538	0.000076
C104	C	0.450584	0.483462	0.500076
C105	C	0.574716	0.026515	0.000064
C106	C	1.074716	0.526515	0.500064
C107	C	0.574164	0.080170	0.000068
C108	C	1.074164	0.580170	0.500068
C109	C	0.658931	-0.057699	0.000061
C110	C	1.158931	0.442301	0.500061
C111	C	0.712586	-0.058252	0.000064
C112	C	1.212586	0.441748	0.500064
C113	C	0.566338	-0.150292	0.000040
C114	C	1.066338	0.349708	0.500040
C115	C	0.566891	-0.203947	0.000032
C116	C	1.066891	0.296053	0.500032
N117	N	0.570510	-0.061905	0.120813
N118	N	1.070510	0.438095	0.620813
C119	C	0.614867	0.418985	0.000046
C120	C	1.114867	0.918985	0.500046
C121	C	0.612816	0.620645	0.000039
C122	C	1.112816	1.120645	0.500039
O123	O	0.650037	0.651900	0.000021
O124	O	1.150037	1.151900	0.500021
N125	N	0.568481	0.639768	0.000034
N126	N	1.068481	1.139768	0.500034
C127	C	0.524656	0.608474	0.000028
C128	C	1.024656	1.108474	0.500028
O129	O	0.486899	0.629367	0.000019
O130	O	0.986899	1.129367	0.500019
C131	C	0.526707	0.406815	0.000032
C132	C	1.026707	0.906815	0.500032
C133	C	0.571045	0.387694	0.000042
C134	C	1.071045	0.887694	0.500042
C135	C	0.659202	0.399864	0.000056
C136	C	1.159202	0.899864	0.500056
C137	C	0.659714	0.349452	0.000060
C138	C	1.159714	0.849452	0.500060
C139	C	0.615892	0.318161	0.000056
C140	C	1.115892	0.818161	0.500056
C141	C	0.571557	0.337282	0.000046
C142	C	1.071557	0.837282	0.500046
C143	C	0.482882	0.375521	0.000022
C144	C	0.982882	0.875521	0.500022
C145	C	0.483399	0.325104	0.000022
C146	C	0.983399	0.825104	0.500022
C147	C	0.527737	0.305983	0.000032
C148	C	1.027737	0.805983	0.500032
C149	C	0.528247	0.255580	0.000046
C150	C	1.028247	0.755580	0.500046
N151	N	0.572583	0.236456	0.000051
N152	N	1.072583	0.736456	0.500051
C153	C	0.616405	0.267747	0.000056
C154	C	1.116405	0.767747	0.500056
C155	C	0.523582	0.714348	0.000027
C156	C	1.023582	1.214348	0.500027
C157	C	0.523069	0.764762	0.000027
C158	C	1.023069	1.264762	0.500027
C159	C	0.611230	0.776930	0.000037
C160	C	1.111230	1.276930	0.500037
C161	C	0.611742	0.726514	0.000041
C162	C	1.111742	1.226514	0.500041
C163	C	0.567917	0.695224	0.000032
C164	C	1.067917	1.195224	0.500032
C165	C	0.617477	0.161878	0.000066
C166	C	1.117477	0.661878	0.500066
C167	C	0.617986	0.111461	0.000073
C168	C	1.117986	0.611461	0.500073
C169	C	0.529825	0.099298	0.000060
C170	C	1.029825	0.599298	0.500060
C171	C	0.529316	0.149710	0.000056
C172	C	1.029316	0.649710	0.500056
C173	C	0.573147	0.180999	0.000057
C174	C	1.073147	0.680999	0.500057
O175	O	0.491047	0.224296	0.000059
O176	O	0.991047	0.724296	0.500059
O177	O	0.654156	0.246844	0.000054
O178	O	1.154156	0.746844	0.500054
C179	C	0.614355	0.469397	0.000042
C180	C	1.114355	0.969397	0.500042
C181	C	0.570021	0.488518	0.000033
C182	C	1.070021	0.988518	0.500033
C183	C	0.526198	0.457228	0.000028
C184	C	1.026198	0.957228	0.500028
C185	C	0.569508	0.538933	0.000033
C186	C	1.069508	1.038933	0.500033
C187	C	0.613330	0.570223	0.000037
C188	C	1.113330	1.070223	0.500037
C189	C	0.657665	0.551100	0.000042
C190	C	1.157665	1.051100	0.500042
C191	C	0.658177	0.500688	0.000046
C192	C	1.158177	1.000688	0.500046
C193	C	0.481863	0.476351	0.000023
C194	C	0.981863	0.976351	0.500023
C195	C	0.481355	0.526764	0.000019
C196	C	0.981355	1.026764	0.500019
C197	C	0.525177	0.558054	0.000024
C198	C	1.025177	1.058054	0.500024
N199	N	0.570548	-0.061868	-0.120709
N200	N	1.070548	0.438132	0.379291
C201	C	0.603640	-0.028781	0.473336
C202	C	1.103640	0.471219	0.973336
C203	C	0.603651	-0.028774	0.686994
C204	C	1.103651	0.471226	1.186994
O205	O	0.631801	-0.000614	0.714623
O206	O	1.131801	0.499386	1.214623
N207	N	0.570538	-0.061871	0.713707
N208	N	1.070538	0.438129	1.213707
C209	C	0.537419	-0.094970	0.687003
C210	C	1.037419	0.405030	1.187003
O211	O	0.509251	-0.123117	0.714626
O212	O	1.009251	0.376883	1.214626
C213	C	0.537406	-0.094974	0.473345
C214	C	1.037406	0.405026	0.973345
C215	C	0.570524	-0.061878	0.446635
C216	C	1.070524	0.438122	0.946635
C217	C	0.636755	0.004312	0.446625
C218	C	1.136755	0.504312	0.946625
C219	C	0.636754	0.004308	0.393214
C220	C	1.136754	0.504308	0.893214
C221	C	0.603638	-0.028789	0.366513
C222	C	1.103638	0.471211	0.866513
C223	C	0.570523	-0.061882	0.393223
C224	C	1.070523	0.438118	0.893223
C225	C	0.504284	-0.128070	0.446641
C226	C	1.004284	0.371930	0.946641
C227	C	0.504283	-0.128067	0.393223
C228	C	1.004283	0.371933	0.893223
C229	C	0.537401	-0.094971	0.366513
C230	C	1.037401	0.405029	0.866513
C231	C	0.537405	-0.094983	0.313111
C232	C	1.037405	0.405017	0.813111
N233	N	0.570518	-0.061886	0.286397
N234	N	1.070518	0.438114	0.786397
C235	C	0.603634	-0.028789	0.313098
C236	C	1.103634	0.471211	0.813098
C237	C	0.537428	-0.094966	0.799176
C238	C	1.037428	0.405034	1.299176
C239	C	0.537432	-0.094965	0.852590
C240	C	1.037432	0.405035	1.352590
C241	C	0.603664	-0.028769	0.852578
C242	C	1.103664	0.471231	1.352578
C243	C	0.603662	-0.028773	0.799163
C244	C	1.103662	0.471227	1.299163
C245	C	0.570541	-0.061869	0.772463
C246	C	1.070541	0.438131	1.272463
C247	C	0.603629	-0.028800	0.200931
C248	C	1.103629	0.471200	0.700931
C249	C	0.603626	-0.028808	0.147514
C250	C	1.103626	0.471192	0.647514
C251	C	0.537393	-0.095002	0.147531
C252	C	1.037393	0.404998	0.647531
C253	C	0.537397	-0.094996	0.200943
C254	C	1.037397	0.405004	0.700943
C255	C	0.570517	-0.061891	0.227641
C256	C	1.070517	0.438109	0.727641
O257	O	0.509267	-0.123125	0.285449
O258	O	1.009267	0.376875	0.785449
O259	O	0.631790	-0.000639	0.285466
O260	O	1.131790	0.499361	0.785466
C261	C	0.603641	-0.028777	0.526747
C262	C	1.103641	0.471223	1.026747
C263	C	0.570527	-0.061871	0.553457
C264	C	1.070527	0.438129	1.053457
C265	C	0.537410	-0.094968	0.526756
C266	C	1.037410	0.405032	1.026756
C267	C	0.570530	-0.061870	0.606872
C268	C	1.070530	0.438130	1.106872
C269	C	0.603646	-0.028773	0.633573
C270	C	1.103646	0.471227	1.133573
C271	C	0.636759	0.004323	0.606859
C272	C	1.136759	0.504323	1.106859
C273	C	0.636758	0.004320	0.553448
C274	C	1.136758	0.504320	1.053448
C275	C	0.504298	-0.128064	0.553470
C276	C	1.004298	0.371936	1.053470
C277	C	0.504302	-0.128058	0.606881
C278	C	1.004302	0.371942	1.106881
C279	C	0.537418	-0.094961	0.633582
C280	C	1.037418	0.405039	1.133582
H281	H	0.321291	-0.144530	0.000036
H282	H	0.821291	0.355470	0.500036
H283	H	0.510456	-0.121918	0.777440
H284	H	1.010456	0.378082	1.277440
H285	H	-0.033688	0.063392	0.000086
H286	H	0.466312	0.563392	0.500086
H287	H	0.083302	-0.186251	0.000039
H288	H	0.583302	0.313749	0.500039
C289	C	0.396203	0.318145	0.000006
C290	C	0.896203	0.818145	0.500006
C291	C	0.435223	0.290710	0.000014
C292	C	0.935223	0.790710	0.500014
H293	H	0.366462	0.296911	0.000006
H294	H	0.866462	0.796911	0.500006
H295	H	0.397844	0.338059	-0.029585
H296	H	0.897844	0.838059	0.470415
H297	H	0.397835	0.338064	0.029599
H298	H	0.897835	0.838064	0.529599
H299	H	0.433593	0.270793	-0.029581
H300	H	0.933593	0.770793	0.470419
H301	H	0.433581	0.270788	0.029609
H302	H	0.933581	0.770788	0.529609
C303	C	0.438814	-0.193498	0.398605
C304	C	0.938814	0.306502	0.898605
C305	C	0.467877	-0.164452	0.363876
C306	C	0.967877	0.335548	0.863876
H307	H	0.416342	-0.215962	0.380486
H308	H	0.916342	0.284038	0.880486
H309	H	0.421581	-0.173493	0.419436
H310	H	0.921581	0.326507	0.919436
H311	H	0.458810	-0.210744	0.419439
H312	H	0.958810	0.289256	0.919439
H313	H	0.447881	-0.147203	0.343044
H314	H	0.947881	0.352797	0.843044
H315	H	0.485111	-0.184459	0.343035
H316	H	0.985111	0.315541	0.843035
H317	H	0.630629	-0.001823	0.777418
H318	H	1.130629	0.498177	1.277418
H319	H	0.654093	0.095896	0.000082
H320	H	1.154093	0.595896	0.500082
C321	C	0.420408	-0.157014	0.623326
C322	C	0.920408	0.342986	1.123326
C323	C	0.467895	-0.164439	0.636238
C324	C	0.967895	0.335561	1.136238
H325	H	0.397931	-0.179470	0.641451
H326	H	0.897931	0.320530	1.141451
H327	H	0.415675	-0.161753	0.587696
H328	H	0.915675	0.338247	1.087696
H329	H	0.415411	-0.124785	0.632081
H330	H	0.915411	0.375215	1.132081
H331	H	0.472893	-0.196667	0.627480
H332	H	0.972893	0.303333	1.127480
H333	H	0.472629	-0.159704	0.671876
H334	H	0.972629	0.340296	1.171876
H335	H	0.117558	0.061861	0.000090
H336	H	0.617558	0.561861	0.500090
H337	H	0.510469	-0.121920	0.874334
H338	H	1.010469	0.378080	1.374334
C339	C	0.471925	-0.160422	0.195587
C340	C	0.971925	0.339578	0.695587
C341	C	0.500992	-0.131372	0.230306
C342	C	1.000992	0.368628	0.730306
H343	H	0.449444	-0.182874	0.213713
H344	H	0.949444	0.317126	0.713713
H345	H	0.491913	-0.177678	0.174759
H346	H	0.991913	0.322322	0.674759
H347	H	0.454697	-0.140414	0.174747
H348	H	0.954697	0.359586	0.674747
H349	H	0.518223	-0.151380	0.251143
H350	H	1.018223	0.348620	0.751143
H351	H	0.481001	-0.114115	0.251142
H352	H	0.981001	0.385885	0.751142
H353	H	0.694282	0.485125	0.000054
H354	H	1.194282	0.985125	0.500054
H355	H	0.477317	-0.155019	0.468381
H356	H	0.977317	0.344981	0.968381
H357	H	-0.202311	-0.139207	0.000049
H358	H	0.297689	0.360793	0.500049
H359	H	0.209009	0.060929	0.000091
H360	H	0.709009	0.560929	0.500091
C361	C	0.702221	0.069752	0.558818
C362	C	1.202221	0.569752	1.058818
C363	C	0.673159	0.040703	0.524093
C364	C	1.173159	0.540703	1.024093
H365	H	0.724691	0.092217	0.540697
H366	H	1.224691	0.592217	1.040697
H367	H	0.719455	0.049748	0.579647
H368	H	1.219455	0.549748	1.079647
H369	H	0.682224	0.086997	0.579655
H370	H	1.182224	0.586997	1.079655
H371	H	0.693156	0.023455	0.503258
H372	H	1.193156	0.523455	1.003258
H373	H	0.655923	0.060709	0.503254
H374	H	1.155923	0.560709	1.003254
C375	C	0.096036	0.077352	-0.043544
C376	C	0.596036	0.577352	0.456456
C377	C	0.066678	0.074949	0.000081
C378	C	0.566678	0.574949	0.500081
H379	H	0.117268	0.107093	-0.043543
H380	H	0.617268	0.607093	0.456457
H381	H	0.076114	0.075719	-0.073128
H382	H	0.576114	0.575719	0.426872
H383	H	0.114643	0.050876	-0.043542
H384	H	0.614643	0.550876	0.456458
H385	H	0.048069	0.101423	0.000077
H386	H	0.548069	0.601423	0.500077
H387	H	0.086603	0.076586	0.029672
H388	H	0.586603	0.576586	0.529672
H389	H	0.343360	0.015426	0.000050
H390	H	0.843360	0.515426	0.500050
H391	H	0.477330	-0.155015	0.531734
H392	H	0.977330	0.344985	1.031734
C393	C	0.614626	0.037075	0.260985
C394	C	1.114626	0.537075	0.760985
C395	C	0.640035	0.007588	0.230273
C396	C	1.140035	0.507588	0.730273
H397	H	0.637104	0.059539	0.279097
H398	H	1.137104	0.559539	0.779097
H399	H	0.594911	0.017369	0.284539
H400	H	1.094911	0.517369	0.784539
H401	H	0.594637	0.054321	0.240143
H402	H	1.094637	0.554321	0.740143
H403	H	0.660022	-0.009661	0.251115
H404	H	1.160022	0.490339	0.751115
H405	H	0.659759	0.027297	0.206716
H406	H	1.159759	0.527297	0.706716
H407	H	0.663725	0.031271	0.628608
H408	H	1.163725	0.531271	1.128608
H409	H	0.646911	0.802415	0.000041
H410	H	1.146911	1.302415	0.500041
H411	H	0.663720	0.031259	0.371469
H412	H	1.163720	0.531259	0.871469
C413	C	-0.106223	-0.199583	-0.043571
C414	C	0.393777	0.300417	0.456429
C415	C	-0.076863	-0.197196	0.000049
C416	C	0.423137	0.302804	0.500049
H417	H	-0.127465	-0.229319	-0.043570
H418	H	0.372535	0.270681	0.456430
H419	H	-0.086303	-0.197955	-0.073158
H420	H	0.413697	0.302045	0.426842
H421	H	-0.124819	-0.173099	-0.043561
H422	H	0.375181	0.326901	0.456439
H423	H	-0.058265	-0.223679	0.000037
H424	H	0.441735	0.276321	0.500037
H425	H	-0.096786	-0.198830	0.029644
H426	H	0.403214	0.301170	0.529644
H427	H	0.653168	0.187348	0.000065
H428	H	1.153168	0.687348	0.500065
C429	C	0.632672	0.055112	0.869024
C430	C	1.132672	0.555112	1.369024
C431	C	0.640064	0.007615	0.881933
C432	C	1.140064	0.507615	1.381933
H433	H	0.655143	0.077574	0.887146
H434	H	1.155143	0.577574	1.387146
H435	H	0.600454	0.060131	0.877781
H436	H	1.100454	0.560131	1.377781
H437	H	0.637413	0.059845	0.833390
H438	H	1.137413	0.559845	1.333390
H439	H	0.635319	0.002881	0.917567
H440	H	1.135319	0.502881	1.417567
H441	H	0.672290	0.002594	0.873179
H442	H	1.172290	0.502594	1.373179
H443	H	0.174750	-0.187180	0.000030
H444	H	0.674750	0.312820	0.500030
H445	H	0.434827	0.014492	0.000048
H446	H	0.934827	0.514492	0.500048
H447	H	0.663722	0.031266	0.468360
H448	H	1.163722	0.531266	0.968360
H449	H	0.412743	-0.145454	0.000021
H450	H	0.912743	0.354546	0.500021
H451	H	-0.293777	-0.138273	0.000053
H452	H	0.206223	0.361727	0.500053
C453	C	-0.239020	0.072660	0.000085
C454	C	0.260980	0.572660	0.500085
C455	C	-0.277138	0.034308	0.000077
C456	C	0.222862	0.534308	0.500077
H457	H	-0.251993	0.102749	0.000095
H458	H	0.248007	0.602749	0.500095
H459	H	-0.219610	0.070630	-0.029506
H460	H	0.280390	0.570630	0.470494
H461	H	-0.219612	0.070615	0.029678
H462	H	0.280388	0.570615	0.529678
H463	H	-0.296544	0.036351	-0.029518
H464	H	0.203456	0.536351	0.470482
H465	H	-0.296556	0.036339	0.029671
H466	H	0.203444	0.536339	0.529671
C467	C	0.746803	0.366558	0.000064
C468	C	1.246803	0.866558	0.500064
C469	C	0.708452	0.328439	0.000064
C470	C	1.208452	0.828439	0.500064
H471	H	0.776893	0.353587	0.000063
H472	H	1.276893	0.853587	0.500063
H473	H	0.744763	0.385966	0.029654
H474	H	1.244763	0.885966	0.529654
H475	H	0.744765	0.385968	-0.029530
H476	H	1.244765	0.885968	0.470470
H477	H	0.710488	0.309031	0.029660
H478	H	1.210488	0.809031	0.529660
H479	H	0.710493	0.309023	-0.029529
H480	H	1.210493	0.809023	0.470471
H481	H	0.694889	0.425336	0.000058
H482	H	1.194889	0.925336	0.500058
C483	C	0.057573	-0.201264	-0.043591
C484	C	0.557573	0.298736	0.456409
C485	C	0.028960	-0.198279	0.000036
C486	C	0.528960	0.301721	0.500036
H487	H	0.070536	-0.231358	-0.043601
H488	H	0.570536	0.268642	0.456399
H489	H	0.083428	-0.175248	-0.043582
H490	H	0.583428	0.324752	0.456418
H491	H	0.038155	-0.199219	-0.073176
H492	H	0.538155	0.300781	0.426824
H493	H	0.048379	-0.200321	0.029622
H494	H	0.548379	0.299679	0.529622
H495	H	0.003101	-0.224302	0.000032
H496	H	0.503101	0.275698	0.500032
H497	H	0.647846	0.710950	0.000048
H498	H	1.147846	1.210950	0.500048
C499	C	0.435979	0.747659	0.000013
C500	C	0.935979	1.247659	0.500013
C501	C	0.474331	0.785776	0.000021
C502	C	0.974331	1.285776	0.500021
H503	H	0.405889	0.760632	0.000004
H504	H	0.905889	1.260632	0.500004
H505	H	0.438008	0.728251	0.029605
H506	H	0.938008	1.228251	0.529605
H507	H	0.438025	0.728248	-0.029579
H508	H	0.938025	1.228248	0.470421
H509	H	0.472287	0.805185	0.029616
H510	H	0.972287	1.305185	0.529616
H511	H	0.472301	0.805192	-0.029574
H512	H	0.972301	1.305192	0.470426
H513	H	0.487892	0.688875	0.000020
H514	H	0.987892	1.188875	0.500020
C515	C	0.431166	0.425142	-0.043620
C516	C	0.931166	0.925142	0.456380
C517	C	0.434143	0.396530	0.000005
C518	C	0.934143	0.896530	0.500005
H519	H	0.401075	0.438112	-0.043629
H520	H	0.901075	0.938112	0.456371
H521	H	0.433211	0.405726	-0.073203
H522	H	0.933211	0.905726	0.426797
H523	H	0.457188	0.450998	-0.043609
H524	H	0.957188	0.950998	0.456391
H525	H	0.408123	0.370672	-0.000008
H526	H	0.908123	0.870672	0.499992
H527	H	0.432093	0.415946	0.029596
H528	H	0.932093	0.915946	0.529596
H529	H	0.493213	0.165279	0.000062
H530	H	0.993213	0.665279	0.500062
H531	H	0.494146	0.073812	0.000058
H532	H	0.994146	0.573812	0.500058
H533	H	-0.180236	0.020747	0.000079
H534	H	0.319764	0.520747	0.500079
C535	C	0.696016	0.633787	0.000036
C536	C	1.196016	1.133787	0.500036
C537	C	0.705835	0.585501	0.000043
C538	C	1.205835	1.085501	0.500043
H539	H	0.725753	0.655026	0.000031
H540	H	1.225753	1.155026	0.500031
H541	H	0.677820	0.639546	0.029624
H542	H	1.177820	1.139546	0.529624
H543	H	0.677820	0.639538	-0.029560
H544	H	1.177820	1.139538	0.470440
H545	H	0.724028	0.579750	0.029641
H546	H	1.224028	1.079750	0.529641
H547	H	0.724039	0.579740	-0.029549
H548	H	1.224039	1.079740	0.470451
H549	H	0.445246	0.542327	0.000016
H550	H	0.945246	1.042327	0.500016
H551	H	0.446177	0.450879	0.000018
H552	H	0.946177	0.950879	0.500018
H553	H	0.630597	-0.001858	0.125768
H554	H	1.130597	0.498142	0.625768
H555	H	0.510432	-0.121951	0.125783
H556	H	1.010432	0.378049	0.625783
