data_functionalizedCrystal
_audit_creation_method	'MofGen! by Chris Wilmer'
_symmetry_space_group_name_H-M	'P1'
_symmetry_Int_Tables_number	1
_symmetry_cell_setting	triclinic
loop_
_symmetry_equiv_pos_as_xyz
  x,y,z
_cell_length_a	19.805407
_cell_length_b	19.805404
_cell_length_c	11.169409
_cell_angle_alpha	90.035702
_cell_angle_beta	89.975883
_cell_angle_gamma	89.969238
loop_
_atom_site_label
_atom_site_type_symbol
_atom_site_fract_x
_atom_site_fract_y
_atom_site_fract_z
Zn1	Zn	1.034746	0.269408	-0.678652
Zn2	Zn	1.534746	0.769408	-0.178652
Zn3	Zn	1.034643	0.382618	-0.477957
Zn4	Zn	1.534643	0.882618	0.022043
Zn5	Zn	0.921551	0.269448	-0.477971
Zn6	Zn	1.421551	0.769448	0.022029
Zn7	Zn	0.921515	0.382561	-0.678587
Zn8	Zn	1.421515	0.882561	-0.178587
O9	O	0.978114	0.326009	-0.578292
O10	O	1.478114	0.826009	-0.078292
O11	O	1.129449	0.284433	-0.652051
O12	O	1.629449	0.784433	-0.152051
O13	O	1.019613	0.367646	-0.310009
O14	O	1.519613	0.867646	0.189991
O15	O	0.936625	0.174726	-0.504625
O16	O	1.436625	0.674726	-0.004625
O17	O	1.129373	0.367607	-0.504601
O18	O	1.629373	0.867607	-0.004601
O19	O	1.019788	0.174697	-0.652065
O20	O	1.519788	0.674697	-0.152065
O21	O	0.936525	0.284500	-0.310020
O22	O	1.436525	0.784500	0.189980
O23	O	0.826830	0.284445	-0.504562
O24	O	1.326830	0.784445	-0.004562
O25	O	0.936563	0.367511	-0.846545
O26	O	1.436563	0.867511	-0.346545
O27	O	0.826803	0.367549	-0.651954
O28	O	1.326803	0.867549	-0.151954
O29	O	1.019753	0.284378	-0.846593
O30	O	1.519753	0.784378	-0.346593
O31	O	1.019578	0.477327	-0.504538
O32	O	1.519578	0.977327	-0.004538
O33	O	0.936464	0.477285	-0.651940
O34	O	1.436464	0.977285	-0.151940
C35	C	0.802258	0.325996	-0.578253
C36	C	1.302258	0.825996	-0.078253
C37	C	0.727026	0.326006	-0.578265
C38	C	1.227026	0.826006	-0.078265
C39	C	0.691685	0.369344	-0.654887
C40	C	1.191685	0.869344	-0.154887
C41	C	0.620997	0.369345	-0.654904
C42	C	1.120997	0.869345	-0.154904
C43	C	0.585650	0.326012	-0.578292
C44	C	1.085650	0.826012	-0.078292
C45	C	0.620995	0.282670	-0.501666
C46	C	1.120995	0.782670	-0.001666
C47	C	0.691682	0.282666	-0.501656
C48	C	1.191682	0.782666	-0.001656
C49	C	0.335922	0.282685	-0.501706
C50	C	0.835922	0.782685	-0.001706
C51	C	0.265230	0.282694	-0.501719
C52	C	0.765230	0.782694	-0.001719
C53	C	0.265237	0.369364	-0.654954
C54	C	0.765237	0.869364	-0.154954
C55	C	0.335924	0.369360	-0.654944
C56	C	0.835924	0.869360	-0.154944
C57	C	0.371263	0.326016	-0.578323
C58	C	0.871263	0.826016	-0.078323
C59	C	0.447911	0.326014	-0.578307
C60	C	0.947911	0.826014	-0.078307
C61	C	0.509003	0.326016	-0.578301
C62	C	1.009003	0.826016	-0.078301
C63	C	0.978024	0.501865	-0.578256
C64	C	1.478024	1.001865	-0.078256
C65	C	0.978048	0.577097	-0.578281
C66	C	1.478048	1.077097	-0.078281
C67	C	1.021543	1.038887	-0.501751
C68	C	1.521543	1.538887	-0.001751
C69	C	1.021513	0.968198	-0.501723
C70	C	1.521513	1.468198	-0.001723
C71	C	0.978190	0.932858	-0.578392
C72	C	1.478190	1.432858	-0.078392
C73	C	0.934890	0.968210	-0.655086
C74	C	1.434890	1.468210	-0.155086
C75	C	0.934917	1.038897	-0.655106
C76	C	1.434917	1.538897	-0.155106
C77	C	0.934778	0.683137	-0.655002
C78	C	1.434778	1.183137	-0.155002
C79	C	0.934755	0.612445	-0.654978
C80	C	1.434755	1.112445	-0.154978
C81	C	1.021373	0.612438	-0.501619
C82	C	1.521373	1.112438	-0.001619
C83	C	1.021401	0.683125	-0.501640
C84	C	1.521401	1.183125	-0.001640
C85	C	0.978099	0.718471	-0.578328
C86	C	1.478099	1.218471	-0.078328
C87	C	0.978131	0.795119	-0.578356
C88	C	1.478131	1.295119	-0.078356
C89	C	0.978161	0.856211	-0.578372
C90	C	1.478161	1.356211	-0.078372
C91	C	1.154656	0.326022	-0.578332
C92	C	1.654656	0.826022	-0.078332
C93	C	1.229888	0.326028	-0.578348
C94	C	1.729888	0.826028	-0.078348
C95	C	0.978166	0.325933	-0.891335
C96	C	1.478166	0.825933	-0.391335
C97	C	0.978188	0.325901	-1.024735
C98	C	1.478188	0.825901	-0.524735
C99	C	0.978217	1.149466	-0.578369
C100	C	1.478217	1.649466	-0.078369
C101	C	0.978248	1.074234	-0.578441
C102	C	1.478248	1.574234	-0.078441
C103	C	0.978101	0.326035	-0.266467
C104	C	1.478101	0.826035	0.233533
C105	C	0.978210	0.325876	-0.133068
C106	C	1.478210	0.825876	0.366932
H107	H	0.592226	0.404635	-0.717297
H108	H	1.092226	0.904635	-0.217297
C109	C	0.730556	0.234993	-0.417363
C110	C	1.230556	0.734993	0.082637
N111	N	0.759835	0.199083	-0.353872
N112	N	1.259835	0.699083	0.146128
C113	C	0.226357	0.417038	-0.739249
C114	C	0.726357	0.917038	-0.239249
N115	N	0.197075	0.452946	-0.802738
N116	N	0.697075	0.952946	-0.302738
C117	C	0.887100	0.573572	-0.739333
C118	C	1.387100	1.073572	-0.239333
N119	N	0.851210	0.544293	-0.802871
N120	N	1.351210	1.044293	-0.302871
C121	C	1.069127	0.929320	-0.417334
C122	C	1.569127	1.429320	0.082666
N123	N	1.104987	0.900037	-0.353757
N124	N	1.604987	1.400037	0.146243
H125	H	0.899514	0.711907	-0.717438
H126	H	1.399514	1.211907	-0.217438
C127	C	0.226350	0.235016	-0.417444
C128	C	0.726350	0.735016	0.082556
N129	N	0.197065	0.199107	-0.353974
N130	N	0.697065	0.699107	0.146026
H131	H	0.364687	0.247396	-0.439307
H132	H	0.864687	0.747396	0.060693
H133	H	0.592210	0.247384	-0.439292
H134	H	1.092210	0.747384	0.060708
C135	C	0.730560	0.417015	-0.739168
C136	C	1.230560	0.917015	-0.239168
N137	N	0.759839	0.452920	-0.802655
N138	N	1.259839	0.952920	-0.302655
C139	C	0.887290	1.077779	-0.739474
C140	C	1.387290	1.577779	-0.239474
N141	N	0.851415	1.107063	-0.803020
N142	N	1.351415	1.607063	-0.303020
H143	H	1.056825	1.067656	-0.439325
H144	H	1.556825	1.567656	0.060675
H145	H	1.056631	0.583652	-0.439172
H146	H	1.556631	1.083652	0.060828
C147	C	0.374801	0.417030	-0.739222
C148	C	0.874801	0.917030	-0.239222
N149	N	0.404083	0.452935	-0.802705
N150	N	0.904083	0.952935	-0.302705
C151	C	1.069057	0.721995	-0.417295
C152	C	1.569057	1.221995	0.082705
N153	N	1.104950	0.751271	-0.353759
N154	N	1.604950	1.251271	0.146241
C155	C	0.887235	0.929334	-0.739423
C156	C	1.387235	1.429334	-0.239423
N157	N	0.851342	0.900052	-0.802952
N158	N	1.351342	1.400052	-0.302952
