data_functionalizedCrystal
_audit_creation_method	'MofGen! by Chris Wilmer'
_symmetry_space_group_name_H-M	'P1'
_symmetry_Int_Tables_number	1
_symmetry_cell_setting	triclinic
loop_
_symmetry_equiv_pos_as_xyz
  x,y,z
_cell_length_a	19.077105
_cell_length_b	29.839131
_cell_length_c	19.077222
_cell_angle_alpha	92.316442
_cell_angle_beta	90.096061
_cell_angle_gamma	87.737628
loop_
_atom_site_label
_atom_site_type_symbol
_atom_site_fract_x
_atom_site_fract_y
_atom_site_fract_z
Zn1	Zn	1.058104	-0.194815	0.440400
Zn2	Zn	1.062729	-0.273058	0.322883
Zn3	Zn	0.945343	-0.195047	0.318192
Zn4	Zn	0.940533	-0.267021	0.435637
O5	O	1.001677	-0.232485	0.379278
O6	O	1.157048	-0.207624	0.428768
O7	O	1.051105	-0.265333	0.223928
O8	O	0.960379	-0.132150	0.334433
O9	O	1.160445	-0.265108	0.342428
O10	O	1.043224	-0.131980	0.424219
O11	O	0.964863	-0.208018	0.220481
O12	O	0.846375	-0.202165	0.329815
O13	O	0.952181	-0.254819	0.534602
O14	O	0.842842	-0.255043	0.416102
O15	O	1.038560	-0.201770	0.538101
O16	O	1.046442	-0.335123	0.337810
O17	O	0.956665	-0.330687	0.420650
C18	C	0.819112	-0.227974	0.371933
C19	C	0.741010	-0.226055	0.368807
C20	C	0.702498	-0.252730	0.412193
C21	C	0.629112	-0.250920	0.409260
C22	C	0.594239	-0.222438	0.362936
C23	C	0.632756	-0.195761	0.319549
C24	C	0.706140	-0.197568	0.322486
C25	C	0.374958	-0.214073	0.349345
C26	C	0.301569	-0.212269	0.346409
C27	C	0.297930	-0.267428	0.436121
C28	C	0.371316	-0.269235	0.439051
C29	C	0.409826	-0.242556	0.395667
N30	N	0.519227	-0.220589	0.359935
N31	N	0.484837	-0.244403	0.398672
C32	C	1.001552	-0.349205	0.379238
C33	C	1.001562	-0.399140	0.379247
C34	C	1.048503	-0.711083	0.336212
C35	C	1.048589	-0.898757	0.336243
O36	O	1.088400	-0.924975	0.299622
N37	N	1.001821	-0.919929	0.379337
C38	C	0.955032	-0.894180	0.422430
O39	O	0.915260	-0.916494	0.459090
C40	C	0.954950	-0.706506	0.422402
C41	C	1.001716	-0.685337	0.379300
C42	C	1.095265	-0.689913	0.293114
C43	C	1.095241	-0.642997	0.293104
C44	C	1.048454	-0.617251	0.336192
C45	C	1.001691	-0.638421	0.379290
C46	C	0.908165	-0.680758	0.465498
C47	C	0.908150	-0.633837	0.465489
C48	C	0.954916	-0.612667	0.422387
C49	C	0.954880	-0.565759	0.422368
N50	N	1.001647	-0.544587	0.379274
C51	C	1.048435	-0.570333	0.336186
C52	C	0.955077	-0.992711	0.422440
C53	C	0.955096	-1.039630	0.422446
C54	C	1.048654	-1.044203	0.336260
C55	C	1.048631	-0.997284	0.336251
C56	C	1.001845	-0.971539	0.379346
C57	C	1.048379	-0.471806	0.336167
C58	C	1.048349	-0.424886	0.336159
C59	C	0.954794	-0.420316	0.422348
C60	C	0.954821	-0.467232	0.422354
C61	C	1.001620	-0.492976	0.379261
O62	O	0.915094	-0.539513	0.458975
O63	O	1.088211	-0.548010	0.299543
C64	C	1.048527	-0.757998	0.336222
C65	C	1.001765	-0.779168	0.379320
C66	C	0.954978	-0.753422	0.422408
C67	C	1.001784	-0.826086	0.379326
C68	C	1.048571	-0.851832	0.336238
C69	C	1.095339	-0.830660	0.293144
C70	C	1.095314	-0.783744	0.293134
C71	C	0.908210	-0.774595	0.465502
C72	C	0.908238	-0.821511	0.465508
C73	C	0.955025	-0.847257	0.422420
C74	C	1.184955	-0.237014	0.386652
C75	C	1.263057	-0.238944	0.389795
C76	C	0.994318	-0.227595	0.562561
C77	C	0.991182	-0.225512	0.640665
C78	C	1.001822	-0.115309	0.379334
C79	C	1.001883	-0.065375	0.379358
C80	C	0.968712	-0.210583	1.080118
C81	C	0.971662	-0.212539	1.006731
C82	C	1.018035	-0.243360	0.971830
C83	C	1.061466	-0.272223	1.010321
C84	C	1.058519	-0.270265	1.083707
C85	C	1.031666	-0.252416	0.752542
C86	C	1.034608	-0.254374	0.679151
C87	C	0.944805	-0.194689	0.675565
C88	C	0.941859	-0.192735	0.748953
C89	C	0.985293	-0.221596	0.787437
N90	N	1.021050	-0.245361	0.896817
N91	N	0.982281	-0.219592	0.862450
C92	C	1.009002	-0.237365	1.196708
C93	C	1.012138	-0.239445	1.118603
H94	H	0.266567	-0.289148	0.471443
C95	C	0.789107	-0.139416	0.316200
C96	C	0.748473	-0.168246	0.274793
H97	H	0.815236	-0.121311	0.286755
H98	H	0.820376	-0.156637	0.344201
H99	H	0.759264	-0.120742	0.345718
H100	H	0.778317	-0.186923	0.245278
H101	H	0.717200	-0.151024	0.246780
H102	H	0.930948	-0.185486	1.108528
H103	H	0.916698	-0.399346	0.457427
C104	C	1.069644	-0.331896	0.657894
C105	C	1.085581	-0.288255	0.640783
H106	H	1.101111	-0.352812	0.634208
H107	H	1.022909	-0.337618	0.643970
H108	H	1.074116	-0.334856	0.707108
H109	H	1.081105	-0.285295	0.591569
H110	H	1.132328	-0.282531	0.654703
C111	C	1.140833	-0.434127	0.250969
C112	C	1.099760	-0.401617	0.288781
H113	H	1.172574	-0.419762	0.221725
H114	H	1.111329	-0.452416	0.222840
H115	H	1.166461	-0.452246	0.282701
H116	H	1.074128	-0.383500	0.257049
H117	H	1.129268	-0.383320	0.316912
H118	H	1.086489	-0.492761	0.301079
H119	H	1.133324	-0.625763	0.258009
C120	C	0.853612	-0.188320	0.979360
C121	C	0.923924	-0.180814	0.964428
H122	H	0.824141	-0.168733	0.953241
H123	H	0.845226	-0.182744	1.028055
H124	H	0.843783	-0.218571	0.966898
H125	H	0.933754	-0.150563	0.976896
H126	H	0.932313	-0.186386	0.915723
H127	H	0.604356	-0.172568	0.281835
C128	C	0.219498	-0.150044	0.333549
C129	C	0.263243	-0.180946	0.295501
H130	H	0.195838	-0.130707	0.302123
H131	H	0.246924	-0.132791	0.365365
H132	H	0.186056	-0.165680	0.358954
H133	H	0.296688	-0.165310	0.270100
H134	H	0.235814	-0.198201	0.263673
H135	H	0.904094	-0.167639	0.777363
H136	H	0.909445	-0.171191	0.644223
H137	H	1.067031	-0.275918	0.783868
H138	H	0.916743	-0.484469	0.457453
C139	C	0.371173	-0.159370	0.260376
C140	C	0.417282	-0.184748	0.301655
H141	H	0.397306	-0.141267	0.230931
H142	H	0.341342	-0.140698	0.289898
H143	H	0.343608	-0.178936	0.232293
H144	H	0.444844	-0.165182	0.329742
H145	H	0.447126	-0.203422	0.272130
C146	C	1.141107	-1.006529	0.251061
C147	C	1.100041	-0.974017	0.288877
H148	H	1.172850	-0.992165	0.221817
H149	H	1.111598	-1.024815	0.222931
H150	H	1.166733	-1.024651	0.282790
H151	H	1.074411	-0.955897	0.257147
H152	H	1.129554	-0.955723	0.317008
C153	C	0.546133	-0.309065	0.415531
C154	C	0.586774	-0.280242	0.456944
H155	H	0.519991	-0.327166	0.444972
H156	H	0.575968	-0.327740	0.386017
H157	H	0.514868	-0.291836	0.387526
H158	H	0.618043	-0.297472	0.484945
H159	H	0.556937	-0.261565	0.486471
C160	C	0.360345	-0.323573	0.527438
C161	C	0.409646	-0.300542	0.489974
H162	H	0.384010	-0.342900	0.558876
H163	H	0.332931	-0.340839	0.495626
H164	H	0.330666	-0.302599	0.553228
H165	H	0.439322	-0.321516	0.464179
H166	H	0.437073	-0.283276	0.521789
H167	H	0.870111	-0.753636	0.500591
C168	C	1.187795	-0.792993	0.207950
C169	C	1.146727	-0.760479	0.245760
H170	H	1.219539	-0.778631	0.178706
H171	H	1.158287	-0.811280	0.179821
H172	H	1.213419	-0.811113	0.239683
H173	H	1.121099	-0.742360	0.214027
H174	H	1.176238	-0.742184	0.273891
H175	H	1.133433	-0.851631	0.258058
H176	H	0.916976	-0.971752	0.457534
H177	H	1.133369	-0.710870	0.258026
C178	C	1.105853	-0.301731	0.899419
C179	C	1.112439	-0.306103	0.971960
H180	H	1.137319	-0.322650	0.875740
H181	H	1.116662	-0.272126	0.887822
H182	H	1.059112	-0.307458	0.885499
H183	H	1.159179	-0.300372	0.985882
H184	H	1.101635	-0.335715	0.983562
C185	C	1.147576	-0.329460	1.079885
C186	C	1.106252	-0.301992	1.126014
H187	H	1.177043	-0.349048	1.106004
H188	H	1.175627	-0.311316	1.052353
H189	H	1.118080	-0.346650	1.050021
H190	H	1.135748	-0.284800	1.155874
H191	H	1.078198	-0.320138	1.153557
C192	C	0.815703	-0.671504	0.550701
C193	C	0.856762	-0.704019	0.512884
H194	H	0.783972	-0.685865	0.579961
H195	H	0.790072	-0.653387	0.518979
H196	H	0.845223	-0.653213	0.578822
H197	H	0.827242	-0.722308	0.484759
H198	H	0.882395	-0.722143	0.544610
H199	H	1.086750	-1.065174	0.301176
H200	H	0.917009	-1.056862	0.457538
H201	H	0.870051	-0.612877	0.500585
H202	H	0.730887	-0.275924	0.449912
H203	H	0.870149	-0.838743	0.500606
