data_functionalizedCrystal
_audit_creation_method	'MofGen! by Chris Wilmer'
_symmetry_space_group_name_H-M	'P1'
_symmetry_Int_Tables_number	1
_symmetry_cell_setting	triclinic
loop_
_symmetry_equiv_pos_as_xyz
  x,y,z
_cell_length_a	19.805407
_cell_length_b	16.120484
_cell_length_c	19.805399
_cell_angle_alpha	87.128957
_cell_angle_beta	90.019573
_cell_angle_gamma	92.925608
loop_
_atom_site_label
_atom_site_type_symbol
_atom_site_fract_x
_atom_site_fract_y
_atom_site_fract_z
Zn1	Zn	1.021075	-0.331927	0.396377
Zn2	Zn	1.015252	-0.471346	0.288925
Zn3	Zn	0.907889	-0.331950	0.283203
Zn4	Zn	0.902117	-0.471302	0.402070
O5	O	0.961584	-0.401631	0.342644
O6	O	1.115019	-0.350431	0.382136
O7	O	1.000989	-0.452883	0.193451
O8	O	0.927756	-0.215281	0.293438
O9	O	1.110741	-0.452861	0.303191
O10	O	1.010913	-0.215264	0.376587
O11	O	0.922109	-0.350470	0.189246
O12	O	0.812407	-0.350427	0.298958
O13	O	0.917919	-0.452785	0.496030
O14	O	0.808167	-0.452807	0.386290
O15	O	1.005317	-0.350388	0.491848
O16	O	0.995392	-0.588006	0.308712
O17	O	0.912273	-0.587974	0.391839
C18	C	0.785728	-0.401615	0.342621
C19	C	0.710496	-0.401629	0.342628
C20	C	0.672958	-0.455019	0.388035
C21	C	0.602269	-0.455020	0.388045
C22	C	0.569120	-0.401635	0.342644
C23	C	0.606663	-0.348239	0.297235
C24	C	0.677350	-0.348234	0.297229
C25	C	0.321589	-0.348258	0.297258
C26	C	0.250896	-0.348269	0.297266
C27	C	0.246508	-0.455043	0.388074
C28	C	0.317195	-0.455038	0.388068
C29	C	0.354732	-0.401640	0.342662
C30	C	0.431381	-0.401638	0.342653
C31	C	0.492472	-0.401641	0.342649
C32	C	0.952593	-0.618240	0.351529
C33	C	0.948809	-0.710906	0.355353
C34	C	0.941903	-0.880568	0.362347
C35	C	0.981385	-0.921854	0.322951
C36	C	0.977543	-1.016260	0.326843
C37	C	0.945745	-0.786154	0.358456
C38	C	1.138126	-0.401648	0.342667
C39	C	1.213357	-0.401655	0.342677
C40	C	0.961624	-0.401579	0.519184
C41	C	0.961641	-0.401556	0.594416
C42	C	0.970628	-0.184177	0.333739
C43	C	0.974482	-0.091511	0.329944
C44	C	0.961585	-0.401623	0.166787
C45	C	0.961709	-0.401411	0.091547
C46	C	1.007150	-0.348235	0.627583
C47	C	1.007158	-0.348211	0.698270
C48	C	0.961659	-0.401513	0.735789
C49	C	0.916145	-0.454836	0.702617
C50	C	0.916135	-0.454856	0.631931
C51	C	0.916187	-0.454759	0.987688
C52	C	0.916202	-0.454737	1.058379
C53	C	1.007210	-0.348114	1.054027
C54	C	1.007199	-0.348133	0.983340
C55	C	0.961683	-0.401453	0.950174
C56	C	0.961674	-0.401478	0.873527
C57	C	0.961671	-0.401493	0.812436
H58	H	0.571709	-0.498496	0.425019
H59	H	0.879134	-0.498187	0.960693
H60	H	0.707913	-0.304754	0.260258
O61	O	0.357942	-0.296362	0.253088
C62	C	0.354830	-0.190409	0.163051
C63	C	0.313573	-0.249158	0.213027
H64	H	0.318976	-0.152217	0.130658
H65	H	0.386312	-0.228576	0.129123
H66	H	0.389756	-0.146899	0.192411
H67	H	0.278611	-0.292680	0.183721
H68	H	0.282137	-0.210939	0.246954
H69	H	0.344182	-0.498513	0.425036
O70	O	1.051340	-0.296298	0.730404
C71	C	1.090076	-0.154476	0.746245
C72	C	1.040010	-0.213180	0.709800
H73	H	1.080925	-0.087262	0.729611
H74	H	1.144055	-0.169062	0.732940
H75	H	1.082283	-0.163648	0.803210
H76	H	1.047742	-0.204040	0.652827
H77	H	0.986050	-0.198580	0.723160
H78	H	0.905219	-0.916121	0.398995
H79	H	0.215937	-0.498520	0.425048
H80	H	1.044202	-0.304833	0.597039
O81	O	1.025245	-0.879480	0.279295
C82	C	1.141464	-0.852568	0.245417
C83	C	1.091875	-0.900598	0.294911
H84	H	1.195344	-0.869637	0.258016
H85	H	1.136862	-0.782873	0.250030
H86	H	1.128887	-0.869681	0.191526
H87	H	1.104420	-0.883554	0.348823
H88	H	1.096487	-0.970281	0.290240
H89	H	0.579667	-0.304769	0.260272
O90	O	1.051421	-0.296277	0.946997
C91	C	1.141716	-0.190546	0.950143
C92	C	1.091662	-0.249220	0.991383
H93	H	1.174274	-0.152498	0.986012
H94	H	1.112481	-0.146904	0.915276
H95	H	1.175480	-0.228847	0.918605
H96	H	1.057885	-0.210986	1.022961
H97	H	1.120938	-0.292864	1.026208
O98	O	0.218662	-0.296527	0.253089
C99	C	0.139266	-0.285181	0.161280
C100	C	0.175733	-0.343864	0.211262
H101	H	0.104539	-0.323428	0.127459
H102	H	0.178210	-0.247034	0.128778
H103	H	0.108016	-0.241625	0.190637
H104	H	0.206983	-0.387470	0.181959
H105	H	0.136756	-0.381953	0.243764
O106	O	0.871934	-0.506540	1.094723
C107	C	0.781682	-0.612328	1.091585
C108	C	0.831764	-0.553694	1.050343
H109	H	0.749201	-0.650480	1.055723
H110	H	0.747847	-0.574073	1.123090
H111	H	0.810961	-0.655882	1.126485
H112	H	0.802540	-0.510129	1.015406
H113	H	0.865599	-0.592000	1.018884
H114	H	1.044269	-0.304695	1.081039
O115	O	0.872011	-0.506586	0.739165
C116	C	0.831665	-0.553777	0.849986
C117	C	0.881693	-0.495140	0.808681
H118	H	0.839465	-0.544532	0.906197
H119	H	0.840750	-0.621026	0.838893
H120	H	0.777702	-0.539142	0.835437
H121	H	0.935675	-0.509701	0.823206
H122	H	0.872548	-0.427909	0.819779
H123	H	0.879070	-0.498267	0.604927
H124	H	0.699943	-0.498494	0.425004
