data_functionalizedCrystal
_audit_creation_method	'MofGen! by Chris Wilmer'
_symmetry_space_group_name_H-M	'P1'
_symmetry_Int_Tables_number	1
_symmetry_cell_setting	triclinic
loop_
_symmetry_equiv_pos_as_xyz
  x,y,z
_cell_length_a	16.120676
_cell_length_b	16.120484
_cell_length_c	16.120297
_cell_angle_alpha	95.614431
_cell_angle_beta	84.076049
_cell_angle_gamma	90.116649
loop_
_atom_site_label
_atom_site_type_symbol
_atom_site_fract_x
_atom_site_fract_y
_atom_site_fract_z
Zn1	Zn	1.231585	0.416123	0.429839
Zn2	Zn	1.731585	0.916123	0.929839
Zn3	Zn	1.231479	0.548807	0.297155
Zn4	Zn	1.731479	1.048807	0.797155
Zn5	Zn	1.099617	0.402697	0.296473
Zn6	Zn	1.599617	0.902697	0.796473
Zn7	Zn	1.084690	0.548772	0.443983
Zn8	Zn	1.584690	1.048772	0.943983
O9	O	1.161843	0.479100	0.366863
O10	O	1.661843	0.979100	0.866863
O11	O	1.348231	0.439357	0.406605
O12	O	1.848231	0.939357	0.906605
O13	O	1.220190	0.523821	0.179802
O14	O	1.720190	1.023821	0.679802
O15	O	1.123413	0.287816	0.307960
O16	O	1.623413	0.787816	0.807960
O17	O	1.348154	0.536840	0.309122
O18	O	1.848154	1.036840	0.809122
O19	O	1.220369	0.297680	0.405944
O20	O	1.720369	0.797680	0.905944
O21	O	1.123312	0.416474	0.179302
O22	O	1.623312	0.916474	0.679302
O23	O	0.980976	0.416440	0.321674
O24	O	1.480976	0.916440	0.821674
O25	O	1.097973	0.536780	0.559369
O26	O	1.597973	1.036780	1.059369
O27	O	0.970010	0.523761	0.430049
O28	O	1.470010	1.023761	0.930049
O29	O	1.205896	0.439323	0.548978
O30	O	1.705896	0.939323	1.048978
O31	O	1.205717	0.665465	0.322836
O32	O	1.705717	1.165465	0.822836
O33	O	1.097871	0.665438	0.430710
O34	O	1.597871	1.165438	0.930710
C35	C	0.945244	0.468640	0.377323
C36	C	1.445244	0.968640	0.877323
C37	C	0.852580	0.464187	0.381819
C38	C	1.352580	0.964187	0.881819
C39	C	1.150185	0.695703	0.378399
C40	C	1.650185	1.195703	0.878399
C41	C	1.145272	0.788371	0.383359
C42	C	1.645272	1.288371	0.883359
C43	C	1.150281	0.489545	0.585428
C44	C	1.650281	0.989545	1.085428
C45	C	1.145355	0.493996	0.678568
C46	C	1.645355	0.993996	1.178568
C47	C	1.379287	0.489600	0.356362
C48	C	1.879287	0.989600	0.856362
C49	C	1.471949	0.494075	0.351887
C50	C	1.971949	0.994075	0.851887
C51	C	1.682927	0.456008	0.389979
C52	C	2.182927	0.956008	0.889979
C53	C	1.641597	0.502252	0.343730
C54	C	2.141597	1.002252	0.843730
C55	C	1.547196	0.497701	0.348270
C56	C	2.047196	0.997701	0.848270
C57	C	1.777336	0.460558	0.385440
C58	C	2.277336	0.960558	0.885440
C59	C	1.173568	0.261653	0.355298
C60	C	1.673568	0.761653	0.855298
C61	C	1.178565	0.168990	0.350370
C62	C	1.678565	0.668990	0.850370
C63	C	1.136307	0.958039	0.392431
C64	C	1.636307	1.458039	0.892431
C65	C	1.187527	0.999327	0.341301
C66	C	1.687527	1.499327	0.841301
C67	C	1.182539	1.093736	0.346349
C68	C	1.682539	1.593736	0.846349
C69	C	1.141294	0.863622	0.387384
C70	C	1.641294	1.363622	0.887384
C71	C	1.173410	0.468637	0.149142
C72	C	1.673410	0.968637	0.649142
C73	C	1.178511	0.463959	0.055982
C74	C	1.678511	0.963959	0.555982
C75	C	1.136330	0.502103	0.849095
C76	C	1.636330	1.002103	1.349095
C77	C	1.187533	0.455854	0.885461
C78	C	1.687533	0.955854	1.385461
C79	C	1.182512	0.460365	0.980348
C80	C	1.682512	0.960365	1.480348
C81	C	1.141350	0.497593	0.754199
C82	C	1.641350	0.997593	1.254199
H83	H	1.677111	0.545263	0.300728
H84	H	2.177111	1.045263	0.800728
H85	H	1.647415	0.413002	0.432979
H86	H	2.147415	0.913002	0.932979
O87	O	1.244234	0.956785	0.284573
O88	O	1.744234	1.456785	0.784573
C89	C	1.301016	0.822535	0.227809
C90	C	1.801016	1.322535	0.727809
C91	C	1.236752	0.870614	0.292079
C92	C	1.736752	1.370614	0.792079
H93	H	1.295001	0.752859	0.233868
H94	H	1.795001	1.252859	0.733868
H95	H	1.289113	0.835647	0.161811
H96	H	1.789113	1.335647	0.661811
H97	H	1.366558	0.843521	0.240208
H98	H	1.866558	1.343521	0.740208
H99	H	1.171186	0.849657	0.279758
H100	H	1.671186	1.349657	0.779758
H101	H	1.248728	0.857500	0.358056
H102	H	1.748728	1.357500	0.858056
O103	O	1.079545	1.000574	0.449094
O104	O	1.579545	1.500574	0.949094
C105	C	1.022817	1.134835	0.505895
C106	C	1.522817	1.634835	1.005895
C107	C	1.087126	1.086754	0.441677
C108	C	1.587126	1.586754	0.941677
H109	H	1.028936	1.204520	0.499932
H110	H	1.528936	1.704520	0.999932
H111	H	0.957248	1.113957	0.493476
H112	H	1.457248	1.613957	0.993476
H113	H	1.034697	1.121617	0.571868
H114	H	1.534697	1.621617	1.071868
H115	H	1.075324	1.099948	0.375680
H116	H	1.575324	1.599948	0.875680
H117	H	1.152674	1.107638	0.454169
H118	H	1.652674	1.607638	0.954169
O119	O	1.244298	0.404636	0.837471
O120	O	1.744298	0.904636	1.337471
C121	C	1.301048	0.353311	0.697767
C122	C	1.801048	0.853311	1.197767
C123	C	1.236746	0.411368	0.752019
C124	C	1.736746	0.911368	1.252019
H125	H	1.294952	0.358720	0.628669
H126	H	1.794952	0.858720	1.128669
H127	H	1.366618	0.371984	0.712385
H128	H	1.866618	0.871984	1.212385
H129	H	1.289137	0.286196	0.712093
H130	H	1.789137	0.786196	1.212093
H131	H	1.248579	0.478500	0.737724
H132	H	1.748579	0.978500	1.237724
H133	H	1.171197	0.392624	0.737393
H134	H	1.671197	0.892624	1.237393
H135	H	1.088726	0.545082	0.889220
H136	H	1.588726	1.045082	1.389220
