data_functionalizedCrystal
_audit_creation_method	'MofGen! by Chris Wilmer'
_symmetry_space_group_name_H-M	'P1'
_symmetry_Int_Tables_number	1
_symmetry_cell_setting	triclinic
loop_
_symmetry_equiv_pos_as_xyz
  x,y,z
_cell_length_a	14.971496
_cell_length_b	14.971482
_cell_length_c	14.048226
_cell_angle_alpha	90.007580
_cell_angle_beta	90.003149
_cell_angle_gamma	83.615366
loop_
_atom_site_label
_atom_site_type_symbol
_atom_site_fract_x
_atom_site_fract_y
_atom_site_fract_z
O1	O	0.116542	1.186956	0.079150
O2	O	0.449876	1.520289	0.412484
O3	O	0.783209	1.853623	0.745817
O4	O	0.130505	0.926556	0.079155
O5	O	0.463838	1.259889	0.412488
O6	O	0.797171	1.593223	0.745822
O7	O	-0.006676	1.063731	0.079144
O8	O	0.326657	1.397064	0.412477
O9	O	0.659991	1.730397	0.745811
O10	O	0.253723	1.049781	0.079161
O11	O	0.587056	1.383114	0.412495
O12	O	0.920390	1.716448	0.745828
O13	O	-0.006673	1.063709	-0.079177
O14	O	0.326661	1.397042	0.254156
O15	O	0.659994	1.730375	0.587489
O16	O	0.130508	0.926534	-0.079166
O17	O	0.463841	1.259867	0.254167
O18	O	0.797175	1.593200	0.587500
O19	O	0.116546	1.186934	-0.079171
O20	O	0.449879	1.520267	0.254162
O21	O	0.783213	1.853600	0.587496
Zn22	Zn	0.123528	1.056730	-0.104306
Zn23	Zn	0.456861	1.390064	0.229028
Zn24	Zn	0.790194	1.723397	0.562361
Zn25	Zn	0.123523	1.056759	0.104290
Zn26	Zn	0.456856	1.390093	0.437623
Zn27	Zn	0.790190	1.723426	0.770956
O28	O	0.253727	1.049759	-0.079160
O29	O	0.587060	1.383092	0.254173
O30	O	0.920393	1.716426	0.587507
C31	C	0.129883	0.893220	-0.000005
C32	C	0.463216	1.226553	0.333328
C33	C	0.796549	1.559887	0.666662
C34	C	0.128013	0.793923	-0.000003
C35	C	0.461347	1.127256	0.333330
C36	C	0.794680	1.460589	0.666663
C37	C	0.127135	0.747266	-0.086305
C38	C	0.460468	1.080599	0.247028
C39	C	0.793801	1.413933	0.580361
C40	C	0.125364	0.653967	-0.086307
C41	C	0.458697	0.987301	0.247027
C42	C	0.792030	1.320634	0.580360
C43	C	0.124478	0.607327	-0.000005
C44	C	0.457811	0.940660	0.333329
C45	C	0.791145	1.273993	0.666662
C46	C	0.125354	0.653990	0.086304
C47	C	0.458687	0.987323	0.419637
C48	C	0.792021	1.320657	0.752971
C49	C	0.127118	0.747288	0.086304
C50	C	0.460452	1.080621	0.419637
C51	C	0.793785	1.413954	0.752971
C52	C	0.121679	0.459528	0.086298
C53	C	0.455012	0.792861	0.419631
C54	C	0.788345	1.126195	0.752964
C55	C	0.119916	0.366224	0.086298
C56	C	0.453249	0.699557	0.419631
C57	C	0.786583	1.032890	0.752965
C58	C	0.119924	0.366208	-0.086313
C59	C	0.453257	0.699541	0.247020
C60	C	0.786591	1.032874	0.580354
C61	C	0.121688	0.459505	-0.086313
C62	C	0.455022	0.792839	0.247020
C63	C	0.788355	1.126172	0.580354
C64	C	0.122566	0.506162	-0.000004
C65	C	0.455899	0.839496	0.333329
C66	C	0.789233	1.172829	0.666663
C67	C	-0.039999	1.063094	-0.000017
C68	C	0.293334	1.396428	0.333317
C69	C	0.626668	1.729761	0.666650
C70	C	-0.139295	1.061220	-0.000017
C71	C	0.194038	1.394553	0.333316
C72	C	0.527371	1.727887	0.666650
C73	C	-0.567001	1.053164	0.086309
C74	C	-0.233668	1.386498	0.419642
C75	C	0.099666	1.719831	0.752976
C76	C	-0.473702	1.054930	0.086305
C77	C	-0.140369	1.388263	0.419638
C78	C	0.192965	1.721597	0.752971
C79	C	-0.427057	1.055795	0.000000
C80	C	-0.093723	1.389128	0.333333
C81	C	0.239610	1.722461	0.666667
C82	C	-0.473716	1.054903	-0.086306
C83	C	-0.140383	1.388236	0.247027
C84	C	0.192950	1.721569	0.580361
C85	C	-0.567015	1.053143	-0.086301
C86	C	-0.233681	1.386477	0.247033
C87	C	0.099652	1.719810	0.580366
C88	C	-0.279253	1.058568	-0.086311
C89	C	0.054080	1.391901	0.247023
C90	C	0.387413	1.725234	0.580356
C91	C	-0.185948	1.060325	-0.086316
C92	C	0.147385	1.393659	0.247017
C93	C	0.480718	1.726992	0.580350
C94	C	-0.185941	1.060354	0.086295
C95	C	0.147393	1.393688	0.419628
C96	C	0.480726	1.727021	0.752961
C97	C	-0.279239	1.058595	0.086300
C98	C	0.054095	1.391928	0.419633
C99	C	0.387428	1.725262	0.752966
C100	C	-0.325892	1.057701	-0.000007
C101	C	0.007441	1.391035	0.333327
C102	C	0.340775	1.724368	0.666660
C103	C	0.287049	1.050395	0.000003
C104	C	0.620383	1.383729	0.333336
C105	C	0.953716	1.717062	0.666670
C106	C	0.386346	1.052270	0.000010
C107	C	0.719679	1.385603	0.333343
C108	C	1.053013	1.718936	0.666676
C109	C	0.117168	1.220270	-0.000009
C110	C	0.450501	1.553603	0.333325
C111	C	0.783835	1.886936	0.666658
C112	C	0.119037	1.319567	-0.000004
C113	C	0.452371	1.652900	0.333329
C114	C	0.785704	1.986234	0.666663
N115	N	0.123530	1.056717	-0.246666
N116	N	0.456863	1.390050	0.086667
N117	N	0.790197	1.723384	0.420000
C118	C	0.062795	1.117529	-0.703511
C119	C	0.396128	1.450863	-0.370177
C120	C	0.729461	1.784196	-0.036844
C121	C	0.062801	1.117521	-0.603853
C122	C	0.396134	1.450855	-0.270520
C123	C	0.729468	1.784188	0.062814
C124	C	0.123522	1.056759	-0.554036
C125	C	0.456856	1.390092	-0.220703
C126	C	0.790189	1.723425	0.112630
C127	C	0.184247	0.996006	-0.603882
C128	C	0.517581	1.329340	-0.270549
C129	C	0.850914	1.662673	0.062784
C130	C	0.184245	0.996019	-0.703538
C131	C	0.517578	1.329353	-0.370205
C132	C	0.850911	1.662686	-0.036871
C133	C	0.184247	0.995982	-0.396168
C134	C	0.517580	1.329315	-0.062835
C135	C	0.850914	1.662649	0.270499
C136	C	0.184249	0.995967	-0.296505
C137	C	0.517582	1.329301	0.036828
C138	C	0.850915	1.662634	0.370161
C139	C	0.062803	1.117484	-0.296483
C140	C	0.396136	1.450817	0.036851
C141	C	0.729470	1.784150	0.370184
C142	C	0.062801	1.117497	-0.396139
C143	C	0.396134	1.450830	-0.062805
C144	C	0.729467	1.784164	0.270528
C145	C	0.123525	1.056743	-0.445978
C146	C	0.456858	1.390076	-0.112645
C147	C	0.790192	1.723410	0.220689
N148	N	0.123513	1.056780	0.246650
N149	N	0.456847	1.390113	0.579984
N150	N	0.790180	1.723447	0.913317
H151	H	0.127863	0.785233	-0.156583
H152	H	0.461197	1.118567	0.176751
H153	H	0.794530	1.451900	0.510084
H154	H	0.122415	0.497477	-0.156588
H155	H	0.455749	0.830811	0.176746
H156	H	0.789082	1.164144	0.510079
N157	N	0.249738	0.930458	-0.449933
N158	N	0.583072	1.263792	-0.116599
N159	N	0.916405	1.597125	0.216734
H160	H	0.313241	0.940816	-0.432585
H161	H	0.646575	1.274149	-0.099252
H162	H	0.979908	1.607483	0.234082
H163	H	0.239249	0.866996	-0.432589
H164	H	0.572583	1.200329	-0.099256
H165	H	0.905916	1.533662	0.234078
H166	H	-0.147950	1.061075	0.156568
H167	H	0.185383	1.394408	0.489902
H168	H	0.518716	1.727741	0.823235
H169	H	0.124633	0.615986	-0.156582
H170	H	0.457967	0.949319	0.176751
H171	H	0.791300	1.282652	0.510084
N172	N	-0.002697	1.183073	-0.757233
N173	N	0.330637	1.516406	-0.423899
N174	N	0.663970	1.849739	-0.090566
H175	H	0.031555	1.222710	-0.798566
H176	H	0.364888	1.556044	-0.465233
H177	H	0.698221	1.889377	-0.131900
H178	H	-0.042348	1.148800	-0.798538
H179	H	0.290985	1.482134	-0.465204
H180	H	0.624319	1.815467	-0.131871
N181	N	-0.002682	1.183036	-0.449877
N182	N	0.330651	1.516370	-0.116544
N183	N	0.663985	1.849703	0.216790
H184	H	0.031580	1.222666	-0.491209
H185	H	0.364913	1.555999	-0.157876
H186	H	0.698246	1.889333	0.175458
H187	H	-0.042326	1.148759	-0.491185
H188	H	0.291007	1.482093	-0.157852
H189	H	0.624341	1.815426	0.175481
N190	N	0.118981	0.315887	-0.179403
N191	N	0.452314	0.649220	0.153930
N192	N	0.785648	0.982553	0.487264
H193	H	0.118988	0.249554	-0.166312
H194	H	0.452321	0.582887	0.167022
H195	H	0.785654	0.916221	0.500355
H196	H	0.063248	0.338520	-0.216518
H197	H	0.396582	0.671853	0.116815
H198	H	0.729915	1.005186	0.450148
H199	H	0.233692	0.946535	-0.563316
H200	H	0.567026	1.279868	-0.229982
H201	H	0.900359	1.613202	0.103351
H202	H	0.119195	0.328251	0.156572
H203	H	0.452529	0.661584	0.489906
H204	H	0.785862	0.994918	0.823239
H205	H	-0.147968	1.061001	-0.156593
H206	H	0.185365	1.394334	0.176740
H207	H	0.518698	1.727668	0.510073
N208	N	-0.617334	1.052183	-0.179383
N209	N	-0.284001	1.385516	0.153951
N210	N	0.049332	1.718850	0.487284
H211	H	-0.648860	0.996052	-0.183229
H212	H	-0.315527	1.329386	0.150104
H213	H	0.017807	1.662719	0.483438
H214	H	-0.663183	1.106899	-0.183167
H215	H	-0.329850	1.440233	0.150167
H216	H	0.003483	1.773566	0.483500
H217	H	0.013360	1.166951	-0.255898
H218	H	0.346693	1.500285	0.077435
H219	H	0.680026	1.833618	0.410769
H220	H	0.233689	0.946552	-0.744116
H221	H	0.567023	1.279885	-0.410783
H222	H	0.900356	1.613219	-0.077450
H223	H	0.127836	0.785274	0.156580
H224	H	0.461169	1.118608	0.489914
H225	H	0.794502	1.451941	0.823247
N226	N	0.249743	0.930434	-0.242774
N227	N	0.583076	1.263768	0.090560
N228	N	0.916409	1.597101	0.423893
H229	H	0.313243	0.940809	-0.260104
H230	H	0.646576	1.274142	0.073229
H231	H	0.979910	1.607475	0.406563
H232	H	0.240445	0.939678	-0.172098
H233	H	0.573779	1.273012	0.161235
H234	H	0.907112	1.606345	0.494569
N235	N	-0.617311	1.052241	0.179395
N236	N	-0.283978	1.385574	0.512728
N237	N	0.049356	1.718908	0.846061
H238	H	-0.663209	1.106918	0.183227
H239	H	-0.329876	1.440252	0.516561
H240	H	0.003457	1.773585	0.849894
H241	H	-0.648776	0.996074	0.183196
H242	H	-0.315443	1.329407	0.516529
H243	H	0.017890	1.662740	0.849863
H244	H	-0.317235	1.057841	-0.156591
H245	H	0.016098	1.391175	0.176743
H246	H	0.349431	1.724508	0.510076
H247	H	0.122394	0.497513	0.156580
H248	H	0.455727	0.830847	0.489913
H249	H	0.789060	1.164180	0.823246
N250	N	0.124391	0.603683	0.179384
N251	N	0.457724	0.937016	0.512717
N252	N	0.791057	1.270349	0.846051
H253	H	0.179064	0.557781	0.183237
H254	H	0.512397	0.891115	0.516570
H255	H	0.845730	1.224448	0.849903
H256	H	0.125179	0.647457	0.234005
H257	H	0.458512	0.980790	0.567338
H258	H	0.791845	1.314123	0.900672
H259	H	-0.435722	1.055660	0.156578
H260	H	-0.102388	1.388993	0.489912
H261	H	0.230945	1.722327	0.823245
N262	N	-0.329563	1.057739	0.179382
N263	N	0.003771	1.391072	0.512716
N264	N	0.337104	1.724406	0.846049
H265	H	-0.285857	1.058602	0.234056
H266	H	0.047477	1.391936	0.567390
H267	H	0.380810	1.725269	0.900723
H268	H	-0.375433	1.112445	0.183073
H269	H	-0.042100	1.445778	0.516407
H270	H	0.291233	1.779112	0.849740
N271	N	-0.423404	1.055844	-0.179389
N272	N	-0.090071	1.389177	0.153945
N273	N	0.243263	1.722511	0.487278
H274	H	-0.377505	1.001168	-0.183236
H275	H	-0.044172	1.334501	0.150098
H276	H	0.289162	1.667835	0.483431
H277	H	-0.467176	1.055047	-0.234007
H278	H	-0.133842	1.388380	0.099326
H279	H	0.199491	1.721713	0.432659
N280	N	-0.002688	1.183045	-0.550098
N281	N	0.330645	1.516378	-0.216765
N282	N	0.663978	1.849712	0.116568
H283	H	0.007719	1.246535	-0.567432
H284	H	0.341052	1.579868	-0.234099
H285	H	0.674385	1.913201	0.099235
H286	H	-0.066161	1.172601	-0.567468
H287	H	0.267173	1.505935	-0.234134
H288	H	0.600506	1.839268	0.099199
