data_functionalizedCrystal
_audit_creation_method	'MofGen! by Chris Wilmer'
_symmetry_space_group_name_H-M	'P1'
_symmetry_Int_Tables_number	1
_symmetry_cell_setting	triclinic
loop_
_symmetry_equiv_pos_as_xyz
  x,y,z
_cell_length_a	14.971494
_cell_length_b	14.853567
_cell_length_c	14.048226
_cell_angle_alpha	89.996514
_cell_angle_beta	89.995286
_cell_angle_gamma	83.626244
loop_
_atom_site_label
_atom_site_type_symbol
_atom_site_fract_x
_atom_site_fract_y
_atom_site_fract_z
O1	O	0.116781	1.196349	-0.079091
O2	O	0.130692	0.933887	-0.079107
O3	O	-0.006462	1.072149	-0.079097
O4	O	0.253935	1.058088	-0.079102
O5	O	-0.006470	1.072132	0.079225
O6	O	0.130684	0.933871	0.079214
O7	O	0.116773	1.196332	0.079230
Zn8	Zn	0.123727	1.065099	0.104359
Zn9	Zn	0.123738	1.065121	-0.104236
O10	O	0.253927	1.058071	0.079220
C11	C	0.130058	0.900291	0.000051
C12	C	0.128169	0.800207	0.000045
C13	C	0.038712	0.387687	0.000068
C14	C	0.201654	0.366381	0.000064
C15	C	0.203430	0.460415	0.000061
C16	C	0.122846	0.518089	0.000060
C17	C	0.040486	0.481730	0.000062
C18	C	0.285789	0.496781	0.000049
C19	C	0.287568	0.590820	0.000045
C20	C	0.206983	0.648496	0.000051
C21	C	0.124619	0.612131	0.000054
C22	C	0.044035	0.669805	0.000053
C23	C	-0.038329	0.633443	0.000063
C24	C	-0.040100	0.539406	0.000068
C25	C	0.208753	0.742533	0.000046
C26	C	0.045809	0.763848	0.000047
C27	C	-0.039790	1.071511	0.000063
C28	C	-0.139088	1.069622	0.000058
C29	C	-0.185728	1.068746	-0.086244
C30	C	-0.279027	1.066966	-0.086245
C31	C	-0.325685	1.066068	0.000056
C32	C	-0.279038	1.066941	0.086365
C33	C	-0.185740	1.068715	0.086365
C34	C	-0.473502	1.063246	0.086359
C35	C	-0.566807	1.061474	0.086359
C36	C	-0.566790	1.061497	-0.086252
C37	C	-0.473491	1.063271	-0.086252
C38	C	-0.426850	1.064146	0.000057
C39	C	0.287255	1.058709	0.000058
C40	C	0.386553	1.060598	0.000057
C41	C	0.117407	1.229929	0.000069
C42	C	0.119296	1.330013	0.000069
N43	N	0.123719	1.065091	0.246720
N44	N	0.123739	1.065136	-0.246597
C45	C	0.063013	1.126332	0.296542
C46	C	0.063012	1.126338	0.396200
C47	C	0.123723	1.065106	0.446033
C48	C	0.184433	1.003858	0.396204
C49	C	0.184428	1.003849	0.296548
C50	C	0.184439	1.003884	0.603918
C51	C	0.184445	1.003895	0.703581
C52	C	0.063023	1.126374	0.703570
C53	C	0.063019	1.126364	0.603914
C54	C	0.123730	1.065117	0.554092
H55	H	-0.107157	0.509790	0.000099
H56	H	-0.316998	1.066256	-0.156521
H57	H	-0.103941	0.680413	0.000056
N58	N	-0.423164	1.064246	-0.179331
H59	H	-0.446580	1.119785	-0.217056
H60	H	-0.432229	1.008062	-0.216994
N61	N	-0.050121	0.348476	0.000092
H62	H	-0.039022	0.280152	0.000101
H63	H	-0.085390	0.369562	-0.058598
N64	N	0.288564	0.304178	0.000058
H65	H	0.341007	0.341483	0.000053
H66	H	0.291373	0.264705	-0.058637
H67	H	0.351396	0.449816	0.000040
H68	H	0.013580	1.176205	0.436765
N69	N	0.249910	0.937794	0.242814
H70	H	0.289575	0.972277	0.201452
H71	H	0.215588	0.897854	0.201537
H72	H	0.013588	1.176228	0.563340
H73	H	0.013590	1.176243	0.744142
N74	N	0.249933	0.937863	0.757333
H75	H	0.288390	0.899059	0.710651
H76	H	0.215621	0.897981	0.798701
N77	N	0.376398	0.630037	0.000028
H78	H	0.427177	0.579230	0.000026
H79	H	0.380685	0.668589	0.058717
H80	H	-0.435527	1.063939	0.156641
H81	H	-0.604769	1.060782	-0.156528
H82	H	-0.147746	1.069482	-0.156521
N83	N	0.249915	0.937823	0.550177
H84	H	0.288378	0.899035	0.596866
H85	H	0.289518	0.972374	0.508817
H86	H	-0.147764	1.069416	0.156642
N87	N	0.249913	0.937819	0.449956
H88	H	0.313415	0.948265	0.432600
H89	H	0.239416	0.873853	0.432610
N90	N	0.297576	0.781755	0.000025
H91	H	0.348357	0.730950	0.000020
H92	H	0.301865	0.820306	0.058714
H93	H	-0.317034	1.066205	0.156634
N94	N	-0.041109	0.826052	0.000058
H95	H	-0.093550	0.788745	0.000067
H96	H	-0.043925	0.865532	-0.058637
H97	H	-0.604793	1.060736	0.156633
H98	H	0.013578	1.176198	0.255975
