data_functionalizedCrystal
_audit_creation_method	'MofGen! by Chris Wilmer'
_symmetry_space_group_name_H-M	'P1'
_symmetry_Int_Tables_number	1
_symmetry_cell_setting	triclinic
loop_
_symmetry_equiv_pos_as_xyz
  x,y,z
_cell_length_a	17.052862
_cell_length_b	14.560438
_cell_length_c	14.560438
_cell_angle_alpha	60.005799
_cell_angle_beta	89.999330
_cell_angle_gamma	50.257865
loop_
_atom_site_label
_atom_site_type_symbol
_atom_site_fract_x
_atom_site_fract_y
_atom_site_fract_z
Zr1	Zr	0.914420	0.682186	0.041091
O2	O	0.762871	0.927306	-0.132290
O3	O	0.960872	0.474192	0.094221
O4	O	0.960880	0.665777	-0.097354
O5	O	0.762863	0.735718	0.210425
O6	O	1.117079	0.610601	-0.069772
O7	O	0.762863	0.735721	0.059285
O8	O	1.117065	0.267890	0.272921
O9	O	0.762877	1.078429	-0.132267
O10	O	1.097260	0.504816	0.137489
O11	O	0.980690	0.545990	0.229700
O12	O	0.980699	0.771557	0.004145
O13	O	0.864130	0.812732	0.096356
Zr14	Zr	1.163540	0.594183	0.326133
Zr15	Zr	1.163539	0.594187	0.085081
Zr16	Zr	0.914420	0.682182	0.282143
Zr17	Zr	0.914430	0.923210	0.041128
Zr18	Zr	1.163530	0.353159	0.326096
O19	O	1.117087	0.802177	0.273003
O20	O	1.117087	0.802183	-0.069742
O21	O	0.762871	0.927300	0.210455
O22	O	1.315088	0.349063	0.499514
O23	O	1.315088	0.349069	0.156769
O24	O	0.960872	0.474186	0.436966
O25	O	1.315096	0.540651	0.156799
O26	O	1.117079	0.610592	0.464578
O27	O	0.960880	0.665768	0.436996
O28	O	1.315096	0.540648	0.307940
O29	O	0.960894	1.008482	-0.097301
O30	O	1.117065	0.267887	0.464525
O31	O	1.315082	0.197940	0.499491
O32	O	1.315082	0.197943	0.307887
O33	O	0.762877	1.078426	0.059337
O34	O	0.960894	1.008479	0.094303
O35	O	1.097260	0.504812	0.363079
O36	O	1.213829	0.463637	0.270868
O37	O	1.097269	0.730379	0.137524
O38	O	0.980700	0.771553	0.229735
C39	C	1.038967	0.336700	0.183566
C40	C	1.038963	0.234379	0.183550
C41	C	0.952918	0.299901	0.085134
C42	C	0.952937	0.203706	0.085194
C43	C	1.125050	-0.023535	0.282096
C44	C	1.125035	0.072658	0.282031
C45	C	0.853548	0.431097	-0.028543
C46	C	0.853566	0.334902	-0.028484
C47	C	0.727369	0.748257	0.128587
C48	C	0.621611	0.785615	0.109913
C49	C	0.566877	0.333960	0.335690
C50	C	0.666244	0.298856	0.353231
C51	C	0.655091	0.420542	0.292404
C52	C	0.544561	0.577340	0.214030
C53	C	0.445184	0.612447	0.196480
C54	C	0.533399	0.699029	0.153194
C55	C	0.422868	0.855827	0.074821
C56	C	0.323503	0.890928	0.057274
C57	C	0.334655	0.769242	0.118102
C58	C	0.632775	0.663922	0.170744
C59	C	0.511082	0.942409	0.031534
C60	C	0.411716	0.977513	0.013993
C61	C	1.350590	0.528112	0.238637
C62	C	1.456348	0.490754	0.257312
C63	C	1.038979	0.638190	-0.117907
C64	C	1.038979	0.638192	-0.220240
C65	C	1.038992	0.939669	0.183658
C66	C	1.038996	1.041990	0.183674
C67	C	0.978131	0.777428	-0.337922
C68	C	0.978135	0.777420	-0.434070
C69	C	1.099836	0.498930	-0.294841
C70	C	1.099838	0.498936	-0.198695
C71	C	0.907864	0.938213	-0.418306
C72	C	0.907867	0.938206	-0.514454
C73	C	1.038980	0.638179	0.485132
C74	C	1.038980	0.638177	0.587465
C75	C	1.350578	0.226627	0.238590
C76	C	1.456331	0.086949	0.257249
C77	C	1.038967	0.336695	0.485085
C78	C	1.038963	0.234372	0.587402
C79	C	1.350578	0.226622	0.540110
C80	C	1.456332	0.086942	0.661102
C81	C	0.727381	1.049747	-0.172886
C82	C	0.621628	1.189427	-0.293878
C83	C	0.727382	1.049742	0.128634
C84	C	0.621628	1.189420	0.109975
C85	C	1.038992	0.939674	-0.117861
C86	C	1.038996	1.041997	-0.220178
C87	C	1.445146	0.042849	0.196380
C88	C	1.544503	-0.088377	0.213888
C89	C	1.655044	-0.175508	0.292273
C90	C	1.666227	-0.131398	0.353144
C91	C	1.566871	-0.000168	0.335629
C92	C	1.566853	-0.000150	0.669790
C93	C	1.666229	-0.131385	0.783467
C94	C	1.655082	-0.175531	0.888455
C95	C	1.544548	-0.088426	0.879763
C96	C	1.445175	0.042813	0.766087
C97	C	0.511106	1.276531	-0.302566
C98	C	0.411730	1.407795	-0.416243
C99	C	0.422878	1.451947	-0.521231
C100	C	0.533411	1.364835	-0.512539
C101	C	0.632785	1.233580	-0.398863
C102	C	0.632813	1.233530	0.170835
C103	C	0.533456	1.364783	0.153300
C104	C	0.422915	1.451917	0.074912
C105	C	0.411732	1.407803	0.014045
C106	C	0.511088	1.276559	0.031573
C107	C	1.099811	0.164800	0.705094
C108	C	1.099798	0.068665	0.801226
C109	C	0.978087	0.111679	0.661962
C110	C	0.978095	0.207821	0.565831
C111	C	1.170084	0.139960	0.785499
C112	C	1.170071	0.043825	0.881631
H113	H	1.195110	0.019292	0.362163
H114	H	1.575995	0.035720	0.385206
Br115	Br	1.816223	-0.249577	0.795235
Br116	Br	0.261702	1.526070	-0.092333
H117	H	0.321709	1.105179	-0.049820
H118	H	0.928529	0.090050	0.644412
Br119	Br	1.582015	0.059737	0.527324
H120	H	0.722774	1.162660	-0.391802
Br121	Br	1.295185	0.160991	0.754317
Br122	Br	0.261736	1.525990	-0.428011
H123	H	0.502007	1.240596	-0.217092
H124	H	1.149400	0.385552	-0.102873
H125	H	0.722813	1.162594	0.234672
Br126	Br	0.782768	0.451132	0.277103
H127	H	1.756243	-0.202359	0.416965
H128	H	1.195126	-0.155215	0.362276
Br129	Br	0.173498	1.103724	-0.049102
H130	H	1.355147	0.113789	0.132538
H131	H	1.131006	0.243768	0.778629
H132	H	0.542584	1.400677	0.202873
Br133	Br	0.867801	0.531035	-0.162914
H134	H	1.535489	-0.124390	0.965260
H135	H	0.342022	1.558781	0.060650
Br136	Br	0.721833	0.577087	-0.023802
H137	H	0.501965	1.240653	-0.017986
H138	H	1.149385	0.385553	-0.277313
H139	H	0.946948	0.976619	-0.411419
Br140	Br	1.789960	-0.353647	1.042723
Br141	Br	0.757949	1.061364	-0.430147
H142	H	0.870927	0.328737	-0.101876
Br143	Br	0.288000	1.630086	-0.675499
H144	H	0.542474	1.400801	-0.598034
H145	H	0.768706	0.375692	-0.035159
Br146	Br	1.092814	0.131315	0.952883
H147	H	0.736004	0.391951	0.306691
H148	H	0.954230	0.964017	-0.557184
H149	H	1.263108	-0.079056	0.950245
H150	H	1.535375	-0.124272	0.164315
Br151	Br	1.789875	-0.353605	0.316030
H152	H	0.756232	0.171191	0.417030
Br153	Br	0.752801	1.079979	-0.628827
Br154	Br	1.320022	0.026787	0.797405
Br155	Br	0.582002	0.168834	0.418218
Br156	Br	0.199797	0.816878	0.094313
Br157	Br	0.495935	1.107565	-0.051040
Br158	Br	0.895486	0.302274	0.406100
