data_functionalizedCrystal
_audit_creation_method	'MofGen! by Chris Wilmer'
_symmetry_space_group_name_H-M	'P1'
_symmetry_Int_Tables_number	1
_symmetry_cell_setting	triclinic
loop_
_symmetry_equiv_pos_as_xyz
  x,y,z
_cell_length_a	10.908891
_cell_length_b	10.268362
_cell_length_c	11.026607
_cell_angle_alpha	90.003050
_cell_angle_beta	95.664947
_cell_angle_gamma	89.994991
loop_
_atom_site_label
_atom_site_type_symbol
_atom_site_fract_x
_atom_site_fract_y
_atom_site_fract_z
O1	O	-1.662458	0.108290	-0.179085
O2	O	-1.329125	0.441624	0.154249
O3	O	-0.995792	0.774957	0.487582
O4	O	-1.309524	0.108294	-0.088542
O5	O	-0.976190	0.441627	0.244791
O6	O	-0.642857	0.774960	0.578124
O7	O	-1.456740	0.108288	-0.304563
O8	O	-1.123407	0.441621	0.028770
O9	O	-0.790073	0.774954	0.362103
O10	O	-1.515242	0.108296	0.036936
O11	O	-1.181909	0.441630	0.370270
O12	O	-0.848575	0.774963	0.703603
O13	O	-1.456722	-0.108313	-0.304567
O14	O	-1.123389	0.225020	0.028766
O15	O	-0.790055	0.558354	0.362099
O16	O	-1.309506	-0.108307	-0.088546
O17	O	-0.976172	0.225026	0.244787
O18	O	-0.642839	0.558360	0.578120
O19	O	-1.662440	-0.108310	-0.179089
O20	O	-1.329107	0.225023	0.154245
O21	O	-0.995774	0.558356	0.487578
Cu22	Cu	-1.485971	-0.128086	-0.133818
Cu23	Cu	-1.152638	0.205247	0.199515
Cu24	Cu	-0.819305	0.538581	0.532849
Cu25	Cu	-1.485993	0.128069	-0.133813
Cu26	Cu	-1.152659	0.461403	0.199520
Cu27	Cu	-0.819326	0.794736	0.532853
O28	O	-1.515224	-0.108304	0.036932
O29	O	-1.181891	0.225029	0.370266
O30	O	-0.848557	0.558362	0.703599
C31	C	-1.263629	-0.000006	-0.080083
C32	C	-0.930296	0.333327	0.253251
C33	C	-0.596963	0.666661	0.586584
C34	C	-1.126902	-0.000005	-0.054883
C35	C	-0.793568	0.333329	0.278450
C36	C	-0.460235	0.666662	0.611783
N37	N	-1.485965	-0.308252	-0.133824
N38	N	-1.152632	0.025081	0.199510
N39	N	-0.819298	0.358415	0.532843
C40	C	-1.056639	-0.000007	-0.146827
C41	C	-0.723306	0.333327	0.186506
C42	C	-0.389972	0.666660	0.519839
C43	C	-0.915324	-0.000005	-0.120785
C44	C	-0.581990	0.333328	0.212548
C45	C	-0.248657	0.666661	0.545882
C46	C	-1.485986	-0.573922	-0.133814
C47	C	-1.152653	-0.240589	0.199519
C48	C	-0.819319	0.092744	0.532852
C49	C	-1.485971	-0.426085	-0.133815
C50	C	-1.152638	-0.092751	0.199518
C51	C	-0.819305	0.240582	0.532851
C52	C	-0.708335	-0.000009	-0.187547
C53	C	-0.375002	0.333324	0.145786
C54	C	-0.041668	0.666657	0.479120
C55	C	-0.845063	-0.000007	-0.212742
C56	C	-0.511730	0.333326	0.120592
C57	C	-0.178396	0.666659	0.453925
C58	C	-1.445939	-0.000011	-0.347598
C59	C	-1.112605	0.333322	-0.014265
C60	C	-0.779272	0.666656	0.319068
C61	C	-1.413766	-0.000006	-0.475819
C62	C	-1.080432	0.333327	-0.142486
C63	C	-0.747099	0.666661	0.190847
N64	N	-1.486006	0.308235	-0.133819
N65	N	-1.152673	0.641569	0.199515
N66	N	-0.819340	0.974902	0.532848
C67	C	-1.502601	-0.000005	-0.567553
C68	C	-1.169267	0.333328	-0.234220
C69	C	-0.835934	0.666662	0.099114
C70	C	-1.469350	-0.000000	-0.700077
C71	C	-1.136017	0.333333	-0.366744
C72	C	-0.802684	0.666667	-0.033410
C73	C	-1.526025	-0.000003	0.079967
C74	C	-1.192692	0.333331	0.413300
C75	C	-0.859359	0.666664	0.746634
C76	C	-1.558198	0.000001	0.208188
C77	C	-1.224865	0.333334	0.541522
C78	C	-0.891532	0.666668	0.874855
H79	H	-1.101104	-0.000003	-0.244824
H80	H	-0.767771	0.333330	0.088510
H81	H	-0.434438	0.666664	0.421843
H82	H	-1.658876	0.000098	-0.772246
H83	H	-1.325543	0.333431	-0.438912
H84	H	-0.992209	0.666764	-0.105579
F85	F	-1.282179	0.000007	-0.501398
F86	F	-0.948845	0.333340	-0.168064
F87	F	-0.615512	0.666674	0.165269
H88	H	-0.870863	0.000003	-0.022782
H89	H	-0.537530	0.333336	0.310552
H90	H	-0.204197	0.666669	0.643885
F91	F	-0.903168	0.000003	-0.340841
F92	F	-0.569834	0.333336	-0.007508
F93	F	-0.236501	0.666670	0.325825
H94	H	-1.082436	0.000003	0.043113
H95	H	-0.749103	0.333337	0.376446
H96	H	-0.415769	0.666670	0.709780
F97	F	-1.634187	0.000001	-0.541975
F98	F	-1.300854	0.333334	-0.208641
F99	F	-0.967521	0.666668	0.124692
H100	H	-1.368673	0.000010	-0.719645
H101	H	-1.035340	0.333343	-0.386312
H102	H	-0.702006	0.666676	-0.052978
