data_functionalizedCrystal
_audit_creation_method	'MofGen! by Chris Wilmer'
_symmetry_space_group_name_H-M	'P1'
_symmetry_Int_Tables_number	1
_symmetry_cell_setting	triclinic
loop_
_symmetry_equiv_pos_as_xyz
  x,y,z
_cell_length_a	16.974959
_cell_length_b	16.974800
_cell_length_c	15.455313
_cell_angle_alpha	89.026089
_cell_angle_beta	83.692525
_cell_angle_gamma	83.162696
loop_
_atom_site_label
_atom_site_type_symbol
_atom_site_fract_x
_atom_site_fract_y
_atom_site_fract_z
O1	O	-0.101131	-1.048632	0.008597
O2	O	0.398869	-0.548632	0.508597
O3	O	-0.113246	-0.819147	-0.006671
O4	O	0.386754	-0.319147	0.493329
O5	O	0.008284	-0.940666	-0.006650
O6	O	0.508284	-0.440666	0.493350
O7	O	-0.222661	-0.927113	0.008577
O8	O	0.277339	-0.427113	0.508577
O9	O	0.001363	-0.933717	0.137609
O10	O	0.501363	-0.433717	0.637609
O11	O	-0.120167	-0.812198	0.137588
O12	O	0.379833	-0.312198	0.637588
O13	O	-0.108052	-1.041684	0.152856
O14	O	0.391948	-0.541684	0.652856
Cu15	Cu	-0.114741	-0.926306	0.158394
Cu16	Cu	0.385259	-0.426306	0.658394
Cu17	Cu	-0.106557	-0.934524	-0.012209
Cu18	Cu	0.393443	-0.434524	0.487791
O19	O	-0.229582	-0.920165	0.152835
O20	O	0.270418	-0.420165	0.652835
C21	C	-0.116119	-0.786316	0.063356
C22	C	0.383881	-0.286316	0.563356
C23	C	-0.114359	-0.698842	0.057089
C24	C	0.385641	-0.198842	0.557089
C25	C	0.034381	-0.936802	0.063380
C26	C	0.534381	-0.436802	0.563380
C27	C	0.122454	-0.935633	0.057122
C28	C	0.622454	-0.435633	0.557122
C29	C	-0.105179	-1.074515	0.082828
C30	C	0.394821	-0.574515	0.582828
C31	C	-0.106939	-1.161989	0.089089
C32	C	0.393061	-0.661989	0.589089
C33	C	-0.255679	-0.924028	0.082804
C34	C	0.244321	-0.424028	0.582804
C35	C	-0.343752	-0.925198	0.089056
C36	C	0.156248	-0.425198	0.589056
C37	C	0.618628	-0.929532	0.013369
C38	C	1.118628	-0.429532	0.513369
C39	C	0.535872	-0.930622	0.019265
C40	C	1.035872	-0.430622	0.519265
C41	C	0.490738	-0.927373	0.100849
C42	C	0.990738	-0.427373	0.600849
C43	C	0.528364	-0.923042	0.176541
C44	C	1.028364	-0.423042	0.676541
C45	C	0.611119	-0.921957	0.170645
C46	C	1.111119	-0.421957	0.670645
C47	C	0.242835	-0.930216	0.126918
C48	C	0.742835	-0.430216	0.626918
C49	C	0.160074	-0.931299	0.132809
C50	C	0.660074	-0.431299	0.632809
C51	C	0.167589	-0.938881	-0.024468
C52	C	0.667589	-0.438881	0.475532
C53	C	0.250344	-0.937791	-0.030358
C54	C	0.750344	-0.437791	0.469642
C55	C	0.287964	-0.933464	0.045335
C56	C	0.787964	-0.433464	0.545335
N57	N	0.406148	-0.928485	0.106878
N58	N	0.906148	-0.428485	0.606878
N59	N	0.372553	-0.932357	0.039305
N60	N	0.872553	-0.432357	0.539305
N61	N	-0.120498	-0.920532	0.278387
N62	N	0.379502	-0.420532	0.778387
C63	C	-0.117302	-0.653963	0.132783
C64	C	0.382698	-0.153963	0.632783
C65	C	-0.115636	-0.571774	0.126896
C66	C	0.384364	-0.071774	0.626896
C67	C	-0.111031	-0.534464	0.045316
C68	C	0.388969	-0.034464	0.545316
C69	C	-0.108085	-0.579348	-0.030383
C70	C	0.391915	-0.079348	0.469617
C71	C	-0.109746	-0.661537	-0.024496
C72	C	0.390254	-0.161537	0.475504
C73	C	-0.105654	-0.289063	0.019276
C74	C	0.394346	0.210937	0.519276
C75	C	-0.103995	-0.206868	0.013395
C76	C	0.396005	0.293132	0.513395
C77	C	-0.111545	-0.199299	0.170675
C78	C	0.388455	0.300701	0.670675
C79	C	-0.113210	-0.281489	0.176555
C80	C	0.386790	0.218511	0.676555
C81	C	-0.110260	-0.326367	0.100856
C82	C	0.389740	0.173633	0.600856
N83	N	-0.109330	-0.450452	0.039297
N84	N	0.390670	0.049548	0.539297
N85	N	-0.111955	-0.410377	0.106875
N86	N	0.388045	0.089623	0.606875
N87	N	-0.100794	-0.940305	-0.132202
N88	N	0.399206	-0.440305	0.367798
C89	C	-0.068886	-0.972175	0.323793
C90	C	0.431114	-0.472175	0.823793
C91	C	-0.073247	-0.967816	0.414600
C92	C	0.426753	-0.467816	0.914600
C93	C	-0.129223	-0.911816	0.460001
C94	C	0.370777	-0.411816	0.960001
C95	C	-0.180837	-0.860167	0.414589
C96	C	0.319163	-0.360167	0.914589
C97	C	-0.176472	-0.864524	0.323783
C98	C	0.323528	-0.364524	0.823783
C99	C	-0.148043	-0.893012	0.731580
C100	C	0.351957	-0.393012	1.231580
C101	C	-0.152405	-0.888661	0.822393
C102	C	0.347595	-0.388661	1.322393
C103	C	-0.044814	-0.996309	0.822398
C104	C	0.455186	-0.496309	1.322398
C105	C	-0.040457	-1.000664	0.731590
C106	C	0.459543	-0.500664	1.231590
C107	C	-0.092068	-0.949012	0.686186
C108	C	0.407932	-0.449012	1.186186
N109	N	-0.133683	-0.907360	0.552820
N110	N	0.366317	-0.407360	1.052820
N111	N	-0.087603	-0.953465	0.593367
N112	N	0.412397	-0.453465	1.093367
H113	H	0.655370	-0.932170	-0.053066
H114	H	1.155370	-0.432170	0.446934
C115	C	0.011960	-1.053116	0.872349
C116	C	0.511960	-0.553116	1.372349
N117	N	0.054728	-1.095902	0.909972
N118	N	0.554728	-0.595902	1.409972
H119	H	0.505246	-0.934153	-0.042367
H120	H	1.005246	-0.434153	0.457633
C121	C	-0.118271	-0.322524	0.266300
C122	C	0.381729	0.177476	0.766300
N123	N	-0.122085	-0.353431	0.333897
N124	N	0.377915	0.146569	0.833897
C125	C	0.110428	-0.927732	0.222562
C126	C	0.610428	-0.427732	0.722562
N127	N	0.073035	-0.925046	0.290160
N128	N	0.573035	-0.425046	0.790160
H129	H	0.273455	-0.926694	0.188553
H130	H	0.773455	-0.426694	0.688553
C131	C	-0.242404	-0.798559	0.464532
C132	C	0.257596	-0.298559	0.964532
N133	N	-0.288777	-0.752155	0.502148
N134	N	0.211223	-0.252155	1.002148
C135	C	0.478712	-0.919464	0.266284
C136	C	0.978712	-0.419464	0.766284
N137	N	0.441314	-0.916764	0.333880
N138	N	0.941314	-0.416764	0.833880
H139	H	0.287089	-0.940442	-0.096791
H140	H	0.787089	-0.440442	0.403209
C141	C	-0.114782	-0.149927	0.253938
C142	C	0.385218	0.350073	0.753938
N143	N	-0.117216	-0.112741	0.316655
N144	N	0.382784	0.387259	0.816655
H145	H	0.641747	-0.918428	0.232277
H146	H	1.141747	-0.418428	0.732277
H147	H	-0.100248	-0.176492	-0.053041
H148	H	0.399752	0.323508	0.446959
H149	H	-0.104330	-0.548965	-0.096808
H150	H	0.395670	-0.048965	0.403192
C151	C	-0.204920	-0.836295	0.681661
C152	C	0.295080	-0.336295	1.181661
N153	N	-0.247799	-0.793610	0.644065
N154	N	0.252201	-0.293610	1.144065
H155	H	-0.121059	-0.684334	0.199215
H156	H	0.378941	-0.184334	0.699215
H157	H	-0.103248	-0.325593	-0.042364
H158	H	0.396752	0.174407	0.457636
H159	H	-0.118020	-0.535239	0.188533
H160	H	0.381980	-0.035239	0.688533
C161	C	0.021125	-1.062264	0.681656
C162	C	0.521125	-0.562264	1.181656
N163	N	0.067509	-1.108662	0.644045
N164	N	0.567509	-0.608662	1.144045
C165	C	-0.106509	-0.710903	-0.107765
C166	C	0.393491	-0.210903	0.392235
N167	N	-0.104069	-0.748085	-0.170486
N168	N	0.395931	-0.248085	0.329514
H169	H	-0.218498	-0.822469	0.286814
H170	H	0.281502	-0.322469	0.786814
H171	H	-0.023308	-1.017779	0.286834
H172	H	0.476692	-0.517779	0.786834
H173	H	-0.031221	-1.009867	0.451569
H174	H	0.468779	-0.509867	0.951569
H175	H	0.136950	-0.942405	-0.086092
H176	H	0.636950	-0.442405	0.413908
H177	H	-0.197991	-0.843057	0.859354
H178	H	0.302009	-0.343057	1.359354
