data_functionalizedCrystal
_audit_creation_method	'MofGen! by Chris Wilmer'
_symmetry_space_group_name_H-M	'P1'
_symmetry_Int_Tables_number	1
_symmetry_cell_setting	triclinic
loop_
_symmetry_equiv_pos_as_xyz
  x,y,z
_cell_length_a	11.792241
_cell_length_b	19.188924
_cell_length_c	10.868271
_cell_angle_alpha	89.992800
_cell_angle_beta	89.999893
_cell_angle_gamma	83.667690
loop_
_atom_site_label
_atom_site_type_symbol
_atom_site_fract_x
_atom_site_fract_y
_atom_site_fract_z
O1	O	1.505472	0.095695	-0.102209
O2	O	1.838806	0.429029	0.231124
O3	O	2.172139	0.762362	0.564458
O4	O	1.174983	0.105558	-0.102238
O5	O	1.508316	0.438891	0.231095
O6	O	1.841650	0.772224	0.564428
O7	O	1.349769	-0.000975	-0.102208
O8	O	1.683102	0.332358	0.231125
O9	O	2.016436	0.665691	0.564458
O10	O	1.330686	0.202229	-0.102239
O11	O	1.664020	0.535562	0.231094
O12	O	1.997353	0.868895	0.564428
O13	O	1.349755	-0.000980	0.102436
O14	O	1.683088	0.332354	0.435770
O15	O	2.016421	0.665687	0.769103
O16	O	1.174969	0.105554	0.102406
O17	O	1.508302	0.438887	0.435740
O18	O	1.841636	0.772220	0.769073
O19	O	1.505458	0.095691	0.102436
O20	O	1.838791	0.429025	0.435769
O21	O	2.172125	0.762358	0.769102
Zn22	Zn	1.340211	0.100622	0.134913
Zn23	Zn	1.673544	0.433955	0.468246
Zn24	Zn	2.006878	0.767288	0.801579
Zn25	Zn	1.340230	0.100627	-0.134715
Zn26	Zn	1.673563	0.433961	0.198618
Zn27	Zn	2.006897	0.767294	0.531951
O28	O	1.330672	0.202224	0.102406
O29	O	1.664005	0.535558	0.435739
O30	O	1.997339	0.868891	0.769072
C31	C	1.132694	0.104936	0.000081
C32	C	1.466028	0.438270	0.333414
C33	C	1.799361	0.771603	0.666747
C34	C	1.006708	0.103082	0.000070
C35	C	1.340042	0.436415	0.333403
C36	C	1.673375	0.769749	0.666737
C37	C	1.349145	-0.026992	0.000115
C38	C	1.682478	0.306341	0.333448
C39	C	2.015812	0.639675	0.666782
C40	C	1.347294	-0.104507	0.000118
C41	C	1.680627	0.228826	0.333452
C42	C	2.013961	0.562159	0.666785
C43	C	0.776047	0.099672	0.000106
C44	C	1.109381	0.433006	0.333439
C45	C	1.442714	0.766339	0.666772
C46	C	0.904404	0.101567	0.000086
C47	C	1.237738	0.434900	0.333419
C48	C	1.571071	0.768233	0.666753
C49	C	1.346438	-0.140909	-0.111434
C50	C	1.679771	0.192425	0.221899
C51	C	2.013105	0.525758	0.555233
C52	C	1.344682	-0.213741	-0.111443
C53	C	1.678016	0.119592	0.221890
C54	C	2.011349	0.452925	0.555223
C55	C	1.343806	-0.250172	0.000106
C56	C	1.677139	0.083162	0.333439
C57	C	2.010473	0.416495	0.666772
C58	C	1.344656	-0.213761	0.111673
C59	C	1.677989	0.119573	0.445006
C60	C	2.011323	0.452906	0.778339
C61	C	1.346400	-0.140929	0.111679
C62	C	1.679733	0.192405	0.445012
C63	C	2.013067	0.525738	0.778345
N64	N	1.405648	-0.369486	0.083134
N65	N	1.738981	-0.036153	0.416468
N66	N	2.072315	0.297181	0.749801
N67	N	1.403994	-0.438674	0.083121
N68	N	1.737327	-0.105340	0.416454
N69	N	2.070660	0.227993	0.749788
C70	C	1.338549	-0.469610	0.000093
C71	C	1.671882	-0.136277	0.333427
C72	C	2.005216	0.197056	0.666760
N73	N	1.274835	-0.428747	-0.082939
N74	N	1.608169	-0.095413	0.250394
N75	N	1.941502	0.237920	0.583728
N76	N	1.276495	-0.359553	-0.082929
N77	N	1.609828	-0.026220	0.250404
N78	N	1.943161	0.307113	0.583738
C79	C	1.341914	-0.329146	0.000111
C80	C	1.675248	0.004188	0.333445
C81	C	2.008581	0.337521	0.666778
C82	C	1.335788	-0.584985	-0.111477
C83	C	1.669121	-0.251652	0.221856
C84	C	2.002454	0.081681	0.555190
C85	C	1.334025	-0.657819	-0.111482
C86	C	1.667359	-0.324485	0.221852
C87	C	2.000692	0.008848	0.555185
C88	C	1.334010	-0.657838	0.111637
C89	C	1.667344	-0.324504	0.444971
C90	C	2.000677	0.008829	0.778304
C91	C	1.335761	-0.585005	0.111639
C92	C	1.669095	-0.251671	0.444972
C93	C	2.002428	0.081662	0.778306
C94	C	1.336655	-0.548583	0.000078
C95	C	1.669989	-0.215250	0.333412
C96	C	2.003322	0.118083	0.666745
C97	C	1.547747	0.096313	0.000114
C98	C	1.881080	0.429646	0.333448
C99	C	2.214413	0.762979	0.666781
C100	C	1.673733	0.098167	0.000117
C101	C	2.007066	0.431500	0.333450
C102	C	2.340399	0.764834	0.666783
C103	C	1.331296	0.228241	0.000080
C104	C	1.664629	0.561574	0.333413
C105	C	1.997963	0.894908	0.666746
C106	C	1.333147	0.305756	0.000068
C107	C	1.666480	0.639090	0.333402
C108	C	1.999814	0.972423	0.666735
N109	N	1.340207	0.100618	0.318927
N110	N	1.673540	0.433951	0.652260
N111	N	2.006873	0.767284	0.985594
N112	N	1.340243	0.100626	-0.318729
N113	N	1.673577	0.433959	0.014604
N114	N	2.006910	0.767293	0.347937
C115	C	1.340224	0.100626	0.569933
C116	C	1.673557	0.433959	0.903266
C117	C	2.006891	0.767292	1.236600
C118	C	1.340211	0.100623	0.430255
C119	C	1.673544	0.433957	0.763589
C120	C	2.006877	0.767290	1.096922
H121	H	1.347163	-0.111259	-0.202275
H122	H	1.680496	0.222075	0.131058
H123	H	2.013829	0.555408	0.464391
H124	H	1.333322	-0.687455	-0.202325
H125	H	1.666656	-0.354122	0.131009
H126	H	1.999989	-0.020789	0.464342
H127	H	1.343978	-0.243385	-0.202285
H128	H	1.677312	0.089949	0.131048
H129	H	2.010645	0.423282	0.464381
C130	C	1.336758	-0.544918	-0.234185
C131	C	1.670091	-0.211585	0.099148
C132	C	2.003424	0.121749	0.432481
H133	H	1.335979	-0.577030	-0.300626
H134	H	1.669313	-0.243697	0.032708
H135	H	2.002646	0.089636	0.366041
H136	H	1.403610	-0.521583	-0.238817
H137	H	1.736943	-0.188249	0.094517
H138	H	2.070276	0.145084	0.427850
H139	H	1.271263	-0.511429	-0.238824
H140	H	1.604596	-0.178096	0.094510
H141	H	1.937930	0.155238	0.427843
H142	H	1.336468	-0.555367	0.202477
H143	H	1.669801	-0.222034	0.535810
H144	H	2.003135	0.111300	0.869144
C145	C	1.333037	-0.697901	0.234340
C146	C	1.666370	-0.364568	0.567673
C147	C	1.999704	-0.031234	0.901006
H148	H	1.331879	-0.746492	0.218361
H149	H	1.665212	-0.413158	0.551694
H150	H	1.998545	-0.079825	0.885028
H151	H	1.267149	-0.680891	0.280166
H152	H	1.600483	-0.347558	0.613500
H153	H	1.933816	-0.014224	0.946833
H154	H	1.399496	-0.691048	0.280186
H155	H	1.732829	-0.357714	0.613519
H156	H	2.066163	-0.024381	0.946852
C157	C	1.343695	-0.253831	0.234373
C158	C	1.677028	0.079502	0.567706
C159	C	2.010361	0.412836	0.901040
H160	H	1.342545	-0.302422	0.218393
H161	H	1.675878	0.030911	0.551727
H162	H	2.009212	0.364245	0.885060
H163	H	1.277808	-0.236826	0.280205
H164	H	1.611141	0.096507	0.613538
H165	H	1.944474	0.429841	0.946871
H166	H	1.410154	-0.246973	0.280215
H167	H	1.743488	0.086360	0.613548
H168	H	2.076821	0.419694	0.946881
H169	H	1.347092	-0.111291	0.202521
H170	H	1.680426	0.222043	0.535854
H171	H	2.013759	0.555376	0.869188
