data_functionalizedCrystal
_audit_creation_method	'MofGen! by Chris Wilmer'
_symmetry_space_group_name_H-M	'P1'
_symmetry_Int_Tables_number	1
_symmetry_cell_setting	triclinic
loop_
_symmetry_equiv_pos_as_xyz
  x,y,z
_cell_length_a	12.759400
_cell_length_b	11.169417
_cell_length_c	11.169409
_cell_angle_alpha	90.020564
_cell_angle_beta	89.966264
_cell_angle_gamma	89.984437
loop_
_atom_site_label
_atom_site_type_symbol
_atom_site_fract_x
_atom_site_fract_y
_atom_site_fract_z
Zn1	Zn	-0.418157	-1.834935	-0.678531
Zn2	Zn	-0.593883	-1.834806	-0.477842
Zn3	Zn	-0.418221	-1.634218	-0.477865
Zn4	Zn	-0.593797	-1.634213	-0.678487
O5	O	-0.506015	-1.734543	-0.578181
O6	O	-0.441477	-2.002867	-0.651918
O7	O	-0.570643	-1.808146	-0.309896
O8	O	-0.271192	-1.660900	-0.504511
O9	O	-0.570581	-2.002773	-0.504473
O10	O	-0.271145	-1.808365	-0.651939
O11	O	-0.441585	-1.660775	-0.309912
O12	O	-0.441503	-1.466268	-0.504469
O13	O	-0.570436	-1.660891	-0.846443
O14	O	-0.570498	-1.466264	-0.651866
O15	O	-0.441394	-1.808360	-0.846475
O16	O	-0.740892	-1.808141	-0.504431
O17	O	-0.740830	-1.660766	-0.651844
C18	C	-0.505999	-1.422718	-0.578166
C19	C	-0.506017	-1.289318	-0.578188
C20	C	-0.778982	-1.734472	-0.578156
C21	C	-0.895759	-1.734551	-0.578186
C22	C	-0.505898	-1.734639	-0.891224
C23	C	-0.505849	-1.734680	-1.024624
C24	C	-0.950618	-1.811375	-0.501513
C25	C	-1.060342	-1.811448	-0.501550
C26	C	-1.060337	-1.657865	-0.654936
C27	C	-0.950615	-1.657798	-0.654904
C28	C	-0.895762	-1.888128	-0.424794
C29	C	-0.950622	-1.964956	-0.348114
C30	C	-1.060346	-1.965030	-0.348151
C31	C	-1.115210	-1.888275	-0.424868
C32	C	-0.231981	-1.734647	-0.578233
C33	C	-0.115205	-1.734692	-0.578255
C34	C	-0.506031	-2.047585	-0.578198
C35	C	-0.506038	-2.180985	-0.578204
C36	C	-0.506055	-1.734516	-0.266357
C37	C	-0.505808	-1.734708	-0.132957
H38	H	-0.806419	-1.888073	-0.424752
H39	H	-1.204555	-1.888351	-0.424902
H40	H	-1.105016	-1.595374	-0.717395
H41	H	-0.905946	-2.027455	-0.285660
C42	C	-1.119720	-2.048489	-0.264775
C43	C	-1.048190	-2.115666	-0.197566
C44	C	-1.102845	-2.192547	-0.120730
H45	H	-1.162454	-2.100897	-0.310606
H46	H	-1.162573	-2.002655	-0.212394
H47	H	-1.005355	-2.161496	-0.249941
H48	H	-1.005454	-2.063289	-0.151711
H49	H	-1.145698	-2.146713	-0.068349
H50	H	-1.145577	-2.244947	-0.166570
H51	H	-1.054320	-2.238127	-0.075112
H52	H	-0.905948	-1.595243	-0.717340
