data_functionalizedCrystal
_audit_creation_method	'MofGen! by Chris Wilmer'
_symmetry_space_group_name_H-M	'P1'
_symmetry_Int_Tables_number	1
_symmetry_cell_setting	triclinic
loop_
_symmetry_equiv_pos_as_xyz
  x,y,z
_cell_length_a	21.395362
_cell_length_b	21.295417
_cell_length_c	21.395355
_cell_angle_alpha	90.020404
_cell_angle_beta	90.043940
_cell_angle_gamma	90.045579
loop_
_atom_site_label
_atom_site_type_symbol
_atom_site_fract_x
_atom_site_fract_y
_atom_site_fract_z
Zn1	Zn	0.957864	-0.250415	0.354577
Zn2	Zn	1.457864	0.249585	0.854577
Zn3	Zn	0.957768	-0.355667	0.249796
Zn4	Zn	1.457768	0.144333	0.749796
Zn5	Zn	0.853079	-0.250445	0.249779
Zn6	Zn	1.353079	0.249555	0.749779
Zn7	Zn	0.853050	-0.355680	0.354501
Zn8	Zn	1.353050	0.144320	0.854501
O9	O	0.905440	-0.303052	0.302163
O10	O	1.405440	0.196948	0.802163
O11	O	1.045529	-0.264359	0.340717
O12	O	1.545529	0.235641	0.840717
O13	O	0.943853	-0.341716	0.162116
O14	O	1.443853	0.158284	0.662116
O15	O	0.867031	-0.162351	0.263705
O16	O	1.367031	0.337649	0.763705
O17	O	1.045459	-0.341687	0.263735
O18	O	1.545459	0.158313	0.763735
O19	O	0.944016	-0.162330	0.340700
O20	O	1.444016	0.337670	0.840700
O21	O	0.866938	-0.264409	0.162103
O22	O	1.366938	0.235591	0.662103
O23	O	0.765397	-0.264422	0.263631
O24	O	1.265397	0.235578	0.763631
O25	O	0.866982	-0.341709	0.442189
O26	O	1.366982	0.158291	0.942189
O27	O	0.765376	-0.341738	0.340570
O28	O	1.265376	0.158262	0.840570
O29	O	0.943988	-0.264372	0.442245
O30	O	1.443988	0.235628	0.942245
O31	O	0.943825	-0.443758	0.263661
O32	O	1.443825	0.056242	0.763661
O33	O	0.866889	-0.443767	0.340587
O34	O	1.366889	0.056233	0.840587
C35	C	0.742652	-0.303085	0.302091
C36	C	1.242652	0.196915	0.802091
C37	C	0.673011	-0.303114	0.302074
C38	C	1.173011	0.196886	0.802074
C39	C	0.640303	-0.343426	0.342077
C40	C	1.140303	0.156574	0.842077
C41	C	0.574868	-0.343411	0.342105
C42	C	1.074868	0.156589	0.842105
C43	C	0.542143	-0.303090	0.302119
C44	C	1.042143	0.196910	0.802119
C45	C	0.574859	-0.262771	0.262114
C46	C	1.074859	0.237229	0.762114
C47	C	0.640293	-0.262783	0.262092
C48	C	1.140293	0.237217	0.762092
C49	C	0.438418	-0.298019	0.245714
C50	C	0.938418	0.201981	0.745714
C51	C	0.372985	-0.298011	0.245735
C52	C	0.872985	0.201989	0.745735
C53	C	0.340322	-0.303049	0.302188
C54	C	0.840322	0.196951	0.802188
C55	C	0.373100	-0.308108	0.358622
C56	C	0.873100	0.191892	0.858622
C57	C	0.438534	-0.308120	0.358599
C58	C	0.938534	0.191880	0.858599
C59	C	0.471191	-0.303072	0.302139
C60	C	0.971191	0.196928	0.802139
C61	C	0.236662	-0.343346	0.342224
C62	C	0.736662	0.156654	0.842224
C63	C	0.171225	-0.343326	0.342253
C64	C	0.671225	0.156674	0.842253
C65	C	0.171217	-0.262690	0.262257
C66	C	0.671217	0.237310	0.762257
C67	C	0.236653	-0.262706	0.262234
C68	C	0.736653	0.237294	0.762234
C69	C	0.269371	-0.303038	0.302216
C70	C	0.769371	0.196962	0.802216
C71	C	0.905360	-0.466603	0.302132
C72	C	1.405360	0.033397	0.802132
C73	C	0.905383	-0.536571	0.302139
C74	C	1.405383	-0.036571	0.802139
C75	C	0.945447	-0.569370	0.342259
C76	C	1.445447	-0.069370	0.842259
C77	C	0.945469	-0.635112	0.342275
C78	C	1.445469	-0.135112	0.842275
C79	C	0.905434	-0.668054	0.302159
C80	C	1.405434	-0.168054	0.802159
C81	C	0.865363	-0.635248	0.262036
C82	C	1.365363	-0.135248	0.762036
C83	C	0.865338	-0.569506	0.262026
C84	C	1.365338	-0.069506	0.762026
N85	N	0.900697	-0.771307	0.247324
N86	N	1.400697	-0.271307	0.747324
N87	N	0.900725	-0.833759	0.247335
N88	N	1.400725	-0.333759	0.747335
C89	C	0.905507	-0.866129	0.302187
C90	C	1.405507	-0.366129	0.802187
N91	N	0.910273	-0.833688	0.357029
N92	N	1.410273	-0.333688	0.857029
N93	N	0.910249	-0.771230	0.357017
N94	N	1.410249	-0.271230	0.857017
C95	C	0.905457	-0.739339	0.302165
C96	C	1.405457	-0.239339	0.802165
C97	C	0.945597	-0.970212	0.342327
C98	C	1.445597	-0.470212	0.842327
C99	C	0.945615	-1.035956	0.342344
C100	C	1.445615	-0.535956	0.842344
C101	C	0.865512	-1.036090	0.262100
C102	C	1.365512	-0.536090	0.762100
C103	C	0.865491	-0.970348	0.262089
C104	C	1.365491	-0.470348	0.762089
C105	C	0.905537	-0.937413	0.302202
C106	C	1.405537	-0.437413	0.802202
C107	C	1.068864	-0.303019	0.302237
C108	C	1.568864	0.196981	0.802237
C109	C	1.138505	-0.303005	0.302268
C110	C	1.638505	0.196995	0.802268
C111	C	0.905492	-0.303039	0.465587
C112	C	1.405492	0.196961	0.965587
C113	C	0.905514	-0.303033	0.535228
C114	C	1.405514	0.196967	1.035228
C115	C	0.905537	-0.138861	0.302209
C116	C	1.405537	0.361139	0.802209
C117	C	0.905579	-0.068893	0.302228
C118	C	1.405579	0.431107	0.802228
C119	C	0.905424	-0.303019	0.139376
C120	C	1.405424	0.196981	0.639376
C121	C	0.905524	-0.302847	0.069735
C122	C	1.405524	0.197153	0.569735
C123	C	0.945610	-0.262762	0.567971
C124	C	1.445610	0.237238	1.067971
C125	C	0.945609	-0.262735	0.633407
C126	C	1.445609	0.237265	1.133407
C127	C	0.905519	-0.302991	0.666096
C128	C	1.405519	0.197009	1.166096
C129	C	0.865416	-0.343265	0.633345
C130	C	1.365416	0.156735	1.133345
C131	C	0.865413	-0.343286	0.567911
C132	C	1.365413	0.156714	1.067911
C133	C	0.900544	-0.359672	0.769758
C134	C	1.400544	0.140328	1.269758
C135	C	0.900551	-0.359652	0.835191
C136	C	1.400551	0.140348	1.335191
C137	C	0.905523	-0.302924	0.867917
C138	C	1.405523	0.197076	1.367917
C139	C	0.910501	-0.246215	0.835202
C140	C	1.410501	0.253785	1.335202
C141	C	0.910499	-0.246237	0.769768
C142	C	1.410499	0.253763	1.269768
C143	C	0.905517	-0.302971	0.737049
C144	C	1.405517	0.197029	1.237049
C145	C	0.945620	-0.262620	0.971613
C146	C	1.445620	0.237380	1.471613
C147	C	0.945615	-0.262592	1.037050
C148	C	1.445615	0.237408	1.537050
C149	C	0.865425	-0.343127	1.036987
C150	C	1.365425	0.156873	1.536987
C151	C	0.865427	-0.343150	0.971552
C152	C	1.365427	0.156850	1.471552
C153	C	0.905528	-0.302897	0.938869
C154	C	1.405528	0.197103	1.438869
H155	H	0.144573	-0.229857	0.229703
H156	H	0.644573	0.270143	0.729703
C157	C	0.135246	-0.387680	0.386249
C158	C	0.635246	0.112320	0.886249
H159	H	0.164106	-0.411707	0.410049
H160	H	0.664106	0.088293	0.910049
H161	H	0.109771	-0.363647	0.413608
H162	H	0.609771	0.136353	0.913608
H163	H	0.109671	-0.415064	0.362226
H164	H	0.609671	0.084936	0.862226
C165	C	0.989541	-0.671201	0.386405
C166	C	1.489541	-0.171201	0.886405
H167	H	0.983817	-0.715071	0.380667
H168	H	1.483817	-0.215071	0.880667
H169	H	1.031638	-0.660382	0.377284
H170	H	1.531638	-0.160382	0.877284
H171	H	0.980346	-0.660419	0.428493
H172	H	1.480346	-0.160419	0.928493
C173	C	0.989638	-0.933978	0.386452
C174	C	1.489638	-0.433978	0.886452
H175	H	0.983891	-0.890127	0.380694
H176	H	1.483891	-0.390127	0.880694
H177	H	0.980452	-0.944739	0.428540
H178	H	1.480452	-0.444739	0.928540
H179	H	1.031746	-0.944709	0.377334
H180	H	1.531746	-0.444709	0.877334
H181	H	0.978239	-1.062659	0.375017
H182	H	1.478239	-0.562659	0.875017
C183	C	0.915965	-0.183862	0.733783
C184	C	1.415965	0.316138	1.233783
H185	H	0.918921	-0.150071	0.762641
H186	H	1.418921	0.349929	1.262641
H187	H	0.952280	-0.184678	0.708281
H188	H	1.452280	0.315322	1.208281
H189	H	0.880052	-0.178351	0.708235
H190	H	1.380052	0.321649	1.208235
H191	H	0.914551	-0.200022	0.861846
H192	H	1.414551	0.299978	1.361846
C193	C	0.989717	-0.218335	0.935659
C194	C	1.489717	0.281665	1.435659
H195	H	1.013590	-0.194337	0.964534
H196	H	1.513590	0.305663	1.464534
H197	H	1.017005	-0.242412	0.910151
H198	H	1.517005	0.257588	1.410151
H199	H	0.965757	-0.190921	0.910118
H200	H	1.465757	0.309079	1.410118
H201	H	0.346302	-0.293896	0.199784
H202	H	0.846302	0.206104	0.699784
H203	H	0.832911	-1.062911	0.229441
H204	H	1.332911	-0.562911	0.729441
H205	H	0.263284	-0.229883	0.229656
H206	H	0.763284	0.270117	0.729656
H207	H	0.978264	-0.229795	1.063708
H208	H	1.478264	0.270205	1.563708
H209	H	0.832777	-0.375897	1.063602
H210	H	1.332777	0.124103	1.563602
H211	H	0.832780	-0.375947	0.944892
H212	H	1.332780	0.124053	1.444892
C213	C	0.821315	-0.387595	0.531892
C214	C	1.321315	0.112405	1.031892
H215	H	0.797442	-0.411571	0.560730
H216	H	1.297442	0.088429	1.060730
H217	H	0.794030	-0.363535	0.506341
H218	H	1.294030	0.136465	1.006341
H219	H	0.845277	-0.415028	0.506389
H220	H	1.345277	0.084972	1.006389
C221	C	0.989488	-0.533142	0.386386
C222	C	1.489488	-0.033142	0.886386
H223	H	0.983740	-0.489290	0.380632
H224	H	1.483740	0.010710	0.880632
H225	H	0.980304	-0.543907	0.428473
H226	H	1.480304	-0.043907	0.928473
H227	H	1.031597	-0.543870	0.377265
H228	H	1.531597	-0.043870	0.877265
H229	H	0.896501	-0.405828	0.861823
H230	H	1.396501	0.094172	1.361823
H231	H	0.832871	-0.943642	0.229417
H232	H	1.332871	-0.443642	0.729417
H233	H	0.896328	-0.405855	0.743119
H234	H	1.396328	0.094145	1.243119
C235	C	0.474341	-0.292442	0.183615
C236	C	0.974341	0.207558	0.683615
H237	H	0.445450	-0.289427	0.150010
H238	H	0.945450	0.210573	0.650010
H239	H	0.499891	-0.255951	0.184508
H240	H	0.999891	0.244049	0.684508
H241	H	0.499837	-0.328508	0.178013
H242	H	0.999837	0.171492	0.678013
C243	C	0.989714	-0.218481	0.532023
C244	C	1.489714	0.281519	1.032023
H245	H	1.013590	-0.194489	0.560900
H246	H	1.513590	0.305511	1.060900
H247	H	1.016998	-0.242563	0.506515
H248	H	1.516998	0.257437	1.006515
H249	H	0.965758	-0.191062	0.506483
H250	H	1.465758	0.308938	1.006483
H251	H	0.978258	-0.229938	0.660072
H252	H	1.478258	0.270062	1.160072
H253	H	0.832766	-0.662073	0.229375
H254	H	1.332766	-0.162073	0.729375
H255	H	0.832773	-0.376039	0.659965
H256	H	1.332773	0.123961	1.159965
H257	H	0.548232	-0.376237	0.374682
H258	H	1.048232	0.123763	0.874682
C259	C	0.676293	-0.387800	0.386042
C260	C	1.176293	0.112200	0.886042
H261	H	0.719949	-0.382043	0.380293
H262	H	1.219949	0.117957	0.880293
H263	H	0.665632	-0.378666	0.428166
H264	H	1.165632	0.121334	0.928166
H265	H	0.665509	-0.430076	0.376777
H266	H	1.165509	0.069924	0.876777
C267	C	0.474591	-0.313681	0.420669
C268	C	0.974591	0.186319	0.920669
H269	H	0.518238	-0.312972	0.412567
H270	H	1.018238	0.187028	0.912567
H271	H	0.463933	-0.279477	0.447093
H272	H	0.963933	0.220523	0.947093
H273	H	0.463853	-0.352037	0.440635
H274	H	0.963853	0.147963	0.940635
C275	C	0.337180	-0.313647	0.420724
C276	C	0.837180	0.186353	0.920724
H277	H	0.293516	-0.312908	0.412658
H278	H	0.793516	0.187092	0.912658
H279	H	0.347886	-0.352001	0.440686
H280	H	0.847886	0.147999	0.940686
H281	H	0.347970	-0.279440	0.447136
H282	H	0.847970	0.220560	0.947136
H283	H	0.263303	-0.376183	0.374784
H284	H	0.763303	0.123817	0.874784
H285	H	0.548210	-0.229940	0.229559
H286	H	1.048210	0.270060	0.729559
C287	C	0.676273	-0.218441	0.218084
C288	C	1.176273	0.281559	0.718084
H289	H	0.647414	-0.194426	0.194271
H290	H	1.147414	0.305574	0.694271
H291	H	0.701855	-0.191056	0.242091
H292	H	1.201855	0.308944	0.742091
H293	H	0.701741	-0.242492	0.190728
H294	H	1.201741	0.257508	0.690728
H295	H	0.832713	-0.542801	0.229355
H296	H	1.332713	-0.042801	0.729355
