data_functionalizedCrystal
_audit_creation_method	'MofGen! by Chris Wilmer'
_symmetry_space_group_name_H-M	'P1'
_symmetry_Int_Tables_number	1
_symmetry_cell_setting	triclinic
loop_
_symmetry_equiv_pos_as_xyz
  x,y,z
_cell_length_a	18.050590
_cell_length_b	29.839131
_cell_length_c	18.050582
_cell_angle_alpha	89.966870
_cell_angle_beta	90.000767
_cell_angle_gamma	90.024397
loop_
_atom_site_label
_atom_site_type_symbol
_atom_site_fract_x
_atom_site_fract_y
_atom_site_fract_z
Zn1	Zn	1.135256	-0.179012	-0.419547
Zn2	Zn	1.635256	0.320988	0.080453
Zn3	Zn	1.135152	-0.254134	-0.295334
Zn4	Zn	1.635152	0.245866	0.204666
Zn5	Zn	1.011075	-0.179005	-0.295405
Zn6	Zn	1.511075	0.320995	0.204595
Zn7	Zn	1.011008	-0.254101	-0.419517
Zn8	Zn	1.511008	0.245899	0.080483
O9	O	1.073123	-0.216563	-0.357451
O10	O	1.573123	0.283437	0.142549
O11	O	1.239167	-0.188994	-0.403053
O12	O	1.739167	0.311006	0.096947
O13	O	1.118677	-0.244179	-0.191419
O14	O	1.618677	0.255821	0.308581
O15	O	1.027620	-0.116138	-0.311915
O16	O	1.527620	0.383862	0.188085
O17	O	1.239090	-0.244186	-0.311794
O18	O	1.739090	0.255814	0.188206
O19	O	1.118855	-0.116144	-0.403122
O20	O	1.618855	0.383856	0.096878
O21	O	1.027519	-0.188981	-0.191471
O22	O	1.527519	0.311019	0.308529
O23	O	0.907142	-0.188950	-0.311886
O24	O	1.407142	0.311050	0.188114
O25	O	1.027506	-0.244130	-0.523445
O26	O	1.527506	0.255870	-0.023445
O27	O	0.907093	-0.244123	-0.403070
O28	O	1.407093	0.255877	0.096930
O29	O	1.118790	-0.188962	-0.523468
O30	O	1.618790	0.311038	-0.023468
O31	O	1.118612	-0.316997	-0.311765
O32	O	1.618612	0.183003	0.188235
O33	O	1.027404	-0.316973	-0.403001
O34	O	1.527404	0.183027	0.096999
C35	C	0.880171	-0.216532	-0.357483
C36	C	1.380171	0.283468	0.142517
C37	C	0.797625	-0.216530	-0.357514
C38	C	1.297625	0.283470	0.142486
C39	C	0.598169	-0.246619	-0.406982
C40	C	1.098169	0.253381	0.093018
C41	C	0.548784	-0.205656	-0.425270
C42	C	1.048784	0.294344	0.074730
C43	C	0.646495	-0.216555	-0.357478
C44	C	1.146495	0.283445	0.142522
C45	C	0.548798	-0.257541	-0.339189
C46	C	1.048798	0.242459	0.160811
C47	C	0.500510	-0.216583	-0.357444
C48	C	1.000510	0.283417	0.142556
C49	C	0.598197	-0.175570	-0.375801
C50	C	1.098197	0.324430	0.124199
C51	C	0.598215	-0.227483	-0.289689
C52	C	1.098215	0.272517	0.210311
C53	C	0.548852	-0.186492	-0.307951
C54	C	1.048852	0.313508	0.192049
C55	C	0.730593	-0.216540	-0.357499
C56	C	1.230593	0.283460	0.142501
C57	C	0.416413	-0.216594	-0.357423
C58	C	0.916413	0.283406	0.142577
C59	C	1.073010	-0.333286	-0.357388
C60	C	1.573010	0.166714	0.142612
C61	C	1.073029	-0.383220	-0.357386
C62	C	1.573029	0.116780	0.142614
C63	C	1.120619	-0.692831	-0.405010
C64	C	1.620619	-0.192831	0.094990
C65	C	1.120699	-0.880504	-0.405054
C66	C	1.620699	-0.380504	0.094946
O67	O	1.161051	-0.904742	-0.445499
O68	O	1.661051	-0.404742	0.054501
N69	N	1.073249	-0.904005	-0.357533
N70	N	1.573249	-0.404005	0.142467
C71	C	1.025772	-0.880585	-0.310001
C72	C	1.525772	-0.380585	0.189999
O73	O	0.985409	-0.904880	-0.269588
O74	O	1.485409	-0.404880	0.230412
C75	C	1.025688	-0.692912	-0.309961
C76	C	1.525688	-0.192912	0.190039
C77	C	1.073147	-0.669414	-0.357480
C78	C	1.573147	-0.169414	0.142520
C79	C	1.168073	-0.669333	-0.452525
C80	C	1.668073	-0.169333	0.047475
C81	C	1.168055	-0.622417	-0.452511
C82	C	1.668055	-0.122417	0.047489
C83	C	1.120583	-0.599000	-0.404981
C84	C	1.620583	-0.099000	0.095019
C85	C	1.073129	-0.622499	-0.357465
C86	C	1.573129	-0.122499	0.142535
C87	C	0.978208	-0.669493	-0.262433
C88	C	1.478208	-0.169493	0.237567
C89	C	0.978190	-0.622572	-0.262428
C90	C	1.478190	-0.122572	0.237572
C91	C	1.025648	-0.599074	-0.309947
C92	C	1.525648	-0.099074	0.190053
C93	C	1.025639	-0.552166	-0.309920
C94	C	1.525639	-0.052166	0.190080
N95	N	1.073089	-0.528665	-0.357442
N96	N	1.573089	-0.028665	0.142558
C97	C	1.120561	-0.552082	-0.404972
C98	C	1.620561	-0.052082	0.095028
C99	C	1.025820	-0.979115	-0.310024
C100	C	1.525820	-0.479115	0.189976
C101	C	1.025842	-1.026033	-0.310033
C102	C	1.525842	-0.526033	0.189967
C103	C	1.120769	-1.025949	-0.405088
C104	C	1.620769	-0.525949	0.094912
C105	C	1.120750	-0.979031	-0.405075
C106	C	1.620750	-0.479031	0.094925
C107	C	1.073270	-0.955614	-0.357546
C108	C	1.573270	-0.455614	0.142454
C109	C	1.120521	-0.453557	-0.404937
C110	C	1.620521	0.046443	0.095063
C111	C	1.120501	-0.406637	-0.404916
C112	C	1.620501	0.093363	0.095084
C113	C	1.025572	-0.406725	-0.309865
C114	C	1.525572	0.093275	0.190135
C115	C	1.025594	-0.453640	-0.309883
C116	C	1.525594	0.046360	0.190117
C117	C	1.073071	-0.477055	-0.357425
C118	C	1.573071	0.022945	0.142575
O119	O	0.985303	-0.527900	-0.269503
O120	O	1.485303	-0.027900	0.230497
O121	O	1.160907	-0.527779	-0.445391
O122	O	1.660907	-0.027779	0.054609
C123	C	1.120636	-0.739747	-0.405024
C124	C	1.620636	-0.239747	0.094976
C125	C	1.073182	-0.763245	-0.357509
C126	C	1.573182	-0.263245	0.142491
C127	C	1.025710	-0.739828	-0.309978
C128	C	1.525710	-0.239828	0.190022
C129	C	1.073204	-0.810163	-0.357518
C130	C	1.573204	-0.310163	0.142482
C131	C	1.120676	-0.833580	-0.405048
C132	C	1.620676	-0.333580	0.094952
C133	C	1.168126	-0.810079	-0.452569
C134	C	1.668126	-0.310079	0.047431
C135	C	1.168108	-0.763164	-0.452554
C136	C	1.668108	-0.263164	0.047446
C137	C	0.978260	-0.763329	-0.262457
C138	C	1.478260	-0.263329	0.237543
C139	C	0.978282	-0.810244	-0.262475
C140	C	1.478282	-0.310244	0.237525
C141	C	1.025754	-0.833661	-0.310005
C142	C	1.525754	-0.333661	0.189995
C143	C	1.266828	-0.216594	-0.357419
C144	C	1.766828	0.283406	0.142581
C145	C	1.349374	-0.216607	-0.357406
C146	C	1.849374	0.283393	0.142594
C147	C	1.073152	-0.216543	-0.551156
C148	C	1.573152	0.283457	-0.051156
C149	C	1.073164	-0.216535	-0.633702
C150	C	1.573164	0.283465	-0.133702
C151	C	1.073257	-0.099385	-0.357530
C152	C	1.573257	0.400615	0.142470
C153	C	1.073314	-0.049450	-0.357564
C154	C	1.573314	0.450550	0.142436
C155	C	1.023562	-0.246494	-0.833141
C156	C	1.523562	0.253506	-0.333141
C157	C	1.091315	-0.257483	-0.882510
C158	C	1.591315	0.242517	-0.382510
C159	C	1.073201	-0.216500	-0.784833
C160	C	1.573201	0.283500	-0.284833
C161	C	1.005485	-0.205498	-0.882545
C162	C	1.505485	0.294502	-0.382545
C163	C	1.073230	-0.216468	-0.930818
C164	C	1.573230	0.283532	-0.430818
C165	C	1.140990	-0.227511	-0.833115
C166	C	1.640990	0.272489	-0.333115
C167	C	1.055114	-0.175507	-0.833145
C168	C	1.555114	0.324493	-0.333145
C169	C	1.122914	-0.186481	-0.882492
C170	C	1.622914	0.313519	-0.382492
C171	C	1.073183	-0.216520	-0.700734
C172	C	1.573183	0.283480	-0.200734
C173	C	1.073256	-0.216448	-1.014915
C174	C	1.573256	0.283552	-0.514915
C175	C	1.073137	-0.216550	-0.164499
C176	C	1.573137	0.283450	0.335501
C177	C	1.073268	-0.216432	-0.081953
C178	C	1.573268	0.283568	0.418047
H179	H	0.527095	-0.292191	-0.323737
H180	H	1.027095	0.207809	0.176263
Br181	Br	0.913822	-0.731556	-0.197950
Br182	Br	1.413822	-0.231556	0.302050
Br183	Br	1.184916	-0.374749	-0.469408
Br184	Br	1.684916	0.125251	0.030592
H185	H	1.039779	-0.140864	-0.811445
H186	H	1.539779	0.359136	-0.311445
H187	H	0.948207	-0.196207	-0.904258
H188	H	1.448207	0.303793	-0.404258
Br189	Br	1.236485	-0.243068	-0.797084
Br190	Br	1.736485	0.256932	-0.297084
Br191	Br	0.961150	-0.374935	-0.245362
Br192	Br	1.461150	0.125065	0.254638
H193	H	0.619826	-0.271999	-0.448893
H194	H	1.119826	0.228001	0.051107
Br195	Br	1.192978	-0.144181	-0.918387
Br196	Br	1.692978	0.355819	-0.418387
H197	H	1.106631	-0.292136	-0.904195
H198	H	1.606631	0.207864	-0.404195
H199	H	0.527072	-0.196422	-0.482583
H200	H	1.027072	0.303578	0.017417
H201	H	0.619805	-0.140910	-0.391320
H202	H	1.119805	0.359090	0.108680
H203	H	0.527335	-0.161050	-0.266072
H204	H	1.027335	0.338950	0.233928
H205	H	0.619944	-0.236730	-0.232392
H206	H	1.119944	0.263270	0.267608
H207	H	1.159176	-0.472615	-0.443656
H208	H	1.659176	0.027385	0.056344
H209	H	0.939637	-0.829373	-0.223772
H210	H	1.439637	-0.329373	0.276228
Br211	Br	0.961373	-0.947343	-0.245518
Br212	Br	1.461373	-0.447343	0.254482
H213	H	1.206730	-0.688394	-0.491235
H214	H	1.706730	-0.188394	0.008765
Br215	Br	1.232462	-0.590534	-0.517010
Br216	Br	1.732462	-0.090534	-0.017010
Br217	Br	1.185160	-0.947145	-0.469567
Br218	Br	1.685160	-0.447145	0.030433
H219	H	0.987204	-1.045161	-0.271331
H220	H	1.487204	-0.545161	0.228669
Br221	Br	1.185195	-1.057739	-0.469592
Br222	Br	1.685195	-0.557739	0.030408
H223	H	0.981623	-0.271892	-0.811472
H224	H	1.481623	0.228108	-0.311472
Br225	Br	0.913748	-0.590795	-0.197922
Br226	Br	1.413748	-0.090795	0.302078
H227	H	0.939562	-0.688617	-0.223737
H228	H	1.439562	-0.188617	0.276263
H229	H	1.206782	-0.829154	-0.491267
H230	H	1.706782	-0.329154	0.008733
Br231	Br	1.232520	-0.731280	-0.517048
Br232	Br	1.732520	-0.231280	-0.017048
Br233	Br	0.961198	-0.485532	-0.245381
Br234	Br	1.461198	0.014468	0.254619
