data_functionalizedCrystal
_audit_creation_method	'MofGen! by Chris Wilmer'
_symmetry_space_group_name_H-M	'P1'
_symmetry_Int_Tables_number	1
_symmetry_cell_setting	triclinic
loop_
_symmetry_equiv_pos_as_xyz
  x,y,z
_cell_length_a	13.897449
_cell_length_b	13.897447
_cell_length_c	19.077174
_cell_angle_alpha	92.274996
_cell_angle_beta	87.685608
_cell_angle_gamma	90.020810
loop_
_atom_site_label
_atom_site_type_symbol
_atom_site_fract_x
_atom_site_fract_y
_atom_site_fract_z
Zn1	Zn	1.496545	-0.405907	-0.397947
Zn2	Zn	1.996545	0.094093	0.102053
Zn3	Zn	1.489970	-0.560735	-0.280257
Zn4	Zn	1.989970	-0.060735	0.219743
Zn5	Zn	1.328771	-0.399460	-0.280267
Zn6	Zn	1.828771	0.100540	0.219733
Zn7	Zn	1.335209	-0.567163	-0.397916
Zn8	Zn	1.835209	-0.067163	0.102084
O9	O	1.412624	-0.483316	-0.339096
O10	O	1.912624	0.016684	0.160904
O11	O	1.630655	-0.426453	-0.382344
O12	O	2.130655	0.073547	0.117656
O13	O	1.463141	-0.533954	-0.181768
O14	O	1.963141	-0.033954	0.318232
O15	O	1.351084	-0.265335	-0.295894
O16	O	1.851084	0.234665	0.204106
O17	O	1.625824	-0.540205	-0.295877
O18	O	2.125824	-0.040205	0.204123
O19	O	1.474346	-0.270071	-0.382353
O20	O	1.974346	0.229929	0.117647
O21	O	1.344709	-0.415465	-0.181775
O22	O	1.844709	0.084535	0.318225
O23	O	1.194643	-0.421699	-0.295864
O24	O	1.694643	0.078301	0.204136
O25	O	1.362056	-0.551161	-0.496410
O26	O	1.862056	-0.051161	0.003590
O27	O	1.199373	-0.544909	-0.382300
O28	O	1.699373	-0.044909	0.117700
O29	O	1.480589	-0.432686	-0.496433
O30	O	1.980589	0.067314	0.003567
O31	O	1.469383	-0.696569	-0.295847
O32	O	1.969383	-0.196569	0.204153
O33	O	1.355681	-0.701291	-0.382291
O34	O	1.855681	-0.201291	0.117709
C35	C	1.162008	-0.483303	-0.339080
C36	C	1.662008	0.016697	0.160920
C37	C	1.054795	-0.483321	-0.339090
C38	C	1.554795	0.016679	0.160910
C39	C	1.412544	-0.733930	-0.339080
C40	C	1.912544	-0.233930	0.160920
C41	C	1.412600	-0.841145	-0.339097
C42	C	1.912600	-0.341145	0.160903
C43	C	1.412647	-0.928215	-0.339113
C44	C	1.912647	-0.428215	0.160887
C45	C	1.412716	-1.037449	-0.339131
C46	C	1.912716	-0.537449	0.160869
C47	C	0.858501	-0.483325	-0.339109
C48	C	1.358501	0.016675	0.160891
C49	C	0.967733	-0.483320	-0.339096
C50	C	1.467733	0.016680	0.160904
C51	C	1.664218	-0.483331	-0.339113
C52	C	2.164218	0.016669	0.160887
C53	C	1.771432	-0.483337	-0.339120
C54	C	2.271432	0.016663	0.160880
C55	C	1.422774	-0.493359	-0.522673
C56	C	1.922774	0.006641	-0.022673
C57	C	1.427099	-0.497639	-0.600902
C58	C	1.927099	0.002361	-0.100902
C59	C	1.412730	-0.231725	-0.339128
C60	C	1.912730	0.268275	0.160872
C61	C	1.412776	-0.124512	-0.339142
C62	C	1.912776	0.375488	0.160858
C63	C	1.367472	-0.437961	-0.637657
C64	C	1.867472	0.062039	-0.137657
C65	C	1.371533	-0.441990	-0.711162
C66	C	1.871533	0.058010	-0.211162
C67	C	1.435225	-0.505694	-0.747910
C68	C	1.935225	-0.005694	-0.247910
C69	C	1.494855	-0.565379	-0.711149
C70	C	1.994855	-0.065379	-0.211149
C71	C	1.490789	-0.561354	-0.637646
C72	C	1.990789	-0.061354	-0.137646
C73	C	1.453993	-0.524351	-0.967741
C74	C	1.953993	-0.024351	-0.467741
C75	C	1.458057	-0.528370	-1.041250
C76	C	1.958057	-0.028370	-0.541250
C77	C	1.334733	-0.404982	-1.041258
C78	C	1.834733	0.095018	-0.541258
C79	C	1.330677	-0.400958	-0.967753
C80	C	1.830677	0.099042	-0.467753
C81	C	1.390302	-0.460647	-0.930999
C82	C	1.890302	0.039353	-0.430999
N83	N	1.439380	-0.509812	-0.823044
N84	N	1.939380	-0.009812	-0.323044
N85	N	1.386143	-0.456533	-0.855866
N86	N	1.886143	0.043467	-0.355866
C87	C	1.402569	-0.473243	-0.156234
C88	C	1.902569	0.026757	0.343766
C89	C	1.398430	-0.468691	-0.078005
C90	C	1.898430	0.031309	0.421995
H91	H	1.315612	-0.386081	-0.607743
H92	H	1.815612	0.113919	-0.107743
H93	H	1.546709	-0.617253	-0.741075
H94	H	2.046709	-0.117253	-0.241075
C95	C	1.502518	-0.572984	-0.855069
C96	C	2.002518	-0.072984	-0.355069
C97	C	1.519536	-0.589956	-0.927346
C98	C	2.019536	-0.089956	-0.427346
H99	H	1.542980	-0.613493	-0.830131
H100	H	2.042980	-0.113493	-0.330131
H101	H	1.516000	-0.507525	-0.843034
H102	H	2.016000	-0.007525	-0.343034
H103	H	1.437033	-0.586440	-0.843025
H104	H	1.937033	-0.086440	-0.343025
H105	H	1.585020	-0.576494	-0.939391
H106	H	2.085020	-0.076494	-0.439391
H107	H	1.506061	-0.655430	-0.939387
H108	H	2.006061	-0.155430	-0.439387
H109	H	1.278809	-0.349087	-0.937838
H110	H	1.778809	0.150913	-0.437838
H111	H	1.286189	-0.356388	-1.071191
H112	H	1.786189	0.143612	-0.571191
H113	H	1.509927	-0.580246	-1.071168
H114	H	2.009927	-0.080246	-0.571168
C115	C	1.536448	-0.723450	-0.614996
C116	C	2.036448	-0.223450	-0.114996
C117	C	1.556331	-0.626955	-0.597241
C118	C	2.056331	-0.126955	-0.097241
H119	H	1.576914	-0.763951	-0.590054
H120	H	2.076914	-0.263951	-0.090054
H121	H	1.470972	-0.736891	-0.602943
H122	H	1.970972	-0.236891	-0.102943
H123	H	1.547991	-0.734950	-0.664032
H124	H	2.047991	-0.234950	-0.164032
H125	H	1.544781	-0.615453	-0.548206
H126	H	2.044781	-0.115453	-0.048206
H127	H	1.621822	-0.613509	-0.609289
H128	H	2.121822	-0.113509	-0.109289
C129	C	1.249241	-0.319610	-0.703787
C130	C	1.749241	0.180390	-0.203787
C131	C	1.305996	-0.376383	-0.751564
C132	C	1.805996	0.123617	-0.251564
H133	H	1.208784	-0.279102	-0.728730
H134	H	1.708784	0.220898	-0.228730
H135	H	1.210739	-0.360060	-0.675111
H136	H	1.710739	0.139940	-0.175111
H137	H	1.289714	-0.281154	-0.675125
H138	H	1.789714	0.218846	-0.175125
H139	H	1.265523	-0.414845	-0.780222
H140	H	1.765523	0.085155	-0.280222
H141	H	1.344502	-0.335928	-0.780252
H142	H	1.844502	0.164072	-0.280252
