data_functionalizedCrystal
_audit_creation_method	'MofGen! by Chris Wilmer'
_symmetry_space_group_name_H-M	'P1'
_symmetry_Int_Tables_number	1
_symmetry_cell_setting	triclinic
loop_
_symmetry_equiv_pos_as_xyz
  x,y,z
_cell_length_a	10.540539
_cell_length_b	11.026607
_cell_length_c	9.483290
_cell_angle_alpha	98.124220
_cell_angle_beta	100.382227
_cell_angle_gamma	96.555754
loop_
_atom_site_label
_atom_site_type_symbol
_atom_site_fract_x
_atom_site_fract_y
_atom_site_fract_z
O1	O	-1.701791	-0.154306	0.120814
O2	O	-1.335912	-0.170448	0.120831
O3	O	-1.488529	0.014538	0.120819
O4	O	-1.549174	-0.339293	0.120826
O5	O	-1.531796	-0.019574	-0.120958
O6	O	-1.379179	-0.204561	-0.120946
O7	O	-1.745058	-0.188419	-0.120963
Cu8	Cu	-1.566069	-0.199605	-0.143030
Cu9	Cu	-1.514901	-0.159262	0.142899
O10	O	-1.592441	-0.373405	-0.120950
C11	C	-1.309976	-0.186294	-0.000055
C12	C	-1.168234	-0.182670	-0.000048
C13	C	-1.498973	0.042790	-0.000067
C14	C	-1.465619	0.177794	-0.000061
C15	C	-1.770993	-0.172573	-0.000074
C16	C	-1.912734	-0.176195	-0.000071
C17	C	-0.954505	-0.043946	-0.000616
C18	C	-1.101827	-0.047539	-0.000056
C19	C	-1.096099	-0.228222	0.138014
C20	C	-0.948526	-0.223596	0.138115
C21	C	-0.997842	-0.265138	-0.136831
C22	C	-1.145421	-0.266638	-0.138640
C23	C	-1.581996	-0.401657	-0.000061
C24	C	-1.615348	-0.536659	-0.000058
N25	N	-1.602067	-0.227978	-0.344137
C26	C	-1.557712	0.250801	-0.000063
C27	C	-1.523242	0.390335	-0.000056
C28	C	-1.525503	-0.167625	-0.416364
C29	C	-1.555487	-0.191241	-0.583771
N30	N	-1.478911	-0.130879	0.344006
H31	H	-1.150944	-0.010333	-0.099025
Br32	Br	-1.701741	-0.306522	-0.687254
H33	H	-0.975445	-0.236171	-0.241481
Br34	Br	-1.119937	-0.128770	0.309273
Br35	Br	-1.226605	-0.211336	-0.308879
H36	H	-1.719699	0.422567	0.000046
Br37	Br	-1.349279	0.458315	-0.000027
Br38	Br	-0.916898	0.021752	-0.165646
Br39	Br	-0.855375	0.067822	0.163475
H40	H	-1.391151	-0.061727	-0.593902
H41	H	-1.689809	-0.297139	-0.406237
H42	H	-0.891320	-0.160971	0.241316
Br43	Br	-1.123018	0.061319	0.165469
Br44	Br	-1.291663	0.245780	-0.000031
Br45	Br	-1.731662	0.182820	-0.000056
Br46	Br	-0.902176	-0.384098	0.148562
H47	H	-1.139269	-0.326735	0.143153
H48	H	-1.192718	-0.366334	-0.146974
H49	H	-0.972161	-0.362875	-0.137761
H50	H	-1.437751	-0.098476	-0.354265
