data_functionalizedCrystal
_audit_creation_method	'MofGen! by Chris Wilmer'
_symmetry_space_group_name_H-M	'P1'
_symmetry_Int_Tables_number	1
_symmetry_cell_setting	triclinic
loop_
_symmetry_equiv_pos_as_xyz
  x,y,z
_cell_length_a	12.594516
_cell_length_b	19.805407
_cell_length_c	19.805399
_cell_angle_alpha	90.016886
_cell_angle_beta	89.977796
_cell_angle_gamma	89.983947
loop_
_atom_site_label
_atom_site_type_symbol
_atom_site_fract_x
_atom_site_fract_y
_atom_site_fract_z
Zn1	Zn	-0.423752	-1.034766	-0.382752
Zn2	Zn	-0.601750	-1.034707	-0.269577
Zn3	Zn	-0.423786	-0.921586	-0.269576
Zn4	Zn	-0.601689	-0.921565	-0.382723
O5	O	-0.512744	-0.978156	-0.326157
O6	O	-0.447375	-1.129475	-0.367751
O7	O	-0.578182	-1.019685	-0.174860
O8	O	-0.274835	-0.936634	-0.284601
O9	O	-0.578149	-1.129431	-0.284602
O10	O	-0.274811	-1.019787	-0.367750
O11	O	-0.447433	-0.936576	-0.174860
O12	O	-0.447374	-0.826867	-0.284573
O13	O	-0.578046	-0.936597	-0.477444
O14	O	-0.578078	-0.826851	-0.367702
O15	O	-0.447316	-1.019766	-0.477464
O16	O	-0.750688	-1.019665	-0.284574
O17	O	-0.750643	-0.936540	-0.367703
C18	C	-0.512724	-0.802300	-0.326135
C19	C	-0.512741	-0.727068	-0.326142
C20	C	-0.789285	-0.978112	-0.326150
C21	C	-0.907590	-0.978155	-0.326170
C22	C	-0.512765	-1.154699	-0.326179
C23	C	-0.512774	-1.229931	-0.326189
C24	C	-0.976858	-0.932939	-0.371352
C25	C	-1.047717	-0.916453	-0.309590
C26	C	-1.047531	-0.994702	-0.387943
C27	C	-0.976891	-0.961636	-0.264375
C28	C	-0.976699	-1.039915	-0.342770
C29	C	-1.047526	-1.023452	-0.280965
C30	C	-0.235123	-0.978219	-0.326178
C31	C	-0.116818	-0.978246	-0.326188
C32	C	-0.512670	-0.978186	-0.502700
C33	C	-0.512639	-0.978199	-0.577932
C34	C	-0.580901	-0.691734	-0.369357
C35	C	-0.580903	-0.621045	-0.369366
C36	C	-0.512749	-0.585693	-0.326157
C37	C	-0.444581	-0.621032	-0.282940
C38	C	-0.444575	-0.691719	-0.282934
C39	C	-0.444605	-0.335959	-0.282962
C40	C	-0.444619	-0.265267	-0.282970
C41	C	-0.580933	-0.265285	-0.369394
C42	C	-0.580926	-0.335972	-0.369389
C43	C	-0.512755	-0.371305	-0.326175
C44	C	-0.512752	-0.447954	-0.326166
C45	C	-0.512756	-0.509046	-0.326162
C46	C	-0.444551	-0.934936	-0.613275
C47	C	-0.444530	-0.934945	-0.683964
C48	C	-0.512593	-0.978221	-0.719307
C49	C	-0.580688	-1.021486	-0.683959
C50	C	-0.580713	-1.021472	-0.613272
C51	C	-0.580588	-1.021539	-0.969033
C52	C	-0.580556	-1.021551	-1.039725
C53	C	-0.444406	-0.935012	-1.039724
C54	C	-0.444431	-0.934999	-0.969037
C55	C	-0.512529	-0.978261	-0.933695
C56	C	-0.512553	-0.978249	-0.857046
C57	C	-0.512565	-0.978237	-0.795955
C58	C	-0.512741	-0.978166	-0.150301
C59	C	-0.512472	-0.978284	-0.075069
H60	H	-0.945828	-0.894633	-0.409505
H61	H	-1.078359	-1.061729	-0.242720
H62	H	-0.389121	-0.899699	-0.584503
Cl63	Cl	-0.928500	-1.120469	-0.364471
Cl64	Cl	-0.666613	-0.380411	-0.423709
Cl65	Cl	-0.666259	-1.075886	-0.728391
H66	H	-0.945990	-0.947617	-0.212128
H67	H	-1.078560	-1.008662	-0.440176
H68	H	-0.636437	-0.236508	-0.404584
Cl69	Cl	-0.358931	-0.220824	-0.228646
Cl70	Cl	-0.358894	-0.576589	-0.228623
H71	H	-0.389103	-0.364719	-0.247769
H72	H	-0.636404	-0.720513	-0.404541
H73	H	-0.636407	-0.592279	-0.404556
Cl74	Cl	-0.358881	-0.736140	-0.228606
Cl75	Cl	-0.358798	-0.880622	-1.084159
Cl76	Cl	-0.358980	-0.880524	-0.728393
Cl77	Cl	-0.358860	-0.880595	-0.924609
Cl78	Cl	-0.666128	-1.075958	-1.084156
H79	H	-1.078934	-0.864266	-0.295564
H80	H	-0.636050	-1.056758	-0.940265
Cl81	Cl	-0.666318	-1.075859	-0.568840
