data_functionalizedCrystal
_audit_creation_method	'MofGen! by Chris Wilmer'
_symmetry_space_group_name_H-M	'P1'
_symmetry_Int_Tables_number	1
_symmetry_cell_setting	triclinic
loop_
_symmetry_equiv_pos_as_xyz
  x,y,z
_cell_length_a	10.723024
_cell_length_b	16.992695
_cell_length_c	16.053802
_cell_angle_alpha	87.258926
_cell_angle_beta	92.605405
_cell_angle_gamma	87.568046
loop_
_atom_site_label
_atom_site_type_symbol
_atom_site_fract_x
_atom_site_fract_y
_atom_site_fract_z
O1	O	-1.671600	-0.106759	-0.069425
O2	O	-1.171600	0.393241	0.430575
O3	O	-1.309355	-0.117291	-0.069428
O4	O	-0.809355	0.382709	0.430572
O5	O	-1.489025	0.002125	-0.069420
O6	O	-0.989025	0.502125	0.430580
O7	O	-1.491930	-0.226175	-0.069433
O8	O	-0.991930	0.273825	0.430567
O9	O	-1.479133	-0.004420	0.069439
O10	O	-0.979133	0.495580	0.569439
O11	O	-1.299463	-0.123837	0.069431
O12	O	-0.799463	0.376163	0.569431
O13	O	-1.661708	-0.113305	0.069434
O14	O	-1.161708	0.386695	0.569434
Zn15	Zn	-1.479015	-0.119610	0.091479
Zn16	Zn	-0.979015	0.380390	0.591479
Zn17	Zn	-1.492048	-0.110986	-0.091473
Zn18	Zn	-0.992048	0.389014	0.408527
O19	O	-1.482038	-0.232721	0.069426
O20	O	-0.982038	0.267279	0.569426
C21	C	-1.257843	-0.119797	0.000001
C22	C	-0.757843	0.380203	0.500001
C23	C	-1.119092	-0.117504	0.000000
C24	C	-0.619092	0.382496	0.500000
C25	C	-1.480343	0.028085	0.000009
C26	C	-0.980343	0.528085	0.500009
C27	C	-1.469195	0.115189	0.000009
C28	C	-0.969195	0.615189	0.500009
C29	C	-1.713220	-0.110798	0.000003
C30	C	-1.213220	0.389202	0.500003
C31	C	-1.851972	-0.113091	-0.000002
C32	C	-1.351972	0.386909	0.499998
C33	C	-1.049863	-0.184323	-0.000004
C34	C	-0.549863	0.315677	0.499996
C35	C	-0.906455	-0.181955	-0.000005
C36	C	-0.406455	0.318045	0.499995
C37	C	-1.490720	-0.258680	-0.000005
C38	C	-0.990720	0.241320	0.499995
C39	C	-1.501869	-0.345784	-0.000011
C40	C	-1.001869	0.154216	0.499989
N41	N	-1.470129	-0.125495	0.216339
N42	N	-0.970129	0.374505	0.716339
C43	C	-1.576755	0.164851	0.000011
C44	C	-1.076755	0.664851	0.500011
C45	C	-1.566274	0.246694	0.000003
C46	C	-1.066274	0.746694	0.500003
C47	C	-1.448231	0.278874	-0.000001
C48	C	-0.948231	0.778874	0.499999
C49	C	-1.340663	0.229206	-0.000005
C50	C	-0.840663	0.729206	0.499995
C51	C	-1.351146	0.147364	-0.000003
C52	C	-0.851146	0.647364	0.499997
C53	C	-1.404783	0.522706	-0.000013
C54	C	-0.904783	1.022706	0.499987
C55	C	-1.394308	0.604554	-0.000012
C56	C	-0.894308	1.104554	0.499988
C57	C	-1.619921	0.622037	-0.000006
C58	C	-1.119921	1.122037	0.499994
C59	C	-1.630393	0.540193	0.000001
C60	C	-1.130393	1.040193	0.500001
C61	C	-1.522825	0.490532	-0.000007
C62	C	-1.022825	0.990532	0.499993
N63	N	-1.437514	0.362531	-0.000006
N64	N	-0.937514	0.862531	0.499994
N65	N	-1.533543	0.406877	-0.000008
N66	N	-1.033543	0.906877	0.499992
N67	N	-1.500943	-0.105094	-0.216333
N68	N	-1.000943	0.394906	0.283667
C69	C	-1.546610	-0.074702	0.260036
C70	C	-1.046610	0.425298	0.760036
C71	C	-1.540407	-0.078826	0.347443
C72	C	-1.040407	0.421174	0.847443
C73	C	-1.457727	-0.133748	0.391150
C74	C	-0.957727	0.366252	0.891150
C75	C	-1.381238	-0.184544	0.347447
C76	C	-0.881238	0.315456	0.847447
C77	C	-1.387435	-0.180415	0.260042
C78	C	-0.887435	0.319585	0.760042
C79	C	-1.430651	-0.151761	0.652559
C80	C	-0.930651	0.348239	1.152559
C81	C	-1.424462	-0.155887	0.739970
C82	C	-0.924462	0.344113	1.239970
C83	C	-1.583630	-0.050168	0.739960
C84	C	-1.083630	0.449832	1.239960
C85	C	-1.589826	-0.046048	0.652553
C86	C	-1.089826	0.453952	1.152553
C87	C	-1.513332	-0.096840	0.608857
C88	C	-1.013332	0.403160	1.108857
N89	N	-1.451387	-0.137967	0.480494
N90	N	-0.951387	0.362033	0.980494
N91	N	-1.519666	-0.092617	0.519515
N92	N	-1.019666	0.407383	1.019515
H93	H	-1.096761	-0.243283	-0.000003
H94	H	-0.596761	0.256717	0.499997
H95	H	-0.846949	-0.239157	-0.000012
H96	H	-0.346949	0.260843	0.499988
H97	H	-0.911471	-0.055885	-0.000003
H98	H	-0.411471	0.444115	0.499997
F99	F	-1.268665	0.638799	-0.000012
F100	F	-0.768665	1.138799	0.499988
H101	H	-1.657150	-0.001326	0.616968
H102	H	-1.157150	0.498674	1.116968
H103	H	-1.072194	-0.058543	-0.000018
H104	H	-0.572194	0.441457	0.499982
F105	F	-1.290299	0.469864	-0.000024
F106	F	-0.790299	0.969864	0.499976
F107	F	-1.702393	0.130611	0.000023
F108	F	-1.202393	0.630611	0.500023
F109	F	-1.680755	0.299545	0.000006
F110	F	-1.180755	0.799545	0.500006
H111	H	-1.244550	0.255413	-0.000014
H112	H	-0.744550	0.755413	0.499986
H113	H	-1.263558	0.106930	-0.000005
H114	H	-0.763558	0.606930	0.499995
H115	H	-1.613942	-0.029982	0.224455
H116	H	-1.113942	0.470018	0.724455
F117	F	-1.306029	-0.234475	0.213537
F118	F	-0.806029	0.265525	0.713537
F119	F	-1.756032	0.505952	-0.000016
F120	F	-1.256032	1.005952	0.499984
F121	F	-1.734393	0.674894	0.000002
F122	F	-1.234393	1.174894	0.500002
H123	H	-1.602683	-0.037466	0.383021
H124	H	-1.102683	0.462534	0.883021
F125	F	-1.665033	0.003887	0.786469
F126	F	-1.165033	0.503887	1.286469
F127	F	-1.349245	-0.205820	0.606061
F128	F	-0.849245	0.294180	1.106061
F129	F	-1.336459	-0.214348	0.786481
F130	F	-0.836459	0.285652	1.286481
F131	F	-1.293236	-0.242993	0.393964
F132	F	-0.793236	0.257007	0.893964
