data_functionalizedCrystal
_audit_creation_method	'MofGen! by Chris Wilmer'
_symmetry_space_group_name_H-M	'P1'
_symmetry_Int_Tables_number	1
_symmetry_cell_setting	triclinic
loop_
_symmetry_equiv_pos_as_xyz
  x,y,z
_cell_length_a	14.519709
_cell_length_b	7.681187
_cell_length_c	14.519709
_cell_angle_alpha	84.259711
_cell_angle_beta	83.680145
_cell_angle_gamma	95.736717
loop_
_atom_site_label
_atom_site_type_symbol
_atom_site_fract_x
_atom_site_fract_y
_atom_site_fract_z
O1	O	1.232558	0.146207	0.112191
O2	O	1.565891	0.479540	0.445524
O3	O	1.899225	0.812874	0.778858
O4	O	0.964084	0.146261	0.126424
O5	O	1.297418	0.479594	0.459758
O6	O	1.630751	0.812928	0.793091
O7	O	1.105438	0.146217	-0.014930
O8	O	1.438772	0.479550	0.318403
O9	O	1.772105	0.812883	0.651737
O10	O	1.091204	0.146251	0.253545
O11	O	1.424537	0.479585	0.586878
O12	O	1.757871	0.812918	0.920212
O13	O	1.088018	-0.146648	0.002493
O14	O	1.421352	0.186685	0.335827
O15	O	1.754685	0.520019	0.669160
O16	O	0.946664	-0.146604	0.143847
O17	O	1.279998	0.186730	0.477181
O18	O	1.613331	0.520063	0.810514
O19	O	1.215138	-0.146658	0.129614
O20	O	1.548471	0.186675	0.462947
O21	O	1.881805	0.520009	0.796281
Zn22	Zn	1.078135	-0.193129	0.139497
Zn23	Zn	1.411469	0.140204	0.472830
Zn24	Zn	1.744802	0.473537	0.806164
Zn25	Zn	1.101087	0.192733	0.116541
Zn26	Zn	1.434420	0.526066	0.449875
Zn27	Zn	1.767754	0.859399	0.783208
O28	O	1.073784	-0.146614	0.270968
O29	O	1.407117	0.186720	0.604301
O30	O	1.740450	0.520053	0.937635
C31	C	0.921015	-0.000164	0.134472
C32	C	1.254348	0.333169	0.467805
C33	C	1.587682	0.666502	0.801138
C34	C	0.818635	-0.000144	0.132482
C35	C	1.151968	0.333189	0.465816
C36	C	1.485302	0.666522	0.799149
N37	N	1.062478	-0.456470	0.155163
N38	N	1.395811	-0.123137	0.488496
N39	N	1.729145	0.210197	0.821830
C40	C	1.096065	-0.000216	-0.040578
C41	C	1.429398	0.333117	0.292755
C42	C	1.762732	0.666451	0.626089
C43	C	1.094077	-0.000216	-0.142959
C44	C	1.427410	0.333117	0.190374
C45	C	1.760743	0.666450	0.523707
C46	C	0.443734	-0.000225	0.125168
C47	C	0.777068	0.333108	0.458501
C48	C	1.110401	0.666441	0.791834
C49	C	0.548044	-0.000202	0.127199
C50	C	0.881377	0.333131	0.460532
C51	C	1.214710	0.666464	0.793866
C52	C	0.631181	-0.000183	0.128825
C53	C	0.964515	0.333150	0.462158
C54	C	1.297848	0.666484	0.795491
C55	C	0.735497	-0.000163	0.130857
C56	C	1.068830	0.333170	0.464190
C57	C	1.402164	0.666503	0.797523
C58	C	1.258208	-0.000228	0.121566
C59	C	1.591541	0.333105	0.454899
C60	C	1.924874	0.666438	0.788233
C61	C	1.360588	-0.000237	0.123555
C62	C	1.693922	0.333096	0.456888
C63	C	2.027255	0.666430	0.790221
N64	N	1.116752	0.456073	0.100868
N65	N	1.450085	0.789407	0.434201
N66	N	1.783418	1.122740	0.767534
C67	C	1.086760	-0.000169	-0.517858
C68	C	1.420093	0.333164	-0.184525
C69	C	1.753427	0.666497	0.148809
C70	C	1.088792	-0.000183	-0.413549
C71	C	1.422125	0.333150	-0.080216
C72	C	1.755458	0.666484	0.253117
C73	C	1.090418	-0.000194	-0.330412
C74	C	1.423751	0.333139	0.002921
C75	C	1.757085	0.666472	0.336255
C76	C	1.092450	-0.000205	-0.226097
C77	C	1.425784	0.333128	0.107237
C78	C	1.759117	0.666462	0.440570
C79	C	1.083158	-0.000177	0.296616
C80	C	1.416491	0.333156	0.629949
C81	C	1.749824	0.666490	0.963283
C82	C	1.085147	-0.000165	0.398997
C83	C	1.418480	0.333168	0.732330
C84	C	1.751813	0.666502	1.065663
H85	H	1.172129	-0.468698	0.045450
H86	H	1.505462	-0.135365	0.378783
H87	H	1.838795	0.197968	0.712116
H88	H	1.007098	-0.531689	0.210571
H89	H	1.340431	-0.198356	0.543904
H90	H	1.673765	0.134977	0.877238
