data_functionalizedCrystal
_audit_creation_method	'MofGen! by Chris Wilmer'
_symmetry_space_group_name_H-M	'P1'
_symmetry_Int_Tables_number	1
_symmetry_cell_setting	triclinic
loop_
_symmetry_equiv_pos_as_xyz
  x,y,z
_cell_length_a	16.109301
_cell_length_b	10.489741
_cell_length_c	14.586319
_cell_angle_alpha	89.996488
_cell_angle_beta	89.998857
_cell_angle_gamma	84.000379
loop_
_atom_site_label
_atom_site_type_symbol
_atom_site_fract_x
_atom_site_fract_y
_atom_site_fract_z
O1	O	1.104141	0.163948	-0.076189
O2	O	0.862205	0.184351	-0.076202
O3	O	0.988678	-0.011528	-0.076190
O4	O	0.977668	0.359827	-0.076202
O5	O	0.988669	-0.011531	0.076291
O6	O	0.862196	0.184348	0.076279
O7	O	1.104132	0.163946	0.076291
Cu8	Cu	0.983163	0.174147	0.090208
Cu9	Cu	0.983174	0.174150	-0.090119
O10	O	0.977659	0.359825	0.076279
C11	C	0.831221	0.183523	0.000037
C12	C	0.738910	0.181045	0.000032
C13	C	0.430578	0.289176	0.000044
C14	C	0.517313	0.291516	0.000039
C15	C	0.535754	0.059112	0.000034
C16	C	0.449021	0.056773	0.000033
C17	C	0.396435	0.171809	0.000043
C18	C	0.569903	0.176488	0.000038
C19	C	0.663944	0.179024	0.000033
C20	C	0.302387	0.169273	0.000047
C21	C	0.987842	-0.059049	0.000050
C22	C	0.985354	-0.200642	0.000048
C23	C	0.904883	-0.267615	0.000037
C24	C	0.942893	-0.360291	0.075220
C25	C	0.942920	-0.360263	-0.075114
C26	C	1.023397	-0.291453	0.075293
C27	C	1.023414	-0.291415	-0.075109
C28	C	1.061481	-0.384064	0.000093
C29	C	1.135117	0.164773	0.000051
C30	C	1.227427	0.167251	0.000049
C31	C	0.978495	0.407346	0.000037
C32	C	0.980983	0.548939	0.000033
N33	N	0.983162	0.174143	0.217039
N34	N	0.983182	0.174143	-0.216950
C35	C	1.039183	0.087437	0.452051
C36	C	1.039186	0.087434	0.548033
C37	C	0.927155	0.260853	0.548031
C38	C	0.927149	0.260849	0.452052
C39	C	0.983168	0.174143	0.404064
C40	C	0.983176	0.174144	0.596025
C41	C	0.983178	0.174141	0.700092
C42	C	0.983165	0.174143	0.299990
H43	H	0.545108	0.387087	0.000040
N44	N	0.897786	-0.400704	0.159412
H45	H	0.847832	-0.445014	0.140234
H46	H	0.936846	-0.461502	0.197042
H47	H	0.881530	0.331456	0.412978
N48	N	1.068459	-0.251284	0.159582
H49	H	1.069841	-0.155247	0.159081
H50	H	1.038261	-0.277000	0.216249
N51	N	1.068489	-0.250944	-0.159298
H52	H	1.038045	-0.275683	-0.216063
H53	H	1.070302	-0.155005	-0.158264
H54	H	0.578579	-0.034546	0.000028
H55	H	0.908865	-0.390731	-0.138682
H56	H	1.127704	-0.434449	0.000138
H57	H	0.421221	-0.038807	0.000028
N58	N	0.817245	-0.200573	0.000121
H59	H	0.786955	-0.225429	0.056964
H60	H	0.819613	-0.104744	-0.000495
H61	H	1.084796	0.016834	0.412982
N62	N	1.099614	-0.006066	0.599791
H63	H	1.135102	-0.060984	0.554824
H64	H	1.136654	0.042805	0.639601
N65	N	0.866737	0.354369	0.599789
H66	H	0.875240	0.341219	0.667874
H67	H	0.876879	0.444858	0.583004
H68	H	0.387765	0.382845	0.000052
