data_functionalizedCrystal
_audit_creation_method	'MofGen! by Chris Wilmer'
_symmetry_space_group_name_H-M	'P1'
_symmetry_Int_Tables_number	1
_symmetry_cell_setting	triclinic
loop_
_symmetry_equiv_pos_as_xyz
  x,y,z
_cell_length_a	19.188930
_cell_length_b	11.792241
_cell_length_c	10.868271
_cell_angle_alpha	90.000107
_cell_angle_beta	89.989749
_cell_angle_gamma	96.330901
loop_
_atom_site_label
_atom_site_type_symbol
_atom_site_fract_x
_atom_site_fract_y
_atom_site_fract_z
O1	O	0.095695	-1.505476	-0.102218
O2	O	0.429028	-1.172143	0.231115
O3	O	0.762362	-0.838809	0.564449
O4	O	0.105557	-1.174987	-0.102248
O5	O	0.438891	-0.841654	0.231085
O6	O	0.772224	-0.508321	0.564418
O7	O	-0.000975	-1.349769	-0.102208
O8	O	0.332358	-1.016436	0.231125
O9	O	0.665691	-0.683102	0.564459
O10	O	0.202228	-1.330695	-0.102258
O11	O	0.535561	-0.997361	0.231075
O12	O	0.868895	-0.664028	0.564409
O13	O	-0.000980	-1.349755	0.102437
O14	O	0.332354	-1.016421	0.435770
O15	O	0.665687	-0.683088	0.769103
O16	O	0.105553	-1.174973	0.102396
O17	O	0.438887	-0.841640	0.435730
O18	O	0.772220	-0.508306	0.769063
O19	O	0.095691	-1.505462	0.102427
O20	O	0.429024	-1.172128	0.435760
O21	O	0.762358	-0.838795	0.769093
Zn22	Zn	0.100621	-1.340215	0.134903
Zn23	Zn	0.433955	-1.006882	0.468237
Zn24	Zn	0.767288	-0.673548	0.801570
Zn25	Zn	0.100627	-1.340234	-0.134725
Zn26	Zn	0.433960	-1.006901	0.198609
Zn27	Zn	0.767294	-0.673567	0.531942
O28	O	0.202224	-1.330680	0.102387
O29	O	0.535557	-0.997347	0.435720
O30	O	0.868890	-0.664014	0.769053
C31	C	-0.026992	-1.349144	0.000118
C32	C	0.306341	-1.015811	0.333451
C33	C	0.639675	-0.682477	0.666784
C34	C	-0.104507	-1.347290	0.000128
C35	C	0.228826	-1.013956	0.333461
C36	C	0.562160	-0.680623	0.666795
C37	C	0.104936	-1.132699	0.000071
C38	C	0.438269	-0.799365	0.333404
C39	C	0.771603	-0.466032	0.666737
C40	C	0.103082	-1.006713	0.000060
C41	C	0.436415	-0.673379	0.333394
C42	C	0.769748	-0.340046	0.666727
N43	N	0.100617	-1.340211	0.318917
N44	N	0.433951	-1.006877	0.652251
N45	N	0.767284	-0.673544	0.985584
C46	C	-0.148850	-1.449846	0.000143
C47	C	0.184483	-1.116513	0.333477
C48	C	0.517817	-0.783179	0.666810
C49	C	-0.221684	-1.448104	0.000123
C50	C	0.111650	-1.114771	0.333457
C51	C	0.444983	-0.781437	0.666790
C52	C	-0.250171	-1.343800	0.000113
C53	C	0.083162	-1.010467	0.333446
C54	C	0.416496	-0.677133	0.666780
C55	C	-0.205818	-1.241230	0.000091
C56	C	0.127515	-0.907897	0.333424
C57	C	0.460848	-0.574564	0.666758
C58	C	-0.132986	-1.242975	0.000098
C59	C	0.200347	-0.909642	0.333432
C60	C	0.533681	-0.576309	0.666765
N61	N	-0.358629	-1.264067	0.069750
N62	N	-0.025296	-0.930734	0.403084
N63	N	0.308038	-0.597400	0.736417
N64	N	-0.427817	-1.262417	0.069746
N65	N	-0.094484	-0.929083	0.403079
N66	N	0.238850	-0.595750	0.736412
C67	C	-0.469609	-1.338536	0.000088
C68	C	-0.136276	-1.005203	0.333421
C69	C	0.197057	-0.671870	0.666754
N70	N	-0.439602	-1.416386	-0.069550
N71	N	-0.106268	-1.083053	0.263783
N72	N	0.227065	-0.749720	0.597116
N73	N	-0.370408	-1.418040	-0.069540
N74	N	-0.037074	-1.084707	0.263793
N75	N	0.296259	-0.751374	0.597126
C76	C	-0.329144	-1.341896	0.000104
C77	C	0.004189	-1.008563	0.333437
C78	C	0.337522	-0.675230	0.666771
C79	C	-0.592928	-1.439211	0.000080
C80	C	-0.259594	-1.105877	0.333413
C81	C	0.073739	-0.772544	0.666746
C82	C	-0.665762	-1.437464	0.000052
C83	C	-0.332429	-1.104131	0.333385
C84	C	0.000904	-0.770798	0.666719
C85	C	-0.649895	-1.230588	0.000032
C86	C	-0.316562	-0.897254	0.333365
C87	C	0.016771	-0.563921	0.666699
C88	C	-0.577062	-1.232337	0.000047
C89	C	-0.243729	-0.899004	0.333380
C90	C	0.089604	-0.565670	0.666714
C91	C	-0.548583	-1.336652	0.000077
C92	C	-0.215250	-1.003318	0.333410
C93	C	0.118084	-0.669985	0.666743
C94	C	0.228240	-1.331305	0.000058
C95	C	0.561574	-0.997972	0.333391
C96	C	0.894907	-0.664638	0.666725
C97	C	0.305755	-1.333159	0.000040
C98	C	0.639089	-0.999826	0.333373
C99	C	0.972422	-0.666493	0.666706
C100	C	0.096313	-1.547751	0.000105
C101	C	0.429646	-1.214417	0.333439
C102	C	0.762979	-0.881084	0.666772
C103	C	0.098167	-1.673737	0.000108
C104	C	0.431500	-1.340403	0.333441
C105	C	0.764833	-1.007070	0.666774
C106	C	0.099672	-0.776051	0.000096
C107	C	0.433005	-0.442718	0.333430
C108	C	0.766339	-0.109385	0.666763
C109	C	0.101566	-0.904408	0.000076
C110	C	0.434900	-0.571075	0.333410
C111	C	0.768233	-0.237742	0.666743
N112	N	0.100626	-1.340248	-0.318739
N113	N	0.433959	-1.006914	0.014594
N114	N	0.767292	-0.673581	0.347928
C115	C	0.100625	-1.340228	0.569923
C116	C	0.433959	-1.006895	0.903257
C117	C	0.767292	-0.673561	1.236590
C118	C	0.100623	-1.340215	0.430246
C119	C	0.433956	-1.006881	0.763579
C120	C	0.767290	-0.673548	1.096913
H121	H	-0.125667	-1.534787	0.000163
H122	H	0.207666	-1.201453	0.333497
H123	H	0.540999	-0.868120	0.666830
H124	H	-0.569739	-1.524150	0.000098
H125	H	-0.236405	-1.190816	0.333432
H126	H	0.096928	-0.857483	0.666765
F127	F	-0.712956	-1.546625	0.000060
F128	F	-0.379623	-1.213291	0.333394
F129	F	-0.046290	-0.879958	0.666727
H130	H	-0.257795	-1.531620	0.000131
H131	H	0.075539	-1.198287	0.333464
H132	H	0.408872	-0.864953	0.666798
F133	F	-0.085791	-1.133816	0.000082
F134	F	0.247542	-0.800483	0.333415
F135	F	0.580876	-0.467149	0.666748
F136	F	-0.680209	-1.119579	0.000015
F137	F	-0.346875	-0.786245	0.333348
F138	F	-0.013542	-0.452912	0.666681
H139	H	-0.540957	-1.148825	0.000042
H140	H	-0.207624	-0.815491	0.333375
H141	H	0.125710	-0.482158	0.666708
F142	F	-0.236137	-1.130223	0.000072
F143	F	0.097196	-0.796889	0.333405
F144	F	0.430529	-0.463556	0.666738
