data_functionalizedCrystal
_audit_creation_method	'MofGen! by Chris Wilmer'
_symmetry_space_group_name_H-M	'P1'
_symmetry_Int_Tables_number	1
_symmetry_cell_setting	triclinic
loop_
_symmetry_equiv_pos_as_xyz
  x,y,z
_cell_length_a	10.268362
_cell_length_b	10.654550
_cell_length_c	10.654550
_cell_angle_alpha	95.515069
_cell_angle_beta	89.999325
_cell_angle_gamma	90.001852
loop_
_atom_site_label
_atom_site_type_symbol
_atom_site_fract_x
_atom_site_fract_y
_atom_site_fract_z
O1	O	-0.108203	-1.667843	0.176392
O2	O	-0.108227	-1.302365	0.193198
O3	O	-0.108206	-1.493507	0.002056
O4	O	-0.108223	-1.476701	0.367534
O5	O	0.108395	-1.493486	0.002064
O6	O	0.108374	-1.302344	0.193206
O7	O	0.108398	-1.667823	0.176400
Cu8	Cu	0.128163	-1.485082	0.184804
Cu9	Cu	-0.127992	-1.485106	0.184794
O10	O	0.108377	-1.476680	0.367543
C11	C	0.000071	-1.255556	0.191968
C12	C	0.000062	-1.116113	0.188276
C13	C	0.000094	-1.492263	-0.044738
C14	C	0.000091	-1.488571	-0.184181
N15	N	0.308329	-1.485074	0.184810
C16	C	0.426172	-1.485082	0.184812
C17	C	0.574010	-1.485096	0.184802
N18	N	0.691842	-1.485115	0.184787
C19	C	0.000098	-1.714631	0.177630
C20	C	0.000098	-1.854074	0.181322
C21	C	0.000060	-1.036628	0.300818
C22	C	0.000083	-0.905607	0.297341
C23	C	0.000104	-0.933570	0.068772
C24	C	0.000090	-1.064588	0.072250
C25	C	0.000098	-1.601112	-0.263667
C26	C	0.000082	-1.597636	-0.394688
C27	C	0.000058	-1.369066	-0.366725
C28	C	0.000065	-1.372544	-0.235706
C29	C	0.000075	-1.477925	0.414336
C30	C	0.000069	-1.481616	0.553779
H31	H	0.000047	-1.078574	0.395294
H32	H	0.000117	-1.695588	-0.221720
H33	H	0.000084	-0.840894	0.388984
O34	O	0.000151	-1.707077	-0.471720
C35	C	0.000104	-1.934153	-0.485620
C36	C	0.000060	-1.810301	-0.398238
H37	H	0.000003	-2.017642	-0.426245
H38	H	0.090767	-1.938314	-0.547642
H39	H	-0.090527	-1.938185	-0.547676
H40	H	0.090629	-1.806187	-0.336103
H41	H	-0.090663	-1.806191	-0.336301
H42	H	0.000055	-1.280893	-0.170985
H43	H	0.000135	-0.891602	-0.025693
O44	O	0.000032	-1.141630	-0.037198
C45	C	0.000134	-1.155550	-0.264275
C46	C	0.000163	-1.068158	-0.140430
H47	H	0.000267	-1.096184	-0.347770
H48	H	-0.090538	-1.217562	-0.268453
H49	H	0.090756	-1.217617	-0.268279
H50	H	-0.090398	-1.006012	-0.136344
H51	H	0.090895	-1.006232	-0.136304
H52	H	0.000038	-1.274601	-0.408693
