data_functionalizedCrystal
_audit_creation_method	'MofGen! by Chris Wilmer'
_symmetry_space_group_name_H-M	'P1'
_symmetry_Int_Tables_number	1
_symmetry_cell_setting	triclinic
loop_
_symmetry_equiv_pos_as_xyz
  x,y,z
_cell_length_a	17.038272
_cell_length_b	10.654550
_cell_length_c	9.130313
_cell_angle_alpha	90.003780
_cell_angle_beta	89.998262
_cell_angle_gamma	92.201771
loop_
_atom_site_label
_atom_site_type_symbol
_atom_site_fract_x
_atom_site_fract_y
_atom_site_fract_z
O1	O	0.109874	-1.678036	-0.121922
O2	O	0.120343	-1.313530	-0.121899
O3	O	0.001281	-1.493617	-0.121899
O4	O	0.228936	-1.497950	-0.121923
O5	O	0.001284	-1.493615	0.121700
O6	O	0.120346	-1.313528	0.121700
O7	O	0.109878	-1.678034	0.121676
Cu8	Cu	0.115112	-1.495781	0.143931
Cu9	Cu	0.115108	-1.495783	-0.144153
O10	O	0.228939	-1.497948	0.121676
C11	C	0.119576	-1.266660	-0.000097
C12	C	0.117276	-1.127003	-0.000087
C13	C	-0.027867	-1.489675	-0.000100
C14	C	-0.114726	-1.477918	-0.000099
C15	C	0.110645	-1.724905	-0.000129
C16	C	0.112944	-1.864562	-0.000148
C17	C	-0.164237	-1.585862	-0.000105
C18	C	-0.245850	-1.574808	-0.000118
C19	C	-0.277949	-1.455808	-0.000115
C20	C	-0.228431	-1.347856	-0.000114
C21	C	-0.146821	-1.358911	-0.000111
C22	C	-0.523925	-1.416750	-0.000133
C23	C	-0.605542	-1.405702	-0.000131
C24	C	-0.622955	-1.632656	-0.000137
C25	C	-0.541342	-1.643701	-0.000126
C26	C	-0.491831	-1.535749	-0.000133
C27	C	-0.361370	-1.444505	-0.000124
C28	C	-0.408412	-1.547052	-0.000134
C29	C	0.258088	-1.501889	-0.000126
C30	C	0.344947	-1.513646	-0.000136
N31	N	0.115114	-1.495788	0.346553
C32	C	0.187378	-1.054026	-0.000116
C33	C	0.185212	-0.922804	-0.000141
C34	C	0.042837	-0.937548	-0.000115
C35	C	0.045004	-1.068767	-0.000080
C36	C	0.259650	-1.112262	-0.000124
C37	C	0.329758	-1.039285	-0.000154
C38	C	0.327592	-0.908063	-0.000179
C39	C	0.255319	-0.849818	-0.000174
N40	N	0.115100	-1.495785	-0.346776
C41	C	0.062412	-1.575554	0.423205
C42	C	0.062403	-1.575550	0.576542
C43	C	0.167805	-1.416010	0.576561
C44	C	0.167810	-1.416009	0.423227
C45	C	0.009716	-1.655334	0.346531
C46	C	-0.042990	-1.735107	0.423183
C47	C	-0.042999	-1.735103	0.576520
C48	C	0.009698	-1.655325	0.653205
H49	H	-0.138109	-1.682764	-0.000098
H50	H	0.009680	-1.655319	0.778062
H51	H	-0.016004	-0.890114	-0.000135
O52	O	0.224649	-1.329982	0.659261
H53	H	0.215797	-1.343395	0.778761
O54	O	-0.640157	-1.277339	-0.000130
H55	H	-0.676914	-1.266867	0.099169
O56	O	0.224656	-1.329986	0.340535
H57	H	0.261307	-1.274526	0.419609
O58	O	0.261988	-1.253793	-0.000091
H59	H	0.231830	-1.291548	0.099208
O60	O	0.009716	-1.655329	0.181148
H61	H	0.022773	-1.750532	0.140708
H62	H	0.253562	-0.742968	-0.000172
O63	O	-0.373789	-1.675395	-0.000138
H64	H	-0.393618	-1.727691	-0.099432
H65	H	-0.012079	-1.128187	-0.000060
O66	O	-0.099846	-1.821145	0.659185
H67	H	-0.138189	-1.764203	0.729033
O68	O	-0.299254	-1.691231	-0.000099
H69	H	-0.263223	-1.775836	-0.000074
O70	O	-0.506719	-1.772050	-0.000164
H71	H	-0.554859	-1.845256	-0.000192
O72	O	0.407708	-1.102092	-0.000145
H73	H	0.412105	-1.161535	-0.099426
O74	O	-0.099845	-1.821119	0.340487
H75	H	-0.090987	-1.807722	0.220986
H76	H	-0.663275	-1.720544	-0.000135
H77	H	-0.254573	-1.250963	-0.000121
O78	O	-0.470529	-1.300322	-0.000103
H79	H	-0.506563	-1.215721	-0.000075
H80	H	-0.106509	-1.271011	-0.000107
H81	H	0.384677	-0.848648	-0.000189
O82	O	-0.395997	-1.316160	-0.000090
H83	H	-0.432766	-1.305696	-0.099369
