data_functionalizedCrystal
_audit_creation_method	'MofGen! by Chris Wilmer'
_symmetry_space_group_name_H-M	'P1'
_symmetry_Int_Tables_number	1
_symmetry_cell_setting	triclinic
loop_
_symmetry_equiv_pos_as_xyz
  x,y,z
_cell_length_a	11.792241
_cell_length_b	14.421503
_cell_length_c	11.792241
_cell_angle_alpha	89.995827
_cell_angle_beta	84.193416
_cell_angle_gamma	90.003481
loop_
_atom_site_label
_atom_site_type_symbol
_atom_site_fract_x
_atom_site_fract_y
_atom_site_fract_z
O1	O	1.506916	0.077022	0.155552
O2	O	2.006916	0.577022	0.655552
O3	O	1.176575	0.077044	0.171585
O4	O	1.676575	0.577044	0.671585
O5	O	1.349761	0.077026	-0.001602
O6	O	1.849761	0.577026	0.498398
O7	O	1.333729	0.077040	0.328739
O8	O	1.833729	0.577040	0.828739
O9	O	1.349733	-0.077198	-0.001576
O10	O	1.849733	0.422802	0.498424
O11	O	1.176546	-0.077180	0.171611
O12	O	1.676546	0.422820	0.671611
O13	O	1.506887	-0.077201	0.155578
O14	O	2.006887	0.422799	0.655578
Cu15	Cu	1.341714	-0.091272	0.163597
Cu16	Cu	1.841714	0.408728	0.663597
Cu17	Cu	1.341748	0.091115	0.163566
Cu18	Cu	1.841748	0.591115	0.663566
O19	O	1.333700	-0.077184	0.328765
O20	O	1.833700	0.422816	0.828765
C21	C	1.134269	-0.000065	0.170591
C22	C	1.634269	0.499935	0.670591
C23	C	1.008255	-0.000057	0.167576
C24	C	1.508255	0.499943	0.667576
N25	N	1.341698	-0.219554	0.163618
N26	N	1.841698	0.280446	0.663618
C27	C	0.777543	-0.000084	0.162034
C28	C	1.277543	0.499916	0.662034
C29	C	0.905928	-0.000069	0.165113
C30	C	1.405928	0.499931	0.665113
C31	C	1.261602	-0.469199	0.243663
C32	C	1.761602	0.030801	0.743663
C33	C	1.364297	-0.531008	0.266324
C34	C	1.864297	-0.031008	0.766324
C35	C	1.341726	-0.408715	0.163591
C36	C	1.841726	0.091285	0.663591
C37	C	1.239057	-0.531001	0.140956
C38	C	1.739057	-0.031001	0.640956
C39	C	1.341743	-0.591437	0.163567
C40	C	1.841743	-0.091437	0.663567
C41	C	1.444473	-0.469163	0.186303
C42	C	1.944473	0.030837	0.686303
C43	C	1.319165	-0.469150	0.060891
C44	C	1.819165	0.030850	0.560891
C45	C	1.421934	-0.530931	0.083508
C46	C	1.921934	-0.030931	0.583508
C47	C	1.341714	-0.303454	0.163607
C48	C	1.841714	0.196546	0.663607
C49	C	1.341766	-0.696695	0.163550
C50	C	1.841766	-0.196695	0.663550
C51	C	1.549192	-0.000090	0.156572
C52	C	2.049192	0.499910	0.656572
C53	C	1.675206	-0.000092	0.159587
C54	C	2.175206	0.499908	0.659587
C55	C	1.348740	-0.000086	-0.043880
C56	C	1.848740	0.499914	0.456120
C57	C	1.345726	-0.000084	-0.169894
C58	C	1.845726	0.499916	0.330106
N59	N	1.341772	0.219396	0.163537
N60	N	1.841772	0.719396	0.663537
C61	C	1.340183	-0.000069	-0.400606
C62	C	1.840183	0.499931	0.099394
C63	C	1.343262	-0.000077	-0.272221
C64	C	1.843262	0.499923	0.227779
C65	C	1.334721	-0.000070	0.371043
C66	C	1.834721	0.499930	0.871043
C67	C	1.337736	-0.000065	0.497057
C68	C	1.837736	0.499935	0.997057
H69	H	1.193914	-0.442094	0.311433
H70	H	1.693914	0.057906	0.811433
H71	H	1.383396	-0.558178	0.353165
H72	H	1.883396	-0.058178	0.853165
H73	H	1.300034	-0.441959	-0.025923
H74	H	1.800034	0.058041	0.474077
F75	F	1.510602	-0.566142	-0.005016
F76	F	2.010602	-0.066142	0.494984
H77	H	1.152225	-0.558166	0.121823
H78	H	1.652225	-0.058166	0.621823
H79	H	1.531325	-0.442114	0.205540
H80	H	2.031325	0.057886	0.705540
