data_functionalizedCrystal
_audit_creation_method	'MofGen! by Chris Wilmer'
_symmetry_space_group_name_H-M	'P1'
_symmetry_Int_Tables_number	1
_symmetry_cell_setting	triclinic
loop_
_symmetry_equiv_pos_as_xyz
  x,y,z
_cell_length_a	16.959455
_cell_length_b	12.759400
_cell_length_c	12.759393
_cell_angle_alpha	90.032368
_cell_angle_beta	89.973386
_cell_angle_gamma	89.981727
loop_
_atom_site_label
_atom_site_type_symbol
_atom_site_fract_x
_atom_site_fract_y
_atom_site_fract_z
Zn1	Zn	1.208426	0.418288	-0.594203
Zn2	Zn	1.208331	0.594007	-0.418521
Zn3	Zn	1.076240	0.418333	-0.418518
Zn4	Zn	1.076216	0.593916	-0.594137
O5	O	1.142304	0.506136	-0.506345
O6	O	1.319024	0.441616	-0.570927
O7	O	1.190780	0.570760	-0.271499
O8	O	1.093824	0.271306	-0.441849
O9	O	1.318955	0.570716	-0.441854
O10	O	1.190941	0.271273	-0.570924
O11	O	1.093733	0.441693	-0.271497
O12	O	0.965626	0.441606	-0.441785
O13	O	1.093784	0.570562	-0.741167
O14	O	0.965609	0.570606	-0.570812
O15	O	1.190918	0.441528	-0.741215
O16	O	1.190757	0.741016	-0.441790
O17	O	1.093692	0.740949	-0.570815
C18	C	0.936937	0.506102	-0.506292
C19	C	0.849081	0.506112	-0.506294
C20	C	0.477558	0.573292	-0.439102
C21	C	0.477652	0.439067	-0.573715
C22	C	0.560198	0.439050	-0.573690
C23	C	0.601428	0.506156	-0.506370
C24	C	0.560112	0.573279	-0.439077
C25	C	0.601520	0.371936	-0.640990
C26	C	0.684071	0.371917	-0.640967
C27	C	0.725302	0.439018	-0.573642
C28	C	0.683981	0.506143	-0.506345
C29	C	0.725211	0.573248	-0.439026
C30	C	0.683892	0.640369	-0.371722
C31	C	0.601343	0.640380	-0.371751
C32	C	0.807851	0.439007	-0.573613
C33	C	0.807765	0.573235	-0.439000
C34	C	1.142233	0.779103	-0.506319
C35	C	1.142275	0.895880	-0.506343
C36	C	1.192813	0.950645	-0.573606
C37	C	1.192838	1.060369	-0.573628
C38	C	1.091786	1.060553	-0.439115
C39	C	1.091757	0.950831	-0.439099
C40	C	1.251157	0.950539	-0.651262
C41	C	1.251182	1.060263	-0.651284
C42	C	1.348472	0.506171	-0.506398
C43	C	1.436328	0.506186	-0.506421
C44	C	1.142369	1.232103	-0.506385
C45	C	1.142329	1.115326	-0.506381
C46	C	1.142359	0.506030	-0.780378
C47	C	1.142382	0.505985	-0.897155
C48	C	1.192967	0.438791	-0.952044
C49	C	1.192986	0.438753	-1.061768
C50	C	1.091833	0.573112	-1.061705
C51	C	1.091811	0.573144	-0.951982
C52	C	1.251369	0.361222	-0.952081
C53	C	1.251388	0.361185	-1.061805
C54	C	1.142294	0.506166	-0.233377
C55	C	1.142423	0.505915	-0.116601
H56	H	0.567945	0.317309	-0.695804
C57	C	0.675863	0.239231	-0.774024
C58	C	0.729485	0.298129	-0.714934
H59	H	0.703902	0.193672	-0.819679
H60	H	0.643687	0.285058	-0.814146
H61	H	0.643641	0.199005	-0.728316
H62	H	0.761703	0.338362	-0.760642
H63	H	0.761675	0.252297	-0.674808
C64	C	1.155005	0.275215	-1.169497
C65	C	1.221828	0.256820	-1.107767
H66	H	1.136751	0.210785	-1.197864
H67	H	1.168193	0.321683	-1.224926
H68	H	1.114749	0.305636	-1.127558
H69	H	1.262087	0.226405	-1.149708
H70	H	1.208644	0.210334	-1.052330
C71	C	0.452293	0.261233	-0.625215
C72	C	0.432339	0.365310	-0.647717
H73	H	0.424320	0.215698	-0.670908
H74	H	0.438721	0.245784	-0.554666
H75	H	0.507371	0.251631	-0.634828
H76	H	0.377261	0.374914	-0.638096
H77	H	0.445905	0.380764	-0.718283
H78	H	0.841489	0.384361	-0.628413
H79	H	1.312605	0.382981	-1.091595
H80	H	1.050599	0.906243	-0.384338
H81	H	0.841328	0.627878	-0.384176
H82	H	1.309310	0.916476	-0.622186
C83	C	0.384702	0.714616	-0.424280
C84	C	0.432145	0.647072	-0.365127
H85	H	0.356670	0.760169	-0.378609
H86	H	0.348334	0.674653	-0.464361
H87	H	0.416929	0.754848	-0.469975
H88	H	0.399917	0.606835	-0.319437
H89	H	0.468517	0.687040	-0.325028
C90	C	1.388843	1.063736	-0.695193
C91	C	1.333840	1.100425	-0.621968
H92	H	1.439869	1.088528	-0.677088
H93	H	1.375151	1.088510	-0.762971
H94	H	1.388819	0.989286	-0.695168
H95	H	1.333860	1.174877	-0.621999
H96	H	1.347535	1.075657	-0.554173
C97	C	0.709264	0.818211	-0.320235
C98	C	0.729219	0.714134	-0.297732
H99	H	0.737255	0.863748	-0.274562
H100	H	0.654196	0.827820	-0.310601
H101	H	0.722822	0.833651	-0.390801
H102	H	0.715656	0.698691	-0.227168
H103	H	0.784300	0.704520	-0.307357
C104	C	0.508487	0.781703	-0.356952
C105	C	0.555923	0.714162	-0.297785
H106	H	0.480449	0.827257	-0.311290
H107	H	0.472125	0.741738	-0.397040
H108	H	0.540721	0.821933	-0.402641
H109	H	0.523689	0.673926	-0.252102
H110	H	0.592289	0.754132	-0.257679
H111	H	1.050617	0.627856	-0.907296
C112	C	1.046957	1.228833	-0.379415
C113	C	1.036263	1.120960	-0.365198
H114	H	1.012682	1.266121	-0.333775
H115	H	1.035365	1.246765	-0.449986
H116	H	1.100078	1.246770	-0.364110
H117	H	0.983143	1.103021	-0.380511
H118	H	1.047850	1.103020	-0.294611
H119	H	1.234723	0.920720	-0.732607
H120	H	1.229218	1.094257	-0.728551
H121	H	1.050658	0.627788	-1.106358
C122	C	1.154087	0.224594	-0.948462
C123	C	1.229262	0.251391	-0.911896
H124	H	1.140438	0.156794	-0.923647
H125	H	1.154107	0.224571	-1.022903
H126	H	1.116731	0.274238	-0.923619
H127	H	1.266618	0.201751	-0.936745
H128	H	1.229247	0.251406	-0.837439
H129	H	1.309502	0.390395	-0.918056
