data_functionalizedCrystal
_audit_creation_method	'MofGen! by Chris Wilmer'
_symmetry_space_group_name_H-M	'P1'
_symmetry_Int_Tables_number	1
_symmetry_cell_setting	triclinic
loop_
_symmetry_equiv_pos_as_xyz
  x,y,z
_cell_length_a	9.730217
_cell_length_b	11.026607
_cell_length_c	11.026607
_cell_angle_alpha	108.586017
_cell_angle_beta	89.998291
_cell_angle_gamma	89.999011
loop_
_atom_site_label
_atom_site_type_symbol
_atom_site_fract_x
_atom_site_fract_y
_atom_site_fract_z
O1	O	0.114287	-1.726727	-0.533620
O2	O	0.114289	-1.360147	-0.472857
O3	O	0.114283	-1.513056	-0.319948
O4	O	0.114292	-1.573819	-0.686528
O5	O	-0.114297	-1.513049	-0.319945
O6	O	-0.114291	-1.360141	-0.472854
O7	O	-0.114293	-1.726721	-0.533617
Zn8	Zn	-0.150584	-1.543430	-0.503235
Zn9	Zn	0.150580	-1.543438	-0.503239
O10	O	-0.114288	-1.573813	-0.686525
C11	C	-0.000001	-1.312485	-0.461645
C12	C	-0.000000	-1.170471	-0.428228
N13	N	-0.356121	-1.543434	-0.503233
C14	C	-0.000005	-1.501843	-0.272287
C15	C	-0.000000	-1.468426	-0.130273
C16	C	-0.356117	-1.678915	-0.367898
C17	C	-0.428055	-1.746665	-0.300236
C18	C	-0.571934	-1.746678	-0.300238
C19	C	-0.643880	-1.678930	-0.367907
C20	C	-0.571942	-1.611180	-0.435569
C21	C	-0.428059	-1.611178	-0.435562
C22	C	-0.571946	-1.475693	-0.570895
C23	C	-0.428066	-1.475686	-0.570902
C24	C	-0.643891	-1.407945	-0.638563
C25	C	-0.571953	-1.340201	-0.706234
C26	C	-0.428065	-1.340192	-0.706230
C27	C	-0.356128	-1.407936	-0.638564
N28	N	0.356116	-1.543443	-0.503233
C29	C	-0.000001	-1.774384	-0.544828
C30	C	0.000007	-1.916398	-0.578245
C31	C	0.000003	-1.116821	-0.520498
C32	C	0.000004	-0.970043	-0.485962
C33	C	0.000004	-1.585026	-0.734187
C34	C	0.000008	-1.618443	-0.876200
C35	C	0.000001	-1.560695	-0.076624
C36	C	0.000006	-1.526160	0.070155
H37	H	-0.238962	-1.678924	-0.367903
H38	H	0.000009	-1.363863	-0.067540
Br39	Br	0.000018	-1.792736	0.019260
H40	H	-0.369501	-1.285016	-0.761323
H41	H	0.000032	-1.107738	-0.323666
H42	H	-0.630506	-1.801840	-0.245137
H43	H	0.000037	-0.907314	-0.381393
H44	H	-0.761034	-1.678932	-0.367891
Br45	Br	-0.330415	-1.838595	-0.208394
H46	H	-0.761046	-1.407952	-0.638555
Br47	Br	0.000014	-1.734981	-0.181171
H48	H	-0.630540	-1.285039	-0.761318
H49	H	-0.000002	-1.179555	-0.625061
Br50	Br	-0.160861	-1.407940	-0.638562
H51	H	0.000016	-1.421590	0.132884
Br52	Br	-0.000014	-1.020937	-0.752539
