data_functionalizedCrystal
_audit_creation_method	'MofGen! by Chris Wilmer'
_symmetry_space_group_name_H-M	'P1'
_symmetry_Int_Tables_number	1
_symmetry_cell_setting	triclinic
loop_
_symmetry_equiv_pos_as_xyz
  x,y,z
_cell_length_a	12.594517
_cell_length_b	25.639239
_cell_length_c	25.639234
_cell_angle_alpha	90.024905
_cell_angle_beta	90.011048
_cell_angle_gamma	90.034573
loop_
_atom_site_label
_atom_site_type_symbol
_atom_site_fract_x
_atom_site_fract_y
_atom_site_fract_z
Zn1	Zn	1.627095	-0.208240	0.295487
Zn2	Zn	2.127095	0.291760	0.795487
Zn3	Zn	1.626917	-0.295668	0.208051
Zn4	Zn	2.126917	0.204332	0.708051
Zn5	Zn	1.449100	-0.208242	0.208079
Zn6	Zn	1.949100	0.291758	0.708079
Zn7	Zn	1.449011	-0.295640	0.295469
Zn8	Zn	1.949011	0.204360	0.795469
O9	O	1.538031	-0.251948	0.251772
O10	O	2.038031	0.248052	0.751772
O11	O	1.776017	-0.219848	0.283884
O12	O	2.276017	0.280152	0.783884
O13	O	1.603292	-0.284084	0.134890
O14	O	2.103292	0.215916	0.634890
O15	O	1.472823	-0.135077	0.219693
O16	O	1.972823	0.364923	0.719693
O17	O	1.775886	-0.284082	0.219646
O18	O	2.275886	0.215918	0.719646
O19	O	1.603595	-0.135075	0.283911
O20	O	2.103595	0.364925	0.783911
O21	O	1.472651	-0.219852	0.134910
O22	O	1.972651	0.280148	0.634910
O23	O	1.300142	-0.219825	0.219676
O24	O	1.800142	0.280175	0.719676
O25	O	1.472671	-0.284033	0.368637
O26	O	1.972671	0.215967	0.868637
O27	O	1.300077	-0.284036	0.283881
O28	O	1.800077	0.215964	0.783881
O29	O	1.603509	-0.219821	0.368650
O30	O	2.103509	0.280179	0.868650
O31	O	1.603205	-0.368830	0.219628
O32	O	2.103205	0.131170	0.719628
O33	O	1.472498	-0.368809	0.283854
O34	O	1.972498	0.131191	0.783854
C35	C	1.261490	-0.251928	0.251780
C36	C	1.761490	0.248072	0.751780
C37	C	1.143184	-0.251932	0.251795
C38	C	1.643184	0.248068	0.751795
C39	C	1.073926	-0.286925	0.286649
C40	C	1.573926	0.213075	0.786649
C41	C	1.003156	-0.239256	0.299513
C42	C	1.503156	0.260744	0.799513
C43	C	1.003156	-0.299640	0.238920
C44	C	1.503156	0.200360	0.738920
C45	C	1.073972	-0.204238	0.264684
C46	C	1.573972	0.295762	0.764684
C47	C	1.073978	-0.264654	0.204069
C48	C	1.573978	0.235346	0.704069
C49	C	1.003240	-0.216953	0.216915
C50	C	1.503240	0.283047	0.716915
C51	C	1.537852	-0.387790	0.251748
C52	C	2.037852	0.112210	0.751748
C53	C	1.537872	-0.445904	0.251755
C54	C	2.037872	0.054096	0.751755
C55	C	1.606267	-0.806266	0.218386
C56	C	2.106267	-0.306266	0.718386
C57	C	1.606308	-0.860870	0.218393
C58	C	2.106308	-0.360870	0.718393
O59	O	1.664275	-0.889105	0.189996
O60	O	2.164275	-0.389105	0.689996
N61	N	1.538218	-0.888187	0.251806
N62	N	2.038218	-0.388187	0.751806
C63	C	1.470089	-0.860896	0.285218
C64	C	1.970089	-0.360896	0.785218
O65	O	1.412177	-0.889146	0.313639
O66	O	1.912177	-0.389146	0.813639
C67	C	1.470054	-0.806293	0.285213
C68	C	1.970054	-0.306293	0.785213
C69	C	1.538141	-0.778979	0.251794
C70	C	2.038141	-0.278979	0.751794
C71	C	1.674350	-0.778951	0.184971
C72	C	2.174350	-0.278951	0.684971
C73	C	1.674307	-0.724351	0.184963
C74	C	2.174307	-0.224351	0.684963
C75	C	1.606181	-0.697064	0.218371
C76	C	2.106181	-0.197064	0.718371
C77	C	1.538098	-0.724379	0.251787
C78	C	2.038098	-0.224379	0.751787
C79	C	1.401931	-0.779004	0.318627
C80	C	1.901931	-0.279004	0.818627
C81	C	1.401902	-0.724397	0.318620
C82	C	1.901902	-0.224397	0.818620
C83	C	1.469990	-0.697083	0.285201
C84	C	1.969990	-0.197083	0.785201
C85	C	1.469930	-0.642492	0.285188
C86	C	1.969930	-0.142492	0.785188
N87	N	1.538020	-0.615175	0.251775
N88	N	2.038020	-0.115175	0.751775
C89	C	1.606146	-0.642461	0.218366
C90	C	2.106146	-0.142461	0.718366
C91	C	1.470169	-0.975567	0.285226
C92	C	1.970169	-0.475567	0.785226
C93	C	1.470198	-1.030169	0.285229
C94	C	1.970198	-0.530169	0.785229
C95	C	1.606419	-1.030139	0.218404
C96	C	2.106419	-0.530139	0.718404
C97	C	1.606384	-0.975536	0.218400
C98	C	2.106384	-0.475536	0.718400
C99	C	1.538260	-0.948250	0.251813
C100	C	2.038260	-0.448250	0.751813
C101	C	1.606050	-0.527796	0.218353
C102	C	2.106050	-0.027796	0.718353
C103	C	1.605998	-0.473191	0.218347
C104	C	2.105998	0.026809	0.718347
C105	C	1.469781	-0.473226	0.285173
C106	C	1.969781	0.026774	0.785173
C107	C	1.469829	-0.527826	0.285177
C108	C	1.969829	-0.027826	0.785177
C109	C	1.537972	-0.555110	0.251765
C110	C	2.037972	-0.055110	0.751765
O111	O	1.411996	-0.614222	0.313572
O112	O	1.911996	-0.114222	0.813572
O113	O	1.664059	-0.614205	0.189955
O114	O	2.164059	-0.114205	0.689955
C115	C	1.815651	-0.251968	0.251764
C116	C	2.315651	0.248032	0.751764
C117	C	1.933957	-0.251977	0.251761
C118	C	2.433957	0.248023	0.751761
C119	C	1.538100	-0.251924	0.388145
C120	C	2.038100	0.248076	0.888145
C121	C	1.538129	-0.251914	0.446259
C122	C	2.038129	0.248086	0.946259
C123	C	1.538239	-0.115575	0.251807
C124	C	2.038239	0.384425	0.751807
C125	C	1.538328	-0.057461	0.251822
C126	C	2.038328	0.442539	0.751822
C127	C	1.538023	-0.251934	0.115929
C128	C	2.038023	0.248066	0.615929
C129	C	1.538200	-0.251797	0.057815
C130	C	2.038200	0.248203	0.557815
C131	C	1.470134	-0.218406	0.806638
C132	C	1.970134	0.281594	1.306638
C133	C	1.470140	-0.218397	0.861242
C134	C	1.970140	0.281603	1.361242
O135	O	1.412275	-0.189965	0.889493
O136	O	1.912275	0.310035	1.389493
N137	N	1.538165	-0.251832	0.888541
N138	N	2.038165	0.248168	1.388541
C139	C	1.606180	-0.285282	0.861233
C140	C	2.106180	0.214718	1.361233
O141	O	1.664040	-0.313721	0.889467
O142	O	2.164040	0.186279	1.389467
C143	C	1.606168	-0.285294	0.806630
C144	C	2.106168	0.214706	1.306630
C145	C	1.538147	-0.251853	0.779334
C146	C	2.038147	0.248147	1.279334
C147	C	1.402118	-0.184968	0.779342
C148	C	1.902118	0.315032	1.279342
C149	C	1.402114	-0.184977	0.724741
C150	C	1.902114	0.315023	1.224741
C151	C	1.470126	-0.218424	0.697437
C152	C	1.970126	0.281576	1.197437
C153	C	1.538143	-0.251862	0.724733
C154	C	2.038143	0.248138	1.224733
C155	C	1.674178	-0.318746	0.779323
C156	C	2.174178	0.181254	1.279323
C157	C	1.674160	-0.318756	0.724716
C158	C	2.174160	0.181244	1.224716
C159	C	1.606138	-0.285315	0.697419
C160	C	2.106138	0.214685	1.197419
C161	C	1.606151	-0.285317	0.642828
C162	C	2.106151	0.214683	1.142828
N163	N	1.538127	-0.251882	0.615529
N164	N	2.038127	0.248118	1.115529
C165	C	1.470114	-0.218436	0.642833
C166	C	1.970114	0.281564	1.142833
C167	C	1.606199	-0.285256	0.975904
C168	C	2.106199	0.214744	1.475904
C169	C	1.606217	-0.285242	1.030506
C170	C	2.106217	0.214758	1.530506
C171	C	1.470175	-0.218357	1.030512
C172	C	1.970175	0.281643	1.530512
C173	C	1.470163	-0.218368	0.975908
C174	C	1.970163	0.281632	1.475908
C175	C	1.538174	-0.251821	0.948605
C176	C	2.038174	0.248179	1.448605
C177	C	1.470112	-0.218457	0.528168
C178	C	1.970112	0.281543	1.028168
C179	C	1.470117	-0.218467	0.473563
C180	C	1.970117	0.281533	0.973563
C181	C	1.606154	-0.285354	0.473562
C182	C	2.106154	0.214646	0.973562
C183	C	1.606153	-0.285341	0.528163
C184	C	2.106153	0.214659	1.028163
C185	C	1.538124	-0.251891	0.555465
C186	C	2.038124	0.248109	1.055465
O187	O	1.663984	-0.313736	0.614543
O188	O	2.163984	0.186264	1.114543
O189	O	1.412254	-0.190007	0.614593
O190	O	1.912254	0.309993	1.114593
H191	H	0.972044	-0.339968	0.228045
H192	H	1.472044	0.160032	0.728045
H193	H	1.729567	-0.345978	0.801538
H194	H	2.229567	0.154022	1.301538
H195	H	1.414725	-0.191233	0.451341
H196	H	1.914725	0.308767	0.951341
F197	F	1.329711	-0.149372	0.808393
F198	F	1.829711	0.350628	1.308393
H199	H	1.414390	-0.550067	0.312391
H200	H	1.914390	-0.050067	0.812391
H201	H	0.972047	-0.228511	0.339860
H202	H	1.472047	0.271489	0.839860
F203	F	1.114455	-0.151511	0.278960
F204	F	1.614455	0.348489	0.778960
H205	H	1.104967	-0.316460	0.316161
H206	H	1.604967	0.183540	0.816161
H207	H	1.661895	-1.052366	0.191203
H208	H	2.161895	-0.552366	0.691203
H209	H	1.414685	-0.953354	0.312434
H210	H	1.914685	-0.453354	0.812434
F211	F	1.678852	-0.946471	0.182831
F212	F	2.178852	-0.446471	0.682831
F213	F	1.678469	-0.444124	0.182776
F214	F	2.178469	0.055876	0.682776
H215	H	1.729550	-0.345994	0.702488
H216	H	2.229550	0.154006	1.202488
H217	H	1.414311	-0.451001	0.312372
H218	H	1.914311	0.048999	0.812372
F219	F	1.397712	-0.182853	0.557217
F220	F	1.897712	0.317147	1.057217
F221	F	0.962924	-0.178256	0.178369
F222	F	1.462924	0.321744	0.678369
F223	F	1.114642	-0.278710	0.151340
F224	F	1.614642	0.221290	0.651340
F225	F	1.329710	-0.149387	0.695697
F226	F	1.829710	0.350613	1.195697
F227	F	1.397765	-0.182777	0.946862
F228	F	1.897765	0.317223	1.446862
F229	F	1.397788	-0.182760	1.059580
F230	F	1.897788	0.317240	1.559580
H231	H	1.661541	-0.550004	0.191147
H232	H	2.161541	-0.050004	0.691147
H233	H	1.729753	-0.702115	0.157752
H234	H	2.229753	-0.202115	0.657752
H235	H	1.729832	-0.801162	0.157765
H236	H	2.229832	-0.301162	0.657765
F237	F	1.397718	-1.059233	0.320792
F238	F	1.897718	-0.559233	0.820792
F239	F	1.329470	-0.808062	0.354201
F240	F	1.829470	-0.308062	0.854201
H241	H	1.346428	-0.702184	0.345831
H242	H	1.846428	-0.202184	0.845831
H243	H	1.661619	-0.312467	1.052726
H244	H	2.161619	0.187533	1.552726
H245	H	1.661595	-0.312493	0.953677
H246	H	2.161595	0.187507	1.453677
H247	H	1.661554	-0.312566	0.550389
H248	H	2.161554	0.187434	1.050389
F249	F	1.678540	-0.320945	0.444494
F250	F	2.178540	0.179055	0.944494
