data_functionalizedCrystal
_audit_creation_method	'MofGen! by Chris Wilmer'
_symmetry_space_group_name_H-M	'P1'
_symmetry_Int_Tables_number	1
_symmetry_cell_setting	triclinic
loop_
_symmetry_equiv_pos_as_xyz
  x,y,z
_cell_length_a	18.050589
_cell_length_b	16.625548
_cell_length_c	16.625539
_cell_angle_alpha	89.979432
_cell_angle_beta	90.024824
_cell_angle_gamma	89.970711
loop_
_atom_site_label
_atom_site_type_symbol
_atom_site_fract_x
_atom_site_fract_y
_atom_site_fract_z
Zn1	Zn	-0.295637	-1.232648	0.455929
Zn2	Zn	0.037696	-0.899315	0.789262
Zn3	Zn	0.371030	-0.565982	1.122596
Zn4	Zn	-0.419835	-1.232538	0.321104
Zn5	Zn	-0.086501	-0.899205	0.654438
Zn6	Zn	0.246832	-0.565871	0.987771
Zn7	Zn	-0.295665	-1.097810	0.321109
Zn8	Zn	0.037668	-0.764477	0.654443
Zn9	Zn	0.371001	-0.431143	0.987776
Zn10	Zn	-0.419792	-1.097767	0.455894
Zn11	Zn	-0.086459	-0.764434	0.789227
Zn12	Zn	0.246875	-0.431100	1.122561
O13	O	-0.357732	-1.165191	0.388509
O14	O	-0.024399	-0.831857	0.721842
O15	O	0.308934	-0.498524	1.055176
O16	O	-0.312118	-1.345466	0.438056
O17	O	0.021215	-1.012133	0.771390
O18	O	0.354549	-0.678799	1.104723
O19	O	-0.403393	-1.214638	0.208272
O20	O	-0.070060	-0.881305	0.541606
O21	O	0.263274	-0.547971	0.874939
O22	O	-0.191737	-1.115761	0.339010
O23	O	0.141596	-0.782428	0.672343
O24	O	0.474930	-0.449094	1.005677
O25	O	-0.403366	-1.345385	0.339001
O26	O	-0.070032	-1.012052	0.672335
O27	O	0.263301	-0.678718	1.005668
O28	O	-0.191716	-1.214826	0.438061
O29	O	0.141617	-0.881493	0.771395
O30	O	0.474951	-0.548159	1.104728
O31	O	-0.312166	-1.115654	0.208276
O32	O	0.021167	-0.782321	0.541610
O33	O	0.354500	-0.448987	0.874943
O34	O	-0.312125	-0.984972	0.338976
O35	O	0.021208	-0.651639	0.672310
O36	O	0.354542	-0.318305	1.005643
O37	O	-0.403293	-1.115687	0.568731
O38	O	-0.069960	-0.782354	0.902064
O39	O	0.263374	-0.449021	1.235398
O40	O	-0.403320	-0.984940	0.438002
O41	O	-0.069987	-0.651607	0.771336
O42	O	0.263346	-0.318274	1.104669
O43	O	-0.312077	-1.214784	0.568757
O44	O	0.021257	-0.881451	0.902090
O45	O	0.354590	-0.548117	1.235423
O46	O	-0.523754	-1.214596	0.338968
O47	O	-0.190420	-0.881263	0.672301
O48	O	0.142913	-0.547929	1.005634
O49	O	-0.523722	-1.115580	0.437997
O50	O	-0.190389	-0.782247	0.771331
O51	O	0.142944	-0.448914	1.104664
C52	C	-0.550684	-1.165093	0.388496
C53	C	-0.217351	-0.831760	0.721829
C54	C	0.115982	-0.498427	1.055162
C55	C	-0.633230	-1.165126	0.388517
C56	C	-0.299897	-0.831792	0.721850
C57	C	0.033437	-0.498459	1.055184
C58	C	-0.357722	-0.955700	0.388487
C59	C	-0.024388	-0.622367	0.721820
C60	C	0.308945	-0.289033	1.055153
C61	C	-0.357735	-0.866079	0.388496
C62	C	-0.024402	-0.532746	0.721829
C63	C	0.308932	-0.199412	1.055163
C64	C	-0.357677	-1.165243	0.598818
C65	C	-0.024344	-0.831910	0.932151
C66	C	0.308990	-0.498577	1.265485
C67	C	-0.357653	-1.165266	0.688439
C68	C	-0.024320	-0.831932	1.021773
C69	C	0.309013	-0.498599	1.355106
C70	C	-0.832691	-1.111334	0.442350
C71	C	-0.499357	-0.778000	0.775684
C72	C	-0.166024	-0.444667	1.109017
C73	C	-0.882133	-1.091677	0.368775
C74	C	-0.548799	-0.758344	0.702108
C75	C	-0.215466	-0.425011	1.035441
C76	C	-0.784360	-1.165205	0.388528
C77	C	-0.451027	-0.831871	0.721861
C78	C	-0.117694	-0.498538	1.055194
C79	C	-0.882000	-1.184901	0.462112
C80	C	-0.548667	-0.851567	0.795445
C81	C	-0.215333	-0.518234	1.128779
C82	C	-0.930346	-1.165280	0.388544
C83	C	-0.597012	-0.831946	0.721877
C84	C	-0.263679	-0.498613	1.055211
C85	C	-0.832715	-1.145510	0.314913
C86	C	-0.499382	-0.812176	0.648246
C87	C	-0.166049	-0.478843	0.981579
C88	C	-0.832578	-1.238767	0.408300
C89	C	-0.499245	-0.905434	0.741633
C90	C	-0.165912	-0.572101	1.074966
C91	C	-0.881998	-1.219139	0.334673
C92	C	-0.548665	-0.885806	0.668006
C93	C	-0.215331	-0.552472	1.001340
C94	C	-0.700262	-1.165160	0.388519
C95	C	-0.366929	-0.831826	0.721852
C96	C	-0.033596	-0.498493	1.055186
C97	C	-1.014442	-1.165325	0.388544
C98	C	-0.681109	-0.831992	0.721878
C99	C	-0.347775	-0.498659	1.055211
C100	C	-0.164027	-1.165310	0.388540
C101	C	0.169307	-0.831977	0.721874
C102	C	0.502640	-0.498644	1.055207
C103	C	-0.081481	-1.165361	0.388553
C104	C	0.251853	-0.832028	0.721887
C105	C	0.585186	-0.498695	1.055220
C106	C	-0.357743	-1.375500	0.388532
C107	C	-0.024410	-1.042166	0.721866
C108	C	0.308923	-0.708833	1.055199
C109	C	-0.357748	-1.465121	0.388542
C110	C	-0.024415	-1.131787	0.721875
C111	C	0.308919	-0.798454	1.055209
C112	C	-0.357740	-0.537903	0.388531
C113	C	-0.024406	-0.204570	0.721864
C114	C	0.308927	0.128763	1.055197
C115	C	-0.357736	-0.629212	0.388518
C116	C	-0.024403	-0.295878	0.721852
C117	C	0.308930	0.037455	1.055185
C118	C	-0.357738	-0.701988	0.388513
C119	C	-0.024404	-0.368655	0.721846
C120	C	0.308929	-0.035321	1.055179
C121	C	-0.357734	-0.793302	0.388502
C122	C	-0.024400	-0.459969	0.721835
C123	C	0.308933	-0.126636	1.055168
C124	C	-0.357734	-1.165185	0.179018
C125	C	-0.024400	-0.831852	0.512352
C126	C	0.308933	-0.498518	0.845685
C127	C	-0.357548	-1.165319	0.089398
C128	C	-0.024215	-0.831986	0.422731
C129	C	0.309119	-0.498652	0.756064
C130	C	-0.357570	-1.165303	1.016615
C131	C	-0.024237	-0.831969	1.349948
C132	C	0.309097	-0.498636	1.683282
C133	C	-0.357596	-1.165290	0.925307
C134	C	-0.024262	-0.831957	1.258640
C135	C	0.309071	-0.498624	1.591973
C136	C	-0.357612	-1.165285	0.852530
C137	C	-0.024279	-0.831951	1.185863
C138	C	0.309054	-0.498618	1.519197
C139	C	-0.357637	-1.165271	0.761216
C140	C	-0.024303	-0.831938	1.094549
C141	C	0.309030	-0.498604	1.427882
H142	H	-0.903916	-1.029503	0.352066
H143	H	-0.570582	-0.696170	0.685400
H144	H	-0.237249	-0.362836	1.018733
O145	O	-0.910499	-1.279528	0.274325
O146	O	-0.577165	-0.946194	0.607658
O147	O	-0.243832	-0.612861	0.940991
H148	H	-0.944281	-1.325561	0.305806
H149	H	-0.610947	-0.992227	0.639140
H150	H	-0.277614	-0.658894	0.972473
O151	O	-0.804001	-1.050901	0.502551
O152	O	-0.470668	-0.717568	0.835885
O153	O	-0.137335	-0.384235	1.169218
H154	H	-0.824595	-1.066660	0.563445
H155	H	-0.491262	-0.733326	0.896778
H156	H	-0.157928	-0.399993	1.230111
H157	H	-0.811156	-1.128809	0.252673
H158	H	-0.477823	-0.795475	0.586006
H159	H	-0.144489	-0.462142	0.919339
O160	O	-0.803887	-1.321198	0.430382
O161	O	-0.470554	-0.987865	0.763716
O162	O	-0.137221	-0.654532	1.097049
H163	H	-0.823650	-1.337417	0.491480
H164	H	-0.490317	-1.004083	0.824813
H165	H	-0.156984	-0.670750	1.158146
H166	H	-0.903649	-1.201530	0.524335
H167	H	-0.570316	-0.868197	0.857668
H168	H	-0.236982	-0.534863	1.191001
