data_functionalizedCrystal
_audit_creation_method	'MofGen! by Chris Wilmer'
_symmetry_space_group_name_H-M	'P1'
_symmetry_Int_Tables_number	1
_symmetry_cell_setting	triclinic
loop_
_symmetry_equiv_pos_as_xyz
  x,y,z
_cell_length_a	15.995350
_cell_length_b	15.995350
_cell_length_c	14.472310
_cell_angle_alpha	90.001162
_cell_angle_beta	89.990621
_cell_angle_gamma	83.492375
loop_
_atom_site_label
_atom_site_type_symbol
_atom_site_fract_x
_atom_site_fract_y
_atom_site_fract_z
O1	O	1.110997	0.107921	-0.076758
O2	O	0.867221	0.121248	-0.076776
O3	O	0.995773	-0.007303	-0.076766
O4	O	0.982445	0.236472	-0.076769
O5	O	0.995740	-0.007296	0.076916
O6	O	0.867188	0.121256	0.076906
O7	O	1.110963	0.107928	0.076924
Cu8	Cu	0.989073	0.114593	0.090947
Cu9	Cu	0.989112	0.114584	-0.090800
O10	O	0.982412	0.236480	0.076913
C11	C	0.836010	0.120701	0.000062
C12	C	0.743060	0.119049	0.000055
C13	C	0.405312	0.113117	0.000074
C14	C	0.452746	0.021565	0.000418
C15	C	0.549436	0.023217	0.000065
C16	C	0.572873	0.116060	0.000065
C17	C	0.531804	0.161212	-0.087692
C18	C	0.435169	0.158912	-0.087759
C19	C	0.434792	0.160812	0.087007
C20	C	0.531737	0.160790	0.088160
C21	C	0.667570	0.117727	0.000057
C22	C	0.310614	0.111452	0.000076
C23	C	0.995205	-0.038494	0.000073
C24	C	0.993553	-0.131444	0.000068
C25	C	0.987621	-0.469192	0.000071
C26	C	0.896069	-0.421758	-0.000281
C27	C	0.897721	-0.325068	0.000066
C28	C	0.990564	-0.301631	0.000069
C29	C	1.035701	-0.342705	0.087831
C30	C	1.033401	-0.439340	0.087904
C31	C	1.035330	-0.439707	-0.086861
C32	C	1.035309	-0.342762	-0.088021
C33	C	0.992231	-0.206934	0.000071
C34	C	0.985956	-0.563890	0.000075
C35	C	1.142175	0.108476	0.000083
C36	C	1.235125	0.110127	0.000084
C37	C	0.982980	0.267671	0.000072
C38	C	0.984631	0.360621	0.000071
N39	N	0.989051	0.114598	0.218778
N40	N	0.989140	0.114572	-0.218631
C41	C	0.989111	0.114581	0.592869
C42	C	0.920095	0.183135	0.553698
C43	C	0.920254	0.183385	0.446610
C44	C	0.989081	0.114590	0.407278
C45	C	1.076445	0.133671	0.446122
C46	C	1.076057	0.134159	0.553243
C47	C	0.971542	0.026741	0.553398
C48	C	0.969538	0.027327	0.446270
C49	C	0.989069	0.114593	0.302390
C50	C	0.989128	0.114579	0.697757
H51	H	0.577852	-0.012275	0.062973
H52	H	0.931159	0.247952	0.580608
N53	N	1.126055	-0.324008	0.092133
H54	H	1.127799	-0.261136	0.094922
H55	H	1.153804	-0.351067	0.149074
H56	H	1.100617	-0.471588	0.091888
N57	N	0.995701	-0.466913	-0.174974
H58	H	1.027281	-0.447345	-0.229873
H59	H	0.998216	-0.530281	-0.176117
N60	N	0.392425	0.247935	-0.093014
H61	H	0.409218	0.280915	-0.037845
H62	H	0.410054	0.275344	-0.151658
H63	H	1.004324	-0.314320	0.153137
N64	N	0.392709	0.250218	0.087796
H65	H	0.358212	0.260272	0.146020
H66	H	0.437027	0.290410	0.085709
H67	H	0.859490	-0.440293	-0.063217
N68	N	0.934891	0.269788	0.412643
H69	H	0.941294	0.307854	0.467258
H70	H	0.987744	0.265495	0.373931
H71	H	0.861973	-0.297200	0.063079
N72	N	0.426801	-0.026687	-0.082482
H73	H	0.477867	-0.044951	-0.121679
H74	H	0.400675	-0.077900	-0.060988
H75	H	1.092297	0.197002	0.419285
H76	H	0.559040	0.127830	0.153082
H77	H	0.434210	-0.015027	0.063352
N78	N	0.586355	-0.024122	-0.083408
H79	H	0.561410	0.003462	-0.141467
H80	H	0.649388	-0.023239	-0.083904
H81	H	0.862239	-0.296649	-0.062846
N82	N	0.884416	0.008134	0.412635
H83	H	0.872198	-0.048064	0.437934
H84	H	0.839780	0.053528	0.434556
N85	N	0.989764	-0.463580	0.174797
H86	H	0.930526	-0.434036	0.176277
H87	H	0.987896	-0.526477	0.175665
H88	H	0.547101	0.228494	0.093461
H89	H	0.416874	0.125979	-0.153359
H90	H	1.016541	-0.026079	0.419500
N91	N	0.550521	0.251559	-0.092032
H92	H	0.585886	0.264119	-0.037021
H93	H	0.582181	0.260835	-0.150852
H94	H	0.859626	-0.441349	0.062299
H95	H	1.021872	-0.024275	0.578728
H96	H	1.002307	-0.315516	-0.152945
H97	H	0.560193	0.129845	-0.153002
N98	N	1.124995	-0.322421	-0.095044
H99	H	1.137950	-0.286096	-0.040979
H100	H	1.164489	-0.376359	-0.094289
H101	H	1.102831	-0.471468	-0.087449
N102	N	0.407578	0.121174	0.175121
H103	H	0.375858	0.071893	0.159576
H104	H	0.458830	0.101007	0.213198
H105	H	0.855314	0.172016	0.420349
H106	H	1.091540	0.198219	0.578220
N107	N	0.833792	0.168334	0.587848
H108	H	0.838591	0.117048	0.629046
H109	H	0.808541	0.219054	0.623955
N110	N	1.146099	0.070509	0.587575
H111	H	1.177095	0.042265	0.533119
H112	H	1.186444	0.099913	0.626260
H113	H	1.129029	0.085068	0.420643
N114	N	0.888975	0.002443	0.589215
H115	H	0.862121	0.048136	0.631397
H116	H	0.850194	-0.004971	0.535499
