data_functionalizedCrystal
_audit_creation_method	'MofGen! by Chris Wilmer'
_symmetry_space_group_name_H-M	'P1'
_symmetry_Int_Tables_number	1
_symmetry_cell_setting	triclinic
loop_
_symmetry_equiv_pos_as_xyz
  x,y,z
_cell_length_a	14.971482
_cell_length_b	15.712078
_cell_length_c	13.448316
_cell_angle_alpha	89.996297
_cell_angle_beta	89.993798
_cell_angle_gamma	101.596878
loop_
_atom_site_label
_atom_site_type_symbol
_atom_site_fract_x
_atom_site_fract_y
_atom_site_fract_z
O1	O	1.223683	0.112666	-0.082677
O2	O	0.967683	0.126163	-0.082682
O3	O	1.061626	-0.006448	-0.082675
O4	O	1.129740	0.245277	-0.082684
O5	O	1.061606	-0.006456	0.082709
O6	O	0.967663	0.126155	0.082702
O7	O	1.223663	0.112658	0.082707
Cu8	Cu	1.095661	0.119406	0.097805
Cu9	Cu	1.095685	0.119415	-0.097780
O10	O	1.129720	0.245269	0.082700
C11	C	0.934152	0.125556	0.000010
C12	C	0.834265	0.123749	0.000008
C13	C	0.787332	0.122893	0.090160
C14	C	0.693476	0.121182	0.090161
C15	C	0.646555	0.120332	0.000009
C16	C	0.693494	0.121185	-0.090150
C17	C	0.787348	0.122890	-0.090150
C18	C	0.497874	0.117632	-0.090143
C19	C	0.404014	0.115928	-0.090143
C20	C	0.404002	0.115923	0.090168
C21	C	0.497855	0.117629	0.090168
C22	C	0.544788	0.118483	0.000008
C23	C	1.050489	-0.038666	0.000016
C24	C	1.017322	-0.134655	0.000013
C25	C	1.298917	-0.501464	0.000008
C26	C	1.267731	-0.591658	0.000008
C27	C	1.111466	-0.571201	0.000005
C28	C	1.142639	-0.481004	0.000010
C29	C	1.236366	-0.446143	0.000010
C30	C	1.080087	-0.425683	0.000012
C31	C	1.111258	-0.335494	0.000012
C32	C	1.204981	-0.300626	0.000009
C33	C	1.267536	-0.355954	0.000010
C34	C	0.986361	-0.460546	0.000004
C35	C	0.923810	-0.405225	0.000006
C36	C	0.954980	-0.315034	0.000013
C37	C	1.048703	-0.280166	0.000011
C38	C	0.892425	-0.259706	0.000013
C39	C	0.923596	-0.169516	0.000012
C40	C	1.079874	-0.189977	0.000011
C41	C	1.257194	0.113265	0.000013
C42	C	1.357081	0.115072	0.000009
C43	C	1.140857	0.277488	0.000007
C44	C	1.174024	0.373477	0.000004
N45	N	1.095651	0.119398	0.235370
N46	N	1.095700	0.119416	-0.235344
C47	C	1.137276	0.060702	0.287413
C48	C	1.137281	0.060702	0.391516
C49	C	1.095667	0.119402	0.443574
C50	C	1.054037	0.178101	0.391524
C51	C	1.054026	0.178097	0.287422
C52	C	1.054063	0.178106	0.608504
C53	C	1.054075	0.178112	0.712612
C54	C	1.137319	0.060712	0.712598
C55	C	1.137308	0.060707	0.608496
C56	C	1.095679	0.119408	0.556453
H57	H	0.825530	0.123593	0.163572
H58	H	0.960985	-0.533984	-0.000001
Br59	Br	0.984270	-0.618521	-0.000009
H60	H	0.536084	0.118328	-0.163560
H61	H	1.020187	0.225911	0.754993
H62	H	0.872659	-0.124472	0.000015
H63	H	1.020160	0.225904	0.566133
Br64	Br	1.352634	-0.666736	-0.000006
Br65	Br	0.340309	0.114767	0.212527
Br66	Br	1.193794	-0.018949	0.537843
Br67	Br	0.796614	-0.452544	-0.000007
Br68	Br	1.193764	-0.018961	0.216774
H69	H	1.020148	0.225893	0.433915
H70	H	0.816112	-0.288104	0.000002
Br71	Br	1.193769	-0.018961	0.462150
H72	H	1.171214	0.012916	0.754978
H73	H	0.655264	0.120470	0.163572
Br74	Br	0.561536	0.118796	0.212517
H75	H	1.020129	0.225892	0.245050
H76	H	0.365814	0.115236	-0.163553
H77	H	0.655283	0.120486	-0.163553
Br78	Br	0.851042	0.124044	-0.212503
H79	H	1.375238	-0.473079	0.000019
H80	H	1.343858	-0.327569	0.000021
Br81	Br	1.207076	-0.142656	0.000051
H82	H	1.230359	-0.227188	0.000009
