data_functionalizedCrystal
_audit_creation_method	'MofGen! by Chris Wilmer'
_symmetry_space_group_name_H-M	'P1'
_symmetry_Int_Tables_number	1
_symmetry_cell_setting	triclinic
loop_
_symmetry_equiv_pos_as_xyz
  x,y,z
_cell_length_a	14.971506
_cell_length_b	14.971486
_cell_length_c	13.448316
_cell_angle_alpha	89.992514
_cell_angle_beta	90.001709
_cell_angle_gamma	96.381742
loop_
_atom_site_label
_atom_site_type_symbol
_atom_site_fract_x
_atom_site_fract_y
_atom_site_fract_z
O1	O	1.186929	-0.116653	0.082699
O2	O	0.926531	-0.130592	0.082700
O3	O	1.063710	0.006577	0.082692
O4	O	1.049751	-0.253822	0.082707
O5	O	1.063707	0.006589	-0.082691
O6	O	0.926528	-0.130581	-0.082684
O7	O	1.186926	-0.116641	-0.082684
Cu8	Cu	1.056727	-0.123610	-0.097785
Cu9	Cu	1.056731	-0.123624	0.097800
O10	O	1.049748	-0.253810	-0.082677
C11	C	0.893205	-0.129960	0.000008
C12	C	0.793909	-0.128082	0.000008
C13	C	0.355627	-0.201500	0.000022
C14	C	0.448927	-0.203258	0.000027
C15	C	0.506147	-0.122665	0.000018
C16	C	0.470062	-0.040310	0.000015
C17	C	0.376764	-0.038553	0.000017
C18	C	0.664525	-0.043977	0.000007
C19	C	0.757831	-0.045733	0.000002
C20	C	0.736689	-0.208681	0.000016
C21	C	0.643390	-0.206924	0.000018
C22	C	0.607312	-0.124569	0.000013
C23	C	1.063084	0.039908	0.000001
C24	C	1.061213	0.139205	0.000002
C25	C	1.220252	-0.117273	0.000010
C26	C	1.319548	-0.119151	0.000016
N27	N	1.056734	-0.123627	0.235365
C28	C	1.050374	-0.287141	0.000017
C29	C	1.052244	-0.386438	0.000022
C30	C	1.141802	0.196424	0.000001
C31	C	1.140038	0.289724	0.000011
C32	C	1.057686	0.325802	0.000015
C33	C	0.977091	0.268575	0.000019
C34	C	0.978855	0.175278	0.000016
C35	C	0.973420	0.463038	0.000022
C36	C	0.971656	0.556342	0.000023
C37	C	1.134603	0.577485	0.000017
C38	C	1.136367	0.484187	0.000015
C39	C	1.055772	0.426966	0.000017
N40	N	1.056731	-0.123599	-0.235349
C41	C	1.117589	-0.063008	0.287402
C42	C	1.117593	-0.063005	0.391505
C43	C	1.056736	-0.123618	0.443569
C44	C	0.995877	-0.184244	0.391525
C45	C	0.995879	-0.184250	0.287424
C46	C	0.995878	-0.184225	0.608505
C47	C	0.995875	-0.184218	0.712613
C48	C	1.117592	-0.062981	0.712587
C49	C	1.117594	-0.062987	0.608485
C50	C	1.056733	-0.123611	0.556448
H51	H	0.804417	0.019892	0.000003
H52	H	0.946322	-0.233595	0.566140
N53	N	0.892960	0.305407	0.000027
N54	N	0.838604	0.287895	0.069738
H55	H	0.779182	0.313903	0.069741
H56	H	0.946329	-0.233600	0.433922
H57	H	0.946320	-0.233576	0.754999
N58	N	1.179754	-0.001079	0.234240
N59	N	1.234085	0.053040	0.280719
H60	H	1.277992	0.096779	0.243177
N61	N	1.179742	-0.001072	0.555285
N62	N	1.235218	-0.029646	0.497185
H63	H	1.279104	0.014085	0.459606
N64	N	1.216929	0.635932	0.000042
N65	N	1.271680	0.632581	0.069755
H66	H	1.329820	0.673864	0.069770
N67	N	1.222347	0.348189	0.000010
N68	N	1.239546	0.402602	0.069723
H69	H	1.297679	0.443896	0.069722
H70	H	0.478297	-0.270314	0.000041
N71	N	0.773539	-0.292805	0.000049
N72	N	0.756045	-0.347162	0.069769
H73	H	0.782076	-0.406572	0.069791
H74	H	0.946325	-0.233613	0.245056
N75	N	0.528495	0.042023	-0.000010
N76	N	0.496267	0.115543	-0.000021
H77	H	0.537533	0.173694	-0.000043
H78	H	0.635155	0.023086	0.000007
N79	N	0.339922	0.045572	0.000018
N80	N	0.391018	0.117524	0.000012
H81	H	0.365001	0.176941	0.000017
N82	N	1.225924	0.159575	-0.000026
N83	N	1.280274	0.177085	-0.069742
H84	H	1.339687	0.151062	-0.069761
H85	H	1.203426	0.454815	0.000004
H86	H	0.904597	0.585714	0.000010
N87	N	0.891087	0.404600	0.000040
N88	N	0.817563	0.436822	0.000046
H89	H	0.759416	0.395551	0.000058
N90	N	0.896528	0.116839	0.000029
N91	N	0.823004	0.149060	0.000038
H92	H	0.764856	0.107789	0.000055
H93	H	0.596803	-0.272550	0.000019
N94	N	1.179876	-0.001194	0.444644
N95	N	1.234280	0.052848	0.398146
H96	H	1.278314	0.096462	0.435674
N97	N	1.179751	-0.001056	0.765751
N98	N	1.179745	-0.001057	0.858698
H99	H	1.223640	0.042679	0.896250
H100	H	0.309044	-0.267128	0.000022
