data_functionalizedCrystal
_audit_creation_method	'MofGen! by Chris Wilmer'
_symmetry_space_group_name_H-M	'P1'
_symmetry_Int_Tables_number	1
_symmetry_cell_setting	triclinic
loop_
_symmetry_equiv_pos_as_xyz
  x,y,z
_cell_length_a	12.759401
_cell_length_b	17.077402
_cell_length_c	12.759401
_cell_angle_alpha	89.986096
_cell_angle_beta	90.005232
_cell_angle_gamma	89.975592
loop_
_atom_site_label
_atom_site_type_symbol
_atom_site_fract_x
_atom_site_fract_y
_atom_site_fract_z
Zn1	Zn	1.606044	0.312599	0.593989
Zn2	Zn	2.106044	0.812599	1.093989
Zn3	Zn	1.605958	0.443838	0.418296
Zn4	Zn	2.105958	0.943838	0.918296
Zn5	Zn	1.430391	0.312593	0.418324
Zn6	Zn	1.930391	0.812593	0.918324
Zn7	Zn	1.430309	0.443831	0.593933
Zn8	Zn	1.930309	0.943831	1.093933
O9	O	1.518175	0.378215	0.506136
O10	O	2.018175	0.878215	1.006136
O11	O	1.753053	0.330014	0.570695
O12	O	2.253053	0.830014	1.070695
O13	O	1.582667	0.426428	0.271279
O14	O	2.082667	0.926428	0.771279
O15	O	1.453761	0.202747	0.441662
O16	O	1.953761	0.702747	0.941662
O17	O	1.752990	0.426434	0.441614
O18	O	2.252990	0.926434	0.941614
O19	O	1.582813	0.202752	0.570722
O20	O	2.082813	0.702752	1.070722
O21	O	1.453678	0.330004	0.271300
O22	O	1.953678	0.830004	0.771300
O23	O	1.283359	0.329997	0.441608
O24	O	1.783359	0.829997	0.941608
O25	O	1.453623	0.426422	0.740962
O26	O	1.953623	0.926422	1.240962
O27	O	1.283299	0.426416	0.570627
O28	O	1.783299	0.926416	1.070627
O29	O	1.582734	0.330007	0.741003
O30	O	2.082734	0.830007	1.241003
O31	O	1.582588	0.553684	0.441560
O32	O	2.082588	1.053684	0.941560
O33	O	1.453539	0.553678	0.570600
O34	O	1.953539	1.053678	1.070600
C35	C	1.518074	0.582163	0.506094
C36	C	2.018074	1.082163	1.006094
C37	C	1.518127	0.669413	0.506111
C38	C	2.018127	1.169413	1.006111
C39	C	1.245208	0.378206	0.506115
C40	C	1.745208	0.878206	1.006115
C41	C	1.128431	0.378220	0.506131
C42	C	1.628431	0.878220	1.006131
C43	C	1.518179	0.378214	0.780169
C44	C	2.018179	0.878214	1.280169
C45	C	1.518180	0.378214	0.896946
C46	C	2.018180	0.878214	1.396946
C47	C	1.073566	0.428502	0.573206
C48	C	1.573566	0.928502	1.073206
C49	C	0.963842	0.428505	0.573226
C50	C	1.463842	0.928505	1.073226
C51	C	0.963858	0.327942	0.439089
C52	C	1.463858	0.827942	0.939089
C53	C	1.073581	0.327936	0.439074
C54	C	1.573581	0.827936	0.939074
C55	C	0.813906	0.456705	0.697084
C56	C	1.313906	0.956705	1.197084
C57	C	0.759037	0.507000	0.764149
C58	C	1.259037	1.007000	1.264149
C59	C	0.794616	0.583610	0.780090
C60	C	1.294616	1.083610	1.280090
C61	C	0.885062	0.609942	0.728949
C62	C	1.385062	1.109942	1.228949
C63	C	0.939926	0.559652	0.661876
C64	C	1.439926	1.059652	1.161876
C65	C	0.904349	0.483030	0.645956
C66	C	1.404349	0.983030	1.145956
C67	C	1.223518	0.299744	0.315215
C68	C	1.723518	0.799744	0.815215
C69	C	1.278383	0.249457	0.248136
C70	C	1.778383	0.749457	0.748136
C71	C	1.242807	0.172846	0.232185
C72	C	1.742807	0.672846	0.732185
C73	C	1.152357	0.146517	0.283307
C74	C	1.652357	0.646517	0.783307
C75	C	1.097492	0.196803	0.350386
C76	C	1.597492	0.696803	0.850386
C77	C	1.133076	0.273414	0.366339
C78	C	1.633076	0.773414	0.866339
C79	C	1.792209	0.378225	0.506157
C80	C	2.292209	0.878225	1.006157
C81	C	1.908985	0.378230	0.506167
C82	C	2.408985	0.878230	1.006167
C83	C	1.518306	0.173471	0.506201
C84	C	2.018306	0.673471	1.006201
C85	C	1.518361	0.086221	0.506229
C86	C	2.018361	0.586221	1.006229
C87	C	1.585391	0.710380	0.438992
C88	C	2.085391	1.210380	0.938992
C89	C	1.585442	0.792360	0.439019
C90	C	2.085442	1.292360	0.939019
C91	C	1.518223	0.833372	0.506160
C92	C	2.018223	1.333372	1.006160
C93	C	1.450956	0.792400	0.573286
C94	C	1.950956	1.292400	1.073286
C95	C	1.450911	0.710421	0.573264
C96	C	1.950911	1.210421	1.073264
C97	C	1.451054	0.963270	0.573326
C98	C	1.951054	1.463270	1.073326
C99	C	1.451097	1.045254	0.573348
C100	C	1.951097	1.545254	1.073348
C101	C	1.585585	1.045209	0.439081
C102	C	2.085585	1.545209	0.939081
C103	C	1.585539	0.963230	0.439059
C104	C	2.085539	1.463230	0.939059
C105	C	1.518271	0.922263	0.506184
C106	C	2.018271	1.422263	1.006184
C107	C	1.585391	0.328019	1.061562
C108	C	2.085391	0.828019	1.561562
C109	C	1.585401	0.328018	0.951838
C110	C	2.085401	0.828018	1.451838
C111	C	1.450954	0.428418	0.951783
C112	C	1.950954	0.928418	1.451783
C113	C	1.450951	0.428422	1.061506
C114	C	1.950951	0.928422	1.561506
C115	C	1.709328	0.299973	0.801913
C116	C	2.209328	0.799973	1.301913
C117	C	1.776542	0.249762	0.747079
C118	C	2.276542	0.749762	1.247079
C119	C	1.792722	0.173170	0.782721
C120	C	2.292722	0.673170	1.282721
C121	C	1.741672	0.146774	0.873195
C122	C	2.241672	0.646774	1.373195
C123	C	1.674451	0.196981	0.928023
C124	C	2.174451	0.696981	1.428023
C125	C	1.658291	0.273583	0.892383
C126	C	2.158291	0.773583	1.392383
C127	C	1.327022	0.456459	1.211432
C128	C	1.827022	0.956459	1.711432
C129	C	1.259794	0.506662	1.266263
C130	C	1.759794	1.006662	1.766263
C131	C	1.243604	0.583255	1.230623
C132	C	1.743604	1.083255	1.730623
C133	C	1.294635	0.609649	1.140145
C134	C	1.794635	1.109649	1.640145
C135	C	1.361863	0.559445	1.085315
C136	C	1.861863	1.059445	1.585315
C137	C	1.378055	0.482853	1.120962
C138	C	1.878055	0.982853	1.620962
C139	C	1.518165	0.378230	1.233168
C140	C	2.018165	0.878230	1.733168
C141	C	1.518168	0.378217	1.116392
C142	C	2.018168	0.878217	1.616392
H143	H	1.118222	0.469445	0.627810
H144	H	1.618222	0.969445	1.127810
O145	O	1.657897	0.273881	1.120766
O146	O	2.157897	0.773881	1.620766
H147	H	1.704651	0.238982	1.064200
H148	H	2.204651	0.738982	1.564200
O149	O	1.759104	0.064158	0.911637
O150	O	2.259104	0.564158	1.411637
H151	H	1.843511	0.055506	0.929240
H152	H	2.343511	0.555506	1.429240
O153	O	0.999931	0.168419	0.405535
O154	O	1.499931	0.668419	0.905535
H155	H	1.019805	0.117463	0.455773
H156	H	1.519805	0.617463	0.955773
O157	O	1.113977	0.063883	0.266115
O158	O	1.613977	0.563883	0.766115
H159	H	1.167329	0.033336	0.210893
H160	H	1.667329	0.533336	0.710893
H161	H	0.685396	0.485553	0.805789
H162	H	1.185396	0.985553	1.305789
H163	H	1.396280	0.929917	0.627991
H164	H	1.896280	1.429917	1.127991
H165	H	1.396139	0.677066	0.627920
H166	H	1.896139	1.177066	1.127920
O167	O	1.378445	0.836636	0.645691
O168	O	1.878445	1.336636	1.145691
H169	H	1.425439	0.873949	0.699189
H170	H	1.925439	1.373949	1.199189
H171	H	1.396382	1.078644	0.628039
H172	H	1.896382	1.578644	1.128039
O173	O	1.619395	0.168526	1.025605
O174	O	2.119395	0.668526	1.525605
H175	H	1.641939	0.106829	1.041183
H176	H	2.141939	0.606829	1.541183
O177	O	1.658142	1.089389	0.366680
O178	O	2.158142	1.589389	0.866680
H179	H	1.740575	1.073587	0.384757
H180	H	2.240575	1.573587	0.884757
H181	H	1.640214	0.825712	0.384363
H182	H	2.140214	1.325712	0.884363
H183	H	1.847450	0.132288	0.738067
H184	H	2.347450	0.632288	1.238067
O185	O	0.904682	0.273736	0.366742
O186	O	1.404682	0.773736	0.866742
H187	H	0.854700	0.233861	0.413851
H188	H	1.354700	0.733861	0.913851
H189	H	0.784937	0.394320	0.684122
H190	H	1.284937	0.894320	1.184122
H191	H	1.818107	0.271261	0.673415
H192	H	2.318107	0.771261	1.173415
H193	H	1.013565	0.581091	0.620238
H194	H	1.513565	1.081091	1.120238
H195	H	1.696172	0.362343	0.772891
H196	H	2.196172	0.862343	1.272891
O197	O	1.378445	0.482556	0.892587
O198	O	1.878445	0.982556	1.392587
H199	H	1.389729	0.474115	0.807078
H200	H	1.889729	0.974115	1.307078
H201	H	1.340205	0.394091	1.240463
H202	H	1.840205	0.894091	1.740463
O203	O	1.204751	0.478201	1.363854
O204	O	1.704751	0.978201	1.863854
H205	H	1.227315	0.416510	1.379439
H206	H	1.727315	0.916510	1.879439
H207	H	0.914016	0.672329	0.741925
H208	H	1.414016	1.172329	1.241925
H209	H	0.749934	0.624559	0.834697
H210	H	1.249934	1.124559	1.334697
H211	H	1.403416	0.580942	1.011644
H212	H	1.903416	1.080942	1.511644
H213	H	1.287484	0.131906	0.177554
H214	H	1.787484	0.631906	0.677554
O215	O	1.375943	0.277850	0.192993
O216	O	1.875943	0.777850	0.692993
H217	H	1.391478	0.339568	0.215364
H218	H	1.891478	0.839568	0.715364
H219	H	1.281454	0.672018	1.111127
H220	H	1.781454	1.172018	1.611127
H221	H	1.188890	0.624140	1.275298
H222	H	1.688890	1.124140	1.775298
H223	H	1.640123	0.676993	0.384314
H224	H	2.140123	1.176993	0.884314
O225	O	1.658041	0.918990	0.366649
O226	O	2.158041	1.418990	0.866649
H227	H	1.704834	0.961248	0.319985
H228	H	2.204834	1.461248	0.819985
H229	H	1.252500	0.362126	0.328207
H230	H	1.752500	0.862126	0.828207
