data_functionalizedCrystal
_audit_creation_method	'MofGen! by Chris Wilmer'
_symmetry_space_group_name_H-M	'P1'
_symmetry_Int_Tables_number	1
_symmetry_cell_setting	triclinic
loop_
_symmetry_equiv_pos_as_xyz
  x,y,z
_cell_length_a	10.968094
_cell_length_b	10.967829
_cell_length_c	15.186229
_cell_angle_alpha	77.868373
_cell_angle_beta	102.124092
_cell_angle_gamma	87.247546
loop_
_atom_site_label
_atom_site_type_symbol
_atom_site_fract_x
_atom_site_fract_y
_atom_site_fract_z
O1	O	1.657126	0.174990	0.151660
O2	O	1.293988	0.191751	0.094015
O3	O	1.483931	0.001792	0.151666
O4	O	1.467182	0.364949	0.094009
O5	O	1.483918	0.001789	0.298121
O6	O	1.293975	0.191749	0.240470
O7	O	1.657113	0.174987	0.298116
Zn8	Zn	1.475542	0.183367	0.292546
Zn9	Zn	1.475559	0.183371	0.099584
O10	O	1.467170	0.364946	0.240465
C11	C	1.247483	0.190532	0.160372
C12	C	1.108934	0.186887	0.139902
C13	C	1.482705	-0.044710	0.231764
C14	C	1.479056	-0.183265	0.252233
C15	C	0.903954	0.181481	0.185484
C16	C	1.047150	0.185257	0.206648
C17	C	1.477436	-0.245030	0.185489
C18	C	1.473665	-0.388235	0.206643
C19	C	1.703618	0.176206	0.231756
C20	C	1.842167	0.179851	0.252221
C21	C	1.468396	0.411448	0.160365
C22	C	1.472045	0.550003	0.139890
N23	N	1.475540	0.183364	0.424239
N24	N	1.475571	0.183364	-0.032106
C25	C	1.559676	0.099279	0.675489
C26	C	1.559680	0.099276	0.767680
C27	C	1.391426	0.267454	0.716635
C28	C	1.391417	0.267449	0.624447
C29	C	1.475549	0.183364	0.603877
C30	C	1.475562	0.183365	0.788256
C31	C	1.475565	0.183362	0.888213
C32	C	1.475544	0.183364	0.503914
H33	H	0.850840	0.180074	0.112681
C34	C	1.038038	0.185280	0.042789
C35	C	0.950191	0.290500	0.008877
C36	C	0.884872	0.289071	-0.080583
H37	H	0.996035	0.111377	0.044266
H38	H	1.095327	0.186860	0.003622
H39	H	0.892910	0.288909	0.048033
H40	H	0.992161	0.364419	0.007377
H41	H	0.942161	0.290652	-0.119749
H42	H	0.842876	0.215164	-0.079096
H43	H	0.825269	0.360467	-0.103606
H44	H	1.628179	0.030809	0.658745
C45	C	1.118137	0.186930	0.303725
C46	C	1.206025	0.081740	0.337616
C47	C	1.271453	0.083247	0.427033
H48	H	1.060955	0.185357	0.342957
H49	H	1.160107	0.260877	0.302154
H50	H	1.164057	0.007811	0.339194
H51	H	1.263233	0.083291	0.298411
H52	H	1.313423	0.157195	0.425462
H53	H	1.214261	0.081677	0.466257
H54	H	1.331099	0.011884	0.450036
C55	C	0.913158	0.181524	0.349293
C56	C	1.001046	0.076334	0.383184
C57	C	1.066474	0.077841	0.472601
H58	H	0.855976	0.179951	0.388524
H59	H	0.955129	0.255471	0.347721
H60	H	0.959078	0.002405	0.384761
H61	H	1.058254	0.077885	0.343978
H62	H	1.108444	0.151789	0.471030
H63	H	1.009282	0.076271	0.511824
H64	H	1.126120	0.006478	0.495604
C65	C	1.479142	-0.173997	0.088426
C66	C	1.373967	-0.086093	0.054534
C67	C	1.375516	-0.020623	-0.034870
H68	H	1.477584	-0.231158	0.049183
H69	H	1.553092	-0.132031	0.090017
H70	H	1.300036	-0.128057	0.052937
H71	H	1.375503	-0.028906	0.093752
H72	H	1.449466	0.021343	-0.033280
H73	H	1.373961	-0.077793	-0.074105
H74	H	1.304163	0.039035	-0.057874
C75	C	1.477225	-0.254337	0.349260
C76	C	1.473881	-0.382250	0.350957
C77	C	1.472204	-0.447758	0.440326
H78	H	1.405153	-0.224316	0.366651
H79	H	1.550448	-0.242042	0.391342
H80	H	1.400666	-0.394537	0.308889
H81	H	1.545947	-0.412308	0.333583
H82	H	1.545426	-0.435463	0.482408
H83	H	1.400131	-0.417726	0.457710
H84	H	1.469946	-0.534554	0.441492
C85	C	1.651161	0.007931	0.845302
C86	C	1.724853	-0.065683	0.807550
C87	C	1.809152	-0.149837	0.879027
H88	H	1.605980	-0.044547	0.882381
H89	H	1.703558	0.053266	0.882311
H90	H	1.672463	-0.111015	0.770557
H91	H	1.770061	-0.013240	0.770479
H92	H	1.861549	-0.104502	0.916036
H93	H	1.763961	-0.202306	0.916102
H94	H	1.859170	-0.199786	0.853423
C95	C	1.473618	-0.379019	0.042783
C96	C	1.368383	-0.291186	0.008937
C97	C	1.369750	-0.225787	-0.080522
H98	H	1.472019	-0.436231	0.003574
H99	H	1.547529	-0.337003	0.044270
H100	H	1.294491	-0.333200	0.007444
H101	H	1.369961	-0.233949	0.048120
H102	H	1.443661	-0.183770	-0.079034
H103	H	1.368154	-0.283007	-0.119722
H104	H	1.298356	-0.166177	-0.103494
C105	C	1.300219	0.358953	0.546726
C106	C	1.321527	0.481771	0.553717
C107	C	1.237553	0.566089	0.482132
H108	H	1.216773	0.344813	0.551288
H109	H	1.312267	0.346989	0.488856
H110	H	1.309469	0.493729	0.611573
H111	H	1.404958	0.495950	0.549144
H112	H	1.249601	0.554125	0.424262
H113	H	1.154112	0.551938	0.486701
H114	H	1.252007	0.649430	0.486861
H115	H	1.472252	-0.441368	0.279449
H116	H	1.322929	0.335916	0.733393
