data_functionalizedCrystal
_audit_creation_method	'MofGen! by Chris Wilmer'
_symmetry_space_group_name_H-M	'P1'
_symmetry_Int_Tables_number	1
_symmetry_cell_setting	triclinic
loop_
_symmetry_equiv_pos_as_xyz
  x,y,z
_cell_length_a	18.101398
_cell_length_b	18.101397
_cell_length_c	16.120297
_cell_angle_alpha	87.130973
_cell_angle_beta	87.127415
_cell_angle_gamma	90.018196
loop_
_atom_site_label
_atom_site_type_symbol
_atom_site_fract_x
_atom_site_fract_y
_atom_site_fract_z
Zn1	Zn	1.110945	-0.316129	0.471491
Zn2	Zn	1.117142	-0.433693	0.332074
Zn3	Zn	0.993381	-0.309865	0.332082
Zn4	Zn	0.987081	-0.439926	0.471424
O5	O	1.052137	-0.374903	0.401768
O6	O	1.215399	-0.331738	0.453022
O7	O	1.105955	-0.412037	0.215413
O8	O	1.009020	-0.207065	0.350607
O9	O	1.219951	-0.418111	0.350593
O10	O	1.095393	-0.211667	0.453030
O11	O	1.015029	-0.321061	0.215419
O12	O	0.888914	-0.327105	0.350542
O13	O	0.998281	-0.428734	0.588095
O14	O	0.884285	-0.422660	0.452916
O15	O	1.089284	-0.337781	0.588144
O16	O	1.099845	-0.538151	0.350527
O17	O	1.004290	-0.542730	0.452908
C18	C	0.859729	-0.374880	0.401723
C19	C	0.777415	-0.374888	0.401723
C20	C	0.626704	-0.374905	0.401761
C21	C	0.598234	-0.314707	0.337457
C22	C	0.512606	-0.314501	0.337668
C23	C	0.478320	-0.374921	0.401796
C24	C	0.505496	-0.358053	0.489756
C25	C	0.591158	-0.357611	0.489363
C26	C	0.596146	-0.452154	0.378880
C27	C	0.510580	-0.451655	0.376963
C28	C	0.394460	-0.374932	0.401821
C29	C	0.710565	-0.374893	0.401741
C30	C	1.052076	-0.567312	0.401728
C31	C	1.052116	-0.649627	0.401738
C32	C	1.052207	-0.948721	0.401814
C33	C	1.112176	-0.914476	0.337227
C34	C	1.112366	-0.828865	0.337394
C35	C	1.052162	-0.800337	0.401776
C36	C	1.069361	-0.835305	0.489653
C37	C	1.069818	-0.920934	0.489301
C38	C	0.974853	-0.916212	0.379285
C39	C	0.975328	-0.830474	0.377324
C40	C	1.052135	-0.716477	0.401759
C41	C	1.052235	-1.032581	0.401836
C42	C	1.245297	-0.374928	0.401814
C43	C	1.327610	-0.374938	0.401833
C44	C	1.042389	-0.384651	0.619215
C45	C	1.038234	-0.388805	0.711878
C46	C	1.052218	-0.181744	0.401827
C47	C	1.052253	-0.099431	0.401852
C48	C	1.061890	-0.365140	0.185167
C49	C	1.066188	-0.360777	0.092505
C50	C	1.030622	-0.396373	0.881534
C51	C	1.073798	-0.353212	0.922854
C52	C	1.069563	-0.357422	1.017257
C53	C	1.034857	-0.392163	0.787123
H54	H	0.621723	-0.324608	0.272030
H55	H	0.958442	-0.935034	0.316316
H56	H	0.610281	-0.301271	0.508702
O57	O	1.126985	-0.300085	0.875805
H58	H	1.113583	-0.242685	0.892451
H59	H	0.990482	-0.436485	0.917054
H60	H	0.619095	-0.257707	0.352453
O61	O	0.475942	-0.284282	0.515827
H62	H	0.522874	-0.246835	0.525890
O63	O	0.488604	-0.327814	0.251288
H64	H	0.509800	-0.382177	0.231923
O65	O	0.484570	-0.238582	0.357792
H66	H	0.532189	-0.201875	0.367420
H67	H	0.609680	-0.399782	0.538934
O68	O	0.620227	-0.511502	0.440903
H69	H	0.653798	-0.486151	0.487800
H70	H	0.482945	-0.400735	0.538994
H71	H	1.102064	-0.804967	0.272235
H72	H	0.493142	-0.464452	0.312229
O73	O	0.628458	-0.473591	0.295332
H74	H	0.666663	-0.429419	0.269182
H75	H	0.962288	-0.807300	0.312653
H76	H	0.487247	-0.498566	0.420353
H77	H	1.102043	-0.932174	0.271872
H78	H	1.169246	-0.936611	0.351962
H79	H	1.169746	-0.808996	0.352301
O80	O	1.144559	-0.948470	0.514567
H81	H	1.180038	-0.900622	0.526918
H82	H	1.026846	-0.817171	0.539070
O83	O	1.014196	-0.951374	0.555217
H84	H	1.029379	-0.933476	0.616996
O85	O	1.143268	-0.808190	0.515494
H86	H	1.142082	-0.747055	0.518263
O87	O	0.913375	-0.804748	0.435064
H88	H	0.936483	-0.769931	0.482307
O89	O	0.915698	-0.946003	0.441470
H90	H	0.941222	-0.983763	0.488213
