data_functionalizedCrystal
_audit_creation_method	'MofGen! by Chris Wilmer'
_symmetry_space_group_name_H-M	'P1'
_symmetry_Int_Tables_number	1
_symmetry_cell_setting	triclinic
loop_
_symmetry_equiv_pos_as_xyz
  x,y,z
_cell_length_a	19.188905
_cell_length_b	19.188930
_cell_length_c	18.266242
_cell_angle_alpha	90.006796
_cell_angle_beta	90.013469
_cell_angle_gamma	83.139668
loop_
_atom_site_label
_atom_site_type_symbol
_atom_site_fract_x
_atom_site_fract_y
_atom_site_fract_z
O1	O	0.926158	0.087081	0.061010
O2	O	0.722844	0.098834	0.060986
O3	O	0.830369	-0.008699	0.060984
O4	O	0.818634	0.194613	0.061011
O5	O	0.830355	-0.008695	-0.060778
O6	O	0.722831	0.098837	-0.060776
O7	O	0.926144	0.087084	-0.060752
Zn8	Zn	0.824485	0.092961	-0.080097
Zn9	Zn	0.824504	0.092957	0.080330
O10	O	0.818620	0.194617	-0.060751
C11	C	0.829982	-0.034708	0.000101
C12	C	0.828841	-0.112213	0.000095
C13	C	0.696826	0.098458	0.000102
C14	C	0.619321	0.097324	0.000092
C15	C	0.582937	0.096777	0.066466
C16	C	0.510113	0.095704	0.066475
C17	C	0.473678	0.095164	0.000106
C18	C	0.510071	0.095714	-0.066277
C19	C	0.582892	0.096794	-0.066284
N20	N	0.364652	0.053737	-0.049292
N21	N	0.295475	0.052709	-0.049280
C22	C	0.254272	0.091911	0.000123
N23	N	0.284859	0.132171	0.049526
N24	N	0.354043	0.133195	0.049517
C25	C	0.394716	0.093993	0.000106
C26	C	0.138923	0.090202	0.066512
C27	C	0.066098	0.089133	0.066518
C28	C	0.066058	0.089136	-0.066236
C29	C	0.138881	0.090212	-0.066240
C30	C	0.175310	0.090742	0.000136
C31	C	0.891933	-0.157142	0.000099
C32	C	0.890861	-0.229966	0.000110
C33	C	0.826694	-0.257857	0.000103
C34	C	0.763594	-0.212917	0.000103
C35	C	0.764668	-0.140095	0.000099
N36	N	0.777641	-0.365856	-0.041341
N37	N	0.776626	-0.435035	-0.041338
C38	C	0.823456	-0.477265	0.000118
N39	N	0.871350	-0.447705	0.041561
N40	N	0.872368	-0.378520	0.041556
C41	C	0.825523	-0.336819	0.000108
C42	C	0.885390	-0.601159	0.000135
C43	C	0.884315	-0.673984	0.000151
C44	C	0.757047	-0.656933	0.000137
C45	C	0.758123	-0.584110	0.000128
C46	C	0.822296	-0.556228	0.000124
C47	C	0.952163	0.087460	0.000134
C48	C	1.029668	0.088594	0.000148
C49	C	0.819007	0.220626	0.000134
C50	C	0.820148	0.298131	0.000145
N51	N	0.824478	0.092964	-0.189583
C52	C	0.866731	0.135180	-0.771849
C53	C	0.866724	0.135187	-0.695204
C54	C	0.824510	0.092950	-0.656896
C55	C	0.782287	0.050715	-0.695240
C56	C	0.782290	0.050715	-0.771883
N57	N	0.822819	0.031789	-0.536567
N58	N	0.822820	0.031792	-0.463759
C59	C	0.824497	0.092950	-0.425974
N60	N	0.826186	0.154106	-0.463747
N61	N	0.826189	0.154103	-0.536562
C62	C	0.824501	0.092946	-0.573789
C63	C	0.866705	0.135193	-0.304532
C64	C	0.866693	0.135201	-0.227886
C65	C	0.782260	0.050723	-0.227923
C66	C	0.782269	0.050721	-0.304568
C67	C	0.824495	0.092954	-0.342868
N68	N	0.824516	0.092948	0.189817
H69	H	0.480483	0.095260	0.120527
H70	H	0.713289	-0.103513	0.000096
H71	H	0.942239	-0.266555	0.000116
O72	O	0.947680	-0.573984	0.000238
C73	C	0.952118	-0.532371	0.063304
H74	H	0.897032	-0.514059	0.084319
H75	H	0.979801	-0.484771	0.049120
H76	H	0.983110	-0.564632	0.107471
H77	H	0.901068	0.169596	-0.196675
H78	H	0.747896	0.016327	-0.335780
H79	H	0.901114	0.169572	-0.803028
O80	O	0.741240	0.009785	-0.657951
C81	C	0.693458	0.052485	-0.613639
H82	H	0.715028	0.104233	-0.602143
H83	H	0.685763	0.024437	-0.559750
H84	H	0.640945	0.063313	-0.643191
H85	H	0.480401	0.095276	-0.120315
H86	H	0.935694	-0.710565	0.000158
H87	H	0.612516	0.097240	-0.120336
O88	O	0.030687	0.088510	0.130951
C89	C	-0.003322	0.027423	0.134921
H90	H	-0.011548	0.007113	0.077289
H91	H	-0.056343	0.040261	0.163019
H92	H	0.030425	-0.014500	0.167665
H93	H	0.711349	-0.235631	0.000099
O94	O	0.694775	-0.684134	0.000101
C95	C	0.707355	-0.758044	0.000129
H96	H	0.761891	-0.775320	-0.022919
H97	H	0.666302	-0.780283	-0.035220
H98	H	0.704044	-0.778293	0.058547
H99	H	0.747912	0.016324	-0.803094
O100	O	0.618210	0.097325	0.131007
C101	C	0.570476	0.096594	0.189593
H102	H	0.515598	0.117925	0.170142
H103	H	0.586987	0.130792	0.236021
H104	H	0.570244	0.040476	0.209991
H105	H	0.901085	0.169586	-0.335718
H106	H	0.168584	0.090641	0.120559
O107	O	0.030663	0.088483	-0.130691
C108	C	-0.003371	0.027411	-0.134657
H109	H	0.024248	-0.014517	-0.096994
H110	H	-0.001491	0.007104	-0.193363
H111	H	-0.060389	0.040261	-0.116823
O112	O	0.174126	0.090702	-0.130783
C113	C	0.126353	0.090013	-0.189362
H114	H	0.077411	0.067144	-0.169902
H115	H	0.151922	0.056436	-0.235790
H116	H	0.111096	0.145900	-0.209763
O117	O	0.954330	-0.130174	0.000131
C118	C	1.009787	-0.185453	0.000118
H119	H	0.990369	-0.234860	0.023172
H120	H	1.054607	-0.170370	0.035470
H121	H	1.029227	-0.195827	-0.058296
H122	H	0.706747	-0.547527	0.000121
O123	O	0.907800	0.176229	-0.658069
C124	C	0.945055	0.213520	-0.708309
H125	H	0.949218	0.184609	-0.762947
H126	H	0.999942	0.217701	-0.686145
H127	H	0.916130	0.268404	-0.716458
H128	H	0.747885	0.016336	-0.196734
