data_functionalizedCrystal
_audit_creation_method	'MofGen! by Chris Wilmer'
_symmetry_space_group_name_H-M	'P1'
_symmetry_Int_Tables_number	1
_symmetry_cell_setting	triclinic
loop_
_symmetry_equiv_pos_as_xyz
  x,y,z
_cell_length_a	10.654562
_cell_length_b	10.654550
_cell_length_c	9.130313
_cell_angle_alpha	89.999890
_cell_angle_beta	89.996930
_cell_angle_gamma	84.487503
loop_
_atom_site_label
_atom_site_type_symbol
_atom_site_fract_x
_atom_site_fract_y
_atom_site_fract_z
O1	O	1.667825	0.176469	-0.121892
O2	O	1.302348	0.193259	-0.121873
O3	O	1.493490	0.002125	-0.121877
O4	O	1.476683	0.367603	-0.121887
O5	O	1.493487	0.002130	0.121721
O6	O	1.302346	0.193264	0.121726
O7	O	1.667822	0.176474	0.121707
Cu8	Cu	1.485084	0.184869	0.143959
Cu9	Cu	1.485087	0.184863	-0.144125
O10	O	1.476681	0.367608	0.121711
C11	C	1.255549	0.192025	-0.000071
C12	C	1.116107	0.188327	-0.000064
C13	C	1.050575	0.186605	0.132710
C14	C	0.919553	0.183140	0.132686
C15	C	0.919605	0.183125	-0.132899
C16	C	1.050626	0.186580	-0.132873
C17	C	1.050543	0.186619	0.286044
C18	C	0.919521	0.183154	0.286019
C19	C	1.492254	-0.044671	-0.000080
C20	C	1.488563	-0.184114	-0.000085
C21	C	1.601103	-0.263595	-0.000086
C22	C	1.597627	-0.394615	-0.000096
C23	C	1.369059	-0.366662	-0.000097
C24	C	1.372537	-0.235644	-0.000098
C25	C	1.733066	-0.279734	-0.000079
C26	C	1.729589	-0.410755	-0.000089
C27	C	1.714621	0.177708	-0.000098
C28	C	1.854064	0.181406	-0.000115
C29	C	1.477916	0.414403	-0.000090
C30	C	1.481608	0.553847	-0.000094
N31	N	1.485091	0.184873	0.346582
N32	N	1.485089	0.184850	-0.346748
C33	C	1.569750	0.100268	0.423232
C34	C	1.569747	0.100253	0.576568
C35	C	1.400421	0.269459	0.576592
C36	C	1.400419	0.269467	0.423258
C37	C	1.667513	0.002582	0.423219
C38	C	1.667510	0.002567	0.576556
H39	H	0.866275	0.181703	-0.241027
H40	H	1.331483	0.338332	0.639038
H41	H	1.646070	-0.093952	0.381603
C42	C	1.784090	-0.472501	-0.141838
H43	H	1.810685	-0.409326	-0.205000
H44	H	1.721287	-0.515214	-0.189451
H45	H	1.854124	-0.531069	-0.118409
C46	C	1.789825	-0.231583	0.142001
H47	H	1.790286	-0.142558	0.137162
H48	H	1.873710	-0.269379	0.153246
H49	H	1.740471	-0.253087	0.223255
C50	C	1.113045	0.069369	0.365574
H51	H	1.049840	0.018795	0.398252
H52	H	1.159444	0.095037	0.447326
H53	H	1.168399	0.021923	0.300183
H54	H	1.280895	-0.170935	-0.000117
H55	H	1.274594	-0.408635	-0.000109
H56	H	1.103980	0.187963	-0.240991
C57	C	1.090506	0.310344	0.350331
H58	H	1.017638	0.363047	0.378948
H59	H	1.135601	0.352291	0.278464
H60	H	1.142922	0.292018	0.433267
H61	H	1.779310	-0.452511	0.101852
H62	H	0.889932	0.091561	0.333601
C63	C	1.790693	0.043895	0.358953
H64	H	1.845551	0.062282	0.436439
H65	H	1.772182	0.117027	0.300394
H66	H	1.830353	-0.022153	0.300392
C67	C	0.856981	0.300414	0.365510
H68	H	0.920171	0.350996	0.398206
H69	H	0.810552	0.274753	0.447249
H70	H	0.801650	0.347847	0.300092
H71	H	1.331472	0.338348	0.360850
C72	C	1.626313	-0.120670	0.640806
H73	H	1.607975	-0.175544	0.563313
H74	H	1.553175	-0.102231	0.699378
H75	H	1.692397	-0.160278	0.699351
C76	C	1.802781	-0.240062	-0.137791
H77	H	1.829082	-0.312655	-0.194437
H78	H	1.874442	-0.199277	-0.109480
H79	H	1.747810	-0.183791	-0.194433
C80	C	1.797875	0.031647	0.632788
H81	H	1.797870	0.031624	0.736841
H82	H	1.815758	0.112087	0.598126
H83	H	1.860423	-0.030850	0.598104
