data_functionalizedCrystal
_audit_creation_method	'MofGen! by Chris Wilmer'
_symmetry_space_group_name_H-M	'P1'
_symmetry_Int_Tables_number	1
_symmetry_cell_setting	triclinic
loop_
_symmetry_equiv_pos_as_xyz
  x,y,z
_cell_length_a	13.262390
_cell_length_b	13.262508
_cell_length_c	9.130307
_cell_angle_alpha	105.915023
_cell_angle_beta	74.081185
_cell_angle_gamma	88.760843
loop_
_atom_site_label
_atom_site_type_symbol
_atom_site_fract_x
_atom_site_fract_y
_atom_site_fract_z
O1	O	1.393295	0.141368	-0.620521
O2	O	1.087776	0.156740	-0.492691
O3	O	1.248222	-0.003701	-0.620515
O4	O	1.232849	0.301809	-0.492697
O5	O	1.248217	-0.003703	-0.376915
O6	O	1.087771	0.156739	-0.249091
O7	O	1.393289	0.141366	-0.376920
Cu8	Cu	1.240530	0.149052	-0.290763
Cu9	Cu	1.240536	0.149054	-0.578849
O10	O	1.232843	0.301808	-0.249096
C11	C	1.048665	0.155878	-0.355655
C12	C	0.932135	0.153299	-0.310262
C13	C	0.603677	0.146018	-0.713481
C14	C	0.713163	0.148436	-0.756135
C15	C	0.767912	0.149652	-0.644670
C16	C	0.713163	0.148449	-0.490545
C17	C	0.603668	0.146023	-0.447891
C18	C	0.767902	0.149657	-0.379079
C19	C	0.713154	0.148454	-0.224954
C20	C	0.603668	0.146029	-0.182307
C21	C	0.548920	0.144812	-0.293772
C22	C	0.877398	0.152084	-0.421734
C23	C	0.877388	0.152089	-0.156143
C24	C	0.767902	0.149671	-0.113489
C25	C	1.247358	-0.042809	-0.513952
C26	C	1.244779	-0.159335	-0.559350
C27	C	1.237492	-0.487821	-0.156154
C28	C	1.239907	-0.378337	-0.113496
C29	C	1.241125	-0.323581	-0.224956
C30	C	1.239928	-0.378320	-0.379082
C31	C	1.237504	-0.487813	-0.421741
C32	C	1.241138	-0.323574	-0.490542
C33	C	1.239940	-0.378312	-0.644669
C34	C	1.237518	-0.487794	-0.687321
C35	C	1.236299	-0.542550	-0.575861
C36	C	1.243561	-0.214080	-0.447883
C37	C	1.243574	-0.214073	-0.713470
C38	C	1.241159	-0.323556	-0.756129
C39	C	1.432400	0.142228	-0.513960
C40	C	1.548930	0.144807	-0.559362
C41	C	1.233707	0.340915	-0.355662
C42	C	1.236287	0.457442	-0.310274
N43	N	1.240533	0.149050	-0.088142
N44	N	1.240541	0.149048	-0.781476
C45	C	1.382666	0.007021	-0.201347
C46	C	1.453739	-0.063991	-0.181284
C47	C	1.453750	-0.063992	-0.027955
C48	C	1.382677	0.007025	0.105321
C49	C	1.311604	0.078037	0.085258
C50	C	1.311603	0.078032	-0.068081
C51	C	1.169467	0.220060	0.198461
C52	C	1.169460	0.220067	0.045134
C53	C	1.098395	0.291076	0.331737
C54	C	1.027324	0.362095	0.311676
C55	C	1.027318	0.362093	0.158335
C56	C	1.098387	0.291079	0.025071
H57	H	0.459767	0.142847	-0.259049
Cl58	Cl	1.098389	0.291074	-0.167695
Cl59	Cl	1.241394	-0.309529	0.080261
Cl60	Cl	1.235997	-0.556604	-0.881072
Cl61	Cl	0.534845	0.144511	0.011449
Cl62	Cl	1.235939	-0.556658	-0.016044
Cl63	Cl	1.244159	-0.185943	-0.171323
H64	H	0.757733	0.149410	-0.881626
H65	H	1.234338	-0.631702	-0.610588
Cl66	Cl	0.946207	0.153609	-0.016011
H67	H	1.244558	-0.169490	-0.804227
Cl68	Cl	1.245069	-0.145280	-0.254133
H69	H	0.921963	0.153065	-0.547223
H70	H	0.559093	0.145017	-0.804223
Cl71	Cl	1.382677	0.007010	0.298078
H72	H	1.382673	0.007023	-0.326201
Cl73	Cl	1.239655	-0.392383	-0.949882
Cl74	Cl	0.937979	0.451357	0.479218
H75	H	0.969437	0.419916	0.142015
Cl76	Cl	0.905553	0.152698	-0.698293
H77	H	1.511604	-0.121814	-0.289811
Cl78	Cl	1.543095	-0.153270	-0.002732
H79	H	0.723310	0.148690	0.012002
H80	H	1.098402	0.291068	0.456584
