data_functionalizedCrystal
_audit_creation_method	'MofGen! by Chris Wilmer'
_symmetry_space_group_name_H-M	'P1'
_symmetry_Int_Tables_number	1
_symmetry_cell_setting	triclinic
loop_
_symmetry_equiv_pos_as_xyz
  x,y,z
_cell_length_a	17.000371
_cell_length_b	16.098524
_cell_length_c	17.019294
_cell_angle_alpha	96.942147
_cell_angle_beta	79.505866
_cell_angle_gamma	93.245953
loop_
_atom_site_label
_atom_site_type_symbol
_atom_site_fract_x
_atom_site_fract_y
_atom_site_fract_z
O1	O	1.059348	0.071515	0.031451
O2	O	1.392681	0.404849	0.364784
O3	O	1.726014	0.738182	0.698117
O4	O	0.827677	0.073576	0.060170
O5	O	1.161010	0.406909	0.393503
O6	O	1.494344	0.740242	0.726837
O7	O	0.949598	0.064249	-0.069822
O8	O	1.282931	0.397582	0.263512
O9	O	1.616264	0.730916	0.596845
O10	O	0.937427	0.080842	0.161443
O11	O	1.270760	0.414175	0.494776
O12	O	1.604094	0.747509	0.828109
O13	O	0.943220	-0.074686	-0.075699
O14	O	1.276553	0.258647	0.257634
O15	O	1.609887	0.591980	0.590968
O16	O	0.821299	-0.065360	0.054293
O17	O	1.154633	0.267974	0.387626
O18	O	1.487966	0.601307	0.720959
O19	O	1.052970	-0.067420	0.025573
O20	O	1.386303	0.265914	0.358907
O21	O	1.719637	0.599247	0.692240
Zn22	Zn	0.936122	-0.088449	0.039000
Zn23	Zn	1.269455	0.244885	0.372333
Zn24	Zn	1.602789	0.578218	0.705667
Zn25	Zn	0.944525	0.094604	0.046744
Zn26	Zn	1.277858	0.427938	0.380077
Zn27	Zn	1.611192	0.761271	0.713410
O28	O	0.931050	-0.058093	0.155565
O29	O	1.264383	0.275240	0.488898
O30	O	1.597716	0.608574	0.822232
C31	C	0.794838	0.004219	0.058774
C32	C	1.128171	0.337552	0.392107
C33	C	1.461504	0.670885	0.725441
C34	C	0.706489	0.004548	0.063361
C35	C	1.039822	0.337881	0.396694
C36	C	1.373156	0.671214	0.730028
C37	C	0.674311	-0.000518	-0.007227
C38	C	1.007644	0.332815	0.326106
C39	C	1.340978	0.666148	0.659440
C40	C	0.591298	-0.000203	-0.002912
C41	C	0.924631	0.333131	0.330421
C42	C	1.257964	0.666464	0.663755
C43	C	0.540463	0.005173	0.071991
C44	C	0.873797	0.338506	0.405325
C45	C	1.207130	0.671840	0.738658
C46	C	0.572646	0.010242	0.142585
C47	C	0.905980	0.343575	0.475918
C48	C	1.239313	0.676909	0.809251
C49	C	0.655659	0.009932	0.138269
C50	C	0.988992	0.343266	0.471603
C51	C	1.322325	0.676599	0.804936
C52	C	0.289354	0.006375	0.088661
C53	C	0.622687	0.339708	0.421994
C54	C	0.956020	0.673041	0.755327
C55	C	0.206336	0.006682	0.092971
C56	C	0.539670	0.340015	0.426304
C57	C	0.873003	0.673348	0.759637
C58	C	0.224993	-0.003762	-0.052526
C59	C	0.558327	0.329571	0.280807
C60	C	0.891660	0.662905	0.614140
C61	C	0.308006	-0.004076	-0.056835
C62	C	0.641339	0.329257	0.276498
C63	C	0.974673	0.662591	0.609831
C64	C	0.340182	0.000997	0.013758
C65	C	0.673516	0.334331	0.347091
C66	C	1.006849	0.667664	0.680425
C67	C	0.455610	0.005493	0.076404
C68	C	0.788943	0.338826	0.409737
C69	C	1.122277	0.672160	0.743070
C70	C	0.425034	0.000683	0.009345
C71	C	0.758368	0.334017	0.342679
C72	C	1.091701	0.667350	0.676012
N73	N	0.930393	-0.213377	0.033714
N74	N	1.263727	0.119956	0.367047
N75	N	1.597060	0.453289	0.700381
C76	C	0.976757	-0.253887	0.076529
C77	C	1.310090	0.079446	0.409862
C78	C	1.643423	0.412780	0.743196
C79	C	0.972760	-0.341342	0.072826
C80	C	1.306093	-0.008009	0.406159
C81	C	1.639426	0.325325	0.739492
C82	C	0.922395	-0.388286	0.026311
C83	C	1.255728	-0.054952	0.359644
C84	C	1.589061	0.278381	0.692978
C85	C	0.876030	-0.347770	-0.016509
C86	C	1.209363	-0.014437	0.316824
C87	C	1.542697	0.318896	0.650157
C88	C	0.880032	-0.260317	-0.012810
C89	C	1.213365	0.073016	0.320524
C90	C	1.546698	0.406349	0.653857
C91	C	0.907897	-0.652499	0.012902
C92	C	1.241230	-0.319165	0.346235
C93	C	1.574563	0.014168	0.679569
C94	C	0.903897	-0.739958	0.009208
C95	C	1.237230	-0.406624	0.342541
C96	C	1.570563	-0.073291	0.675874
C97	C	1.000628	-0.733523	0.098542
C98	C	1.333961	-0.400190	0.431875
C99	C	1.667295	-0.066857	0.765208
C100	C	1.004622	-0.646069	0.102241
C101	C	1.337955	-0.312735	0.435574
C102	C	1.671288	0.020598	0.768908
C103	C	0.958260	-0.605561	0.059417
C104	C	1.291593	-0.272228	0.392751
C105	C	1.624927	0.061106	0.726084
C106	C	0.918306	-0.477679	0.022526
C107	C	1.251640	-0.144345	0.355859
C108	C	1.584973	0.188988	0.689193
C109	C	0.962353	-0.516170	0.063198
C110	C	1.295687	-0.182837	0.396531
C111	C	1.629020	0.150497	0.729865
C112	C	1.085809	0.001939	0.026970
C113	C	1.419143	0.335272	0.360303
C114	C	1.752476	0.668606	0.693636
C115	C	1.174158	0.001615	0.022383
C116	C	1.507492	0.334949	0.355716
C117	C	1.840825	0.668282	0.689050
C118	C	0.945822	-0.007330	-0.102205
C119	C	1.279155	0.326004	0.231129
C120	C	1.612488	0.659337	0.564462
C121	C	0.944062	-0.013619	-0.189939
C122	C	1.277396	0.319714	0.143394
C123	C	1.610729	0.653047	0.476728
N124	N	0.950260	0.219533	0.052023
N125	N	1.283593	0.552866	0.385356
N126	N	1.616927	0.886199	0.718689
C127	C	0.946714	0.059159	-0.227949
C128	C	1.280047	0.392492	0.105385
C129	C	1.613381	0.725825	0.438718
C130	C	0.945056	0.053246	-0.310384
C131	C	1.278389	0.386580	0.022950
C132	C	1.611723	0.719913	0.356283
C133	C	0.940752	-0.025445	-0.354808
C134	C	1.274085	0.307888	-0.021475
C135	C	1.607418	0.641222	0.311858
C136	C	0.938097	-0.098228	-0.316793
C137	C	1.271431	0.235105	0.016541
C138	C	1.604764	0.568438	0.349874
C139	C	0.939750	-0.092315	-0.234358
C140	C	1.273083	0.241018	0.098975
C141	C	1.606417	0.574352	0.432308
C142	C	0.935583	-0.047088	-0.603867
C143	C	1.268916	0.286245	-0.270534
C144	C	1.602250	0.619579	0.062800
C145	C	0.933933	-0.052996	-0.686307
C146	C	1.267267	0.280338	-0.352974
C147	C	1.600600	0.613671	-0.019641
C148	C	0.940890	0.098480	-0.679892
C149	C	1.274224	0.431813	-0.346559
C150	C	1.607557	0.765147	-0.013226
C151	C	0.942547	0.104386	-0.597457
C152	C	1.275881	0.437719	-0.264124
C153	C	1.609214	0.771053	0.069209
C154	C	0.939889	0.031603	-0.559448
C155	C	1.273222	0.364936	-0.226115
C156	C	1.606555	0.698269	0.107219
C157	C	0.939059	-0.031490	-0.439071
C158	C	1.272393	0.301843	-0.105737
C159	C	1.605726	0.635176	0.227596
C160	C	0.941576	0.037649	-0.475186
C161	C	1.274909	0.370982	-0.141853
C162	C	1.608242	0.704316	0.191481
C163	C	0.934826	0.013487	0.187948
C164	C	1.268159	0.346821	0.521282
C165	C	1.601492	0.680154	0.854615
C166	C	0.936585	0.019782	0.275683
C167	C	1.269918	0.353116	0.609016
C168	C	1.603252	0.686449	0.942350
H169	H	0.414211	0.009869	0.137390
H170	H	0.747545	0.343203	0.470723
H171	H	1.080878	0.676536	0.804057
O172	O	0.517815	0.016036	0.223372
O173	O	0.851148	0.349370	0.556705
O174	O	1.184482	0.682703	0.890038
H175	H	0.531865	0.075111	0.259822
H176	H	0.865199	0.408444	0.593155
H177	H	1.198532	0.741778	0.926489
H178	H	0.935557	-0.095561	-0.475251
H179	H	1.268891	0.237772	-0.141918
H180	H	1.602224	0.571106	0.191416
O181	O	0.947191	0.189259	-0.549540
O182	O	1.280524	0.522592	-0.216206
O183	O	1.613857	0.855926	0.117127
H184	H	0.893922	0.196347	-0.500999
H185	H	1.227255	0.529680	-0.167666
H186	H	1.560589	0.863013	0.165667
H187	H	0.715695	-0.004899	-0.068222
H188	H	1.049029	0.328434	0.265112
H189	H	1.382362	0.661767	0.598445
O190	O	0.863985	-0.528316	-0.027641
O191	O	1.197319	-0.194983	0.305693
O192	O	1.530652	0.138350	0.639026
H193	H	0.832417	-0.485460	-0.056798
H194	H	1.165750	-0.152126	0.276536
H195	H	1.499083	0.181207	0.609869
O196	O	1.022768	-0.385033	0.119005
O197	O	1.356101	-0.051700	0.452339
O198	O	1.689434	0.281634	0.785672
H199	H	0.982883	-0.421650	0.162474
H200	H	1.316217	-0.088316	0.495807
H201	H	1.649550	0.245017	0.829141
O202	O	0.821707	-0.398392	-0.066685
O203	O	1.155041	-0.065059	0.266648
O204	O	1.488374	0.268275	0.599981
H205	H	0.777186	-0.435301	-0.027485
H206	H	1.110519	-0.101967	0.305848
H207	H	1.443852	0.231366	0.639182
H208	H	0.937579	-0.151579	-0.203410
H209	H	1.270913	0.181755	0.129923
H210	H	1.604246	0.515088	0.463257
H211	H	0.862879	-0.778177	-0.028670
H212	H	1.196213	-0.444844	0.304664
H213	H	1.529546	-0.111511	0.637997
H214	H	0.198787	-0.007883	-0.109999
H215	H	0.532120	0.325450	0.223334
H216	H	0.865453	0.658784	0.556667
O217	O	1.050636	-0.777211	0.144724
O218	O	1.383969	-0.443878	0.478057
O219	O	1.717303	-0.110544	0.811391
H220	H	1.114970	-0.761955	0.123828
H221	H	1.448303	-0.428622	0.457161
H222	H	1.781636	-0.095289	0.790494
H223	H	0.164947	0.011055	0.153969
H224	H	0.498281	0.344389	0.487303
H225	H	0.831614	0.677722	0.820636
O226	O	1.016674	-0.465542	0.113367
O227	O	1.350008	-0.132209	0.446700
O228	O	1.683341	0.201124	0.780033
H229	H	0.998721	-0.477707	0.177098
H230	H	1.332054	-0.144373	0.510431
H231	H	1.665388	0.188960	0.843764
H232	H	0.930424	-0.117079	-0.722476
H233	H	1.263757	0.216255	-0.389142
H234	H	1.597091	0.549588	-0.055809
H235	H	0.934588	-0.162301	-0.352969
H236	H	1.267921	0.171033	-0.019636
H237	H	1.601255	0.504366	0.313698
O238	O	0.556596	-0.005682	-0.079051
O239	O	0.889929	0.327651	0.254283
O240	O	1.223262	0.660985	0.587616
H241	H	0.579609	0.048373	-0.112378
H242	H	0.912942	0.381706	0.220955
H243	H	1.246276	0.715040	0.554289
O244	O	0.946214	0.122523	-0.427277
O245	O	1.279547	0.455857	-0.093944
O246	O	1.612880	0.789190	0.239390
H247	H	1.001327	0.128061	-0.400394
H248	H	1.334660	0.461394	-0.067061
H249	H	1.667994	0.794728	0.266272
O250	O	0.951348	0.144036	-0.180036
O251	O	1.284681	0.477369	0.153297
O252	O	1.618015	0.810702	0.486631
H253	H	1.006884	0.178448	-0.205148
H254	H	1.340218	0.511782	0.128185
H255	H	1.673551	0.845115	0.461519
O256	O	0.932736	-0.125586	-0.562879
O257	O	1.266070	0.207747	-0.229545
O258	O	1.599403	0.541081	0.103788
H259	H	0.929480	-0.181296	-0.607625
H260	H	1.262814	0.152038	-0.274291
H261	H	1.596147	0.485371	0.059042
H262	H	0.349391	-0.008457	-0.117830
H263	H	0.682724	0.324876	0.215503
H264	H	1.016057	0.658209	0.548837
H265	H	0.681856	0.014054	0.195749
H266	H	1.015189	0.347387	0.529083
H267	H	1.348522	0.680721	0.862416
H268	H	0.870146	-0.619528	-0.021968
H269	H	1.203479	-0.286195	0.311365
H270	H	1.536813	0.047138	0.644698
H271	H	0.315541	0.010511	0.146143
H272	H	0.648874	0.343845	0.479477
H273	H	0.982208	0.677178	0.812810
H274	H	0.466427	-0.003689	-0.051640
H275	H	0.799761	0.329644	0.281693
H276	H	1.133094	0.662978	0.615026
H277	H	0.947219	0.112510	-0.341328
H278	H	1.280552	0.445843	-0.007994
H279	H	1.613885	0.779177	0.325339
O280	O	1.031079	-0.203255	0.126699
O281	O	1.364412	0.130078	0.460032
O282	O	1.697745	0.463411	0.793366
H283	H	1.062651	-0.246121	0.155842
H284	H	1.395985	0.087212	0.489176
H285	H	1.729318	0.420546	0.822509
O286	O	1.058939	-0.595435	0.152415
O287	O	1.392272	-0.262102	0.485748
O288	O	1.725606	0.071231	0.819082
H289	H	1.090510	-0.638297	0.181564
H290	H	1.423843	-0.304964	0.514897
H291	H	1.757177	0.028369	0.848230
H292	H	0.842277	-0.227336	-0.047674
H293	H	1.175611	0.105997	0.285659
H294	H	1.508944	0.439331	0.618993
H295	H	0.943053	0.157736	-0.710848
H296	H	1.276387	0.491069	-0.377515
H297	H	1.609720	0.824403	-0.044182
