data_functionalizedCrystal
_audit_creation_method	'MofGen! by Chris Wilmer'
_symmetry_space_group_name_H-M	'P1'
_symmetry_Int_Tables_number	1
_symmetry_cell_setting	triclinic
loop_
_symmetry_equiv_pos_as_xyz
  x,y,z
_cell_length_a	16.959455
_cell_length_b	12.759393
_cell_length_c	12.759400
_cell_angle_alpha	89.969821
_cell_angle_beta	89.988607
_cell_angle_gamma	90.020562
loop_
_atom_site_label
_atom_site_type_symbol
_atom_site_fract_x
_atom_site_fract_y
_atom_site_fract_z
Zn1	Zn	1.208463	0.594049	0.418290
Zn2	Zn	1.208384	0.418374	0.594009
Zn3	Zn	1.076277	0.418382	0.418335
Zn4	Zn	1.076269	0.594009	0.593918
O5	O	1.142349	0.506204	0.506138
O6	O	1.319064	0.570759	0.441618
O7	O	1.190830	0.271354	0.570762
O8	O	1.093849	0.441706	0.271308
O9	O	1.319006	0.441691	0.570718
O10	O	1.190965	0.570767	0.271275
O11	O	1.093772	0.271360	0.441695
O12	O	0.965666	0.441666	0.441607
O13	O	1.093835	0.741035	0.570564
O14	O	0.965660	0.570698	0.570607
O15	O	1.190957	0.741065	0.441530
O16	O	1.190823	0.441651	0.741018
O17	O	1.093758	0.570690	0.740951
C18	C	0.936982	0.506179	0.506103
C19	C	0.849126	0.506194	0.506114
C20	C	1.142303	0.506188	0.779105
C21	C	1.142355	0.506217	0.895882
C22	C	1.142404	0.780237	0.506032
C23	C	1.142428	0.897014	0.505987
C24	C	0.477629	0.439157	0.438913
C25	C	0.477672	0.573310	0.573450
C26	C	0.560217	0.573304	0.573435
C27	C	0.601473	0.506222	0.506159
C28	C	0.560182	0.439146	0.438898
C29	C	0.601514	0.640371	0.640702
C30	C	0.684065	0.640366	0.640690
C31	C	0.725322	0.573289	0.573408
C32	C	0.684026	0.506211	0.506144
C33	C	0.725282	0.439129	0.438868
C34	C	0.683988	0.372056	0.371597
C35	C	0.601439	0.372069	0.371615
C36	C	0.807870	0.573276	0.573390
C37	C	0.807835	0.439118	0.438853
C38	C	1.348517	0.506228	0.506173
C39	C	1.436373	0.506239	0.506189
C40	C	1.142339	0.233236	0.506168
C41	C	1.142469	0.116460	0.505917
C42	C	1.193006	0.951893	0.438793
C43	C	1.193025	1.061617	0.438755
C44	C	1.091884	1.061573	0.573114
C45	C	1.091862	0.951851	0.573146
C46	C	1.243572	0.897056	0.371634
C47	C	1.294155	0.951935	0.304435
C48	C	1.294174	1.061659	0.304397
C49	C	1.243609	1.116504	0.371558
C50	C	1.142416	0.506242	0.232105
C51	C	1.142445	0.506258	0.115328
C52	C	1.091844	0.573373	1.060472
C53	C	1.091801	0.573356	0.950748
C54	C	1.192962	0.439099	0.950745
C55	C	1.193009	0.439123	1.060467
C56	C	1.041281	0.640509	1.115333
C57	C	0.990675	0.707629	1.060477
C58	C	0.990632	0.707611	0.950753
C59	C	1.041194	0.640474	0.895885
H60	H	0.841420	0.384498	0.384061
H61	H	1.335318	0.907273	0.249749
H62	H	1.243619	1.205849	0.371509
O63	O	0.724189	0.306992	0.306282
C64	C	0.851351	0.247479	0.246702
C65	C	0.805918	0.321232	0.320703
H66	H	0.917437	0.258952	0.258352
H67	H	0.835199	0.266077	0.161984
H68	H	0.835042	0.162745	0.265040
H69	H	0.822202	0.405992	0.302460
H70	H	0.822073	0.302545	0.405399
H71	H	1.335355	1.106339	0.249673
O72	O	1.241995	0.373913	0.897287
C73	C	1.286783	0.314416	0.728251
C74	C	1.231202	0.388279	0.788659
H75	H	1.278088	0.326021	0.640414
H76	H	1.272944	0.229665	0.749823
H77	H	1.350513	0.332933	0.749805
H78	H	1.167453	0.369857	0.767137
H79	H	1.245108	0.473008	0.767081
H80	H	1.234215	0.384474	1.105132
O81	O	0.561449	0.306879	0.306182
C82	C	0.570114	0.173761	0.172788
C83	C	0.615505	0.247554	0.246814
H84	H	0.613799	0.125762	0.124785
H85	H	0.531503	0.222040	0.117847
H86	H	0.531428	0.118797	0.220992
H87	H	0.654234	0.302533	0.198695
H88	H	0.654066	0.199211	0.301758
O89	O	0.941455	0.772795	1.113655
C90	C	0.806992	0.823599	1.147368
C91	C	0.862644	0.749746	1.087064
H92	H	0.743261	0.804977	1.125908
H93	H	0.820765	0.908345	1.125700
H94	H	0.815753	0.812103	1.235207
H95	H	0.853914	0.761149	0.999211
H96	H	0.848858	0.665028	1.108819
O97	O	0.848017	0.638271	0.638840
C98	C	0.941253	0.652152	0.780642
C99	C	0.895824	0.578419	0.706599
H100	H	0.979928	0.603792	0.835429
H101	H	0.897622	0.700075	0.828809
H102	H	0.979884	0.707190	0.732445
H103	H	0.857192	0.523317	0.754715
H104	H	0.939498	0.530570	0.658428
O105	O	1.042850	1.115009	0.638323
C106	C	0.998036	1.284024	0.697783
C107	C	1.053618	1.223642	0.623892
H108	H	1.006710	1.371865	0.686125
H109	H	1.011894	1.262509	0.782530
H110	H	0.934308	1.262389	0.679343
H111	H	1.117365	1.245245	0.642237
H112	H	1.039692	1.245162	0.539167
H113	H	1.050665	0.907167	0.627845
H114	H	0.444004	0.384551	0.384140
H115	H	0.444077	0.627919	0.628229
O116	O	1.041249	0.640695	1.221917
C117	C	0.985769	0.714335	1.379378
C118	C	0.985738	0.714253	1.258674
H119	H	0.940881	0.773784	1.409132
H120	H	1.046958	0.736282	1.409150
H121	H	0.969452	0.632930	1.409212
H122	H	1.002020	0.795632	1.228751
H123	H	0.924541	0.692246	1.228973
H124	H	1.243564	0.807713	0.371659
H125	H	0.567918	0.694978	0.695482
H126	H	0.949432	0.762270	0.906091
O127	O	0.724052	0.705622	0.706061
C128	C	0.715375	0.838645	0.839549
C129	C	0.669991	0.764812	0.765556
H130	H	0.671687	0.886503	0.887685
H131	H	0.754018	0.893730	0.791417
H132	H	0.754029	0.790300	0.894375
H133	H	0.631294	0.813072	0.710715
H134	H	0.631398	0.709724	0.813753
H135	H	1.041160	0.640471	0.806540
