data_functionalizedCrystal
_audit_creation_method	'MofGen! by Chris Wilmer'
_symmetry_space_group_name_H-M	'P1'
_symmetry_Int_Tables_number	1
_symmetry_cell_setting	triclinic
loop_
_symmetry_equiv_pos_as_xyz
  x,y,z
_cell_length_a	16.992694
_cell_length_b	17.038272
_cell_length_c	16.053802
_cell_angle_alpha	92.751609
_cell_angle_beta	87.249047
_cell_angle_gamma	90.889890
loop_
_atom_site_label
_atom_site_type_symbol
_atom_site_fract_x
_atom_site_fract_y
_atom_site_fract_z
O1	O	1.054593	0.163385	-0.069325
O2	O	1.554593	0.663385	0.430675
O3	O	0.826187	0.161558	-0.069350
O4	O	1.326187	0.661558	0.430650
O5	O	0.939032	0.048571	-0.069331
O6	O	1.439032	0.548571	0.430669
O7	O	0.941748	0.276372	-0.069344
O8	O	1.441748	0.776372	0.430656
O9	O	0.932819	0.054763	0.069527
O10	O	1.432819	0.554763	0.569527
O11	O	0.819974	0.167750	0.069508
O12	O	1.319974	0.667750	0.569508
O13	O	1.048380	0.169577	0.069533
O14	O	1.548380	0.669577	0.569533
Zn15	Zn	0.933190	0.169646	0.091567
Zn16	Zn	1.433190	0.669646	0.591567
Zn17	Zn	0.941376	0.161489	-0.091384
Zn18	Zn	1.441376	0.661489	0.408616
O19	O	0.935535	0.282564	0.069514
O20	O	1.435535	0.782564	0.569514
C21	C	0.793711	0.162304	0.000076
C22	C	1.293711	0.662304	0.500076
C23	C	0.706200	0.155293	0.000067
C24	C	1.206200	0.655293	0.500067
C25	C	0.933456	0.022384	0.000098
C26	C	1.433456	0.522384	0.500098
C27	C	0.926089	-0.064871	0.000097
C28	C	1.426089	0.435129	0.500097
C29	C	0.660472	0.222933	0.000064
C30	C	1.160472	0.722933	0.500064
C31	C	0.578245	0.216342	0.000076
C32	C	1.078245	0.716342	0.500076
C33	C	0.541748	0.142110	0.000085
C34	C	1.041748	0.642110	0.500085
C35	C	0.587482	0.074465	0.000091
C36	C	1.087482	0.574465	0.500091
C37	C	0.669707	0.081057	0.000085
C38	C	1.169707	0.581057	0.500085
C39	C	0.296327	0.114789	0.000109
C40	C	0.796327	0.614789	0.500109
C41	C	0.214096	0.108201	0.000112
C42	C	0.714096	0.608201	0.500112
C43	C	0.204864	0.250079	0.000099
C44	C	0.704864	0.750079	0.500099
C45	C	0.287091	0.256665	0.000088
C46	C	0.787091	0.756665	0.500088
C47	C	0.332818	0.189020	0.000098
C48	C	0.832818	0.689020	0.500098
N49	N	0.457699	0.135371	0.000094
N50	N	0.957699	0.635371	0.500094
N51	N	0.416865	0.195760	0.000095
N52	N	0.916865	0.695760	0.500095
C53	C	0.993729	-0.110741	0.000105
C54	C	1.493729	0.389259	0.500105
C55	C	0.986802	-0.192727	0.000096
C56	C	1.486802	0.307273	0.500096
C57	C	0.912235	-0.228840	0.000085
C58	C	1.412235	0.271160	0.500085
C59	C	0.844590	-0.182964	0.000075
C60	C	1.344590	0.317036	0.500075
C61	C	0.851518	-0.100981	0.000077
C62	C	1.351518	0.399019	0.500077
C63	C	0.887761	-0.476135	0.000071
C64	C	1.387761	0.023865	0.500071
C65	C	0.880838	-0.558124	0.000071
C66	C	1.380838	-0.058124	0.500071
C67	C	1.023051	-0.567881	0.000091
C68	C	1.523051	-0.067881	0.500091
C69	C	1.029972	-0.485895	0.000099
C70	C	1.529972	0.014105	0.500099
C71	C	0.962328	-0.440026	0.000084
C72	C	1.462328	0.059974	0.500084
C73	C	0.905153	-0.312643	0.000079
C74	C	1.405153	0.187357	0.500079
C75	C	0.969410	-0.356226	0.000084
C76	C	1.469410	0.143774	0.500084
C77	C	1.080856	0.168831	0.000105
C78	C	1.580856	0.668831	0.500105
C79	C	1.168367	0.175841	0.000109
C80	C	1.668367	0.675841	0.500109
C81	C	0.941111	0.308751	0.000084
C82	C	1.441111	0.808751	0.500084
C83	C	0.948478	0.396006	0.000079
C84	C	1.448478	0.896006	0.500079
N85	N	0.927609	0.175214	0.216427
N86	N	1.427609	0.675214	0.716427
N87	N	0.946963	0.155915	-0.216243
N88	N	1.446963	0.655915	0.283757
C89	C	0.975645	0.127157	0.260129
C90	C	1.475645	0.627157	0.760129
C91	C	0.971749	0.131060	0.347535
C92	C	1.471749	0.631060	0.847535
C93	C	0.919820	0.183023	0.391237
C94	C	1.419820	0.683023	0.891237
C95	C	0.871779	0.231082	0.347529
C96	C	1.371779	0.731082	0.847529
C97	C	0.875672	0.227175	0.260125
C98	C	1.375672	0.727175	0.760125
C99	C	0.902815	0.200067	0.652644
C100	C	1.402815	0.700067	1.152644
C101	C	0.898928	0.203972	0.740055
C102	C	1.398928	0.703972	1.240055
C103	C	0.998897	0.103948	0.740054
C104	C	1.498897	0.603948	1.240054
C105	C	1.002788	0.100050	0.652648
C106	C	1.502788	0.600050	1.152648
C107	C	0.954744	0.148105	0.608948
C108	C	1.454744	0.648105	1.108948
N109	N	0.915838	0.187015	0.480580
N110	N	1.415838	0.687015	0.980580
N111	N	0.958723	0.144109	0.519606
N112	N	1.458723	0.644109	1.019606
H113	H	0.690181	0.283381	0.000056
H114	H	1.190181	0.783381	0.500056
O115	O	0.548123	-0.005602	0.000108
O116	O	1.048123	0.494398	0.500108
H117	H	0.513412	-0.014530	-0.056489
H118	H	1.013412	0.485470	0.443511
O119	O	0.851006	0.251907	0.605519
O120	O	1.351006	0.751907	1.105519
H121	H	0.812300	0.214669	0.565715
H122	H	1.312300	0.714669	1.065715
O123	O	0.719035	0.008104	0.000085
O124	O	1.219035	0.508104	0.500085
H125	H	0.679845	-0.044623	0.000085
H126	H	1.179845	0.455377	0.500085
H127	H	1.078123	-0.605236	0.000102
H128	H	1.578123	-0.105236	0.500102
O129	O	1.110396	-0.446940	0.000110
O130	O	1.610396	0.053060	0.500110
H131	H	1.119480	-0.412334	-0.056481
H132	H	1.619480	0.087666	0.443519
O133	O	0.528926	0.289300	0.000075
O134	O	1.028926	0.789300	0.500075
H135	H	0.493758	0.287163	-0.056513
H136	H	0.993758	0.787163	0.443487
H137	H	0.829494	0.273389	0.383117
H138	H	1.329494	0.773389	0.883117
O139	O	0.842907	0.260011	0.787197
O140	O	1.342907	0.760011	1.287197
H141	H	0.810144	0.292763	0.742126
H142	H	1.310144	0.792763	1.242126
H143	H	0.836555	0.266306	0.224543
H144	H	1.336555	0.766306	0.724543
O145	O	0.326445	0.336734	0.000097
O146	O	0.826445	0.836734	0.500097
H147	H	0.310967	0.366969	-0.056493
H148	H	0.810967	0.866969	0.443507
O149	O	1.059755	-0.242204	0.000104
O150	O	1.559755	0.257796	0.500104
H151	H	1.057460	-0.277278	0.056694
H152	H	1.557460	0.222722	0.556694
O153	O	0.345640	0.041831	0.000111
O154	O	0.845640	0.541831	0.500111
H155	H	0.380791	0.043960	0.056711
H156	H	0.880791	0.543960	0.556711
O157	O	1.023576	0.079237	0.394663
O158	O	1.523576	0.579237	0.894663
H159	H	1.010229	0.016647	0.377893
H160	H	1.510229	0.516647	0.877893
O161	O	1.074158	-0.071795	0.000107
O162	O	1.574158	0.428205	0.500107
H163	H	1.104399	-0.087357	0.056700
H164	H	1.604399	0.412643	0.556700
H165	H	0.844440	-0.342056	0.000072
H166	H	1.344440	0.157944	0.500072
O167	O	0.155546	0.323038	0.000106
O168	O	0.655546	0.823038	0.500106
H169	H	0.092237	0.305987	0.000121
H170	H	0.592237	0.805987	0.500121
O171	O	0.174726	0.028134	0.000130
O172	O	0.674726	0.528134	0.500130
H173	H	0.220335	-0.017797	0.000145
H174	H	0.720335	0.482203	0.500145
H175	H	0.783876	-0.212375	0.000061
H176	H	1.283876	0.287625	0.500061
H177	H	0.820113	-0.587524	0.000076
H178	H	1.320113	-0.087524	0.500076
O179	O	0.814805	-0.426665	0.000076
O180	O	1.314805	0.073335	0.500076
H181	H	0.761792	-0.465553	0.000083
H182	H	1.261792	0.034447	0.500083
O183	O	1.031651	0.071108	0.212993
O184	O	1.531651	0.571108	0.712993
H185	H	1.064391	0.038341	0.258070
H186	H	1.564391	0.538341	0.758070
H187	H	0.796438	-0.063634	0.000071
H188	H	1.296438	0.436366	0.500071
O189	O	1.058789	0.043997	0.605511
O190	O	1.558789	0.543997	1.105511
H191	H	1.091532	0.011228	0.650585
H192	H	1.591532	0.511228	1.150585
H193	H	1.038011	0.064823	0.775643
H194	H	1.538011	0.564823	1.275643
O195	O	1.049836	-0.317279	0.000088
O196	O	1.549836	0.182721	0.500088
H197	H	1.080073	-0.332835	0.056686
H198	H	1.580073	0.167165	0.556686
