data_functionalizedCrystal
_audit_creation_method	'MofGen! by Chris Wilmer'
_symmetry_space_group_name_H-M	'P1'
_symmetry_Int_Tables_number	1
_symmetry_cell_setting	triclinic
loop_
_symmetry_equiv_pos_as_xyz
  x,y,z
_cell_length_a	10.654541
_cell_length_b	18.366186
_cell_length_c	19.288865
_cell_angle_alpha	90.011479
_cell_angle_beta	96.189912
_cell_angle_gamma	89.992314
loop_
_atom_site_label
_atom_site_type_symbol
_atom_site_fract_x
_atom_site_fract_y
_atom_site_fract_z
O1	O	1.665764	-0.060537	-0.097548
O2	O	2.165764	0.439463	0.402452
O3	O	1.300086	-0.060544	-0.106844
O4	O	1.800086	0.439456	0.393156
O5	O	1.493491	-0.060526	-0.001135
O6	O	1.993491	0.439474	0.498865
O7	O	1.472359	-0.060555	-0.203257
O8	O	1.972359	0.439445	0.296743
O9	O	1.493458	0.060574	-0.001129
O10	O	1.993458	0.560574	0.498871
O11	O	1.300053	0.060555	-0.106838
O12	O	1.800053	0.560555	0.393162
O13	O	1.665731	0.060563	-0.097542
O14	O	2.165731	0.560563	0.402458
Zn15	Zn	1.482887	0.079786	-0.102189
Zn16	Zn	1.982887	0.579786	0.397811
Zn17	Zn	1.482930	-0.079767	-0.102197
Zn18	Zn	1.982930	0.420233	0.397803
O19	O	1.472326	0.060544	-0.203252
O20	O	1.972326	0.560544	0.296748
C21	C	1.253286	0.000005	-0.106159
C22	C	1.753286	0.500005	0.393841
C23	C	1.113886	0.000003	-0.104118
C24	C	1.613886	0.500003	0.395882
N25	N	1.482867	0.188677	-0.102184
N26	N	1.982867	0.688677	0.397816
N27	N	1.482960	-0.188659	-0.102196
N28	N	1.982960	0.311341	0.397804
C29	C	1.083210	-0.000024	-0.230522
C30	C	1.583210	0.499976	0.269478
C31	C	1.002383	-0.000041	-0.292762
C32	C	1.502383	0.499959	0.207238
C33	C	0.871406	-0.000041	-0.290840
C34	C	1.371406	0.499959	0.209160
C35	C	0.821254	-0.000023	-0.226671
C36	C	1.321254	0.499977	0.273329
C37	C	0.902081	-0.000007	-0.164431
C38	C	1.402081	0.499993	0.335569
C39	C	1.033059	-0.000008	-0.166360
C40	C	1.533059	0.499992	0.333640
C41	C	0.932757	0.000026	-0.038028
C42	C	1.432757	0.500026	0.461972
C43	C	1.063735	0.000021	-0.039949
C44	C	1.563735	0.500021	0.460051
C45	C	0.882606	0.000044	0.026141
C46	C	1.382606	0.500044	0.526141
C47	C	0.963433	0.000056	0.088383
C48	C	1.463433	0.500056	0.588383
C49	C	1.094417	0.000055	0.086458
C50	C	1.594417	0.500055	0.586458
C51	C	1.144561	0.000038	0.022292
C52	C	1.644561	0.500038	0.522292
C53	C	1.712531	0.000012	-0.098227
C54	C	2.212531	0.500012	0.401773
C55	C	1.851931	0.000009	-0.100268
C56	C	2.351931	0.500009	0.399732
C57	C	1.492795	0.000026	0.024749
C58	C	1.992795	0.500026	0.524749
C59	C	1.490754	0.000033	0.101866
C60	C	1.990754	0.500033	0.601866
C61	C	1.568534	0.226786	-0.055400
C62	C	2.068534	0.726786	0.444600
C63	C	1.568542	0.303014	-0.055396
C64	C	2.068542	0.803014	0.444604
C65	C	1.482894	0.341130	-0.102190
C66	C	1.982894	0.841130	0.397810
C67	C	1.397211	0.303012	-0.148978
C68	C	1.897211	0.803012	0.351022
C69	C	1.397197	0.226786	-0.148975
C70	C	1.897197	0.726786	0.351025
C71	C	1.466084	0.461881	-0.165368
C72	C	1.966084	0.961881	0.334632
C73	C	1.466106	0.538106	-0.165372
C74	C	1.966106	1.038106	0.334628
C75	C	1.482930	0.576238	-0.102199
C76	C	1.982930	1.076238	0.397801
C77	C	1.499758	0.538135	-0.039020
C78	C	1.999758	1.038135	0.460980
C79	C	1.499744	0.461908	-0.039017
C80	C	1.999744	0.961908	0.460983
C81	C	1.482900	0.423785	-0.102198
C82	C	1.982900	0.923785	0.397802
C83	C	1.568611	0.697001	-0.055407
C84	C	2.068611	1.197001	0.444593
C85	C	1.568611	0.773230	-0.055403
C86	C	2.068611	1.273230	0.444597
C87	C	1.397285	0.773228	-0.148991
C88	C	1.897285	1.273228	0.351009
C89	C	1.397280	0.697000	-0.148989
C90	C	1.897280	1.197000	0.351011
C91	C	1.482949	0.658891	-0.102198
C92	C	1.982949	1.158891	0.397802
C93	C	1.473022	-0.000009	-0.229135
C94	C	1.973022	0.499991	0.270865
C95	C	1.475063	-0.000020	-0.306252
C96	C	1.975063	0.499980	0.193748
C97	C	1.604235	0.000038	0.145820
C98	C	2.104235	0.500038	0.645820
C99	C	1.602318	0.000027	0.218279
C100	C	2.102318	0.500027	0.718279
C101	C	1.486912	0.000024	0.246782
C102	C	1.986912	0.500024	0.746782
C103	C	1.373415	0.000014	0.202818
C104	C	1.873415	0.500014	0.702818
C105	C	1.375336	0.000018	0.130360
C106	C	1.875336	0.500018	0.630360
C107	C	1.396178	0.042441	0.355665
C108	C	1.896178	0.542441	0.855665
C109	C	1.394262	0.042441	0.428122
C110	C	1.894262	0.542441	0.928122
C111	C	1.480982	0.000008	0.470266
C112	C	1.980982	0.500008	0.970266
C113	C	1.569640	-0.042417	0.439946
C114	C	2.069640	0.457583	0.939946
C115	C	1.571561	-0.042412	0.367488
C116	C	2.071561	0.457588	0.867488
C117	C	1.484816	0.000019	0.325350
C118	C	1.984816	0.500019	0.825350
C119	C	1.592392	-0.000000	0.592790
C120	C	2.092392	0.500000	1.092790
C121	C	1.590470	-0.000016	0.665250
C122	C	2.090470	0.499984	1.165250
C123	C	1.361565	-0.000022	0.649788
C124	C	1.861565	0.499978	1.149788
C125	C	1.363490	-0.000013	0.577329
C126	C	1.863490	0.499987	1.077329
C127	C	1.478908	0.000001	0.548834
C128	C	1.978908	0.500001	1.048834
H129	H	1.189856	-0.000040	-0.232093
H130	H	1.689856	0.499960	0.267907
C131	C	1.727161	0.000038	0.266637
C132	C	2.227161	0.500038	0.766637
N133	N	1.821193	0.000048	0.303059
N134	N	2.321193	0.500048	0.803059
C135	C	1.288637	0.000039	0.020168
C136	C	1.788637	0.500039	0.520168
N137	N	1.397156	0.000044	0.018566
N138	N	1.897156	0.500044	0.518566
H139	H	0.805596	-0.000050	-0.341522
H140	H	1.305596	0.499950	0.158478
H141	H	0.775956	0.000048	0.027702
H142	H	1.275956	0.500048	0.527702
C143	C	1.731198	0.000048	0.114480
C144	C	2.231198	0.500048	0.614480
N145	N	1.826828	0.000053	0.090874
N146	N	2.326828	0.500053	0.590874
H147	H	1.638306	0.334047	-0.017297
H148	H	2.138306	0.834047	0.482703
H149	H	1.322066	0.076981	0.452802
H150	H	1.822066	0.576981	0.952802
H151	H	1.160220	0.000071	0.137142
H152	H	1.660220	0.500071	0.637142
H153	H	1.327473	0.334051	-0.187077
H154	H	1.827473	0.834051	0.312923
C155	C	0.908256	0.000077	0.158961
C156	C	1.408256	0.500077	0.658961
N157	N	0.866692	0.000092	0.212122
N158	N	1.366692	0.500092	0.712122
C159	C	1.662762	0.184871	-0.003921
C160	C	2.162762	0.684871	0.496079
N161	N	1.733731	0.153299	0.034855
N162	N	2.233731	0.653299	0.534855
C163	C	1.234616	-0.000027	0.681136
C164	C	1.734616	0.499973	1.181136
N165	N	1.138996	-0.000033	0.704751
N166	N	1.638996	0.499967	1.204751
C167	C	1.518237	0.419998	0.030479
C168	C	2.018237	0.919998	0.530479
N169	N	1.532159	0.388432	0.082825
N170	N	2.032159	0.888432	0.582825
C171	C	1.238650	-0.000015	0.528977
C172	C	1.738650	0.499985	1.028977
N173	N	1.144614	-0.000020	0.492559
N174	N	1.644614	0.499980	0.992559
C175	C	1.662837	0.655079	-0.003930
C176	C	2.162837	1.155079	0.496070
N177	N	1.733807	0.623505	0.034844
N178	N	2.233807	1.123505	0.534844
H179	H	1.325557	0.076999	0.321356
H180	H	1.825557	0.576999	0.821356
H181	H	1.327526	0.665970	-0.187088
H182	H	1.827526	1.165970	0.312912
C183	C	1.246469	0.000016	0.234173
C184	C	1.746469	0.500016	0.734173
N185	N	1.150849	0.000018	0.257789
N186	N	1.650849	0.500018	0.757789
C187	C	1.057560	-0.000060	-0.363345
C188	C	1.557560	0.499940	0.136655
N189	N	1.099116	-0.000074	-0.416508
N190	N	1.599116	0.499926	0.083492
H191	H	1.640256	-0.076970	0.474259
H192	H	2.140256	0.423030	0.974259
H193	H	1.513457	0.569180	0.012422
H194	H	2.013457	1.069180	0.512422
H195	H	1.638368	0.804259	-0.017302
H196	H	2.138368	1.304259	0.482698
H197	H	1.643747	-0.076957	0.342805
H198	H	2.143747	0.423043	0.842805
H199	H	1.282923	0.000014	0.094573
H200	H	1.782923	0.500014	0.594573
C201	C	1.303071	0.815151	-0.200465
C202	C	1.803071	1.315151	0.299535
N203	N	1.232107	0.846732	-0.239237
N204	N	1.732107	1.346732	0.260763
H205	H	0.714605	-0.000015	-0.225111
H206	H	1.214605	0.499985	0.274889
H207	H	1.452412	0.569123	-0.216816
H208	H	1.952412	1.069123	0.283184
H209	H	1.452362	0.430841	-0.216814
H210	H	1.952362	0.930841	0.283186
H211	H	1.682884	-0.000016	0.701037
H212	H	2.182884	0.499984	1.201037
C213	C	1.303006	0.184865	-0.200475
C214	C	1.803006	0.684865	0.299525
N215	N	1.232080	0.153290	-0.239277
N216	N	1.732080	0.653290	0.260723
H217	H	1.686372	0.000008	0.569588
H218	H	2.186372	0.500008	1.069588
