data_functionalizedCrystal
_audit_creation_method	'MofGen! by Chris Wilmer'
_symmetry_space_group_name_H-M	'P1'
_symmetry_Int_Tables_number	1
_symmetry_cell_setting	triclinic
loop_
_symmetry_equiv_pos_as_xyz
  x,y,z
_cell_length_a	16.120530
_cell_length_b	19.120786
_cell_length_c	16.120297
_cell_angle_alpha	90.306305
_cell_angle_beta	90.128140
_cell_angle_gamma	89.436752
loop_
_atom_site_label
_atom_site_type_symbol
_atom_site_fract_x
_atom_site_fract_y
_atom_site_fract_z
Zn1	Zn	1.230439	-0.354318	-0.515736
Zn2	Zn	1.480439	-0.104318	-0.265736
Zn3	Zn	1.730439	0.145682	-0.015736
Zn4	Zn	1.980439	0.395682	0.234264
Zn5	Zn	1.232048	-0.465652	-0.370762
Zn6	Zn	1.482048	-0.215652	-0.120762
Zn7	Zn	1.732048	0.034348	0.129238
Zn8	Zn	1.982048	0.284348	0.379238
Zn9	Zn	1.098996	-0.342500	-0.370282
Zn10	Zn	1.348996	-0.092500	-0.120282
Zn11	Zn	1.598996	0.157500	0.129718
Zn12	Zn	1.848996	0.407500	0.379718
Zn13	Zn	1.086035	-0.465008	-0.502765
Zn14	Zn	1.336035	-0.215008	-0.252765
Zn15	Zn	1.586035	0.034992	-0.002765
Zn16	Zn	1.836035	0.284992	0.247235
O17	O	1.161880	-0.406870	-0.439886
O18	O	1.411880	-0.156870	-0.189886
O19	O	1.661880	0.093130	0.060114
O20	O	1.911880	0.343130	0.310114
O21	O	1.346768	-0.374302	-0.502134
O22	O	1.596768	-0.124302	-0.252134
O23	O	1.846768	0.125698	-0.002134
O24	O	2.096768	0.375698	0.247866
O25	O	1.220496	-0.444639	-0.254581
O26	O	1.470496	-0.194639	-0.004581
O27	O	1.720496	0.055361	0.245419
O28	O	1.970496	0.305361	0.495419
O29	O	1.121184	-0.246204	-0.394804
O30	O	1.371184	0.003796	-0.144804
O31	O	1.621184	0.253796	0.105196
O32	O	1.871184	0.503796	0.355196
O33	O	1.347950	-0.456099	-0.395622
O34	O	1.597950	-0.206099	-0.145622
O35	O	1.847950	0.043901	0.104378
O36	O	2.097950	0.293901	0.354378
O37	O	1.217754	-0.254887	-0.501668
O38	O	1.467754	-0.004887	-0.251668
O39	O	1.717754	0.245113	-0.001668
O40	O	1.967754	0.495113	0.248332
O41	O	1.122744	-0.354160	-0.254229
O42	O	1.372744	-0.104160	-0.004229
O43	O	1.622744	0.145840	0.245771
O44	O	1.872744	0.395840	0.495771
O45	O	0.981161	-0.353536	-0.382227
O46	O	1.231161	-0.103536	-0.132227
O47	O	1.481161	0.146464	0.117773
O48	O	1.731161	0.396464	0.367773
O49	O	1.099093	-0.455001	-0.620603
O50	O	1.349093	-0.205001	-0.370603
O51	O	1.599093	0.044999	-0.120603
O52	O	1.849093	0.294999	0.129397
O53	O	0.971638	-0.443542	-0.479562
O54	O	1.221638	-0.193542	-0.229562
O55	O	1.471638	0.056458	0.020438
O56	O	1.721638	0.306458	0.270438
O57	O	1.205186	-0.373678	-0.630132
O58	O	1.455186	-0.123678	-0.380132
O59	O	1.705186	0.126322	-0.130132
O60	O	1.955186	0.376322	0.119868
O61	O	1.207928	-0.563430	-0.383045
O62	O	1.457928	-0.313430	-0.133045
O63	O	1.707928	-0.063430	0.116955
O64	O	1.957928	0.186570	0.366955
O65	O	1.100653	-0.562957	-0.480027
O66	O	1.350653	-0.312957	-0.230027
O67	O	1.600653	-0.062957	0.019973
O68	O	1.850653	0.187043	0.269973
C69	C	0.946292	-0.397187	-0.429435
C70	C	1.196292	-0.147187	-0.179435
C71	C	1.446292	0.102813	0.070565
C72	C	1.696292	0.352813	0.320565
C73	C	0.854061	-0.393062	-0.424983
C74	C	1.104061	-0.143062	-0.174983
C75	C	1.354061	0.106938	0.075017
C76	C	1.604061	0.356938	0.325017
C77	C	0.685193	-0.385516	-0.416863
C78	C	0.935193	-0.135516	-0.166863
C79	C	1.185193	0.114484	0.083137
C80	C	1.435193	0.364484	0.333137
C81	C	0.639400	-0.428278	-0.462967
C82	C	0.889400	-0.178278	-0.212967
C83	C	1.139400	0.071722	0.037033
C84	C	1.389400	0.321722	0.287033
C85	C	0.545437	-0.424079	-0.458449
C86	C	0.795437	-0.174079	-0.208449
C87	C	1.045437	0.075921	0.041551
C88	C	1.295437	0.325921	0.291551
C89	C	0.779166	-0.389714	-0.421380
C90	C	1.029166	-0.139714	-0.171380
C91	C	1.279166	0.110286	0.078620
C92	C	1.529166	0.360286	0.328620
C93	C	1.153080	-0.588570	-0.430200
C94	C	1.403080	-0.338570	-0.180200
C95	C	1.653080	-0.088570	0.069800
C96	C	1.903080	0.161430	0.319800
C97	C	1.149390	-0.666307	-0.426087
C98	C	1.399390	-0.416307	-0.176087
C99	C	1.649390	-0.166307	0.073913
C100	C	1.899390	0.083693	0.323913
C101	C	1.197893	-0.707288	-0.479835
C102	C	1.447893	-0.457288	-0.229835
C103	C	1.697893	-0.207288	0.020165
C104	C	1.947893	0.042712	0.270165
C105	C	1.194422	-0.780330	-0.475973
C106	C	1.444422	-0.530330	-0.225973
C107	C	1.694422	-0.280330	0.024027
C108	C	1.944422	-0.030330	0.274027
C109	C	1.142452	-0.812390	-0.418357
C110	C	1.392452	-0.562390	-0.168357
C111	C	1.642452	-0.312390	0.081643
C112	C	1.892452	-0.062390	0.331643
C113	C	1.093943	-0.771403	-0.364607
C114	C	1.343943	-0.521403	-0.114607
C115	C	1.593943	-0.271403	0.135393
C116	C	1.843943	-0.021403	0.385393
C117	C	1.097410	-0.698363	-0.368475
C118	C	1.347410	-0.448363	-0.118475
C119	C	1.597410	-0.198363	0.131525
C120	C	1.847410	0.051637	0.381525
C121	C	1.129467	-1.032702	-0.403899
C122	C	1.379467	-0.782702	-0.153899
C123	C	1.629467	-0.532702	0.096101
C124	C	1.879467	-0.282702	0.346101
C125	C	1.126006	-1.105748	-0.400034
C126	C	1.376006	-0.855748	-0.150034
C127	C	1.626006	-0.605748	0.099966
C128	C	1.876006	-0.355748	0.349966
C129	C	1.226484	-1.114670	-0.511400
C130	C	1.476484	-0.864670	-0.261400
C131	C	1.726484	-0.614670	-0.011400
C132	C	1.976484	-0.364670	0.238600
C133	C	1.229950	-1.041628	-0.515259
C134	C	1.479950	-0.791628	-0.265259
C135	C	1.729950	-0.541628	-0.015259
C136	C	1.979950	-0.291628	0.234741
C137	C	1.181438	-1.000648	-0.461512
C138	C	1.431438	-0.750648	-0.211512
C139	C	1.681438	-0.500648	0.038488
C140	C	1.931438	-0.250648	0.288488
C141	C	1.138905	-0.887050	-0.414406
C142	C	1.388905	-0.637050	-0.164406
C143	C	1.638905	-0.387050	0.085594
C144	C	1.888905	-0.137050	0.335594
C145	C	1.184981	-0.925989	-0.465468
C146	C	1.434981	-0.675989	-0.215468
C147	C	1.684981	-0.425989	0.034532
C148	C	1.934981	-0.175989	0.284532
C149	C	1.378309	-0.416591	-0.450378
C150	C	1.628309	-0.166591	-0.200378
C151	C	1.878309	0.083409	0.049622
C152	C	2.128309	0.333409	0.299622
C153	C	1.470538	-0.420733	-0.454849
C154	C	1.720538	-0.170733	-0.204849
C155	C	1.970538	0.079267	0.045151
C156	C	2.220538	0.329267	0.295151
C157	C	1.150514	-0.415586	-0.656317
C158	C	1.400514	-0.165586	-0.406317
C159	C	1.650514	0.084414	-0.156317
C160	C	1.900514	0.334414	0.093683
C161	C	1.145671	-0.419300	-0.748547
C162	C	1.395671	-0.169300	-0.498547
C163	C	1.645671	0.080700	-0.248547
C164	C	1.895671	0.330700	0.001453
C165	C	1.170735	-0.224461	-0.449629
C166	C	1.420735	0.025539	-0.199629
C167	C	1.670735	0.275539	0.050371
C168	C	1.920735	0.525539	0.300371
C169	C	1.174509	-0.146729	-0.453781
C170	C	1.424509	0.103271	-0.203781
C171	C	1.674509	0.353271	0.046219
C172	C	1.924509	0.603271	0.296219
C173	C	1.136799	-0.426065	-0.917412
C174	C	1.386799	-0.176065	-0.667412
C175	C	1.636799	0.073935	-0.417412
C176	C	1.886799	0.323935	-0.167412
C177	C	1.187134	-0.387472	-0.963231
C178	C	1.437134	-0.137472	-0.713231
C179	C	1.687134	0.112528	-0.463231
C180	C	1.937134	0.362528	-0.213231
C181	C	1.182197	-0.391236	-1.057193
C182	C	1.432197	-0.141236	-0.807193
C183	C	1.682197	0.108764	-0.557193
C184	C	1.932197	0.358764	-0.307193
C185	C	1.141734	-0.422302	-0.823441
C186	C	1.391734	-0.172302	-0.573441
C187	C	1.641734	0.077698	-0.323441
C188	C	1.891734	0.327698	-0.073441
C189	C	1.173251	-0.398139	-0.224302
C190	C	1.423251	-0.148139	0.025698
C191	C	1.673251	0.101861	0.275698
C192	C	1.923251	0.351861	0.525698
C193	C	1.178264	-0.394235	-0.132091
C194	C	1.428264	-0.144235	0.117909
C195	C	1.678264	0.105765	0.367909
C196	C	1.928264	0.355765	0.617909
H197	H	0.670765	-0.468040	-0.505833
H198	H	0.920765	-0.218040	-0.255833
H199	H	1.170765	0.031960	-0.005833
H200	H	1.420765	0.281960	0.244167
H201	H	1.090002	-0.461929	-0.948752
H202	H	1.340002	-0.211929	-0.698752
H203	H	1.590002	0.038071	-0.448752
H204	H	1.840002	0.288071	-0.198752
Br205	Br	0.632920	-0.319244	-0.345423
Br206	Br	0.882920	-0.069244	-0.095423
Br207	Br	1.132920	0.180756	0.154577
Br208	Br	1.382920	0.430756	0.404577
H209	H	1.227292	-0.899884	-0.512382
H210	H	1.477292	-0.649884	-0.262382
H211	H	1.727292	-0.399884	-0.012382
H212	H	1.977292	-0.149884	0.237618
Br213	Br	1.068368	-0.930566	-0.336223
Br214	Br	1.318368	-0.680566	-0.086223
Br215	Br	1.568368	-0.430566	0.163777
Br216	Br	1.818368	-0.180566	0.413777
Br217	Br	1.260237	-0.835945	-0.548933
Br218	Br	1.510237	-0.585945	-0.298933
Br219	Br	1.760237	-0.335945	-0.048933
Br220	Br	2.010237	-0.085945	0.201067
Br221	Br	1.268435	-0.663786	-0.558025
Br222	Br	1.518435	-0.413786	-0.308025
Br223	Br	1.768435	-0.163786	-0.058025
Br224	Br	2.018435	0.086214	0.191975
Br225	Br	1.292316	-1.170289	-0.584341
Br226	Br	1.542316	-0.920289	-0.334341
Br227	Br	1.792316	-0.670289	-0.084341
Br228	Br	2.042316	-0.420289	0.165659
Br229	Br	1.055475	-1.149257	-0.321831
Br230	Br	1.305475	-0.899257	-0.071831
Br231	Br	1.555475	-0.649257	0.178169
Br232	Br	1.805475	-0.399257	0.428169
Br233	Br	1.300485	-0.998124	-0.593453
Br234	Br	1.550485	-0.748124	-0.343453
Br235	Br	1.800485	-0.498124	-0.093453
Br236	Br	2.050485	-0.248124	0.156547
Br237	Br	1.023399	-0.814912	-0.286425
Br238	Br	1.273399	-0.564912	-0.036425
Br239	Br	1.523399	-0.314912	0.213575
Br240	Br	1.773399	-0.064912	0.463575
Br241	Br	1.265158	-0.327708	-0.910998
Br242	Br	1.515158	-0.077708	-0.660998
Br243	Br	1.765158	0.172292	-0.410998
Br244	Br	2.015158	0.422292	-0.160998
Br245	Br	1.031577	-0.642744	-0.295532
Br246	Br	1.281577	-0.392744	-0.045532
Br247	Br	1.531577	-0.142744	0.204468
Br248	Br	1.781577	0.107256	0.454468
H249	H	1.089968	-0.999342	-0.360134
H250	H	1.339968	-0.749342	-0.110134
H251	H	1.589968	-0.499342	0.139866
H252	H	1.839968	-0.249342	0.389866
