data_functionalizedCrystal
_audit_creation_method	'MofGen! by Chris Wilmer'
_symmetry_space_group_name_H-M	'P1'
_symmetry_Int_Tables_number	1
_symmetry_cell_setting	triclinic
loop_
_symmetry_equiv_pos_as_xyz
  x,y,z
_cell_length_a	12.837943
_cell_length_b	14.853567
_cell_length_c	11.295483
_cell_angle_alpha	94.104625
_cell_angle_beta	85.461227
_cell_angle_gamma	89.231935
loop_
_atom_site_label
_atom_site_type_symbol
_atom_site_fract_x
_atom_site_fract_y
_atom_site_fract_z
O1	O	1.382763	0.228927	-0.098984
O2	O	1.080941	0.217348	-0.098992
O3	O	1.239915	0.092592	-0.098991
O4	O	1.223790	0.353684	-0.098985
O5	O	1.225952	0.103530	0.099059
O6	O	1.066978	0.228287	0.099059
O7	O	1.368800	0.239866	0.099067
Cu8	Cu	1.216614	0.235075	0.117146
Cu9	Cu	1.233127	0.222139	-0.117072
O10	O	1.209827	0.364623	0.099066
C11	C	1.035334	0.218906	0.000032
C12	C	0.920240	0.207240	0.000029
C13	C	0.679482	0.347487	0.000049
C14	C	0.571341	0.336530	0.000047
C15	C	0.595813	0.174369	0.000030
C16	C	0.703954	0.185327	0.000032
C17	C	0.745785	0.271888	0.000040
C18	C	0.853929	0.282844	0.000034
C19	C	0.878399	0.120685	0.000026
C20	C	0.770257	0.109728	0.000023
C21	C	1.232203	0.064410	0.000030
C22	C	1.230014	-0.035860	0.000020
C23	C	1.126324	-0.457187	0.000040
C24	C	1.315188	-0.462449	0.000045
C25	C	1.317247	-0.368241	0.000038
C26	C	1.223843	-0.318502	0.000034
C27	C	1.128380	-0.362970	0.000037
C28	C	1.412707	-0.323764	0.000047
C29	C	1.414770	-0.229551	0.000042
C30	C	1.321366	-0.179810	0.000029
C31	C	1.225899	-0.224285	0.000030
C32	C	1.132495	-0.174546	0.000026
C33	C	1.037028	-0.219019	0.000019
C34	C	1.034976	-0.313230	0.000024
C35	C	1.323418	-0.085599	0.000024
C36	C	1.134551	-0.080329	0.000023
C37	C	1.414408	0.238308	0.000040
C38	C	1.529502	0.249974	0.000036
C39	C	1.217539	0.392804	0.000042
C40	C	1.219728	0.493073	0.000044
N41	N	1.205008	0.244174	0.281883
N42	N	1.244742	0.213033	-0.281808
C43	C	1.328293	0.147484	0.531173
C44	C	1.319529	0.154367	0.655836
C45	C	1.178712	0.264819	0.655876
C46	C	1.187475	0.257935	0.531212
C47	C	1.262270	0.199267	0.468865
C48	C	1.271038	0.192389	0.344199
C49	C	1.130216	0.302836	0.344241
C50	C	1.121452	0.309719	0.468904
H51	H	0.887985	0.353327	0.000043
H52	H	1.488750	-0.364268	0.000062
H53	H	1.048597	-0.493402	0.000030
O54	O	1.383630	0.103932	0.716233
C55	C	1.368768	0.011537	0.685792
H56	H	1.335171	0.003201	0.595286
H57	H	1.446930	-0.026376	0.681508
H58	H	1.312188	-0.016926	0.755964
H59	H	1.389201	0.099720	0.480409
H60	H	1.117809	0.312578	0.706655
H61	H	0.713541	0.417969	0.000054
O62	O	1.416048	-0.042253	0.000085
C63	C	1.397839	0.051564	0.000044
H64	H	1.314318	0.068767	0.037529
H65	H	1.454871	0.088869	0.057547
H66	H	1.409603	0.072920	-0.094973
H67	H	0.960979	-0.178508	0.000024
O68	O	1.048750	0.366586	0.529607
C69	C	0.979635	0.316754	0.601705
H70	H	1.019507	0.250792	0.620363
H71	H	0.957129	0.357811	0.689377
H72	H	0.906381	0.301365	0.553678
H73	H	1.076458	0.345004	0.293496
H74	H	0.517360	0.398091	0.000058
O75	O	0.555207	0.090282	0.000236
C76	C	0.581873	0.049286	0.102786
H77	H	0.599393	0.103695	0.174483
H78	H	0.513879	0.007204	0.137215
H79	H	0.653907	0.003810	0.079587
O80	O	0.942237	-0.356403	-0.000187
C81	C	0.892507	-0.337440	-0.102747
H82	H	0.953376	-0.317042	-0.174441
H83	H	0.850754	-0.400111	-0.137171
H84	H	0.833179	-0.279835	-0.079563
H85	H	0.932395	0.059126	0.000010
O86	O	0.729582	0.025653	-0.000198
C87	C	0.674966	0.008817	-0.102756
H88	H	0.705665	0.054175	-0.174440
H89	H	0.686986	-0.064916	-0.137199
H90	H	0.588087	0.023576	-0.079561
H91	H	1.058490	-0.039837	0.000014
H92	H	1.492505	-0.193349	0.000046
H93	H	1.331942	0.144621	0.293437
O94	O	1.405822	-0.510901	0.000002
C95	C	1.383534	-0.603589	0.000043
H96	H	1.304740	-0.616266	-0.037453
H97	H	1.447114	-0.644258	-0.057449
H98	H	1.380726	-0.625192	0.095062
