data_functionalizedCrystal
_audit_creation_method	'MofGen! by Chris Wilmer'
_symmetry_space_group_name_H-M	'P1'
_symmetry_Int_Tables_number	1
_symmetry_cell_setting	triclinic
loop_
_symmetry_equiv_pos_as_xyz
  x,y,z
_cell_length_a	12.827892
_cell_length_b	12.759401
_cell_length_c	12.827885
_cell_angle_alpha	89.978992
_cell_angle_beta	90.029976
_cell_angle_gamma	89.983786
loop_
_atom_site_label
_atom_site_type_symbol
_atom_site_fract_x
_atom_site_fract_y
_atom_site_fract_z
Zn1	Zn	-0.415958	-1.606246	0.590897
Zn2	Zn	-0.590735	-1.606139	0.416157
Zn3	Zn	-0.416012	-1.430549	0.416165
Zn4	Zn	-0.590660	-1.430534	0.590852
O5	O	-0.503341	-1.518367	0.503518
O6	O	-0.439151	-1.753253	0.567733
O7	O	-0.567612	-1.582809	0.269922
O8	O	-0.269768	-1.453906	0.439366
O9	O	-0.567560	-1.753175	0.439352
O10	O	-0.269729	-1.582990	0.567741
O11	O	-0.439243	-1.453803	0.269928
O12	O	-0.439170	-1.283526	0.439323
O13	O	-0.567431	-1.453881	0.737094
O14	O	-0.567483	-1.283515	0.567664
O15	O	-0.439078	-1.582976	0.737127
O16	O	-0.736961	-1.582794	0.439309
O17	O	-0.736906	-1.453778	0.567656
C18	C	-0.503325	-1.245400	0.503490
C19	C	-0.503343	-1.128623	0.503503
C20	C	-0.774851	-1.518302	0.503500
C21	C	-0.891004	-1.518370	0.503527
C22	C	-0.570257	-1.073783	0.570223
C23	C	-0.570260	-0.964059	0.570241
C24	C	-0.436432	-0.964025	0.436808
C25	C	-0.436425	-1.073747	0.436797
C26	C	-0.607755	-0.814159	0.693437
C27	C	-0.674685	-0.759316	0.760148
C28	C	-0.776668	-0.794912	0.776013
C29	C	-0.811743	-0.885350	0.725151
C30	C	-0.744818	-0.940188	0.658432
C31	C	-0.642820	-0.904593	0.642587
C32	C	-0.398941	-1.223649	0.313600
C33	C	-0.332021	-1.278489	0.246874
C34	C	-0.230035	-1.242895	0.230999
C35	C	-0.194964	-1.152453	0.281842
C36	C	-0.261884	-1.097613	0.348568
C37	C	-0.363869	-1.133215	0.364445
C38	C	-0.942782	-1.582287	0.440087
C39	C	-1.062832	-1.582358	0.440113
C40	C	-0.230771	-1.518462	0.503559
C41	C	-0.114618	-1.518502	0.503577
C42	C	-0.503240	-1.518439	0.776088
C43	C	-0.503197	-1.518469	0.892242
C44	C	-0.503355	-0.792400	0.503540
C45	C	-0.503353	-0.909177	0.503532
C46	C	-0.503367	-1.518356	0.232008
C47	C	-0.503115	-1.518530	0.115855
C48	C	-0.566692	-1.582312	0.944023
C49	C	-0.566649	-1.582345	1.064074
H50	H	-0.773376	-1.013820	0.617021
F51	F	-0.641475	-1.132183	0.641220
F52	F	-0.920295	-0.923219	0.742028
F53	F	-0.884560	-1.653751	0.369073
F54	F	-0.637351	-0.663070	0.814281
H55	H	-0.621080	-1.636950	0.899479
H56	H	-0.831163	-0.750250	0.830333
F57	F	-1.056428	-1.446966	0.574568
H58	H	-0.448755	-1.463865	1.071331
H59	H	-1.107360	-1.637077	0.385797
H60	H	-0.935552	-1.463705	0.557863
F61	F	-0.499205	-0.776278	0.676572
F62	F	-0.432094	-1.447061	0.950459
F63	F	-0.365218	-0.905612	0.365818
F64	F	-0.224558	-1.001352	0.402675
F65	F	-0.637710	-1.653785	1.122275
H66	H	-0.111926	-1.123460	0.268899
F67	F	-0.158820	-1.301256	0.159968
H68	H	-0.360585	-1.352131	0.205474
F69	F	-0.507529	-1.261463	0.330390
