data_functionalizedCrystal
_audit_creation_method	'MofGen! by Chris Wilmer'
_symmetry_space_group_name_H-M	'P1'
_symmetry_Int_Tables_number	1
_symmetry_cell_setting	triclinic
loop_
_symmetry_equiv_pos_as_xyz
  x,y,z
_cell_length_a	16.120444
_cell_length_b	12.827893
_cell_length_c	12.827885
_cell_angle_alpha	90.020999
_cell_angle_beta	92.864671
_cell_angle_gamma	87.075205
loop_
_atom_site_label
_atom_site_type_symbol
_atom_site_fract_x
_atom_site_fract_y
_atom_site_fract_z
Zn1	Zn	-0.331906	-1.576494	-0.611951
Zn2	Zn	-0.471342	-1.567492	-0.446056
Zn3	Zn	-0.331943	-1.401733	-0.437221
Zn4	Zn	-0.471276	-1.392828	-0.620746
O5	O	-0.401617	-1.484637	-0.528994
O6	O	-0.350415	-1.721535	-0.589961
O7	O	-0.452893	-1.545462	-0.298650
O8	O	-0.215272	-1.432409	-0.453021
O9	O	-0.452858	-1.714921	-0.468078
O10	O	-0.215245	-1.560805	-0.581394
O11	O	-0.350477	-1.423680	-0.292160
O12	O	-0.350413	-1.254316	-0.461550
O13	O	-0.452745	-1.417233	-0.765813
O14	O	-0.452780	-1.247774	-0.596385
O15	O	-0.350351	-1.552171	-0.759351
O16	O	-0.587999	-1.536828	-0.476607
O17	O	-0.587950	-1.408504	-0.604951
C18	C	-0.401594	-1.213128	-0.528964
C19	C	-0.401604	-1.096974	-0.528977
C20	C	-0.618224	-1.470751	-0.542715
C21	C	-0.710890	-1.464907	-0.548620
C22	C	-0.401537	-1.484713	-0.801559
C23	C	-0.401502	-1.484745	-0.917710
C24	C	-0.921836	-1.515211	-0.498585
C25	C	-0.880546	-1.454256	-0.559413
C26	C	-0.786141	-1.460184	-0.553406
C27	C	-1.016250	-1.509284	-0.504591
C28	C	-0.184163	-1.498604	-0.515241
C29	C	-0.091497	-1.504557	-0.509381
C30	C	-0.452346	-0.921930	-0.595616
C31	C	-0.452336	-1.041981	-0.595603
C32	C	-0.401633	-0.757206	-0.529015
C33	C	-0.401623	-0.873359	-0.529002
C34	C	-0.350825	-1.551524	-0.966296
C35	C	-0.350788	-1.551560	-1.086344
C36	C	-0.401636	-1.484625	-0.257485
C37	C	-0.401435	-1.484810	-0.141319
H38	H	-0.916098	-1.397617	-0.616000
H39	H	-0.886288	-1.571845	-0.442001
H40	H	-0.307462	-1.608667	-0.919018
O41	O	-0.504030	-1.091939	-0.663690
C42	C	-0.456576	-1.158120	-0.728231
H43	H	-0.393347	-1.178392	-0.687483
H44	H	-0.447523	-1.116733	-0.805160
C45	C	-0.580037	-1.234038	-0.799907
C46	C	-0.502382	-1.258944	-0.749855
H47	H	-0.608293	-1.296229	-0.813251
H48	H	-0.612009	-1.189449	-0.756428
H49	H	-0.572482	-1.199547	-0.864009
H50	H	-0.509938	-1.293423	-0.685750
H51	H	-0.470412	-1.303542	-0.793325
O52	O	-0.504086	-0.865362	-0.663629
C53	C	-0.492588	-0.758090	-0.648487
H54	H	-0.428207	-0.747390	-0.610303
H55	H	-0.541967	-0.723931	-0.595839
C56	C	-0.579365	-0.714649	-0.801546
C57	C	-0.500288	-0.701507	-0.754656
H58	H	-0.584119	-0.679744	-0.867035
H59	H	-0.587115	-0.786920	-0.811746
H60	H	-0.620505	-0.686184	-0.757662
H61	H	-0.459150	-0.729984	-0.798533
H62	H	-0.492532	-0.629239	-0.744466
H63	H	-0.444828	-1.427638	-1.099531
H64	H	-0.307404	-1.608735	-1.128140
O65	O	-0.349714	-1.047311	-0.460894
C66	C	-0.302558	-1.121761	-0.398925
H67	H	-0.299649	-1.199799	-0.441471
H68	H	-0.333005	-1.131344	-0.321414
C69	C	-0.217420	-0.988874	-0.326210
C70	C	-0.213841	-1.084720	-0.378470
H71	H	-0.162696	-0.966025	-0.313588
H72	H	-0.249191	-0.938715	-0.367957
H73	H	-0.242796	-0.996873	-0.261624
H74	H	-0.188475	-1.076717	-0.443061
H75	H	-0.182064	-1.134877	-0.336734
H76	H	-0.358193	-0.920653	-0.471958
O77	O	-0.453351	-1.416610	-0.973993
C78	C	-0.536473	-1.434099	-0.952678
H79	H	-0.538284	-1.474063	-0.873523
H80	H	-0.564494	-1.486097	-1.015863
C81	C	-0.584747	-1.279890	-1.048186
C82	C	-0.586972	-1.328968	-0.950962
H83	H	-0.615899	-1.215042	-1.047132
H84	H	-0.528747	-1.268109	-1.062550
H85	H	-0.608097	-1.323233	-1.100830
H86	H	-0.563613	-1.285631	-0.898322
H87	H	-0.642970	-1.340739	-0.936589
