data_functionalizedCrystal
_audit_creation_method	'MofGen! by Chris Wilmer'
_symmetry_space_group_name_H-M	'P1'
_symmetry_Int_Tables_number	1
_symmetry_cell_setting	triclinic
loop_
_symmetry_equiv_pos_as_xyz
  x,y,z
_cell_length_a	12.594517
_cell_length_b	13.032721
_cell_length_c	12.594509
_cell_angle_alpha	82.847583
_cell_angle_beta	90.021621
_cell_angle_gamma	97.204386
loop_
_atom_site_label
_atom_site_type_symbol
_atom_site_fract_x
_atom_site_fract_y
_atom_site_fract_z
Zn1	Zn	1.573418	-0.416030	0.655639
Zn2	Zn	1.550686	-0.590800	0.500252
Zn3	Zn	1.395416	-0.416070	0.477673
Zn4	Zn	1.372791	-0.590732	0.678174
O5	O	1.473078	-0.503408	0.577934
O6	O	1.719347	-0.439225	0.635045
O7	O	1.530044	-0.567667	0.348317
O8	O	1.438011	-0.269826	0.482400
O9	O	1.702645	-0.567628	0.520883
O10	O	1.568788	-0.269797	0.613151
O11	O	1.415968	-0.439293	0.331728
O12	O	1.243471	-0.439227	0.504251
O13	O	1.399449	-0.567512	0.824124
O14	O	1.226848	-0.567551	0.651558
O15	O	1.546849	-0.439159	0.807568
O16	O	1.508105	-0.737029	0.542734
O17	O	1.377406	-0.736979	0.673452
C18	C	1.437863	-0.774922	0.613012
C19	C	1.422895	-0.891077	0.628054
C20	C	1.196539	-0.503387	0.577900
C21	C	1.078232	-0.503403	0.577914
C22	C	1.480946	-0.942853	0.570132
C23	C	1.465478	-1.062905	0.585677
C24	C	1.018001	-0.433513	0.497917
C25	C	0.934851	-0.528836	0.484060
C26	C	0.950577	-0.408127	0.591796
C27	C	0.996634	-0.598776	0.564012
C28	C	1.012374	-0.478003	0.671786
C29	C	0.929247	-0.573392	0.657973
C30	C	1.750696	-0.503430	0.577969
C31	C	1.869000	-0.503439	0.577984
C32	C	1.473161	-0.503324	0.855545
C33	C	1.473197	-0.503288	0.973846
C34	C	1.508459	-0.230833	0.542743
C35	C	1.523537	-0.114678	0.527747
C36	C	1.473065	-0.503416	0.301395
C37	C	1.473274	-0.503158	0.183056
C38	C	1.393082	-0.573012	1.122856
C39	C	1.379395	-0.477711	1.039735
C40	C	1.486837	-0.598579	1.055394
C41	C	1.459544	-0.407806	1.101487
C42	C	1.567023	-0.528738	1.117160
C43	C	1.553381	-0.433372	1.034063
H44	H	1.404326	-1.107452	0.646783
C45	C	1.605177	-1.055480	0.446256
C46	C	1.655752	-1.126515	0.395852
C47	C	1.730974	-1.072021	0.320789
H48	H	1.570048	-1.012960	0.394281
H49	H	1.657042	-1.012859	0.481512
H50	H	1.603895	-1.169119	0.360596
H51	H	1.690903	-1.169038	0.447799
H52	H	1.782839	-1.029399	0.356046
H53	H	1.695835	-1.029502	0.268821
H54	H	1.765305	-1.120209	0.286588
C55	C	1.024114	-0.706257	0.548437
C56	C	1.081049	-0.745238	0.636784
C57	C	1.106396	-0.844236	0.622464
H58	H	0.960074	-0.751840	0.541872
H59	H	1.066748	-0.701381	0.485362
H60	H	1.038416	-0.750120	0.699841
H61	H	1.145101	-0.699683	0.643365
H62	H	1.149029	-0.839360	0.559390
H63	H	1.042351	-0.889810	0.615897
H64	H	1.145037	-0.870693	0.682399
C65	C	1.341370	-0.950658	0.709434
C66	C	1.342211	-1.057888	0.708649
C67	C	1.267114	-1.112802	0.783594
H68	H	1.359113	-0.932886	0.778722
H69	H	1.272105	-0.932955	0.691503
H70	H	1.411461	-1.075584	0.726586
H71	H	1.324456	-1.075691	0.639380
H72	H	1.197849	-1.095099	0.765663
H73	H	1.284864	-1.095021	0.852876
H74	H	1.267667	-1.185563	0.783064
H75	H	1.542102	-0.898304	0.509037
C76	C	1.643744	-0.354683	0.982513
C77	C	1.643283	-0.356206	0.871551
C78	C	1.726512	-0.283740	0.824026
H79	H	1.634001	-0.286956	0.998002
H80	H	1.710267	-0.372235	1.010046
H81	H	1.576777	-0.338648	0.844027
H82	H	1.653041	-0.423916	0.856031
H83	H	1.793034	-0.301292	0.851559
H84	H	1.716761	-0.216018	0.839523
H85	H	1.726216	-0.284770	0.748735
C86	C	1.069487	-0.354916	0.407479
C87	C	1.030047	-0.382022	0.309439
C88	C	1.077461	-0.309656	0.226103
H89	H	1.052996	-0.287353	0.416516
H90	H	1.144903	-0.355019	0.408407
H91	H	0.954649	-0.381909	0.308512
H92	H	1.046538	-0.449574	0.300367
H93	H	1.152877	-0.309759	0.227031
H94	H	1.060966	-0.242097	0.235151
H95	H	1.050716	-0.328043	0.159573
C96	C	0.922997	-0.300639	0.607203
C97	C	0.865262	-0.262198	0.519212
C98	C	0.839853	-0.163177	0.533350
H99	H	0.880873	-0.305309	0.670574
H100	H	0.987059	-0.254865	0.613091
H101	H	0.801209	-0.307961	0.513336
H102	H	0.907366	-0.257503	0.455830
H103	H	0.903915	-0.117403	0.539238
H104	H	0.797732	-0.167857	0.596723
H105	H	0.800686	-0.137079	0.473647
C106	C	1.273655	-0.448759	0.994648
C107	C	1.258850	-0.349617	1.019240
C108	C	1.161445	-0.322928	0.977741
H109	H	1.274530	-0.448305	0.919174
H110	H	1.216740	-0.498358	1.025308
H111	H	1.315749	-0.300030	0.988576
H112	H	1.257954	-0.350045	1.094706
H113	H	1.104530	-0.372527	1.008402
H114	H	1.162330	-0.322479	0.902270
H115	H	1.151382	-0.255662	0.994430
H116	H	0.900908	-0.550342	0.404705
C117	C	1.057521	-0.449434	0.777668
C118	C	1.010794	-0.521740	0.861400
C119	C	1.052354	-0.495436	0.958952
H120	H	1.132825	-0.450282	0.777251
H121	H	1.042086	-0.381695	0.787469
H122	H	1.026237	-0.589462	0.851602
H123	H	0.935493	-0.520903	0.861852
H124	H	1.036919	-0.427696	0.968753
H125	H	1.127657	-0.496283	0.958523
H126	H	1.020649	-0.544485	1.015776
H127	H	0.890760	-0.632579	0.725663
H128	H	1.325263	-0.631954	1.161538
H129	H	1.447948	-0.327140	1.122009
H130	H	1.646309	-0.550354	1.151089
H131	H	1.498344	-0.679221	1.034740
