data_functionalizedCrystal
_audit_creation_method	'MofGen! by Chris Wilmer'
_symmetry_space_group_name_H-M	'P1'
_symmetry_Int_Tables_number	1
_symmetry_cell_setting	triclinic
loop_
_symmetry_equiv_pos_as_xyz
  x,y,z
_cell_length_a	10.654550
_cell_length_b	17.699083
_cell_length_c	9.130313
_cell_angle_alpha	89.994594
_cell_angle_beta	89.999724
_cell_angle_gamma	83.883973
loop_
_atom_site_label
_atom_site_type_symbol
_atom_site_fract_x
_atom_site_fract_y
_atom_site_fract_z
O1	O	1.665979	0.106303	-0.121693
O2	O	2.165979	0.606303	0.378307
O3	O	1.300323	0.116430	-0.121721
O4	O	1.800323	0.616430	0.378279
O5	O	1.493481	0.001243	-0.121693
O6	O	1.993481	0.501243	0.378307
O7	O	1.472820	0.221490	-0.121721
O8	O	1.972820	0.721490	0.378279
O9	O	1.493468	0.001240	0.121906
O10	O	1.993468	0.501240	0.621906
O11	O	1.300310	0.116427	0.121878
O12	O	1.800310	0.616427	0.621878
O13	O	1.665966	0.106299	0.121906
O14	O	2.165966	0.606299	0.621906
Cu15	Cu	1.483136	0.111363	0.144134
Cu16	Cu	1.983136	0.611363	0.644134
Cu17	Cu	1.483152	0.111367	-0.143949
Cu18	Cu	1.983152	0.611367	0.356051
O19	O	1.472807	0.221487	0.121878
O20	O	1.972807	0.721487	0.621878
C21	C	1.253531	0.115685	0.000076
C22	C	1.753531	0.615685	0.500076
C23	C	1.114127	0.113460	0.000066
C24	C	1.614127	0.613460	0.500066
C25	C	1.033454	0.181281	0.000061
C26	C	1.533454	0.681281	0.500061
C27	C	0.902470	0.179186	0.000087
C28	C	1.402470	0.679186	0.500087
C29	C	0.932844	0.041444	0.000115
C30	C	1.432844	0.541444	0.500115
C31	C	1.063826	0.043539	0.000100
C32	C	1.563826	0.543539	0.500100
C33	C	1.492735	-0.026960	0.000106
C34	C	1.992735	0.473040	0.500106
C35	C	1.490514	-0.110993	0.000107
C36	C	1.990514	0.389007	0.500107
C37	C	1.603894	-0.158893	0.000117
C38	C	2.103894	0.341107	0.500117
C39	C	1.601799	-0.237849	0.000104
C40	C	2.101799	0.262151	0.500104
C41	C	1.486323	-0.268904	0.000091
C42	C	1.986323	0.231096	0.500091
C43	C	1.372935	-0.220998	0.000076
C44	C	1.872935	0.279002	0.500076
C45	C	1.375030	-0.142043	0.000079
C46	C	1.875030	0.357957	0.500079
C47	C	1.364481	-0.539415	0.000064
C48	C	1.864481	-0.039415	0.500064
C49	C	1.362394	-0.618376	0.000065
C50	C	1.862394	-0.118376	0.500065
C51	C	1.591249	-0.635221	0.000089
C52	C	2.091249	-0.135221	0.500089
C53	C	1.593345	-0.556266	0.000092
C54	C	2.093345	-0.056266	0.500092
C55	C	1.479957	-0.508367	0.000069
C56	C	1.979957	-0.008367	0.500069
C57	C	1.482229	-0.422753	0.000080
C58	C	1.982229	0.077247	0.500080
C59	C	1.484050	-0.354516	0.000090
C60	C	1.984050	0.145484	0.500090
C61	C	1.712757	0.107045	0.000106
C62	C	2.212757	0.607045	0.500106
C63	C	1.852161	0.109269	0.000107
C64	C	2.352161	0.609269	0.500107
C65	C	1.473554	0.249690	0.000075
C66	C	1.973554	0.749690	0.500075
C67	C	1.475775	0.333722	0.000065
C68	C	1.975775	0.833722	0.500065
N69	N	1.483135	0.111360	0.346757
N70	N	1.983135	0.611360	0.846757
N71	N	1.483164	0.111364	-0.346572
N72	N	1.983164	0.611364	0.153428
C73	C	1.568694	0.060376	0.423421
C74	C	2.068694	0.560376	0.923421
C75	C	1.568706	0.060376	0.576758
C76	C	2.068706	0.560376	1.076758
C77	C	1.397596	0.162350	0.576753
C78	C	1.897596	0.662350	1.076753
C79	C	1.397579	0.162345	0.423419
C80	C	1.897579	0.662345	0.923419
H81	H	0.836791	0.234412	0.000087
H82	H	1.336791	0.734412	0.500087
Cl83	Cl	1.096686	0.269181	0.000027
Cl84	Cl	1.596686	0.769181	0.500027
Cl85	Cl	0.869599	-0.046452	0.000149
Cl86	Cl	1.369599	0.453548	0.500149
H87	H	1.327939	0.203863	0.639187
H88	H	1.827939	0.703863	1.139187
H89	H	1.129514	-0.011692	0.000108
H90	H	1.629514	0.488308	0.500108
Cl91	Cl	1.733797	-0.695443	0.000111
Cl92	Cl	2.233797	-0.195443	0.500111
Cl93	Cl	1.738520	-0.517230	0.000103
Cl94	Cl	2.238520	-0.017230	0.500103
Cl95	Cl	1.290004	0.226440	0.327032
Cl96	Cl	1.790004	0.726440	0.827032
H97	H	1.697927	-0.133614	0.000137
H98	H	2.197927	0.366386	0.500137
H99	H	1.694125	-0.276847	0.000116
H100	H	2.194125	0.223153	0.500116
H101	H	1.268354	-0.643657	0.000058
H102	H	1.768354	-0.143657	0.500058
H103	H	1.272153	-0.500424	0.000046
H104	H	1.772153	-0.000424	0.500046
Cl105	Cl	1.227764	-0.260039	0.000041
Cl106	Cl	1.727764	0.239961	0.500041
Cl107	Cl	1.676245	-0.003723	0.327052
Cl108	Cl	2.176245	0.496277	0.827052
Cl109	Cl	1.232489	-0.081825	0.000060
Cl110	Cl	1.732489	0.418175	0.500060
Cl111	Cl	1.676268	-0.003721	0.673131
Cl112	Cl	2.176268	0.496279	1.173131
