data_functionalizedCrystal
_audit_creation_method	'MofGen! by Chris Wilmer'
_symmetry_space_group_name_H-M	'P1'
_symmetry_Int_Tables_number	1
_symmetry_cell_setting	triclinic
loop_
_symmetry_equiv_pos_as_xyz
  x,y,z
_cell_length_a	16.120530
_cell_length_b	21.295417
_cell_length_c	21.295411
_cell_angle_alpha	89.978356
_cell_angle_beta	87.079038
_cell_angle_gamma	87.125778
loop_
_atom_site_label
_atom_site_type_symbol
_atom_site_fract_x
_atom_site_fract_y
_atom_site_fract_z
Zn1	Zn	1.274543	-0.299555	-0.404646
Zn2	Zn	1.774543	0.200445	0.095354
Zn3	Zn	1.274414	-0.404801	-0.299367
Zn4	Zn	1.774414	0.095199	0.200633
Zn5	Zn	1.135115	-0.294209	-0.294060
Zn6	Zn	1.635115	0.205791	0.205940
Zn7	Zn	1.135074	-0.399442	-0.399270
Zn8	Zn	1.635074	0.100558	0.100730
O9	O	1.204786	-0.349502	-0.349336
O10	O	1.704786	0.150498	0.150664
O11	O	1.391191	-0.317996	-0.395151
O12	O	1.891191	0.182004	0.104849
O13	O	1.255898	-0.390137	-0.210572
O14	O	1.755898	0.109863	0.289428
O15	O	1.153681	-0.206831	-0.308758
O16	O	1.653681	0.293169	0.191242
O17	O	1.391097	-0.395321	-0.317803
O18	O	1.891097	0.104679	0.182197
O19	O	1.256119	-0.210759	-0.390006
O20	O	1.756119	0.289241	0.109994
O21	O	1.153556	-0.308885	-0.206673
O22	O	1.653556	0.191115	0.293327
O23	O	1.018444	-0.303688	-0.303546
O24	O	1.518444	0.196312	0.196454
O25	O	1.153612	-0.386186	-0.488074
O26	O	1.653612	0.113814	0.011926
O27	O	1.018414	-0.381002	-0.380843
O28	O	1.518414	0.118998	0.119157
O29	O	1.256079	-0.312799	-0.492024
O30	O	1.756079	0.187201	0.007976
O31	O	1.255859	-0.492177	-0.312590
O32	O	1.755859	0.007823	0.187410
O33	O	1.153487	-0.488239	-0.385989
O34	O	1.653487	0.011761	0.114011
C35	C	0.988179	-0.341184	-0.341036
C36	C	1.488179	0.158816	0.158964
C37	C	0.895513	-0.337640	-0.337500
C38	C	1.395513	0.162360	0.162500
C39	C	1.204677	-0.513049	-0.349297
C40	C	1.704677	-0.013049	0.150703
C41	C	1.204707	-0.583018	-0.349304
C42	C	1.704707	-0.083018	0.150696
C43	C	0.725852	-0.331156	-0.331050
C44	C	1.225852	0.168844	0.168950
C45	C	0.684562	-0.367893	-0.367668
C46	C	1.184562	0.132107	0.132332
C47	C	0.590156	-0.364286	-0.364079
C48	C	1.090156	0.135714	0.135921
C49	C	0.820266	-0.334763	-0.334638
C50	C	1.320266	0.165237	0.165362
C51	C	1.258059	-0.617916	-0.311128
C52	C	1.758059	-0.117916	0.188872
C53	C	1.258098	-0.683660	-0.311144
C54	C	1.758098	-0.183660	0.188856
C55	C	1.204770	-0.714503	-0.349328
C56	C	1.704770	-0.214503	0.150672
C57	C	1.151413	-0.679597	-0.387512
C58	C	1.651413	-0.179597	0.112488
C59	C	1.151382	-0.613855	-0.387499
C60	C	1.651382	-0.113855	0.112501
N61	N	1.131839	-0.814973	-0.351332
N62	N	1.631839	-0.314973	0.148668
N63	N	1.131872	-0.877426	-0.351340
N64	N	1.631872	-0.377426	0.148660
C65	C	1.204863	-0.912581	-0.349368
C66	C	1.704863	-0.412581	0.150632
N67	N	1.277823	-0.882925	-0.347375
N68	N	1.777823	-0.382925	0.152625
N69	N	1.277790	-0.820467	-0.347364
N70	N	1.777790	-0.320467	0.152636
C71	C	1.204799	-0.785790	-0.349346
C72	C	1.704799	-0.285790	0.150654
C73	C	1.258263	-1.018767	-0.311207
C74	C	1.758263	-0.518767	0.188793
C75	C	1.258303	-1.084512	-0.311227
C76	C	1.758303	-0.584512	0.188773
C77	C	1.151611	-1.080447	-0.387591
C78	C	1.651611	-0.580447	0.112409
C79	C	1.151578	-1.014704	-0.387575
C80	C	1.651578	-0.514704	0.112425
C81	C	1.204903	-0.983867	-0.349379
C82	C	1.704903	-0.483867	0.150621
C83	C	1.422240	-0.357853	-0.357669
C84	C	1.922240	0.142147	0.142331
C85	C	1.514906	-0.361411	-0.361220
C86	C	2.014906	0.138589	0.138780
C87	C	1.204856	-0.349491	-0.513529
C88	C	1.704856	0.150509	-0.013529
C89	C	1.204885	-0.349486	-0.583498
C90	C	1.704885	0.150514	-0.083498
C91	C	1.204919	-0.185316	-0.349390
C92	C	1.704919	0.314684	0.150610
C93	C	1.204975	-0.115350	-0.349413
C94	C	1.704975	0.384650	0.150587
C95	C	1.258237	-0.311272	-0.618422
C96	C	1.758237	0.188728	-0.118422
C97	C	1.258236	-0.311245	-0.684165
C98	C	1.758236	0.188755	-0.184165
C99	C	1.204892	-0.349443	-0.714981
C100	C	1.704892	0.150557	-0.214981
C101	C	1.151529	-0.387660	-0.680048
C102	C	1.651529	0.112340	-0.180048
C103	C	1.151526	-0.387682	-0.614307
C104	C	1.651526	0.112318	-0.114307
N105	N	1.198459	-0.404264	-0.817950
N106	N	1.698459	0.095736	-0.317950
N107	N	1.198467	-0.404242	-0.880402
N108	N	1.698467	0.095758	-0.380402
C109	C	1.204897	-0.349380	-0.913056
C110	C	1.704897	0.150620	-0.413056
N111	N	1.211334	-0.294539	-0.880899
N112	N	1.711334	0.205461	-0.380899
N113	N	1.211331	-0.294562	-0.818442
N114	N	1.711331	0.205438	-0.318442
C115	C	1.204889	-0.349424	-0.786266
C116	C	1.704889	0.150576	-0.286266
C117	C	1.258251	-0.311132	-1.019266
C118	C	1.758251	0.188868	-0.519266
C119	C	1.258244	-0.311104	-1.085009
C120	C	1.758244	0.188896	-0.585009
C121	C	1.151541	-0.387525	-1.080892
C122	C	1.651541	0.112475	-0.580892
C123	C	1.151543	-0.387548	-1.015149
C124	C	1.651543	0.112452	-0.515149
C125	C	1.204903	-0.349353	-0.984340
C126	C	1.704903	0.150647	-0.484340
C127	C	1.204765	-0.349469	-0.185783
C128	C	1.704765	0.150531	0.314217
C129	C	1.204898	-0.349302	-0.115821
C130	C	1.704898	0.150698	0.384179
H131	H	0.690303	-0.296998	-0.297006
H132	H	1.190303	0.203002	0.202994
N133	N	1.097072	-0.979062	-0.426574
N134	N	1.597072	-0.479062	0.073426
N135	N	1.049463	-1.006605	-0.460667
N136	N	1.549463	-0.506605	0.039333
H137	H	1.010967	-0.981434	-0.488214
H138	H	1.510967	-0.481434	0.011786
H139	H	1.301689	-0.279981	-1.113443
H140	H	1.801689	0.220019	-0.613443
H141	H	1.301481	-0.592811	-0.280029
H142	H	1.801481	-0.092811	0.219971
N143	N	1.312755	-0.272113	-0.987800
N144	N	1.812755	0.227887	-0.487800
N145	N	1.360382	-0.237988	-1.018993
N146	N	1.860382	0.262012	-0.518993
H147	H	1.398876	-0.210429	-0.996773
H148	H	1.898876	0.289571	-0.496773
N149	N	1.097061	-0.426596	-0.979470
N150	N	1.597061	0.073404	-0.479470
N151	N	1.126360	-0.467846	-0.943913
N152	N	1.626360	0.032154	-0.443913
H153	H	1.087878	-0.495424	-0.918713
H154	H	1.587878	0.004576	-0.418713
N155	N	1.096879	-0.578194	-0.426488
N156	N	1.596879	-0.078194	0.073512
N157	N	1.096856	-0.519496	-0.426469
N158	N	1.596856	-0.019496	0.073531
H159	H	1.058363	-0.494309	-0.454005
H160	H	1.558363	0.005691	0.045995
H161	H	1.301547	-0.712080	-0.280057
H162	H	1.801547	-0.212080	0.219943
N163	N	1.096950	-0.711109	-0.426516
N164	N	1.596950	-0.211109	0.073484
N165	N	1.096984	-0.769808	-0.426522
N166	N	1.596984	-0.269808	0.073478
H167	H	1.058520	-0.792064	-0.454072
H168	H	1.558520	-0.292064	0.045928
H169	H	1.301686	-0.280170	-0.593342
H170	H	1.801686	0.219830	-0.093342
H171	H	0.720113	-0.402054	-0.401714
H172	H	1.220113	0.097946	0.098286
N173	N	1.312735	-0.987273	-0.272190
N174	N	1.812735	-0.487273	0.227810
N175	N	1.360375	-1.018444	-0.238110
N176	N	1.860375	-0.518444	0.261890
H177	H	1.398847	-0.996204	-0.210553
H178	H	1.898847	-0.496204	0.289447
N179	N	1.097135	-1.111953	-0.426587
N180	N	1.597135	-0.611953	0.073413
N181	N	1.044043	-1.146651	-0.402377
N182	N	1.544043	-0.646651	0.097623
H183	H	1.005568	-1.168905	-0.429920
H184	H	1.505568	-0.668905	0.070080
N185	N	1.097038	-0.426671	-0.711533
N186	N	1.597038	0.073329	-0.211533
N187	N	1.097048	-0.426647	-0.770230
N188	N	1.597048	0.073353	-0.270230
H189	H	1.058559	-0.454198	-0.792467
H190	H	1.558559	0.045802	-0.292467
N191	N	1.312820	-1.120153	-0.272234
N192	N	1.812820	-0.620153	0.227766
N193	N	1.360427	-1.092609	-0.238139
N194	N	1.860427	-0.592609	0.261861
H195	H	1.398933	-1.117780	-0.210600
H196	H	1.898933	-0.617780	0.289400
H197	H	1.301681	-0.280123	-0.712605
H198	H	1.801681	0.219877	-0.212605
H199	H	1.108076	-0.418799	-0.585872
H200	H	1.608076	0.081201	-0.085872
N201	N	1.097046	-0.426534	-1.112371
N202	N	1.597046	0.073466	-0.612371
N203	N	1.097051	-0.426508	-1.171068
N204	N	1.597051	0.073492	-0.671068
H205	H	1.058560	-0.454057	-1.193304
H206	H	1.558560	0.045943	-0.693304
