data_functionalizedCrystal
_audit_creation_method	'MofGen! by Chris Wilmer'
_symmetry_space_group_name_H-M	'P1'
_symmetry_Int_Tables_number	1
_symmetry_cell_setting	triclinic
loop_
_symmetry_equiv_pos_as_xyz
  x,y,z
_cell_length_a	14.971486
_cell_length_b	16.109301
_cell_length_c	13.448316
_cell_angle_alpha	89.991973
_cell_angle_beta	89.998199
_cell_angle_gamma	83.537805
loop_
_atom_site_label
_atom_site_type_symbol
_atom_site_fract_x
_atom_site_fract_y
_atom_site_fract_z
O1	O	1.186791	0.108348	-0.082581
O2	O	1.686791	0.608348	0.417419
O3	O	0.926372	0.121323	-0.082608
O4	O	1.426372	0.621323	0.417392
O5	O	1.063736	-0.006187	-0.082584
O6	O	1.563736	0.493813	0.417416
O7	O	1.049428	0.235857	-0.082605
O8	O	1.549428	0.735857	0.417395
O9	O	1.063718	-0.006195	0.082800
O10	O	1.563718	0.493805	0.582800
O11	O	0.926355	0.121315	0.082776
O12	O	1.426355	0.621315	0.582776
O13	O	1.186774	0.108340	0.082803
O14	O	1.686774	0.608340	0.582803
Cu15	Cu	1.056563	0.114827	0.097890
Cu16	Cu	1.556563	0.614827	0.597890
Cu17	Cu	1.056583	0.114836	-0.097695
Cu18	Cu	1.556583	0.614836	0.402305
O19	O	1.049410	0.235850	0.082778
O20	O	1.549410	0.735850	0.582778
C21	C	0.893040	0.120739	0.000080
C22	C	1.393040	0.620739	0.500080
C23	C	0.793745	0.119000	0.000070
C24	C	1.293745	0.619000	0.500070
C25	C	0.736412	0.193908	0.000065
C26	C	1.236412	0.693908	0.500065
C27	C	0.643115	0.192269	0.000080
C28	C	1.143115	0.692269	0.500080
C29	C	0.607153	0.115721	0.000093
C30	C	1.107153	0.615721	0.500093
C31	C	0.664494	0.040807	0.000101
C32	C	1.164494	0.540807	0.500101
C33	C	0.757789	0.042447	0.000093
C34	C	1.257789	0.542447	0.500093
C35	C	0.470036	0.037395	0.000115
C36	C	0.970036	0.537395	0.500115
C37	C	0.376734	0.035755	0.000121
C38	C	0.876734	0.535755	0.500121
C39	C	0.355362	0.187217	0.000102
C40	C	0.855362	0.687217	0.500102
C41	C	0.448657	0.188857	0.000094
C42	C	0.948657	0.688857	0.500094
C43	C	0.505991	0.113942	0.000100
C44	C	1.005991	0.613942	0.500100
C45	C	1.063147	-0.037166	0.000109
C46	C	1.563147	0.462834	0.500109
C47	C	1.061410	-0.129464	0.000110
C48	C	1.561410	0.370536	0.500110
C49	C	1.138878	-0.351640	0.000102
C50	C	1.638878	0.148360	0.500102
C51	C	1.137239	-0.438362	0.000094
C52	C	1.637239	0.061638	0.500094
C53	C	0.974262	-0.418691	0.000081
C54	C	1.474262	0.081309	0.500081
C55	C	0.975902	-0.331970	0.000082
C56	C	1.475902	0.168030	0.500082
C57	C	1.058213	-0.298447	0.000098
C58	C	1.558213	0.201553	0.500098
C59	C	1.054933	-0.471890	0.000088
C60	C	1.554933	0.028110	0.500088
C61	C	1.053155	-0.565918	0.000079
C62	C	1.553155	-0.065918	0.500079
C63	C	1.059992	-0.204413	0.000105
C64	C	1.559992	0.295587	0.500105
C65	C	1.220106	0.108924	0.000112
C66	C	1.720106	0.608924	0.500112
C67	C	1.319401	0.110663	0.000116
C68	C	1.819401	0.610663	0.500116
C69	C	1.049999	0.266829	0.000084
C70	C	1.549999	0.766829	0.500084
C71	C	1.051736	0.359127	0.000076
C72	C	1.551736	0.859127	0.500076
N73	N	1.056555	0.114820	0.235454
N74	N	1.556555	0.614820	0.735454
N75	N	1.056598	0.114837	-0.235260
N76	N	1.556598	0.614837	0.264740
C77	C	1.117398	0.058382	0.287506
C78	C	1.617398	0.558382	0.787506
C79	C	1.117404	0.058381	0.391609
C80	C	1.617404	0.558381	0.891609
C81	C	1.056570	0.114823	0.443659
C82	C	1.556570	0.614823	0.943659
C83	C	0.995720	0.171264	0.391601
C84	C	1.495720	0.671264	0.891601
C85	C	0.995711	0.171260	0.287499
C86	C	1.495711	0.671260	0.787499
C87	C	0.995745	0.171269	0.608581
C88	C	1.495745	0.671269	1.108581
C89	C	0.995755	0.171275	0.712689
C90	C	1.495755	0.671275	1.212689
C91	C	1.117438	0.058391	0.712690
C92	C	1.617438	0.558391	1.212690
C93	C	1.117429	0.058387	0.608589
C94	C	1.617429	0.558387	1.108589
C95	C	1.056580	0.114829	0.556538
C96	C	1.556580	0.614829	1.056538
H97	H	0.308675	0.248215	0.000101
H98	H	0.808675	0.748215	0.500101
H99	H	0.907247	-0.445996	0.000070
H100	H	1.407247	0.054004	0.500070
C101	C	0.533102	-0.045016	0.000119
C102	C	1.033102	0.454984	0.500119
N103	N	0.580603	-0.107086	0.000114
N104	N	1.080603	0.392914	0.500114
C105	C	0.488213	0.273064	0.000083
C106	C	0.988213	0.773064	0.500083
N107	N	0.518006	0.336489	0.000081
N108	N	1.018006	0.836489	0.500081
C109	C	1.229422	-0.314768	0.000109
C110	C	1.729422	0.185232	0.500109
N111	N	1.297623	-0.286998	0.000109
N112	N	1.797623	0.213002	0.500109
C113	C	1.184322	-0.003710	0.230260
C114	C	1.684322	0.496290	0.730260
N115	N	1.234727	-0.050483	0.187146
N116	N	1.734727	0.449517	0.687146
C117	C	0.928793	0.233343	0.448859
C118	C	1.428793	0.733343	0.948859
N119	N	0.878382	0.280102	0.491986
N120	N	1.378382	0.780102	0.991986
H121	H	0.910211	-0.288658	0.000075
H122	H	1.410211	0.211342	0.500075
C123	C	0.928785	0.233352	0.230243
C124	C	1.428785	0.733352	0.730243
N125	N	0.878376	0.280123	0.187120
N126	N	1.378376	0.780123	0.687120
H127	H	0.946216	0.217235	0.755063
H128	H	1.446216	0.717235	1.255063
C129	C	1.184315	-0.003725	0.448861
C130	C	1.684315	0.496275	0.948861
N131	N	1.234707	-0.050514	0.491982
N132	N	1.734707	0.449486	0.991982
H133	H	1.166969	0.012432	0.566210
H134	H	1.666969	0.512432	1.066210
H135	H	1.166983	0.012434	0.755077
H136	H	1.666983	0.512434	1.255077
H137	H	0.946192	0.217228	0.566204
H138	H	1.446192	0.717228	1.066204
H139	H	0.765684	0.256242	0.000053
H140	H	1.265684	0.756242	0.500053
H141	H	0.596437	0.253267	0.000074
H142	H	1.096437	0.753267	0.500074
H143	H	0.347458	-0.026577	0.000133
H144	H	0.847458	0.473423	0.500133
H145	H	0.804470	-0.018551	0.000097
H146	H	1.304470	0.481449	0.500097
C147	C	1.225977	-0.496871	0.000108
C148	C	1.725977	0.003129	0.500108
N149	N	1.292819	-0.540939	0.000120
N150	N	1.792819	-0.040939	0.500120
H151	H	0.635206	-0.021520	0.000126
H152	H	1.135206	0.478480	0.500126
