data_functionalizedCrystal
_audit_creation_method	'MofGen! by Chris Wilmer'
_symmetry_space_group_name_H-M	'P1'
_symmetry_Int_Tables_number	1
_symmetry_cell_setting	triclinic
loop_
_symmetry_equiv_pos_as_xyz
  x,y,z
_cell_length_a	6.817900
_cell_length_b	15.301126
_cell_length_c	10.943624
_cell_angle_alpha	93.526548
_cell_angle_beta	108.838799
_cell_angle_gamma	104.177575
loop_
_atom_site_label
_atom_site_type_symbol
_atom_site_fract_x
_atom_site_fract_y
_atom_site_fract_z
V1	V	-4.091711	-0.124735	-0.402943
O2	O	-4.074352	0.006018	-0.394869
O3	O	-4.046281	-0.247352	-0.400576
O4	O	-4.070041	-0.122806	-0.578504
O5	O	-4.050427	-0.119390	-0.215710
V6	V	-4.571490	-0.109097	-0.380502
O7	O	-4.361181	-0.159039	-0.452171
O8	O	-4.752217	-0.074793	-0.331274
O9	O	-4.393714	0.013520	-0.382869
O10	O	-4.706246	-0.239850	-0.388576
O11	O	-4.730171	-0.114442	-0.567735
O12	O	-4.369953	-0.111026	-0.204941
C13	C	-3.891139	-0.277244	-0.394320
C14	C	-3.935460	-0.377485	-0.393554
C15	C	-4.139502	-0.429171	-0.399649
C16	C	-4.181137	-0.523358	-0.398937
C17	C	-4.018724	-0.565857	-0.392121
C18	C	-3.814667	-0.514165	-0.386030
C19	C	-3.773039	-0.419980	-0.386751
C20	C	-3.901445	-0.710476	-0.384525
C21	C	-3.943074	-0.804667	-0.383801
C22	C	-4.309544	-0.813854	-0.396711
C23	C	-4.267915	-0.719669	-0.397432
C24	C	-4.063859	-0.667983	-0.391338
C25	C	-3.921447	-0.118371	-0.621283
C26	C	-3.985033	-0.117605	-0.764807
C27	C	-3.830847	-0.112446	-0.841938
C28	C	-4.005603	-0.189024	-0.948169
C29	C	-3.923600	-0.039671	-0.914312
C30	C	-4.158986	-0.194255	-0.869161
C31	C	-4.076916	-0.044835	-0.835281
C32	C	-4.251805	-0.121434	-0.941482
C33	C	-4.212197	0.043407	-0.389122
C34	C	-4.147116	0.143647	-0.389896
C35	C	-4.181889	-0.115463	-0.162156
C36	C	-4.097541	-0.116225	-0.018630
H37	H	-4.400166	-0.685068	-0.402974
H38	H	-4.347286	-0.565437	-0.403902
C39	C	-3.589723	-0.107452	-0.783209
H40	H	-3.564253	-0.158768	-0.822238
H41	H	-3.505793	-0.053079	-0.799506
H42	H	-3.550383	-0.107447	-0.691642
H43	H	-4.475686	-0.855939	-0.401653
H44	H	-4.271757	-0.394574	-0.405186
C45	C	-3.764444	-0.851422	-0.376329
H46	H	-3.818463	-0.914916	-0.376762
H47	H	-3.719882	-0.842334	-0.449469
H48	H	-3.644789	-0.825868	-0.298127
H49	H	-4.106317	0.016126	-0.786105
C50	C	-3.548587	-0.363125	-0.380035
H51	H	-3.457813	-0.401922	-0.375859
H52	H	-3.562243	-0.334424	-0.455711
H53	H	-3.487213	-0.317960	-0.304371
C54	C	-3.676981	-0.653622	-0.377808
H55	H	-3.586205	-0.692418	-0.373628
H56	H	-3.690623	-0.624917	-0.453480
H57	H	-3.615617	-0.608460	-0.302141
H58	H	-3.824705	0.025644	-0.934869
H59	H	-3.682434	-0.548776	-0.380489
H60	H	-4.257898	-0.259658	-0.848822
H61	H	-3.976118	-0.249982	-0.997309
C62	C	-4.493052	-0.126591	-0.999934
H63	H	-4.576789	-0.181518	-0.984833
H64	H	-4.519056	-0.075885	-0.959768
H65	H	-4.532152	-0.125573	-1.091282
