data_functionalizedCrystal
_audit_creation_method	'MofGen! by Chris Wilmer'
_symmetry_space_group_name_H-M	'P1'
_symmetry_Int_Tables_number	1
_symmetry_cell_setting	triclinic
loop_
_symmetry_equiv_pos_as_xyz
  x,y,z
_cell_length_a	13.033293
_cell_length_b	16.120444
_cell_length_c	13.032268
_cell_angle_alpha	80.356652
_cell_angle_beta	90.920818
_cell_angle_gamma	100.431871
loop_
_atom_site_label
_atom_site_type_symbol
_atom_site_fract_x
_atom_site_fract_y
_atom_site_fract_z
Zn1	Zn	1.479894	-0.262707	0.795796
Zn2	Zn	1.813227	0.070626	1.129129
Zn3	Zn	2.146560	0.403960	1.462463
Zn4	Zn	1.493060	-0.384053	0.630435
Zn5	Zn	1.826393	-0.050720	0.963768
Zn6	Zn	2.159726	0.282613	1.297101
Zn7	Zn	1.330069	-0.258248	0.601729
Zn8	Zn	1.663402	0.075085	0.935062
Zn9	Zn	1.996736	0.408419	1.268395
Zn10	Zn	1.296822	-0.419254	0.782392
Zn11	Zn	1.630156	-0.085921	1.115726
Zn12	Zn	1.963489	0.247413	1.449059
O13	O	1.399961	-0.331066	0.702588
O14	O	1.733294	0.002268	1.035921
O15	O	2.066628	0.335601	1.369255
O16	O	1.626468	-0.265939	0.791483
O17	O	1.959802	0.067395	1.124817
O18	O	2.293135	0.400728	1.458150
O19	O	1.490862	-0.350767	0.481814
O20	O	1.824196	-0.017434	0.815147
O21	O	2.157529	0.315899	1.148481
O22	O	1.358348	-0.140674	0.621068
O23	O	1.691681	0.192659	0.954401
O24	O	2.025014	0.525993	1.287735
O25	O	1.636141	-0.355091	0.669993
O26	O	1.969474	-0.021758	1.003326
O27	O	2.302808	0.311576	1.336660
O28	O	1.468423	-0.143950	0.763649
O29	O	1.801756	0.189383	1.096982
O30	O	2.135090	0.522717	1.430315
O31	O	1.371114	-0.258339	0.460724
O32	O	1.704447	0.074995	0.794057
O33	O	2.037781	0.408328	1.127390
O34	O	1.180831	-0.292471	0.608071
O35	O	1.514164	0.040862	0.941405
O36	O	1.847497	0.374195	1.274738
O37	O	1.301683	-0.415085	0.928983
O38	O	1.635017	-0.081752	1.262317
O39	O	1.968350	0.251581	1.595650
O40	O	1.156404	-0.410762	0.740804
O41	O	1.489738	-0.077428	1.074137
O42	O	1.823071	0.255905	1.407471
O43	O	1.436185	-0.300071	0.938831
O44	O	1.769518	0.033262	1.272164
O45	O	2.102852	0.366596	1.605497
O46	O	1.458624	-0.506888	0.656996
O47	O	1.791958	-0.173555	0.990329
O48	O	2.125291	0.159778	1.323663
O49	O	1.314450	-0.532750	0.768639
O50	O	1.647783	-0.199417	1.101972
O51	O	1.981116	0.133917	1.435306
C52	C	1.131065	-0.354953	0.669869
C53	C	1.464398	-0.021620	1.003202
C54	C	1.797732	0.311714	1.336536
C55	C	1.016026	-0.365195	0.655897
C56	C	1.349359	-0.031862	0.989231
C57	C	1.682692	0.301472	1.322564
C58	C	0.959932	-0.325741	0.709881
C59	C	1.293266	0.007592	1.043214
C60	C	1.626599	0.340925	1.376548
C61	C	0.841033	-0.336326	0.695442
C62	C	1.174366	-0.002993	1.028775
C63	C	1.507699	0.330340	1.362108
C64	C	1.384383	-0.550458	0.714504
C65	C	1.717716	-0.217125	1.047837
C66	C	2.051050	0.116209	1.381171
C67	C	1.377809	-0.644311	0.719648
C68	C	1.711142	-0.310977	1.052981
C69	C	2.044475	0.022356	1.386315
C70	C	1.434289	-0.845131	0.676157
C71	C	1.767623	-0.511798	1.009491
C72	C	2.100956	-0.178464	1.342824
C73	C	1.365823	-0.816133	0.729053
C74	C	1.699156	-0.482800	1.062386
C75	C	2.032490	-0.149467	1.395719
C76	C	1.372494	-0.720522	0.723818
C77	C	1.705827	-0.387189	1.057152
C78	C	2.039161	-0.053855	1.390485
C79	C	1.427620	-0.940750	0.681390
C80	C	1.760954	-0.607417	1.014724
C81	C	2.094287	-0.274084	1.348057
C82	C	1.669907	-0.307086	0.735435
C83	C	2.003240	0.026248	1.068769
C84	C	2.336574	0.359581	1.402102
C85	C	1.784942	-0.296867	0.749433
C86	C	2.118275	0.036466	1.082766
C87	C	2.451608	0.369800	1.416100
C88	C	1.363757	-0.362002	0.972505
C89	C	1.697090	-0.028669	1.305839
C90	C	2.030424	0.304664	1.639172
C91	C	1.348329	-0.375185	1.087528
C92	C	1.681662	-0.041852	1.420861
C93	C	2.014995	0.291481	1.754195
C94	C	1.415625	-0.110816	0.690651
C95	C	1.748959	0.222517	1.023985
C96	C	2.082292	0.555850	1.357318
C97	C	1.422300	-0.016959	0.685565
C98	C	1.755634	0.316374	1.018898
C99	C	2.088967	0.649707	1.352231
C100	C	1.436088	-0.300183	0.433725
C101	C	1.769422	0.033150	0.767058
C102	C	2.102755	0.366483	1.100391
C103	C	1.451734	-0.286744	0.318714
C104	C	1.785067	0.046589	0.652047
C105	C	2.118400	0.379922	0.985381
C106	C	1.407999	-0.324156	1.143681
C107	C	1.741333	0.009177	1.477014
C108	C	2.074666	0.342510	1.810348
C109	C	1.392055	-0.337781	1.262563
C110	C	1.725388	-0.004447	1.595896
C111	C	2.058722	0.328886	1.929230
H112	H	0.976025	-0.406807	0.598988
H113	H	1.309358	-0.073474	0.932321
H114	H	1.642691	0.259859	1.265655
N115	N	1.308728	-0.409007	1.315443
N116	N	1.642061	-0.075673	1.648777
N117	N	1.975394	0.257660	1.982110
H118	H	1.309143	-0.408640	1.392872
H119	H	1.642476	-0.075306	1.726205
H120	H	1.975810	0.258027	2.059538
H121	H	1.323044	-0.465745	1.301839
H122	H	1.656378	-0.132411	1.635172
H123	H	1.989711	0.200922	1.968506
H124	H	1.514623	-0.232962	1.278782
H125	H	1.847957	0.100372	1.612115
H126	H	2.181290	0.433705	1.945448
H127	H	0.824938	-0.255245	0.806339
H128	H	1.158272	0.078089	1.139672
H129	H	1.491605	0.411422	1.473006
N130	N	1.265006	-0.446408	1.140413
N131	N	1.598339	-0.113075	1.473746
N132	N	1.931673	0.220259	1.807079
H133	H	1.265421	-0.446041	1.217841
H134	H	1.598754	-0.112707	1.551174
H135	H	1.932088	0.220626	1.884507
H136	H	1.279323	-0.503146	1.126808
H137	H	1.612656	-0.169813	1.460141
H138	H	1.945989	0.163521	1.793475
N139	N	1.281540	-0.878356	0.794247
N140	N	1.614873	-0.545023	1.127580
N141	N	1.948207	-0.211689	1.460913
H142	H	1.288659	-0.938826	0.788791
H143	H	1.621992	-0.605493	1.122125
H144	H	1.955326	-0.272160	1.455458
H145	H	1.210855	-0.867776	0.768260
H146	H	1.544189	-0.534443	1.101593
H147	H	1.877522	-0.201109	1.434927
H148	H	0.999934	-0.284124	0.766784
H149	H	1.333268	0.049210	1.100117
H150	H	1.666601	0.382543	1.433451
N151	N	1.518558	-0.782913	0.610953
N152	N	1.851891	-0.449579	0.944286
N153	N	2.185225	-0.116246	1.277620
H154	H	1.589292	-0.793409	0.636890
H155	H	1.922625	-0.460076	0.970224
H156	H	2.255959	-0.126742	1.303557
H157	H	1.511340	-0.722470	0.616429
H158	H	1.844673	-0.389137	0.949762
H159	H	2.178006	-0.055804	1.283096
H160	H	1.470886	-0.270379	1.103743
H161	H	1.804219	0.062954	1.437077
H162	H	2.137552	0.396288	1.770410
N163	N	0.788067	-0.391446	0.620046
N164	N	1.121400	-0.058113	0.953379
N165	N	1.454733	0.275221	1.286712
H166	H	0.710637	-0.391192	0.620414
H167	H	1.043971	-0.057859	0.953748
H168	H	1.377304	0.275475	1.287081
H169	H	0.800489	-0.451941	0.641578
H170	H	1.133823	-0.118607	0.974911
H171	H	1.467156	0.214726	1.308244
