data_functionalizedCrystal
_audit_creation_method	'MofGen! by Chris Wilmer'
_symmetry_space_group_name_H-M	'P1'
_symmetry_Int_Tables_number	1
_symmetry_cell_setting	triclinic
loop_
_symmetry_equiv_pos_as_xyz
  x,y,z
_cell_length_a	10.685976
_cell_length_b	14.909042
_cell_length_c	10.686551
_cell_angle_alpha	97.938673
_cell_angle_beta	90.348485
_cell_angle_gamma	82.626747
loop_
_atom_site_label
_atom_site_type_symbol
_atom_site_fract_x
_atom_site_fract_y
_atom_site_fract_z
Zn1	Zn	2.004781	-0.440102	0.523875
Zn2	Zn	2.000613	-0.603040	0.300049
Zn3	Zn	1.778783	-0.438393	0.330398
Zn4	Zn	1.805329	-0.579779	0.527885
O5	O	1.897377	-0.515329	0.420552
O6	O	2.180536	-0.472166	0.479805
O7	O	1.958332	-0.590219	0.127754
O8	O	1.799396	-0.311260	0.367086
O9	O	2.177474	-0.591876	0.315361
O10	O	1.965436	-0.312515	0.509233
O11	O	1.795354	-0.469253	0.150051
O12	O	1.605996	-0.446698	0.370974
O13	O	1.844642	-0.552231	0.703674
O14	O	1.625500	-0.550574	0.516067
O15	O	1.991178	-0.449611	0.700728
O16	O	1.984074	-0.727315	0.319250
O17	O	1.840600	-0.710225	0.486640
C18	C	1.570033	-0.495927	0.447250
C19	C	1.429998	-0.487648	0.458699
C20	C	1.914801	-0.751794	0.400111
C21	C	1.922374	-0.852959	0.391400
C22	C	1.787040	-1.025327	0.549205
C23	C	1.794151	-1.120380	0.541025
C24	C	1.943702	-1.138121	0.366852
C25	C	1.936590	-1.043068	0.375033
C26	C	1.858258	-0.986673	0.466214
C27	C	1.851154	-0.891618	0.474400
C28	C	2.000696	-0.909361	0.300222
C29	C	2.007808	-1.004414	0.292041
C30	C	2.225998	-0.534807	0.393750
C31	C	2.366037	-0.543107	0.382329
C32	C	1.921336	-0.498517	0.749198
C33	C	1.931546	-0.491353	0.889247
C34	C	1.879920	-0.277941	0.441097
C35	C	1.872481	-0.176780	0.449852
C36	C	1.873578	-0.532013	0.093185
C37	C	1.863593	-0.538935	-0.046862
H38	H	1.787375	-0.845703	0.548647
F39	F	2.017813	-0.430944	0.957793
F40	F	2.076502	-0.868217	0.211896
H41	H	1.736161	-1.151847	0.608608
H42	H	2.007463	-1.184053	0.292606
F43	F	2.091171	-1.064442	0.195007
H44	H	1.418415	-0.596932	0.308184
F45	F	1.361549	-0.417307	0.555623
F46	F	1.703686	-0.965306	0.646255
H47	H	1.797609	-0.585156	0.900696
