data_functionalizedCrystal
_audit_creation_method	'MofGen! by Chris Wilmer'
_symmetry_space_group_name_H-M	'P1'
_symmetry_Int_Tables_number	1
_symmetry_cell_setting	triclinic
loop_
_symmetry_equiv_pos_as_xyz
  x,y,z
_cell_length_a	21.295417
_cell_length_b	21.295419
_cell_length_c	13.897441
_cell_angle_alpha	89.978117
_cell_angle_beta	89.963577
_cell_angle_gamma	90.045308
loop_
_atom_site_label
_atom_site_type_symbol
_atom_site_fract_x
_atom_site_fract_y
_atom_site_fract_z
Zn1	Zn	-0.250341	0.962339	-0.545372
Zn2	Zn	-0.355620	0.962246	-0.384057
Zn3	Zn	-0.250395	0.857067	-0.384087
Zn4	Zn	-0.355603	0.857032	-0.545306
O5	O	-0.302990	0.909671	-0.464706
O6	O	-0.264290	1.050416	-0.523988
O7	O	-0.341691	0.948270	-0.249079
O8	O	-0.162299	0.871085	-0.405522
O9	O	-0.341638	1.050348	-0.405471
O10	O	-0.162258	0.948428	-0.524017
O11	O	-0.264383	0.870995	-0.249101
O12	O	-0.264367	0.768973	-0.405458
O13	O	-0.341610	0.871025	-0.680297
O14	O	-0.341663	0.768947	-0.523905
O15	O	-0.264274	0.948394	-0.680345
O16	O	-0.443707	0.948236	-0.405407
O17	O	-0.443695	0.870935	-0.523876
C18	C	-0.303020	0.746119	-0.464678
C19	C	-0.303048	0.676151	-0.464690
C20	C	-0.262839	0.643343	-0.526497
C21	C	-0.262822	0.577600	-0.526501
C22	C	-0.303025	0.544669	-0.464707
C23	C	-0.343237	0.577485	-0.402888
C24	C	-0.343249	0.643227	-0.402879
N25	N	-0.358104	0.441394	-0.457169
N26	N	-0.358091	0.378942	-0.457183
C27	C	-0.302993	0.346594	-0.464729
N28	N	-0.247906	0.379057	-0.472279
N29	N	-0.247919	0.441514	-0.472270
C30	C	-0.303017	0.473383	-0.464710
C31	C	-0.262762	0.242500	-0.526543
C32	C	-0.262744	0.176756	-0.526540
C33	C	-0.343165	0.176643	-0.402932
C34	C	-0.343177	0.242385	-0.402930
C35	C	-0.302977	0.275310	-0.464741
C36	C	-0.466541	0.909589	-0.464652
C37	C	-0.536509	0.909611	-0.464662
C38	C	-0.569361	0.949897	-0.403038
C39	C	-0.635104	0.949927	-0.403060
C40	C	-0.667992	0.909659	-0.464695
C41	C	-0.635132	0.869370	-0.526330
C42	C	-0.569391	0.869346	-0.526314
N43	N	-0.771271	0.854591	-0.472039
N44	N	-0.833723	0.854616	-0.472049
C45	C	-0.866066	0.909729	-0.464750
N46	N	-0.833599	0.964818	-0.457421
N47	N	-0.771142	0.964793	-0.457406
C48	C	-0.739277	0.909680	-0.464720
C49	C	-0.970204	0.950051	-0.403147
C50	C	-1.035948	0.950081	-0.403175
C51	C	-1.035974	0.869519	-0.526441
C52	C	-0.970232	0.869494	-0.526418
C53	C	-0.937351	0.909759	-0.464765
C54	C	-0.138799	0.909771	-0.464780
C55	C	-0.068831	0.909814	-0.464812
C56	C	-0.302934	0.909716	-0.716299
C57	C	-0.302910	0.909735	-0.823513
C58	C	-0.302960	1.073861	-0.464733
C59	C	-0.302947	1.143829	-0.464745
C60	C	-0.302868	0.909752	-1.019808
C61	C	-0.302893	0.909740	-0.910575
C62	C	-0.303000	0.909663	-0.214091
C63	C	-0.302846	0.909766	-0.106878
H64	H	-0.230103	0.670146	-0.576828
C65	C	-0.670854	0.993555	-0.336066
C66	C	-0.708670	0.957928	-0.274226
C67	C	-0.741612	0.998092	-0.212497
H68	H	-0.641921	1.017539	-0.299256
H69	H	-0.696493	1.020978	-0.372956
H70	H	-0.683033	0.930516	-0.237340
H71	H	-0.737614	0.933946	-0.311010
H72	H	-0.767251	1.025515	-0.249387
H73	H	-0.712675	1.022074	-0.175693
H74	H	-0.767278	0.973926	-0.170537
C75	C	-0.219187	0.141053	-0.593708
C76	C	-0.254875	0.103281	-0.655412
C77	C	-0.214772	0.070377	-0.717293
H78	H	-0.195236	0.170009	-0.630609
H79	H	-0.191731	0.115388	-0.556921
H80	H	-0.282320	0.128944	-0.692195
H81	H	-0.278825	0.074314	-0.618538
H82	H	-0.187316	0.044711	-0.680507
H83	H	-0.190823	0.099337	-0.754187
H84	H	-0.238979	0.044740	-0.759161
C85	C	-0.386839	0.141011	-0.335733
C86	C	-0.422048	0.183819	-0.281588
C87	C	-0.462279	0.151014	-0.219660
H88	H	-0.414347	0.115346	-0.372447
H89	H	-0.362733	0.115391	-0.293724
H90	H	-0.446151	0.209428	-0.323592
H91	H	-0.394556	0.209485	-0.244854
H92	H	-0.438174	0.125394	-0.177651
H93	H	-0.489783	0.125351	-0.256382
H94	H	-0.486169	0.180054	-0.182909
H95	H	-0.375923	0.269098	-0.352604
H96	H	-0.542591	0.982685	-0.352839
H97	H	-0.661913	0.836584	-0.576516
C98	C	-0.934421	0.993808	-0.336377
C99	C	-0.896588	1.034109	-0.391036
C100	C	-0.863612	1.074421	-0.329560
H101	H	-0.963333	1.017869	-0.299662
H102	H	-0.908791	0.969750	-0.294319
H103	H	-0.922215	1.058164	-0.433077
H104	H	-0.867663	1.010066	-0.427749
H105	H	-0.837982	1.050364	-0.287503
H106	H	-0.892529	1.098478	-0.292849
H107	H	-0.837934	1.101767	-0.366637
C108	C	-0.533832	0.825532	-0.593256
C109	C	-0.576701	0.790263	-0.647228
C110	C	-0.543967	0.749889	-0.708895
H111	H	-0.508132	0.849518	-0.635394
H112	H	-0.508253	0.798073	-0.556332
H113	H	-0.602270	0.817719	-0.684150
H114	H	-0.602403	0.766264	-0.605116
H115	H	-0.518388	0.722430	-0.671971
H116	H	-0.518268	0.773880	-0.751027
H117	H	-0.573048	0.725950	-0.745516
H118	H	-0.375993	0.669939	-0.352547
C119	C	-0.219046	0.278138	-0.593682
C120	C	-0.183812	0.235331	-0.647790
C121	C	-0.143530	0.268136	-0.709641
H122	H	-0.243097	0.303772	-0.635725
H123	H	-0.191560	0.303789	-0.556883
H124	H	-0.211294	0.209691	-0.684586
H125	H	-0.159749	0.209695	-0.605773
H126	H	-0.116045	0.293787	-0.672842
H127	H	-0.167586	0.293769	-0.751677
H128	H	-0.119615	0.239096	-0.746354
H129	H	-1.062695	0.982891	-0.352996
H130	H	-1.062751	0.836734	-0.576630
H131	H	-0.375971	0.550669	-0.352574
C132	C	-0.219145	0.542083	-0.593723
C133	C	-0.183953	0.584988	-0.647868
C134	C	-0.143720	0.552294	-0.709814
H135	H	-0.191626	0.516447	-0.557022
H136	H	-0.243248	0.516443	-0.635732
H137	H	-0.159852	0.610616	-0.605865
H138	H	-0.211456	0.610625	-0.684589
H139	H	-0.167824	0.526655	-0.751823
H140	H	-0.116205	0.526659	-0.673106
H141	H	-0.119842	0.581400	-0.746565
C142	C	-0.934673	0.825677	-0.593351
C143	C	-0.977543	0.790405	-0.647316
C144	C	-0.944810	0.750028	-0.708980
H145	H	-0.908974	0.849661	-0.635493
H146	H	-0.909094	0.798220	-0.556424
H147	H	-1.003112	0.817859	-0.684240
H148	H	-1.003244	0.766409	-0.605200
H149	H	-0.919230	0.722571	-0.672054
H150	H	-0.919112	0.774017	-0.751115
H151	H	-0.973892	0.726087	-0.745597
