data_functionalizedCrystal
_audit_creation_method	'MofGen! by Chris Wilmer'
_symmetry_space_group_name_H-M	'P1'
_symmetry_Int_Tables_number	1
_symmetry_cell_setting	triclinic
loop_
_symmetry_equiv_pos_as_xyz
  x,y,z
_cell_length_a	18.050589
_cell_length_b	13.033808
_cell_length_c	13.033454
_cell_angle_alpha	105.145795
_cell_angle_beta	82.784202
_cell_angle_gamma	97.222326
loop_
_atom_site_label
_atom_site_type_symbol
_atom_site_fract_x
_atom_site_fract_y
_atom_site_fract_z
Zn1	Zn	-0.120134	1.547437	-0.394628
Zn2	Zn	0.213199	1.880770	-0.061295
Zn3	Zn	0.546532	2.214103	0.272039
Zn4	Zn	-0.258350	1.569836	-0.217048
Zn5	Zn	0.074983	1.903169	0.116286
Zn6	Zn	0.408316	2.236503	0.449619
Zn7	Zn	-0.148186	1.392368	-0.239565
Zn8	Zn	0.185148	1.725702	0.093769
Zn9	Zn	0.518481	2.059035	0.427102
Zn10	Zn	-0.258314	1.369774	-0.417118
Zn11	Zn	0.075019	1.703107	-0.083785
Zn12	Zn	0.408352	2.036440	0.249549
O13	O	-0.196246	1.469854	-0.317090
O14	O	0.137087	1.803187	0.016244
O15	O	0.470420	2.136520	0.349577
O16	O	-0.126745	1.699032	-0.352236
O17	O	0.206589	2.032365	-0.018903
O18	O	0.539922	2.365698	0.314430
O19	O	-0.255492	1.565125	-0.071410
O20	O	0.077842	1.898458	0.261923
O21	O	0.411175	2.231791	0.595257
O22	O	-0.040532	1.413020	-0.260145
O23	O	0.292802	1.746354	0.073188
O24	O	0.626135	2.079687	0.406521
O25	O	-0.228291	1.715488	-0.221769
O26	O	0.105042	2.048822	0.111565
O27	O	0.438375	2.382155	0.444898
O28	O	-0.019922	1.526948	-0.374070
O29	O	0.313411	1.860282	-0.040737
O30	O	0.646744	2.193615	0.292597
O31	O	-0.174554	1.434740	-0.087953
O32	O	0.158779	1.768073	0.245381
O33	O	0.492113	2.101407	0.578714
O34	O	-0.174519	1.240748	-0.281953
O35	O	0.158814	1.574081	0.051381
O36	O	0.492148	1.907414	0.384714
O37	O	-0.228230	1.374511	-0.562760
O38	O	0.105104	1.707844	-0.229426
O39	O	0.438437	2.041178	0.103907
O40	O	-0.255430	1.224147	-0.412401
O41	O	0.077903	1.557481	-0.079067
O42	O	0.411237	1.890814	0.254266
O43	O	-0.126710	1.505039	-0.546236
O44	O	0.206624	1.838373	-0.212903
O45	O	0.539957	2.171706	0.120430
O46	O	-0.362279	1.543216	-0.243576
O47	O	-0.028945	1.876549	0.089757
O48	O	0.304388	2.209882	0.423090
O49	O	-0.362252	1.396231	-0.390567
O50	O	-0.028919	1.729564	-0.057234
O51	O	0.304415	2.062897	0.276100
C52	C	-0.389210	1.469728	-0.317088
C53	C	-0.055877	1.803061	0.016245
C54	C	0.277457	2.136394	0.349578
C55	C	-0.471750	1.469766	-0.317111
C56	C	-0.138417	1.803100	0.016222
C57	C	0.194917	2.136433	0.349556
C58	C	-0.218015	1.193911	-0.352061
C59	C	0.115318	1.527244	-0.018728
C60	C	0.448652	1.860578	0.314606
C61	C	-0.227344	1.075858	-0.367047
C62	C	0.105990	1.409192	-0.033714
C63	C	0.439323	1.742525	0.299619
C64	C	-0.174337	1.434756	-0.594112
C65	C	0.158997	1.768089	-0.260779
C66	C	0.492330	2.101423	0.072555
C67	C	-0.165000	1.419800	-0.712163
C68	C	0.168333	1.753133	-0.378829
C69	C	0.501667	2.086466	-0.045496
C70	C	-0.671210	1.389909	-0.397011
C71	C	-0.337876	1.723242	-0.063677
C72	C	-0.004543	2.056576	0.269656
C73	C	-0.730339	1.376320	-0.303376
C74	C	-0.397006	1.709653	0.029957
C75	C	-0.063672	2.042987	0.363290
C76	C	-0.622871	1.469869	-0.317111
C77	C	-0.289538	1.803202	0.016222
C78	C	0.043796	2.136536	0.349555
C79	C	-0.710819	1.483509	-0.410750
C80	C	-0.377485	1.816842	-0.077417
C81	C	-0.044152	2.150175	0.255916
C82	C	-0.768847	1.469965	-0.317121
C83	C	-0.435513	1.803298	0.016212
C84	C	-0.102180	2.136632	0.349546
C85	C	-0.680921	1.456236	-0.223432
C86	C	-0.347588	1.789569	0.109901
C87	C	-0.014255	2.122902	0.443234
C88	C	-0.661388	1.563461	-0.330866
C89	C	-0.328054	1.896795	0.002468
C90	C	0.005279	2.230128	0.335801
C91	C	-0.720497	1.549918	-0.237160
C92	C	-0.387164	1.883251	0.096173
C93	C	-0.053830	2.216584	0.429507
C94	C	-0.538778	1.469811	-0.317108
C95	C	-0.205445	1.803144	0.016226
C96	C	0.127888	2.136478	0.349559
C97	C	-0.852938	1.470025	-0.317114
C98	C	-0.519605	1.803358	0.016220
C99	C	-0.186272	2.136691	0.349553
C100	C	-0.002525	1.470006	-0.317111
C101	C	0.330808	1.803339	0.016223
C102	C	0.664142	2.136673	0.349556
C103	C	0.080028	1.470071	-0.317119
C104	C	0.413361	1.803404	0.016214
C105	C	0.746694	2.136738	0.349547
C106	C	-0.201030	0.909386	-0.324777
C107	C	0.132303	1.242719	0.008557
C108	C	0.465637	1.576052	0.341890
C109	C	-0.191389	1.031400	-0.309284
C110	C	0.141944	1.364733	0.024049
C111	C	0.475278	1.698066	0.357383
C112	C	-0.174393	1.746874	-0.281982
C113	C	0.158940	2.080207	0.051351
C114	C	0.492274	2.413541	0.384685
C115	C	-0.165080	1.864923	-0.267021
C116	C	0.168253	2.198257	0.066312
C117	C	0.501586	2.531590	0.399645
C118	C	-0.200884	1.477643	-0.756608
C119	C	0.132450	1.810977	-0.423275
C120	C	0.465783	2.144310	-0.089941
C121	C	-0.191235	1.462186	-0.878619
C122	C	0.142099	1.795520	-0.545286
C123	C	0.475432	2.128853	-0.211953
C124	C	-0.218012	1.504876	-0.041137
C125	C	0.115321	1.838209	0.292196
C126	C	0.448654	2.171543	0.625530
C127	C	-0.227123	1.520038	0.076939
C128	C	0.106210	1.853372	0.410272
C129	C	0.439543	2.186705	0.743606
H130	H	-0.649579	1.322212	-0.464505
H131	H	-0.316246	1.655545	-0.131172
H132	H	0.017087	1.988878	0.202161
H133	H	-0.265263	1.023598	-0.427966
H134	H	0.068070	1.356932	-0.094633
H135	H	0.401404	1.690265	0.238700
H136	H	-0.760321	1.297216	-0.291755
H137	H	-0.426988	1.630550	0.041578
H138	H	-0.093654	1.963883	0.374911
Cl139	Cl	-0.259583	0.828703	-0.418813
Cl140	Cl	0.073751	1.162037	-0.085480
Cl141	Cl	0.407084	1.495370	0.247853
H142	H	-0.264988	1.581012	-0.870788
H143	H	0.068346	1.914346	-0.537455
H144	H	0.401679	2.247679	-0.204122
H145	H	-0.127168	0.917189	-0.206102
H146	H	0.206165	1.250522	0.127232
H147	H	0.539498	1.583855	0.460565
Cl148	Cl	-0.660303	1.438341	-0.101158
Cl149	Cl	-0.326970	1.771674	0.232175
Cl150	Cl	0.006363	2.105008	0.565509
Cl151	Cl	-0.615094	1.685554	-0.348883
Cl152	Cl	-0.281760	2.018888	-0.015550
Cl153	Cl	0.051573	2.352221	0.317783
H154	H	-0.127132	1.358839	-0.764439
H155	H	0.206202	1.692172	-0.431106
H156	H	0.539535	2.025506	-0.097772
H157	H	-0.742005	1.617587	-0.169526
H158	H	-0.408672	1.950921	0.163807
H159	H	-0.075338	2.284254	0.497140
H160	H	-0.153364	1.401221	-0.930892
H161	H	0.179970	1.734555	-0.597559
H162	H	0.513303	2.067888	-0.264226
H163	H	-0.724275	1.495008	-0.489936
H164	H	-0.390941	1.828342	-0.156602
H165	H	-0.057608	2.161675	0.176731
Cl166	Cl	-0.259339	1.571782	-0.675904
Cl167	Cl	0.073995	1.905115	-0.342570
Cl168	Cl	0.407328	2.238448	-0.009237
Cl169	Cl	-0.132851	1.112081	-0.215221
Cl170	Cl	0.200482	1.445415	0.118113
Cl171	Cl	0.533816	1.778748	0.451446
