data_functionalizedCrystal
_audit_creation_method	'MofGen! by Chris Wilmer'
_symmetry_space_group_name_H-M	'P1'
_symmetry_Int_Tables_number	1
_symmetry_cell_setting	triclinic
loop_
_symmetry_equiv_pos_as_xyz
  x,y,z
_cell_length_a	15.995350
_cell_length_b	14.853567
_cell_length_c	13.930277
_cell_angle_alpha	90.001389
_cell_angle_beta	89.996301
_cell_angle_gamma	83.563652
loop_
_atom_site_label
_atom_site_type_symbol
_atom_site_fract_x
_atom_site_fract_y
_atom_site_fract_z
O1	O	-1.111124	-0.116203	0.079741
O2	O	-0.867366	-0.130553	0.079760
O3	O	-0.995756	0.007861	0.079753
O4	O	-0.982734	-0.254616	0.079748
O5	O	-0.995738	0.007858	-0.079909
O6	O	-0.867347	-0.130556	-0.079902
O7	O	-1.111106	-0.116206	-0.079921
Zn8	Zn	-0.989223	-0.123381	-0.105261
Zn9	Zn	-0.989248	-0.123377	0.105100
O10	O	-0.982715	-0.254619	-0.079914
C11	C	-0.995157	0.041447	-0.000075
C12	C	-0.993389	0.141528	-0.000067
C13	C	-0.836161	-0.129961	-0.000068
C14	C	-0.743209	-0.128182	-0.000061
C15	C	-1.142311	-0.116798	-0.000090
C16	C	-1.235263	-0.118576	-0.000091
C17	C	-0.405454	-0.121795	-0.000081
C18	C	-0.452773	-0.023220	-0.000435
C19	C	-0.549465	-0.024999	-0.000069
C20	C	-0.573018	-0.124963	-0.000071
C21	C	-0.531998	-0.173583	0.091099
C22	C	-0.435359	-0.171106	0.091168
C23	C	-0.435002	-0.173146	-0.090397
C24	C	-0.531947	-0.173123	-0.091595
C25	C	-0.667717	-0.126759	-0.000063
C26	C	-0.310754	-0.120002	-0.000083
C27	C	-0.983315	-0.288206	-0.000083
C28	C	-0.985083	-0.388287	-0.000085
N29	N	-0.989213	-0.123383	-0.248827
C30	C	-0.909648	0.553949	-0.000078
C31	C	-1.062178	0.575436	-0.000090
C32	C	-1.063841	0.481405	-0.000084
C33	C	-0.988406	0.423641	-0.000077
C34	C	-0.911308	0.459909	-0.000076
C35	C	-1.140937	0.445129	-0.000096
C36	C	-1.142603	0.351093	-0.000091
C37	C	-1.067167	0.293327	-0.000077
C38	C	-0.990066	0.329600	-0.000075
C39	C	-0.914631	0.271837	-0.000068
C40	C	-0.837529	0.308108	-0.000058
C41	C	-0.835872	0.402144	-0.000062
C42	C	-1.068824	0.199292	-0.000074
C43	C	-0.916291	0.177796	-0.000065
C44	C	-0.938373	-0.068672	-0.299085
C45	C	-1.040063	-0.178090	-0.299074
C46	C	-1.040074	-0.178089	-0.399570
C47	C	-0.989234	-0.123378	-0.449828
C48	C	-0.938384	-0.068668	-0.399590
C49	C	-1.090929	-0.232791	-0.449815
C50	C	-1.090942	-0.232792	-0.550317
C51	C	-1.040097	-0.178085	-0.600577
C52	C	-0.989244	-0.123373	-0.550333
C53	C	-0.938405	-0.068662	-0.600591
C54	C	-0.887547	-0.013955	-0.550348
C55	C	-0.887539	-0.013961	-0.449850
C56	C	-1.040105	-0.178079	-0.701076
C57	C	-0.938415	-0.068658	-0.701096
N58	N	-0.989266	-0.123368	0.248667
H59	H	-0.434197	0.016182	-0.065817
O60	O	-0.583193	0.020662	-0.078057
C61	C	-0.556856	0.105264	-0.220390
C62	C	-0.518557	0.053591	-0.132094
H63	H	-0.504614	0.131885	-0.264114
H64	H	-0.603422	0.164523	-0.195819
H65	H	-0.590887	0.057574	-0.266640
H66	H	-0.484482	0.101208	-0.085807
H67	H	-0.472035	-0.005679	-0.156732
H68	H	-0.897011	-0.024109	-0.742009
O69	O	-1.217423	0.315713	-0.000132
C70	C	-1.287585	0.180372	-0.000053
C71	C	-1.202794	0.220321	-0.000036
H72	H	-1.275787	0.103243	0.000045
H73	H	-1.324877	0.204085	-0.066889
H74	H	-1.324868	0.204225	0.066747
H75	H	-1.165442	0.196487	-0.066791
H76	H	-1.165566	0.196612	0.066844
O77	O	-0.410655	-0.134727	-0.172946
C78	C	-0.454606	-0.060854	-0.321475
C79	C	-0.482255	-0.104357	-0.228022
H80	H	-0.512480	-0.036272	-0.366021
H81	H	-0.412154	-0.113048	-0.364288
H82	H	-0.418706	-0.000976	-0.303265
H83	H	-0.518188	-0.164227	-0.246145
H84	H	-0.524665	-0.052106	-0.185235
H85	H	-0.433141	0.016003	0.064587
H86	H	-0.577286	0.013479	0.065401
H87	H	-0.403196	-0.243479	0.095304
O88	O	-0.397355	-0.259909	-0.091104
C89	C	-0.416600	-0.418491	-0.089041
C90	C	-0.459340	-0.320280	-0.088219
H91	H	-0.466696	-0.467328	-0.086730
H92	H	-0.373783	-0.430208	-0.023760
H93	H	-0.377672	-0.430641	-0.157319
H94	H	-0.498311	-0.308062	-0.019985
H95	H	-0.502108	-0.308610	-0.153546
O96	O	-0.838228	0.039165	-0.400896
C97	C	-0.793132	0.087629	-0.246073
C98	C	-0.849023	0.027432	-0.301397
H99	H	-0.801827	0.078150	-0.165619
H100	H	-0.811725	0.161665	-0.265760
H101	H	-0.724413	0.067590	-0.265895
H102	H	-0.917757	0.047391	-0.281605
H103	H	-0.830358	-0.046590	-0.281706
H104	H	-1.081460	-0.222627	-0.258148
O105	O	-0.838185	0.039108	-0.599320
C106	C	-0.793123	0.087580	-0.754159
C107	C	-0.849048	0.027429	-0.698815
H108	H	-0.801899	0.078173	-0.834610
H109	H	-0.724380	0.067563	-0.734437
H110	H	-0.811734	0.161593	-0.734390
H111	H	-0.830512	-0.046601	-0.718554
H112	H	-0.917778	0.047523	-0.718542
H113	H	-0.896963	-0.024133	-0.258173
O114	O	-0.565949	-0.133295	0.171979
C115	C	-0.691674	-0.093377	0.264983
C116	C	-0.653336	-0.139019	0.173343
H117	H	-0.762329	-0.098006	0.266126
H118	H	-0.679692	-0.019156	0.265982
H119	H	-0.661363	-0.129238	0.330724
H120	H	-0.683623	-0.103232	0.107552
H121	H	-0.665309	-0.213243	0.172428
O122	O	-0.413323	-0.128859	0.172442
C123	C	-0.300691	-0.078067	0.265672
C124	C	-0.325522	-0.125950	0.173602
H125	H	-0.229706	-0.075683	0.266630
H126	H	-0.319990	-0.116906	0.331138
H127	H	-0.334012	-0.006098	0.267377
H128	H	-0.292214	-0.197919	0.171803
H129	H	-0.306241	-0.087042	0.108178
H130	H	-0.546209	-0.247024	0.094487
O131	O	-1.143658	0.163948	0.000045
C132	C	-1.234088	0.070302	0.082785
C133	C	-1.149298	0.110251	0.082757
H134	H	-1.238684	0.026895	0.149661
H135	H	-1.238679	0.026747	0.016015
H136	H	-1.287706	0.127753	0.082727
H137	H	-1.095632	0.052858	0.082849
H138	H	-1.144780	0.153829	0.149521
O139	O	-0.564481	-0.130931	-0.172138
C140	C	-0.640561	-0.145002	-0.319686
C141	C	-0.603735	-0.192899	-0.228525
H142	H	-0.672323	-0.195077	-0.365290
H143	H	-0.587866	-0.118461	-0.362721
H144	H	-0.688813	-0.085980	-0.298495
H145	H	-0.555494	-0.251956	-0.249631
H146	H	-0.656476	-0.219375	-0.185513
O147	O	-0.764331	0.251865	-0.000010
C148	C	-0.699305	0.097467	-0.000070
C149	C	-0.782260	0.161062	-0.000101
H150	H	-0.713771	0.024040	-0.000164
H151	H	-0.661366	0.110581	0.066769
H152	H	-0.661357	0.110706	-0.066868
H153	H	-0.820274	0.147860	0.066651
H154	H	-0.820135	0.147934	-0.066984
O155	O	-1.140240	-0.285902	-0.400848
C156	C	-1.185333	-0.334346	-0.246012
C157	C	-1.129429	-0.274171	-0.301352
H158	H	-1.176626	-0.324868	-0.165560
H159	H	-1.166764	-0.408386	-0.265705
H160	H	-1.254051	-0.314284	-0.265812
H161	H	-1.060696	-0.294152	-0.281582
H162	H	-1.148071	-0.200145	-0.281655
O163	O	-0.761054	0.437528	-0.000104
C164	C	-0.690903	0.572875	-0.000062
C165	C	-0.775690	0.532919	-0.000031
H166	H	-0.702706	0.650004	0.000017
H167	H	-0.653602	0.549146	-0.066894
H168	H	-0.653625	0.549044	0.066743
H169	H	-0.813036	0.556732	-0.066791
H170	H	-0.812926	0.556643	0.066844
H171	H	-1.132353	-0.277339	-0.591216
H172	H	-0.846873	0.583486	-0.000067
O173	O	-1.089527	-0.231296	-0.749731
C174	C	-1.190441	-0.339770	-0.739110
C175	C	-1.134494	-0.279558	-0.683889
H176	H	-1.226825	-0.378791	-0.685900
H177	H	-1.149368	-0.389601	-0.786145
H178	H	-1.236596	-0.295436	-0.786176
H179	H	-1.088331	-0.323820	-0.636770
H180	H	-1.175620	-0.229721	-0.636914
O181	O	-1.135428	0.631582	0.000070
C182	C	-1.222056	0.750276	0.082741
C183	C	-1.139076	0.686722	0.082690
H184	H	-1.225024	0.794886	0.149522
H185	H	-1.277479	0.708247	0.082804
H186	H	-1.225072	0.794789	0.015888
H187	H	-1.135978	0.642197	0.149531
H188	H	-1.083692	0.728805	0.082577
O189	O	-1.214132	0.501367	-0.000068
C190	C	-1.279167	0.655761	-0.000141
C191	C	-1.196209	0.592171	-0.000149
H192	H	-1.264705	0.729189	-0.000228
H193	H	-1.317128	0.642647	0.066685
H194	H	-1.317090	0.642515	-0.066951
H195	H	-1.158219	0.605379	0.066616
H196	H	-1.158311	0.605298	-0.067020
H197	H	-0.854861	0.130770	-0.000055
H198	H	-0.547396	-0.246020	-0.097104
