data_functionalizedCrystal
_audit_creation_method	'MofGen! by Chris Wilmer'
_symmetry_space_group_name_H-M	'P1'
_symmetry_Int_Tables_number	1
_symmetry_cell_setting	triclinic
loop_
_symmetry_equiv_pos_as_xyz
  x,y,z
_cell_length_a	6.817900
_cell_length_b	10.992410
_cell_length_c	12.908942
_cell_angle_alpha	94.375677
_cell_angle_beta	100.860556
_cell_angle_gamma	108.764651
loop_
_atom_site_label
_atom_site_type_symbol
_atom_site_fract_x
_atom_site_fract_y
_atom_site_fract_z
V1	V	-4.073725	-0.399878	-0.145852
O2	O	-4.074323	-0.393002	0.007009
O3	O	-4.011476	-0.396436	-0.289201
O4	O	-4.051940	-0.574602	-0.143609
O5	O	-4.033579	-0.213603	-0.139591
V6	V	-4.555698	-0.377684	-0.127568
O7	O	-4.338382	-0.448563	-0.185960
O8	O	-4.741239	-0.329000	-0.087461
O9	O	-4.394741	-0.381126	0.015780
O10	O	-4.672497	-0.384561	-0.280430
O11	O	-4.713241	-0.563960	-0.133830
O12	O	-4.354276	-0.202961	-0.129812
C13	C	-3.852247	-0.389945	-0.324146
C14	C	-3.882815	-0.388295	-0.441335
C15	C	-4.305471	-0.397991	-0.672288
C16	C	-4.334203	-0.396441	-0.782398
C17	C	-3.969016	-0.383655	-0.771668
C18	C	-3.940285	-0.385205	-0.661558
C19	C	-4.108519	-0.392371	-0.611872
C20	C	-4.079781	-0.393912	-0.501759
C21	C	-3.714601	-0.381135	-0.491032
C22	C	-3.743333	-0.379585	-0.601142
C23	C	-3.903862	-0.617212	-0.138428
C24	C	-3.967242	-0.760044	-0.137542
C25	C	-3.836608	-0.955207	-0.129471
C26	C	-3.770680	-0.806717	-0.130829
C27	C	-4.136379	-0.836639	-0.241483
C28	C	-4.200948	-0.985210	-0.240564
C29	C	-4.134634	-0.948165	-0.039296
C30	C	-4.064062	-0.799154	-0.038804
C31	C	-4.217311	-0.387614	0.050720
C32	C	-4.165982	-0.389272	0.167908
C33	C	-4.165696	-0.160344	-0.134997
C34	C	-4.081554	-0.017510	-0.135877
H35	H	-4.442446	-0.403807	-0.631831
H36	H	-4.070250	-0.810675	-0.314791
N37	N	-4.357834	-0.999375	-0.044000
N38	N	-4.433210	-0.956951	0.025979
H39	H	-4.590845	-0.993125	0.022653
H40	H	-4.494578	-0.401020	-0.831586
H41	H	-3.642990	-0.753743	-0.056091
N42	N	-3.797224	-0.376362	-0.822452
N43	N	-3.822923	-0.374997	-0.920767
H44	H	-3.701596	-0.369850	-0.956636
H45	H	-4.216764	-0.399738	-0.461305
H46	H	-3.606370	-0.373756	-0.641613
H47	H	-3.554224	-0.376557	-0.441829
N48	N	-3.715819	-0.979293	-0.035064
N49	N	-3.808844	-1.042663	0.028601
H50	H	-3.723540	-1.059680	0.095280
H51	H	-3.792390	-1.002860	-0.198865
N52	N	-3.674421	-0.775164	-0.219093
N53	N	-3.655796	-0.862874	-0.279886
H54	H	-3.587815	-0.840593	-0.342229
H55	H	-4.165068	-1.031122	-0.313693
N56	N	-3.911147	-0.733959	0.057657
N57	N	-3.736689	-0.751785	0.078166
H58	H	-3.628685	-0.705729	0.146289
H59	H	-4.206514	-0.766648	-0.037583
H60	H	-4.380439	-1.027797	-0.249602
H61	H	-4.284348	-0.807793	-0.250149
N62	N	-4.033002	-0.974176	0.059717
N63	N	-3.834920	-0.941194	0.084802
H64	H	-3.763120	-0.959564	0.154726
