data_functionalizedCrystal
_audit_creation_method	'MofGen! by Chris Wilmer'
_symmetry_space_group_name_H-M	'P1'
_symmetry_Int_Tables_number	1
_symmetry_cell_setting	triclinic
loop_
_symmetry_equiv_pos_as_xyz
  x,y,z
_cell_length_a	16.625547
_cell_length_b	18.101396
_cell_length_c	16.625527
_cell_angle_alpha	89.915529
_cell_angle_beta	90.064128
_cell_angle_gamma	89.963039
loop_
_atom_site_label
_atom_site_type_symbol
_atom_site_fract_x
_atom_site_fract_y
_atom_site_fract_z
Zn1	Zn	1.232912	0.294409	0.456009
Zn2	Zn	1.232688	0.418383	0.321179
Zn3	Zn	1.097981	0.294559	0.321179
Zn4	Zn	1.098010	0.418213	0.455959
O5	O	1.165398	0.356391	0.388582
O6	O	1.345715	0.310863	0.438144
O7	O	1.214714	0.402091	0.208346
O8	O	1.115962	0.190906	0.339086
O9	O	1.345551	0.401945	0.339085
O10	O	1.215095	0.190796	0.438145
O11	O	1.115745	0.311118	0.208347
O12	O	0.985153	0.310954	0.339037
O13	O	1.116011	0.401657	0.568798
O14	O	0.985174	0.401802	0.438060
O15	O	1.215123	0.310699	0.568835
O16	O	1.214742	0.521993	0.339037
O17	O	1.115794	0.521869	0.438059
C18	C	0.955907	0.356377	0.388544
C19	C	0.866286	0.356389	0.388546
C20	C	0.793504	0.356390	0.388556
C21	C	0.702195	0.356394	0.388577
C22	C	0.629419	0.356401	0.388597
C23	C	0.538104	0.356406	0.388616
C24	C	1.165268	0.548802	0.388560
C25	C	1.165287	0.631116	0.388578
C26	C	1.165430	0.930207	0.388625
C27	C	1.103323	0.898834	0.451082
C28	C	1.103037	0.813216	0.450885
C29	C	1.165359	0.781824	0.388602
C30	C	1.142290	0.813054	0.303623
C31	C	1.141880	0.898699	0.303998
C32	C	1.250745	0.898530	0.410400
C33	C	1.250255	0.812878	0.412262
C34	C	1.165320	0.697965	0.388584
C35	C	1.165467	1.014066	0.388637
C36	C	1.375707	0.356406	0.388620
C37	C	1.465328	0.356412	0.388637
C38	C	1.165522	1.163229	0.388624
C39	C	1.165502	1.080915	0.388649
C40	C	1.165248	0.356586	0.179090
C41	C	1.165321	0.356483	0.089469
C42	C	1.165620	0.356120	-0.238705
C43	C	1.165539	0.356224	-0.147397
C44	C	1.165470	0.356302	-0.074621
C45	C	1.165390	0.356404	0.016693
C46	C	1.165595	0.356142	0.598891
C47	C	1.165679	0.356036	0.688512
H48	H	1.117477	0.792094	0.513896
Cl49	Cl	1.283191	0.931709	0.504444
H50	H	1.267650	0.792457	0.474802
Cl51	Cl	1.125384	0.930470	0.548685
Cl52	Cl	1.006287	0.932197	0.429111
Cl53	Cl	1.325497	0.779875	0.347153
H54	H	1.080588	0.791687	0.284847
H55	H	1.039806	0.792806	0.436461
Cl56	Cl	1.045591	0.929674	0.275522
H57	H	1.185151	0.919461	0.255876
H58	H	1.186105	0.792728	0.255818
Cl59	Cl	1.322192	0.929875	0.340181
