data_functionalizedCrystal
_audit_creation_method	'MofGen! by Chris Wilmer'
_symmetry_space_group_name_H-M	'P1'
_symmetry_Int_Tables_number	1
_symmetry_cell_setting	triclinic
loop_
_symmetry_equiv_pos_as_xyz
  x,y,z
_cell_length_a	17.699083
_cell_length_b	10.654541
_cell_length_c	9.730217
_cell_angle_alpha	89.999557
_cell_angle_beta	89.996930
_cell_angle_gamma	83.883472
loop_
_atom_site_label
_atom_site_type_symbol
_atom_site_fract_x
_atom_site_fract_y
_atom_site_fract_z
O1	O	1.005083	0.158797	0.114097
O2	O	0.784836	0.179459	0.114141
O3	O	0.900025	-0.013700	0.114110
O4	O	0.889895	0.351956	0.114128
O5	O	0.900017	-0.013689	-0.114470
O6	O	0.784828	0.179470	-0.114439
O7	O	1.005076	0.158809	-0.114484
Zn8	Zn	0.894951	0.169141	-0.150753
Zn9	Zn	0.894961	0.169126	0.150411
O10	O	0.889887	0.351968	-0.114452
C11	C	0.756631	0.178724	-0.000143
C12	C	0.672599	0.176503	-0.000126
C13	C	0.624698	0.289883	-0.000120
C14	C	0.545741	0.287789	-0.000138
C15	C	0.514687	0.172313	-0.000152
C16	C	0.562594	0.058924	-0.000161
C17	C	0.641549	0.061020	-0.000153
C18	C	0.244177	0.050470	-0.000196
C19	C	0.165216	0.048383	-0.000200
C20	C	0.148369	0.277239	-0.000181
C21	C	0.227324	0.279335	-0.000173
C22	C	0.275224	0.165946	-0.000190
C23	C	0.360838	0.168219	-0.000173
C24	C	0.429075	0.170039	-0.000159
C25	C	0.899277	-0.060479	-0.000180
C26	C	0.897053	-0.199884	-0.000177
C27	C	1.034792	-0.230266	-0.000222
C28	C	1.102614	-0.310947	-0.000248
C29	C	1.100519	-0.441929	-0.000243
C30	C	1.030596	-0.492230	-0.000209
C31	C	0.962775	-0.411549	-0.000183
C32	C	0.964876	-0.280566	-0.000192
C33	C	0.825037	-0.381167	-0.000128
C34	C	0.827130	-0.250185	-0.000143
C35	C	0.755114	-0.431468	-0.000094
C36	C	0.687291	-0.350786	-0.000078
C37	C	0.689388	-0.219798	-0.000085
C38	C	0.759308	-0.169504	-0.000117
C39	C	1.033281	0.159543	-0.000196
C40	C	1.117313	0.161764	-0.000204
C41	C	0.890634	0.398747	-0.000160
C42	C	0.892859	0.538152	-0.000153
N43	N	0.894949	0.169151	-0.356290
C44	C	0.802379	0.016951	-0.644031
C45	C	0.756076	-0.059111	-0.572081
C46	C	0.756061	-0.059087	-0.428201
C47	C	0.802357	0.017004	-0.356268
C48	C	0.848660	0.093066	-0.428219
C49	C	0.848668	0.093036	-0.572102
C50	C	0.941253	0.245213	-0.428240
C51	C	0.941264	0.245197	-0.572120
C52	C	0.987548	0.321304	-0.356308
C53	C	1.033849	0.397374	-0.428258
C54	C	1.033861	0.397348	-0.572147
C55	C	0.987568	0.321259	-0.644070
N56	N	0.894969	0.169106	0.355948
H57	H	0.139935	-0.045657	-0.000213
Cl58	Cl	0.523554	-0.086247	-0.000187
H59	H	0.252604	0.373367	-0.000156
Cl60	Cl	1.185781	-0.543361	-0.000263
Cl61	Cl	1.037431	-0.065604	-0.000259
H62	H	0.718359	-0.121026	-0.369619
H63	H	0.761023	-0.062854	-0.000131
Cl64	Cl	1.027965	-0.656894	-0.000110
H65	H	0.987571	0.321234	-0.761225
H66	H	0.802348	0.017005	-0.239114
Cl67	Cl	0.987536	0.321325	-0.175429
Cl68	Cl	0.701768	-0.081522	-0.000166
Cl69	Cl	0.752481	-0.596132	-0.000001
H70	H	0.283168	-0.041858	-0.000211
H71	H	0.802381	0.016933	-0.761186
H72	H	1.071542	0.459315	-0.369679
H73	H	1.071569	0.459282	-0.630720
Cl74	Cl	0.663729	0.435062	-0.000095
Cl75	Cl	0.485526	0.430331	-0.000123
Cl76	Cl	0.088147	0.419787	-0.000166
Cl77	Cl	0.697879	-0.154763	-0.662516
Cl78	Cl	1.190513	-0.247705	-0.000282
H79	H	0.634159	-0.154113	-0.000058
Cl80	Cl	0.599397	-0.414029	-0.000019
