data_functionalizedCrystal
_audit_creation_method	'MofGen! by Chris Wilmer'
_symmetry_space_group_name_H-M	'P1'
_symmetry_Int_Tables_number	1
_symmetry_cell_setting	triclinic
loop_
_symmetry_equiv_pos_as_xyz
  x,y,z
_cell_length_a	17.699097
_cell_length_b	17.699083
_cell_length_c	15.186229
_cell_angle_alpha	90.001174
_cell_angle_beta	90.009198
_cell_angle_gamma	83.285722
loop_
_atom_site_label
_atom_site_type_symbol
_atom_site_fract_x
_atom_site_fract_y
_atom_site_fract_z
O1	O	1.004071	0.095754	0.073303
O2	O	0.783694	0.108196	0.073289
O3	O	0.900109	-0.008214	0.073289
O4	O	0.887657	0.212164	0.073304
O5	O	0.900095	-0.008207	-0.073168
O6	O	0.783681	0.108202	-0.073168
O7	O	1.004058	0.095761	-0.073154
Zn8	Zn	0.893867	0.101983	-0.096414
Zn9	Zn	0.893885	0.101974	0.096550
O10	O	0.887643	0.212170	-0.073153
C11	C	0.755491	0.107752	0.000059
C12	C	0.671473	0.106409	0.000053
C13	C	0.899656	-0.036408	0.000060
C14	C	0.898317	-0.120426	0.000060
C15	C	0.155762	0.098176	0.079922
C16	C	0.234706	0.099432	0.079918
C17	C	0.274165	0.100065	0.000080
C18	C	0.234676	0.099434	-0.079758
C19	C	0.155734	0.098173	-0.079753
C20	C	0.553040	0.104522	-0.079781
C21	C	0.631987	0.105786	-0.079780
C22	C	0.632012	0.105781	0.079890
C23	C	0.553070	0.104520	0.079895
C24	C	0.513589	0.103885	0.000057
C25	C	0.427989	0.102521	0.000063
C26	C	0.359763	0.101434	0.000074
C27	C	0.966650	-0.169044	0.000063
C28	C	0.965388	-0.247987	0.000071
C29	C	0.895792	-0.278311	0.000069
C30	C	0.827454	-0.229687	0.000068
C31	C	0.828717	-0.150745	0.000067
C32	C	0.822359	-0.548050	0.000075
C33	C	0.821101	-0.626998	0.000074
C34	C	0.959030	-0.645292	0.000079
C35	C	0.960293	-0.566350	0.000077
C36	C	0.891955	-0.517733	0.000082
C37	C	0.893325	-0.432134	0.000075
C38	C	0.894422	-0.363909	0.000069
C39	C	1.032261	0.096205	0.000079
C40	C	1.116279	0.097547	0.000090
C41	C	0.888096	0.240364	0.000077
C42	C	0.889435	0.324382	0.000083
N43	N	0.893860	0.101988	-0.228107
C44	C	0.939691	0.147825	-0.453823
C45	C	0.939699	0.147820	-0.546013
C46	C	0.848065	0.056120	-0.546035
C47	C	0.848062	0.056122	-0.453847
C48	C	0.893873	0.101979	-0.407743
C49	C	0.893885	0.101972	-0.592121
C50	C	0.893894	0.101965	-0.692077
C51	C	0.893866	0.101984	-0.307781
N52	N	0.893898	0.101962	0.228242
H53	H	0.123640	0.097666	0.144935
H54	H	0.520906	0.103993	-0.144790
C55	C	1.036848	-0.532998	0.000083
H56	H	1.077365	-0.573260	0.000095
H57	H	1.040206	-0.502582	-0.050988
H58	H	1.040208	-0.502584	0.051164
H59	H	0.520947	0.104008	0.144907
C60	C	0.675445	0.106471	0.167711
H61	H	0.728112	0.107304	0.156278
H62	H	0.656661	0.150382	0.200516
H63	H	0.668364	0.062139	0.200512
C64	C	0.112302	0.097485	-0.167568
H65	H	0.147106	0.098050	-0.215118
H66	H	0.087358	0.052874	-0.170888
H67	H	0.075654	0.141118	-0.170881
C68	C	0.750900	-0.263042	0.000064
H69	H	0.759933	-0.317020	0.000056
H70	H	0.722772	-0.246346	0.051134
H71	H	0.722768	-0.246344	-0.051018
H72	H	0.266851	0.099940	0.144925
H73	H	0.766714	-0.508475	0.000078
C74	C	0.797657	0.005691	-0.403155
H75	H	0.770366	-0.021612	-0.443815
H76	H	0.828734	-0.029179	-0.367185
H77	H	0.762766	0.036757	-0.367202
H78	H	0.664112	0.106301	-0.144797
C79	C	0.990085	0.198258	-0.403108
H80	H	0.983517	0.191700	-0.341604
H81	H	1.041894	0.184131	-0.418204
H82	H	0.975923	0.250065	-0.418221
H83	H	0.266810	0.099945	-0.144763
H84	H	0.977010	0.185151	-0.583527
C85	C	0.797658	0.005698	-0.596747
H86	H	0.770371	-0.021607	-0.556098
H87	H	0.762774	0.036767	-0.632710
H88	H	0.828731	-0.029181	-0.632709
C89	C	1.043207	-0.135694	0.000065
H90	H	1.083722	-0.175958	0.000076
H91	H	1.046565	-0.105280	-0.051008
H92	H	1.046571	-0.105280	0.051145
H93	H	0.773073	-0.111161	0.000065
H94	H	1.021032	-0.287569	0.000071
H95	H	0.764424	-0.651685	0.000071
C96	C	1.034201	-0.698773	0.000089
H97	H	1.023485	-0.750131	0.000100
H98	H	1.062741	-0.689597	-0.050983
H99	H	1.062747	-0.689589	0.051169
