data_functionalizedCrystal
_audit_creation_method	'MofGen! by Chris Wilmer'
_symmetry_space_group_name_H-M	'P1'
_symmetry_Int_Tables_number	1
_symmetry_cell_setting	triclinic
loop_
_symmetry_equiv_pos_as_xyz
  x,y,z
_cell_length_a	10.489741
_cell_length_b	11.026607
_cell_length_c	9.482900
_cell_angle_alpha	101.363848
_cell_angle_beta	99.430409
_cell_angle_gamma	83.437405
loop_
_atom_site_label
_atom_site_type_symbol
_atom_site_fract_x
_atom_site_fract_y
_atom_site_fract_z
O1	O	0.519526	-1.633618	-0.120902
O2	O	0.458584	-1.279780	-0.120903
O3	O	0.305229	-1.464749	-0.120894
O4	O	0.672881	-1.448649	-0.120911
O5	O	0.336539	-1.427179	0.120897
O6	O	0.489894	-1.242210	0.120887
O7	O	0.550836	-1.596048	0.120889
Cu8	Cu	0.523224	-1.415698	0.142965
Cu9	Cu	0.486196	-1.460129	-0.142980
O10	O	0.704190	-1.411079	0.120879
C11	C	0.462996	-1.215686	-0.000008
C12	C	0.429482	-1.080679	-0.000008
C13	C	0.273085	-1.444748	0.000000
C14	C	0.130655	-1.441110	-0.000002
C15	C	0.546423	-1.660143	-0.000010
C16	C	0.579936	-1.795151	-0.000019
C17	C	0.036624	-1.323420	-0.000013
C18	C	-0.027831	-1.360492	0.119202
C19	C	-0.058669	-1.397561	-0.119184
C20	C	0.068088	-1.478215	0.119312
C21	C	0.037242	-1.515284	-0.119182
C22	C	-0.027163	-1.552438	0.000063
C23	C	0.736334	-1.431080	-0.000018
C24	C	0.878763	-1.434720	-0.000025
N25	N	0.549268	-1.384457	0.344084
C26	C	0.522021	-1.007683	-0.000014
C27	C	0.487384	-0.868146	-0.000014
N28	N	0.460144	-1.491380	-0.344099
C29	C	0.493869	-1.450906	0.416286
C30	C	0.515551	-1.424922	0.583703
H31	H	0.065005	-1.226636	0.000107
H32	H	0.396654	-1.567508	0.593781
H33	H	0.122930	-1.512292	0.220212
H34	H	0.430383	-1.527029	0.354162
Cl35	Cl	0.613558	-1.307373	0.679605
Cl36	Cl	-0.072474	-1.259433	0.274812
Cl37	Cl	-0.070572	-1.701952	0.000159
Cl38	Cl	0.081926	-1.616285	-0.274800
H39	H	0.626890	-1.048490	-0.000010
H40	H	-0.113642	-1.363411	-0.219981
H41	H	0.382504	-0.827348	-0.000046
H42	H	0.684814	-0.835951	-0.000014
Cl43	Cl	0.267569	-1.017683	0.000010
Cl44	Cl	0.647271	-1.266913	0.439992
