data_functionalizedCrystal
_audit_creation_method	'MofGen! by Chris Wilmer'
_symmetry_space_group_name_H-M	'P1'
_symmetry_Int_Tables_number	1
_symmetry_cell_setting	triclinic
loop_
_symmetry_equiv_pos_as_xyz
  x,y,z
_cell_length_a	13.339070
_cell_length_b	13.262508
_cell_length_c	9.730223
_cell_angle_alpha	105.916979
_cell_angle_beta	89.998606
_cell_angle_gamma	99.430496
loop_
_atom_site_label
_atom_site_type_symbol
_atom_site_fract_x
_atom_site_fract_y
_atom_site_fract_z
O1	O	1.344496	0.526826	0.082604
O2	O	1.049678	0.457676	0.056762
O3	O	1.204503	0.341621	0.013382
O4	O	1.189670	0.642882	0.125985
O5	O	1.204502	0.341625	0.241963
O6	O	1.049676	0.457680	0.285343
O7	O	1.344494	0.526830	0.311186
Zn8	Zn	1.197085	0.492255	0.334557
Zn9	Zn	1.197087	0.492251	0.033391
O10	O	1.189668	0.642885	0.354566
C11	C	1.011938	0.445997	0.166687
C12	C	0.899490	0.411180	0.153675
C13	C	0.535837	0.681903	0.254842
C14	C	0.641488	0.714619	0.267065
C15	C	0.705993	0.638762	0.238719
C16	C	0.664838	0.530183	0.198147
C17	C	0.559177	0.497464	0.185912
C18	C	0.729333	0.454323	0.169789
C19	C	0.688178	0.345744	0.129217
C20	C	0.582528	0.313030	0.116985
C21	C	0.518022	0.388887	0.145331
C22	C	0.834994	0.487042	0.182024
C23	C	0.858334	0.302603	0.113094
C24	C	0.752684	0.269887	0.100871
C25	C	1.203671	0.302277	0.112963
C26	C	1.201182	0.185036	0.069133
C27	C	1.194155	-0.145455	0.443996
C28	C	1.196486	-0.035302	0.485178
C29	C	1.197660	0.019788	0.381170
C30	C	1.196503	-0.035286	0.235974
C31	C	1.194163	-0.145451	0.194788
C32	C	1.197669	0.019792	0.131962
C33	C	1.196511	-0.035282	-0.013235
C34	C	1.194173	-0.145436	-0.054414
C35	C	1.192999	-0.200525	0.049594
C36	C	1.200008	0.129957	0.173148
C37	C	1.200017	0.129961	-0.076061
C38	C	1.197686	0.019808	-0.117243
C39	C	1.382233	0.538509	0.201257
C40	C	1.494682	0.573327	0.214261
C41	C	1.190501	0.682229	0.254981
C42	C	1.192990	0.799470	0.298803
N43	N	1.197090	0.492260	0.540095
N44	N	1.197089	0.492240	-0.172149
C45	C	1.265665	0.440900	0.592823
C46	C	1.265662	0.440887	0.736701
C47	C	1.128507	0.543602	0.775113
C48	C	1.128506	0.543608	0.631235
C49	C	1.344853	0.381602	0.570649
C50	C	1.344851	0.381589	0.714526
H51	H	0.868492	0.575448	0.215063
N52	N	1.054535	0.598978	0.873412
H53	H	1.064937	0.591178	0.972559
H54	H	1.066540	0.676945	0.877417
H55	H	1.200965	0.174814	-0.160754
N56	N	1.312694	0.271530	0.732513
H57	H	1.369477	0.252335	0.783770
H58	H	1.249891	0.270249	0.790410
H59	H	0.431992	0.362255	0.135382
N60	N	0.685862	0.831723	0.310810
H61	H	0.662370	0.866352	0.408483
H62	H	0.762574	0.840859	0.314168
N63	N	0.708297	0.152779	0.057095
H64	H	0.731783	0.118158	0.128892
H65	H	0.631586	0.143652	0.053627
N66	N	1.447848	0.434473	0.786036
H67	H	1.493810	0.458089	0.714174
H68	H	1.439866	0.498353	0.867627
N69	N	1.200184	0.138596	0.425602
H70	H	1.263464	0.174890	0.390257
H71	H	1.137997	0.155295	0.382949
N72	N	1.322391	0.268405	0.476596
H73	H	1.322388	0.268365	0.372781
H74	H	1.376251	0.228101	0.496195
N75	N	0.927895	0.220775	0.082509
H76	H	1.001071	0.257977	0.096420
H77	H	0.914521	0.174786	0.150055
N78	N	1.192894	-0.204873	0.556160
H79	H	1.193987	-0.153272	0.654391
H80	H	1.129208	-0.260333	0.540847
H81	H	1.418286	0.427888	0.543322
H82	H	1.197439	0.009533	0.603397
N83	N	0.819945	0.674043	0.251909
H84	H	0.836229	0.754337	0.281917
H85	H	0.849893	0.645650	0.326043
H86	H	0.483308	0.743654	0.277905
H87	H	0.549023	0.224618	0.083933
H88	H	1.200942	0.174786	0.291367
N89	N	1.192926	-0.204836	-0.211016
H90	H	1.191265	-0.282979	-0.221323
H91	H	1.130624	-0.195335	-0.261881
N92	N	1.190486	-0.319337	0.005196
H93	H	1.127211	-0.355624	0.040559
H94	H	1.189964	-0.345791	-0.102566
N95	N	1.196440	-0.039599	-0.273842
H96	H	1.134141	-0.030187	-0.324811
H97	H	1.259608	-0.010636	-0.317366
N98	N	1.054526	0.598979	0.574351
H99	H	1.011080	0.631503	0.653923
H100	H	1.093478	0.656760	0.536249
