data_functionalizedCrystal
_audit_creation_method	'MofGen! by Chris Wilmer'
_symmetry_space_group_name_H-M	'P1'
_symmetry_Int_Tables_number	1
_symmetry_cell_setting	triclinic
loop_
_symmetry_equiv_pos_as_xyz
  x,y,z
_cell_length_a	17.077404
_cell_length_b	18.215405
_cell_length_c	17.077396
_cell_angle_alpha	89.971420
_cell_angle_beta	89.980499
_cell_angle_gamma	90.022957
loop_
_atom_site_label
_atom_site_type_symbol
_atom_site_fract_x
_atom_site_fract_y
_atom_site_fract_z
Zn1	Zn	1.200055	-0.292980	-0.443842
Zn2	Zn	1.700055	0.207020	0.056158
Zn3	Zn	1.199963	-0.416053	-0.312576
Zn4	Zn	1.699963	0.083947	0.187424
Zn5	Zn	1.068787	-0.293006	-0.312590
Zn6	Zn	1.568787	0.206994	0.187410
Zn7	Zn	1.068756	-0.416010	-0.443800
Zn8	Zn	1.568756	0.083990	0.056200
O9	O	1.134390	-0.354512	-0.378202
O10	O	1.634390	0.145488	0.121798
O11	O	1.309890	-0.309313	-0.426441
O12	O	1.809890	0.190687	0.073559
O13	O	1.182537	-0.399760	-0.202731
O14	O	1.682537	0.100240	0.297269
O15	O	1.086252	-0.190018	-0.330025
O16	O	1.586252	0.309982	0.169975
O17	O	1.309822	-0.399735	-0.330001
O18	O	1.809822	0.100265	0.169999
O19	O	1.182694	-0.189999	-0.426455
O20	O	1.682694	0.310001	0.073545
O21	O	1.086163	-0.309357	-0.202741
O22	O	1.586163	0.190643	0.297259
O23	O	0.958936	-0.309315	-0.329983
O24	O	1.458936	0.190685	0.170017
O25	O	1.086198	-0.399660	-0.553652
O26	O	1.586198	0.100340	-0.053652
O27	O	0.958913	-0.399685	-0.426382
O28	O	1.458913	0.100315	0.073618
O29	O	1.182664	-0.309271	-0.553683
O30	O	1.682664	0.190729	-0.053683
O31	O	1.182506	-0.519032	-0.329959
O32	O	1.682506	-0.019032	0.170041
O33	O	1.086109	-0.519000	-0.426369
O34	O	1.586109	-0.019000	0.073631
C35	C	0.930442	-0.354499	-0.378180
C36	C	1.430442	0.145501	0.121820
C37	C	0.843193	-0.354511	-0.378190
C38	C	1.343193	0.145489	0.121810
C39	C	0.802211	-0.401638	-0.428304
C40	C	1.302211	0.098362	0.071696
C41	C	0.720230	-0.401639	-0.428317
C42	C	1.220230	0.098361	0.071683
C43	C	0.679233	-0.354517	-0.378210
C44	C	1.179233	0.145483	0.121790
C45	C	0.720221	-0.307385	-0.328094
C46	C	1.220221	0.192615	0.171906
C47	C	0.802200	-0.307380	-0.328086
C48	C	1.302200	0.192620	0.171914
C49	C	0.549351	-0.307400	-0.328112
C50	C	1.049351	0.192600	0.171888
C51	C	0.467366	-0.307405	-0.328119
C52	C	0.967366	0.192595	0.171881
C53	C	0.467381	-0.401659	-0.428344
C54	C	0.967381	0.098341	0.071656
C55	C	0.549360	-0.401654	-0.428336
C56	C	1.049360	0.098346	0.071664
C57	C	0.590342	-0.354522	-0.378218
C58	C	1.090342	0.145478	0.121782
C59	C	1.134315	-0.545718	-0.378175
C60	C	1.634315	-0.045718	0.121825
C61	C	1.134355	-0.627517	-0.378190
C62	C	1.634355	-0.127517	0.121810
C63	C	1.184596	-0.815640	-0.428469
C64	C	1.684596	-0.315640	0.071531
C65	C	1.184625	-0.892499	-0.428484
C66	C	1.684625	-0.392499	0.071516
C67	C	1.084282	-0.892632	-0.327984
C68	C	1.584282	-0.392632	0.172016
C69	C	1.084250	-0.815775	-0.327974
C70	C	1.584250	-0.315775	0.172026
C71	C	1.134411	-0.777281	-0.378215
C72	C	1.634411	-0.277281	0.121785
C73	C	1.134472	-0.930997	-0.378240
C74	C	1.634472	-0.430997	0.121760
C75	C	1.134502	-1.014330	-0.378255
C76	C	1.634502	-0.514330	0.121745
C77	C	1.134380	-0.693942	-0.378201
C78	C	1.634380	-0.193942	0.121799
C79	C	1.339135	-0.354526	-0.378224
C80	C	1.839135	0.145474	0.121776
C81	C	1.426384	-0.354532	-0.378234
C82	C	1.926384	0.145468	0.121766
C83	C	1.134438	-0.354458	-0.582946
C84	C	1.634438	0.145542	-0.082946
C85	C	1.134458	-0.354435	-0.670196
C86	C	1.634458	0.145565	-0.170196
C87	C	1.134487	-0.162559	-0.378246
C88	C	1.634487	0.337441	0.121754
C89	C	1.134529	-0.080760	-0.378265
C90	C	1.634529	0.419240	0.121735
C91	C	1.184689	-0.307365	-0.711204
C92	C	1.684689	0.192635	-0.211204
C93	C	1.184699	-0.307341	-0.793184
C94	C	1.684699	0.192659	-0.293184
C95	C	1.134480	-0.354390	-0.834156
C96	C	1.634480	0.145610	-0.334156
C97	C	1.084243	-0.401462	-0.793142
C98	C	1.584243	0.098538	-0.293142
C99	C	1.084231	-0.401482	-0.711163
C100	C	1.584231	0.098518	-0.211163
C101	C	1.084275	-0.401418	-0.964012
C102	C	1.584275	0.098582	-0.464012
C103	C	1.084289	-0.401399	-1.045997
C104	C	1.584289	0.098601	-0.545997
C105	C	1.184743	-0.307276	-1.046034
C106	C	1.684743	0.192724	-0.546034
C107	C	1.184730	-0.307296	-0.964055
C108	C	1.684730	0.192704	-0.464055
C109	C	1.134494	-0.354369	-0.923047
C110	C	1.634494	0.145631	-0.423047
C111	C	1.134388	-0.354513	-0.174254
C112	C	1.634388	0.145487	0.325746
C113	C	1.134520	-0.354329	-0.087005
C114	C	1.634520	0.145671	0.412995
H115	H	0.686867	-0.440015	-0.469124
H116	H	1.186867	0.059985	0.030876
F117	F	0.423735	-0.257255	-0.274787
F118	F	0.923735	0.242745	0.225213
F119	F	1.238209	-0.257178	-1.089678
F120	F	1.738209	0.242822	-0.589678
H121	H	1.225627	-0.268989	-0.930698
H122	H	1.725627	0.231011	-0.430698
F123	F	0.592965	-0.257236	-0.274772
F124	F	1.092965	0.242764	0.225228
H125	H	1.043355	-0.439738	-0.930626
H126	H	1.543355	0.060262	-0.430626
F127	F	1.238189	-0.257268	-0.836824
F128	F	1.738189	0.242732	-0.336824
F129	F	1.030834	-0.451468	-1.089600
F130	F	1.530834	0.048532	-0.589600
F131	F	0.845815	-0.257220	-0.274748
F132	F	1.345815	0.242780	0.225252
F133	F	0.423765	-0.451811	-0.481692
F134	F	0.923765	0.048189	0.018308
H135	H	1.043352	-0.439768	-0.826508
H136	H	1.543352	0.060232	-0.326508
F137	F	1.030766	-0.451578	-0.667520
F138	F	1.530766	0.048422	-0.167520
F139	F	1.030829	-0.774947	-0.274488
F140	F	1.530829	-0.274947	0.225512
H141	H	0.835585	-0.440013	-0.469104
H142	H	1.335585	0.059987	0.030896
F143	F	0.592991	-0.451811	-0.481659
F144	F	1.092991	0.048189	0.018341
H145	H	1.225440	-0.784300	-0.469380
H146	H	1.725440	-0.284300	0.030620
F147	F	1.238144	-0.257291	-0.667606
F148	F	1.738144	0.242709	-0.167606
H149	H	0.686834	-0.269014	-0.287299
H150	H	1.186834	0.230986	0.212701
H151	H	1.043443	-0.923983	-0.287078
H152	H	1.543443	-0.423983	0.212922
F153	F	1.238034	-0.933321	-0.481974
F154	F	1.738034	-0.433321	0.018026
