data_functionalizedCrystal
_audit_creation_method	'MofGen! by Chris Wilmer'
_symmetry_space_group_name_H-M	'P1'
_symmetry_Int_Tables_number	1
_symmetry_cell_setting	triclinic
loop_
_symmetry_equiv_pos_as_xyz
  x,y,z
_cell_length_a	10.654546
_cell_length_b	10.654550
_cell_length_c	13.448316
_cell_angle_alpha	89.994587
_cell_angle_beta	89.992337
_cell_angle_gamma	84.484193
loop_
_atom_site_label
_atom_site_type_symbol
_atom_site_fract_x
_atom_site_fract_y
_atom_site_fract_z
O1	O	1.667848	0.176381	-0.082711
O2	O	1.302369	0.193192	-0.082708
O3	O	1.493511	0.002047	-0.082706
O4	O	1.476705	0.367526	-0.082713
O5	O	1.493487	0.002035	0.082678
O6	O	1.302344	0.193180	0.082676
O7	O	1.667823	0.176369	0.082673
Cu8	Cu	1.485081	0.184773	0.097775
Cu9	Cu	1.485110	0.184787	-0.097810
O10	O	1.476681	0.367514	0.082671
C11	C	1.255558	0.191952	-0.000016
C12	C	1.116115	0.188262	-0.000014
C13	C	1.050633	0.186522	-0.090170
C14	C	0.919613	0.183045	-0.090178
C15	C	0.919567	0.183042	0.090133
C16	C	1.050584	0.186528	0.090140
C17	C	1.116164	0.188256	-0.180324
C18	C	1.050682	0.186515	-0.270486
C19	C	0.919662	0.183038	-0.270494
C20	C	0.854122	0.181301	-0.180340
C21	C	1.492265	-0.044757	-0.000015
C22	C	1.488573	-0.184200	-0.000019
C23	C	1.601115	-0.263687	-0.000016
C24	C	1.597638	-0.394708	-0.000023
C25	C	1.369068	-0.366742	-0.000030
C26	C	1.372546	-0.235724	-0.000030
C27	C	1.717142	-0.212164	-0.000005
C28	C	1.829693	-0.291652	-0.000001
C29	C	1.826216	-0.422673	-0.000008
C30	C	1.710188	-0.474206	-0.000018
C31	C	1.714633	0.177608	-0.000022
C32	C	1.854077	0.181298	-0.000029
C33	C	1.477927	0.414317	-0.000022
C34	C	1.481619	0.553761	-0.000025
N35	N	1.485070	0.184762	0.235340
N36	N	1.485131	0.184788	-0.235375
C37	C	1.569735	0.100159	0.287381
C38	C	1.569743	0.100158	0.391484
C39	C	1.485091	0.184767	0.443544
C40	C	1.400417	0.269375	0.391496
C41	C	1.400404	0.269369	0.287394
C42	C	1.400452	0.269384	0.608476
C43	C	1.400466	0.269392	0.712584
C44	C	1.569791	0.100173	0.712565
C45	C	1.569778	0.100167	0.608464
C46	C	1.485105	0.184776	0.556423
H47	H	1.719985	-0.105482	0.000004
C48	C	1.737143	-0.067071	0.381009
C49	C	1.662829	0.007178	0.448688
H50	H	1.794620	-0.124466	0.416326
H51	H	1.684481	-0.112751	0.340428
H52	H	1.782742	-0.014349	0.340385
H53	H	1.617222	-0.045544	0.489307
H54	H	1.715497	0.052861	0.489286
H55	H	1.331460	0.338260	0.245023
H56	H	1.707367	-0.580893	-0.000035
H57	H	1.638733	0.031281	0.754944
H58	H	1.331533	0.338288	0.754966
C59	C	1.233093	0.436669	0.618946
C60	C	1.307386	0.362394	0.551270
H61	H	1.175650	0.494096	0.583626
H62	H	1.187467	0.383976	0.659559
H63	H	1.285782	0.482324	0.659538
H64	H	1.254698	0.316731	0.510682
H65	H	1.353015	0.415094	0.510640
H66	H	1.924158	-0.249686	-0.000018
H67	H	1.917860	-0.487390	-0.000016
H68	H	1.222848	0.191085	-0.180328
H69	H	0.747435	0.178484	-0.180354
H70	H	1.104052	0.187940	-0.343887
H71	H	0.866349	0.181633	-0.343909
C72	C	1.243883	-0.072151	-0.085052
C73	C	1.248841	-0.148340	-0.000031
H74	H	1.167507	-0.018209	-0.085056
H75	H	1.313474	-0.022723	-0.085043
H76	H	1.247285	-0.123853	-0.142716
H77	H	1.245448	-0.096637	0.057634
H78	H	1.179231	-0.197771	-0.000031
C79	C	0.718706	0.177678	0.170180
C80	C	0.847531	0.181114	0.189226
H81	H	0.674239	0.176476	0.231358
H82	H	0.688299	0.250215	0.133145
H83	H	0.706212	0.103997	0.133133
H84	H	0.860026	0.254800	0.226266
H85	H	0.877947	0.108570	0.226277
H86	H	1.103900	0.187952	0.163552
H87	H	1.274604	-0.408711	-0.000037
H88	H	1.638674	0.031265	0.245000
H89	H	1.638714	0.031277	0.566077
H90	H	1.331486	0.338262	0.433889
