data_functionalizedCrystal
_audit_creation_method	'MofGen! by Chris Wilmer'
_symmetry_space_group_name_H-M	'P1'
_symmetry_Int_Tables_number	1
_symmetry_cell_setting	triclinic
loop_
_symmetry_equiv_pos_as_xyz
  x,y,z
_cell_length_a	23.532355
_cell_length_b	11.792241
_cell_length_c	10.268362
_cell_angle_alpha	90.005428
_cell_angle_beta	90.001234
_cell_angle_gamma	96.489543
loop_
_atom_site_label
_atom_site_type_symbol
_atom_site_fract_x
_atom_site_fract_y
_atom_site_fract_z
O1	O	0.756094	-0.137491	-0.108124
O2	O	0.590344	-0.157487	-0.108165
O3	O	0.677241	0.017778	-0.108134
O4	O	0.669197	-0.312756	-0.108155
O5	O	0.677234	0.017785	0.108466
O6	O	0.590337	-0.157480	0.108435
O7	O	0.756086	-0.137484	0.108477
Cu8	Cu	0.673211	-0.147481	0.128234
Cu9	Cu	0.673220	-0.147490	-0.127922
O10	O	0.669189	-0.312749	0.108446
C11	C	0.569121	-0.156984	0.000130
C12	C	0.505894	-0.155481	0.000114
C13	C	0.113820	-0.146035	0.118238
C14	C	0.054412	-0.144605	0.118243
O15	O	0.023685	-0.143824	0.218655
N16	N	0.024703	-0.143900	0.000175
C17	C	0.054406	-0.144613	-0.117906
O18	O	0.023682	-0.143881	-0.218332
C19	C	0.113814	-0.146035	-0.117910
C20	C	0.143518	-0.146751	0.000166
C21	C	0.143525	-0.146750	0.236305
C22	C	0.202928	-0.148182	0.236299
C23	C	0.232627	-0.148899	0.118227
C24	C	0.202922	-0.148183	0.000160
C25	C	0.143516	-0.146740	-0.235990
C26	C	0.202928	-0.148161	-0.235984
C27	C	0.232632	-0.148877	-0.117908
C28	C	0.292025	-0.150331	-0.117917
N29	N	0.321733	-0.151037	0.000151
C30	C	0.292034	-0.150320	0.118223
C31	C	-0.070353	-0.141626	-0.117889
C32	C	-0.129760	-0.140213	-0.117887
C33	C	-0.129750	-0.140203	0.118263
C34	C	-0.070343	-0.141624	0.118260
C35	C	-0.040644	-0.142331	0.000179
C36	C	0.416786	-0.153328	0.118203
C37	C	0.476195	-0.154764	0.118187
C38	C	0.476180	-0.154768	-0.117963
C39	C	0.416777	-0.153338	-0.117948
C40	C	0.387081	-0.152614	0.000146
O41	O	0.322789	-0.151109	-0.218278
O42	O	0.322767	-0.151037	0.218633
C43	C	0.676732	0.060060	0.000165
C44	C	0.675220	0.186038	0.000164
C45	C	0.777309	-0.137987	0.000179
C46	C	0.840537	-0.139490	0.000186
C47	C	0.669698	-0.355031	0.000143
C48	C	0.671211	-0.481009	0.000136
N49	N	0.673209	-0.147475	0.308399
C50	C	0.672439	0.416683	0.000141
C51	C	0.673984	0.288335	0.000154
N52	N	0.673226	-0.147487	-0.308088
C53	C	0.673217	-0.147487	0.574070
C54	C	0.673210	-0.147484	0.426232
H55	H	0.500372	-0.155357	-0.214094
C56	C	0.384095	-0.152553	-0.247827
C57	C	0.398435	-0.054183	-0.345220
C58	C	0.365759	-0.053383	-0.475100
C59	C	0.318742	-0.150953	-0.507586
C60	C	0.304400	-0.249331	-0.410189
C61	C	0.337076	-0.250131	-0.280310
H62	H	0.433242	0.018051	-0.321175
H63	H	0.376376	0.019443	-0.547199
H64	H	0.294553	-0.150361	-0.603730
H65	H	0.269593	-0.321564	-0.434235
H66	H	0.326459	-0.322957	-0.208211
H67	H	0.227109	-0.148759	0.332449
C68	C	0.508868	-0.155539	0.248081
C69	C	0.494529	-0.253895	0.345494
C70	C	0.527199	-0.254663	0.475384
C71	C	0.574208	-0.157076	0.507862
C72	C	0.588549	-0.058713	0.410446
C73	C	0.555879	-0.057945	0.280555
H74	H	0.459728	-0.326141	0.321455
H75	H	0.516583	-0.327479	0.547498
H76	H	0.598393	-0.157645	0.604014
H77	H	0.623350	0.013533	0.434485
H78	H	0.566496	0.014870	0.208442
H79	H	0.392615	-0.152749	0.214365
H80	H	-0.153941	-0.139647	-0.214037
H81	H	0.119350	-0.146164	0.332459
H82	H	0.119341	-0.146155	-0.332141
H83	H	-0.046161	-0.142209	0.214408
H84	H	-0.153941	-0.139617	0.214404
C85	C	-0.037689	-0.142423	-0.247790
C86	C	-0.039700	-0.043673	-0.345197
C87	C	-0.007039	-0.044469	-0.475096
C88	C	0.027631	-0.144015	-0.507587
C89	C	0.029643	-0.242773	-0.410176
C90	C	-0.003017	-0.241977	-0.280278
H91	H	-0.065366	0.030024	-0.321148
H92	H	-0.008529	0.028639	-0.547205
H93	H	0.051808	-0.144604	-0.603745
H94	H	0.055310	-0.316470	-0.434226
H95	H	-0.001527	-0.315085	-0.208169
H96	H	0.227105	-0.148737	-0.332142
