data_functionalizedCrystal
_audit_creation_method	'MofGen! by Chris Wilmer'
_symmetry_space_group_name_H-M	'P1'
_symmetry_Int_Tables_number	1
_symmetry_cell_setting	triclinic
loop_
_symmetry_equiv_pos_as_xyz
  x,y,z
_cell_length_a	17.077404
_cell_length_b	16.959454
_cell_length_c	17.077404
_cell_angle_alpha	90.006946
_cell_angle_beta	90.003452
_cell_angle_gamma	90.020300
loop_
_atom_site_label
_atom_site_type_symbol
_atom_site_fract_x
_atom_site_fract_y
_atom_site_fract_z
Zn1	Zn	1.199946	-0.314816	0.443863
Zn2	Zn	1.533279	0.018518	0.777196
Zn3	Zn	1.866612	0.351851	1.110530
Zn4	Zn	1.199896	-0.446962	0.312606
Zn5	Zn	1.533229	-0.113629	0.645939
Zn6	Zn	1.866563	0.219704	0.979272
Zn7	Zn	1.068714	-0.314802	0.312611
Zn8	Zn	1.402048	0.018531	0.645944
Zn9	Zn	1.735381	0.351864	0.979278
Zn10	Zn	1.068652	-0.446957	0.443829
Zn11	Zn	1.401985	-0.113623	0.777162
Zn12	Zn	1.735318	0.219710	1.110496
O13	O	1.134302	-0.380884	0.378227
O14	O	1.467635	-0.047551	0.711560
O15	O	1.800969	0.285782	1.044894
O16	O	1.309786	-0.332353	0.426463
O17	O	1.643119	0.000980	0.759797
O18	O	1.976453	0.334313	1.093130
O19	O	1.182500	-0.429428	0.202759
O20	O	1.515833	-0.096095	0.536093
O21	O	1.849166	0.237239	0.869426
O22	O	1.086169	-0.204193	0.330038
O23	O	1.419503	0.129140	0.663371
O24	O	1.752836	0.462473	0.996705
O25	O	1.309749	-0.429441	0.330029
O26	O	1.643083	-0.096108	0.663362
O27	O	1.976416	0.237226	0.996696
O28	O	1.182584	-0.204203	0.426468
O29	O	1.515918	0.129130	0.759802
O30	O	1.849251	0.462464	1.093135
O31	O	1.086121	-0.332331	0.202763
O32	O	1.419454	0.001003	0.536097
O33	O	1.752788	0.334336	0.869430
O34	O	0.958859	-0.332325	0.330005
O35	O	1.292192	0.001009	0.663339
O36	O	1.625526	0.334342	0.996672
O37	O	1.086063	-0.429431	0.553680
O38	O	1.419396	-0.096098	0.887014
O39	O	1.752730	0.237236	1.220347
O40	O	0.958813	-0.429418	0.426411
O41	O	1.292147	-0.096085	0.759744
O42	O	1.625480	0.237249	1.093077
O43	O	1.182524	-0.332347	0.553705
O44	O	1.515857	0.000986	0.887039
O45	O	1.849191	0.334319	1.220372
O46	O	1.182439	-0.557572	0.329996
O47	O	1.515773	-0.224239	0.663330
O48	O	1.849106	0.109094	0.996663
O49	O	1.086015	-0.557568	0.426406
O50	O	1.419348	-0.224235	0.759739
O51	O	1.752681	0.109098	1.093072
C52	C	0.930354	-0.380870	0.378205
C53	C	1.263687	-0.047537	0.711539
C54	C	1.597021	0.285797	1.044872
C55	C	0.843104	-0.380883	0.378215
C56	C	1.176438	-0.047549	0.711548
C57	C	1.509771	0.285784	1.044881
C58	C	0.802111	-0.431515	0.428333
C59	C	1.135444	-0.098182	0.761666
C60	C	1.468777	0.235151	1.094999
C61	C	0.720130	-0.431517	0.428345
C62	C	1.053464	-0.098184	0.761678
C63	C	1.386797	0.235150	1.095012
C64	C	0.679145	-0.380890	0.378235
C65	C	1.012478	-0.047556	0.711569
C66	C	1.345811	0.285777	1.044902
C67	C	0.720144	-0.330251	0.328115
C68	C	1.053477	0.003082	0.661449
C69	C	1.386811	0.336415	0.994782
C70	C	0.802123	-0.330246	0.328107
C71	C	1.135456	0.003087	0.661441
C72	C	1.468790	0.336420	0.994774
C73	C	0.549274	-0.330267	0.328134
C74	C	0.882607	0.003066	0.661468
C75	C	1.215941	0.336400	0.994801
C76	C	0.467289	-0.330273	0.328141
C77	C	0.800623	0.003060	0.661474
C78	C	1.133956	0.336394	0.994808
C79	C	0.467281	-0.431538	0.428372
C80	C	0.800615	-0.098204	0.761705
C81	C	1.133948	0.235129	1.095039
C82	C	0.549260	-0.431533	0.428364
C83	C	0.882594	-0.098199	0.761697
C84	C	1.215927	0.235134	1.095031
C85	C	0.590254	-0.380895	0.378243
C86	C	0.923587	-0.047562	0.711576
C87	C	1.256920	0.285771	1.044909
C88	C	1.134236	-0.586250	0.378214
C89	C	1.467569	-0.252917	0.711547
C90	C	1.800903	0.080416	1.044880
C91	C	1.134280	-0.674107	0.378234
C92	C	1.467613	-0.340774	0.711568
C93	C	1.800946	-0.007440	1.044901
C94	C	1.084167	-1.045610	0.428422
C95	C	1.417500	-0.712277	0.761755
C96	C	1.750833	-0.378944	1.095089
C97	C	1.184656	-1.045555	0.328112
C98	C	1.517989	-0.712222	0.661445
C99	C	1.851323	-0.378888	0.994779
C100	C	1.184628	-0.963009	0.328105
C101	C	1.517962	-0.629676	0.661438
C102	C	1.851295	-0.296342	0.994771
C103	C	1.134368	-0.921760	0.378256
C104	C	1.467702	-0.588427	0.711589
C105	C	1.801035	-0.255093	1.044923
C106	C	1.084136	-0.963057	0.428415
C107	C	1.417469	-0.629723	0.761748
C108	C	1.750803	-0.296390	1.095081
C109	C	1.234854	-0.921706	0.277942
C110	C	1.568188	-0.588373	0.611275
C111	C	1.901521	-0.255039	0.944608
C112	C	1.234828	-0.839155	0.277932
C113	C	1.568162	-0.505822	0.611265
C114	C	1.901495	-0.172488	0.944598
C115	C	1.184572	-0.797905	0.328088
C116	C	1.517905	-0.464571	0.661421
C117	C	1.851238	-0.131238	0.994754
C118	C	1.134338	-0.839206	0.378249
C119	C	1.467671	-0.505873	0.711582
C120	C	1.801004	-0.172540	1.044915
C121	C	1.084078	-0.797957	0.428400
C122	C	1.417411	-0.464624	0.761733
C123	C	1.750745	-0.131291	1.095067
C124	C	1.033847	-0.839258	0.478566
C125	C	1.367181	-0.505924	0.811899
C126	C	1.700514	-0.172591	1.145233
C127	C	1.033879	-0.921806	0.478571
C128	C	1.367213	-0.588473	0.811904
C129	C	1.700546	-0.255140	1.145237
C130	C	1.184540	-0.715356	0.328083
C131	C	1.517873	-0.382023	0.661416
C132	C	1.851206	-0.048689	0.994750
C133	C	1.084047	-0.715404	0.428393
C134	C	1.417381	-0.382071	0.761726
C135	C	1.750714	-0.048737	1.095059
C136	C	1.339046	-0.380899	0.378249
C137	C	1.672379	-0.047566	0.711583
C138	C	2.005713	0.285768	1.044916
C139	C	1.426296	-0.380906	0.378259
C140	C	1.759629	-0.047572	0.711592
C141	C	2.092963	0.285761	1.044925
C142	C	1.134292	-0.380890	0.582971
C143	C	1.467625	-0.047557	0.916305
C144	C	1.800959	0.285777	1.249638
C145	C	1.134288	-0.380892	0.670221
C146	C	1.467621	-0.047559	1.003554
C147	C	1.800954	0.285774	1.336888
C148	C	1.134389	-0.174716	0.378258
C149	C	1.467723	0.158617	0.711591
C150	C	1.801056	0.491951	1.044924
C151	C	1.134427	-0.086859	0.378271
C152	C	1.467760	0.246474	0.711604
C153	C	1.801093	0.579807	1.044937
C154	C	1.184522	-0.330343	1.046050
C155	C	1.517855	0.002990	1.379383
C156	C	1.851189	0.336324	1.712716
C157	C	1.184524	-0.330347	0.964069
C158	C	1.517857	0.002986	1.297403
C159	C	1.851190	0.336320	1.630736
C160	C	1.134299	-0.380891	0.923070
C161	C	1.467632	-0.047558	1.256403
C162	C	1.800965	0.285775	1.589737
C163	C	1.084075	-0.431440	0.964055
C164	C	1.417408	-0.098107	1.297389
C165	C	1.750741	0.235226	1.630722
C166	C	1.084078	-0.431440	1.046034
C167	C	1.417411	-0.098107	1.379368
C168	C	1.750744	0.235227	1.712701
C169	C	1.084070	-0.431437	0.793185
C170	C	1.417404	-0.098103	1.126519
C171	C	1.750737	0.235230	1.459852
C172	C	1.084066	-0.431436	0.711201
C173	C	1.417399	-0.098103	1.044534
C174	C	1.750733	0.235230	1.377868
C175	C	1.184516	-0.330344	0.711220
C176	C	1.517849	0.002990	1.044554
C177	C	1.851183	0.336323	1.377887
C178	C	1.184519	-0.330343	0.793199
C179	C	1.517853	0.002990	1.126533
C180	C	1.851186	0.336324	1.459866
C181	C	1.134294	-0.380892	0.834179
C182	C	1.467627	-0.047558	1.167512
C183	C	1.800961	0.285775	1.500846
C184	C	1.134303	-0.380894	1.174279
C185	C	1.467637	-0.047561	1.507613
C186	C	1.800970	0.285772	1.840946
C187	C	1.134300	-0.380887	1.087029
C188	C	1.467634	-0.047553	1.420363
C189	C	1.800967	0.285780	1.753696
H190	H	0.835499	-0.289012	0.287300
H191	H	1.168832	0.044321	0.620634
H192	H	1.502165	0.377655	0.953967
F193	F	1.030556	-0.671510	0.481776
F194	F	1.363890	-0.338177	0.815109
F195	F	1.697223	-0.004843	1.148443
F196	F	1.237984	-0.276558	0.836832
F197	F	1.571317	0.056775	1.170165
F198	F	1.904650	0.390109	1.503499
H199	H	1.225410	-0.289184	0.677851
H200	H	1.558743	0.044150	1.011184
H201	H	1.892076	0.377483	1.344517
F202	F	0.980355	-0.795348	0.531935
F203	F	1.313689	-0.462015	0.865269
F204	F	1.647022	-0.128681	1.198602
H205	H	0.582648	-0.289026	0.287327
H206	H	0.915982	0.044308	0.620660
H207	H	1.249315	0.377641	0.953994
F208	F	0.676522	-0.276365	0.274789
F209	F	1.009855	0.056969	0.608123
F210	F	1.343189	0.390302	0.941456
H211	H	0.582628	-0.472762	0.469163
H212	H	0.915962	-0.139429	0.802497
H213	H	1.249295	0.193904	1.135830
F214	F	0.980424	-0.965766	0.531955
F215	F	1.313758	-0.632433	0.865288
F216	F	1.647091	-0.299099	1.198621
F217	F	0.423652	-0.485421	0.481724
F218	F	0.756986	-0.152088	0.815057
F219	F	1.090319	0.181245	1.148391
H220	H	1.043272	-1.079241	0.469268
H221	H	1.376606	-0.745907	0.802601
H222	H	1.709939	-0.412574	1.135935
F223	F	0.423671	-0.276393	0.274806
F224	F	0.757004	0.056941	0.608139
F225	F	1.090338	0.390274	0.941472
F226	F	1.238142	-1.089457	0.274740
F227	F	1.571476	-0.756124	0.608074
F228	F	1.904809	-0.422790	0.941407
F229	F	1.288344	-0.965610	0.224574
F230	F	1.621677	-0.632277	0.557907
F231	F	1.955010	-0.298943	0.891241
H232	H	1.043150	-0.472575	0.677821
H233	H	1.376484	-0.139242	1.011155
H234	H	1.709817	0.194091	1.344488
F235	F	1.288292	-0.795208	0.224547
F236	F	1.621626	-0.461874	0.557880
F237	F	1.954959	-0.128541	0.891213
F238	F	1.237987	-0.671405	0.274690
F239	F	1.571321	-0.338072	0.608023
F240	F	1.904654	-0.004738	0.941356
H241	H	1.225416	-0.289179	1.079425
H242	H	1.558749	0.044154	1.412759
H243	H	1.892083	0.377488	1.746092
F244	F	0.676506	-0.485407	0.481688
F245	F	1.009839	-0.152074	0.815021
F246	F	1.343172	0.181260	1.148354
F247	F	1.030623	-0.485236	0.920419
F248	F	1.363957	-0.151902	1.253752
F249	F	1.697290	0.181431	1.587086
F250	F	1.237977	-0.276552	0.920459
F251	F	1.571310	0.056781	1.253792
F252	F	1.904644	0.390115	1.587126
H253	H	1.043174	-0.472601	0.826549
H254	H	1.376507	-0.139267	1.159882
H255	H	1.709841	0.194066	1.493215
F256	F	0.845723	-0.485405	0.481663
F257	F	1.179057	-0.152072	0.814997
F258	F	1.512390	0.181262	1.148330
H259	H	1.043183	-0.472599	1.079399
H260	H	1.376516	-0.139265	1.412732
H261	H	1.709849	0.194068	1.746066
