data_functionalizedCrystal
_audit_creation_method	'MofGen! by Chris Wilmer'
_symmetry_space_group_name_H-M	'P1'
_symmetry_Int_Tables_number	1
_symmetry_cell_setting	triclinic
loop_
_symmetry_equiv_pos_as_xyz
  x,y,z
_cell_length_a	29.839134
_cell_length_b	18.101396
_cell_length_c	18.101389
_cell_angle_alpha	89.983791
_cell_angle_beta	90.028730
_cell_angle_gamma	89.968115
loop_
_atom_site_label
_atom_site_type_symbol
_atom_site_fract_x
_atom_site_fract_y
_atom_site_fract_z
Zn1	Zn	0.686763	0.295009	0.418937
Zn2	Zn	1.186763	0.795009	0.918937
Zn3	Zn	0.686692	0.418834	0.295100
Zn4	Zn	1.186692	0.918834	0.795100
Zn5	Zn	0.611637	0.295000	0.295089
Zn6	Zn	1.111637	0.795000	0.795089
Zn7	Zn	0.611600	0.418802	0.418879
Zn8	Zn	1.111600	0.918802	0.918879
O9	O	0.649173	0.356911	0.357001
O10	O	1.149173	0.856911	0.857001
O11	O	0.749621	0.311452	0.402539
O12	O	1.249621	0.811452	0.902539
O13	O	0.676722	0.402418	0.191466
O14	O	1.176722	0.902418	0.691466
O15	O	0.621648	0.191368	0.311537
O16	O	1.121648	0.691368	0.811537
O17	O	0.749569	0.402426	0.311557
O18	O	1.249569	0.902426	0.811557
O19	O	0.676843	0.191375	0.402528
O20	O	1.176843	0.691375	0.902528
O21	O	0.621580	0.311437	0.191457
O22	O	1.121580	0.811437	0.691457
O23	O	0.548765	0.311406	0.311481
O24	O	1.048765	0.811406	0.811481
O25	O	0.621584	0.402370	0.522520
O26	O	1.121584	0.902370	1.022520
O27	O	0.548737	0.402362	0.402429
O28	O	1.048737	0.902362	0.902429
O29	O	0.676807	0.311420	0.522562
O30	O	1.176807	0.811420	1.022562
O31	O	0.676686	0.522463	0.311501
O32	O	1.176686	1.022463	0.811501
O33	O	0.621515	0.522439	0.402440
O34	O	1.121515	1.022439	0.902440
C35	C	0.532451	0.356880	0.356948
C36	C	1.032451	0.856880	0.856948
C37	C	0.482516	0.356884	0.356943
C38	C	0.982516	0.856884	0.856943
C39	C	0.172868	0.404342	0.404300
C40	C	0.672868	0.904342	0.904300
C41	C	-0.014805	0.404363	0.404333
C42	C	0.485195	0.904363	0.904333
O43	O	-0.039074	0.444679	0.444567
O44	O	0.460926	0.944679	0.944567
N45	N	-0.038269	0.356938	0.357057
N46	N	0.461731	0.856938	0.857057
C47	C	-0.014812	0.309502	0.309773
C48	C	0.485188	0.809502	0.809773
O49	O	-0.039075	0.269159	0.269568
O50	O	0.460925	0.769159	0.769568
C51	C	0.172861	0.309478	0.309744
C52	C	0.672861	0.809478	0.809744
C53	C	0.196322	0.356911	0.357018
C54	C	0.696322	0.856911	0.857018
C55	C	0.196329	0.451771	0.451571
C56	C	0.696329	0.951771	0.951571
C57	C	0.243245	0.451768	0.451559
C58	C	0.743245	0.951768	0.951559
C59	C	0.266699	0.404337	0.404277
C60	C	0.766699	0.904337	0.904277
C61	C	0.243237	0.356908	0.357007
C62	C	0.743237	0.856908	0.857007
C63	C	0.196317	0.262038	0.262464
C64	C	0.696317	0.762038	0.762464
C65	C	0.243238	0.262034	0.262463
C66	C	0.743238	0.762034	0.762463
C67	C	0.266700	0.309468	0.309737
C68	C	0.766700	0.809468	0.809737
C69	C	0.313607	0.309474	0.309713
C70	C	0.813607	0.809474	0.809713
N71	N	0.337071	0.356898	0.356989
N72	N	0.837071	0.856898	0.856989
C73	C	0.313617	0.404330	0.404271
C74	C	0.813617	0.904330	0.904271
C75	C	-0.113342	0.309519	0.309790
C76	C	0.386658	0.809519	0.809790
C77	C	-0.160260	0.309525	0.309796
C78	C	0.339740	0.809525	0.809796
C79	C	-0.160250	0.404386	0.404358
C80	C	0.339750	0.904386	0.904358
C81	C	-0.113332	0.404383	0.404347
C82	C	0.386668	0.904383	0.904347
C83	C	-0.089878	0.356943	0.357066
C84	C	0.410122	0.856943	0.857066
C85	C	0.412142	0.404321	0.404243
C86	C	0.912142	0.904321	0.904243
C87	C	0.459062	0.404316	0.404225
C88	C	0.959062	0.904316	0.904225
C89	C	0.459048	0.309453	0.309666
C90	C	0.959048	0.809453	0.809666
C91	C	0.412133	0.309460	0.309681
C92	C	0.912133	0.809460	0.809681
C93	C	0.388681	0.356897	0.356975
C94	C	0.888681	0.856897	0.856975
O95	O	0.337905	0.269173	0.269506
O96	O	0.837905	0.769173	0.769506
O97	O	0.337888	0.444655	0.444482
O98	O	0.837888	0.944655	0.944482
C99	C	0.125952	0.404345	0.404312
C100	C	0.625952	0.904345	0.904312
C101	C	0.102491	0.356917	0.357041
C102	C	0.602491	0.856917	0.857041
C103	C	0.125945	0.309485	0.309759
C104	C	0.625945	0.809485	0.809759
C105	C	0.055573	0.356923	0.357047
C106	C	0.555573	0.856923	0.857047
C107	C	0.032119	0.404355	0.404329
C108	C	0.532119	0.904355	0.904329
C109	C	0.055583	0.451780	0.451605
C110	C	0.555583	0.951780	0.951605
C111	C	0.102498	0.451777	0.451594
C112	C	0.602498	0.951777	0.951594
C113	C	0.102481	0.262060	0.262483
C114	C	0.602481	0.762060	0.762483
C115	C	0.055566	0.262067	0.262498
C116	C	0.555566	0.762067	0.762498
C117	C	0.032112	0.309499	0.309780
C118	C	0.532112	0.809499	0.809780
C119	C	0.649101	0.549322	0.356982
C120	C	1.149101	1.049322	0.856982
C121	C	0.649111	0.631636	0.356998
C122	C	1.149111	1.131636	0.856998
C123	C	0.649191	0.930727	0.357041
C124	C	1.149191	1.430727	0.857041
C125	C	0.614562	0.899418	0.414400
C126	C	1.114562	1.399418	0.914400
C127	C	0.614403	0.813800	0.414219
C128	C	1.114403	1.313800	0.914219
C129	C	0.649151	0.782344	0.357020
C130	C	1.149151	1.282344	0.857020
C131	C	0.636332	0.813480	0.278968
C132	C	1.136332	1.313480	0.778968
C133	C	0.636103	0.899125	0.279312
C134	C	1.136103	1.399125	0.779312
C135	C	0.696718	0.899081	0.377048
C136	C	1.196718	1.399081	0.877048
C137	C	0.696444	0.813430	0.378759
C138	C	1.196444	1.313430	0.878759
C139	C	0.649130	0.698485	0.357004
C140	C	1.149130	1.198485	0.857004
C141	C	0.649212	1.014586	0.357053
C142	C	1.149212	1.514586	0.857053
C143	C	0.766351	0.356943	0.357055
C144	C	1.266351	0.856943	0.857055
C145	C	0.816286	0.356957	0.357078
C146	C	1.316286	0.856957	0.857078
C147	C	0.649199	0.356893	0.550163
C148	C	1.149199	0.856893	1.050163
C149	C	0.649210	0.356885	0.632477
C150	C	1.149210	0.856885	1.132477
C151	C	0.649242	1.163749	0.357040
C152	C	1.149242	1.663749	0.857040
C153	C	0.649231	1.081435	0.357064
C154	C	1.149231	1.581435	0.857064
C155	C	0.649173	0.356877	0.164591
C156	C	1.149173	0.856877	0.664591
C157	C	0.649249	0.356676	0.082277
C158	C	1.149249	0.856676	0.582277
C159	C	0.649236	0.356746	0.931569
C160	C	1.149236	0.856746	1.431569
C161	C	0.614372	0.413787	0.900217
C162	C	1.114372	0.913787	1.400217
C163	C	0.614466	0.414052	0.814598
C164	C	1.114466	0.914052	1.314598
C165	C	0.649223	0.356815	0.783186
C166	C	1.149223	0.856815	1.283186
C167	C	0.696554	0.378006	0.814299
C168	C	1.196554	0.878006	1.314299
C169	C	0.696360	0.378380	0.899944
C170	C	1.196360	0.878380	1.399944
C171	C	0.637181	0.278386	0.899988
C172	C	1.137181	0.778386	1.399988
C173	C	0.636127	0.278839	0.814337
C174	C	1.136127	0.778839	1.314337
C175	C	0.649218	0.356852	0.699326
C176	C	1.149218	0.856852	1.199326
C177	C	0.649244	0.356710	1.015428
C178	C	1.149244	0.856710	1.515428
H179	H	-0.179358	0.270908	0.271294
H180	H	0.320642	0.770908	0.771294
H181	H	0.601362	0.919160	0.262366
H182	H	1.101362	1.419160	0.762366
H183	H	0.723228	0.337765	0.793954
H184	H	1.223228	0.837765	1.293954
C185	C	0.566813	0.396055	0.928011
C186	C	1.066813	0.896055	1.428011
H187	H	0.567791	0.353709	0.958989
H188	H	1.067791	0.853709	1.458989
H189	H	0.547773	0.386597	0.887020
H190	H	1.047773	0.886597	1.387020
H191	H	0.555535	0.436920	0.955188
H192	H	1.055535	0.936920	1.455188
C193	C	0.710601	0.454568	0.785347
C194	C	1.210601	0.954568	1.285347
H195	H	0.687688	0.473721	0.754308
H196	H	1.187688	0.973721	1.254308
H197	H	0.737635	0.450169	0.758006
H198	H	1.237635	0.950169	1.258006
H199	H	0.715135	0.487056	0.825873
H200	H	1.215135	0.987056	1.325873
C201	C	0.667953	0.218383	0.785513
C202	C	1.167953	0.718383	1.285513
H203	H	0.659260	0.171905	0.805224
H204	H	1.159260	0.671905	1.305224
H205	H	0.697750	0.229281	0.800429
H206	H	1.197750	0.729281	1.300429
H207	H	0.666485	0.216661	0.733114
H208	H	1.166485	0.716661	1.233114
C209	C	0.029779	0.503931	0.503639
C210	C	0.529779	1.003931	1.003639
H211	H	0.050468	0.532177	0.531800
H212	H	0.550468	1.032177	1.031800
H213	H	0.011505	0.475624	0.535947
H214	H	0.511505	0.975624	1.035947
H215	H	0.011449	0.536167	0.475274
H216	H	0.511449	1.036167	0.975274
C217	C	0.732646	0.324707	0.927969
C218	C	1.232646	0.824707	1.427969
H219	H	0.747443	0.302775	0.887009
H220	H	1.247443	0.802775	1.387009
H221	H	0.719087	0.287241	0.957119
H222	H	1.219087	0.787241	1.457119
H223	H	0.753803	0.351004	0.957057
H224	H	1.253803	0.851004	1.457057
H225	H	0.622423	0.792747	0.472094
H226	H	1.122423	1.292747	0.972094
C227	C	0.709509	0.785929	0.456352
C228	C	1.209509	1.285929	0.956352
H229	H	0.686244	0.755625	0.475424
H230	H	1.186244	1.255625	0.975424
H231	H	0.713888	0.827068	0.488111
H232	H	1.213888	1.327068	0.988111
H233	H	0.736454	0.758110	0.453384
H234	H	1.236454	1.258110	0.953384
H235	H	0.579368	0.400790	0.793561
H236	H	1.079368	0.900790	1.293561
H237	H	0.603267	0.259081	0.921569
H238	H	1.103267	0.759081	1.421569
C239	C	0.029764	0.209886	0.210495
C240	C	0.529764	0.709886	0.710495
H241	H	0.050456	0.181634	0.182342
H242	H	0.550456	0.681634	0.682342
H243	H	0.011437	0.238159	0.178178
H244	H	0.511437	0.738159	0.678178
H245	H	0.011486	0.177657	0.238893
H246	H	0.511486	0.677657	0.738893
H247	H	0.177223	0.223414	0.223967
H248	H	0.677223	0.723414	0.723967
H249	H	0.622425	0.472134	0.794119
H250	H	1.122425	0.972134	1.294119
H251	H	0.660232	0.919838	0.235117
H252	H	1.160232	1.419838	0.735117
C253	C	0.567260	0.928566	0.396731
C254	C	1.067260	1.428566	0.896731
H255	H	0.546546	0.909390	0.431649
H256	H	1.046546	1.409390	0.931649
H257	H	0.558838	0.913310	0.348477
H258	H	1.058838	1.413310	0.848477
H259	H	0.567216	0.980991	0.399181
H260	H	1.067216	1.480991	0.899181
H261	H	0.662574	0.235888	0.920266
H262	H	1.162574	0.735888	1.420266
H263	H	0.601296	0.262859	0.794000
H264	H	1.101296	0.762859	1.294000
C265	C	0.669332	0.785953	0.219654
C266	C	1.169332	1.285953	0.719654
H267	H	0.691272	0.755151	0.242019
H268	H	1.191272	1.255151	0.742019
H269	H	0.683612	0.827062	0.197097
H270	H	1.183612	1.327062	0.697097
H271	H	0.653468	0.758649	0.183259
H272	H	1.153468	1.258649	0.683259
C273	C	0.625242	0.927282	0.492822
C274	C	1.125242	1.427282	0.992822
H275	H	0.650918	0.958253	0.491290
H276	H	1.150918	1.458253	0.991290
H277	H	0.630964	0.886336	0.524285
H278	H	1.130964	1.386336	1.024285
H279	H	0.600420	0.954491	0.511263
H280	H	1.100420	1.454491	1.011263
C281	C	0.710163	0.455762	0.926948
C282	C	1.210163	0.955762	1.426948
H283	H	0.715834	0.486675	0.885576
H284	H	1.215834	0.986675	1.385576
H285	H	0.736509	0.452006	0.956193
H286	H	1.236509	0.952006	1.456193
H287	H	0.686654	0.476353	0.955724
H288	H	1.186654	0.976353	1.455724
H289	H	0.478162	0.442944	0.442721
H290	H	0.978162	0.942944	0.942721
H291	H	0.579177	0.793369	0.400966
H292	H	1.079177	1.293369	0.900966
H293	H	0.622252	0.471515	0.921745
H294	H	1.122252	0.971515	1.421745
H295	H	0.722518	0.919327	0.335272
H296	H	1.222518	1.419327	0.835272
H297	H	0.601961	0.792087	0.261718
H298	H	1.101961	1.292087	0.761718
H299	H	0.393053	0.442946	0.442756
H300	H	0.893053	0.942946	0.942756
C301	C	0.484854	0.257279	0.257664
C302	C	0.984854	0.757279	0.757664
H303	H	0.516156	0.264068	0.264438
H304	H	1.016156	0.764068	0.764438
H305	H	0.477147	0.268036	0.207885
H306	H	0.977147	0.768036	0.707885
H307	H	0.477185	0.207535	0.268601
H308	H	0.977185	0.707535	0.768601
H309	H	0.708402	0.920641	0.432995
H310	H	1.208402	1.420641	0.932995
H311	H	0.262343	0.490392	0.490056
H312	H	0.762343	0.990392	0.990056
H313	H	0.177238	0.490396	0.490077
H314	H	0.677238	0.990396	0.990077
H315	H	0.723612	0.792015	0.340027
H316	H	1.223612	1.292015	0.840027
H317	H	-0.179355	0.443007	0.442857
H318	H	0.320645	0.943007	0.942857
C319	C	-0.087549	0.257340	0.257770
C320	C	0.412451	0.757340	0.757770
H321	H	-0.108247	0.229107	0.229613
H322	H	0.391753	0.729107	0.729613
H323	H	-0.069226	0.225105	0.286142
H324	H	0.430774	0.725105	0.786142
H325	H	-0.069269	0.285626	0.225446
H326	H	0.430731	0.785626	0.725446
C327	C	-0.087529	0.456553	0.456354
C328	C	0.412471	0.956553	0.956354
H329	H	-0.108221	0.484797	0.484514
H330	H	0.391779	0.984797	0.984514
H331	H	-0.069243	0.488778	0.427972
H332	H	0.430757	0.988778	0.927972
H333	H	-0.069209	0.428264	0.488674
H334	H	0.430791	0.928264	0.988674
H335	H	0.393030	0.270837	0.271186
H336	H	0.893030	0.770837	0.771186
C337	C	0.269034	0.209849	0.210453
C338	C	0.769034	0.709849	0.710453
H339	H	0.248339	0.181608	0.182300
H340	H	0.748339	0.681608	0.682300
H341	H	0.287358	0.177623	0.238835
H342	H	0.787358	0.677623	0.738835
H343	H	0.287315	0.238130	0.178125
H344	H	0.787315	0.738130	0.678125
C345	C	0.128300	0.503948	0.503601
C346	C	0.628300	1.003948	1.003601
H347	H	0.107606	0.532188	0.531763
H348	H	0.607606	1.032188	1.031763
H349	H	0.146583	0.536177	0.475220
H350	H	0.646583	1.036177	0.975220
H351	H	0.146621	0.475661	0.535920
H352	H	0.646621	0.975661	1.035920
C353	C	0.128275	0.209889	0.210464
C354	C	0.628275	0.709889	0.710464
H355	H	0.107578	0.181653	0.182309
H356	H	0.607578	0.681653	0.682309
H357	H	0.146601	0.177656	0.238834
H358	H	0.646601	0.677656	0.738834
H359	H	0.146553	0.238177	0.178139
H360	H	0.646553	0.738177	0.678139
