data_functionalizedCrystal
_audit_creation_method	'MofGen! by Chris Wilmer'
_symmetry_space_group_name_H-M	'P1'
_symmetry_Int_Tables_number	1
_symmetry_cell_setting	triclinic
loop_
_symmetry_equiv_pos_as_xyz
  x,y,z
_cell_length_a	10.723024
_cell_length_b	13.596369
_cell_length_c	10.723023
_cell_angle_alpha	90.004968
_cell_angle_beta	84.467709
_cell_angle_gamma	90.005008
loop_
_atom_site_label
_atom_site_type_symbol
_atom_site_fract_x
_atom_site_fract_y
_atom_site_fract_z
O1	O	1.657189	0.081783	0.175029
O2	O	1.294037	0.081786	0.191783
O3	O	1.483990	0.081780	0.001830
O4	O	1.467236	0.081788	0.364982
O5	O	1.483971	-0.081803	0.001820
O6	O	1.294018	-0.081797	0.191772
O7	O	1.657170	-0.081800	0.175019
Zn8	Zn	1.475591	-0.107771	0.183394
Zn9	Zn	1.475616	0.107757	0.183408
O10	O	1.467217	-0.081795	0.364972
C11	C	1.247528	-0.000005	0.190558
C12	C	1.108973	-0.000004	0.186911
N13	N	1.475583	-0.254863	0.183384
C14	C	1.033991	-0.000001	0.293198
C15	C	0.890787	0.000000	0.289431
C16	C	1.475614	-0.656154	0.183409
C17	C	1.475602	-0.544502	0.183406
C18	C	1.475599	-0.455512	0.183398
C19	C	1.475586	-0.343853	0.183393
C20	C	1.703679	-0.000007	0.176243
C21	C	1.842234	-0.000002	0.179891
C22	C	1.482762	-0.000010	-0.044675
C23	C	1.479114	-0.000007	-0.183229
N24	N	1.475634	0.254848	0.183408
C25	C	1.477498	0.084735	-0.244990
C26	C	1.473729	0.084740	-0.388193
C27	C	1.468445	-0.000002	0.411477
C28	C	1.472093	0.000001	0.550031
H29	H	1.075812	-0.000004	0.386984
H30	H	0.826354	0.000007	0.380421
C31	C	1.004910	0.084086	0.052185
C32	C	0.929201	-0.000004	0.057045
H33	H	1.058611	0.084079	-0.023652
H34	H	0.953553	0.141120	0.055500
H35	H	1.053928	0.084077	0.121403
H36	H	0.880176	0.000008	-0.012168
H37	H	0.980564	-0.057053	0.053718
H38	H	1.472345	0.157291	-0.441306
H39	H	1.067152	0.000019	0.093125
C40	C	1.482815	0.163714	-0.045290
C41	C	1.479432	0.182677	-0.173267
H42	H	1.484026	0.224183	-0.001019
H43	H	1.410720	0.127078	-0.015123
H44	H	1.556009	0.127034	-0.032936
H45	H	1.406233	0.219352	-0.185621
H46	H	1.551535	0.219329	-0.203444
C47	C	1.368843	-0.103317	-0.290318
C48	C	1.473963	-0.097950	-0.378286
H49	H	1.369996	-0.163790	-0.246063
H50	H	1.370371	-0.050160	-0.233007
H51	H	1.294871	-0.099657	-0.332232
H52	H	1.547935	-0.101602	-0.336371
H53	H	1.472446	-0.151122	-0.435605
H54	H	1.477699	-0.072554	-0.236370
