data_functionalizedCrystal
_audit_creation_method	'MofGen! by Chris Wilmer'
_symmetry_space_group_name_H-M	'P1'
_symmetry_Int_Tables_number	1
_symmetry_cell_setting	triclinic
loop_
_symmetry_equiv_pos_as_xyz
  x,y,z
_cell_length_a	13.033293
_cell_length_b	18.101395
_cell_length_c	13.032268
_cell_angle_alpha	82.853748
_cell_angle_beta	90.920818
_cell_angle_gamma	97.200663
loop_
_atom_site_label
_atom_site_type_symbol
_atom_site_fract_x
_atom_site_fract_y
_atom_site_fract_z
Zn1	Zn	1.498387	-0.230407	0.781470
Zn2	Zn	1.520095	-0.336834	0.609491
Zn3	Zn	1.348249	-0.226497	0.587646
Zn4	Zn	1.326336	-0.367707	0.759530
O5	O	1.423267	-0.290361	0.684534
O6	O	1.645189	-0.233242	0.776981
O7	O	1.515555	-0.307641	0.462686
O8	O	1.368250	-0.123378	0.613397
O9	O	1.661138	-0.311433	0.650629
O10	O	1.478557	-0.126252	0.755799
O11	O	1.389300	-0.226576	0.446636
O12	O	1.201420	-0.256512	0.592122
O13	O	1.330904	-0.364051	0.906348
O14	O	1.185321	-0.360259	0.718405
O15	O	1.457309	-0.263177	0.922467
O16	O	1.494307	-0.444567	0.629355
O17	O	1.351953	-0.467249	0.739587
C18	C	1.156053	-0.311312	0.650513
C19	C	1.041734	-0.320295	0.635982
C20	C	0.982863	-0.285692	0.692118
C21	C	0.864709	-0.294975	0.677101
C22	C	1.423133	-0.482780	0.684487
C23	C	1.423166	-0.565093	0.684513
C24	C	1.423384	-0.864172	0.684597
C25	C	1.333978	-0.847154	0.754173
C26	C	1.333633	-0.761540	0.753876
C27	C	1.423276	-0.715795	0.684556
C28	C	1.407704	-0.738262	0.572444
C29	C	1.407133	-0.823996	0.572856
C30	C	1.528656	-0.826793	0.726200
C31	C	1.527715	-0.741433	0.728496
C32	C	1.423217	-0.631939	0.684526
C33	C	1.423441	-0.948028	0.684619
C34	C	1.691525	-0.269330	0.718689
C35	C	1.805840	-0.260367	0.733244
C36	C	1.389240	-0.317494	0.952765
C37	C	1.374740	-0.329057	1.067068
C38	C	1.423426	-0.097192	0.684608
C39	C	1.423494	-0.014874	0.684640
C40	C	1.457220	-0.263276	0.417355
C41	C	1.471919	-0.251489	0.303077
C42	C	1.430819	-0.284301	1.126004
C43	C	1.415833	-0.296251	1.244143
H44	H	1.341780	-0.747182	0.836573
H45	H	1.489919	-0.237136	1.088999
H46	H	1.315629	-0.376215	1.104072
H47	H	1.470174	-0.834156	0.518505
H48	H	1.356718	-0.343413	1.281143
F49	F	1.549191	-0.189845	1.254723
H50	H	1.019936	-0.249191	0.751290
H51	H	0.827642	-0.331474	0.617919
H52	H	1.539707	-0.727420	0.811071
H53	H	0.842907	-0.223862	0.792420
H54	H	1.330589	-0.847895	0.539220
F55	F	0.993285	-0.367997	0.558627
H56	H	1.341909	-0.874449	0.837107
H57	H	1.256131	-0.873189	0.725817
H58	H	1.255325	-0.745581	0.725226
H59	H	1.471382	-0.707322	0.518587
H60	H	1.332057	-0.720625	0.538494
H61	H	1.545538	-0.854117	0.807286
H62	H	1.595098	-0.836526	0.675694
F63	F	1.617946	-0.699935	0.668534
