data_functionalizedCrystal
_audit_creation_method	'MofGen! by Chris Wilmer'
_symmetry_space_group_name_H-M	'P1'
_symmetry_Int_Tables_number	1
_symmetry_cell_setting	triclinic
loop_
_symmetry_equiv_pos_as_xyz
  x,y,z
_cell_length_a	19.805407
_cell_length_b	21.295417
_cell_length_c	19.805399
_cell_angle_alpha	89.969157
_cell_angle_beta	89.980427
_cell_angle_gamma	90.030507
loop_
_atom_site_label
_atom_site_type_symbol
_atom_site_fract_x
_atom_site_fract_y
_atom_site_fract_z
Zn1	Zn	1.034716	-0.250624	-0.382704
Zn2	Zn	1.034623	-0.355893	-0.269510
Zn3	Zn	0.921531	-0.250641	-0.269529
Zn4	Zn	0.921486	-0.355859	-0.382656
O5	O	0.978089	-0.303254	-0.326100
O6	O	1.129421	-0.264595	-0.367701
O7	O	1.019601	-0.341952	-0.174796
O8	O	0.936603	-0.162549	-0.284570
O9	O	1.129352	-0.341935	-0.284537
O10	O	1.019760	-0.162537	-0.367719
O11	O	0.936513	-0.264624	-0.174810
O12	O	0.826809	-0.264592	-0.284523
O13	O	0.936527	-0.341878	-0.477379
O14	O	0.826776	-0.341895	-0.367638
O15	O	1.019717	-0.264562	-0.477415
O16	O	1.019558	-0.443977	-0.284491
O17	O	0.936437	-0.443953	-0.367619
C18	C	0.802233	-0.303242	-0.326078
C19	C	0.727001	-0.303252	-0.326085
C20	C	0.978001	-0.466806	-0.326062
C21	C	0.978024	-0.536774	-0.326069
C22	C	0.691658	-0.343564	-0.369292
C23	C	0.620969	-0.343566	-0.369302
C24	C	0.585626	-0.303257	-0.326100
C25	C	0.620974	-0.262940	-0.282890
C26	C	0.691661	-0.262936	-0.282885
C27	C	0.335901	-0.262954	-0.282913
C28	C	0.265209	-0.262962	-0.282920
C29	C	0.265209	-0.343583	-0.369330
C30	C	0.335896	-0.343579	-0.369324
C31	C	0.371238	-0.303261	-0.326117
C32	C	0.447887	-0.303259	-0.326109
C33	C	0.508979	-0.303261	-0.326105
C34	C	1.021344	-0.569632	-0.282828
C35	C	1.021376	-0.635375	-0.282844
C36	C	0.978076	-0.668256	-0.326092
C37	C	0.934753	-0.635390	-0.369341
C38	C	0.934728	-0.569649	-0.369330
N39	N	0.918865	-0.771522	-0.331245
N40	N	0.918892	-0.833974	-0.331252
C41	C	0.978152	-0.866331	-0.326131
N42	N	1.037386	-0.833878	-0.320989
N43	N	1.037358	-0.771421	-0.320979
C44	C	0.978099	-0.739542	-0.326110
C45	C	1.021509	-0.970475	-0.282905
C46	C	1.021542	-1.036219	-0.282925
C47	C	0.934914	-1.036233	-0.369419
C48	C	0.934887	-0.970490	-0.369402
C49	C	0.978184	-0.937615	-0.326142
C50	C	1.154632	-0.303267	-0.326122
C51	C	1.229864	-0.303272	-0.326132
C52	C	0.978127	-0.303214	-0.502643
C53	C	0.978143	-0.303198	-0.577875
C54	C	0.978197	-0.139064	-0.326152
C55	C	0.978243	-0.069096	-0.326175
C56	C	1.021461	-0.262937	-0.613238
C57	C	1.021468	-0.262919	-0.683927
C58	C	0.978160	-0.303165	-0.719250
C59	C	0.934838	-0.343427	-0.683882
C60	C	0.934828	-0.343442	-0.613195
C61	C	0.934876	-0.343368	-0.968955
C62	C	0.934891	-0.343352	-1.039647
C63	C	1.021516	-0.262846	-1.039687
C64	C	1.021506	-0.262860	-0.969000
C65	C	0.978182	-0.303120	-0.933638
C66	C	0.978174	-0.303138	-0.856989
C67	C	0.978171	-0.303150	-0.795897
C68	C	0.978090	-0.303248	-0.150244
C69	C	0.978205	-0.303088	-0.075012
H70	H	0.720429	-0.376391	-0.404470
N71	N	0.727768	-0.221749	-0.238760
N72	N	0.719904	-0.163670	-0.243373
H73	H	0.745405	-0.134577	-0.212213
N74	N	1.065743	-0.221757	-0.932907
N75	N	1.108851	-0.243916	-0.893461
H76	H	1.140092	-0.214886	-0.867970
N77	N	0.584878	-0.384744	-0.413446
N78	N	0.616442	-0.420732	-0.452014
H79	H	0.590953	-0.449815	-0.483195
N80	N	0.890483	-0.536082	-0.413509
N81	N	0.894942	-0.543377	-0.475971
H82	H	0.863694	-0.519670	-0.507174
H83	H	1.056730	-0.230166	-0.584483
H84	H	0.899661	-1.063004	-0.404636
N85	N	0.229096	-0.384766	-0.413461
N86	N	0.165983	-0.384767	-0.413463
H87	H	0.140479	-0.413853	-0.444628
H88	H	1.056767	-0.943707	-0.247681
N89	N	1.065564	-0.536062	-0.238627
N90	N	1.061103	-0.543460	-0.176171
H91	H	1.092334	-0.519753	-0.144950
N92	N	1.065627	-0.668939	-0.238663
N93	N	1.104278	-0.639579	-0.200041
H94	H	1.135529	-0.663281	-0.168835
N95	N	0.229094	-0.221780	-0.238802
N96	N	0.165981	-0.221792	-0.238817
H97	H	0.140474	-0.192709	-0.207661
N98	N	1.065807	-1.069776	-0.238757
N99	N	1.104462	-1.040412	-0.200140
H100	H	1.135726	-1.064111	-0.168947
N101	N	1.065727	-0.221805	-0.720051
N102	N	1.108846	-0.243952	-0.759497
H103	H	1.140107	-0.214915	-0.785011
N104	N	0.371986	-0.221771	-0.238772
N105	N	0.340418	-0.185789	-0.200199
H106	H	0.365905	-0.156703	-0.169020
H107	H	0.899608	-0.376159	-0.940172
H108	H	0.364669	-0.376405	-0.404501
H109	H	0.899547	-0.376219	-0.584402
N110	N	0.890532	-0.668984	-0.413519
N111	N	0.890559	-0.727681	-0.413523
H112	H	0.859329	-0.751407	-0.444727
H113	H	0.899609	-0.943735	-0.404610
N114	N	1.065769	-0.221724	-1.075821
N115	N	1.065774	-0.221713	-1.138934
H116	H	1.097028	-0.192673	-1.164453
N117	N	0.890635	-0.384457	-1.075722
N118	N	0.828181	-0.380268	-1.067819
H119	H	0.796925	-0.409295	-1.093297
N120	N	0.584863	-0.221765	-0.238769
N121	N	0.521751	-0.221773	-0.238779
H122	H	0.496247	-0.192693	-0.207617
N123	N	0.890598	-0.384528	-0.719972
N124	N	0.890612	-0.384511	-0.783085
H125	H	0.859367	-0.413540	-0.808574
