data_functionalizedCrystal
_audit_creation_method	'MofGen! by Chris Wilmer'
_symmetry_space_group_name_H-M	'P1'
_symmetry_Int_Tables_number	1
_symmetry_cell_setting	triclinic
loop_
_symmetry_equiv_pos_as_xyz
  x,y,z
_cell_length_a	12.759401
_cell_length_b	12.759400
_cell_length_c	12.759393
_cell_angle_alpha	90.030447
_cell_angle_beta	90.019437
_cell_angle_gamma	90.013177
loop_
_atom_site_label
_atom_site_type_symbol
_atom_site_fract_x
_atom_site_fract_y
_atom_site_fract_z
Zn1	Zn	1.606267	-0.418204	0.594016
Zn2	Zn	1.606166	-0.593923	0.418339
Zn3	Zn	1.430569	-0.418259	0.418352
Zn4	Zn	1.430562	-0.593841	0.593978
O5	O	1.518391	-0.506057	0.506171
O6	O	1.753274	-0.441525	0.570722
O7	O	1.582833	-0.570677	0.271320
O8	O	1.453920	-0.271230	0.441676
O9	O	1.753200	-0.570625	0.441654
O10	O	1.583005	-0.271190	0.570735
O11	O	1.453822	-0.441618	0.271330
O12	O	1.283547	-0.441539	0.441639
O13	O	1.453909	-0.570486	0.741004
O14	O	1.283542	-0.570539	0.570670
O15	O	1.582998	-0.441446	0.741032
O16	O	1.582826	-0.740933	0.441617
O17	O	1.453811	-0.740873	0.570658
C18	C	1.245423	-0.506037	0.506153
C19	C	1.128647	-0.506053	0.506170
C20	C	0.964085	-0.573343	0.573269
C21	C	1.073809	-0.573329	0.573252
C22	C	1.073755	-0.438794	0.439093
C23	C	0.964033	-0.438814	0.439105
C24	C	0.909253	-0.640615	0.640363
C25	C	0.964137	-0.707876	0.707438
C26	C	1.073861	-0.707863	0.707421
C27	C	1.128701	-0.640588	0.640329
C28	C	1.518336	-0.779024	0.506155
C29	C	1.518408	-0.895801	0.506183
C30	C	1.585589	-0.950562	0.573439
C31	C	1.585638	-1.060286	0.573465
C32	C	1.451322	-1.060478	0.438969
C33	C	1.451269	-0.950756	0.438949
C34	C	1.652728	-0.895607	0.640673
C35	C	1.719915	-0.950369	0.707933
C36	C	1.719964	-1.060093	0.707959
C37	C	1.652826	-1.115055	0.640724
C38	C	1.792424	-0.506078	0.506191
C39	C	1.909201	-0.506087	0.506199
C40	C	1.518464	-0.505951	0.780205
C41	C	1.518496	-0.505906	0.896982
C42	C	1.518475	-0.232023	0.506211
C43	C	1.518510	-0.115247	0.506228
C44	C	1.518378	-0.506086	0.233204
C45	C	1.518550	-0.505836	0.116428
C46	C	1.585722	-0.438708	0.951860
C47	C	1.585747	-0.438670	1.061584
C48	C	1.451316	-0.573036	1.061542
C49	C	1.451287	-0.573068	0.951820
C50	C	1.652930	-0.371545	0.897022
C51	C	1.720163	-0.304343	0.951900
C52	C	1.720188	-0.304305	1.061624
C53	C	1.652980	-0.371469	1.116470
H54	H	0.919479	-0.762654	0.762057
H55	H	1.396599	-0.627718	1.106206
H56	H	1.652920	-0.371571	0.807679
H57	H	1.774924	-0.249578	1.106303
O58	O	1.386213	-1.114027	0.373690
C59	C	1.326730	-1.283147	0.314157
C60	C	1.400535	-1.222636	0.388125
H61	H	1.338268	-1.370967	0.325817
H62	H	1.345216	-1.261700	0.229429
H63	H	1.242005	-1.261561	0.332517
H64	H	1.485285	-1.244189	0.369860
H65	H	1.381959	-1.244088	0.472830
O66	O	1.127015	-0.773233	0.772670
C67	C	1.115482	-0.906715	0.905698
C68	C	1.055158	-0.832723	0.831868
H69	H	1.057412	-0.954848	0.953563
H70	H	1.166852	-0.858585	0.960776
H71	H	1.166851	-0.961545	0.857349
H72	H	1.003732	-0.777877	0.880132
H73	H	1.003854	-0.880918	0.776787
H74	H	1.652698	-0.806264	0.640657
O75	O	1.386119	-0.638506	0.898541
C76	C	1.335062	-0.817230	0.864943
C77	C	1.408940	-0.743239	0.925335
H78	H	1.353472	-0.901921	0.886601
H79	H	1.346607	-0.805798	0.777093
H80	H	1.250354	-0.798734	0.886481
H81	H	1.493676	-0.761689	0.903885
H82	H	1.397305	-0.754685	1.013171
H83	H	1.652994	-0.371421	1.205815
H84	H	0.819910	-0.640632	0.640386
H85	H	1.218046	-0.640589	0.640314
H86	H	1.774662	-1.104677	0.762734
O87	O	1.385865	-0.897666	0.373673
C88	C	1.207156	-0.864195	0.322576
C89	C	1.281116	-0.924405	0.396543
H90	H	1.122450	-0.885775	0.341055
H91	H	1.225566	-0.885825	0.237858
H92	H	1.218706	-0.776341	0.334103
H93	H	1.269607	-1.012273	0.385109
H94	H	1.262688	-0.902688	0.481234
O95	O	1.126978	-0.373558	0.373777
C96	C	1.160434	-0.322307	0.195151
C97	C	1.100113	-0.396271	0.268999
H98	H	1.138719	-0.340630	0.110423
H99	H	1.248295	-0.333852	0.206575
H100	H	1.138889	-0.237622	0.213798
H101	H	1.121571	-0.480985	0.250397
H102	H	1.012267	-0.384636	0.257561
O103	O	0.910659	-0.373624	0.373855
C104	C	0.786645	-0.359336	0.232111
C105	C	0.847047	-0.433282	0.305922
H106	H	0.735184	-0.407538	0.177183
H107	H	0.844626	-0.311255	0.184084
H108	H	0.735351	-0.304454	0.280482
H109	H	0.898342	-0.488228	0.257632
H110	H	0.789009	-0.481289	0.353953
H111	H	1.774571	-0.905613	0.762680
H112	H	1.774874	-0.249654	0.907237
H113	H	1.652859	-1.204400	0.640762
