data_functionalizedCrystal
_audit_creation_method	'MofGen! by Chris Wilmer'
_symmetry_space_group_name_H-M	'P1'
_symmetry_Int_Tables_number	1
_symmetry_cell_setting	triclinic
loop_
_symmetry_equiv_pos_as_xyz
  x,y,z
_cell_length_a	10.654545
_cell_length_b	14.519709
_cell_length_c	13.596369
_cell_angle_alpha	90.005722
_cell_angle_beta	89.993068
_cell_angle_gamma	84.081612
loop_
_atom_site_label
_atom_site_type_symbol
_atom_site_fract_x
_atom_site_fract_y
_atom_site_fract_z
O1	O	1.666579	0.129514	0.081784
O2	O	1.999912	0.462848	0.415117
O3	O	2.333246	0.796181	0.748451
O4	O	1.300981	0.141859	0.081788
O5	O	1.634314	0.475193	0.415122
O6	O	1.967648	0.808526	0.748455
O7	O	1.493473	0.001499	0.081777
O8	O	1.826807	0.334832	0.415110
O9	O	2.160140	0.668165	0.748444
O10	O	1.474087	0.269875	0.081795
O11	O	1.807420	0.603208	0.415128
O12	O	2.140753	0.936542	0.748462
O13	O	1.493497	0.001491	-0.081806
O14	O	1.826830	0.334824	0.251528
O15	O	2.160164	0.668158	0.584861
O16	O	1.301005	0.141852	-0.081795
O17	O	1.634338	0.475185	0.251539
O18	O	1.967672	0.808519	0.584872
O19	O	1.666603	0.129507	-0.081799
O20	O	1.999936	0.462840	0.251534
O21	O	2.333269	0.796173	0.584868
Zn22	Zn	1.483808	0.135678	-0.107769
Zn23	Zn	1.817141	0.469011	0.225564
Zn24	Zn	2.150474	0.802345	0.558898
Zn25	Zn	1.483776	0.135688	0.107758
Zn26	Zn	1.817110	0.469021	0.441092
Zn27	Zn	2.150443	0.802355	0.774425
O28	O	1.474110	0.269868	-0.081788
O29	O	1.807444	0.603201	0.251546
O30	O	2.140777	0.936534	0.584879
C31	C	1.254204	0.140950	-0.000003
C32	C	1.587537	0.474283	0.333331
C33	C	1.920870	0.807617	0.666664
C34	C	1.114786	0.138241	-0.000001
C35	C	1.448119	0.471574	0.333332
C36	C	1.781453	0.804907	0.666665
C37	C	1.049307	0.136961	-0.089171
C38	C	1.382640	0.470295	0.244162
C39	C	1.715973	0.803628	0.577496
C40	C	0.918312	0.134400	-0.089171
C41	C	1.251645	0.467733	0.244162
C42	C	1.584979	0.801067	0.577495
C43	C	0.918287	0.134402	0.089176
C44	C	1.251620	0.467736	0.422509
C45	C	1.584953	0.801069	0.755843
C46	C	1.049280	0.136957	0.089175
C47	C	1.382614	0.470290	0.422508
C48	C	1.715947	0.803623	0.755842
C49	C	1.492582	-0.032870	-0.000014
C50	C	1.825915	0.300464	0.333319
C51	C	2.159248	0.633797	0.666652
C52	C	1.489874	-0.135265	-0.000015
C53	C	1.823208	0.198068	0.333318
C54	C	2.156541	0.531402	0.666652
C55	C	1.479907	-0.510212	0.000011
C56	C	1.813240	-0.176879	0.333344
C57	C	2.146574	0.156454	0.666677
C58	C	1.482675	-0.405890	0.000003
C59	C	1.816008	-0.072557	0.333337
C60	C	2.149342	0.260777	0.666670
C61	C	1.484890	-0.322742	-0.000003
C62	C	1.818224	0.010591	0.333330
C63	C	2.151557	0.343925	0.666664
C64	C	1.487659	-0.218413	-0.000009
C65	C	1.820992	0.114920	0.333325
C66	C	2.154326	0.448254	0.666658
C67	C	1.713380	0.130416	-0.000006
C68	C	2.046714	0.463749	0.333328
C69	C	2.380047	0.797083	0.666661
C70	C	1.852798	0.133125	-0.000001
C71	C	2.186131	0.466459	0.333333
C72	C	2.519464	0.799792	0.666666
C73	C	1.475002	0.304236	0.000006
C74	C	1.808336	0.637569	0.333339
C75	C	2.141669	0.970902	0.666673
C76	C	1.477710	0.406631	0.000013
C77	C	1.811043	0.739964	0.333346
C78	C	2.144376	1.073298	0.666680
N79	N	1.483756	0.135688	0.254850
N80	N	1.817089	0.469021	0.588184
N81	N	2.150422	0.802355	0.921517
N82	N	1.483838	0.135671	-0.254861
N83	N	1.817171	0.469004	0.078472
N84	N	2.150505	0.802337	0.411806
C85	C	1.483760	0.135689	0.343848
C86	C	1.817094	0.469022	0.677181
C87	C	2.150427	0.802356	1.010515
C88	C	1.483778	0.135687	0.455499
C89	C	1.817112	0.469020	0.788833
C90	C	2.150445	0.802354	1.122166
C91	C	1.483800	0.135681	0.544490
C92	C	1.817133	0.469014	0.877823
C93	C	2.150466	0.802347	1.211157
C94	C	1.483817	0.135677	0.656149
C95	C	1.817150	0.469010	0.989482
C96	C	2.150483	0.802344	1.322815
H97	H	0.865004	0.133359	-0.161782
H98	H	1.198338	0.466692	0.171551
H99	H	1.531671	0.800025	0.504885
H100	H	1.102638	0.138007	-0.161784
H101	H	1.435971	0.471340	0.171549
H102	H	1.769304	0.804673	0.504882
H103	H	0.864936	0.133358	0.161780
H104	H	1.198269	0.466691	0.495113
H105	H	1.531602	0.800024	0.828447
F106	F	1.118973	0.138313	0.184087
F107	F	1.452307	0.471646	0.517420
F108	F	1.785640	0.804979	0.850753
