data_functionalizedCrystal
_audit_creation_method	'MofGen! by Chris Wilmer'
_symmetry_space_group_name_H-M	'P1'
_symmetry_Int_Tables_number	1
_symmetry_cell_setting	triclinic
loop_
_symmetry_equiv_pos_as_xyz
  x,y,z
_cell_length_a	19.805407
_cell_length_b	19.805404
_cell_length_c	18.215399
_cell_angle_alpha	90.031106
_cell_angle_beta	90.020634
_cell_angle_gamma	90.029351
loop_
_atom_site_label
_atom_site_type_symbol
_atom_site_fract_x
_atom_site_fract_y
_atom_site_fract_z
Zn1	Zn	1.034729	-0.269470	0.416115
Zn2	Zn	1.034636	-0.382661	0.293042
Zn3	Zn	0.921541	-0.269491	0.293061
Zn4	Zn	0.921501	-0.382623	0.416066
O5	O	0.978102	-0.326061	0.354571
O6	O	1.129433	-0.284492	0.399803
O7	O	1.019612	-0.367674	0.190061
O8	O	0.936612	-0.174772	0.309413
O9	O	1.129365	-0.367653	0.309381
O10	O	1.019770	-0.174756	0.399821
O11	O	0.936522	-0.284529	0.190074
O12	O	0.826820	-0.284491	0.309365
O13	O	0.936543	-0.367588	0.519056
O14	O	0.826790	-0.367608	0.399736
O15	O	1.019731	-0.284455	0.519093
O16	O	1.019573	-0.477373	0.309333
O17	O	0.936453	-0.477344	0.399718
C18	C	0.802246	-0.326048	0.354547
C19	C	0.727014	-0.326059	0.354555
C20	C	0.978017	-0.501917	0.354534
C21	C	0.978042	-0.577149	0.354543
C22	C	1.021494	-1.038873	0.401750
C23	C	1.021468	-0.968185	0.401733
C24	C	0.978193	-0.932911	0.354617
C25	C	0.934947	-0.968329	0.307509
C26	C	0.934977	-1.039016	0.307523
C27	C	0.934823	-0.683256	0.307452
C28	C	0.934794	-0.612564	0.307443
C29	C	1.021313	-0.612424	0.401662
C30	C	1.021344	-0.683112	0.401676
C31	C	0.978100	-0.718524	0.354566
C32	C	0.978131	-0.795172	0.354584
C33	C	0.978158	-0.856264	0.354602
C34	C	0.691672	-0.369403	0.401535
C35	C	0.620984	-0.369404	0.401545
C36	C	0.585638	-0.326064	0.354571
C37	C	0.620985	-0.282715	0.307589
C38	C	0.691672	-0.282711	0.307583
C39	C	0.335912	-0.282730	0.307613
C40	C	0.265220	-0.282739	0.307622
C41	C	0.265223	-0.369424	0.401575
C42	C	0.335910	-0.369419	0.401569
C43	C	0.371251	-0.326068	0.354590
C44	C	0.447899	-0.326067	0.354581
C45	C	0.508991	-0.326069	0.354577
C46	C	1.154645	-0.326075	0.354595
C47	C	1.229877	-0.326081	0.354606
C48	C	0.978143	-0.326015	0.546524
C49	C	0.978161	-0.325995	0.628323
C50	C	0.978206	-0.149519	0.354625
C51	C	0.978250	-0.074287	0.354647
C52	C	0.978100	-0.326059	0.163365
C53	C	0.978213	-0.325888	0.081566
C54	C	1.021492	-0.282667	0.816537
C55	C	1.021500	-0.282647	0.893396
C56	C	0.934877	-0.369218	0.893347
C57	C	0.934866	-0.369233	0.816489
C58	C	0.978177	-0.325959	0.778087
C59	C	0.978197	-0.325924	0.931803
C60	C	0.978205	-0.325903	1.015137
C61	C	0.978168	-0.325979	0.694748
H62	H	1.056727	-1.067588	0.440125
H63	H	0.899714	-0.939605	0.269142
H64	H	0.899553	-0.583845	0.269073
H65	H	0.899611	-0.712080	0.269092
C66	C	1.106990	-0.975147	0.494871
C67	C	1.069004	-0.929259	0.453509
H68	H	1.136336	-0.951114	0.526837
H69	H	1.132906	-1.002716	0.462840
H70	H	1.077487	-1.002725	0.522996
H71	H	1.098506	-0.901684	0.425380
H72	H	1.043086	-0.901678	0.485544
C73	C	0.628087	-0.455109	0.494394
C74	C	0.582136	-0.417061	0.453175
H75	H	0.604103	-0.484536	0.526264
H76	H	0.655678	-0.425656	0.522609
H77	H	0.655637	-0.480949	0.462261
H78	H	0.554589	-0.391217	0.485307
H79	H	0.554534	-0.446518	0.424958
C80	C	1.059804	-0.791408	0.443534
C81	C	1.068912	-0.721885	0.453467
H82	H	1.089170	-0.815342	0.475511
H83	H	1.069742	-0.803011	0.394105
H84	H	1.014324	-0.803020	0.454261
H85	H	1.114391	-0.710271	0.442734
H86	H	1.058978	-0.710277	0.502907
H87	H	0.899764	-1.067849	0.269167
C88	C	0.820249	-0.402178	0.916978
C89	C	0.887275	-0.416788	0.935561
H90	H	0.790863	-0.431546	0.943042
H91	H	0.814048	-0.408384	0.865708
H92	H	0.810379	-0.356697	0.929593
H93	H	0.897147	-0.462268	0.922941
H94	H	0.893480	-0.410587	0.986843
C95	C	0.771204	-0.378919	0.500497
C96	C	0.730523	-0.417044	0.453170
H97	H	0.795190	-0.408332	0.532373
H98	H	0.743653	-0.349470	0.528706
H99	H	0.802368	-0.353109	0.472507
H100	H	0.699355	-0.442850	0.481160
H101	H	0.758077	-0.446504	0.424959
H102	H	1.056757	-0.247429	0.785272
H103	H	1.056770	-0.247394	0.924699
C104	C	0.901831	-0.483854	0.792767
C105	C	0.887254	-0.416826	0.774216
H106	H	0.872440	-0.513231	0.766665
H107	H	0.895635	-0.490036	0.844030
H108	H	0.947303	-0.493754	0.780176
H109	H	0.841783	-0.406924	0.786813
H110	H	0.893444	-0.410640	0.722942
H111	H	0.364685	-0.404714	0.439818
C112	C	1.059698	-0.504004	0.443478
C113	C	1.068855	-0.573497	0.453440
H114	H	1.089050	-0.479975	0.475442
H115	H	1.014216	-0.492456	0.454200
H116	H	1.069629	-0.492450	0.394037
H117	H	1.058920	-0.585052	0.502880
H118	H	1.114348	-0.585050	0.442724
H119	H	0.592201	-0.247424	0.269345
C120	C	0.272313	-0.197035	0.214757
C121	C	0.226366	-0.235091	0.255990
H122	H	0.248325	-0.167619	0.182887
H123	H	0.299858	-0.226485	0.186541
H124	H	0.299909	-0.171185	0.246880
H125	H	0.198774	-0.260946	0.223866
H126	H	0.198810	-0.205638	0.284208
C127	C	0.156866	-0.407921	0.443319
C128	C	0.226374	-0.417070	0.453225
H129	H	0.132885	-0.437334	0.475207
H130	H	0.145258	-0.417770	0.393860
H131	H	0.145314	-0.362456	0.454185
H132	H	0.237927	-0.462535	0.442354
H133	H	0.237987	-0.407227	0.502695
C134	C	0.415360	-0.273198	0.208631
C135	C	0.374750	-0.235084	0.255969
H136	H	0.439341	-0.243780	0.176749
H137	H	0.387761	-0.302653	0.180429
H138	H	0.446529	-0.299001	0.236612
H139	H	0.343579	-0.209284	0.227987
H140	H	0.402352	-0.205616	0.284173
H141	H	0.720447	-0.247413	0.269331
