data_functionalizedCrystal
_audit_creation_method	'MofGen! by Chris Wilmer'
_symmetry_space_group_name_H-M	'P1'
_symmetry_Int_Tables_number	1
_symmetry_cell_setting	triclinic
loop_
_symmetry_equiv_pos_as_xyz
  x,y,z
_cell_length_a	34.490303
_cell_length_b	34.489386
_cell_length_c	34.485816
_cell_angle_alpha	60.004462
_cell_angle_beta	60.008900
_cell_angle_gamma	59.994399
loop_
_atom_site_label
_atom_site_type_symbol
_atom_site_fract_x
_atom_site_fract_y
_atom_site_fract_z
O1	O	0.053846	-0.566517	0.473678
O2	O	0.553846	-0.066517	0.973678
O3	O	0.020329	-0.441078	0.381663
O4	O	0.520329	0.058922	0.881663
O5	O	0.099768	-0.520436	0.381578
O6	O	0.599768	-0.020436	0.881578
O7	O	-0.025592	-0.487159	0.473762
O8	O	0.474408	0.012841	0.973762
O9	O	0.126127	-0.494082	0.407849
O10	O	0.626127	0.005918	0.907849
O11	O	0.046689	-0.414724	0.407933
O12	O	0.546689	0.085276	0.907933
O13	O	0.080206	-0.540163	0.499949
O14	O	0.580206	-0.040163	0.999949
Zn15	Zn	0.067632	-0.473259	0.458112
Zn16	Zn	0.567632	0.026741	0.958112
Zn17	Zn	0.032903	-0.507982	0.423499
Zn18	Zn	0.532903	-0.007982	0.923499
O19	O	0.000767	-0.460805	0.500033
O20	O	0.500767	0.039195	1.000033
N21	N	0.091336	-0.449565	0.481736
N22	N	0.591336	0.050435	0.981736
N23	N	0.009203	-0.531680	0.399875
N24	N	0.509203	-0.031680	0.899875
C25	C	0.142510	-0.268211	0.532817
C26	C	0.642510	0.231789	1.032817
C27	C	0.142641	-0.398441	0.662987
C28	C	0.642641	0.101559	1.162987
C29	C	0.142524	-0.398421	0.532817
C30	C	0.642524	0.101579	1.032817
C31	C	0.272762	-0.398394	0.532723
C32	C	0.772762	0.101606	1.032723
C33	C	0.156853	-0.311177	0.547124
C34	C	0.656853	0.188823	1.047124
C35	C	0.156928	-0.384109	0.620020
C36	C	0.656928	0.115891	1.120020
C37	C	0.229794	-0.384081	0.547073
C38	C	0.729794	0.115919	1.047073
C39	C	0.156863	-0.384097	0.547124
C40	C	0.656863	0.115903	1.047124
C41	C	0.124253	-0.213522	0.514606
C42	C	0.624253	0.286478	1.014606
C43	C	0.124277	-0.416652	0.514606
C44	C	0.624277	0.083348	1.014606
C45	C	0.175110	-0.365866	0.565335
C46	C	0.675110	0.134134	1.065335
C47	C	0.352285	-0.384669	0.490824
C48	C	0.852285	0.115331	0.990824
C49	C	0.401998	-0.401229	0.474223
C50	C	0.901998	0.098771	0.974223
C51	C	0.402027	-0.481671	0.504898
C52	C	0.902027	0.018329	1.004898
C53	C	0.352316	-0.465109	0.521500
C54	C	0.852316	0.034891	1.021500
C55	C	0.136220	-0.188652	0.465734
C56	C	0.636220	0.311348	0.965734
C57	C	0.119621	-0.138936	0.449181
C58	C	0.619621	0.361064	0.949181
C59	C	0.079092	-0.138961	0.530374
C60	C	0.579092	0.361039	1.030374
C61	C	0.095691	-0.188678	0.546927
C62	C	0.595691	0.311322	1.046927
C63	C	0.075398	-0.404656	0.526651
C64	C	0.575398	0.095344	1.026651
C65	C	0.058814	-0.421229	0.510091
C66	C	0.558814	0.078771	1.010091
C67	C	0.139984	-0.461794	0.469452
C68	C	0.639984	0.038206	0.969452
C69	C	0.156570	-0.445221	0.486007
C70	C	0.656570	0.054779	0.986007
C71	C	0.075593	-0.404694	0.742565
C72	C	0.575593	0.095306	1.242565
C73	C	0.059066	-0.421281	0.792280
C74	C	0.559066	0.078719	1.292280
C75	C	0.140274	-0.461856	0.792215
C76	C	0.640274	0.038144	1.292215
C77	C	0.156800	-0.445269	0.742499
C78	C	0.656800	0.054731	1.242499
C79	C	0.124458	-0.416687	0.717675
C80	C	0.624458	0.083313	1.217675
C81	C	0.327446	-0.416608	0.514460
C82	C	0.827446	0.083392	1.014460
C83	C	-0.023585	-0.564792	0.161919
C84	C	0.476415	-0.064792	0.661919
C85	C	-0.023910	-0.769260	0.366530
C86	C	0.476090	-0.269260	0.866530
C87	C	-0.023880	-0.564780	0.366623
C88	C	0.476120	-0.064780	0.866623
C89	C	-0.228325	-0.564561	0.366222
C90	C	0.271675	-0.064561	0.866222
C91	C	-0.129610	-0.597564	0.333467
C92	C	0.370390	-0.097564	0.833467
C93	C	-0.056729	-0.597644	0.333613
C94	C	0.443271	-0.097644	0.833613
C95	C	-0.074925	-0.615849	0.315324
C96	C	0.425075	-0.115849	0.815324
C97	C	-0.088689	-0.695351	0.357144
C98	C	0.411311	-0.195351	0.857144
C99	C	-0.072155	-0.745068	0.373736
C100	C	0.427845	-0.245068	0.873736
C101	C	0.008283	-0.745150	0.343188
C102	C	0.508283	-0.245150	0.843188
C103	C	-0.008252	-0.695435	0.326596
C104	C	0.491748	-0.195435	0.826596
C105	C	-0.154529	-0.609541	0.382326
C106	C	0.345471	-0.109541	0.882326
C107	C	-0.204241	-0.592916	0.398818
C108	C	0.295759	-0.092916	0.898818
C109	C	-0.204114	-0.552341	0.317588
C110	C	0.295886	-0.052341	0.817588
C111	C	-0.154401	-0.568966	0.301096
C112	C	0.345599	-0.068966	0.801096
C113	C	-0.068707	-0.548770	0.321590
C114	C	0.431293	-0.048770	0.821590
C115	C	-0.052166	-0.532225	0.338221
C116	C	0.447834	-0.032225	0.838221
C117	C	-0.011669	-0.613425	0.378886
C118	C	0.488331	-0.113425	0.878886
C119	C	-0.028210	-0.629972	0.362261
C120	C	0.471790	-0.129972	0.862261
C121	C	-0.068581	-0.548777	0.235758
C122	C	0.431419	-0.048777	0.735758
C123	C	-0.051939	-0.532234	0.186043
C124	C	0.448061	-0.032234	0.686043
C125	C	-0.011379	-0.613438	0.186090
C126	C	0.488621	-0.113438	0.686090
C127	C	-0.028020	-0.629981	0.235806
C128	C	0.471980	-0.129981	0.735806
C129	C	-0.056622	-0.597649	0.260639
C130	C	0.443378	-0.097649	0.760639
C131	C	-0.056739	-0.670537	0.333576
C132	C	0.443261	-0.170537	0.833576
C133	C	-0.005614	-0.545951	0.107238
C134	C	0.494386	-0.045951	0.607238
C135	C	-0.006360	-0.823943	0.385033
C136	C	0.493640	-0.323943	0.885033
C137	C	-0.005995	-0.545937	0.384582
C138	C	0.494005	-0.045937	0.884582
C139	C	-0.283006	-0.545971	0.383725
C140	C	0.216994	-0.045971	0.883725
N141	N	0.426163	-0.449489	0.481488
N142	N	0.926163	0.050511	0.981488
O143	O	0.588601	-0.457377	0.364497
O144	O	1.088601	0.042623	0.864497
O145	O	0.588789	-0.549696	0.489801
O146	O	1.088789	-0.049696	0.989801
O147	O	0.588709	-0.549485	0.410335
O148	O	1.088709	-0.049485	0.910335
O149	O	0.588681	-0.457588	0.443963
O150	O	1.088681	0.042412	0.943963
O151	O	0.509731	-0.523223	0.436741
O152	O	1.009731	-0.023223	0.936741
O153	O	0.509811	-0.523434	0.516207
O154	O	1.009811	-0.023434	1.016207
O155	O	0.509624	-0.431115	0.390903
O156	O	1.009624	0.068885	0.890903
Zn157	Zn	0.497178	-0.473105	0.457747
Zn158	Zn	0.997178	0.026895	0.957747
Zn159	Zn	0.601234	-0.507706	0.422956
Zn160	Zn	1.101234	-0.007706	0.922956
O161	O	0.509704	-0.431326	0.470368
O162	O	1.009704	0.068674	0.970368
N163	N	0.672250	-0.531322	0.399211
N164	N	1.172250	-0.031322	0.899211
N165	N	0.091303	-0.114798	0.481730
N166	N	0.591303	0.385202	0.981730
O167	O	-0.025603	0.047729	0.473733
O168	O	0.474397	0.547729	0.973733
O169	O	0.099703	0.047764	0.381394
O170	O	0.599703	0.547764	0.881394
O171	O	0.020199	0.047731	0.381655
O172	O	0.520199	0.547731	0.881655
O173	O	0.053901	0.047761	0.473472
O174	O	0.553901	0.547761	0.973472
O175	O	0.046564	-0.031252	0.407974
O176	O	0.546564	0.468748	0.907974
O177	O	0.126068	-0.031219	0.407713
O178	O	0.626068	0.468781	0.907713
O179	O	0.000762	-0.031254	0.500052
O180	O	0.500762	0.468746	1.000052
Zn181	Zn	0.067601	-0.043777	0.458061
Zn182	Zn	0.567601	0.456223	0.958061
Zn183	Zn	0.032864	0.060287	0.423385
Zn184	Zn	0.532864	0.560287	0.923385
O185	O	0.080266	-0.031222	0.499791
O186	O	0.580266	0.468778	0.999791
N187	N	0.009156	0.131307	0.399717
N188	N	0.509156	0.631307	0.899717
N189	N	0.091635	-0.449614	0.816396
N190	N	0.591635	0.050386	1.316396
O191	O	0.083664	-0.566502	0.978913
O192	O	0.583664	-0.066502	1.478913
O193	O	-0.008637	-0.441152	0.978954
O194	O	0.491363	0.058848	1.478954
O195	O	-0.008421	-0.520640	0.978930
O196	O	0.491579	-0.020640	1.478930
O197	O	0.083448	-0.487013	0.978936
O198	O	0.583448	0.012987	1.478936
O199	O	0.017877	-0.494296	0.899950
O200	O	0.517877	0.005704	1.399950
O201	O	0.017661	-0.414807	0.899974
O202	O	0.517661	0.085193	1.399974
O203	O	0.109961	-0.540157	0.899933
O204	O	0.609961	-0.040157	1.399933
Zn205	Zn	0.067986	-0.473299	0.887414
Zn206	Zn	0.567986	0.026701	1.387414
Zn207	Zn	0.033338	-0.508010	0.991473
Zn208	Zn	0.533338	-0.008010	1.491473
O209	O	0.109746	-0.460669	0.899956
O210	O	0.609746	0.039331	1.399956
N211	N	0.009689	-0.531700	1.062491
N212	N	0.509689	-0.031700	1.562491
C213	C	0.030367	-0.412095	0.382120
C214	C	0.530367	0.087905	0.882120
C215	C	0.128741	-0.510370	0.382016
C216	C	0.628741	-0.010370	0.882016
C217	C	0.070168	-0.569147	0.499490
C218	C	0.570168	-0.069147	0.999490
C219	C	-0.028207	-0.470871	0.499595
C220	C	0.471793	0.029129	0.999595
C221	C	0.549323	-0.549278	0.518791
C222	C	1.049323	-0.049278	1.018791
C223	C	0.549225	-0.549017	0.420381
C224	C	1.049225	-0.049017	0.920381
C225	C	0.549087	-0.431532	0.361914
C226	C	1.049087	0.068468	0.861914
C227	C	0.549188	-0.431794	0.460322
C228	C	1.049188	0.068206	0.960322
C229	C	0.128638	0.008374	0.381806
C230	C	0.628638	0.508374	0.881806
C231	C	0.030215	0.008236	0.382161
C232	C	0.530215	0.508236	0.882161
C233	C	-0.028206	0.008233	0.499608
C234	C	0.471794	0.508233	0.999608
C235	C	0.070250	0.008272	0.499285
C236	C	0.570250	0.508272	0.999285
C237	C	-0.008199	-0.412187	0.939469
C238	C	0.491801	0.087813	1.439469
C239	C	-0.007927	-0.510619	0.939425
C240	C	0.492073	-0.010619	1.439425
C241	C	0.109523	-0.569121	0.939417
C242	C	0.609523	-0.069121	1.439417
C243	C	0.109257	-0.470684	0.939444
C244	C	0.609257	0.029316	1.439444
H245	H	0.019274	-0.411508	0.812539
H246	H	0.519274	0.088492	1.312539
C247	C	0.079999	0.008280	0.538256
C248	C	0.579999	0.508280	1.038256
H249	H	0.111445	0.008288	0.526636
H250	H	0.611445	0.508288	1.026636
H251	H	0.058091	0.035820	0.546911
H252	H	0.558091	0.535820	1.046911
H253	H	0.076482	-0.019270	0.565264
H254	H	0.576482	0.480730	1.065264
H255	H	-0.037176	-0.376187	0.939482
H256	H	0.462824	0.123813	1.439482
C257	C	0.549008	-0.392373	0.313303
C258	C	1.049008	0.107627	0.813303
H259	H	0.548986	-0.364797	0.313262
H260	H	1.048986	0.135203	0.813262
H261	H	0.576534	-0.403237	0.289118
H262	H	1.076534	0.096763	0.789118
H263	H	0.521448	-0.384923	0.307542
H264	H	1.021448	0.115077	0.807542
C265	C	0.549239	-0.588019	0.410667
C266	C	1.049239	-0.088019	0.910667
H267	H	0.549288	-0.615668	0.438107
H268	H	1.049288	-0.115668	0.938107
H269	H	0.521680	-0.577069	0.403159
H270	H	1.021680	-0.077069	0.903159
H271	H	0.576766	-0.595388	0.384743
H272	H	1.076766	-0.095388	0.884743
H273	H	0.138503	-0.605120	0.939399
H274	H	0.638503	-0.105120	1.439399
C275	C	0.177149	0.008688	0.342544
C276	C	0.677149	0.508688	0.842544
H277	H	0.197094	0.008763	0.353976
H278	H	0.697094	0.508763	0.853976
H279	H	0.191470	-0.018793	0.333787
H280	H	0.691470	0.481207	0.833787
H281	H	0.172810	0.036296	0.315650
H282	H	0.672810	0.536296	0.815650
C283	C	0.549174	-0.392793	0.470039
C284	C	1.049174	0.107207	0.970039
H285	H	0.549210	-0.404402	0.501477
H286	H	1.049210	0.095598	1.001477
H287	H	0.576689	-0.384117	0.448112
H288	H	1.076689	0.115883	0.948112
H289	H	0.521604	-0.365801	0.466532
H290	H	1.021604	0.134199	0.966532
H291	H	0.164745	-0.517463	0.353068
H292	H	0.664745	-0.017463	0.853068
H293	H	0.019013	-0.411451	0.519888
H294	H	0.519013	0.088549	1.019888
C295	C	-0.076845	-0.461299	0.538702
C296	C	0.423155	0.038701	1.038702
H297	H	-0.076917	-0.488795	0.566295
H298	H	0.423083	0.011205	1.066295
H299	H	-0.082622	-0.435410	0.546131
H300	H	0.417378	0.064590	1.046131
H301	H	-0.101003	-0.453794	0.527805
H302	H	0.398997	0.046206	1.027805
H303	H	0.022995	0.008233	0.353314
H304	H	0.522995	0.508233	0.853314
H305	H	0.549371	-0.578259	0.554780
H306	H	1.049371	-0.078259	1.054780
C307	C	-0.076817	0.008220	0.538771
C308	C	0.423183	0.508220	1.038771
H309	H	-0.076840	0.008222	0.566330
H310	H	0.423160	0.508222	1.066330
H311	H	-0.100994	0.035756	0.527897
H312	H	0.399006	0.535756	1.027897
H313	H	-0.082603	-0.019334	0.546253
H314	H	0.417397	0.480666	1.046253
H315	H	-0.036776	-0.517804	0.939391
H316	H	0.463224	-0.017804	1.439391
H317	H	0.138119	-0.463487	0.939440
H318	H	0.638119	0.036513	1.439440
C319	C	0.061617	-0.772542	0.335517
C320	C	0.561617	-0.272542	0.835517
H321	H	0.066887	-0.805706	0.348778
H322	H	0.566887	-0.305706	0.848778
H323	H	0.078990	-0.764417	0.302468
H324	H	0.578990	-0.264417	0.802468
H325	H	0.071875	-0.764408	0.350581
H326	H	0.571875	-0.264408	0.850581
H327	H	0.049253	-0.381417	0.722357
H328	H	0.549253	0.118583	1.222357
C329	C	0.175850	-0.493263	0.819520
C330	C	0.675850	0.006737	1.319520
H331	H	0.207320	-0.498024	0.797576
H332	H	0.707320	0.001976	1.297576
H333	H	0.171072	-0.478067	0.838902
H334	H	0.671072	0.021933	1.338902
H335	H	0.171110	-0.523075	0.838921
H336	H	0.671110	-0.023075	1.338921
H337	H	0.196592	-0.455039	0.722237
H338	H	0.696592	0.044961	1.222237
C339	C	0.079837	-0.617823	0.538535
C340	C	0.579837	-0.117823	1.038535
H341	H	0.052376	-0.617955	0.566160
H342	H	0.552376	-0.117955	1.066160
H343	H	0.087357	-0.641961	0.527607
H344	H	0.587357	-0.141961	1.027607
H345	H	0.105740	-0.623579	0.545932
H346	H	0.605740	-0.123579	1.045932
H347	H	0.166284	-0.485062	0.446169
H348	H	0.666284	0.014938	0.946169
C349	C	0.039878	-0.373227	0.558104
C350	C	0.539878	0.126773	1.058104
H351	H	0.056755	-0.365078	0.566244
H352	H	0.556755	0.134922	1.066244
H353	H	0.020463	-0.345116	0.541256
H354	H	0.520463	0.154884	1.041256
H355	H	0.020505	-0.390104	0.586224
H356	H	0.520505	0.109896	1.086224
C357	C	0.210335	-0.458414	0.472761
C358	C	0.710335	0.041586	0.972761
H359	H	0.215589	-0.444449	0.486715
H360	H	0.715589	0.055551	0.986715
H361	H	0.224317	-0.491958	0.484179
H362	H	0.724317	0.008042	0.984179
H363	H	0.224269	-0.446966	0.439214
H364	H	0.724269	0.053034	0.939214
C365	C	0.324996	-0.500245	0.547497
C366	C	0.824996	-0.000245	1.047497
H367	H	0.346930	-0.531500	0.549305
H368	H	0.846930	-0.031500	1.049305
H369	H	0.305623	-0.498985	0.578648
H370	H	0.805623	0.001015	1.078648
H371	H	0.305585	-0.491929	0.530570
H372	H	0.805585	0.008071	1.030570
H373	H	0.422274	-0.521162	0.510626
H374	H	0.922274	-0.021162	1.010626
H375	H	0.422223	-0.375220	0.454977
H376	H	0.922223	0.124780	0.954977
H377	H	0.332037	-0.345175	0.485091
H378	H	0.832037	0.154825	0.985091
H379	H	0.129365	-0.118686	0.409385
H380	H	0.629365	0.381314	0.909385
C381	C	0.167635	-0.215979	0.430183
C382	C	0.667635	0.284021	0.930183
H383	H	0.175811	-0.249151	0.447041
H384	H	0.675811	0.250849	0.947041
H385	H	0.150747	-0.207833	0.410808
H386	H	0.650747	0.292167	0.910808
H387	H	0.195736	-0.207820	0.410771
H388	H	0.695736	0.292180	0.910771
C389	C	0.047678	-0.111633	0.565926
C390	C	0.547678	0.388367	1.065926
H391	H	0.042929	-0.133566	0.597404
H392	H	0.542929	0.366434	1.097404
H393	H	0.062853	-0.092230	0.561136
H394	H	0.562853	0.407770	1.061136
H395	H	0.017864	-0.092248	0.561175
H396	H	0.517864	0.407752	1.061175
H397	H	-0.061683	-0.492436	0.165791
H398	H	0.438317	0.007564	0.665791
C399	C	0.082544	-0.216031	0.600685
C400	C	0.582544	0.283969	1.100685
H401	H	0.063163	-0.194113	0.617561
H402	H	0.563163	0.305887	1.117561
H403	H	0.065686	-0.235441	0.608862
H404	H	0.565686	0.264559	1.108862
H405	H	0.110680	-0.235410	0.608799
H406	H	0.610680	0.264590	1.108799
H407	H	-0.091873	-0.522445	0.255974
H408	H	0.408127	-0.022445	0.755974
H409	H	0.011902	-0.639768	0.165877
H410	H	0.511902	-0.139768	0.665877
H411	H	-0.018458	-0.669769	0.372051
H412	H	0.481542	-0.169769	0.872051
C413	C	-0.014866	-0.683742	0.263172
C414	C	0.485134	-0.183742	0.763172
H415	H	0.004546	-0.700626	0.241261
H416	H	0.504546	-0.200626	0.741261
H417	H	0.001963	-0.691911	0.282613
H418	H	0.501963	-0.191911	0.782613
H419	H	-0.042996	-0.691856	0.282520
H420	H	0.457004	-0.191856	0.782520
H421	H	-0.091926	-0.522444	0.298262
H422	H	0.408074	-0.022444	0.798262
H423	H	-0.061921	-0.492427	0.328433
H424	H	0.438079	0.007573	0.828433
H425	H	0.011557	-0.639751	0.402207
H426	H	0.511557	-0.139751	0.902207
C427	C	0.026895	-0.668139	0.300673
C428	C	0.526895	-0.168139	0.800673
H429	H	0.058139	-0.690090	0.298899
H430	H	0.558139	-0.190090	0.798899
H431	H	0.025674	-0.648751	0.269511
H432	H	0.525674	-0.148751	0.769511
H433	H	0.018559	-0.648743	0.317623
H434	H	0.518559	-0.148743	0.817623
H435	H	-0.128170	-0.675084	0.362831
H436	H	0.371830	-0.175084	0.862831
C437	C	-0.107300	-0.772366	0.399671
C438	C	0.392700	-0.272366	0.899671
H439	H	-0.090507	-0.805541	0.408552
H440	H	0.409493	-0.305541	0.908552
H441	H	-0.130085	-0.764195	0.427282
H442	H	0.369915	-0.264195	0.927282
H443	H	-0.122985	-0.764210	0.379178
H444	H	0.377015	-0.264210	0.879178
C445	C	-0.127259	-0.640995	0.417932
C446	C	0.372741	-0.140995	0.917932
H447	H	-0.149221	-0.645740	0.449394
H448	H	0.350779	-0.145740	0.949394
H449	H	-0.107873	-0.670805	0.413179
H450	H	0.392127	-0.170805	0.913179
H451	H	-0.107866	-0.625837	0.413194
H452	H	0.392134	-0.125837	0.913194
H453	H	-0.224299	-0.529059	0.291228
H454	H	0.275701	-0.029059	0.791228
C455	C	-0.231656	-0.606085	0.452565
C456	C	0.268344	-0.106085	0.952565
H457	H	-0.264814	-0.592085	0.457750
H458	H	0.235186	-0.092085	0.957750
H459	H	-0.223541	-0.639625	0.466543
H460	H	0.276459	-0.139625	0.966543
H461	H	-0.223531	-0.594659	0.466558
H462	H	0.276469	-0.094659	0.966558
C463	C	-0.126989	-0.555796	0.247349
C464	C	0.373011	-0.055796	0.747349
H465	H	-0.148873	-0.536387	0.230432
H466	H	0.351127	-0.036387	0.730432
H467	H	-0.107586	-0.538959	0.239235
H468	H	0.392414	-0.038959	0.739235
H469	H	-0.107600	-0.583924	0.239220
H470	H	0.392400	-0.083924	0.739220
H471	H	0.023205	-0.376060	0.353221
H472	H	0.523205	0.123940	0.853221
