data_functionalizedCrystal
_audit_creation_method	'MofGen! by Chris Wilmer'
_symmetry_space_group_name_H-M	'P1'
_symmetry_Int_Tables_number	1
_symmetry_cell_setting	triclinic
loop_
_symmetry_equiv_pos_as_xyz
  x,y,z
_cell_length_a	19.188933
_cell_length_b	19.188930
_cell_length_c	10.868271
_cell_angle_alpha	89.989749
_cell_angle_beta	89.997098
_cell_angle_gamma	83.145175
loop_
_atom_site_label
_atom_site_type_symbol
_atom_site_fract_x
_atom_site_fract_y
_atom_site_fract_z
O1	O	0.926144	0.087174	-0.102295
O2	O	1.426144	0.587174	0.397705
O3	O	0.722833	0.098907	-0.102308
O4	O	1.222833	0.598907	0.397692
O5	O	0.830355	-0.008615	-0.102277
O6	O	1.330355	0.491385	0.397723
O7	O	0.818621	0.194696	-0.102326
O8	O	1.318621	0.694696	0.397674
O9	O	0.830346	-0.008619	0.102367
O10	O	1.330346	0.491381	0.602367
O11	O	0.722824	0.098903	0.102336
O12	O	1.222824	0.598903	0.602336
O13	O	0.926135	0.087170	0.102350
O14	O	1.426135	0.587170	0.602350
Zn15	Zn	0.824478	0.093036	0.134835
Zn16	Zn	1.324478	0.593036	0.634835
Zn17	Zn	0.824490	0.093042	-0.134793
Zn18	Zn	1.324490	0.593042	0.365207
O19	O	0.818612	0.194692	0.102319
O20	O	1.318612	0.694692	0.602319
C21	C	0.696817	0.098525	0.000013
C22	C	1.196817	0.598525	0.500013
C23	C	0.619313	0.097384	0.000009
C24	C	1.119313	0.597384	0.500009
C25	C	0.066062	0.089241	-0.111528
C26	C	0.566062	0.589241	0.388472
C27	C	0.138886	0.090309	-0.111533
C28	C	0.638886	0.590309	0.388467
C29	C	0.175299	0.090844	0.000018
C30	C	0.675299	0.590844	0.500018
C31	C	0.138883	0.090293	0.111583
C32	C	0.638883	0.590293	0.611583
C33	C	0.066061	0.089218	0.111585
C34	C	0.566061	0.589218	0.611585
N35	N	0.284315	0.132261	0.083041
N36	N	0.784315	0.632261	0.583041
N37	N	0.353493	0.133284	0.083032
N38	N	0.853493	0.633284	0.583032
C39	C	0.394707	0.094082	0.000020
C40	C	0.894707	0.594082	0.500020
N41	N	0.364130	0.053827	-0.083002
N42	N	0.864130	0.553827	0.416998
N43	N	0.294945	0.052808	-0.082996
N44	N	0.794945	0.552808	0.417004
C45	C	0.254262	0.092009	0.000029
C46	C	0.754262	0.592009	0.500029
C47	C	0.510079	0.095786	-0.111543
C48	C	1.010079	0.595786	0.388457
C49	C	0.582905	0.096850	-0.111544
C50	C	1.082905	0.596850	0.388456
C51	C	0.582900	0.096841	0.111575
C52	C	1.082900	0.596841	0.611575
C53	C	0.510076	0.095770	0.111572
C54	C	1.010076	0.595770	0.611572
C55	C	0.473669	0.095246	0.000010
C56	C	0.973669	0.595246	0.500010
C57	C	0.829971	-0.034628	0.000049
C58	C	1.329971	0.465372	0.500049
C59	C	0.828830	-0.112132	0.000059
C60	C	1.328830	0.387868	0.500059
C61	C	0.891921	-0.157056	0.000069
C62	C	1.391921	0.342944	0.500069
C63	C	0.890849	-0.229880	0.000049
C64	C	1.390849	0.270120	0.500049
C65	C	0.826683	-0.257777	0.000044
C66	C	1.326683	0.242223	0.500044
C67	C	0.763584	-0.212843	0.000027
C68	C	1.263584	0.287157	0.500027
C69	C	0.764658	-0.140021	0.000035
C70	C	1.264658	0.359979	0.500035
N71	N	0.777633	-0.365783	0.069686
N72	N	1.277633	0.134217	0.569686
N73	N	0.776618	-0.434962	0.069681
N74	N	1.276618	0.065038	0.569681
C75	C	0.823445	-0.477185	0.000019
C76	C	1.323445	0.022815	0.500019
N77	N	0.871337	-0.447618	-0.069623
N78	N	1.371337	0.052382	0.430377
N79	N	0.872355	-0.378433	-0.069613
N80	N	1.372355	0.121567	0.430387
C81	C	0.825512	-0.336739	0.000035
C82	C	1.325512	0.163261	0.500035
C83	C	0.885378	-0.601073	0.000006
C84	C	1.385378	-0.101073	0.500006
C85	C	0.884304	-0.673898	-0.000021
C86	C	1.384304	-0.173898	0.499979
C87	C	0.757037	-0.656860	-0.000031
C88	C	1.257037	-0.156860	0.499969
C89	C	0.758113	-0.584037	-0.000016
C90	C	1.258113	-0.084037	0.499984
C91	C	0.822286	-0.556148	0.000008
C92	C	1.322286	-0.056148	0.500008
C93	C	0.952150	0.087553	0.000026
C94	C	1.452150	0.587553	0.500026
C95	C	1.029655	0.088694	0.000022
C96	C	1.529655	0.588694	0.500022
C97	C	0.818997	0.220705	-0.000010
C98	C	1.318997	0.720705	0.499990
C99	C	0.820137	0.298210	-0.000029
C100	C	1.320137	0.798210	0.499971
N101	N	0.824475	0.093032	0.318849
N102	N	1.324475	0.593032	0.818849
N103	N	0.824498	0.093040	-0.318807
N104	N	1.324498	0.593040	0.181193
C105	C	0.824486	0.093040	0.569855
C106	C	1.324486	0.593040	1.069855
C107	C	0.824478	0.093038	0.430177
C108	C	1.324478	0.593038	0.930177
H109	H	0.612548	0.097290	-0.202385
H110	H	1.112548	0.597290	0.297615
N111	N	0.470806	0.095218	-0.231863
N112	N	0.970806	0.595218	0.268137
H113	H	0.504924	0.095722	-0.302534
H114	H	1.004924	0.595722	0.197466
H115	H	0.446382	0.051502	-0.236714
H116	H	0.946382	0.551502	0.263286
N117	N	0.954588	-0.570986	0.000030
N118	N	1.454588	-0.070986	0.500030
H119	H	0.982226	-0.587366	-0.075832
H120	H	1.482226	-0.087366	0.424168
H121	H	0.945633	-0.518041	0.000092
H122	H	1.445633	-0.018041	0.500092
H123	H	0.168535	0.090758	-0.202373
H124	H	0.668535	0.590758	0.297627
H125	H	0.706738	-0.547459	-0.000017
H126	H	1.206738	-0.047459	0.499983
H127	H	0.036418	0.088775	0.202425
H128	H	0.536418	0.588775	0.702425
N129	N	0.622163	0.097410	0.231895
N130	N	1.122163	0.597410	0.731895
H131	H	0.673821	0.098172	0.214969
H132	H	1.173821	0.598172	0.714969
H133	H	0.603642	0.140493	0.280605
H134	H	1.103642	0.640493	0.780605
H135	H	0.480432	0.095327	0.202409
H136	H	0.980432	0.595327	0.702409
H137	H	0.713280	-0.103444	0.000027
H138	H	1.213280	0.396556	0.500027
H139	H	0.944175	-0.134354	0.000085
H140	H	1.444175	0.365646	0.500085
N141	N	0.952354	-0.722358	-0.000010
N142	N	1.452354	-0.222358	0.499990
H143	H	0.980369	-0.713397	-0.075859
H144	H	1.480369	-0.213397	0.424141
H145	H	0.980294	-0.713397	0.075914
H146	H	1.480294	-0.213397	0.575914
H147	H	0.036425	0.088811	-0.202371
H148	H	0.536425	0.588811	0.297629
N149	N	0.687827	-0.686938	-0.000050
N150	N	1.187827	-0.186938	0.499950
H151	H	0.696720	-0.739888	-0.000058
H152	H	1.196720	-0.239888	0.499942
H153	H	0.660223	-0.670501	0.075812
H154	H	1.160223	-0.170501	0.575812
H155	H	0.168535	0.090727	0.202409
H156	H	0.668535	0.590727	0.702409
N157	N	0.958899	-0.278345	0.000058
N158	N	1.458899	0.221655	0.500058
H159	H	0.999714	-0.249627	0.000072
H160	H	1.499714	0.250373	0.500072
H161	H	0.961216	-0.308938	0.075921
H162	H	1.461216	0.191062	0.575921
H163	H	0.711340	-0.235562	0.000020
H164	H	1.211340	0.264438	0.500020
