data_functionalizedCrystal
_audit_creation_method	'MofGen! by Chris Wilmer'
_symmetry_space_group_name_H-M	'P1'
_symmetry_Int_Tables_number	1
_symmetry_cell_setting	triclinic
loop_
_symmetry_equiv_pos_as_xyz
  x,y,z
_cell_length_a	14.519710
_cell_length_b	16.992695
_cell_length_c	16.053802
_cell_angle_alpha	87.258926
_cell_angle_beta	87.414957
_cell_angle_gamma	92.825816
loop_
_atom_site_label
_atom_site_type_symbol
_atom_site_fract_x
_atom_site_fract_y
_atom_site_fract_z
O1	O	1.234891	-0.099500	-0.069412
O2	O	0.967283	-0.111605	-0.069418
O3	O	1.100014	0.008592	-0.069408
O4	O	1.102160	-0.219696	-0.069421
O5	O	1.092706	0.002003	0.069450
O6	O	0.959975	-0.118193	0.069441
O7	O	1.227583	-0.106088	0.069447
Zn8	Zn	1.092619	-0.113187	0.091491
Zn9	Zn	1.102247	-0.104506	-0.091461
O10	O	1.094852	-0.226285	0.069437
C11	C	0.929229	-0.114335	0.000011
C12	C	0.826726	-0.112644	0.000009
C13	C	1.265637	-0.103358	0.000016
C14	C	1.368140	-0.105048	0.000013
C15	C	1.093600	0.034514	0.000021
C16	C	1.085364	0.121570	0.000021
C17	C	1.743483	-0.111272	0.000012
C18	C	1.639051	-0.109544	0.000012
C19	C	1.555815	-0.108160	0.000012
C20	C	1.451376	-0.106432	0.000013
C21	C	1.101266	-0.252207	0.000006
C22	C	1.109502	-0.339262	0.000001
N23	N	1.086054	-0.119111	0.216350
C24	C	1.164824	0.171698	0.000023
C25	C	1.157081	0.253496	0.000015
C26	C	1.069877	0.285163	0.000010
C27	C	0.990412	0.235028	0.000005
C28	C	0.998156	0.153232	0.000007
C29	C	1.037781	0.528807	-0.000002
C30	C	1.030042	0.610609	-0.000001
C31	C	1.196713	0.629072	0.000007
C32	C	1.204449	0.547273	0.000014
C33	C	1.124984	0.497145	0.000004
N34	N	1.061960	0.368774	0.000005
N35	N	1.132902	0.413537	0.000004
N36	N	1.108819	-0.098576	-0.216321
C37	C	1.142555	-0.067985	0.260048
C38	C	1.137972	-0.072137	0.347455
C39	C	1.076893	-0.127418	0.391162
C40	C	1.020386	-0.178546	0.347458
C41	C	1.024965	-0.174390	0.260053
C42	C	1.056891	-0.145548	0.652570
C43	C	1.052318	-0.149701	0.739981
C44	C	1.169903	-0.043291	0.739972
C45	C	1.174481	-0.039143	0.652565
C46	C	1.117970	-0.090268	0.608869
N47	N	1.072209	-0.131664	0.480505
N48	N	1.122650	-0.086018	0.519527
H49	H	1.235835	0.145922	0.000032
F50	F	1.241654	0.306844	0.000019
H51	H	1.192296	-0.022973	0.224468
F52	F	0.964826	-0.228803	0.213547
H53	H	1.010879	-0.187177	0.616999
H54	H	1.261409	0.669894	0.000013
F55	F	0.937223	0.644309	-0.000002
H56	H	1.224216	0.005871	0.616981
H57	H	1.183978	-0.030506	0.383033
H58	H	1.215910	-0.001667	0.775558
F59	F	0.955375	-0.237377	0.393974
F60	F	0.987306	-0.208544	0.786491
H61	H	1.275460	0.521496	0.000018
H62	H	0.973074	0.488002	-0.000009
H63	H	0.919408	0.260818	-0.000004
H64	H	0.933451	0.112417	0.000005
