data_functionalizedCrystal
_audit_creation_method	'MofGen! by Chris Wilmer'
_symmetry_space_group_name_H-M	'P1'
_symmetry_Int_Tables_number	1
_symmetry_cell_setting	triclinic
loop_
_symmetry_equiv_pos_as_xyz
  x,y,z
_cell_length_a	19.188930
_cell_length_b	12.837942
_cell_length_c	11.892095
_cell_angle_alpha	85.697431
_cell_angle_beta	93.899644
_cell_angle_gamma	88.986860
loop_
_atom_site_label
_atom_site_type_symbol
_atom_site_fract_x
_atom_site_fract_y
_atom_site_fract_z
O1	O	-0.939057	-0.122707	-0.094371
O2	O	-0.736937	-0.140129	-0.094294
O3	O	-0.833514	0.019464	-0.094324
O4	O	-0.842479	-0.282300	-0.094341
O5	O	-0.825461	0.006178	0.093686
O6	O	-0.728883	-0.153415	0.093716
O7	O	-0.931003	-0.135993	0.093639
Zn8	Zn	-0.828664	-0.146814	0.123528
Zn9	Zn	-0.839275	-0.129309	-0.124183
O10	O	-0.834425	-0.295586	0.093669
C11	C	-0.706859	-0.146209	-0.000279
C12	C	-0.629238	-0.144518	-0.000249
C13	C	-0.826460	0.051427	-0.000319
C14	C	-0.817429	0.166463	-0.000317
C15	C	-0.961080	-0.129913	-0.000379
C16	C	-1.038702	-0.131604	-0.000416
C17	C	-0.590737	-0.238159	-0.000273
C18	C	-0.517805	-0.236568	-0.000285
C19	C	-0.483377	-0.141328	-0.000297
C20	C	-0.521886	-0.047675	-0.000267
C21	C	-0.594816	-0.049270	-0.000244
N22	N	-0.373146	-0.064005	-0.064326
N23	N	-0.303865	-0.062496	-0.064351
C24	C	-0.263641	-0.136517	-0.000366
N25	N	-0.295316	-0.212118	0.063631
N26	N	-0.364603	-0.213630	0.063651
C27	C	-0.404296	-0.139588	-0.000322
C28	C	-0.146059	-0.228439	-0.000401
C29	C	-0.073126	-0.226844	-0.000406
C30	C	-0.077208	-0.037948	-0.000400
C31	C	-0.150140	-0.039547	-0.000383
C32	C	-0.184561	-0.134794	-0.000389
C33	C	-0.841480	-0.327550	-0.000339
C34	C	-0.850511	-0.442585	-0.000348
N35	N	-0.821427	-0.158760	0.292584
C36	C	-0.925999	0.407919	-0.000382
C37	C	-0.917517	0.516006	-0.000381
C38	C	-0.791983	0.490728	-0.000321
C39	C	-0.800465	0.382641	-0.000322
C40	C	-0.867475	0.341240	-0.000351
C41	C	-0.875956	0.233150	-0.000344
C42	C	-0.750424	0.207875	-0.000293
C43	C	-0.741941	0.315962	-0.000292
N44	N	-0.846517	-0.117354	-0.293240
C45	C	-0.896871	-0.034169	0.529209
C46	C	-0.891818	-0.042527	0.647552
C47	C	-0.806265	-0.183827	0.647617
C48	C	-0.811318	-0.175470	0.529273
C49	C	-0.856623	-0.100639	0.470073
C50	C	-0.861679	-0.092287	0.351728
C51	C	-0.776123	-0.233582	0.351794
C52	C	-0.771070	-0.241940	0.470138
H53	H	-0.486452	-0.312824	-0.000301
C54	C	-0.686045	0.134527	-0.000268
H55	H	-0.700692	0.064224	-0.000281
H56	H	-0.656056	0.142419	0.065304
H57	H	-0.661677	0.151679	-0.065831
H58	H	-0.493850	0.029871	-0.000293
C59	C	-0.628597	-0.342928	-0.000258
H60	H	-0.595217	-0.398471	-0.000262
H61	H	-0.659792	-0.342851	-0.065807
H62	H	-0.654131	-0.352107	0.065327
H63	H	-0.626163	0.026986	-0.000225
C64	C	-0.721242	-0.324251	0.535264
H65	H	-0.724000	-0.319714	0.614215
H66	H	-0.674736	-0.311812	0.515904
H67	H	-0.734262	-0.392017	0.515860
C68	C	-0.183929	-0.333203	-0.000393
H69	H	-0.232879	-0.320741	-0.000391
H70	H	-0.168315	-0.376380	0.065166
H71	H	-0.173962	-0.367113	-0.065969
C72	C	-0.999704	0.362373	-0.000405
H73	H	-1.033345	0.417567	-0.000425
H74	H	-1.002812	0.316103	0.065157
H75	H	-1.008432	0.325366	-0.065978
H76	H	-0.898571	-0.031359	0.303528
C77	C	-0.936089	0.030587	0.712603
H78	H	-0.926588	0.014900	0.791563
H79	H	-0.984251	0.020884	0.693173
H80	H	-0.924727	0.101094	0.693216
C81	C	-0.030775	-0.329855	-0.000432
H82	H	-0.061724	-0.386804	-0.000442
H83	H	0.000585	-0.337800	0.065123
H84	H	-0.005066	-0.328517	-0.066012
H85	H	-0.049180	0.039603	-0.000479
C86	C	-0.192493	0.063461	-0.000375
H87	H	-0.161546	0.120412	-0.000393
H88	H	-0.218204	0.062135	0.065195
H89	H	-0.223852	0.071395	-0.065940
H90	H	-0.930519	0.199444	-0.000364
H91	H	-0.965174	0.570293	-0.000409
C92	C	-0.718280	0.536282	-0.000290
H93	H	-0.721614	0.610204	-0.000289
H94	H	-0.696684	0.518004	-0.065838
H95	H	-0.691075	0.508752	0.065296
H96	H	-0.687384	0.349686	-0.000272
H97	H	-0.769374	-0.244746	0.695833
H98	H	-0.933765	0.026754	0.481007
H99	H	-0.743353	-0.287710	0.303633
