data_functionalizedCrystal
_audit_creation_method	'MofGen! by Chris Wilmer'
_symmetry_space_group_name_H-M	'P1'
_symmetry_Int_Tables_number	1
_symmetry_cell_setting	triclinic
loop_
_symmetry_equiv_pos_as_xyz
  x,y,z
_cell_length_a	10.685980
_cell_length_b	12.645330
_cell_length_c	10.686551
_cell_angle_alpha	85.593389
_cell_angle_beta	81.591741
_cell_angle_gamma	94.379365
loop_
_atom_site_label
_atom_site_type_symbol
_atom_site_fract_x
_atom_site_fract_y
_atom_site_fract_z
Zn1	Zn	1.995799	-0.237609	-0.866702
Zn2	Zn	1.979386	-0.429655	-0.654437
Zn3	Zn	1.767228	-0.267114	-0.638166
Zn4	Zn	1.783509	-0.429552	-0.850347
O5	O	1.881481	-0.340982	-0.752413
O6	O	2.171255	-0.250779	-0.852198
O7	O	1.937559	-0.420485	-0.474646
O8	O	1.797603	-0.114847	-0.668517
O9	O	2.159196	-0.391875	-0.696248
O10	O	1.965534	-0.093170	-0.836421
O11	O	1.781688	-0.301066	-0.462692
O12	O	1.591755	-0.300966	-0.652659
O13	O	1.825353	-0.391699	-1.030149
O14	O	1.603717	-0.420309	-0.808547
O15	O	1.981322	-0.250679	-1.042165
O16	O	1.953347	-0.577995	-0.680390
O17	O	1.809438	-0.577919	-0.824324
C18	C	1.551677	-0.363829	-0.727063
C19	C	1.410589	-0.373626	-0.716249
C20	C	1.881415	-0.616419	-0.752378
C21	C	1.881506	-0.734240	-0.752415
C22	C	1.971867	-0.901833	-0.661654
C23	C	1.972204	-0.779234	-0.661919
C24	C	1.928056	-0.766809	-0.889001
C25	C	1.928793	-0.889390	-0.888539
C26	C	1.744657	-0.913250	-0.707905
C27	C	1.745070	-0.790810	-0.704953
C28	C	2.212571	-0.318047	-0.777863
C29	C	2.353663	-0.308274	-0.788708
C30	C	1.906984	-0.317887	-1.083503
C31	C	1.917853	-0.308045	-1.224593
C32	C	1.881583	-0.064466	-0.752479
C33	C	1.881627	0.053368	-0.752506
C34	C	1.856149	-0.363907	-0.422617
C35	C	1.845526	-0.373433	-0.281546
H36	H	1.351381	-0.437077	-0.645929
H37	H	2.027409	-0.727238	-0.925982
N38	N	1.660129	-0.949720	-0.790741
N39	N	1.604231	-0.884322	-0.851067
H40	H	1.544540	-0.910080	-0.909574
H41	H	1.412863	-0.244821	-0.859014
H42	H	1.941889	-0.757699	-0.560966
H43	H	1.704307	-0.953209	-0.609504
N44	N	1.701279	-0.765375	-0.578802
N45	N	1.690347	-0.670581	-0.556804
H46	H	1.659425	-0.652609	-0.467709
N47	N	1.757393	-0.453108	-1.207335
N48	N	1.689388	-0.514582	-1.260813
H49	H	1.627140	-0.570853	-1.208395
N50	N	2.005957	-0.228362	-1.298849
N51	N	1.966952	-0.158802	-1.369436
H52	H	2.029173	-0.102526	-1.421881
N53	N	1.934167	-0.949545	-0.534677
N54	N	1.840356	-1.017128	-0.509654
H55	H	1.813727	-1.050833	-0.419973
N56	N	2.054763	-0.914116	-0.934426
N57	N	2.075196	-0.963110	-1.031569
H58	H	2.164165	-0.980570	-1.063976
N59	N	1.655105	-0.753304	-0.780817
N60	N	1.561443	-0.709870	-0.730722
H61	H	1.497907	-0.683381	-0.784309
N62	N	2.098173	-0.929827	-0.699324
N63	N	2.122018	-0.982628	-0.792790
H64	H	2.211222	-1.002401	-0.819399
H65	H	1.866507	-0.918511	-0.959120
N66	N	2.099213	-0.731712	-0.699930
N67	N	2.184313	-0.754632	-0.636401
H68	H	2.274022	-0.721074	-0.663246
N69	N	1.848662	-0.729694	-0.976740
N70	N	1.756667	-0.678701	-0.939494
H71	H	1.700591	-0.652487	-1.001456
