data_functionalizedCrystal
_audit_creation_method	'MofGen! by Chris Wilmer'
_symmetry_space_group_name_H-M	'P1'
_symmetry_Int_Tables_number	1
_symmetry_cell_setting	triclinic
loop_
_symmetry_equiv_pos_as_xyz
  x,y,z
_cell_length_a	21.395362
_cell_length_b	19.805405
_cell_length_c	21.395355
_cell_angle_alpha	89.980090
_cell_angle_beta	89.956060
_cell_angle_gamma	90.042288
loop_
_atom_site_label
_atom_site_type_symbol
_atom_site_fract_x
_atom_site_fract_y
_atom_site_fract_z
Zn1	Zn	0.957878	-0.269255	-0.354580
Zn2	Zn	1.291212	0.064079	-0.021246
Zn3	Zn	1.624545	0.397412	0.312087
Zn4	Zn	0.957789	-0.382425	-0.249800
Zn5	Zn	1.291122	-0.049091	0.083534
Zn6	Zn	1.624455	0.284242	0.416867
Zn7	Zn	0.853093	-0.269286	-0.249781
Zn8	Zn	1.186426	0.064047	0.083553
Zn9	Zn	1.519760	0.397380	0.416886
Zn10	Zn	0.853070	-0.382438	-0.354504
Zn11	Zn	1.186403	-0.049105	-0.021171
Zn12	Zn	1.519737	0.284228	0.312162
O13	O	0.905458	-0.325851	-0.302166
O14	O	1.238791	0.007482	0.031167
O15	O	1.572124	0.340816	0.364501
O16	O	1.045544	-0.284248	-0.340720
O17	O	1.378878	0.049085	-0.007386
O18	O	1.712211	0.382419	0.325947
O19	O	0.943873	-0.367424	-0.162119
O20	O	1.277206	-0.034091	0.171214
O21	O	1.610539	0.299243	0.504548
O22	O	0.867040	-0.174565	-0.263706
O23	O	1.200374	0.158768	0.069627
O24	O	1.533707	0.492101	0.402960
O25	O	1.045478	-0.367393	-0.263738
O26	O	1.378812	-0.034060	0.069595
O27	O	1.712145	0.299273	0.402929
O28	O	0.944025	-0.174542	-0.340701
O29	O	1.277359	0.158791	-0.007368
O30	O	1.610692	0.492124	0.325965
O31	O	0.866953	-0.284302	-0.162105
O32	O	1.200287	0.049032	0.171228
O33	O	1.533620	0.382365	0.504561
O34	O	0.765412	-0.284315	-0.263633
O35	O	1.098746	0.049018	0.069700
O36	O	1.432079	0.382352	0.403033
O37	O	0.867001	-0.367417	-0.442192
O38	O	1.200334	-0.034084	-0.108859
O39	O	1.533668	0.299250	0.224475
O40	O	0.765395	-0.367448	-0.340573
O41	O	1.098729	-0.034114	-0.007240
O42	O	1.432062	0.299219	0.326094
O43	O	0.944003	-0.284261	-0.442247
O44	O	1.277336	0.049072	-0.108914
O45	O	1.610670	0.382405	0.224419
O46	O	0.943850	-0.477143	-0.263665
O47	O	1.277184	-0.143810	0.069668
O48	O	1.610517	0.189524	0.403002
O49	O	0.866914	-0.477153	-0.340591
O50	O	1.200247	-0.143820	-0.007258
O51	O	1.533581	0.189513	0.326075
C52	C	0.742670	-0.325887	-0.302093
C53	C	1.076003	0.007447	0.031240
C54	C	1.409336	0.340780	0.364573
C55	C	0.673029	-0.325918	-0.302077
C56	C	1.006362	0.007415	0.031256
C57	C	1.339695	0.340748	0.364590
C58	C	0.640323	-0.369263	-0.342080
C59	C	0.973656	-0.035930	-0.008746
C60	C	1.306990	0.297404	0.324587
C61	C	0.574888	-0.369246	-0.342108
C62	C	0.908221	-0.035913	-0.008774
C63	C	1.241554	0.297420	0.324559
C64	C	0.542160	-0.325892	-0.302122
C65	C	0.875494	0.007441	0.031212
C66	C	1.208827	0.340774	0.364545
C67	C	0.574874	-0.282539	-0.262116
C68	C	0.908207	0.050794	0.071217
C69	C	1.241540	0.384127	0.404550
C70	C	0.640308	-0.282553	-0.262094
C71	C	0.973641	0.050781	0.071239
C72	C	1.306974	0.384114	0.404573
C73	C	0.438435	-0.320440	-0.245717
C74	C	0.771768	0.012894	0.087617
C75	C	1.105102	0.346227	0.420950
C76	C	0.373002	-0.320431	-0.245738
C77	C	0.706336	0.012902	0.087595
C78	C	1.039669	0.346235	0.420929
C79	C	0.340340	-0.325848	-0.302191
C80	C	0.673673	0.007485	0.031142
C81	C	1.007006	0.340818	0.364476
C82	C	0.373118	-0.331287	-0.358624
C83	C	0.706451	0.002046	-0.025291
C84	C	1.039785	0.335379	0.308042
C85	C	0.438552	-0.331301	-0.358602
C86	C	0.771885	0.002033	-0.025269
C87	C	1.105219	0.335366	0.308065
C88	C	0.471208	-0.325873	-0.302142
C89	C	0.804541	0.007460	0.031192
C90	C	1.137875	0.340794	0.364525
C91	C	0.236682	-0.369177	-0.342227
C92	C	0.570015	-0.035844	-0.008894
C93	C	0.903348	0.297490	0.324440
C94	C	0.171245	-0.369156	-0.342256
C95	C	0.504578	-0.035822	-0.008923
C96	C	0.837912	0.297511	0.324411
C97	C	0.171232	-0.282452	-0.262259
C98	C	0.504566	0.050881	0.071074
C99	C	0.837899	0.384214	0.404407
C100	C	0.236668	-0.282470	-0.262236
C101	C	0.570001	0.050863	0.071097
C102	C	0.903334	0.384196	0.404431
C103	C	0.269388	-0.325836	-0.302219
C104	C	0.602722	0.007497	0.031114
C105	C	0.936055	0.340831	0.364448
C106	C	0.905387	-0.501707	-0.302136
C107	C	1.238720	-0.168374	0.031198
C108	C	1.572054	0.164960	0.364531
C109	C	0.905414	-0.576939	-0.302144
C110	C	1.238748	-0.243606	0.031190
C111	C	1.572081	0.089728	0.364523
C112	C	0.945514	-0.612255	-0.262130
C113	C	1.278847	-0.278922	0.071203
C114	C	1.612180	0.054411	0.404536
C115	C	0.945540	-0.682944	-0.262144
C116	C	1.278874	-0.349610	0.071189
C117	C	1.612207	-0.016277	0.404523
C118	C	0.905464	-0.718315	-0.302169
C119	C	1.238797	-0.384981	0.031165
C120	C	1.572130	-0.051648	0.364498
C121	C	0.865362	-0.682993	-0.342187
C122	C	1.198696	-0.349660	-0.008853
C123	C	1.532029	-0.016327	0.324480
C124	C	0.865339	-0.612306	-0.342175
C125	C	1.198673	-0.278973	-0.008842
C126	C	1.532006	0.054361	0.324491
C127	C	0.865455	-0.968067	-0.342233
C128	C	1.198788	-0.634733	-0.008900
C129	C	1.532122	-0.301400	0.324434
C130	C	0.865480	-1.038759	-0.342240
C131	C	1.198813	-0.705425	-0.008906
C132	C	1.532146	-0.372092	0.324427
C133	C	0.945656	-1.038704	-0.262202
C134	C	1.278989	-0.705371	0.071132
C135	C	1.612322	-0.372037	0.404465
C136	C	0.945633	-0.968017	-0.262191
C137	C	1.278966	-0.634684	0.071143
C138	C	1.612299	-0.301350	0.404476
C139	C	0.905534	-0.932702	-0.302210
C140	C	1.238867	-0.599369	0.031123
C141	C	1.572201	-0.266035	0.364456
C142	C	0.905507	-0.856053	-0.302196
C143	C	1.238840	-0.522720	0.031138
C144	C	1.572173	-0.189387	0.364471
C145	C	0.905488	-0.794962	-0.302181
C146	C	1.238821	-0.461628	0.031153
C147	C	1.572154	-0.128295	0.364486
C148	C	1.068881	-0.325816	-0.302239
C149	C	1.402214	0.007518	0.031094
C150	C	1.735548	0.340851	0.364427
C151	C	1.138522	-0.325800	-0.302271
C152	C	1.471855	0.007533	0.031063
C153	C	1.805189	0.340866	0.364396
C154	C	0.905510	-0.325837	-0.465589
C155	C	1.238843	0.007496	-0.132256
C156	C	1.572176	0.340829	0.201077
C157	C	0.905532	-0.325831	-0.535231
C158	C	1.238865	0.007502	-0.201897
C159	C	1.572198	0.340835	0.131436
C160	C	0.905545	-0.149308	-0.302210
C161	C	1.238879	0.184025	0.031123
C162	C	1.572212	0.517358	0.364456
C163	C	0.905583	-0.074076	-0.302229
C164	C	1.238916	0.259257	0.031104
C165	C	1.572249	0.592590	0.364438
C166	C	0.945625	-0.282530	-0.567974
C167	C	1.278958	0.050803	-0.234640
C168	C	1.612292	0.384136	0.098693
C169	C	0.945624	-0.282501	-0.633409
C170	C	1.278957	0.050832	-0.300076
C171	C	1.612291	0.384165	0.033258
C172	C	0.905537	-0.325785	-0.666099
C173	C	1.238870	0.007548	-0.332766
C174	C	1.572203	0.340881	0.000568
C175	C	0.865436	-0.369089	-0.633348
C176	C	1.198769	-0.035756	-0.300015
C177	C	1.532102	0.297577	0.033318
C178	C	0.865433	-0.369112	-0.567914
C179	C	1.198766	-0.035779	-0.234581
C180	C	1.532100	0.297554	0.098753
C181	C	0.900565	-0.386731	-0.769762
C182	C	1.233898	-0.053398	-0.436428
C183	C	1.567232	0.279936	-0.103095
C184	C	0.900572	-0.386709	-0.835195
C185	C	1.233905	-0.053376	-0.501861
C186	C	1.567238	0.279958	-0.168528
C187	C	0.905540	-0.325714	-0.867920
C188	C	1.238874	0.007620	-0.534587
C189	C	1.572207	0.340953	-0.201253
C190	C	0.910516	-0.264738	-0.835204
C191	C	1.243849	0.068595	-0.501871
C192	C	1.577182	0.401928	-0.168538
C193	C	0.910513	-0.264762	-0.769770
C194	C	1.243846	0.068572	-0.436437
C195	C	1.577180	0.401905	-0.103103
C196	C	0.905534	-0.325765	-0.737051
C197	C	1.238868	0.007569	-0.403718
C198	C	1.572201	0.340902	-0.070385
C199	C	0.945635	-0.282378	-0.971615
C200	C	1.278968	0.050956	-0.638282
C201	C	1.612302	0.384289	-0.304949
C202	C	0.945630	-0.282347	-1.037052
C203	C	1.278963	0.050986	-0.703719
C204	C	1.612296	0.384319	-0.370385
C205	C	0.865444	-0.368941	-1.036990
C206	C	1.198778	-0.035608	-0.703657
C207	C	1.532111	0.297725	-0.370323
C208	C	0.865446	-0.368966	-0.971555
C209	C	1.198780	-0.035632	-0.638221
C210	C	1.532113	0.297701	-0.304888
C211	C	0.905545	-0.325685	-0.938871
C212	C	1.238878	0.007649	-0.605538
C213	C	1.572212	0.340982	-0.272205
C214	C	0.905442	-0.325816	-0.139378
C215	C	1.238775	0.007518	0.193955
C216	C	1.572108	0.340851	0.527288
C217	C	0.905541	-0.325631	-0.069738
C218	C	1.238874	0.007702	0.263596
C219	C	1.572208	0.341036	0.596929
H220	H	0.465024	-0.316026	-0.199743
H221	H	0.798357	0.017308	0.133591
H222	H	1.131690	0.350641	0.466924
H223	H	0.832782	-0.404372	-0.541255
H224	H	1.166115	-0.071039	-0.207922
H225	H	1.499448	0.262294	0.125412
H226	H	0.144586	-0.247150	-0.229705
H227	H	0.477920	0.086184	0.103628
H228	H	0.811253	0.419517	0.436962
O229	O	0.895199	-0.452526	-0.734472
O230	O	1.228533	-0.119193	-0.401139
O231	O	1.561866	0.214141	-0.067806
H232	H	0.937163	-0.459437	-0.704686
H233	H	1.270496	-0.126103	-0.371352
H234	H	1.603830	0.207230	-0.038019
H235	H	0.832804	-0.939318	-0.374817
H236	H	1.166137	-0.605985	-0.041484
H237	H	1.499471	-0.272652	0.291849
H238	H	0.832687	-0.583552	-0.374759
H239	H	1.166020	-0.250219	-0.041426
H240	H	1.499354	0.083114	0.291907
O241	O	0.988874	-0.235803	-0.668737
O242	O	1.322207	0.097531	-0.335404
O243	O	1.655541	0.430864	-0.002071
H244	H	1.016759	-0.205715	-0.635017
H245	H	1.350093	0.127618	-0.301684
H246	H	1.683426	0.460952	0.031649
O247	O	0.822252	-1.076905	-0.385416
O248	O	1.155585	-0.743572	-0.052082
O249	O	1.488918	-0.410239	0.281251
H250	H	0.790393	-1.109155	-0.357337
H251	H	1.123726	-0.775822	-0.024003
H252	H	1.457059	-0.442489	0.309330
O253	O	0.988876	-0.235696	-0.936355
O254	O	1.322209	0.097637	-0.603021
O255	O	1.655543	0.430971	-0.269688
H256	H	0.978152	-0.182571	-0.948898
H257	H	1.311486	0.150763	-0.615565
H258	H	1.644819	0.484096	-0.282232
O259	O	0.822195	-0.415774	-0.668601
O260	O	1.155528	-0.082441	-0.335268
O261	O	1.488862	0.250892	-0.001934
H262	H	0.828936	-0.408488	-0.719603
H263	H	1.162269	-0.075155	-0.386270
H264	H	1.495603	0.258179	-0.052936
O265	O	0.988870	-0.235849	-0.532721
O266	O	1.322203	0.097484	-0.199387
O267	O	1.655536	0.430818	0.133946
H268	H	1.016746	-0.205731	-0.566487
H269	H	1.350080	0.127603	-0.233153
H270	H	1.683413	0.460936	0.100180
H271	H	0.978277	-0.247083	-1.063710
H272	H	1.311611	0.086251	-0.730377
H273	H	1.644944	0.419584	-0.397044
H274	H	0.666960	-0.404574	-0.374638
H275	H	1.000294	-0.071240	-0.041305
H276	H	1.333627	0.262093	0.292029
H277	H	0.896524	-0.436359	-0.861827
H278	H	1.229858	-0.103026	-0.528493
H279	H	1.563191	0.230308	-0.195160
H280	H	0.666936	-0.247254	-0.229519
H281	H	1.000270	0.086079	0.103814
H282	H	1.333603	0.419412	0.437148
O283	O	0.539600	-0.416024	-0.385230
O284	O	0.872933	-0.082690	-0.051897
O285	O	1.206266	0.250643	0.281437
H286	H	0.573346	-0.446191	-0.413018
H287	H	0.906679	-0.112858	-0.079685
H288	H	1.240012	0.220475	0.253649
H289	H	0.914562	-0.215113	-0.743136
H290	H	1.247896	0.118220	-0.409802
H291	H	1.581229	0.451553	-0.076469
O292	O	0.988742	-0.574106	-0.218963
O293	O	1.322075	-0.240773	0.114370
O294	O	1.655409	0.092561	0.447703
H295	H	1.016635	-0.610542	-0.191147
H296	H	1.349968	-0.277209	0.142186
H297	H	1.683302	0.056124	0.475519
H298	H	0.978193	-0.711695	-0.229561
H299	H	1.311526	-0.378362	0.103773
H300	H	1.644860	-0.045029	0.437106
O301	O	0.988861	-0.929865	-0.219026
O302	O	1.322195	-0.596532	0.114308
O303	O	1.655528	-0.263198	0.447641
H304	H	1.016756	-0.966299	-0.191208
H305	H	1.350089	-0.632966	0.142125
H306	H	1.683422	-0.299632	0.475458
H307	H	0.465238	-0.335727	-0.404552
H308	H	0.798571	-0.002394	-0.071219
H309	H	1.131904	0.330939	0.262114
H310	H	0.978308	-1.067466	-0.229618
H311	H	1.311642	-0.734133	0.103715
H312	H	1.644975	-0.400800	0.437049
O313	O	0.822128	-0.721138	-0.385351
O314	O	1.155461	-0.387805	-0.052018
O315	O	1.488795	-0.054471	0.281316
H316	H	0.828872	-0.776225	-0.378630
H317	H	1.162206	-0.442892	-0.045297
H318	H	1.495539	-0.109558	0.288037
O319	O	0.337649	-0.314561	-0.184875
O320	O	0.670982	0.018772	0.148458
O321	O	1.004316	0.352105	0.481792
H322	H	0.371353	-0.310782	-0.145617
H323	H	0.704686	0.022552	0.187716
H324	H	1.038019	0.355885	0.521049
O325	O	0.337901	-0.337125	-0.419521
O326	O	0.671234	-0.003792	-0.086188
O327	O	1.004568	0.329542	0.247146
H328	H	0.286894	-0.336192	-0.410060
H329	H	0.620227	-0.002859	-0.076726
H330	H	0.953561	0.330474	0.256607
O331	O	0.539581	-0.235792	-0.218973
O332	O	0.872914	0.097541	0.114360
O333	O	1.206247	0.430874	0.447693
H334	H	0.488585	-0.243075	-0.225700
H335	H	0.821918	0.090259	0.107634
H336	H	1.155252	0.423592	0.440967
H337	H	0.914563	-0.215070	-0.861848
H338	H	1.247896	0.118263	-0.528514
H339	H	1.581229	0.451596	-0.195181
H340	H	0.832798	-0.404177	-1.063606
H341	H	1.166131	-0.070844	-0.730272
H342	H	1.499465	0.262490	-0.396939
H343	H	0.144617	-0.404451	-0.374835
H344	H	0.477951	-0.071117	-0.041502
H345	H	0.811284	0.262216	0.291832
O346	O	0.271981	-0.415938	-0.385357
O347	O	0.605314	-0.082604	-0.052023
O348	O	0.938648	0.250729	0.281310
H349	H	0.238242	-0.446067	-0.413187
H350	H	0.571576	-0.112734	-0.079854
H351	H	0.904909	0.220599	0.253479
H352	H	0.832802	-0.404230	-0.944895
H353	H	1.166135	-0.070897	-0.611562
H354	H	1.499469	0.262437	-0.278228
H355	H	0.263297	-0.247178	-0.229658
H356	H	0.596630	0.086156	0.103675
H357	H	0.929963	0.419489	0.437008
