data_functionalizedCrystal
_audit_creation_method	'MofGen! by Chris Wilmer'
_symmetry_space_group_name_H-M	'P1'
_symmetry_Int_Tables_number	1
_symmetry_cell_setting	triclinic
loop_
_symmetry_equiv_pos_as_xyz
  x,y,z
_cell_length_a	25.639242
_cell_length_b	29.839125
_cell_length_c	25.639239
_cell_angle_alpha	89.983129
_cell_angle_beta	90.030990
_cell_angle_gamma	89.986798
loop_
_atom_site_label
_atom_site_type_symbol
_atom_site_fract_x
_atom_site_fract_y
_atom_site_fract_z
Zn1	Zn	0.799219	-0.254022	-0.208331
Zn2	Zn	1.132552	0.079311	0.125002
Zn3	Zn	1.465886	0.412644	0.458335
Zn4	Zn	0.799144	-0.178893	-0.295747
Zn5	Zn	1.132478	0.154440	0.037586
Zn6	Zn	1.465811	0.487773	0.370919
Zn7	Zn	0.711797	-0.178903	-0.208316
Zn8	Zn	1.045130	0.154430	0.125017
Zn9	Zn	1.378464	0.487763	0.458351
Zn10	Zn	0.711740	-0.253993	-0.295726
Zn11	Zn	1.045074	0.079340	0.037607
Zn12	Zn	1.378407	0.412673	0.370941
O13	O	0.755475	-0.216453	-0.252030
O14	O	1.088809	0.116880	0.081303
O15	O	1.422142	0.450213	0.414636
O16	O	0.872374	-0.244064	-0.219943
O17	O	1.205708	0.089269	0.113391
O18	O	1.539041	0.422602	0.446724
O19	O	0.787550	-0.116028	-0.284152
O20	O	1.120883	0.217306	0.049181
O21	O	1.454217	0.550639	0.382515
O22	O	0.723449	-0.188885	-0.135153
O23	O	1.056782	0.144449	0.198180
O24	O	1.390116	0.477782	0.531514
O25	O	0.872319	-0.188867	-0.284167
O26	O	1.205653	0.144466	0.049166
O27	O	1.538986	0.477799	0.382500
O28	O	0.787677	-0.244074	-0.135164
O29	O	1.121011	0.089259	0.198169
O30	O	1.454344	0.422593	0.531502
O31	O	0.723376	-0.116035	-0.219917
O32	O	1.056710	0.217298	0.113417
O33	O	1.390043	0.550632	0.446750
O34	O	0.638624	-0.188856	-0.219896
O35	O	0.971958	0.144477	0.113438
O36	O	1.305291	0.477810	0.446771
O37	O	0.723352	-0.316864	-0.284130
O38	O	1.056686	0.016469	0.049203
O39	O	1.390019	0.349802	0.382536
O40	O	0.638583	-0.244025	-0.284115
O41	O	0.971916	0.089309	0.049218
O42	O	1.305249	0.422642	0.382551
O43	O	0.787622	-0.316886	-0.219922
O44	O	1.120956	0.016448	0.113411
O45	O	1.454289	0.349781	0.446745
O46	O	0.787495	-0.188839	-0.368910
O47	O	1.120828	0.144494	-0.035576
O48	O	1.454162	0.477827	0.297757
O49	O	0.723280	-0.244015	-0.368894
O50	O	1.056613	0.089318	-0.035561
O51	O	1.389946	0.422652	0.297773
C52	C	0.619633	-0.216439	-0.252002
C53	C	0.952966	0.116895	0.081331
C54	C	1.286299	0.450228	0.414665
C55	C	0.561519	-0.216443	-0.252002
C56	C	0.894852	0.116890	0.081331
C57	C	1.228185	0.450224	0.414664
C58	C	0.755489	-0.333632	-0.252026
C59	C	1.088823	-0.000298	0.081308
C60	C	1.422156	0.333035	0.414641
C61	C	0.755495	-0.383566	-0.252024
C62	C	1.088829	-0.050233	0.081310
C63	C	1.422162	0.283101	0.414643
C64	C	0.310362	-0.245247	-0.218648
C65	C	0.643695	0.088087	0.114685
C66	C	0.977029	0.421420	0.448019
C67	C	0.364966	-0.245244	-0.218643
C68	C	0.698299	0.088089	0.114690
C69	C	1.031633	0.421423	0.448024
O70	O	0.393234	-0.269731	-0.190261
O71	O	0.726567	0.063603	0.143072
O72	O	1.059901	0.396936	0.476406
N73	N	0.392245	-0.216458	-0.252024
N74	N	0.725578	0.116875	0.081309
N75	N	1.058911	0.450208	0.414643
C76	C	0.364916	-0.187676	-0.285416
C77	C	0.698250	0.145657	0.047917
C78	C	1.031583	0.478990	0.381250
O79	O	0.393133	-0.163192	-0.313810
O80	O	0.726466	0.170141	0.019524
O81	O	1.059799	0.503475	0.352857
C82	C	0.310313	-0.187682	-0.285424
C83	C	0.643646	0.145652	0.047910
C84	C	0.976980	0.478985	0.381243
C85	C	0.283037	-0.216466	-0.252037
C86	C	0.616370	0.116867	0.081297
C87	C	0.949704	0.450201	0.414630
C88	C	0.283086	-0.274029	-0.185264
C89	C	0.616419	0.059304	0.148069
C90	C	0.949753	0.392638	0.481403
C91	C	0.228485	-0.274031	-0.185269
C92	C	0.561819	0.059302	0.148065
C93	C	0.895152	0.392636	0.481398
C94	C	0.201161	-0.245250	-0.218657
C95	C	0.534494	0.088083	0.114676
C96	C	0.867827	0.421416	0.448009
C97	C	0.228437	-0.216468	-0.252041
C98	C	0.561770	0.116865	0.081292
C99	C	0.895103	0.450199	0.414625
C100	C	0.282985	-0.158902	-0.318818
C101	C	0.616319	0.174431	0.014515
C102	C	0.949652	0.507764	0.347848
C103	C	0.228378	-0.158910	-0.318823
C104	C	0.561712	0.174423	0.014510
C105	C	0.895045	0.507756	0.347844
C106	C	0.201103	-0.187695	-0.285436
C107	C	0.534436	0.145639	0.047897
C108	C	0.867769	0.478972	0.381231
C109	C	0.146511	-0.187689	-0.285434
C110	C	0.479845	0.145644	0.047899
C111	C	0.813178	0.478977	0.381232
N112	N	0.119233	-0.216475	-0.252053
N113	N	0.452566	0.116858	0.081280
N114	N	0.785899	0.450192	0.414613
C115	C	0.146557	-0.245256	-0.218665
C116	C	0.479891	0.088078	0.114669
C117	C	0.813224	0.421411	0.448002
C118	C	0.479587	-0.187668	-0.285399
C119	C	0.812920	0.145665	0.047934
C120	C	1.146254	0.478998	0.381268
C121	C	0.534189	-0.187661	-0.285389
C122	C	0.867523	0.145673	0.047944
C123	C	1.200856	0.479006	0.381277
C124	C	0.534235	-0.245229	-0.218616
C125	C	0.867569	0.088104	0.114717
C126	C	1.200902	0.421438	0.448050
C127	C	0.479632	-0.245234	-0.218624
C128	C	0.812965	0.088099	0.114709
C129	C	1.146299	0.421432	0.448043
C130	C	0.452308	-0.216454	-0.252018
C131	C	0.785642	0.116879	0.081316
C132	C	1.118975	0.450212	0.414649
C133	C	0.031892	-0.245257	-0.218677
C134	C	0.365226	0.088076	0.114657
C135	C	0.698559	0.421410	0.447990
C136	C	-0.022713	-0.245255	-0.218683
C137	C	0.310620	0.088078	0.114651
C138	C	0.643954	0.421412	0.447984
C139	C	-0.022754	-0.187688	-0.285457
C140	C	0.310579	0.145645	0.047876
C141	C	0.643912	0.478978	0.381209
C142	C	0.031846	-0.187689	-0.285449
C143	C	0.365179	0.145645	0.047884
C144	C	0.698513	0.478978	0.381217
C145	C	0.059168	-0.216477	-0.252057
C146	C	0.392502	0.116857	0.081276
C147	C	0.725835	0.450190	0.414609
O148	O	0.118209	-0.163216	-0.313803
O149	O	0.451542	0.170117	0.019530
O150	O	0.784876	0.503450	0.352863
O151	O	0.118334	-0.269740	-0.190281
O152	O	0.451668	0.063593	0.143052
O153	O	0.785001	0.396927	0.476385
C154	C	0.788996	-0.693224	-0.218503
C155	C	1.122329	-0.359890	0.114831
C156	C	1.455663	-0.026557	0.448164
C157	C	0.789022	-0.880897	-0.218458
C158	C	1.122355	-0.547563	0.114875
C159	C	1.455689	-0.214230	0.448209
O160	O	0.817467	-0.905174	-0.190007
O161	O	1.150800	-0.571840	0.143326
O162	O	1.484133	-0.238507	0.476660
N163	N	0.755565	-0.904351	-0.251883
N164	N	1.088898	-0.571018	0.081450
N165	N	1.422231	-0.237685	0.414783
C166	C	0.722096	-0.880885	-0.285320
C167	C	1.055430	-0.547551	0.048013
C168	C	1.388763	-0.214218	0.381347
O169	O	0.693636	-0.905140	-0.313746
O170	O	1.026969	-0.571807	0.019588
O171	O	1.360302	-0.238474	0.352921
C172	C	0.722068	-0.693212	-0.285362
C173	C	1.055401	-0.359879	0.047972
C174	C	1.388735	-0.026546	0.381305
C175	C	0.755531	-0.669760	-0.251938
C176	C	1.088865	-0.336427	0.081396
C177	C	1.422198	-0.003094	0.414729
C178	C	0.822456	-0.669771	-0.185081
C179	C	1.155789	-0.336438	0.148252
C180	C	1.489123	-0.003105	0.481586
C181	C	0.822451	-0.622856	-0.185095
C182	C	1.155785	-0.289523	0.148239
C183	C	1.489118	0.043811	0.481572
C184	C	0.788986	-0.599393	-0.218530
C185	C	1.122320	-0.266059	0.114804
C186	C	1.455653	0.067274	0.448137
C187	C	0.755526	-0.622845	-0.251951
C188	C	1.088860	-0.289512	0.081382
C189	C	1.422193	0.043822	0.414715
C190	C	0.688597	-0.669747	-0.318795
C191	C	1.021931	-0.336413	0.014538
C192	C	1.355264	-0.003080	0.347872
C193	C	0.688592	-0.622826	-0.318802
C194	C	1.021926	-0.289492	0.014532
C195	C	1.355259	0.043841	0.347865
C196	C	0.722055	-0.599374	-0.285378
C197	C	1.055389	-0.266040	0.047956
C198	C	1.388722	0.067293	0.381289
C199	C	0.722057	-0.552466	-0.285400
C200	C	1.055390	-0.219133	0.047934
C201	C	1.388723	0.114201	0.381267
N202	N	0.755514	-0.529012	-0.251974
N203	N	1.088847	-0.195678	0.081359
N204	N	1.422181	0.137655	0.414692
C205	C	0.788979	-0.552475	-0.218539
C206	C	1.122312	-0.219142	0.114794
C207	C	1.455646	0.114192	0.448127
C208	C	0.722114	-0.979415	-0.285297
C209	C	1.055447	-0.646082	0.048037
C210	C	1.388781	-0.312749	0.381370
C211	C	0.722122	-1.026333	-0.285287
C212	C	1.055455	-0.693000	0.048046
C213	C	1.388788	-0.359667	0.381380
C214	C	0.789047	-1.026342	-0.218424
C215	C	1.122380	-0.693009	0.114909
C216	C	1.455714	-0.359675	0.448242
C217	C	0.789042	-0.979423	-0.218437
C218	C	1.122375	-0.646090	0.114897
C219	C	1.455708	-0.312757	0.448230
C220	C	0.755571	-0.955961	-0.251871
C221	C	1.088905	-0.622627	0.081462
C222	C	1.422238	-0.289294	0.414796
C223	C	0.788967	-0.453949	-0.218570
C224	C	1.122300	-0.120616	0.114763
C225	C	1.455633	0.212718	0.448096
C226	C	0.788960	-0.407029	-0.218588
C227	C	1.122294	-0.073696	0.114745
C228	C	1.455627	0.259637	0.448078
C229	C	0.722033	-0.407025	-0.285449
C230	C	1.055367	-0.073691	0.047884
C231	C	1.388700	0.259642	0.381218
C232	C	0.722041	-0.453940	-0.285433
C233	C	1.055375	-0.120607	0.047900
C234	C	1.388708	0.212727	0.381233
C235	C	0.755510	-0.477401	-0.251990
C236	C	1.088843	-0.144068	0.081344
C237	C	1.422176	0.189266	0.414677
O238	O	0.693623	-0.528160	-0.313832
O239	O	1.026956	-0.194827	0.019502
O240	O	1.360290	0.138506	0.352835
O241	O	0.817427	-0.528211	-0.190110
O242	O	1.150760	-0.194878	0.143224
O243	O	1.484094	0.138456	0.476557
C244	C	0.789001	-0.740139	-0.218489
C245	C	1.122334	-0.406806	0.114844
C246	C	1.455668	-0.073472	0.448177
C247	C	0.755541	-0.763591	-0.251911
C248	C	1.088874	-0.430258	0.081423
C249	C	1.422208	-0.096925	0.414756
C250	C	0.722076	-0.740128	-0.285346
C251	C	1.055409	-0.406795	0.047988
C252	C	1.388743	-0.073461	0.381321
C253	C	0.755548	-0.810509	-0.251901
C254	C	1.088882	-0.477176	0.081432
C255	C	1.422215	-0.143842	0.414766
C256	C	0.789013	-0.833972	-0.218466
C257	C	1.122347	-0.500639	0.114867
C258	C	1.455680	-0.167306	0.448201
C259	C	0.822471	-0.810518	-0.185041
C260	C	1.155804	-0.477185	0.148293
C261	C	1.489137	-0.143851	0.481626
C262	C	0.822466	-0.763602	-0.185054
C263	C	1.155799	-0.430269	0.148279
C264	C	1.489132	-0.096936	0.481613
C265	C	0.688619	-0.763582	-0.318771
C266	C	1.021952	-0.430249	0.014562
C267	C	1.355285	-0.096916	0.347896
C268	C	0.688627	-0.810498	-0.318755
C269	C	1.021960	-0.477165	0.014578
C270	C	1.355293	-0.143831	0.347911
C271	C	0.722092	-0.833961	-0.285320
C272	C	1.055425	-0.500628	0.048013
C273	C	1.388758	-0.167295	0.381346
C274	C	0.891848	-0.216468	-0.252059
C275	C	1.225182	0.116865	0.081274
C276	C	1.558515	0.450199	0.414608
C277	C	0.949962	-0.216474	-0.252071
C278	C	1.283296	0.116859	0.081262
C279	C	1.616629	0.450192	0.414595
C280	C	0.755387	-0.216433	-0.387873
C281	C	1.088721	0.116901	-0.054539
C282	C	1.422054	0.450234	0.278794
C283	C	0.755398	-0.216439	-0.445987
C284	C	1.088731	0.116894	-0.112653
C285	C	1.422064	0.450228	0.220680
C286	C	0.755491	-0.099731	-0.251997
C287	C	1.088825	0.233603	0.081336
C288	C	1.422158	0.566936	0.414670
C289	C	0.755587	-0.049797	-0.251852
C290	C	1.088920	0.283537	0.081481
C291	C	1.422253	0.616870	0.414815
C292	C	0.788999	-0.187772	-0.806345
C293	C	1.122333	0.145561	-0.473012
C294	C	1.455666	0.478894	-0.139679
C295	C	0.789020	-0.187778	-0.860950
C296	C	1.122353	0.145555	-0.527616
C297	C	1.455686	0.478888	-0.194283
O298	O	0.817498	-0.163382	-0.889183
O299	O	1.150831	0.169951	-0.555849
O300	O	1.484165	0.503284	-0.222516
N301	N	0.755567	-0.216483	-0.888269
N302	N	1.088900	0.116850	-0.554936
N303	N	1.422234	0.450184	-0.221603
C304	C	0.722096	-0.245187	-0.860982
C305	C	1.055429	0.088147	-0.527648
C306	C	1.388763	0.421480	-0.194315
O307	O	0.693644	-0.269603	-0.889233
O308	O	1.026978	0.063730	-0.555900
O309	O	1.360311	0.397063	-0.222566
C310	C	0.722079	-0.245183	-0.806378
C311	C	1.055412	0.088151	-0.473045
C312	C	1.388745	0.421484	-0.139712
C313	C	0.755530	-0.216473	-0.779062
C314	C	1.088863	0.116860	-0.445728
C315	C	1.422196	0.450194	-0.112395
C316	C	0.822448	-0.159065	-0.779029
C317	C	1.155781	0.174268	-0.445695
C318	C	1.489115	0.507602	-0.112362
C319	C	0.822427	-0.159059	-0.724428
C320	C	1.155760	0.174275	-0.391095
C321	C	1.489094	0.507608	-0.057762
C322	C	0.788957	-0.187759	-0.697144
C323	C	1.122290	0.145574	-0.363811
C324	C	1.455624	0.478907	-0.030478
C325	C	0.755509	-0.216466	-0.724461
C326	C	1.088842	0.116867	-0.391128
C327	C	1.422175	0.450200	-0.057794
C328	C	0.688611	-0.273888	-0.779092
C329	C	1.021944	0.059445	-0.445758
C330	C	1.355277	0.392778	-0.112425
C331	C	0.688597	-0.273882	-0.724485
C332	C	1.021930	0.059451	-0.391151
C333	C	1.355263	0.392785	-0.057818
C334	C	0.722047	-0.245172	-0.697168
C335	C	1.055381	0.088161	-0.363835
C336	C	1.388714	0.421494	-0.030501
C337	C	0.722018	-0.245161	-0.642577
C338	C	1.055351	0.088173	-0.309243
C339	C	1.388684	0.421506	0.024090
N340	N	0.755470	-0.216456	-0.615257
N341	N	1.088804	0.116878	-0.281924
N342	N	1.422137	0.450211	0.051409
C343	C	0.788940	-0.187755	-0.642541
C344	C	1.122273	0.145578	-0.309208
C345	C	1.455607	0.478911	0.024126
C346	C	0.722135	-0.245194	-0.975652
C347	C	1.055469	0.088140	-0.642319
C348	C	1.388802	0.421473	-0.308986
C349	C	0.722150	-0.245196	-1.030254
C350	C	1.055483	0.088137	-0.696921
C351	C	1.388816	0.421471	-0.363588
C352	C	0.789074	-0.187788	-1.030219
C353	C	1.122407	0.145546	-0.696886
C354	C	1.455741	0.478879	-0.363552
C355	C	0.789057	-0.187784	-0.975616
C356	C	1.122390	0.145550	-0.642282
C357	C	1.455723	0.478883	-0.308949
C358	C	0.755588	-0.216489	-0.948333
C359	C	1.088921	0.116844	-0.614999
C360	C	1.422254	0.450178	-0.281666
C361	C	0.788893	-0.187743	-0.527876
C362	C	1.122226	0.145590	-0.194543
C363	C	1.455559	0.478923	0.138791
C364	C	0.788867	-0.187738	-0.473271
C365	C	1.122201	0.145595	-0.139937
C366	C	1.455534	0.478928	0.193396
C367	C	0.721945	-0.245148	-0.473311
C368	C	1.055278	0.088186	-0.139978
C369	C	1.388612	0.421519	0.193356
C370	C	0.721968	-0.245152	-0.527912
C371	C	1.055302	0.088182	-0.194578
C372	C	1.388635	0.421515	0.138755
C373	C	0.755447	-0.216448	-0.555193
C374	C	1.088780	0.116885	-0.221859
C375	C	1.422113	0.450219	0.111474
O376	O	0.693556	-0.269545	-0.614309
O377	O	1.026889	0.063788	-0.280976
O378	O	1.360222	0.397121	0.052358
O379	O	0.817392	-0.163347	-0.614283
O380	O	1.150725	0.169986	-0.280950
O381	O	1.484058	0.503320	0.052384
C382	C	0.755578	-0.216484	-0.115657
C383	C	1.088911	0.116850	0.217676
C384	C	1.422244	0.450183	0.551009
C385	C	0.755621	-0.216497	-0.057543
C386	C	1.088955	0.116837	0.275790
C387	C	1.422288	0.450170	0.609124
H388	H	-0.044919	-0.268695	-0.191492
H389	H	0.288415	0.064639	0.141841
H390	H	0.621748	0.397972	0.475174
O391	O	0.058347	-0.273235	-0.186190
O392	O	0.391680	0.060098	0.147143
O393	O	0.725014	0.393432	0.480477
C394	C	0.022555	-0.298644	-0.156739
C395	C	0.355888	0.034689	0.176594
C396	C	0.689222	0.368023	0.509928
H397	H	-0.016371	-0.280243	-0.154905
H398	H	0.316962	0.053090	0.178428
H399	H	0.650296	0.386423	0.511762
H400	H	0.038346	-0.303501	-0.115549
H401	H	0.371679	0.029833	0.217784
H402	H	0.705012	0.363166	0.551117
H403	H	0.016748	-0.332734	-0.175946
H404	H	0.350081	0.000599	0.157388
H405	H	0.683415	0.333932	0.490721
O406	O	0.689518	-0.384297	-0.317984
O407	O	1.022852	-0.050964	0.015350
O408	O	1.356185	0.282370	0.348683
C409	C	0.659977	-0.415054	-0.347479
C410	C	0.993311	-0.081720	-0.014145
C411	C	1.326644	0.251613	0.319188
H412	H	0.681388	-0.448504	-0.349280
H413	H	1.014721	-0.115171	-0.015947
H414	H	1.348054	0.218162	0.317386
H415	H	0.654379	-0.401494	-0.388677
H416	H	0.987713	-0.068160	-0.055343
H417	H	1.321046	0.265173	0.277990
H418	H	0.620278	-0.420033	-0.328331
H419	H	0.953611	-0.086700	0.005003
H420	H	1.286945	0.246634	0.338336
O421	O	0.854893	-0.740778	-0.152551
O422	O	1.188227	-0.407445	0.180782
O423	O	1.521560	-0.074111	0.514115
C424	C	0.825145	-0.713652	-0.118770
C425	C	1.158478	-0.380319	0.214563
C426	C	1.491811	-0.046985	0.547896
H427	H	0.785512	-0.706609	-0.137210
H428	H	1.118845	-0.373276	0.196124
H429	H	1.452179	-0.039942	0.529457
H430	H	0.846446	-0.680666	-0.111760
H431	H	1.179779	-0.347333	0.221573
H432	H	1.513112	-0.013999	0.554906
H433	H	0.819421	-0.731745	-0.080026
H434	H	1.152754	-0.398412	0.253307
H435	H	1.486088	-0.065079	0.586641
O436	O	0.201918	-0.130910	-0.351279
O437	O	0.535251	0.202424	-0.017946
O438	O	0.868584	0.535757	0.315387
C439	C	0.237706	-0.105515	-0.380753
C440	C	0.571039	0.227819	-0.047419
C441	C	0.904372	0.561152	0.285914
H442	H	0.276637	-0.103991	-0.359329
H443	H	0.609970	0.229342	-0.025995
H444	H	0.943303	0.562676	0.307338
H445	H	0.221917	-0.070110	-0.386273
H446	H	0.555250	0.263223	-0.052939
H447	H	0.888584	0.596557	0.280394
H448	H	0.243502	-0.121907	-0.420488
H449	H	0.576835	0.211427	-0.087155
H450	H	0.910169	0.544760	0.246178
H451	H	0.849721	-0.829630	-0.157818
H452	H	1.183054	-0.496297	0.175515
H453	H	1.516387	-0.162963	0.508848
H454	H	0.694732	-0.268531	-0.550154
H455	H	1.028065	0.064803	-0.216821
H456	H	1.361398	0.398136	0.116513
O457	O	0.821680	-0.159990	-1.056733
O458	O	1.155013	0.173343	-0.723399
O459	O	1.488347	0.506677	-0.390066
C460	C	0.855424	-0.185628	-1.088258
C461	C	1.188757	0.147705	-0.754925
C462	C	1.522091	0.481038	-0.421591
H463	H	0.858564	-0.221014	-1.071778
H464	H	1.191898	0.112319	-0.738445
H465	H	1.525231	0.445652	-0.405112
H466	H	0.895694	-0.169448	-1.088820
H467	H	1.229028	0.163885	-0.755486
H468	H	1.562361	0.497219	-0.422153
H469	H	0.839301	-0.187155	-1.129666
H470	H	1.172635	0.146179	-0.796333
H471	H	1.505968	0.479512	-0.463000
O472	O	0.854950	-0.131236	-0.697838
O473	O	1.188284	0.202097	-0.364505
O474	O	1.521617	0.535431	-0.031171
C475	C	0.888698	-0.156838	-0.666223
C476	C	1.222031	0.176495	-0.332890
C477	C	1.555365	0.509828	0.000443
H478	H	0.870225	-0.190867	-0.658038
H479	H	1.203558	0.142466	-0.324705
H480	H	1.536892	0.475800	0.008628
H481	H	0.895713	-0.138540	-0.627831
H482	H	1.229047	0.194794	-0.294498
H483	H	1.562380	0.528127	0.038836
H484	H	0.927444	-0.161812	-0.687235
H485	H	1.260778	0.171522	-0.353902
H486	H	1.594111	0.504855	-0.020568
O487	O	0.855049	-0.131205	-0.805453
O488	O	1.188382	0.202129	-0.472119
O489	O	1.521716	0.535462	-0.138786
C490	C	0.907137	-0.141085	-0.792042
C491	C	1.240470	0.192248	-0.458709
C492	C	1.573803	0.525581	-0.125376
H493	H	0.908164	-0.158370	-0.752397
H494	H	1.241497	0.174963	-0.419064
H495	H	1.574831	0.508296	-0.085731
H496	H	0.930613	-0.108686	-0.790134
H497	H	1.263946	0.224648	-0.456801
H498	H	1.597279	0.557981	-0.123468
H499	H	0.924752	-0.164189	-0.822750
H500	H	1.258086	0.169145	-0.489417
H501	H	1.591419	0.502478	-0.156084
O502	O	0.560807	-0.273239	-0.186260
O503	O	0.894140	0.060095	0.147074
O504	O	1.227474	0.393428	0.480407
C505	C	0.592398	-0.302195	-0.216081
C506	C	0.925731	0.031138	0.117253
C507	C	1.259065	0.364472	0.450586
H508	H	0.575921	-0.304905	-0.257265
H509	H	0.909255	0.028429	0.076068
H510	H	1.242588	0.361762	0.409402
H511	H	0.593043	-0.336799	-0.197235
H512	H	0.926376	-0.003466	0.136098
H513	H	1.259709	0.329867	0.469431
H514	H	0.633774	-0.288297	-0.217856
H515	H	0.967107	0.045037	0.115478
H516	H	1.300440	0.378370	0.448811
H517	H	0.661378	-0.829589	-0.345978
H518	H	0.994711	-0.496255	-0.012645
H519	H	1.328044	-0.162922	0.320689
H520	H	0.661368	-0.744483	-0.345999
H521	H	0.994701	-0.411150	-0.012666
H522	H	1.328034	-0.077817	0.320667
O523	O	0.821413	-0.159834	-0.446817
O524	O	1.154747	0.173499	-0.113483
O525	O	1.488080	0.506832	0.219850
C526	C	0.850949	-0.134498	-0.482612
C527	C	1.184283	0.198835	-0.149278
C528	C	1.517616	0.532169	0.184055
H529	H	0.852758	-0.152907	-0.521523
H530	H	1.186091	0.180426	-0.188190
H531	H	1.519424	0.513759	0.145144
H532	H	0.892143	-0.129736	-0.466802
H533	H	1.225476	0.203597	-0.133468
H534	H	1.558809	0.536930	0.199865
H535	H	0.831833	-0.100364	-0.488455
H536	H	1.165167	0.232970	-0.155122
H537	H	1.498500	0.566303	0.178212
O538	O	0.689390	-0.273045	-0.446883
O539	O	1.022723	0.060288	-0.113550
O540	O	1.356057	0.393621	0.219784
C541	C	0.659880	-0.298399	-0.482698
C542	C	0.993213	0.034935	-0.149364
C543	C	1.326547	0.368268	0.183969
H544	H	0.658085	-0.280001	-0.521631
H545	H	0.991419	0.053333	-0.188298
H546	H	1.324752	0.386666	0.145035
H547	H	0.618681	-0.303166	-0.466948
H548	H	0.952014	0.030168	-0.133615
H549	H	1.285347	0.363501	0.199719
H550	H	0.679010	-0.332530	-0.488475
H551	H	1.012344	0.000803	-0.155141
H552	H	1.345677	0.334137	0.178192
H553	H	0.661343	-0.297259	-0.702273
H554	H	0.994676	0.036074	-0.368940
H555	H	1.328009	0.369408	-0.035607
O556	O	0.202075	-0.302038	-0.152823
O557	O	0.535408	0.031295	0.180510
O558	O	0.868741	0.364629	0.513843
C559	C	0.237910	-0.327429	-0.123348
C560	C	0.571244	0.005904	0.209985
C561	C	0.904577	0.339238	0.543318
H562	H	0.276823	-0.328942	-0.144766
H563	H	0.610156	0.004391	0.188567
H564	H	0.943490	0.337724	0.521900
H565	H	0.222156	-0.362837	-0.117837
H566	H	0.555489	-0.029504	0.215497
H567	H	0.888822	0.303829	0.548830
H568	H	0.243730	-0.311041	-0.083609
H569	H	0.577063	0.022293	0.249724
H570	H	0.910396	0.355626	0.583058
H571	H	0.816212	-0.387937	-0.191370
H572	H	1.149545	-0.054603	0.141963
H573	H	1.482879	0.278730	0.475296
O574	O	0.689597	-0.273017	-1.056810
O575	O	1.022930	0.060316	-0.723477
O576	O	1.356263	0.393649	-0.390144
C577	C	0.655866	-0.247420	-1.088450
C578	C	0.989199	0.085913	-0.755116
C579	C	1.322533	0.419246	-0.421783
H580	H	0.652659	-0.212031	-1.072019
H581	H	0.985993	0.121302	-0.738685
H582	H	1.319326	0.454635	-0.405352
H583	H	0.615617	-0.263637	-1.089094
H584	H	0.948950	0.069696	-0.755760
H585	H	1.282283	0.403029	-0.422427
H586	H	0.672046	-0.245894	-1.129819
H587	H	1.005379	0.087440	-0.796486
H588	H	1.338713	0.420773	-0.463153
H589	H	0.305328	-0.297468	-0.158075
H590	H	0.638661	0.035865	0.175258
H591	H	0.971995	0.369199	0.508592
H592	H	0.816296	-1.045454	-0.191200
H593	H	1.149629	-0.712121	0.142133
H594	H	1.482962	-0.378787	0.475466
O595	O	0.821504	-0.476784	-0.186158
O596	O	1.154837	-0.143451	0.147175
O597	O	1.488171	0.189882	0.480508
C598	C	0.855265	-0.503916	-0.215924
C599	C	1.188598	-0.170583	0.117409
C600	C	1.521932	0.162750	0.450742
H601	H	0.836795	-0.510947	-0.255539
H602	H	1.170128	-0.177613	0.077794
H603	H	1.503461	0.155720	0.411127
H604	H	0.862298	-0.536908	-0.194616
H605	H	1.195631	-0.203575	0.138717
H606	H	1.528965	0.129758	0.472050
H607	H	0.894002	-0.485835	-0.221687
H608	H	1.227335	-0.152502	0.111647
H609	H	1.560669	0.180832	0.444980
O610	O	0.689645	-1.049061	-0.317833
O611	O	1.022979	-0.715728	0.015500
O612	O	1.356312	-0.382394	0.348834
C613	C	0.701041	-1.037596	-0.369947
C614	C	1.034374	-0.704263	-0.036614
C615	C	1.367708	-0.370930	0.296720
H616	H	0.721139	-1.003535	-0.371037
H617	H	1.054472	-0.670201	-0.037704
H618	H	1.387806	-0.336868	0.295629
H619	H	0.663289	-1.035979	-0.393383
H620	H	0.996623	-0.702646	-0.060050
H621	H	1.329956	-0.369313	0.273283
H622	H	0.727909	-1.064004	-0.387561
H623	H	1.061242	-0.730671	-0.054228
H624	H	1.394575	-0.397337	0.279106
H625	H	0.816289	-0.960332	-0.191219
H626	H	1.149623	-0.626998	0.142114
H627	H	1.482956	-0.293665	0.475447
O628	O	0.689567	-0.273090	-0.949232
O629	O	1.022901	0.060243	-0.615899
O630	O	1.356234	0.393576	-0.282566
C631	C	0.660058	-0.298432	-0.985059
C632	C	0.993391	0.034902	-0.651726
C633	C	1.326724	0.368235	-0.318393
H634	H	0.658280	-0.280029	-1.023990
H635	H	0.991614	0.053305	-0.690657
H636	H	1.324947	0.386638	-0.357324
H637	H	0.618852	-0.303190	-0.969321
H638	H	0.952186	0.030144	-0.635988
H639	H	1.285519	0.363477	-0.302655
H640	H	0.679177	-0.332567	-0.990836
H641	H	1.012511	0.000766	-0.657503
H642	H	1.345844	0.334099	-0.324170
O643	O	0.656101	-0.301822	-0.805537
O644	O	0.989434	0.031512	-0.472204
O645	O	1.322768	0.364845	-0.138871
C646	C	0.626554	-0.327143	-0.769736
C647	C	0.959888	0.006191	-0.436403
C648	C	1.293221	0.339524	-0.103070
H649	H	0.647960	-0.328703	-0.730796
H650	H	0.981293	0.004630	-0.397462
H651	H	1.314627	0.337963	-0.064129
H652	H	0.620957	-0.362539	-0.785493
H653	H	0.954290	-0.029206	-0.452160
H654	H	1.287623	0.304128	-0.118827
H655	H	0.586855	-0.310662	-0.763971
H656	H	0.920189	0.022671	-0.430637
H657	H	1.253522	0.356005	-0.097304
O658	O	0.453219	-0.273240	-0.186179
O659	O	0.786553	0.060093	0.147155
O660	O	1.119886	0.393426	0.480488
C661	C	0.489053	-0.298630	-0.156700
C662	C	0.822386	0.034703	0.176634
C663	C	1.155719	0.368036	0.509967
H664	H	0.527967	-0.300144	-0.178114
H665	H	0.861301	0.033189	0.155219
H666	H	1.194634	0.366522	0.488553
H667	H	0.473298	-0.334038	-0.151187
H668	H	0.806631	-0.000705	0.182146
H669	H	1.139964	0.332628	0.515479
H670	H	0.494869	-0.282240	-0.116961
H671	H	0.828202	0.051093	0.216373
H672	H	1.161535	0.384426	0.549706
O673	O	0.560601	-0.159682	-0.317867
O674	O	0.893934	0.173652	0.015467
O675	O	1.227267	0.506985	0.348800
C676	C	0.524767	-0.134273	-0.347325
C677	C	0.858101	0.199060	-0.013991
C678	C	1.191434	0.532393	0.319342
H679	H	0.485851	-0.152676	-0.349167
H680	H	0.819184	0.180657	-0.015834
H681	H	1.152518	0.513991	0.317499
H682	H	0.540519	-0.129415	-0.388511
H683	H	0.873853	0.203919	-0.055177
H684	H	1.207186	0.537252	0.278156
H685	H	0.518956	-0.100184	-0.328117
H686	H	0.852290	0.233149	0.005216
H687	H	1.185623	0.566483	0.338549
H688	H	0.694859	-0.960316	-0.312526
H689	H	1.028192	-0.626983	0.020807
H690	H	1.361526	-0.293650	0.354140
O691	O	0.452989	-0.159683	-0.317762
O692	O	0.786322	0.173650	0.015571
O693	O	1.119655	0.506983	0.348904
C694	C	0.421416	-0.130707	-0.287949
C695	C	0.754749	0.202626	0.045384
C696	C	1.088082	0.535960	0.378718
H697	H	0.413252	-0.146615	-0.248357
H698	H	0.746586	0.186718	0.084977
H699	H	1.079919	0.520052	0.418310
H700	H	0.383010	-0.124652	-0.309243
H701	H	0.716343	0.208681	0.024090
H702	H	1.049677	0.542014	0.357424
H703	H	0.442453	-0.097424	-0.282139
H704	H	0.775786	0.235910	0.051194
H705	H	1.109119	0.569243	0.384528
H706	H	0.661348	-0.688833	-0.346012
H707	H	0.994681	-0.355500	-0.012679
H708	H	1.328014	-0.022167	0.320654
O709	O	0.656068	-0.600104	-0.351337
O710	O	0.989401	-0.266771	-0.018003
O711	O	1.322735	0.066562	0.315330
C712	C	0.626531	-0.630869	-0.380825
C713	C	0.959864	-0.297535	-0.047491
C714	C	1.293198	0.035798	0.285842
H715	H	0.647948	-0.664317	-0.382622
H716	H	0.981281	-0.330983	-0.049289
H717	H	1.314614	0.002350	0.284045
H718	H	0.620928	-0.617315	-0.422025
H719	H	0.954261	-0.283981	-0.088691
H720	H	1.287595	0.049352	0.244642
H721	H	0.586834	-0.635852	-0.361674
H722	H	0.920167	-0.302518	-0.028340
H723	H	1.253501	0.030815	0.304993
O724	O	0.058404	-0.159789	-0.317903
O725	O	0.391738	0.173545	0.015431
O726	O	0.725071	0.506878	0.348764
C727	C	0.089968	-0.185315	-0.351725
C728	C	0.423301	0.148018	-0.018391
C729	C	0.756634	0.481351	0.314942
H730	H	0.098165	-0.219390	-0.333344
H731	H	0.431498	0.113943	-0.000010
H732	H	0.764831	0.447277	0.333323
H733	H	0.128357	-0.167007	-0.358698
H734	H	0.461691	0.166327	-0.025365
H735	H	0.795024	0.499660	0.307969
H736	H	0.068905	-0.190191	-0.390480
H737	H	0.402239	0.143143	-0.057147
H738	H	0.735572	0.476476	0.276187
H739	H	0.816296	-0.164406	-0.953378
H740	H	1.149629	0.168927	-0.620044
H741	H	1.482962	0.502261	-0.286711
O742	O	0.309529	-0.131006	-0.351281
O743	O	0.642862	0.202328	-0.017948
O744	O	0.976195	0.535661	0.315386
C745	C	0.341094	-0.156530	-0.385103
C746	C	0.674428	0.176803	-0.051769
C747	C	1.007761	0.510136	0.281564
H748	H	0.349304	-0.190600	-0.366717
H749	H	0.682638	0.142733	-0.033384
H750	H	1.015971	0.476066	0.299950
H751	H	0.379477	-0.138214	-0.392086
H752	H	0.712811	0.195119	-0.058752
H753	H	1.046144	0.528452	0.274581
H754	H	0.320027	-0.161416	-0.423854
H755	H	0.653361	0.171918	-0.090521
H756	H	0.986694	0.505251	0.242813
H757	H	0.816155	-0.164371	-0.550082
H758	H	1.149488	0.168962	-0.216749
H759	H	1.482822	0.502295	0.116585
O760	O	-0.049246	-0.159756	-0.317963
O761	O	0.284087	0.173577	0.015370
O762	O	0.617420	0.506911	0.348703
C763	C	-0.035936	-0.169504	-0.370090
C764	C	0.297398	0.163829	-0.036756
C765	C	0.630731	0.497163	0.296577
H766	H	0.003719	-0.186765	-0.371200
H767	H	0.337052	0.146569	-0.037867
H768	H	0.670385	0.479902	0.295466
H769	H	-0.034097	-0.137047	-0.393482
H770	H	0.299237	0.196286	-0.060148
H771	H	0.632570	0.529620	0.273185
H772	H	-0.066664	-0.192582	-0.387737
H773	H	0.266669	0.140751	-0.054404
H774	H	0.600003	0.474085	0.278929
O775	O	0.854897	-0.600104	-0.152541
O776	O	1.188231	-0.266770	0.180792
O777	O	1.521564	0.066563	0.514125
C778	C	0.843507	-0.611594	-0.100434
C779	C	1.176840	-0.278261	0.232899
C780	C	1.510173	0.055072	0.566233
H781	H	0.801738	-0.624481	-0.097796
H782	H	1.135071	-0.291148	0.235537
H783	H	1.468405	0.042185	0.568870
H784	H	0.848028	-0.580751	-0.074598
H785	H	1.181361	-0.247417	0.258736
H786	H	1.514695	0.085916	0.592069
H787	H	0.871543	-0.638841	-0.086773
H788	H	1.204876	-0.305508	0.246561
H789	H	1.538210	0.027826	0.579894
H790	H	0.849707	-0.688870	-0.157851
H791	H	1.183041	-0.355537	0.175482
H792	H	1.516374	-0.022204	0.508815
O793	O	0.689510	-0.476772	-0.317829
O794	O	1.022844	-0.143439	0.015504
O795	O	1.356177	0.189895	0.348837
C796	C	0.655755	-0.503894	-0.288043
C797	C	0.989088	-0.170561	0.045291
C798	C	1.322422	0.162773	0.378624
H799	H	0.674228	-0.510929	-0.248423
H800	H	1.007562	-0.177596	0.084910
H801	H	1.340895	0.155738	0.418243
H802	H	0.648727	-0.536884	-0.309327
H803	H	0.982060	-0.203551	0.024006
H804	H	1.315393	0.129782	0.357340
H805	H	0.617016	-0.485802	-0.282292
H806	H	0.950349	-0.152468	0.051042
H807	H	1.283682	0.180865	0.384375
