data_functionalizedCrystal
_audit_creation_method	'MofGen! by Chris Wilmer'
_symmetry_space_group_name_H-M	'P1'
_symmetry_Int_Tables_number	1
_symmetry_cell_setting	triclinic
loop_
_symmetry_equiv_pos_as_xyz
  x,y,z
_cell_length_a	19.188933
_cell_length_b	17.699083
_cell_length_c	16.176319
_cell_angle_alpha	89.999648
_cell_angle_beta	89.993996
_cell_angle_gamma	83.214292
loop_
_atom_site_label
_atom_site_type_symbol
_atom_site_fract_x
_atom_site_fract_y
_atom_site_fract_z
O1	O	0.926253	0.094500	-0.068707
O2	O	0.722956	0.107219	-0.068714
O3	O	0.830348	-0.009337	-0.068718
O4	O	0.818860	0.211056	-0.068702
O5	O	0.830333	-0.009344	0.068775
O6	O	0.722941	0.107212	0.068780
O7	O	0.926238	0.094493	0.068786
Cu8	Cu	0.824588	0.100852	0.081337
Cu9	Cu	0.824605	0.100860	-0.081265
O10	O	0.818846	0.211049	0.068791
C11	C	0.696937	0.106803	0.000032
C12	C	0.619431	0.105566	0.000029
C13	C	0.066174	0.096740	-0.074910
C14	C	0.138999	0.097898	-0.074913
C15	C	0.175409	0.098477	0.000034
C16	C	0.138989	0.097878	0.074990
C17	C	0.066166	0.096712	0.074991
N18	N	0.284473	0.143372	0.055824
N19	N	0.353652	0.144481	0.055818
C20	C	0.394822	0.101987	0.000036
N21	N	0.364198	0.058351	-0.055753
N22	N	0.295012	0.057246	-0.055749
C23	C	0.254374	0.099740	0.000041
C24	C	0.510199	0.103836	-0.074919
C25	C	0.583026	0.104989	-0.074919
C26	C	0.583014	0.104976	0.074987
C27	C	0.510189	0.103815	0.074984
C28	C	0.473785	0.103249	0.000029
C29	C	0.829929	-0.037537	0.000024
C30	C	0.828694	-0.121554	0.000013
C31	C	0.952257	0.094909	0.000038
C32	C	1.029762	0.096146	0.000036
N33	N	0.824581	0.100845	0.195702
C34	C	0.819265	0.239249	0.000046
C35	C	0.820500	0.323266	0.000052
C36	C	0.757463	0.371969	0.000050
C37	C	0.758627	0.450911	0.000041
C38	C	0.822829	0.481148	0.000039
C39	C	0.885871	0.432438	0.000038
C40	C	0.884706	0.353498	0.000042
C41	C	0.890571	0.750795	0.000022
C42	C	0.891732	0.829741	0.000021
C43	C	0.764493	0.848208	0.000021
C44	C	0.763327	0.769268	0.000024
C45	C	0.826369	0.720565	0.000019
C46	C	0.825105	0.634967	0.000028
C47	C	0.824093	0.566744	0.000036
N48	N	0.824618	0.100861	-0.195630
C49	C	0.872148	0.049255	0.238964
C50	C	0.872152	0.049254	0.325511
C51	C	0.824591	0.100848	0.368795
C52	C	0.777018	0.152440	0.325527
C53	C	0.777012	0.152437	0.238981
C54	C	0.777042	0.152454	0.674555
C55	C	0.777053	0.152455	0.761107
C56	C	0.872182	0.049272	0.761085
C57	C	0.872176	0.049268	0.674540
C58	C	0.824601	0.100858	0.631279
C59	C	0.824597	0.100857	0.537435
C60	C	0.824598	0.100852	0.462637
H61	H	0.168651	0.098387	-0.135945
Br62	Br	0.188401	0.098656	0.176705
Br63	Br	0.632421	0.105745	0.176703
H64	H	0.480542	0.103334	0.136014
H65	H	0.941904	0.711150	0.000023
H66	H	0.480558	0.103372	-0.135952
Br67	Br	0.678935	0.914309	0.000025
H68	H	0.036520	0.096231	0.136023
Br69	Br	0.970259	0.287398	0.000036
H70	H	0.711048	0.744654	0.000030
H71	H	0.738306	0.194461	0.639339
H72	H	0.910884	0.007245	0.360735
H73	H	0.036539	0.096276	-0.135945
Br74	Br	0.632445	0.105784	-0.176641
Br75	Br	0.670326	0.330942	0.000062
H76	H	0.707296	0.490563	0.000037
H77	H	0.944016	0.854356	0.000018
Br78	Br	0.973004	0.473472	0.000026
H79	H	0.910918	0.007262	0.796317
Br80	Br	0.936705	-0.020764	0.180231
Br81	Br	0.936728	-0.020749	0.615800
H82	H	0.738321	0.194470	0.796347
H83	H	0.738290	0.194446	0.360773
Br84	Br	0.712449	0.222450	0.180268
