data_functionalizedCrystal
_audit_creation_method	'MofGen! by Chris Wilmer'
_symmetry_space_group_name_H-M	'P1'
_symmetry_Int_Tables_number	1
_symmetry_cell_setting	triclinic
loop_
_symmetry_equiv_pos_as_xyz
  x,y,z
_cell_length_a	6.817900
_cell_length_b	11.102244
_cell_length_c	12.908943
_cell_angle_alpha	94.411609
_cell_angle_beta	100.860631
_cell_angle_gamma	108.604870
loop_
_atom_site_label
_atom_site_type_symbol
_atom_site_fract_x
_atom_site_fract_y
_atom_site_fract_z
V1	V	-4.022083	-0.174252	-0.328679
O2	O	-3.982824	0.010006	-0.322425
O3	O	-3.999467	-0.347083	-0.326429
O4	O	-3.959856	-0.170855	-0.472029
O5	O	-4.022709	-0.167441	-0.175817
V6	V	-4.504162	-0.152297	-0.310396
O7	O	-4.286510	-0.222412	-0.368785
O8	O	-4.689933	-0.104138	-0.270290
O9	O	-4.303572	0.020533	-0.312647
O10	O	-4.660818	-0.336555	-0.316650
O11	O	-4.620933	-0.159108	-0.463258
O12	O	-4.343183	-0.155694	-0.167046
C13	C	-3.851187	-0.389237	-0.321243
C14	C	-3.913890	-0.530524	-0.320358
C15	C	-3.909445	-0.579227	-0.223410
C16	C	-3.968373	-0.711983	-0.222591
C17	C	-4.036179	-0.747323	-0.415677
C18	C	-3.977267	-0.614570	-0.416495
C19	C	-3.870289	-0.558824	-0.111932
C20	C	-3.929217	-0.691580	-0.111113
C21	C	-3.800659	-0.164440	-0.506969
C22	C	-3.831235	-0.162807	-0.624158
C23	C	-4.253824	-0.172349	-0.855104
C24	C	-4.282562	-0.170815	-0.965214
C25	C	-3.917450	-0.158195	-0.954488
C26	C	-3.888711	-0.159729	-0.844379
C27	C	-4.056907	-0.166809	-0.794691
C28	C	-4.028170	-0.168352	-0.684580
C29	C	-3.663055	-0.155723	-0.673855
C30	C	-3.691794	-0.154189	-0.783965
C31	C	-4.115195	0.062681	-0.317830
C32	C	-4.031730	0.203966	-0.318721
C33	C	-4.165723	-0.162113	-0.132101
C34	C	-4.114385	-0.163740	-0.014911
H35	H	-3.790000	-0.714826	-0.064059
H36	H	-3.554859	-0.148420	-0.824435
O37	O	-3.471948	-0.150598	-0.615122
C38	C	-3.497797	-0.261687	-0.565499
H39	H	-3.669741	-0.304160	-0.558386
H40	H	-3.388269	-0.235335	-0.482604
H41	H	-3.456283	-0.335393	-0.615376
O42	O	-4.474018	-0.176275	-1.023752
C43	C	-4.616281	-0.182822	-0.956275
H44	H	-4.561744	-0.222454	-0.881439
H45	H	-4.782127	-0.248750	-0.999856
H46	H	-4.620013	-0.082559	-0.932969
O47	O	-4.191303	-0.175053	-0.636169
C48	C	-4.132337	-0.065792	-0.558511
H49	H	-3.951769	-0.023704	-0.532588
H50	H	-4.201380	-0.094396	-0.486570
H51	H	-4.196182	0.009073	-0.593577
O52	O	-3.981589	-0.567050	-0.510580
C53	C	-3.915966	-0.431855	-0.490691
H54	H	-3.942162	-0.400777	-0.409651
H55	H	-4.012503	-0.396126	-0.555448
H56	H	-3.740172	-0.389339	-0.490893
H57	H	-4.390782	-0.178127	-0.814650
H58	H	-3.979438	-0.519915	-0.073386
O59	O	-4.098041	-0.829104	-0.508998
C60	C	-4.307643	-0.913052	-0.519309
H61	H	-4.344868	-0.919638	-0.437031
H62	H	-4.324412	-1.012507	-0.558469
H63	H	-4.423135	-0.874897	-0.570764
O64	O	-3.661568	-0.495882	-0.065895
C65	C	-3.643721	-0.405990	0.021754
H66	H	-3.794231	-0.379837	0.011379
H67	H	-3.501009	-0.315833	0.026386
H68	H	-3.621489	-0.449608	0.098370
O69	O	-4.108840	-0.739128	-0.074308
C70	C	-4.075774	-0.679056	0.030853
H71	H	-3.898400	-0.640222	0.068747
H72	H	-4.161088	-0.751914	0.079356
H73	H	-4.141095	-0.596458	0.029493
O74	O	-3.754163	-0.151144	-1.002867
C75	C	-3.706566	-0.039345	-1.051904
H76	H	-3.851610	-0.007752	-1.068271
H77	H	-3.661518	-0.060440	-1.130289
H78	H	-3.568084	0.040560	-0.996808
