data_functionalizedCrystal
_audit_creation_method	'MofGen! by Chris Wilmer'
_symmetry_space_group_name_H-M	'P1'
_symmetry_Int_Tables_number	1
_symmetry_cell_setting	triclinic
loop_
_symmetry_equiv_pos_as_xyz
  x,y,z
_cell_length_a	15.995300
_cell_length_b	19.188924
_cell_length_c	14.472310
_cell_angle_alpha	89.996838
_cell_angle_beta	89.985388
_cell_angle_gamma	83.306886
loop_
_atom_site_label
_atom_site_type_symbol
_atom_site_fract_x
_atom_site_fract_y
_atom_site_fract_z
O1	O	1.110691	0.089824	-0.076879
O2	O	1.610691	0.589824	0.423121
O3	O	0.866869	0.100974	-0.076874
O4	O	1.366869	0.600974	0.423126
O5	O	0.995819	-0.006240	-0.076866
O6	O	1.495819	0.493760	0.423134
O7	O	0.981741	0.197038	-0.076887
O8	O	1.481741	0.697038	0.423113
O9	O	0.995786	-0.006234	0.076816
O10	O	1.495786	0.493766	0.576816
O11	O	0.866836	0.100981	0.076808
O12	O	1.366836	0.600981	0.576808
O13	O	1.110658	0.089831	0.076803
O14	O	1.610658	0.589831	0.576803
Cu15	Cu	0.988744	0.095406	0.090838
Cu16	Cu	1.488744	0.595406	0.590838
Cu17	Cu	0.988783	0.095399	-0.090909
Cu18	Cu	1.488783	0.595399	0.409091
O19	O	0.981708	0.197045	0.076795
O20	O	1.481708	0.697045	0.576795
C21	C	0.835659	0.100523	-0.000032
C22	C	1.335659	0.600523	0.499968
C23	C	0.742711	0.099159	-0.000030
C24	C	1.242711	0.599159	0.499970
C25	C	0.572537	0.096642	-0.000037
C26	C	1.072537	0.596642	0.499963
C27	C	0.524790	0.172980	-0.000043
C28	C	1.024790	0.672980	0.499957
C29	C	0.428107	0.171588	-0.000394
C30	C	0.928107	0.671588	0.499606
C31	C	0.404990	0.094163	-0.000042
C32	C	0.904990	0.594163	0.499958
C33	C	0.446281	0.056286	-0.087625
C34	C	0.946281	0.556286	0.412375
C35	C	0.542907	0.058217	-0.087697
C36	C	1.042907	0.558217	0.412303
C37	C	0.543153	0.057094	0.087075
C38	C	1.043153	0.557094	0.587075
C39	C	0.446209	0.057101	0.088224
C40	C	0.946209	0.557101	0.588224
C41	C	0.310300	0.092759	-0.000049
C42	C	0.810300	0.592759	0.499951
C43	C	0.667228	0.098044	-0.000037
C44	C	1.167228	0.598044	0.499963
C45	C	0.995348	-0.032249	-0.000024
C46	C	1.495348	0.467751	0.499976
C47	C	0.993982	-0.109757	-0.000021
C48	C	1.493982	0.390243	0.499979
C49	C	0.993363	-0.146161	-0.083794
C50	C	1.493363	0.353839	0.416206
C51	C	0.992068	-0.218986	-0.083801
C52	C	1.492068	0.281014	0.416199
C53	C	0.991409	-0.255408	-0.000031
C54	C	1.491409	0.244592	0.499969
C55	C	0.992023	-0.218994	0.083753
C56	C	1.492023	0.281006	0.583753
C57	C	0.993310	-0.146169	0.083757
C58	C	1.493310	0.353831	0.583757
N59	N	1.037024	-0.374959	0.062316
N60	N	1.537024	0.125041	0.562316
N61	N	1.035804	-0.444140	0.062306
N62	N	1.535804	0.055860	0.562306
C63	C	0.987530	-0.474826	-0.000039
C64	C	1.487530	0.025174	0.499961
N65	N	0.940534	-0.433718	-0.062389
N66	N	1.440534	0.066282	0.437611
N67	N	0.941758	-0.364531	-0.062382
N68	N	1.441758	0.135469	0.437618
C69	C	0.990013	-0.334374	-0.000026
C70	C	1.490013	0.165626	0.499974
C71	C	0.985505	-0.590196	-0.083825
C72	C	1.485505	-0.090196	0.416175
C73	C	0.984205	-0.663022	-0.083829
C74	C	1.484205	-0.163022	0.416171
C75	C	0.984169	-0.663030	0.083727
C76	C	1.484169	-0.163030	0.583727
C77	C	0.985461	-0.590204	0.083728
C78	C	1.485461	-0.090204	0.583728
C79	C	0.986133	-0.553791	-0.000050
C80	C	1.486133	-0.053791	0.499950
C81	C	1.141868	0.090282	-0.000041
C82	C	1.641868	0.590282	0.499959
C83	C	1.234816	0.091646	-0.000049
C84	C	1.734816	0.591646	0.499951
C85	C	0.982179	0.223054	-0.000049
C86	C	1.482179	0.723054	0.499951
C87	C	0.983545	0.300562	-0.000058
C88	C	1.483545	0.800562	0.499942
N89	N	0.988722	0.095411	0.218669
N90	N	1.488722	0.595411	0.718669
N91	N	0.988811	0.095389	-0.218740
N92	N	1.488811	0.595389	0.281260
C93	C	0.988782	0.095396	0.592760
C94	C	1.488782	0.595396	1.092760
C95	C	0.919553	0.152572	0.553590
C96	C	1.419553	0.652572	1.053590
C97	C	0.919712	0.152780	0.446502
C98	C	1.419712	0.652780	0.946502
C99	C	0.988752	0.095403	0.407169
C100	C	1.488752	0.595403	0.907169
C101	C	1.076060	0.111302	0.446002
C102	C	1.576060	0.611302	0.946002
C103	C	1.075670	0.111708	0.553124
C104	C	1.575670	0.611708	1.053124
C105	C	0.971483	0.022152	0.553298
C106	C	1.471483	0.522152	1.053298
C107	C	0.969477	0.022641	0.446170
C108	C	1.469477	0.522641	0.946170
C109	C	0.988740	0.095406	0.302281
C110	C	1.488740	0.595406	0.802281
C111	C	0.988799	0.095395	0.697648
C112	C	1.488799	0.595395	1.197648
H113	H	0.993907	-0.116518	-0.152013
H114	H	1.493907	0.383482	0.347987
H115	H	0.983697	-0.692661	-0.152049
H116	H	1.483697	-0.192661	0.347951
H117	H	0.909215	0.006861	0.580368
H118	H	1.409215	0.506861	1.080368
H119	H	0.854436	0.143257	0.579380
H120	H	1.354436	0.643257	1.079380
H121	H	0.993811	-0.116529	0.151977
H122	H	1.493811	0.383471	0.651977
H123	H	1.090956	0.165124	0.578093
H124	H	1.590956	0.665124	1.078093
H125	H	0.905254	0.010575	0.420791
H126	H	1.405254	0.510575	0.920791
N127	N	0.583284	-0.013511	0.088169
N128	N	1.083284	0.486489	0.588169
N129	N	0.568321	-0.054025	0.152158
N130	N	1.068321	0.445975	0.652158
H131	H	0.596666	-0.103888	0.152926
H132	H	1.096666	0.396112	0.652926
H133	H	0.854805	0.143310	0.420248
H134	H	1.354805	0.643310	0.920248
N135	N	1.142218	0.061450	0.585619
N136	N	1.642218	0.561450	1.085619
N137	N	1.188804	0.026190	0.529180
N138	N	1.688804	0.526190	1.029180
H139	H	1.235806	-0.009303	0.552125
H140	H	1.735806	0.490697	1.052125
H141	H	1.091717	0.164109	0.419159
H142	H	1.591717	0.664109	0.919159
H143	H	1.016646	-0.021899	0.419400
H144	H	1.516646	0.478101	0.919400
N145	N	0.549242	0.210890	-0.078731
N146	N	1.049242	0.710890	0.421269
N147	N	0.495263	0.234480	-0.136659
N148	N	0.995263	0.734480	0.363341
H149	H	0.512532	0.261252	-0.192235
H150	H	1.012532	0.761252	0.307765
N151	N	0.410627	0.088875	-0.169721
N152	N	0.910627	0.588875	0.330279
N153	N	0.435289	0.066245	-0.247231
N154	N	0.935289	0.566245	0.252769
H155	H	0.410111	0.089265	-0.305211
H156	H	0.910111	0.589265	0.194789
H157	H	0.543154	0.203661	0.062753
H158	H	1.043154	0.703661	0.562753
N159	N	1.142210	0.060445	0.414037
N160	N	1.642210	0.560445	0.914037
N161	N	1.125706	0.011800	0.362154
N162	N	1.625706	0.511800	0.862154
H163	H	1.172423	-0.024120	0.339577
H164	H	1.672423	0.475880	0.839577
H165	H	0.983627	-0.692682	0.151934
H166	H	1.483627	-0.192682	0.651934
H167	H	0.400163	0.201217	-0.063549
H168	H	0.900163	0.701217	0.436451
H169	H	1.021971	-0.020396	0.578627
H170	H	1.521971	0.479604	1.078627
N171	N	0.933171	0.220374	0.587348
N172	N	1.433171	0.720374	1.087348
N173	N	0.932135	0.232120	0.672318
N174	N	1.432135	0.732120	1.172318
H175	H	0.941754	0.280004	0.696163
H176	H	1.441754	0.780004	1.196163
N177	N	0.392253	0.208920	0.078355
N178	N	0.892253	0.708920	0.578355
N179	N	0.438628	0.236190	0.133959
N180	N	0.938628	0.736190	0.633959
H181	H	0.413310	0.262560	0.189577
H182	H	0.913310	0.762560	0.689577
H183	H	0.985973	-0.560564	0.151945
H184	H	1.485973	-0.060564	0.651945
N185	N	0.991342	-0.256183	0.169330
N186	N	1.491342	0.243817	0.669330
N187	N	0.932461	-0.241605	0.225420
N188	N	1.432461	0.258395	0.725420
H189	H	0.931974	-0.267868	0.285863
H190	H	1.431974	0.232132	0.785863
H191	H	0.561140	0.085511	-0.153420
H192	H	1.061140	0.585511	0.346580
H193	H	0.930731	0.207134	0.420861
H194	H	1.430731	0.707134	0.920861
H195	H	0.986048	-0.560547	-0.152043
H196	H	1.486048	-0.060547	0.347957
H197	H	0.431078	0.000654	0.093777
H198	H	0.931078	0.500654	0.593777
H199	H	0.575388	0.002161	-0.091433
H200	H	1.075388	0.502161	0.408567
H201	H	0.563546	0.082230	0.153479
H202	H	1.063546	0.582230	0.653479
N203	N	0.428857	-0.015082	-0.091387
N204	N	0.928857	0.484918	0.408613
N205	N	0.385708	-0.038879	-0.029413
N206	N	0.885708	0.461121	0.470587
H207	H	0.373400	-0.089283	-0.032067
H208	H	0.873400	0.410717	0.467933
N209	N	0.411771	0.091812	0.169503
N210	N	0.911771	0.591812	0.669503
N211	N	0.357071	0.143652	0.162522
N212	N	0.857071	0.643652	0.662522
H213	H	0.332747	0.168171	0.219925
H214	H	0.832747	0.668171	0.719925
H215	H	0.991558	-0.248632	-0.152020
H216	H	1.491558	0.251368	0.347980
