data_functionalizedCrystal
_audit_creation_method	'MofGen! by Chris Wilmer'
_symmetry_space_group_name_H-M	'P1'
_symmetry_Int_Tables_number	1
_symmetry_cell_setting	triclinic
loop_
_symmetry_equiv_pos_as_xyz
  x,y,z
_cell_length_a	16.109301
_cell_length_b	15.995350
_cell_length_c	14.586319
_cell_angle_alpha	89.998440
_cell_angle_beta	89.999213
_cell_angle_gamma	83.476928
loop_
_atom_site_label
_atom_site_type_symbol
_atom_site_fract_x
_atom_site_fract_y
_atom_site_fract_z
O1	O	1.103160	0.107624	-0.076178
O2	O	0.861101	0.121018	-0.076192
O3	O	0.988747	-0.007569	-0.076184
O4	O	0.975514	0.236210	-0.076186
O5	O	0.988739	-0.007570	0.076297
O6	O	0.861093	0.121016	0.076289
O7	O	1.103151	0.107622	0.076303
Cu8	Cu	0.982121	0.114319	0.090219
Cu9	Cu	0.982131	0.114321	-0.090107
O10	O	0.975505	0.236208	0.076295
C11	C	0.830122	0.120474	0.000047
C12	C	0.737826	0.118848	0.000041
C13	C	0.515573	0.191366	0.000051
C14	C	0.428853	0.189831	0.000057
C15	C	0.448686	0.037268	0.000055
C16	C	0.535405	0.038804	0.000055
C17	C	0.568846	0.115855	0.000049
C18	C	0.395406	0.112785	0.000054
C19	C	0.301380	0.111120	0.000061
C20	C	0.662879	0.117520	0.000044
C21	C	0.988196	-0.038764	0.000055
C22	C	0.986556	-0.131714	0.000050
C23	C	0.980665	-0.469460	0.000053
C24	C	0.889758	-0.422001	-0.000295
C25	C	0.891399	-0.325311	0.000049
C26	C	0.983587	-0.301900	0.000051
C27	C	1.028421	-0.342991	0.087126
C28	C	1.026137	-0.439626	0.087198
C29	C	1.028025	-0.439983	-0.086201
C30	C	1.028003	-0.343037	-0.087351
C31	C	0.985243	-0.207203	0.000053
C32	C	0.979012	-0.564157	0.000057
C33	C	1.134130	0.108166	0.000062
C34	C	1.226426	0.109792	0.000062
C35	C	0.976056	0.267404	0.000054
C36	C	0.977697	0.360354	0.000053
N37	N	0.982120	0.114317	0.217050
N38	N	0.982139	0.114317	-0.216939
C39	C	1.038660	0.057398	0.452061
C40	C	1.038662	0.057396	0.548042
C41	C	0.925593	0.171238	0.548044
C42	C	0.925587	0.171236	0.452064
C43	C	0.982125	0.114316	0.404075
C44	C	0.982134	0.114317	0.596036
C45	C	0.982136	0.114315	0.700103
C46	C	0.982122	0.114317	0.300001
H47	H	0.385481	0.251320	0.000061
N48	N	1.114539	-0.482371	0.092466
H49	H	1.113746	-0.545419	0.092559
H50	H	1.147260	-0.465520	0.037737
H51	H	0.997274	-0.314602	0.151923
N52	N	1.116809	-0.482070	-0.086970
H53	H	1.156758	-0.437797	-0.084931
H54	H	1.126260	-0.520049	-0.031747
H55	H	0.853581	-0.441586	0.061797
H56	H	0.542798	0.254106	0.000053
N57	N	0.864626	0.232631	0.599813
H58	H	0.874199	0.292060	0.583103
H59	H	0.805646	0.222899	0.583100
N60	N	0.412607	-0.045829	0.000062
H61	H	0.377070	-0.049865	-0.056463
H62	H	0.459559	-0.093387	0.000100
N63	N	1.099636	-0.003991	0.400299
H64	H	1.135449	-0.040050	0.445265
H65	H	1.067807	-0.041018	0.360481
N66	N	0.844726	-0.287639	-0.082633
H67	H	0.796342	-0.246272	-0.061848
H68	H	0.883734	-0.257615	-0.121776
N69	N	0.844399	-0.288380	0.082866
H70	H	0.822538	-0.334921	0.119295
H71	H	0.883200	-0.258542	0.122472
H72	H	1.084697	0.011047	0.587109
N73	N	0.592872	-0.042644	0.000064
H74	H	0.558529	-0.091689	0.000063
H75	H	0.629289	-0.045329	-0.056460
H76	H	0.879546	0.217586	0.412992
H77	H	0.853427	-0.440522	-0.062738
N78	N	0.982821	-0.463859	0.173413
H79	H	0.924000	-0.434299	0.174882
H80	H	0.980965	-0.526755	0.174274
N81	N	1.118144	-0.324339	0.091407
H82	H	1.130621	-0.288983	0.036815
H83	H	1.127396	-0.292693	0.149758
N84	N	0.988668	-0.467177	-0.173626
H85	H	0.939734	-0.498886	-0.158202
H86	H	0.968643	-0.415916	-0.211411
H87	H	0.995224	-0.315779	-0.151767
H88	H	1.095231	-0.327694	-0.092608
