data_functionalizedCrystal
_audit_creation_method	'MofGen! by Chris Wilmer'
_symmetry_space_group_name_H-M	'P1'
_symmetry_Int_Tables_number	1
_symmetry_cell_setting	triclinic
loop_
_symmetry_equiv_pos_as_xyz
  x,y,z
_cell_length_a	16.109318
_cell_length_b	15.186229
_cell_length_c	16.109301
_cell_angle_alpha	89.995060
_cell_angle_beta	83.465022
_cell_angle_gamma	90.000053
loop_
_atom_site_label
_atom_site_type_symbol
_atom_site_fract_x
_atom_site_fract_y
_atom_site_fract_z
O1	O	1.103122	-0.073158	0.106934
O2	O	0.861062	-0.073176	0.120219
O3	O	0.988741	-0.073158	-0.007454
O4	O	0.975442	-0.073177	0.234607
O5	O	0.988732	0.073300	-0.007455
O6	O	0.861053	0.073281	0.120217
O7	O	1.103113	0.073299	0.106933
Zn8	Zn	0.982081	0.096543	0.113575
Zn9	Zn	0.982093	-0.096420	0.113577
O10	O	0.975433	0.073281	0.234606
C11	C	0.830083	0.000050	0.119677
C12	C	0.737788	0.000043	0.118057
N13	N	0.982079	0.228236	0.113574
C14	C	0.438719	-0.079774	0.112822
C15	C	0.525441	-0.079780	0.114340
C16	C	0.525450	0.079896	0.114327
C17	C	0.438731	0.079900	0.112804
C18	C	0.395367	0.000063	0.112056
C19	C	0.568807	0.000052	0.115096
C20	C	0.662835	0.000047	0.116742
C21	C	0.301334	0.000068	0.110409
C22	C	1.038634	0.453967	0.057060
C23	C	1.038637	0.546157	0.057058
C24	C	0.925538	0.546149	0.170092
C25	C	0.925532	0.453961	0.170089
C26	C	0.982085	0.407873	0.113574
C27	C	0.982093	0.592250	0.113575
C28	C	0.982095	0.692206	0.113574
C29	C	0.982082	0.307910	0.113574
C30	C	1.134092	0.000071	0.107474
C31	C	1.226387	0.000072	0.109095
N32	N	0.982099	0.771887	0.113576
C33	C	0.988198	0.000071	-0.038430
C34	C	0.986583	0.000072	-0.130725
C35	C	1.058590	0.000064	-0.352993
C36	C	1.057066	0.000057	-0.439713
C37	C	0.905579	0.000049	-0.419848
C38	C	0.907104	0.000050	-0.333130
C39	C	0.983612	0.000062	-0.299704
C40	C	0.980563	0.000053	-0.473144
C41	C	0.978910	0.000045	-0.567170
C42	C	0.985265	0.000068	-0.205672
C43	C	0.975976	0.000050	0.265581
C44	C	0.977592	0.000043	0.357877
H45	H	0.560734	-0.144791	0.114963
O46	O	1.132855	-0.000051	-0.320423
C47	C	1.138277	-0.075913	-0.270866
H48	H	1.072743	-0.101200	-0.249248
H49	H	1.171407	-0.058854	-0.214091
H50	H	1.175065	-0.129028	-0.309184
O51	O	0.396729	-0.157404	0.112056
C52	C	0.453591	-0.227871	0.113080
H53	H	0.518856	-0.204467	0.087856
H54	H	0.433821	-0.283707	0.072305
H55	H	0.454075	-0.252419	0.179903
O56	O	0.567697	0.157367	0.115101
C57	C	0.653537	0.140246	0.116592
H58	H	0.661927	0.071631	0.143109
H59	H	0.681206	0.191230	0.157510
H60	H	0.686888	0.144032	0.050365
O61	O	0.396736	0.157538	0.112099
C62	C	0.453605	0.228004	0.113072
H63	H	0.511972	0.204600	0.140467
H64	H	0.423259	0.283841	0.152966
H65	H	0.471570	0.252551	0.046572
H66	H	1.118121	0.000056	-0.483098
H67	H	1.084682	0.416444	0.011041
O68	O	0.831335	0.000084	-0.452458
C69	C	0.846065	0.000065	-0.540426
H70	H	0.910951	0.027793	-0.560807
H71	H	0.797112	0.042585	-0.567042
H72	H	0.842042	-0.070198	-0.564560
O73	O	0.870690	0.591058	0.224962
C74	C	0.882808	0.682311	0.212836
H75	H	0.948913	0.694901	0.181783
H76	H	0.873545	0.717337	0.275798
H77	H	0.835765	0.708483	0.171122
H78	H	1.084683	0.583684	0.011039
H79	H	0.846043	0.000045	-0.289740
O80	O	0.870566	0.409316	0.225071
C81	C	0.820643	0.469761	0.274944
H82	H	0.854729	0.535474	0.275902
H83	H	0.807938	0.443112	0.341335
H84	H	0.758893	0.479573	0.247926
