data_functionalizedCrystal
_audit_creation_method	'MofGen! by Chris Wilmer'
_symmetry_space_group_name_H-M	'P1'
_symmetry_Int_Tables_number	1
_symmetry_cell_setting	triclinic
loop_
_symmetry_equiv_pos_as_xyz
  x,y,z
_cell_length_a	10.540539
_cell_length_b	11.792241
_cell_length_c	10.268362
_cell_angle_alpha	90.005428
_cell_angle_beta	89.999003
_cell_angle_gamma	95.640546
loop_
_atom_site_label
_atom_site_type_symbol
_atom_site_fract_x
_atom_site_fract_y
_atom_site_fract_z
O1	O	1.685366	-0.159957	-0.108194
O2	O	1.315904	-0.175028	-0.108220
O3	O	1.509601	-0.002345	-0.108197
O4	O	1.491670	-0.332639	-0.108216
O5	O	1.509584	-0.002338	0.108404
O6	O	1.315887	-0.175021	0.108381
O7	O	1.685349	-0.159950	0.108407
Cu8	Cu	1.500617	-0.167484	0.128171
Cu9	Cu	1.500637	-0.167493	-0.127984
O10	O	1.491653	-0.332632	0.108384
C11	C	1.268596	-0.173894	0.000077
C12	C	1.127659	-0.170513	0.000068
C13	C	1.508466	0.039952	0.000103
C14	C	1.505095	0.165975	0.000101
C15	C	1.732657	-0.161083	0.000107
C16	C	1.873594	-0.164465	0.000108
C17	C	2.056599	-0.294036	0.000557
C18	C	1.909992	-0.290608	0.000091
C19	C	1.935434	-0.103762	-0.123585
C20	C	2.081964	-0.108068	-0.123710
C21	C	2.082523	-0.105495	0.122605
C22	C	1.935545	-0.104333	0.124262
C23	C	1.492787	-0.374930	0.000081
C24	C	1.496159	-0.500952	0.000074
N25	N	1.500612	-0.167478	0.308337
C26	C	1.498896	0.396703	0.000079
C27	C	1.502340	0.268309	0.000091
N28	N	1.500652	-0.167491	-0.308150
C29	C	1.500630	-0.167491	0.574008
C30	C	1.500616	-0.167487	0.426170
H31	H	1.867244	-0.338378	0.088755
C32	C	1.877622	-0.160684	-0.247934
N33	N	1.834056	-0.203545	-0.341591
H34	H	2.110005	-0.152938	-0.216176
C35	C	2.146722	0.017594	0.123730
N36	N	2.195082	0.110302	0.124567
H37	H	1.868068	-0.338709	-0.088723
C38	C	2.147169	0.014488	-0.131321
N39	N	2.196275	0.106795	-0.137067
H40	H	2.113957	-0.146317	0.216346
C41	C	1.880054	-0.164248	0.247886
N42	N	1.838248	-0.209376	0.340999
H43	H	2.085051	-0.343864	0.089247
H44	H	1.911627	-0.012364	0.131740
C45	C	1.905636	0.021384	-0.129792
N46	N	1.883188	0.115643	-0.134466
H47	H	2.086632	-0.343665	-0.087655
