data_functionalizedCrystal
_audit_creation_method	'MofGen! by Chris Wilmer'
_symmetry_space_group_name_H-M	'P1'
_symmetry_Int_Tables_number	1
_symmetry_cell_setting	triclinic
loop_
_symmetry_equiv_pos_as_xyz
  x,y,z
_cell_length_a	17.019372
_cell_length_b	17.038272
_cell_length_c	15.500358
_cell_angle_alpha	86.958351
_cell_angle_beta	96.694282
_cell_angle_gamma	87.242864
loop_
_atom_site_label
_atom_site_type_symbol
_atom_site_fract_x
_atom_site_fract_y
_atom_site_fract_z
O1	O	1.053656	0.099246	0.006485
O2	O	0.824035	0.112816	-0.010608
O3	O	0.937481	-0.007779	-0.002156
O4	O	0.940210	0.219840	-0.001967
O5	O	0.944327	-0.015071	0.142239
O6	O	0.830881	0.105523	0.133787
O7	O	1.060502	0.091954	0.150881
Cu8	Cu	0.946317	0.098073	0.155518
Cu9	Cu	0.938221	0.106697	-0.015246
O10	O	0.947056	0.212548	0.142429
C11	C	0.797933	0.108800	0.059391
C12	C	0.709956	0.107688	0.052842
C13	C	0.212188	0.101578	0.011795
C14	C	0.294852	0.102622	0.017960
C15	C	0.339908	0.099175	0.099754
C16	C	0.302296	0.094675	0.175387
C17	C	0.219633	0.093626	0.169221
C18	C	0.589681	0.102139	0.122309
C19	C	0.672349	0.103191	0.128470
C20	C	0.664900	0.111137	-0.028958
C21	C	0.582236	0.110092	-0.035116
C22	C	0.544631	0.105588	0.040517
C23	C	0.424404	0.100244	0.106058
C24	C	0.460137	0.104513	0.034212
C25	C	0.938422	-0.040541	0.069857
C26	C	0.931015	-0.127300	0.069305
C27	C	0.999015	-0.177730	0.074368
C28	C	0.992051	-0.259248	0.073841
C29	C	0.917087	-0.290334	0.068258
C30	C	0.849082	-0.239898	0.063192
C31	C	0.856046	-0.158382	0.063712
C32	C	0.892482	-0.535978	0.066414
C33	C	0.885522	-0.617501	0.065897
C34	C	1.028492	-0.636844	0.076545
C35	C	1.035450	-0.555326	0.077070
C36	C	0.967445	-0.504896	0.071999
C37	C	0.909966	-0.373659	0.067722
C38	C	0.974566	-0.421573	0.072529
C39	C	1.086605	0.095970	0.080879
C40	C	1.174581	0.097082	0.087423
C41	C	0.946115	0.245311	0.070414
C42	C	0.953522	0.332070	0.070960
N43	N	0.952017	0.092007	0.275625
C44	C	0.980602	0.061681	0.822930
C45	C	0.976273	0.066278	0.732037
C46	C	0.923858	0.121953	0.682862
C47	C	0.875775	0.173039	0.724585
C48	C	0.880107	0.168444	0.815477
C49	C	0.908266	0.138498	0.408240
C50	C	0.903935	0.143087	0.317342
C51	C	1.004435	0.036327	0.324801
C52	C	1.008760	0.031735	0.415694
C53	C	0.960679	0.082823	0.457409
C54	C	0.919431	0.126652	0.589954
C55	C	0.965111	0.078128	0.550316
N56	N	0.932520	0.112761	0.864647
H57	H	0.695527	0.114802	-0.090533
C58	C	1.038260	0.000437	0.877018
C59	C	1.091167	-0.055732	0.831127
C60	C	1.148829	-0.116976	0.885212
C61	C	1.153584	-0.122050	0.985189
C62	C	1.100675	-0.065878	1.031086
C63	C	1.043013	-0.004635	0.977000
H64	H	1.087649	-0.051978	0.757113
H65	H	1.187996	-0.158558	0.851235
H66	H	1.196269	-0.167386	1.025226
H67	H	1.104193	-0.069633	1.105099
H68	H	1.003846	0.036947	1.010977
H69	H	1.051440	-0.013600	0.455731
H70	H	1.060059	-0.152426	0.078920
H71	H	0.545557	0.112898	-0.101721
H72	H	1.043581	-0.005266	0.290828
H73	H	0.861249	0.188426	0.277307
H74	H	1.015426	0.024685	0.698072
C75	C	0.721927	0.099428	0.218439
C76	C	0.709205	0.163899	0.282167
C77	C	0.758790	0.160154	0.372126
C78	C	0.821095	0.091939	0.398357
C79	C	0.833819	0.027464	0.334627
C80	C	0.784235	0.031208	0.244668
H81	H	0.663080	0.214400	0.262750
H82	H	0.749370	0.207883	0.419302
H83	H	0.857800	0.089167	0.464950
H84	H	0.879944	-0.023037	0.354044
H85	H	0.793655	-0.016521	0.197492
H86	H	1.035600	-0.396258	0.077056
H87	H	0.848930	-0.398979	0.063178
C88	C	0.818116	0.234282	0.670497
C89	C	0.728489	0.232723	0.676312
C90	C	0.670827	0.293967	0.622227
C91	C	0.702792	0.356770	0.562326
C92	C	0.792424	0.358331	0.556509
C93	C	0.850086	0.297088	0.610594
H94	H	0.704822	0.186230	0.720656
H95	H	0.604475	0.292810	0.626534
H96	H	0.660107	0.402106	0.522289
H97	H	0.816091	0.404824	0.512165
H98	H	0.916438	0.298244	0.606287
H99	H	0.461097	0.097439	0.172654
H100	H	0.559074	0.098461	0.183895
C101	C	0.351861	0.090888	0.265358
C102	C	0.405284	0.158396	0.290895
C103	C	0.454850	0.154614	0.380865
C104	C	0.450994	0.083325	0.445299
C105	C	0.397568	0.015812	0.419764
C106	C	0.348002	0.019594	0.329793
H107	H	0.408141	0.211173	0.243195
H108	H	0.494399	0.204592	0.399768
H109	H	0.487686	0.080525	0.511901
H110	H	0.394711	-0.036965	0.467463
H111	H	0.308453	-0.030384	0.310890
C112	C	0.827215	0.224632	0.861368
C113	C	0.769557	0.285872	0.807280
C114	C	0.716666	0.342065	0.853170
C115	C	0.721431	0.337018	0.953147
C116	C	0.779091	0.275776	1.007241
C117	C	0.831982	0.219583	0.961351
H118	H	0.766028	0.289610	0.733266
H119	H	0.673982	0.387401	0.813126
H120	H	0.682278	0.378616	0.987118
H121	H	0.782621	0.272038	1.081255
H122	H	0.874666	0.174248	1.001395
H123	H	0.800674	-0.117322	0.059589
H124	H	0.869115	0.180095	0.442198
H125	H	1.083857	-0.677912	0.080671
C126	C	0.817675	-0.480517	0.060852
C127	C	0.754183	-0.479960	-0.018583
C128	C	0.679372	-0.424497	-0.024141
C129	C	0.668053	-0.369591	0.049737
C130	C	0.731547	-0.370146	0.129178
C131	C	0.806358	-0.425609	0.134736
H132	H	0.762561	-0.520607	-0.073277
H133	H	0.632370	-0.424087	-0.082948
H134	H	0.612674	-0.328534	0.045623
H135	H	0.723170	-0.329499	0.183872
H136	H	0.853361	-0.426019	0.193544
H137	H	1.007790	0.032800	0.590357
H138	H	0.175509	0.104391	-0.054810
H139	H	0.325468	0.106279	-0.043623
H140	H	0.876752	0.171982	0.549908
H141	H	0.423450	0.107317	-0.032384
C142	C	0.178261	0.088683	0.252411
C143	C	0.188269	0.153423	0.317858
C144	C	0.146898	0.148477	0.401051
C145	C	0.095519	0.078790	0.418797
C146	C	0.085509	0.014045	0.353349
C147	C	0.126880	0.018991	0.270156
H148	H	0.226305	0.205014	0.304722
H149	H	0.154308	0.196406	0.449500
H150	H	0.064894	0.075128	0.480382
H151	H	0.047473	-0.037546	0.366485
H152	H	0.119470	-0.028938	0.221707
H153	H	1.047424	-0.300305	0.077966
H154	H	1.096494	-0.530021	0.081617
H155	H	0.824475	-0.642808	0.061364
H156	H	0.788044	-0.265215	0.058640
