data_functionalizedCrystal
_audit_creation_method	'MofGen! by Chris Wilmer'
_symmetry_space_group_name_H-M	'P1'
_symmetry_Int_Tables_number	1
_symmetry_cell_setting	triclinic
loop_
_symmetry_equiv_pos_as_xyz
  x,y,z
_cell_length_a	18.050589
_cell_length_b	18.050590
_cell_length_c	12.759393
_cell_angle_alpha	90.003398
_cell_angle_beta	89.970705
_cell_angle_gamma	89.984959
loop_
_atom_site_label
_atom_site_type_symbol
_atom_site_fract_x
_atom_site_fract_y
_atom_site_fract_z
Zn1	Zn	-0.295887	-1.135344	-0.593558
Zn2	Zn	-0.420094	-1.135239	-0.417881
Zn3	Zn	-0.295894	-1.011148	-0.417945
Zn4	Zn	-0.420011	-1.011111	-0.593570
O5	O	-0.357971	-1.073210	-0.505738
O6	O	-0.312395	-1.239255	-0.570223
O7	O	-0.403656	-1.118750	-0.270868
O8	O	-0.191968	-1.027682	-0.441262
O9	O	-0.403650	-1.239178	-0.441154
O10	O	-0.191963	-1.118928	-0.570284
O11	O	-0.312407	-1.027580	-0.270915
O12	O	-0.312326	-0.907218	-0.441273
O13	O	-0.403508	-1.027619	-0.740589
O14	O	-0.403515	-0.907191	-0.570304
O15	O	-0.312314	-1.118892	-0.740581
O16	O	-0.524008	-1.118714	-0.441165
O17	O	-0.523946	-1.027518	-0.570242
C18	C	-0.357913	-0.880258	-0.505797
C19	C	-0.357905	-0.797713	-0.505847
C20	C	-0.550923	-1.073121	-0.505721
C21	C	-0.633469	-1.073150	-0.505749
C22	C	-0.407628	-0.598269	-0.575862
C23	C	-0.339907	-0.548878	-0.601712
C24	C	-0.357941	-0.646582	-0.505807
C25	C	-0.425694	-0.548891	-0.479966
C26	C	-0.357981	-0.500597	-0.505769
C27	C	-0.290184	-0.598279	-0.531707
C28	C	-0.376017	-0.598296	-0.409916
C29	C	-0.308250	-0.548928	-0.435730
C30	C	-0.357919	-0.730681	-0.505831
C31	C	-0.357995	-0.416501	-0.505745
C32	C	-0.832914	-1.023607	-0.575916
C33	C	-0.882356	-1.005500	-0.480055
C34	C	-0.784600	-1.073223	-0.505762
C35	C	-0.882238	-1.091366	-0.601635
C36	C	-0.930585	-1.073292	-0.505784
C37	C	-0.832955	-1.055082	-0.409850
C38	C	-0.832833	-1.140979	-0.531494
C39	C	-0.882253	-1.122898	-0.435567
C40	C	-0.700501	-1.073182	-0.505751
C41	C	-1.014681	-1.073334	-0.505784
C42	C	-0.164266	-1.073321	-0.505779
C43	C	-0.081720	-1.073368	-0.505796
C44	C	-0.357901	-1.073263	-0.779772
C45	C	-0.357871	-1.073286	-0.896549
C46	C	-0.358020	-0.266916	-0.505698
C47	C	-0.358015	-0.349462	-0.505725
C48	C	-0.310344	-1.120832	-1.061133
C49	C	-0.310376	-1.120816	-0.951409
C50	C	-0.405341	-1.025774	-0.951418
C51	C	-0.405312	-1.025794	-1.061140
C52	C	-0.262841	-1.168360	-1.115987
C53	C	-0.215371	-1.215873	-1.061125
C54	C	-0.215404	-1.215857	-0.951401
C55	C	-0.262906	-1.168328	-0.896539
C56	C	-0.357988	-1.073201	-0.232771
C57	C	-0.357809	-1.073322	-0.115995
H58	H	-0.449575	-0.619936	-0.635167
Cl59	Cl	-0.799221	-1.229374	-0.565138
H60	H	-0.266200	-0.527400	-0.376471
Cl61	Cl	-0.262953	-1.168317	-0.758598
H62	H	-0.232886	-0.619881	-0.553638
H63	H	-0.482975	-0.527194	-0.458129
Cl64	Cl	-0.399621	-0.631812	-0.284756
H65	H	-0.443962	-0.987107	-1.105810
H66	H	-0.324630	-0.527171	-0.682788
H67	H	-0.904126	-0.948234	-0.458310
Cl68	Cl	-0.799462	-0.958733	-0.667385
Cl69	Cl	-0.799675	-1.031331	-0.284648
Cl70	Cl	-0.915665	-1.115015	-0.726797
H71	H	-0.903781	-1.164887	-0.376181
H72	H	-0.262807	-1.168376	-1.205330
Cl73	Cl	-0.155665	-1.275627	-1.130092
Cl74	Cl	-0.155735	-1.275593	-0.882434
H75	H	-0.444014	-0.987077	-0.906741
