data_functionalizedCrystal
_audit_creation_method	'MofGen! by Chris Wilmer'
_symmetry_space_group_name_H-M	'P1'
_symmetry_Int_Tables_number	1
_symmetry_cell_setting	triclinic
loop_
_symmetry_equiv_pos_as_xyz
  x,y,z
_cell_length_a	16.625548
_cell_length_b	15.297327
_cell_length_c	15.296720
_cell_angle_alpha	72.680778
_cell_angle_beta	80.338886
_cell_angle_gamma	99.707980
loop_
_atom_site_label
_atom_site_type_symbol
_atom_site_fract_x
_atom_site_fract_y
_atom_site_fract_z
Zn1	Zn	-1.070017	0.461202	-0.589830
Zn2	Zn	-0.570017	0.961202	-0.089830
Zn3	Zn	-1.069925	0.589823	-0.461224
Zn4	Zn	-0.569925	1.089823	0.038776
Zn5	Zn	-0.963404	0.434332	-0.434348
Zn6	Zn	-0.463404	0.934332	0.065652
Zn7	Zn	-0.906939	0.616669	-0.616669
Zn8	Zn	-0.406939	1.116669	-0.116669
O9	O	-1.002571	0.525506	-0.525518
O10	O	-0.502571	1.025506	-0.025518
O11	O	-1.182833	0.478274	-0.572786
O12	O	-0.682833	0.978274	-0.072786
O13	O	-1.079387	0.546717	-0.327535
O14	O	-0.579387	1.046717	0.172465
O15	O	-1.001215	0.307759	-0.432493
O16	O	-0.501215	0.807759	0.067507
O17	O	-1.182766	0.572771	-0.478300
O18	O	-0.682766	1.072771	0.021700
O19	O	-1.079544	0.327500	-0.546725
O20	O	-0.579544	0.827500	-0.046725
O21	O	-1.001126	0.432478	-0.307789
O22	O	-0.501126	0.932478	0.192211
O23	O	-0.843085	0.458509	-0.458518
O24	O	-0.343085	0.958509	0.041482
O25	O	-0.904979	0.618526	-0.743233
O26	O	-0.404979	1.118526	-0.243233
O27	O	-0.801601	0.592472	-0.592468
O28	O	-0.301601	1.092472	-0.092468
O29	O	-1.024792	0.504305	-0.723514
O30	O	-0.524792	1.004305	-0.223514
O31	O	-1.024636	0.723522	-0.504324
O32	O	-0.524636	1.223522	-0.004324
O33	O	-0.904890	0.743245	-0.618529
O34	O	-0.404890	1.243245	-0.118529
C35	C	-0.958644	0.767130	-0.567276
C36	C	-0.458644	1.267130	-0.067276
C37	C	-0.939920	0.870503	-0.585171
C38	C	-0.439920	1.370503	-0.085171
C39	C	-0.793088	0.525489	-0.525489
C40	C	-0.293088	1.025489	-0.025489
C41	C	-0.703461	0.525507	-0.525503
C42	C	-0.203461	1.025507	-0.025503
C43	C	-1.212873	0.525525	-0.525547
C44	C	-0.712873	1.025525	-0.025547
C45	C	-1.302491	0.525533	-0.525559
C46	C	-0.802491	1.025533	-0.025559
C47	C	-0.375277	0.525520	-0.525544
C48	C	0.124723	1.025520	-0.025544
C49	C	-0.466589	0.525514	-0.525529
C50	C	0.033411	1.025514	-0.025529
C51	C	-0.539367	0.525514	-0.525523
C52	C	-0.039367	1.025514	-0.025523
C53	C	-0.630684	0.525507	-0.525510
C54	C	-0.130684	1.025507	-0.025510
C55	C	-0.958597	0.567407	-0.768057
C56	C	-0.458597	1.067407	-0.268057
C57	C	-0.939858	0.585263	-0.871412
C58	C	-0.439858	1.085263	-0.371412
C59	C	-1.046688	0.282943	-0.483617
C60	C	-0.546688	0.782943	0.016383
C61	C	-1.065488	0.179577	-0.465762
C62	C	-0.565488	0.679577	0.034238
C63	C	-1.136670	1.120721	-0.397934
C64	C	-0.636670	1.620721	0.102066
C65	C	-1.154262	1.023596	-0.381116
C66	C	-0.654262	1.523596	0.118884
C67	C	-1.100679	0.985318	-0.432129
C68	C	-0.600679	1.485318	0.067871
C69	C	-1.029499	1.044175	-0.499962
C70	C	-0.529499	1.544175	0.000038
C71	C	-1.011901	1.141308	-0.516777
C72	C	-0.511901	1.641308	-0.016777
C73	C	-0.975910	1.005905	-0.550971
C74	C	-0.475910	1.505905	-0.050971
C75	C	-0.904730	1.064762	-0.618804
C76	C	-0.404730	1.564762	-0.118804
C77	C	-0.887135	1.161885	-0.635616
C78	C	-0.387135	1.661885	-0.135616
C79	C	-0.940719	1.200164	-0.584604
C80	C	-0.440719	1.700164	-0.084604
C81	C	-0.993508	0.908772	-0.534156
C82	C	-0.493508	1.408772	-0.034156
C83	C	-0.868738	0.929359	-0.652998
C84	C	-0.368738	1.429359	-0.152998
C85	C	-0.851146	1.026484	-0.669816
C86	C	-0.351146	1.526484	-0.169816
C87	C	-1.136562	0.397726	-1.121690
C88	C	-0.636562	0.897726	-0.621690
C89	C	-1.154173	0.380952	-1.024583
C90	C	-0.654173	0.880952	-0.524583
C91	C	-1.100596	0.432028	-0.986285
C92	C	-0.600596	0.932028	-0.486285
C93	C	-1.029405	0.499882	-1.045105
C94	C	-0.529405	0.999882	-0.545105
C95	C	-1.011795	0.516664	-1.142223
C96	C	-0.511795	1.016664	-0.642223
C97	C	-0.975829	0.550965	-1.006818
C98	C	-0.475829	1.050965	-0.506818
C99	C	-0.904638	0.618819	-1.065637
C100	C	-0.404638	1.118819	-0.565637
C101	C	-0.887032	0.635597	-1.162745
C102	C	-0.387032	1.135597	-0.662745
C103	C	-0.940609	0.584521	-1.201043
C104	C	-0.440609	1.084521	-0.701043
C105	C	-0.993438	0.534183	-0.909700
C106	C	-0.493438	1.034183	-0.409700
C107	C	-0.868672	0.653121	-0.930232
C108	C	-0.368672	1.153121	-0.430232
C109	C	-0.851061	0.669895	-1.027340
C110	C	-0.351061	1.169895	-0.527340
C111	C	-1.046433	0.483701	-0.283911
C112	C	-0.546433	0.983701	0.216089
C113	C	-1.065375	0.465584	-0.180511
C114	C	-0.565375	0.965584	0.319489
H115	H	-1.051463	0.860859	-0.478925
H116	H	-0.551463	1.360859	0.021075
C117	C	-0.921239	0.602972	-1.307862
C118	C	-0.421239	1.102972	-0.807862
H119	H	-0.963345	0.562835	-1.322242
H120	H	-0.463345	1.062835	-0.822242
H121	H	-0.868150	0.590683	-1.327045
H122	H	-0.368150	1.090683	-0.827045
H123	H	-0.920289	0.666784	-1.340201
H124	H	-0.420289	1.166784	-0.840201
C125	C	-0.772850	1.091227	-0.744427
C126	C	-0.272850	1.591227	-0.244427
H127	H	-0.743458	1.054527	-0.772408
H128	H	-0.243458	1.554527	-0.272408
H129	H	-0.737326	1.123016	-0.715390
H130	H	-0.237326	1.623016	-0.215390
H131	H	-0.789469	1.136073	-0.791526
H132	H	-0.289469	1.636073	-0.291526
C133	C	-1.119962	0.413568	-0.879468
C134	C	-0.619962	0.913568	-0.379468
H135	H	-1.170028	0.365836	-0.849921
H136	H	-0.670028	0.865836	-0.349921
H137	H	-1.126967	0.469784	-0.867859
H138	H	-0.626967	0.969784	-0.367859
H139	H	-1.074837	0.393673	-0.854719
H140	H	-0.574837	0.893673	-0.354719
H141	H	-0.829168	1.209803	-0.690840
H142	H	-0.329168	1.709803	-0.190840
C143	C	-0.772760	0.744538	-1.092048
C144	C	-0.272760	1.244538	-0.592048
H145	H	-0.769954	0.747218	-1.155368
H146	H	-0.269954	1.247218	-0.655368
H147	H	-0.723946	0.728177	-1.073778
H148	H	-0.223946	1.228177	-0.573778
H149	H	-0.776086	0.804277	-1.086929
H150	H	-0.276086	1.304277	-0.586929
H151	H	-1.051403	0.478935	-0.861818
H152	H	-0.551403	0.978935	-0.361818
H153	H	-0.825104	0.898194	-0.694535
H154	H	-0.325104	1.398194	-0.194535
C155	C	-1.232474	0.306317	-0.959889
C156	C	-0.732474	0.806317	-0.459889
H157	H	-1.261857	0.278295	-0.996602
H158	H	-0.761857	0.778295	-0.496602
H159	H	-1.268002	0.335350	-0.928155
H160	H	-0.768002	0.835350	-0.428155
H161	H	-1.215868	0.259244	-0.915002
H162	H	-0.715868	0.759244	-0.415002
H163	H	-0.829068	0.690856	-1.210636
H164	H	-0.329068	1.190856	-0.710636
C165	C	-1.195485	0.341550	-1.163819
C166	C	-0.695485	0.841550	-0.663819
H167	H	-1.174797	0.361260	-1.230078
H168	H	-0.674797	0.861260	-0.730078
H169	H	-1.250070	0.352412	-1.150264
H170	H	-0.750070	0.852412	-0.650264
H171	H	-1.197930	0.276311	-1.137112
H172	H	-0.697930	0.776311	-0.637112
C173	C	-0.809734	0.709314	-0.888121
C174	C	-0.309734	1.209314	-0.388121
H175	H	-0.764822	0.752140	-0.937061
H176	H	-0.264822	1.252140	-0.437061
H177	H	-0.787942	0.667196	-0.844086
H178	H	-0.287942	1.167196	-0.344086
H179	H	-0.840086	0.743293	-0.857244
H180	H	-0.340086	1.243293	-0.357244
C181	C	-1.120035	0.878485	-0.413637
C182	C	-0.620035	1.378485	0.086363
H183	H	-1.170105	0.848915	-0.365940
H184	H	-0.670105	1.348915	0.134060
H185	H	-1.074911	0.853775	-0.393715
H186	H	-0.574911	1.353775	0.106285
H187	H	-1.127051	0.866853	-0.469854
H188	H	-0.627051	1.366853	0.030146
H189	H	-1.212216	0.975679	-0.325886
H190	H	-0.712216	1.475679	0.174114
H191	H	-1.180286	1.151896	-0.356402
H192	H	-0.680286	1.651896	0.143598
H193	H	-0.926400	1.279250	-0.598296
H194	H	-0.426400	1.779250	-0.098296
