data_functionalizedCrystal
_audit_creation_method	'MofGen! by Chris Wilmer'
_symmetry_space_group_name_H-M	'P1'
_symmetry_Int_Tables_number	1
_symmetry_cell_setting	triclinic
loop_
_symmetry_equiv_pos_as_xyz
  x,y,z
_cell_length_a	10.489741
_cell_length_b	12.837942
_cell_length_c	11.295483
_cell_angle_alpha	85.469583
_cell_angle_beta	85.855438
_cell_angle_gamma	90.315943
loop_
_atom_site_label
_atom_site_type_symbol
_atom_site_fract_x
_atom_site_fract_y
_atom_site_fract_z
O1	O	1.717937	-0.139467	-0.098950
O2	O	1.348257	-0.153206	-0.098968
O3	O	1.524899	0.004627	-0.098952
O4	O	1.541295	-0.297300	-0.098966
O5	O	1.509382	-0.009214	0.099097
O6	O	1.332740	-0.167047	0.099081
O7	O	1.702419	-0.153308	0.099100
Cu8	Cu	1.516163	-0.161441	0.117174
Cu9	Cu	1.534514	-0.145073	-0.117042
O10	O	1.525777	-0.311141	0.099084
C11	C	1.511602	0.036369	0.000072
C12	C	1.495084	0.151569	0.000069
C13	C	1.292853	-0.159089	0.000054
C14	C	1.150881	-0.155983	0.000047
N15	N	1.503265	-0.172954	0.281909
C16	C	1.071668	-0.055559	0.000063
C17	C	0.992422	-0.096175	-0.097585
C18	C	0.977160	-0.109845	0.097676
C19	C	1.073512	-0.196634	-0.097682
C20	C	1.058251	-0.210297	0.097667
C21	C	0.979042	-0.250984	-0.000005
C22	C	1.757824	-0.147425	0.000075
C23	C	1.899796	-0.150530	0.000074
C24	C	1.539074	-0.342882	0.000057
C25	C	1.555593	-0.458082	0.000052
C26	C	1.693661	0.391046	0.000054
C27	C	1.678147	0.499288	0.000051
C28	C	1.448545	0.476297	0.000052
C29	C	1.464058	0.368055	0.000055
C30	C	1.586620	0.325434	0.000058
C31	C	1.602133	0.217189	0.000069
C32	C	1.372532	0.194201	0.000061
C33	C	1.357018	0.302443	0.000059
N34	N	1.547421	-0.133552	-0.281778
C35	C	1.640261	-0.050621	0.531211
C36	C	1.630524	-0.059328	0.655874
C37	C	1.474047	-0.199071	0.655900
C38	C	1.483784	-0.190363	0.531237
C39	C	1.566895	-0.116137	0.468897
C40	C	1.576638	-0.107435	0.344232
C41	C	1.420156	-0.247172	0.344260
C42	C	1.410419	-0.255879	0.468923
H43	H	1.112265	0.027005	-0.000055
H44	H	1.360420	-0.300522	0.293510
H45	H	1.701928	0.182489	0.000076
N46	N	1.818843	0.347497	0.000091
N47	N	1.887426	0.361448	0.083586
H48	H	1.975838	0.330691	0.083617
H49	H	1.406371	-0.259497	0.706673
N50	N	1.263170	0.127192	0.000079
N51	N	1.178039	0.125762	0.083565
H52	H	1.100802	0.078437	0.083584
H53	H	1.707942	0.009810	0.480453
N54	N	1.126153	-0.242683	-0.201351
N55	N	1.191069	-0.323796	-0.190683
H56	H	1.228244	-0.356323	-0.263897
H57	H	1.690264	-0.005978	0.706607
H58	H	1.765312	0.552707	0.000045
N59	N	1.325509	-0.331680	0.532609
N60	N	1.236826	-0.302990	0.602180
H61	H	1.176856	-0.356525	0.647159
H62	H	1.644315	-0.046999	0.293476
N63	N	0.955716	-0.035648	-0.201143
N64	N	0.891429	-0.076896	-0.274236
H65	H	0.865506	-0.034146	-0.347371
N66	N	1.094992	-0.270785	0.201228
N67	N	1.210716	-0.283472	0.217301
H68	H	1.236669	-0.326185	0.290450
H69	H	0.935027	-0.073104	0.180230
N70	N	1.323372	0.519864	0.000026
N71	N	1.309545	0.616511	0.000008
H72	H	1.221141	0.647282	-0.000014
H73	H	0.938734	-0.333623	-0.000062
N74	N	1.231841	0.346003	0.000045
N75	N	1.218003	0.442648	0.000036
H76	H	1.129594	0.473412	0.000029
