data_functionalizedCrystal
_audit_creation_method	'MofGen! by Chris Wilmer'
_symmetry_space_group_name_H-M	'P1'
_symmetry_Int_Tables_number	1
_symmetry_cell_setting	triclinic
loop_
_symmetry_equiv_pos_as_xyz
  x,y,z
_cell_length_a	11.169417
_cell_length_b	16.120531
_cell_length_c	11.169409
_cell_angle_alpha	92.857236
_cell_angle_beta	90.019513
_cell_angle_gamma	87.066627
loop_
_atom_site_label
_atom_site_type_symbol
_atom_site_fract_x
_atom_site_fract_y
_atom_site_fract_z
Zn1	Zn	1.810560	0.331810	0.702666
Zn2	Zn	1.800194	0.471253	0.512124
Zn3	Zn	1.609842	0.331862	0.502005
Zn4	Zn	1.599603	0.471186	0.712766
O5	O	1.705050	0.401528	0.607390
O6	O	1.977134	0.350314	0.677398
O7	O	1.774891	0.452812	0.342836
O8	O	1.645091	0.215190	0.520161
O9	O	1.969518	0.452762	0.537408
O10	O	1.792557	0.215152	0.667586
O11	O	1.635040	0.350402	0.335401
O12	O	1.440535	0.350337	0.529955
O13	O	1.627640	0.452648	0.879372
O14	O	1.433012	0.452698	0.684799
O15	O	1.782629	0.350249	0.871952
O16	O	1.764962	0.587909	0.547202
O17	O	1.617589	0.587860	0.694612
C18	C	1.393226	0.401517	0.607376
C19	C	1.259825	0.401532	0.607399
C20	C	1.689072	0.618135	0.623127
C21	C	1.682347	0.710800	0.629900
C22	C	1.670075	0.880461	0.642289
C23	C	1.740070	0.921755	0.572423
C24	C	1.733242	1.016160	0.579317
C25	C	1.676902	0.786047	0.635397
C26	C	2.018091	0.401540	0.607406
C27	C	2.151491	0.401545	0.607412
C28	C	1.705149	0.401435	0.920426
C29	C	1.705191	0.401396	1.053823
C30	C	1.721080	1.184075	0.591596
C31	C	1.727802	1.091410	0.584809
C32	C	1.705025	0.401560	0.295568
C33	C	1.705232	0.401364	0.162154
H34	H	1.805122	0.886207	0.507432
H35	H	1.605026	0.916006	0.707274
