data_functionalizedCrystal
_audit_creation_method	'MofGen! by Chris Wilmer'
_symmetry_space_group_name_H-M	'P1'
_symmetry_Int_Tables_number	1
_symmetry_cell_setting	triclinic
loop_
_symmetry_equiv_pos_as_xyz
  x,y,z
_cell_length_a	15.297475
_cell_length_b	16.625546
_cell_length_c	15.298259
_cell_angle_alpha	80.285010
_cell_angle_beta	88.370891
_cell_angle_gamma	80.324704
loop_
_atom_site_label
_atom_site_type_symbol
_atom_site_fract_x
_atom_site_fract_y
_atom_site_fract_z
Zn1	Zn	1.253508	-0.402736	-0.726648
Zn2	Zn	1.753508	0.097264	-0.226648
Zn3	Zn	1.278750	-0.564160	-0.580141
Zn4	Zn	1.778750	-0.064160	-0.080141
Zn5	Zn	1.132361	-0.410579	-0.554872
Zn6	Zn	1.632361	0.089421	-0.054872
Zn7	Zn	1.106994	-0.518759	-0.701284
Zn8	Zn	1.606994	-0.018759	-0.201284
O9	O	1.192903	-0.474059	-0.640736
O10	O	1.692903	0.025941	-0.140736
O11	O	1.379437	-0.439868	-0.728404
O12	O	1.879437	0.060132	-0.228404
O13	O	1.280512	-0.566070	-0.454201
O14	O	1.780512	-0.066070	0.045799
O15	O	1.148484	-0.296708	-0.577698
O16	O	1.648484	0.203292	-0.077698
O17	O	1.397983	-0.558465	-0.620766
O18	O	1.897983	-0.058465	-0.120766
O19	O	1.237490	-0.290946	-0.703902
O20	O	1.737490	0.209054	-0.203902
O21	O	1.172960	-0.453234	-0.435636
O22	O	1.672960	0.046766	0.064364
O23	O	1.006415	-0.409211	-0.553103
O24	O	1.506415	0.090789	-0.053103
O25	O	1.105249	-0.481086	-0.827236
O26	O	1.605249	0.018914	-0.327236
O27	O	0.987778	-0.488690	-0.660672
O28	O	1.487778	0.011310	-0.160672
O29	O	1.212892	-0.395844	-0.845872
O30	O	1.712892	0.104156	-0.345872
O31	O	1.255914	-0.670968	-0.596171
O32	O	1.755914	-0.170968	-0.096171
O33	O	1.129725	-0.637612	-0.685174
O34	O	1.629725	-0.137612	-0.185174
C35	C	0.965312	-0.444875	-0.601393
C36	C	1.465312	0.055125	-0.101393
C37	C	0.867944	-0.432406	-0.584583
C38	C	1.367944	0.067594	-0.084583
C39	C	0.554824	-0.563182	-0.760884
C40	C	1.054824	-0.063182	-0.260884
C41	C	0.646307	-0.574904	-0.776675
C42	C	1.146307	-0.074904	-0.276675
C43	C	0.701720	-0.539280	-0.728654
C44	C	1.201720	-0.039280	-0.228654
C45	C	0.665643	-0.491933	-0.664838
C46	C	1.165643	0.008067	-0.164838
C47	C	0.574152	-0.480216	-0.649040
C48	C	1.074152	0.019784	-0.149040
C49	C	0.721048	-0.456314	-0.616810
C50	C	1.221048	0.043686	-0.116810
C51	C	0.684971	-0.408967	-0.552994
C52	C	1.184971	0.091033	-0.052994
C53	C	0.593489	-0.397251	-0.537199
C54	C	1.093489	0.102749	-0.037199
C55	C	0.538075	-0.432875	-0.585220
C56	C	1.038075	0.067125	-0.085220
C57	C	0.812539	-0.468032	-0.632608
C58	C	1.312539	0.031968	-0.132608
C59	C	0.831867	-0.385065	-0.520764
C60	C	1.331867	0.114935	-0.020764
C61	C	0.740385	-0.373344	-0.504972
C62	C	1.240385	0.126656	-0.004972
C63	C	1.192827	-0.683545	-0.640685
C64	C	1.692827	-0.183545	-0.140685
C65	C	1.192869	-0.773170	-0.640707
C66	C	1.692869	-0.273170	-0.140707
C67	C	1.193006	-1.101348	-0.640824
C68	C	1.693006	-0.601348	-0.140824
C69	C	1.192965	-1.010038	-0.640793
C70	C	1.692965	-0.510038	-0.140793
C71	C	1.192937	-0.937262	-0.640765
C72	C	1.692937	-0.437262	-0.140765
C73	C	1.192897	-0.845946	-0.640735
C74	C	1.692897	-0.345946	-0.140735
C75	C	1.421383	-0.503356	-0.680233
C76	C	1.921383	-0.003356	-0.180233
C77	C	1.518747	-0.515841	-0.697064
C78	C	2.018747	-0.015841	-0.197064
C79	C	1.153425	-0.432526	-0.869228
C80	C	1.653425	0.067474	-0.369228
C81	C	1.136602	-0.414827	-0.966598
C82	C	1.636602	0.085173	-0.466598
C83	C	1.193001	-0.263753	-0.640811
C84	C	1.693001	0.236247	-0.140811
C85	C	1.193042	-0.174134	-0.640842
C86	C	1.693042	0.325866	-0.140842
C87	C	1.313170	-0.599936	-1.279724
C88	C	1.813170	-0.099936	-0.779724
C89	C	1.328971	-0.616570	-1.188239
C90	C	1.828971	-0.116570	-0.688239
C91	C	1.280881	-0.566135	-1.132825
C92	C	1.780881	-0.066135	-0.632825
C93	C	1.216985	-0.499065	-1.168903
C94	C	1.716985	0.000935	-0.668903
C95	C	1.201177	-0.482434	-1.260396
C96	C	1.701177	0.017566	-0.760396
C97	C	1.168888	-0.448633	-1.113497
C98	C	1.668888	0.051367	-0.613497
C99	C	1.104992	-0.381563	-1.149575
C100	C	1.604992	0.118437	-0.649575
C101	C	1.089188	-0.364935	-1.241059
C102	C	1.589188	0.135065	-0.741059
C103	C	1.137278	-0.415369	-1.296474
C104	C	1.637278	0.084631	-0.796474
C105	C	1.184696	-0.465264	-1.022004
C106	C	1.684696	0.034736	-0.522004
C107	C	1.072703	-0.347762	-1.002676
C108	C	1.572703	0.152238	-0.502676
C109	C	1.056902	-0.331129	-1.094161
C110	C	1.556902	0.168871	-0.594161
C111	C	1.232278	-0.515378	-0.413142
C112	C	1.732278	-0.015378	0.086858
C113	C	1.249271	-0.532871	-0.315802
C114	C	1.749271	-0.032871	0.184198
H115	H	0.776209	-0.548826	-0.741516
H116	H	1.276209	-0.048826	-0.241516
H117	H	1.380987	-0.671185	-1.158869
H118	H	1.880987	-0.171185	-0.658869
H119	H	0.710997	-0.334794	-0.453012
H120	H	1.210997	0.165206	0.046988
N121	N	0.498224	-0.599581	-0.809915
N122	N	0.998224	-0.099581	-0.309915
N123	N	0.452501	-0.649997	-0.770165
N124	N	0.952501	-0.149997	-0.270165
H125	H	0.412526	-0.675709	-0.804795
H126	H	0.912526	-0.175709	-0.304795
H127	H	0.675675	-0.613456	-0.828633
H128	H	1.175675	-0.113456	-0.328633
H129	H	1.004877	-0.276520	-1.123549
H130	H	1.504877	0.223480	-0.623549
N131	N	0.556637	-0.348877	-0.472023
N132	N	1.056637	0.151123	0.027977
N133	N	0.500268	-0.285384	-0.494141
N134	N	1.000268	0.214616	0.005859
H135	H	0.474243	-0.251217	-0.448112
H136	H	0.974243	0.248783	0.051888
N137	N	1.023577	-0.296252	-0.946068
N138	N	1.523577	0.203748	-0.446068
N139	N	1.037699	-0.311109	-0.864385
N140	N	1.537699	0.188891	-0.364385
H141	H	1.003005	-0.274736	-0.824399
H142	H	1.503005	0.225264	-0.324399
N143	N	1.121117	-0.398470	-1.389922
N144	N	1.621117	0.101530	-0.889922
N145	N	1.182371	-0.383010	-1.442635
N146	N	1.682371	0.116990	-0.942635
H147	H	1.170948	-0.371114	-1.508633
H148	H	1.670948	0.128886	-1.008633
H149	H	1.236726	-0.519869	-0.992639
H150	H	1.736726	-0.019869	-0.492639
H151	H	0.463581	-0.423332	-0.572368
H152	H	0.963581	0.076668	-0.072368
H153	H	1.037151	-0.310328	-1.270430
H154	H	1.537151	0.189672	-0.770430
H155	H	0.876986	-0.356059	-0.481660
H156	H	1.376986	0.143941	0.018340
N157	N	1.297029	-0.583137	-1.039377
N158	N	1.797029	-0.083137	-0.539377
N159	N	1.354080	-0.643021	-1.007176
N160	N	1.854080	-0.143021	-0.507176
H161	H	1.365490	-0.655030	-0.941175
H162	H	1.865490	-0.155030	-0.441175
N163	N	1.362269	-0.651446	-1.336337
N164	N	1.862269	-0.151446	-0.836337
N165	N	1.348140	-0.636590	-1.418019
N166	N	1.848140	-0.136590	-0.918019
H167	H	1.382818	-0.672973	-1.458005
H168	H	1.882818	-0.172973	-0.958005
H169	H	0.841904	-0.506581	-0.684568
H170	H	1.341904	-0.006581	-0.184568
