data_functionalizedCrystal
_audit_creation_method	'MofGen! by Chris Wilmer'
_symmetry_space_group_name_H-M	'P1'
_symmetry_Int_Tables_number	1
_symmetry_cell_setting	triclinic
loop_
_symmetry_equiv_pos_as_xyz
  x,y,z
_cell_length_a	10.723023
_cell_length_b	10.723024
_cell_length_c	9.798715
_cell_angle_alpha	89.998022
_cell_angle_beta	89.996770
_cell_angle_gamma	84.467709
loop_
_atom_site_label
_atom_site_type_symbol
_atom_site_fract_x
_atom_site_fract_y
_atom_site_fract_z
O1	O	1.657188	0.175020	-0.113473
O2	O	1.294035	0.191774	-0.113479
O3	O	1.483988	0.001821	-0.113471
O4	O	1.467235	0.364973	-0.113481
O5	O	1.483974	0.001820	0.113511
O6	O	1.294021	0.191774	0.113503
O7	O	1.657174	0.175019	0.113509
Zn8	Zn	1.475595	0.183396	0.149544
Zn9	Zn	1.475614	0.183397	-0.149514
O10	O	1.467221	0.364973	0.113501
C11	C	1.247529	0.190555	0.000012
C12	C	1.108974	0.186908	0.000010
C13	C	0.904014	0.181512	-0.117574
C14	C	1.047217	0.185282	-0.117574
C15	C	1.482762	-0.044679	0.000019
C16	C	1.479114	-0.183233	0.000014
C17	C	1.585402	-0.258216	0.000013
C18	C	1.581634	-0.401420	0.000008
C19	C	1.703680	0.176239	0.000015
C20	C	1.842235	0.179886	0.000009
C21	C	1.468447	0.411473	0.000009
C22	C	1.472095	0.550027	0.000004
N23	N	1.475591	0.183395	0.353644
N24	N	1.475627	0.183388	-0.353614
C25	C	1.555347	0.103288	0.421424
C26	C	1.555367	0.103283	0.578587
H27	H	1.100345	0.186688	-0.218241
O28	O	1.636775	0.021286	0.647966
C29	C	1.615086	-0.102370	0.613184
H30	H	1.567053	-0.102607	0.509412
H31	H	1.708217	-0.163223	0.608426
H32	H	1.552453	-0.141270	0.693587
O33	O	1.394285	0.265390	0.576930
C34	C	1.415926	0.389045	0.611769
H35	H	1.515839	0.390321	0.651118
H36	H	1.402347	0.451488	0.517741
H37	H	1.347093	0.425317	0.694617
H38	H	1.055853	0.185516	0.100681
H39	H	1.407319	0.251971	0.411966
H40	H	1.623611	0.034702	0.363105
H41	H	0.850889	0.180106	-0.218240
O42	O	1.690075	-0.478456	-0.000054
C43	C	1.662172	-0.604287	-0.000023
H44	H	1.564094	-0.609992	-0.042994
H45	H	1.733330	-0.662722	-0.065924
H46	H	1.666531	-0.641895	0.108871
O47	O	0.905573	0.181329	0.120145
C48	C	0.887025	0.072621	0.195481
H49	H	0.860386	-0.003730	0.123137
H50	H	0.977135	0.038660	0.251486
H51	H	0.808559	0.095029	0.272738
O52	O	1.697187	-0.208130	0.000078
C53	C	1.676063	-0.076298	0.000044
H54	H	1.578908	-0.046695	0.043014
H55	H	1.749821	-0.035601	0.065946
H56	H	1.682378	-0.039997	-0.108850
H57	H	1.381099	-0.385548	0.000014
O58	O	1.367299	-0.233261	-0.000174
C59	C	1.358613	-0.307719	-0.117752
H60	H	1.456725	-0.339164	-0.156944
H61	H	1.308259	-0.393460	-0.091320
H62	H	1.303833	-0.250744	-0.200067
