data_functionalizedCrystal
_audit_creation_method	'MofGen! by Chris Wilmer'
_symmetry_space_group_name_H-M	'P1'
_symmetry_Int_Tables_number	1
_symmetry_cell_setting	triclinic
loop_
_symmetry_equiv_pos_as_xyz
  x,y,z
_cell_length_a	6.817900
_cell_length_b	9.582860
_cell_length_c	11.102193
_cell_angle_alpha	90.976050
_cell_angle_beta	108.604059
_cell_angle_gamma	111.206767
loop_
_atom_site_label
_atom_site_type_symbol
_atom_site_fract_x
_atom_site_fract_y
_atom_site_fract_z
V1	V	-4.125312	-0.207066	-0.396025
O2	O	-4.069885	0.009939	-0.388726
O3	O	-4.115648	-0.410567	-0.393086
O4	O	-4.101874	-0.203886	-0.568850
O5	O	-4.083755	-0.198173	-0.211745
V6	V	-4.600686	-0.181109	-0.374011
O7	O	-4.404446	-0.264005	-0.444313
O8	O	-4.771749	-0.124171	-0.325723
O9	O	-4.387142	0.022391	-0.376950
O10	O	-4.773509	-0.398115	-0.381310
O11	O	-4.759639	-0.190003	-0.558291
O12	O	-4.400917	-0.184290	-0.201186
C13	C	-3.969265	-0.460176	-0.386779
C14	C	-4.042817	-0.626541	-0.385528
C15	C	-3.951693	-0.196532	-0.610982
C16	C	-4.014070	-0.195278	-0.752266
C17	C	-4.152662	-0.469381	-0.788284
C18	C	-4.251254	-0.605838	-0.872667
C19	C	-4.309861	-0.604651	-1.005414
C20	C	-4.269876	-0.466994	-1.053780
C21	C	-4.171285	-0.330538	-0.969398
C22	C	-4.112678	-0.331739	-0.836649
C23	C	-4.032708	-0.056438	-0.933380
C24	C	-3.974085	-0.057621	-0.800632
C25	C	-3.992723	0.081219	-0.981746
C26	C	-3.894115	0.217679	-0.897362
C27	C	-3.835505	0.216487	-0.764608
C28	C	-3.875493	0.078835	-0.716249
C29	C	-4.196869	0.071992	-0.383254
C30	C	-4.102556	0.238356	-0.384513
C31	C	-4.214440	-0.191649	-0.159047
C32	C	-4.131300	-0.192895	-0.017762
H33	H	-4.104917	-0.470360	-0.680195
C34	C	-3.850215	0.369082	-0.950563
H35	H	-3.783130	0.450181	-0.881300
H36	H	-3.752183	0.380061	-0.997489
H37	H	-3.988294	0.370416	-1.005713
C38	C	-4.295220	-0.757249	-0.819461
H39	H	-4.246178	-0.738418	-0.728316
H40	H	-4.451335	-0.818159	-0.852749
H41	H	-4.215230	-0.808569	-0.844483
H42	H	-3.755237	0.327607	-0.695909
H43	H	-3.827764	0.077852	-0.608161
H44	H	-4.390146	-0.715766	-1.074120
C45	C	-4.057150	0.082536	-1.127761
H46	H	-4.019221	0.184058	-1.144478
H47	H	-3.977936	0.036979	-1.160292
H48	H	-4.214050	0.027403	-1.168594
C49	C	-4.334359	-0.465691	-1.199799
H50	H	-4.398798	-0.566674	-1.243126
H51	H	-4.440062	-0.419587	-1.227310
H52	H	-4.203971	-0.410024	-1.219046
