data_functionalizedCrystal
_audit_creation_method	'MofGen! by Chris Wilmer'
_symmetry_space_group_name_H-M	'P1'
_symmetry_Int_Tables_number	1
_symmetry_cell_setting	triclinic
loop_
_symmetry_equiv_pos_as_xyz
  x,y,z
_cell_length_a	12.837943
_cell_length_b	19.188930
_cell_length_c	11.295483
_cell_angle_alpha	94.076039
_cell_angle_beta	85.461227
_cell_angle_gamma	88.986861
loop_
_atom_site_label
_atom_site_type_symbol
_atom_site_fract_x
_atom_site_fract_y
_atom_site_fract_z
O1	O	1.381633	0.177215	-0.099031
O2	O	1.079869	0.168252	-0.099037
O3	O	1.239458	0.071676	-0.099010
O4	O	1.222044	0.273791	-0.099057
O5	O	1.225441	0.080144	0.099038
O6	O	1.065852	0.176720	0.099012
O7	O	1.367616	0.185683	0.099017
Cu8	Cu	1.215454	0.181975	0.117098
Cu9	Cu	1.232031	0.171960	-0.117117
O10	O	1.208027	0.282259	0.098991
C11	C	1.034253	0.169458	-0.000013
C12	C	0.919217	0.160427	-0.000014
C13	C	1.231885	0.049861	0.000017
C14	C	1.230191	-0.027760	0.000027
C15	C	0.677767	0.268994	-0.000022
C16	C	0.569680	0.260512	-0.000022
C17	C	0.594953	0.134982	-0.000006
C18	C	0.703040	0.143464	-0.000006
C19	C	0.744443	0.210472	-0.000016
C20	C	0.852533	0.218953	-0.000024
C21	C	0.877803	0.093423	0.000001
C22	C	0.769716	0.084941	0.000001
C23	C	1.323833	-0.066260	0.000035
C24	C	1.322244	-0.139194	0.000016
C25	C	1.227005	-0.173623	0.000013
C26	C	1.133352	-0.135114	-0.000001
C27	C	1.134944	-0.062182	0.000006
N28	N	1.149437	-0.283739	0.067411
N29	N	1.147930	-0.353022	0.067407
C30	C	1.222201	-0.393362	-0.000011
N31	N	1.298051	-0.361803	-0.067410
N32	N	1.299560	-0.292515	-0.067400
C33	C	1.225268	-0.252705	0.000005
C34	C	1.314126	-0.510946	-0.000026
C35	C	1.312534	-0.583882	-0.000052
C36	C	1.123638	-0.579799	-0.000057
C37	C	1.125234	-0.506866	-0.000043
C38	C	1.220481	-0.472444	-0.000021
C39	C	1.413232	0.184477	-0.000009
C40	C	1.528268	0.193508	-0.000016
C41	C	1.215600	0.304074	-0.000039
C42	C	1.217295	0.381694	-0.000057
N43	N	1.203803	0.189018	0.281832
N44	N	1.243691	0.164912	-0.281852
C45	C	1.327566	0.114169	0.531142
C46	C	1.318768	0.119497	0.655804
C47	C	1.177405	0.204999	0.655821
C48	C	1.186202	0.199671	0.531159
C49	C	1.261286	0.154255	0.468824
C50	C	1.270089	0.148931	0.344159
C51	C	1.128721	0.234429	0.344179
C52	C	1.119923	0.239757	0.468841
H53	H	0.711478	0.323555	-0.000032
C54	C	1.408925	0.064945	0.356669
C55	C	1.352614	0.099008	0.275637
H56	H	1.459868	0.034120	0.314366
H57	H	1.442640	0.098569	0.405273
H58	H	1.362456	0.039035	0.405310
H59	H	1.399083	0.124922	0.227001
H60	H	1.318899	0.065379	0.227013
H61	H	1.058687	-0.030834	0.000001
C62	C	1.492535	-0.051633	-0.101765
C63	C	1.428529	-0.028426	0.000044
H64	H	1.557166	-0.028271	-0.101762
H65	H	1.504980	-0.100573	-0.101758
H66	H	1.458869	-0.041783	-0.170822
H67	H	1.462191	-0.038281	0.069101
H68	H	1.416085	0.020526	0.000047
C69	C	0.951846	0.261790	0.305827
C70	C	1.055863	0.278497	0.275674
H71	H	0.906872	0.289000	0.263538
H72	H	0.942248	0.213587	0.285398
H73	H	0.935869	0.271463	0.388994
H74	H	1.071841	0.268818	0.192508
H75	H	1.065465	0.326710	0.296095
H76	H	1.372737	0.086854	0.706541
H77	H	0.561216	0.080430	0.000101
H78	H	1.398501	-0.170548	0.000017
C79	C	0.995110	0.235609	0.694259
C80	C	1.094867	0.254905	0.724364
H81	H	0.944154	0.266415	0.736584
H82	H	0.990865	0.238187	0.611109
H83	H	0.982652	0.189139	0.714688
H84	H	1.107328	0.301373	0.703927
H85	H	1.099114	0.252334	0.807532
H86	H	1.058789	0.276732	0.519608
C87	C	0.615246	0.016200	0.000003
C88	C	0.724199	0.011288	0.000005
H89	H	0.587151	-0.029273	-0.000004
H90	H	0.587462	0.043541	0.069063
H91	H	0.597237	0.037652	-0.069065
H92	H	0.742208	-0.010160	0.069079
H93	H	0.751993	-0.016064	-0.069062
H94	H	1.388709	0.077195	0.480388
C95	C	1.480263	-0.614143	-0.101840
C96	C	1.415477	-0.626202	-0.000046
H97	H	1.543819	-0.640267	-0.101830
H98	H	1.446092	-0.628205	-0.170899
H99	H	1.494829	-0.565778	-0.101815
H100	H	1.400905	-0.674567	-0.000075
H101	H	1.449655	-0.612144	0.069031
H102	H	0.886241	0.273515	-0.000030
H103	H	0.515395	0.308167	-0.000024
H104	H	1.055808	-0.163150	-0.000006
C105	C	1.021216	0.025786	-0.101806
C106	C	0.951097	0.029089	0.000006
H107	H	1.066467	-0.013928	-0.101801
H108	H	0.983406	0.022136	-0.170853
H109	H	1.061342	0.066908	-0.101798
H110	H	0.910965	-0.012031	-0.000006
H111	H	0.988911	0.032734	0.069071
H112	H	1.048980	-0.475518	-0.000042
C113	C	1.400441	-0.400957	0.000005
C114	C	1.418818	-0.473103	-0.000015
H115	H	1.465075	-0.377597	0.000019
H116	H	1.366791	-0.391113	-0.069053
H117	H	1.357008	-0.385231	0.069076
H118	H	1.462246	-0.488830	-0.069090
H119	H	1.452484	-0.482952	0.069050
C120	C	1.037323	-0.689782	-0.000071
C121	C	1.018948	-0.617635	-0.000064
H122	H	0.972689	-0.713141	-0.000073
H123	H	1.080750	-0.705511	-0.069130
H124	H	1.070978	-0.699622	0.068998
H125	H	0.985300	-0.607795	-0.069138
H126	H	0.975505	-0.601900	0.069002
