data_functionalizedCrystal
_audit_creation_method	'MofGen! by Chris Wilmer'
_symmetry_space_group_name_H-M	'P1'
_symmetry_Int_Tables_number	1
_symmetry_cell_setting	triclinic
loop_
_symmetry_equiv_pos_as_xyz
  x,y,z
_cell_length_a	21.295417
_cell_length_b	16.625548
_cell_length_c	16.625539
_cell_angle_alpha	90.020568
_cell_angle_beta	89.966627
_cell_angle_gamma	89.968425
loop_
_atom_site_label
_atom_site_type_symbol
_atom_site_fract_x
_atom_site_fract_y
_atom_site_fract_z
Zn1	Zn	-0.250590	-1.232635	-0.455881
Zn2	Zn	-0.355864	-1.232520	-0.321036
Zn3	Zn	-0.250614	-1.097797	-0.321061
Zn4	Zn	-0.355827	-1.097749	-0.455826
O5	O	-0.303224	-1.165175	-0.388451
O6	O	-0.264560	-1.345452	-0.438006
O7	O	-0.341927	-1.214620	-0.208207
O8	O	-0.162522	-1.115753	-0.338979
O9	O	-0.341904	-1.345367	-0.338936
O10	O	-0.162504	-1.214818	-0.438030
O11	O	-0.264601	-1.115640	-0.208226
O12	O	-0.264566	-0.984958	-0.338926
O13	O	-0.341842	-1.115670	-0.568666
O14	O	-0.341866	-0.984923	-0.437937
O15	O	-0.264525	-1.214771	-0.568706
O16	O	-0.443948	-1.214573	-0.338883
O17	O	-0.443922	-1.115558	-0.437912
C18	C	-0.303215	-0.955684	-0.388429
C19	C	-0.303226	-0.866063	-0.388438
C20	C	-0.466775	-1.165070	-0.388407
C21	C	-0.536744	-1.165098	-0.388414
C22	C	-0.303177	-1.165228	-0.598760
C23	C	-0.303157	-1.165250	-0.688381
C24	C	-0.569603	-1.216701	-0.336903
C25	C	-0.635346	-1.216739	-0.336921
C26	C	-0.668226	-1.165159	-0.388442
C27	C	-0.635359	-1.113552	-0.439964
C28	C	-0.569617	-1.113522	-0.439950
N29	N	-0.771493	-1.094624	-0.394581
N30	N	-0.833944	-1.094656	-0.394590
C31	C	-0.866301	-1.165250	-0.388488
N32	N	-0.833847	-1.235813	-0.382362
N33	N	-0.771389	-1.235780	-0.382350
C34	C	-0.739511	-1.165187	-0.388463
C35	C	-0.970446	-1.216898	-0.336994
C36	C	-1.036189	-1.216937	-0.337017
C37	C	-1.036201	-1.113743	-0.440056
C38	C	-0.970459	-1.113711	-0.440037
C39	C	-0.937585	-1.165288	-0.388501
C40	C	-0.139033	-1.165303	-0.388514
C41	C	-0.069065	-1.165358	-0.388540
C42	C	-0.303233	-1.375484	-0.388474
C43	C	-0.303237	-1.465105	-0.388484
C44	C	-0.303230	-0.537888	-0.388473
C45	C	-0.303227	-0.629196	-0.388460
C46	C	-0.303229	-0.701973	-0.388455
C47	C	-0.303225	-0.793287	-0.388444
C48	C	-0.303086	-1.165287	-1.016557
C49	C	-0.303108	-1.165275	-0.925249
C50	C	-0.303122	-1.165269	-0.852472
C51	C	-0.303143	-1.165256	-0.761158
C52	C	-0.303225	-1.165169	-0.178960
C53	C	-0.303068	-1.165303	-0.089340
H54	H	-0.542839	-1.258700	-0.294941
N55	N	-0.670798	-1.272400	-0.281361
H56	H	-0.639997	-1.305069	-0.248713
H57	H	-0.698119	-1.239606	-0.244027
H58	H	-1.062972	-1.071750	-0.482010
N59	N	-1.071637	-1.272598	-0.281458
H60	H	-1.060146	-1.330196	-0.294024
H61	H	-1.060228	-1.260026	-0.223856
N62	N	-0.534177	-1.057852	-0.495507
H63	H	-0.506949	-1.020492	-0.462696
H64	H	-0.506889	-1.090639	-0.532886
N65	N	-0.934979	-1.272526	-0.281421
H66	H	-0.946464	-1.260045	-0.223801
H67	H	-0.946380	-1.330114	-0.294069
N68	N	-0.670818	-1.057921	-0.495537
H69	H	-0.717451	-1.065769	-0.487728
H70	H	-0.659373	-1.000338	-0.482933
N71	N	-0.935012	-1.058047	-0.495591
H72	H	-0.965816	-1.025375	-0.528232
H73	H	-0.907783	-1.020740	-0.462726
