data_functionalizedCrystal
_audit_creation_method	'MofGen! by Chris Wilmer'
_symmetry_space_group_name_H-M	'P1'
_symmetry_Int_Tables_number	1
_symmetry_cell_setting	triclinic
loop_
_symmetry_equiv_pos_as_xyz
  x,y,z
_cell_length_a	16.992701
_cell_length_b	16.974813
_cell_length_c	15.186229
_cell_angle_alpha	86.341696
_cell_angle_beta	89.996535
_cell_angle_gamma	87.023742
loop_
_atom_site_label
_atom_site_type_symbol
_atom_site_fract_x
_atom_site_fract_y
_atom_site_fract_z
O1	O	1.040210	0.167638	-0.085179
O2	O	1.540210	0.667638	0.414821
O3	O	0.811926	0.165801	-0.085048
O4	O	1.311926	0.665801	0.414952
O5	O	0.932432	0.052019	-0.076936
O6	O	1.432432	0.552019	0.423064
O7	O	0.919704	0.281421	-0.093292
O8	O	1.419704	0.781421	0.406708
O9	O	0.932424	0.052016	0.069522
O10	O	1.432424	0.552016	0.569522
O11	O	0.811918	0.165799	0.061409
O12	O	1.311918	0.665799	0.561409
O13	O	1.040202	0.167636	0.061278
O14	O	1.540202	0.667636	0.561278
Zn15	Zn	0.926059	0.166717	0.084597
Zn16	Zn	1.426059	0.666717	0.584597
Zn17	Zn	0.926069	0.166720	-0.108367
Zn18	Zn	1.426069	0.666720	0.391633
O19	O	0.919696	0.281419	0.053166
O20	O	1.419696	0.781419	0.553166
C21	C	0.782712	0.163434	-0.011651
C22	C	1.282712	0.663434	0.488349
C23	C	0.695676	0.156376	-0.011148
C24	C	1.195676	0.656376	0.488852
C25	C	0.206767	0.108947	-0.007770
C26	C	0.706767	0.608947	0.492230
C27	C	0.288546	0.115585	-0.008238
C28	C	0.788546	0.615585	0.491762
C29	C	0.320009	0.190340	-0.013572
C30	C	0.820009	0.690340	0.486428
C31	C	0.269688	0.258460	-0.018429
C32	C	0.769688	0.758460	0.481571
C33	C	0.187910	0.251821	-0.017955
C34	C	0.687910	0.751821	0.482045
C35	C	0.563576	0.217857	-0.015531
C36	C	1.063576	0.717857	0.484469
C37	C	0.645361	0.224491	-0.016008
C38	C	1.145361	0.724491	0.483992
C39	C	0.664214	0.081615	-0.005815
C40	C	1.164214	0.581615	0.494185
C41	C	0.582434	0.074982	-0.005346
C42	C	1.082434	0.574982	0.494654
C43	C	0.532119	0.143103	-0.010199
C44	C	1.032119	0.643103	0.489801
N45	N	0.403600	0.197127	-0.014053
N46	N	0.903600	0.697127	0.485947
N47	N	0.448530	0.136315	-0.009711
N48	N	0.948530	0.636315	0.490289
C49	C	0.931944	0.022528	-0.001606
C50	C	1.431944	0.522528	0.498394
C51	C	0.930492	-0.065340	0.004653
C52	C	1.430492	0.434660	0.504653
C53	C	0.929816	-0.106615	-0.072240
C54	C	1.429816	0.393385	0.427760
C55	C	0.928446	-0.189177	-0.066356
C56	C	1.428446	0.310823	0.433644
C57	C	0.927758	-0.230462	0.016422
C58	C	1.427758	0.269538	0.516422
C59	C	0.928432	-0.189181	0.093320
C60	C	1.428432	0.310819	0.593320
C61	C	0.929796	-0.106621	0.087435
C62	C	1.429796	0.393379	0.587435
C63	C	0.923674	-0.477381	0.042583
C64	C	1.423674	0.022619	0.542583
C65	C	0.922312	-0.559947	0.048462
C66	C	1.422312	-0.059947	0.548462
C67	C	0.922325	-0.559937	-0.111215
C68	C	1.422325	-0.059937	0.388785
C69	C	0.923693	-0.477376	-0.117092
C70	C	1.423693	0.022624	0.382908
C71	C	0.924363	-0.436102	-0.040194
C72	C	1.424363	0.063898	0.459806
N73	N	0.926361	-0.314853	0.022438
N74	N	1.426361	0.185147	0.522438
N75	N	0.925755	-0.351711	-0.046211
N76	N	1.425755	0.148289	0.453789
C77	C	1.069416	0.170003	-0.012121
C78	C	1.569416	0.670003	0.487879
C79	C	1.156452	0.177062	-0.012629
C80	C	1.656452	0.677062	0.487371
C81	C	0.920184	0.310909	-0.022166
C82	C	1.420184	0.810909	0.477834
C83	C	0.921636	0.398778	-0.028431
C84	C	1.421636	0.898778	0.471569
N85	N	0.926057	0.166715	0.216290
N86	N	1.426057	0.666715	0.716290
N87	N	0.926077	0.166717	-0.240059
N88	N	1.426077	0.666717	0.259941
C89	C	0.979435	0.116351	0.445604
C90	C	1.479435	0.616351	0.945604
C91	C	0.979438	0.116350	0.537793
C92	C	1.479438	0.616350	1.037793
C93	C	0.872693	0.217082	0.530620
C94	C	1.372693	0.717082	1.030620
C95	C	0.872688	0.217080	0.438432
C96	C	1.372688	0.717080	0.938432
C97	C	0.926063	0.166715	0.395926
C98	C	1.426063	0.666715	0.895926
C99	C	0.926071	0.166716	0.580304
C100	C	1.426071	0.666716	1.080304
C101	C	0.926073	0.166715	0.680260
C102	C	1.426073	0.666715	1.180260
C103	C	0.926060	0.166715	0.295964
C104	C	1.426060	0.666715	0.795964
H105	H	0.329510	0.060118	-0.004277
H106	H	0.829510	0.560118	0.495723
H107	H	0.295311	0.319327	-0.022767
H108	H	0.795311	0.819327	0.477233
Cl109	Cl	0.805599	0.280398	0.584060
Cl110	Cl	1.305599	0.780398	1.084060
Cl111	Cl	0.921452	-0.611848	0.152533
Cl112	Cl	1.421452	-0.111848	0.652533
Cl113	Cl	0.927558	-0.241082	0.197384
Cl114	Cl	1.427558	0.258918	0.697384
Cl115	Cl	0.805582	0.280395	0.375975
Cl116	Cl	1.305582	0.780395	0.875975
H117	H	0.181157	0.048074	-0.003432
H118	H	0.681157	0.548074	0.496568
Cl119	Cl	0.924503	-0.425504	0.139256
Cl120	Cl	1.424503	0.074496	0.639256
Cl121	Cl	0.542887	-0.018999	0.001328
Cl122	Cl	1.042887	0.481001	0.501328
Cl123	Cl	1.046533	0.053033	0.392172
Cl124	Cl	1.546533	0.553033	0.892172
Cl125	Cl	1.046535	0.053031	0.600243
Cl126	Cl	1.546535	0.553031	1.100243
Cl127	Cl	0.727470	-0.004016	0.000292
Cl128	Cl	1.227470	0.495984	0.500292
H129	H	0.670974	0.285368	-0.020339
H130	H	1.170974	0.785368	0.479661
H131	H	0.522620	0.273325	-0.019487
H132	H	1.022620	0.773325	0.480513
H133	H	0.146943	0.307288	-0.021909
H134	H	0.646943	0.807288	0.478091
H135	H	0.927899	-0.222779	-0.128970
H136	H	1.427899	0.277221	0.371030
Cl137	Cl	0.930685	-0.054722	-0.176309
Cl138	Cl	1.430685	0.445278	0.323691
H139	H	0.921778	-0.593551	-0.173821
H140	H	1.421778	-0.093551	0.326179
Cl141	Cl	0.924560	-0.425480	-0.221160
Cl142	Cl	1.424560	0.074520	0.278840
H143	H	0.930335	-0.073015	0.150050
H144	H	1.430335	0.426985	0.650050
