data_functionalizedCrystal
_audit_creation_method	'MofGen! by Chris Wilmer'
_symmetry_space_group_name_H-M	'P1'
_symmetry_Int_Tables_number	1
_symmetry_cell_setting	triclinic
loop_
_symmetry_equiv_pos_as_xyz
  x,y,z
_cell_length_a	16.109301
_cell_length_b	19.288865
_cell_length_c	17.766277
_cell_angle_alpha	90.011603
_cell_angle_beta	89.993359
_cell_angle_gamma	96.701136
loop_
_atom_site_label
_atom_site_type_symbol
_atom_site_fract_x
_atom_site_fract_y
_atom_site_fract_z
O1	O	1.102832	-0.089282	-0.062555
O2	O	1.602832	0.410718	0.437445
O3	O	0.860732	-0.100392	-0.062569
O4	O	1.360732	0.399608	0.437431
O5	O	0.988778	0.006277	-0.062547
O6	O	1.488778	0.506277	0.437453
O7	O	0.974787	-0.195951	-0.062577
O8	O	1.474787	0.304049	0.437423
O9	O	0.988755	0.006282	0.062642
O10	O	1.488755	0.506282	0.562642
O11	O	0.860710	-0.100387	0.062620
O12	O	1.360710	0.399613	0.562620
O13	O	1.102810	-0.089276	0.062633
O14	O	1.602810	0.410724	0.562633
Cu15	Cu	0.981758	-0.094831	0.074057
Cu16	Cu	1.481758	0.405169	0.574057
Cu17	Cu	0.981784	-0.094838	-0.073993
Cu18	Cu	1.481784	0.405162	0.426007
O19	O	0.974764	-0.195945	0.062611
O20	O	1.474764	0.304055	0.562611
C21	C	0.829748	-0.099940	0.000024
C22	C	1.329748	0.400060	0.500024
C23	C	0.737457	-0.098590	0.000020
C24	C	1.237457	0.401410	0.500020
C25	C	0.514979	-0.158748	0.000020
C26	C	1.014979	0.341252	0.500020
C27	C	0.428263	-0.157475	0.000025
C28	C	0.928263	0.342525	0.500025
C29	C	0.448570	-0.030916	0.000041
C30	C	0.948570	0.469084	0.500041
C31	C	0.535284	-0.032190	0.000041
C32	C	1.035284	0.467810	0.500041
C33	C	0.568486	-0.096108	0.000027
C34	C	1.068486	0.403892	0.500027
C35	C	0.395056	-0.093561	0.000031
C36	C	0.895056	0.406439	0.500031
C37	C	0.301034	-0.092180	0.000037
C38	C	0.801034	0.407820	0.500037
C39	C	0.662513	-0.097489	0.000023
C40	C	1.162513	0.402511	0.500023
C41	C	0.988316	0.032157	0.000050
C42	C	1.488316	0.532157	0.500050
C43	C	0.986965	0.109264	0.000056
C44	C	1.486965	0.609264	0.500056
C45	C	1.133794	-0.089729	0.000039
C46	C	1.633794	0.410271	0.500039
C47	C	1.226085	-0.091078	0.000038
C48	C	1.726085	0.408922	0.500038
C49	C	0.975226	-0.221825	0.000013
C50	C	1.475226	0.278175	0.500013
C51	C	0.976577	-0.298932	0.000002
C52	C	1.476577	0.201068	0.500002
N53	N	0.981745	-0.094826	0.178188
N54	N	1.481745	0.405174	0.678188
C55	C	1.062096	0.153781	0.000064
C56	C	1.562096	0.653781	0.500064
C57	C	1.060827	0.226231	0.000052
C58	C	1.560827	0.726231	0.500052
C59	C	0.984421	0.254161	0.000047
C60	C	1.484421	0.754161	0.500047
C61	C	0.909280	0.209634	0.000036
C62	C	1.409280	0.709634	0.500036
C63	C	0.910552	0.137185	0.000040
C64	C	1.410552	0.637185	0.500040
C65	C	0.924350	0.362593	0.043895
C66	C	1.424350	0.862593	0.543895
C67	C	0.923082	0.435041	0.043895
C68	C	1.423082	0.935041	0.543895
C69	C	0.980496	0.477616	0.000030
C70	C	1.480496	0.977616	0.500030
C71	C	1.039193	0.447735	-0.043825
C72	C	1.539193	0.947735	0.456175
C73	C	1.040465	0.375287	-0.043821
C74	C	1.540465	0.875287	0.456179
C75	C	0.983034	0.332718	0.000042
C76	C	1.483034	0.832718	0.500042
C77	C	1.054256	0.600692	0.000024
C78	C	1.554256	1.100692	0.500024
C79	C	1.052983	0.673143	0.000007
C80	C	1.552983	1.173143	0.500007
C81	C	0.901434	0.656544	-0.000002
C82	C	1.401434	1.156544	0.499998
C83	C	0.902709	0.584095	0.000008
C84	C	1.402709	1.084095	0.500008
C85	C	0.979122	0.556173	0.000024
C86	C	1.479122	1.056173	0.500024
N87	N	0.981803	-0.094837	-0.178123
N88	N	1.481803	0.405163	0.321877
C89	C	1.038462	-0.047616	0.217584
C90	C	1.538462	0.452384	0.717584
C91	C	1.038467	-0.047613	0.296386
C92	C	1.538467	0.452387	0.796386
C93	C	0.981763	-0.094832	0.335788
C94	C	1.481763	0.405168	0.835788
C95	C	0.925035	-0.142045	0.296382
C96	C	1.425035	0.357955	0.796382
C97	C	0.925026	-0.142042	0.217582
C98	C	1.425026	0.357958	0.717582
C99	C	0.970632	-0.158093	0.460616
C100	C	1.470632	0.341907	0.960616
C101	C	0.970647	-0.158096	0.539415
C102	C	1.470647	0.341904	1.039415
C103	C	0.981785	-0.094840	0.578834
C104	C	1.481785	0.405160	1.078834
C105	C	0.992926	-0.031577	0.539445
C106	C	1.492926	0.468423	1.039445
C107	C	0.992917	-0.031575	0.460645
C108	C	1.492917	0.468425	0.960645
C109	C	0.981765	-0.094840	0.421234
C110	C	1.481765	0.405160	0.921234
C111	C	1.038510	-0.047623	0.703677
C112	C	1.538510	0.452377	1.203677
C113	C	1.038509	-0.047619	0.782480
C114	C	1.538509	0.452381	1.282480
C115	C	0.925081	-0.142057	0.782475
C116	C	1.425081	0.357943	1.282475
C117	C	0.925078	-0.142055	0.703673
C118	C	1.425078	0.357945	1.203673
C119	C	0.981797	-0.094839	0.664279
C120	C	1.481797	0.405161	1.164279
H121	H	1.124318	0.131052	0.000075
H122	H	1.624318	0.631052	0.500075
H123	H	0.847071	0.232379	0.000030
H124	H	1.347071	0.732379	0.500030
H125	H	0.877594	0.327934	0.079619
H126	H	1.377594	0.827934	0.579619
H127	H	1.084692	-0.009171	0.814558
H128	H	1.584692	0.490829	1.314558
Br129	Br	1.157956	0.562793	0.000054
Br130	Br	1.657956	1.062793	0.500054
Br131	Br	0.848116	-0.206132	0.835943
Br132	Br	1.348116	0.293868	1.335943
Br133	Br	0.955536	-0.243952	0.592864
Br134	Br	1.455536	0.256048	1.092864
Br135	Br	0.355648	-0.242490	0.000019
Br136	Br	0.855648	0.257510	0.500019
Br137	Br	1.115432	0.016463	0.164120
Br138	Br	1.615432	0.516463	0.664120
Br139	Br	1.154956	0.733562	0.000010
Br140	Br	1.654956	1.233562	0.500010
H141	H	0.849369	0.100939	0.000034
H142	H	1.349369	0.600939	0.500034
H143	H	0.878898	-0.180500	0.671594
H144	H	1.378898	0.319500	1.171594
H145	H	0.961548	-0.209607	0.428527
H146	H	1.461548	0.290393	0.928527
H147	H	1.122009	0.262483	0.000055
H148	H	1.622009	0.762483	0.500055
H149	H	0.421526	0.021124	0.000057
H150	H	0.921526	0.521124	0.500057
Br151	Br	0.607908	0.052828	0.000060
Br152	Br	1.107908	0.552828	0.500060
H153	H	0.878865	-0.180490	0.328467
H154	H	1.378865	0.319510	0.828467
Br155	Br	1.120116	0.334736	-0.103339
Br156	Br	1.620116	0.834736	0.396661
Br157	Br	1.117119	0.505506	-0.103360
Br158	Br	1.617119	1.005506	0.396640
H159	H	0.878840	-0.180487	0.185504
H160	H	1.378840	0.319513	0.685504
Br161	Br	0.797739	0.694441	-0.000015
Br162	Br	1.297739	1.194441	0.499985
H163	H	1.084654	-0.009168	0.328469
H164	H	1.584654	0.490832	0.828469
Br165	Br	0.800739	0.523675	-0.000002
Br166	Br	1.300739	1.023675	0.499998
H167	H	0.875283	0.459363	0.079601
H168	H	1.375283	0.959363	0.579601
Br169	Br	1.008053	0.054277	0.592933
Br170	Br	1.508053	0.554277	1.092933
Br171	Br	0.560036	-0.245494	0.000003
Br172	Br	1.060036	0.254506	0.500003
Br173	Br	1.008029	0.054277	0.407190
Br174	Br	1.508029	0.554277	0.907190
H175	H	1.084691	-0.009174	0.671601
H176	H	1.584691	0.490826	1.171601
