data_functionalizedCrystal
_audit_creation_method	'MofGen! by Chris Wilmer'
_symmetry_space_group_name_H-M	'P1'
_symmetry_Int_Tables_number	1
_symmetry_cell_setting	triclinic
loop_
_symmetry_equiv_pos_as_xyz
  x,y,z
_cell_length_a	16.109301
_cell_length_b	16.992695
_cell_length_c	14.586319
_cell_angle_alpha	89.995905
_cell_angle_beta	89.999213
_cell_angle_gamma	87.064852
loop_
_atom_site_label
_atom_site_type_symbol
_atom_site_fract_x
_atom_site_fract_y
_atom_site_fract_z
O1	O	1.109856	0.100784	-0.076183
O2	O	0.868631	0.113326	-0.076198
O3	O	0.988277	-0.007087	-0.076183
O4	O	0.990211	0.221197	-0.076198
O5	O	0.988268	-0.007089	0.076298
O6	O	0.868622	0.113324	0.076283
O7	O	1.109847	0.100782	0.076298
Cu8	Cu	0.989234	0.107053	0.090213
Cu9	Cu	0.989244	0.107055	-0.090113
O10	O	0.990202	0.221196	0.076283
C11	C	0.837618	0.112817	0.000041
C12	C	0.745221	0.111294	0.000035
C13	C	0.985784	-0.036300	0.000057
C14	C	0.978361	-0.123343	0.000056
C15	C	0.527480	0.179203	0.000042
C16	C	0.440664	0.177766	0.000048
C17	C	0.451005	0.034899	0.000053
C18	C	0.537819	0.036337	0.000054
C19	C	0.576055	0.108492	0.000043
C20	C	0.402424	0.105616	0.000049
C21	C	0.308294	0.104057	0.000055
C22	C	0.670191	0.110051	0.000039
C23	C	1.049987	-0.173601	0.000062
C24	C	1.043007	-0.255386	0.000052
C25	C	0.964400	-0.286911	0.000045
C26	C	0.892768	-0.236645	0.000037
C27	C	0.899749	-0.154862	0.000039
C28	C	0.935467	-0.530501	0.000030
C29	C	0.928491	-0.612291	0.000030
C30	C	1.078731	-0.631026	0.000045
C31	C	1.085704	-0.549240	0.000053
C32	C	1.014073	-0.498982	0.000040
N33	N	0.957263	-0.370508	0.000038
N34	N	1.021210	-0.415387	0.000040
C35	C	1.140860	0.101291	0.000057
C36	C	1.233257	0.102814	0.000057
C37	C	0.992694	0.250408	0.000041
C38	C	1.000118	0.337451	0.000036
N39	N	0.989232	0.107051	0.217045
N40	N	0.989252	0.107051	-0.216945
C41	C	1.042231	0.053750	0.452058
C42	C	1.042233	0.053748	0.548039
C43	C	0.936247	0.160355	0.548036
C44	C	0.936241	0.160352	0.452056
C45	C	0.989238	0.107051	0.404070
C46	C	0.989246	0.107051	0.596030
C47	C	0.989248	0.107050	0.700098
C48	C	0.989235	0.107051	0.299996
H49	H	0.558608	0.237956	0.000040
C50	C	1.157521	-0.686311	0.000049
C51	C	1.220448	-0.682803	0.079232
C52	C	1.299242	-0.738089	0.079232
C53	C	1.315109	-0.796881	0.000050
C54	C	1.252179	-0.800391	-0.079138
C55	C	1.173385	-0.745106	-0.079139
H56	H	1.208705	-0.639280	0.137852
H57	H	1.345827	-0.735490	0.137853
H58	H	1.373437	-0.837807	0.000051
H59	H	1.263923	-0.843915	-0.137759
H60	H	1.126801	-0.747704	-0.137760
H61	H	0.401118	0.235347	0.000048
C62	C	0.856671	-0.475228	0.000033
C63	C	0.793737	-0.478744	-0.079142
C64	C	0.714936	-0.423469	-0.079135
C65	C	0.699069	-0.364677	0.000047
C66	C	0.762004	-0.361158	0.079229
C67	C	0.840806	-0.416434	0.079221
H68	H	0.805481	-0.522268	-0.137763
H69	H	0.668347	-0.426074	-0.137751
H70	H	0.640735	-0.323759	0.000053
H71	H	0.750260	-0.317635	0.137849
H72	H	0.887395	-0.413829	0.137837
H73	H	0.893084	0.203757	0.412982
C74	C	0.591259	-0.041450	0.000055
C75	C	0.652370	-0.060101	-0.079120
C76	C	0.705811	-0.137884	-0.079114
C77	C	0.698140	-0.197016	0.000067
C78	C	0.637027	-0.178367	0.079247
C79	C	0.583586	-0.100584	0.079241
H80	H	0.658051	-0.016326	-0.137740
H81	H	0.751051	-0.151689	-0.137729
H82	H	0.737700	-0.254595	0.000071
H83	H	0.631346	-0.222141	0.137867
H84	H	0.538346	-0.086779	0.137857
H85	H	0.864477	-0.637954	0.000039
H86	H	0.419863	-0.023846	0.000067
H87	H	0.828765	-0.262319	0.000024
H88	H	1.113997	-0.147941	0.000074
H89	H	0.841423	-0.113942	0.000035
H90	H	1.101332	-0.296304	0.000059
C91	C	1.172174	-0.514566	0.000044
C92	C	1.250964	-0.569849	0.000036
C93	C	1.337434	-0.535175	0.000025
C94	C	1.345114	-0.445217	0.000021
C95	C	1.266321	-0.389928	0.000028
C96	C	1.179851	-0.424602	0.000040
H97	H	1.245281	-0.636447	0.000039
H98	H	1.395761	-0.576104	0.000019
H99	H	1.409124	-0.419548	0.000012
H100	H	1.272004	-0.323330	0.000025
H101	H	1.121524	-0.383673	0.000045
H102	H	0.893100	0.203753	0.587116
H103	H	1.085383	0.010347	0.412989
C104	C	1.100529	-0.004882	0.600827
C105	C	1.158829	-0.063502	0.548042
C106	C	1.217126	-0.122135	0.600830
C107	C	1.217124	-0.122147	0.706404
C108	C	1.158822	-0.063524	0.759195
C109	C	1.100525	-0.004892	0.706407
H110	H	1.158832	-0.063495	0.469884
H111	H	1.260285	-0.165532	0.561750
H112	H	1.260279	-0.165551	0.745481
H113	H	1.158818	-0.063531	0.837352
H114	H	1.057366	0.038505	0.745487
