data_functionalizedCrystal
_audit_creation_method	'MofGen! by Chris Wilmer'
_symmetry_space_group_name_H-M	'P1'
_symmetry_Int_Tables_number	1
_symmetry_cell_setting	triclinic
loop_
_symmetry_equiv_pos_as_xyz
  x,y,z
_cell_length_a	35.277628
_cell_length_b	35.288095
_cell_length_c	35.277682
_cell_angle_alpha	59.997929
_cell_angle_beta	89.998958
_cell_angle_gamma	60.000166
loop_
_atom_site_label
_atom_site_type_symbol
_atom_site_fract_x
_atom_site_fract_y
_atom_site_fract_z
O1	O	-0.323087	-0.271234	0.011271
O2	O	-0.267964	-0.193634	-0.011228
O3	O	-0.267962	-0.271233	0.066395
O4	O	-0.323089	-0.193635	-0.066351
O5	O	-0.204915	-0.334261	0.066394
O6	O	-0.204918	-0.256661	-0.011228
O7	O	-0.260040	-0.334261	0.011271
Zn8	Zn	-0.222469	-0.305468	0.000022
Zn9	Zn	-0.305535	-0.222427	0.000022
O10	O	-0.260043	-0.256662	-0.066351
C11	C	-0.163481	-0.071298	-0.023519
C12	C	-0.186872	-0.024531	-0.020298
C13	C	-0.117860	-0.093995	-0.023838
C14	C	-0.163483	-0.139918	-0.023524
C15	C	-0.186875	-0.166518	-0.020308
C16	C	-0.117862	-0.162510	-0.023843
C17	C	-0.094838	-0.139921	-0.023519
C18	C	-0.044836	-0.166525	-0.020298
C19	C	-0.186401	-0.093991	-0.023843
C20	C	-0.004439	-0.188019	-0.017694
C21	C	-0.205769	0.013252	-0.017695
C22	C	-0.205774	-0.188010	-0.017709
C23	C	0.046241	-0.214983	-0.014429
C24	C	-0.229477	0.060653	-0.014430
C25	C	-0.229483	-0.214971	-0.014450
C26	C	-0.500364	-0.466062	0.034181
C27	C	-0.477341	-0.511990	0.034503
C28	C	-0.431722	-0.466060	0.034178
C29	C	-0.408804	-0.511988	0.034500
C30	C	-0.431721	-0.534685	0.034181
C31	C	-0.477342	-0.443470	0.034500
C32	C	-0.665895	-0.342485	0.021756
C33	C	-0.712772	-0.317221	0.018243
C34	C	-0.736287	-0.338907	0.016481
C35	C	-0.787116	-0.311512	0.012664
C36	C	-0.712921	-0.385861	0.018236
C37	C	-0.666047	-0.411125	0.021755
C38	C	-0.642533	-0.389434	0.023515
C39	C	-0.389805	-0.687746	0.021758
C40	C	-0.368199	-0.731097	0.018245
C41	C	-0.322995	-0.752841	0.016478
C42	C	-0.299567	-0.799839	0.012662
C43	C	-0.299393	-0.731235	0.018230
C44	C	-0.320995	-0.687892	0.021751
C45	C	-0.366205	-0.666148	0.023512
C46	C	-0.389808	-0.342477	0.021744
C47	C	-0.368205	-0.317208	0.018222
C48	C	-0.322998	-0.338892	0.016457
C49	C	-0.299573	-0.311495	0.012637
C50	C	-0.299398	-0.385842	0.018210
C51	C	-0.321003	-0.411107	0.021730
C52	C	-0.366208	-0.389423	0.023501
C53	C	-0.591706	-0.416830	0.027326
C54	C	-0.551191	-0.438667	0.030366
C55	C	-0.408299	-0.438663	0.030360
C56	C	-0.389629	-0.416824	0.027317
C57	C	-0.408298	-0.581682	0.030365
C58	C	-0.389627	-0.619146	0.027325
C59	C	-0.432024	-0.061845	-0.438511
C60	C	-0.477645	-0.015917	-0.461431
C61	C	-0.432025	-0.061844	-0.369869
C62	C	-0.477645	-0.015916	-0.392892
C63	C	-0.500668	0.006779	-0.438513
C64	C	-0.409106	-0.084435	-0.392891
C65	C	-0.320834	-0.185425	-0.480424
C66	C	-0.299076	-0.210690	-0.502029
C67	C	-0.322531	-0.189005	-0.547237
C68	C	-0.298945	-0.216401	-0.570661
C69	C	-0.367745	-0.142051	-0.570839
C70	C	-0.389497	-0.116787	-0.549237
C71	C	-0.366040	-0.138476	-0.504027
C72	C	-0.666200	0.159838	-0.549704
C73	C	-0.713077	0.203188	-0.571462
C74	C	-0.736595	0.224934	-0.548009
C75	C	-0.787423	0.271931	-0.571594
C76	C	-0.713230	0.203329	-0.502796
C77	C	-0.666353	0.159987	-0.481041
C78	C	-0.642841	0.138241	-0.504500
C79	C	-0.320836	-0.185423	-0.204335
C80	C	-0.299080	-0.210691	-0.157455
C81	C	-0.322536	-0.189006	-0.133940
C82	C	-0.298950	-0.216402	-0.083110
C83	C	-0.367748	-0.142056	-0.157305
C84	C	-0.389502	-0.116792	-0.204182
C85	C	-0.366040	-0.138478	-0.227695
C86	C	-0.389632	-0.111079	-0.480604
C87	C	-0.408436	-0.089241	-0.461934
C88	C	-0.408437	-0.089240	-0.319041
C89	C	-0.389634	-0.111078	-0.278525
C90	C	-0.551496	0.053776	-0.462102
C91	C	-0.592011	0.091239	-0.480906
O92	O	0.196122	-0.334274	0.011291
O93	O	0.063378	-0.256674	-0.011208
O94	O	0.140994	-0.334276	0.066414
O95	O	0.118506	-0.256671	-0.066331
O96	O	0.140996	-0.271251	0.066419
O97	O	0.063380	-0.193649	-0.011203
O98	O	0.196124	-0.271249	0.011296
Zn99	Zn	0.129752	-0.222442	0.000047
Zn100	Zn	0.129750	-0.305480	0.000041
O101	O	0.118508	-0.193647	-0.066327
O102	O	-0.260036	0.184774	0.011294
O103	O	-0.204910	0.074561	-0.011204
O104	O	-0.204913	0.074554	0.066418
O105	O	-0.260033	0.184781	-0.066328
O106	O	-0.267961	0.074557	0.066413
O107	O	-0.267958	0.074564	-0.011209
O108	O	-0.323083	0.184777	0.011289
Zn109	Zn	-0.305531	0.129671	0.000039
Zn110	Zn	-0.222463	0.129667	0.000046
O111	O	-0.323081	0.184784	-0.066333
O112	O	-0.936929	0.397535	-0.602582
O113	O	-0.804185	0.287317	-0.547454
O114	O	-0.881802	0.287315	-0.547452
O115	O	-0.859312	0.397537	-0.602584
O116	O	-0.881801	0.287314	-0.610498
O117	O	-0.804183	0.287316	-0.610500
O118	O	-0.936927	0.397533	-0.665628
Zn119	Zn	-0.870555	0.342425	-0.648073
Zn120	Zn	-0.870557	0.342426	-0.565008
O121	O	-0.859310	0.397536	-0.665629
O122	O	-0.267961	-0.271234	-0.665316
O123	O	-0.323086	-0.193638	-0.610192
O124	O	-0.323085	-0.271236	-0.610189
O125	O	-0.267962	-0.193636	-0.665319
O126	O	-0.260038	-0.334264	-0.547142
O127	O	-0.260039	-0.256666	-0.547145
O128	O	-0.204914	-0.334262	-0.602269
Zn129	Zn	-0.222466	-0.305471	-0.564697
Zn130	Zn	-0.305534	-0.222429	-0.647764
O131	O	-0.204915	-0.256664	-0.602272
C132	C	-0.094840	-0.456607	0.293255
C133	C	-0.044837	-0.503376	0.316647
C134	C	-0.117862	-0.433912	0.316174
C135	C	-0.163483	-0.387984	0.224612
C136	C	-0.186875	-0.361381	0.174609
C137	C	-0.186401	-0.365393	0.247634
C138	C	-0.163483	-0.387984	0.293255
C139	C	-0.186874	-0.361382	0.316646
C140	C	-0.117862	-0.433912	0.247635
C141	C	-0.205772	-0.339889	0.335543
C142	C	-0.004440	-0.541160	0.335545
C143	C	-0.205773	-0.339888	0.134212
C144	C	-0.229480	-0.312925	0.359250
C145	C	0.046239	-0.588562	0.359254
C146	C	-0.229481	-0.312924	0.083532
C147	C	0.153295	-0.388013	0.293279
C148	C	0.150076	-0.361413	0.316673
C149	C	0.153614	-0.433940	0.316196
C150	C	0.153297	-0.388008	0.224634
C151	C	0.150079	-0.361403	0.174632
C152	C	0.153616	-0.433935	0.247655
C153	C	0.153293	-0.456633	0.293275
C154	C	0.150072	-0.503401	0.316665
C155	C	0.153617	-0.365420	0.247659
C156	C	0.147469	-0.541185	0.335561
C157	C	0.147474	-0.339922	0.335572
C158	C	0.147479	-0.339908	0.134234
C159	C	0.144204	-0.588587	0.359267
C160	C	0.144211	-0.312962	0.359282
C161	C	0.144218	-0.312942	0.083555
C162	C	-0.163482	-0.139963	0.293267
C163	C	-0.186875	-0.166567	0.316654
C164	C	-0.117861	-0.162559	0.316187
C165	C	-0.163482	-0.071333	0.224628
C166	C	-0.186873	-0.024557	0.174627
C167	C	-0.117860	-0.094033	0.247653
C168	C	-0.094838	-0.139967	0.293272
C169	C	-0.044835	-0.166574	0.316665
C170	C	-0.186401	-0.094030	0.247648
C171	C	-0.004438	-0.188070	0.335563
C172	C	-0.205773	-0.188061	0.335549
C173	C	-0.205771	0.013233	0.134231
C174	C	0.046242	-0.215038	0.359273
C175	C	-0.229482	-0.215026	0.359253
C176	C	-0.229479	0.060643	0.083553
C177	C	0.095627	0.006487	-0.438489
C178	C	0.095306	-0.016206	-0.461409
C179	C	0.095623	-0.062137	-0.369847
C180	C	0.095303	-0.084726	-0.392871
C181	C	0.095625	-0.062133	-0.438492
C182	C	0.095305	-0.016210	-0.392868
C183	C	0.108059	0.159543	-0.480399
C184	C	0.111575	0.202893	-0.502003
C185	C	0.113340	0.224640	-0.547210
C186	C	0.117161	0.271637	-0.570634
C187	C	0.111587	0.203038	-0.570814
C188	C	0.108065	0.159695	-0.549212
C189	C	0.106302	0.137948	-0.504002
C190	C	0.108054	-0.116452	-0.549685
C191	C	0.111568	-0.141562	-0.571444
C192	C	0.113332	-0.188519	-0.547992
C193	C	0.117148	-0.215753	-0.571578
C194	C	0.111577	-0.210363	-0.502779
C195	C	0.108055	-0.185249	-0.481023
C196	C	0.106297	-0.138292	-0.504481
C197	C	0.108046	-0.116473	-0.204312
C198	C	0.111564	-0.141591	-0.157432
C199	C	0.113326	-0.188548	-0.133918
C200	C	0.117142	-0.215786	-0.083088
C201	C	0.111574	-0.210388	-0.157283
C202	C	0.108058	-0.185270	-0.204161
C203	C	0.106290	-0.138308	-0.227673
C204	C	0.102487	0.090947	-0.480580
C205	C	0.099445	0.053484	-0.461911
C206	C	0.099438	-0.089371	-0.319019
C207	C	0.102477	-0.111078	-0.278503
C208	C	0.099442	-0.089362	-0.462081
C209	C	0.102482	-0.111066	-0.480886
O210	O	0.118477	-0.256700	0.452885
O211	O	0.140984	-0.334299	0.397762
O212	O	0.063360	-0.256699	0.397752
O213	O	0.196101	-0.334300	0.452895
O214	O	0.063367	-0.193672	0.334708
O215	O	0.140992	-0.271271	0.334718
O216	O	0.118484	-0.193673	0.389842
Zn217	Zn	0.129739	-0.222465	0.352270
Zn218	Zn	0.129729	-0.305506	0.435333
O219	O	0.196108	-0.271272	0.389852
C220	C	-0.500364	0.533998	-0.438484
C221	C	-0.477341	0.556591	-0.461399
C222	C	-0.431721	0.465364	-0.369840
C223	C	-0.408802	0.488061	-0.392859
C224	C	-0.431720	0.533995	-0.438478
C225	C	-0.477342	0.488064	-0.392865
C226	C	-0.665898	0.588334	-0.480407
C227	C	-0.712776	0.613450	-0.502014
C228	C	-0.736291	0.660414	-0.547220
C229	C	-0.787122	0.687654	-0.570647
C230	C	-0.712926	0.682257	-0.570819
C231	C	-0.666050	0.657138	-0.549214
C232	C	-0.642536	0.610174	-0.504006
C233	C	-0.389802	0.657585	-0.549654
C234	C	-0.368196	0.682850	-0.571408
C235	C	-0.322990	0.661164	-0.547952
C236	C	-0.299561	0.688558	-0.571532
C237	C	-0.299388	0.614205	-0.502740
C238	C	-0.320990	0.588935	-0.480990
C239	C	-0.366202	0.610633	-0.504452
C240	C	-0.389804	0.312282	-0.204314
C241	C	-0.368201	0.268929	-0.157436
C242	C	-0.322993	0.247179	-0.133918
C243	C	-0.299567	0.200174	-0.083089
C244	C	-0.299392	0.268786	-0.157278
C245	C	-0.320998	0.312139	-0.204154
C246	C	-0.366204	0.333881	-0.227670
C247	C	-0.591708	0.582942	-0.480581
C248	C	-0.551193	0.561234	-0.461909
C249	C	-0.408297	0.418359	-0.319013
C250	C	-0.389626	0.380890	-0.278499
C251	C	-0.408296	0.561393	-0.462062
C252	C	-0.389624	0.583232	-0.480862
H253	H	-0.099379	-0.074998	-0.024355
O254	O	-0.231138	-0.071342	-0.024523
C255	C	-0.259352	-0.055972	-0.064734
H256	H	-0.237102	-0.080666	-0.077704
H257	H	-0.276510	-0.011622	-0.092844
C258	C	-0.324380	-0.035403	-0.037239
C259	C	-0.297052	-0.065737	-0.053166
H260	H	-0.347636	-0.041424	-0.030104
H261	H	-0.305372	-0.045756	-0.010148
H262	H	-0.338673	0.001552	-0.060666
H263	H	-0.282754	-0.102692	-0.029737
H264	H	-0.316058	-0.055390	-0.080252
O265	O	-0.735469	-0.271560	0.016453
C266	C	-0.734525	-0.231645	-0.022568
H267	H	-0.729065	-0.241049	-0.049478
H268	H	-0.704880	-0.230609	-0.011509
C269	C	-0.787617	-0.165187	-0.010731
C270	C	-0.780916	-0.176735	-0.043784
H271	H	-0.816232	-0.131316	-0.023817
H272	H	-0.788252	-0.192079	0.015560
H273	H	-0.762910	-0.164328	-0.001517
H274	H	-0.805619	-0.177601	-0.052992
H275	H	-0.780286	-0.149842	-0.070076
H276	H	0.106623	0.141841	-0.443588
H277	H	-0.223884	-0.075035	0.229163
H278	H	0.094791	0.002793	-0.498893
H279	H	-0.099377	-0.452909	0.353658
O280	O	-0.391136	0.247982	-0.134702
C281	C	-0.395347	0.252203	-0.097013
H282	H	-0.392584	0.285712	-0.103706
H283	H	-0.366415	0.212703	-0.063856
C284	C	-0.446157	0.223749	-0.083372
C285	C	-0.442767	0.264908	-0.091595
H286	H	-0.475407	0.231583	-0.080028
H287	H	-0.443319	0.220903	-0.108763
H288	H	-0.422044	0.190836	-0.055742
H289	H	-0.466876	0.297819	-0.119227
H290	H	-0.445611	0.267760	-0.066208
O291	O	-0.095778	-0.071383	0.225678
C292	C	-0.082931	-0.056025	0.250522
H293	H	-0.080477	-0.080726	0.288195
H294	H	-0.110132	-0.011677	0.234274
C295	C	-0.038481	-0.035449	0.202449
C296	C	-0.035463	-0.065791	0.248720
H297	H	-0.009202	-0.041471	0.201337
H298	H	-0.047137	-0.045794	0.185710
H299	H	-0.061150	0.001505	0.188915
H300	H	-0.012798	-0.102745	0.262252
H301	H	-0.026802	-0.055453	0.265462
O302	O	0.154216	-0.321319	0.225534
C303	C	0.154449	-0.306170	0.180253
H304	H	0.139467	-0.322402	0.168909
H305	H	0.191605	-0.323265	0.179869
C306	C	0.143149	-0.224667	0.160567
C307	C	0.124744	-0.244599	0.146632
H308	H	0.124827	-0.186687	0.139828
H309	H	0.142994	-0.234873	0.191074
H310	H	0.174112	-0.238918	0.160247
H311	H	0.093784	-0.230353	0.146958
H312	H	0.124893	-0.234388	0.116124
O313	O	-0.095741	-0.456628	0.225646
C314	C	-0.050440	-0.502090	0.255751
H315	H	-0.049019	-0.517788	0.293261
H316	H	-0.024921	-0.490672	0.248096
C317	C	-0.039095	-0.526687	0.202235
C318	C	-0.037350	-0.545971	0.248306
H319	H	-0.031019	-0.553755	0.197642
H320	H	-0.069614	-0.496058	0.181952
H321	H	-0.017829	-0.517172	0.195862
H322	H	-0.058621	-0.555480	0.254677
H323	H	-0.006834	-0.576604	0.268590
H324	H	0.154138	-0.452930	0.229170
O325	O	0.094664	0.006530	-0.370890
C326	C	0.094469	0.052006	-0.401001
H327	H	0.080226	0.067673	-0.438508
H328	H	0.131399	0.040618	-0.393327
C329	C	0.081106	0.076660	-0.347525
C330	C	0.063608	0.095905	-0.393592
H331	H	0.062072	0.103739	-0.342954
H332	H	0.081239	0.046021	-0.327238
H333	H	0.111880	0.067170	-0.341136
H334	H	0.032837	0.105388	-0.399979
H335	H	0.063470	0.126547	-0.413881
H336	H	-0.371321	-0.530978	0.035012
H337	H	0.106608	-0.078237	-0.223453
H338	H	-0.099381	-0.199518	0.353671
O339	O	0.094651	-0.128791	-0.370768
C340	C	0.094449	-0.143967	-0.325475
H341	H	0.080213	-0.107898	-0.324049
H342	H	0.131375	-0.177179	-0.299930
C343	C	0.081061	-0.208702	-0.314186
C344	C	0.063573	-0.164401	-0.312435
H345	H	0.062017	-0.221310	-0.306141
H346	H	0.081199	-0.198480	-0.344699
H347	H	0.111832	-0.236373	-0.292898
H348	H	0.032805	-0.136729	-0.333727
H349	H	0.063429	-0.174620	-0.281925
O350	O	-0.298113	-0.206482	-0.227204
C351	C	-0.323291	-0.219155	-0.243749
H352	H	-0.361248	-0.193981	-0.247189
H353	H	-0.308231	-0.263486	-0.218319
C354	C	-0.273245	-0.238039	-0.287303
C355	C	-0.319865	-0.207117	-0.291531
H356	H	-0.271130	-0.230617	-0.316776
H357	H	-0.256280	-0.229503	-0.276154
H358	H	-0.260700	-0.274979	-0.266109
H359	H	-0.332407	-0.170178	-0.312720
H360	H	-0.336832	-0.215646	-0.302684
O361	O	0.154201	-0.456519	0.360905
C362	C	0.154417	-0.426627	0.376291
H363	H	0.139440	-0.384077	0.345071
H364	H	0.191568	-0.446292	0.396359
C365	C	0.143096	-0.477151	0.446504
C366	C	0.124696	-0.424888	0.408160
H367	H	0.124764	-0.476080	0.466164
H368	H	0.142952	-0.497291	0.436139
H369	H	0.174054	-0.493532	0.463223
H370	H	0.093741	-0.408510	0.391439
H371	H	0.124834	-0.404745	0.418523
O372	O	0.113238	-0.120292	-0.134812
C373	C	0.110936	-0.073466	-0.165615
H374	H	0.093853	-0.056428	-0.202872
H375	H	0.147506	-0.083576	-0.160833
C376	C	0.103077	-0.052600	-0.109635
C377	C	0.082092	-0.031671	-0.155394
H378	H	0.085287	-0.026819	-0.103329
H379	H	0.104630	-0.084148	-0.088881
H380	H	0.133551	-0.061024	-0.105655
H381	H	0.051620	-0.023254	-0.159371
H382	H	0.080533	-0.000120	-0.176148
H383	H	-0.426614	0.675254	-0.568760
H384	H	-0.647026	-0.449354	0.023185
O385	O	0.113298	0.223793	-0.479001
C386	C	0.110976	0.195312	-0.434472
H387	H	0.123046	0.153721	-0.423800
H388	H	0.073654	0.217834	-0.435174
C389	C	0.127725	0.241043	-0.412406
C390	C	0.142554	0.189959	-0.399297
H391	H	0.147202	0.237743	-0.390708
H392	H	0.129288	0.260233	-0.442406
H393	H	0.096623	0.259806	-0.412991
H394	H	0.173653	0.171200	-0.398718
H395	H	0.140997	0.170766	-0.369295
H396	H	0.113022	0.220750	-0.607622
O397	O	0.106388	0.138761	-0.572196
C398	C	0.108689	0.167257	-0.616733
H399	H	0.125774	0.187421	-0.616690
H400	H	0.072118	0.199039	-0.643190
C401	C	0.116541	0.103445	-0.629755
C402	C	0.137529	0.128207	-0.629701
H403	H	0.134328	0.079358	-0.637756
H404	H	0.114988	0.084248	-0.599750
H405	H	0.086065	0.129935	-0.651802
H406	H	0.168001	0.101717	-0.607650
H407	H	0.139086	0.147399	-0.659703
H408	H	0.106619	-0.078217	-0.568789
H409	H	-0.495827	-0.530983	0.035020
H410	H	0.112999	-0.123775	-0.608256
O411	O	0.113227	-0.255936	-0.480067
C412	C	0.075369	-0.247292	-0.505256
H413	H	0.062597	-0.212778	-0.543211
H414	H	0.046085	-0.236929	-0.490197
C415	C	0.106515	-0.340864	-0.455227
C416	C	0.090830	-0.298476	-0.501844
H417	H	0.116050	-0.372437	-0.453121
H418	H	0.132019	-0.346687	-0.438256
H419	H	0.082108	-0.332221	-0.442683
H420	H	0.115238	-0.307116	-0.514386
H421	H	0.065330	-0.292655	-0.518818
O422	O	-0.095835	-0.206640	-0.024397
C423	C	-0.093511	-0.248954	0.015387
H424	H	-0.122134	-0.231854	0.029086
H425	H	-0.058253	-0.276008	0.043274
C426	C	-0.064781	-0.302732	-0.014155
C427	C	-0.099939	-0.281729	0.002668
H428	H	-0.068743	-0.322951	-0.022000
H429	H	-0.066344	-0.274225	-0.040958
H430	H	-0.035402	-0.325273	0.009087
H431	H	-0.129316	-0.259183	-0.020576
H432	H	-0.098380	-0.310233	0.029466
H433	H	0.106623	-0.203035	-0.444212
H434	H	-0.495829	-0.406511	0.035012
H435	H	-0.387425	-0.278978	0.016792
H436	H	-0.426617	-0.324814	0.023182
H437	H	-0.301775	-0.670305	0.023178
O438	O	-0.643061	-0.321382	0.023393
C439	C	-0.626498	-0.308726	-0.014451
H440	H	-0.648048	-0.302959	-0.043396
H441	H	-0.588600	-0.342790	-0.002769
C442	C	-0.604017	-0.263760	0.003081
C443	C	-0.630489	-0.256672	-0.032472
H444	H	-0.606477	-0.231652	-0.008034
H445	H	-0.615175	-0.272288	0.028578
H446	H	-0.572439	-0.292148	0.012812
H447	H	-0.662067	-0.228289	-0.042199
H448	H	-0.619336	-0.248137	-0.057971
O449	O	0.113198	-0.255947	-0.134450
C450	C	0.075349	-0.247311	-0.117894
H451	H	0.046414	-0.202592	-0.139448
H452	H	0.087028	-0.262814	-0.079995
C453	C	0.092850	-0.332266	-0.095416
C454	C	0.057311	-0.277343	-0.121891
H455	H	0.081725	-0.350793	-0.097880
H456	H	0.118351	-0.338086	-0.106569
H457	H	0.102580	-0.345178	-0.063837
H458	H	0.047586	-0.264431	-0.153471
H459	H	0.031808	-0.271521	-0.110744
O460	O	-0.735795	-0.406915	0.016584
C461	C	-0.752337	-0.419586	0.054442
H462	H	-0.755772	-0.394412	0.067216
H463	H	-0.726909	-0.463917	0.083727
C464	C	-0.795900	-0.438468	0.023295
C465	C	-0.800122	-0.407546	0.038981
H466	H	-0.825374	-0.431043	0.013759
H467	H	-0.784754	-0.429933	-0.002210
H468	H	-0.774708	-0.475408	0.047702
H469	H	-0.821309	-0.370607	0.014573
H470	H	-0.811272	-0.416074	0.064482
H471	H	-0.426614	0.329984	-0.223458
O472	O	-0.735995	0.224403	-0.479953
C473	C	-0.705326	0.196033	-0.435381
H474	H	-0.668026	0.175829	-0.435299
H475	H	-0.710151	0.164292	-0.408929
C476	C	-0.761506	0.260028	-0.422639
C477	C	-0.715693	0.235217	-0.422539
H478	H	-0.767901	0.284197	-0.414716
H479	H	-0.782169	0.279140	-0.452667
H480	H	-0.765521	0.233572	-0.400596
H481	H	-0.711681	0.261672	-0.444586
H482	H	-0.695029	0.216110	-0.392514
H483	H	-0.426615	-0.670047	0.023195
O484	O	-0.364078	0.465320	-0.370747
C485	C	-0.348702	0.419841	-0.325454
H486	H	-0.370534	0.404172	-0.324035
H487	H	-0.352428	0.431226	-0.299914
C488	C	-0.270566	0.395193	-0.314141
C489	C	-0.297379	0.375946	-0.312398
H490	H	-0.238907	0.368116	-0.306086
H491	H	-0.280926	0.425834	-0.344655
H492	H	-0.273677	0.404680	-0.292857
H493	H	-0.294273	0.366465	-0.333686
H494	H	-0.287018	0.345302	-0.281888
H495	H	-0.387419	-0.748683	0.016816
O496	O	-0.255459	-0.752449	0.016576
C497	C	-0.226242	-0.806835	0.054435
H498	H	-0.247989	-0.823038	0.067211
H499	H	-0.207325	-0.810691	0.083718
C500	C	-0.163795	-0.819246	0.023283
C501	C	-0.190505	-0.839149	0.038972
H502	H	-0.141749	-0.839179	0.013746
H503	H	-0.183478	-0.782605	-0.002222
H504	H	-0.148035	-0.822461	0.047688
H505	H	-0.206269	-0.835928	0.014565
H506	H	-0.170823	-0.875790	0.064473
O507	O	-0.499471	0.600712	-0.506102
C508	C	-0.544761	0.615884	-0.521486
H509	H	-0.556096	0.599629	-0.490264
H510	H	-0.545170	0.598829	-0.541572
C511	C	-0.564448	0.697419	-0.591679
C512	C	-0.578371	0.677457	-0.553332
H513	H	-0.585180	0.735400	-0.611325
H514	H	-0.533935	0.687196	-0.581316
H515	H	-0.564789	0.683201	-0.608412
H516	H	-0.578024	0.691670	-0.536597
H517	H	-0.608884	0.687684	-0.563694
O518	O	-0.298003	-0.456725	0.023453
C519	C	-0.253475	-0.470441	0.021131
H520	H	-0.242801	-0.451588	0.033202
H521	H	-0.254177	-0.454949	-0.016192
C522	C	-0.231412	-0.554976	0.037880
C523	C	-0.218302	-0.531824	0.052709
H524	H	-0.209716	-0.592839	0.057357
H525	H	-0.261412	-0.545735	0.039442
H526	H	-0.231997	-0.542060	0.006777
H527	H	-0.217722	-0.544735	0.083809
H528	H	-0.188300	-0.541069	0.051153
O529	O	-0.735710	0.224088	-0.615370
C530	C	-0.704902	0.195607	-0.631410
H531	H	-0.675368	0.154017	-0.600478
H532	H	-0.690111	0.218130	-0.653242
C533	C	-0.767400	0.241333	-0.699216
C534	C	-0.731128	0.190250	-0.661224
H535	H	-0.783578	0.238030	-0.717608
H536	H	-0.788156	0.260523	-0.688410
H537	H	-0.755069	0.260097	-0.717404
H538	H	-0.743460	0.171490	-0.643034
H539	H	-0.710375	0.171056	-0.672027
O540	O	-0.499453	0.465458	-0.370889
C541	C	-0.544749	0.495373	-0.401000
H542	H	-0.546173	0.518626	-0.438507
H543	H	-0.570282	0.524625	-0.393328
C544	C	-0.556063	0.428567	-0.347523
C545	C	-0.557811	0.457123	-0.393590
H546	H	-0.564121	0.404973	-0.342951
H547	H	-0.525547	0.408413	-0.327235
H548	H	-0.577341	0.452948	-0.341136
H549	H	-0.536529	0.432742	-0.399975
H550	H	-0.588323	0.477272	-0.413879
O551	O	-0.255452	-0.406946	0.016581
C552	C	-0.226240	-0.419595	0.054428
H553	H	-0.242032	-0.425354	0.083366
H554	H	-0.222418	-0.385530	0.042746
C555	C	-0.158766	-0.464573	0.036918
C556	C	-0.178160	-0.471651	0.072462
H557	H	-0.129107	-0.496682	0.048041
H558	H	-0.178446	-0.456049	0.011419
H559	H	-0.155584	-0.436183	0.027186
H560	H	-0.181346	-0.500035	0.082189
H561	H	-0.158479	-0.480181	0.097964
H562	H	-0.387416	0.721084	-0.608218
H563	H	0.106630	-0.203055	-0.223182
O564	O	-0.735408	0.592178	-0.479017
C565	C	-0.704600	0.545336	-0.434488
H566	H	-0.675067	0.546731	-0.423812
H567	H	-0.689808	0.508730	-0.435194
C568	C	-0.767098	0.540024	-0.412428
C569	C	-0.730826	0.541738	-0.399314
H570	H	-0.783275	0.537802	-0.390731
H571	H	-0.787854	0.571581	-0.442429
H572	H	-0.754766	0.509518	-0.413016
H573	H	-0.743159	0.572247	-0.398732
H574	H	-0.710073	0.510186	-0.369313
H575	H	-0.496128	0.003076	-0.374407
O576	O	-0.735808	0.727929	-0.614696
C577	C	-0.773497	0.769726	-0.614586
H578	H	-0.766710	0.760250	-0.578301
H579	H	-0.806617	0.773825	-0.625037
C580	C	-0.787431	0.834282	-0.693928
C581	C	-0.779093	0.822646	-0.649363
H582	H	-0.790884	0.866927	-0.715381
H583	H	-0.762040	0.806123	-0.694003
H584	H	-0.815030	0.837695	-0.702631
H585	H	-0.751491	0.819227	-0.640658
H586	H	-0.804479	0.850806	-0.649287
O587	O	-0.255505	0.593206	-0.479943
C588	C	-0.255605	0.630984	-0.475814
H589	H	-0.291884	0.660468	-0.478491
H590	H	-0.245160	0.653654	-0.504837
C591	C	-0.176258	0.565586	-0.425192
C592	C	-0.220816	0.601796	-0.428476
H593	H	-0.154797	0.547582	-0.395993
H594	H	-0.176189	0.540134	-0.427975
H595	H	-0.167560	0.584483	-0.449381
H596	H	-0.229515	0.582898	-0.404291
H597	H	-0.220885	0.627244	-0.425688
O598	O	-0.298007	0.543340	-0.437066
C599	C	-0.253469	0.529605	-0.421029
H600	H	-0.253510	0.566892	-0.441237
H601	H	-0.227015	0.498381	-0.426367
C602	C	-0.240451	0.460615	-0.344178
C603	C	-0.240501	0.506413	-0.368996
H604	H	-0.232449	0.446307	-0.312082
H605	H	-0.270456	0.469867	-0.354983
H606	H	-0.218406	0.434601	-0.348632
H607	H	-0.262549	0.532428	-0.364547
H608	H	-0.210499	0.497164	-0.358189
H609	H	-0.496124	0.003081	-0.498917
O610	O	-0.255500	0.247661	-0.134371
C611	C	-0.255602	0.251897	-0.096686
H612	H	-0.287121	0.255232	-0.086204
H613	H	-0.257217	0.289091	-0.107311
C614	C	-0.172243	0.197679	-0.068201
C615	C	-0.210953	0.201770	-0.055325
H616	H	-0.144701	0.166760	-0.042688
H617	H	-0.172174	0.194826	-0.093591
H618	H	-0.173595	0.228677	-0.077056
H619	H	-0.209603	0.170775	-0.046476
H620	H	-0.211020	0.204616	-0.029933
H621	H	-0.646757	0.550094	-0.443598
H622	H	-0.371622	-0.121391	-0.374409
O623	O	-0.255154	-0.256280	-0.134835
C624	C	-0.239119	-0.270008	-0.165639
H625	H	-0.259333	-0.232719	-0.202895
H626	H	-0.244451	-0.301237	-0.160858
C627	C	-0.162265	-0.338987	-0.109658
C628	C	-0.187090	-0.293188	-0.155417
H629	H	-0.130171	-0.353288	-0.103352
H630	H	-0.173069	-0.329740	-0.088904
H631	H	-0.166714	-0.365005	-0.105680
H632	H	-0.182646	-0.267168	-0.159393
H633	H	-0.176285	-0.302431	-0.176171
H634	H	-0.647028	0.674924	-0.568431
H635	H	-0.647332	0.142401	-0.444230
O636	O	-0.297972	-0.206550	-0.436517
C637	C	-0.253407	-0.253412	-0.420315
H638	H	-0.242607	-0.252141	-0.451161
H639	H	-0.254114	-0.290013	-0.398452
C640	C	-0.231627	-0.258435	-0.352597
C641	C	-0.218360	-0.256872	-0.390482
H642	H	-0.210009	-0.260572	-0.334193
H643	H	-0.261652	-0.226865	-0.363511
H644	H	-0.232216	-0.288937	-0.334383
H645	H	-0.217777	-0.226368	-0.408698
H646	H	-0.188335	-0.288438	-0.379570
H647	H	-0.426314	-0.078564	-0.223203
H648	H	-0.386837	-0.124397	-0.607648
O649	O	-0.255131	-0.256247	-0.479156
C650	C	-0.225839	-0.247696	-0.504264
H651	H	-0.241629	-0.202982	-0.527519
H652	H	-0.221897	-0.263318	-0.526571
C653	C	-0.158441	-0.332575	-0.441582
C654	C	-0.177834	-0.277656	-0.470141
H655	H	-0.128829	-0.351057	-0.420534
H656	H	-0.178176	-0.338336	-0.424667
H657	H	-0.155161	-0.345585	-0.460176
H658	H	-0.181119	-0.264645	-0.451547
H659	H	-0.158099	-0.271892	-0.487053
O660	O	-0.433391	-0.071142	-0.572231
C661	C	-0.434300	-0.031213	-0.613094
H662	H	-0.403858	-0.050905	-0.623888
H663	H	-0.431515	-0.004096	-0.606428
C664	C	-0.517566	0.026558	-0.638894
C665	C	-0.480179	0.002372	-0.652155
H666	H	-0.545868	0.047277	-0.662989
H667	H	-0.516954	-0.000342	-0.611364
H668	H	-0.515239	0.049152	-0.633339
H669	H	-0.482503	-0.020227	-0.657704
H670	H	-0.480793	0.029269	-0.679687
O671	O	-0.643297	0.138735	-0.572479
C672	C	-0.605625	0.142995	-0.576620
H673	H	-0.595143	0.146318	-0.548429
H674	H	-0.616263	0.180204	-0.612206
C675	C	-0.577134	0.088811	-0.605777
C676	C	-0.564258	0.092889	-0.571150
H677	H	-0.551618	0.057905	-0.602405
H678	H	-0.602516	0.085943	-0.602989
H679	H	-0.586000	0.119822	-0.635429
H680	H	-0.555398	0.061882	-0.541499
H681	H	-0.538874	0.095751	-0.573933
O682	O	-0.390489	-0.120954	-0.134468
C683	C	-0.365298	-0.108303	-0.117907
H684	H	-0.342123	-0.102539	-0.139460
H685	H	-0.342905	-0.142369	-0.080009
C686	C	-0.427803	-0.063333	-0.095423
C687	C	-0.399341	-0.056249	-0.121897
H688	H	-0.448802	-0.031225	-0.097882
H689	H	-0.444774	-0.071858	-0.106579
H690	H	-0.409137	-0.091723	-0.063844
H691	H	-0.418007	-0.027864	-0.153476
H692	H	-0.382375	-0.047718	-0.110747
H693	H	-0.223883	-0.328432	0.229146
H694	H	-0.301778	0.329728	-0.223172
