data_functionalizedCrystal
_audit_creation_method	'MofGen! by Chris Wilmer'
_symmetry_space_group_name_H-M	'P1'
_symmetry_Int_Tables_number	1
_symmetry_cell_setting	triclinic
loop_
_symmetry_equiv_pos_as_xyz
  x,y,z
_cell_length_a	21.395362
_cell_length_b	21.395364
_cell_length_c	21.395356
_cell_angle_alpha	90.023767
_cell_angle_beta	90.026508
_cell_angle_gamma	90.026713
loop_
_atom_site_label
_atom_site_type_symbol
_atom_site_fract_x
_atom_site_fract_y
_atom_site_fract_z
Zn1	Zn	-0.249482	0.957863	0.354269
Zn2	Zn	0.083851	1.291197	0.687603
Zn3	Zn	0.417184	1.624530	1.020936
Zn4	Zn	-0.354259	0.957772	0.249494
Zn5	Zn	-0.020926	1.291105	0.582827
Zn6	Zn	0.312408	1.624438	0.916161
Zn7	Zn	-0.249496	0.853080	0.249506
Zn8	Zn	0.083837	1.186413	0.582839
Zn9	Zn	0.417171	1.519747	0.916173
Zn10	Zn	-0.354223	0.853052	0.354234
Zn11	Zn	-0.020890	1.186385	0.687567
Zn12	Zn	0.312444	1.519718	1.020901
O13	O	-0.301865	0.905442	0.301876
O14	O	0.031468	1.238775	0.635209
O15	O	0.364802	1.572108	0.968543
O16	O	-0.263390	1.045529	0.340381
O17	O	0.069943	1.378862	0.673714
O18	O	0.403276	1.712196	1.007047
O19	O	-0.340383	0.943858	0.161818
O20	O	-0.007049	1.277191	0.495151
O21	O	0.326284	1.610524	0.828484
O22	O	-0.161816	0.867030	0.263423
O23	O	0.171517	1.200363	0.596756
O24	O	0.504850	1.533697	0.930089
O25	O	-0.340369	1.045462	0.263403
O26	O	-0.007036	1.378795	0.596736
O27	O	0.326297	1.712128	0.930069
O28	O	-0.161806	0.944014	0.340392
O29	O	0.171527	1.277347	0.673725
O30	O	0.504860	1.610680	1.007059
O31	O	-0.263414	0.866941	0.161826
O32	O	0.069919	1.200274	0.495160
O33	O	0.403253	1.533608	0.828493
O34	O	-0.263379	0.765398	0.263388
O35	O	0.069954	1.098732	0.596722
O36	O	0.403288	1.432065	0.930055
O37	O	-0.340308	0.866982	0.441917
O38	O	-0.006975	1.200315	0.775250
O39	O	0.326359	1.533648	1.108583
O40	O	-0.340321	0.765378	0.340332
O41	O	-0.006988	1.098711	0.673665
O42	O	0.326345	1.432044	1.006998
O43	O	-0.263355	0.943986	0.441943
O44	O	0.069978	1.277320	0.775276
O45	O	0.403311	1.610653	1.108609
O46	O	-0.441932	0.943830	0.263368
O47	O	-0.108599	1.277164	0.596702
O48	O	0.224735	1.610497	0.930035
O49	O	-0.441906	0.866893	0.340320
O50	O	-0.108572	1.200226	0.673654
O51	O	0.224761	1.533560	1.006987
C52	C	-0.301848	0.742654	0.301858
C53	C	0.031485	1.075987	0.635191
C54	C	0.364818	1.409321	0.968524
C55	C	-0.301856	0.673013	0.301865
C56	C	0.031477	1.006346	0.635198
C57	C	0.364810	1.339679	0.968532
C58	C	-0.342002	0.171222	0.341901
C59	C	-0.008669	0.504556	0.675235
C60	C	0.324664	0.837889	1.008568
C61	C	-0.342002	0.236658	0.341895
C62	C	-0.008669	0.569991	0.675228
C63	C	0.324664	0.903324	1.008562
C64	C	-0.301879	0.269374	0.301896
C65	C	0.031455	0.602708	0.635229
C66	C	0.364788	0.936041	0.968562
C67	C	-0.261763	0.236651	0.261889
C68	C	0.071570	0.569984	0.595222
C69	C	0.404903	0.903317	0.928555
C70	C	-0.261769	0.171216	0.261892
C71	C	0.071565	0.504550	0.595225
C72	C	0.404898	0.837883	0.928559
C73	C	-0.245414	0.373061	0.297043
C74	C	0.087919	0.706394	0.630377
C75	C	0.421252	1.039728	0.963710
C76	C	-0.245408	0.438494	0.297044
C77	C	0.087926	0.771827	0.630378
C78	C	0.421259	1.105161	0.963711
C79	C	-0.301862	0.471195	0.301882
C80	C	0.031471	0.804529	0.635215
C81	C	0.364804	1.137862	0.968549
C82	C	-0.358325	0.438455	0.306732
C83	C	-0.024992	0.771789	0.640065
C84	C	0.308342	1.105122	0.973398
C85	C	-0.358330	0.373021	0.306735
C86	C	-0.024997	0.706355	0.640068
C87	C	0.308336	1.039688	0.973402
C88	C	-0.301869	0.340327	0.301887
C89	C	0.031465	0.673660	0.635221
C90	C	0.364798	1.006994	0.968554
C91	C	-0.341978	0.574864	0.341876
C92	C	-0.008645	0.908197	0.675210
C93	C	0.324688	1.241531	1.008543
C94	C	-0.341980	0.640300	0.341865
C95	C	-0.008646	0.973634	0.675199
C96	C	0.324687	1.306967	1.008532
C97	C	-0.261735	0.640292	0.261862
C98	C	0.071598	0.973625	0.595196
C99	C	0.404932	1.306959	0.928529
C100	C	-0.261739	0.574857	0.261870
C101	C	0.071594	0.908190	0.595203
C102	C	0.404927	1.241523	0.928537
C103	C	-0.301860	0.542147	0.301880
C104	C	0.031473	0.875480	0.635214
C105	C	0.364806	1.208813	0.968547
C106	C	-0.464653	0.905366	0.301853
C107	C	-0.131319	1.238699	0.635186
C108	C	0.202014	1.572032	0.968520
C109	C	-0.534294	0.905390	0.301864
C110	C	-0.200961	1.238724	0.635197
C111	C	0.132373	1.572057	0.968531
C112	C	-1.036032	0.945605	0.342034
C113	C	-0.702698	1.278938	0.675368
C114	C	-0.369365	1.612272	1.008701
C115	C	-0.970596	0.945587	0.342024
C116	C	-0.637263	1.278920	0.675358
C117	C	-0.303930	1.612253	1.008691
C118	C	-0.937932	0.905527	0.301915
C119	C	-0.604599	1.238860	0.635249
C120	C	-0.271265	1.572194	0.968582
C121	C	-0.970709	0.865494	0.261801
C122	C	-0.637375	1.198827	0.595135
C123	C	-0.304042	1.532161	0.928468
C124	C	-1.036143	0.865518	0.261808
C125	C	-0.702810	1.198851	0.595141
C126	C	-0.369476	1.532185	0.928475
C127	C	-0.834315	0.849042	0.296905
C128	C	-0.500981	1.182376	0.630238
C129	C	-0.167648	1.515709	0.963571
C130	C	-0.768882	0.849017	0.296903
C131	C	-0.435548	1.182351	0.630236
C132	C	-0.102215	1.515684	0.963569
C133	C	-0.736111	0.905453	0.301891
C134	C	-0.402778	1.238787	0.635225
C135	C	-0.069445	1.572120	0.968558
C136	C	-0.768782	0.961916	0.306895
C137	C	-0.435449	1.295250	0.640229
C138	C	-0.102115	1.628583	0.973562
C139	C	-0.834216	0.961940	0.306902
C140	C	-0.500883	1.295274	0.640235
C141	C	-0.167550	1.628607	0.973568
C142	C	-0.866980	0.905497	0.301903
C143	C	-0.533646	1.238830	0.635237
C144	C	-0.200313	1.572164	0.968570
C145	C	-0.632390	0.945467	0.341989
C146	C	-0.299057	1.278800	0.675322
C147	C	0.034277	1.612134	1.008655
C148	C	-0.566954	0.945450	0.341974
C149	C	-0.233620	1.278783	0.675308
C150	C	0.099713	1.612116	1.008641
C151	C	-0.567067	0.865351	0.261755
C152	C	-0.233734	1.198685	0.595088
C153	C	0.099599	1.532018	0.928421
C154	C	-0.632503	0.865374	0.261766
C155	C	-0.299169	1.198708	0.595099
C156	C	0.034164	1.532041	0.928432
C157	C	-0.665160	0.905431	0.301886
C158	C	-0.331827	1.238765	0.635219
C159	C	0.001507	1.572098	0.968553
C160	C	-0.138442	0.905535	0.301913
C161	C	0.194892	1.238868	0.635246
C162	C	0.528225	1.572202	0.968579
C163	C	-0.068800	0.905575	0.301928
C164	C	0.264533	1.238908	0.635262
C165	C	0.597866	1.572242	0.968595
C166	C	-0.301826	0.905491	0.465299
C167	C	0.031507	1.238824	0.798633
C168	C	0.364840	1.572158	1.131966
C169	C	-0.301810	0.905512	0.534940
C170	C	0.031524	1.238845	0.868274
C171	C	0.364857	1.572179	1.201607
C172	C	-0.301882	1.068865	0.301894
C173	C	0.031451	1.402198	0.635228
C174	C	0.364784	1.735532	0.968561
C175	C	-0.301890	1.138506	0.301902
C176	C	0.031444	1.471839	0.635236
C177	C	0.364777	1.805173	0.968569
C178	C	-0.301859	0.905429	0.139088
C179	C	0.031475	1.238762	0.472422
C180	C	0.364808	1.572095	0.805755
C181	C	-0.301699	0.905529	0.069447
C182	C	0.031635	1.238862	0.402781
C183	C	0.364968	1.572196	0.736114
C184	C	-0.261728	0.865472	0.567648
C185	C	0.071606	1.198806	0.900982
C186	C	0.404939	1.532139	1.234315
C187	C	-0.261716	0.865470	0.633084
C188	C	0.071617	1.198803	0.966417
C189	C	0.404951	1.532137	1.299750
C190	C	-0.301780	0.905519	0.665809
C191	C	0.031553	1.238852	0.999142
C192	C	0.364887	1.572186	1.332476
C193	C	-0.341870	0.945561	0.633093
C194	C	-0.008536	1.278895	0.966427
C195	C	0.324797	1.612228	1.299760
C196	C	-0.341885	0.945558	0.567659
C197	C	-0.008551	1.278891	0.900992
C198	C	0.324782	1.612225	1.234326
C199	C	-0.306707	0.961971	0.769495
C200	C	0.026626	1.295304	1.102829
C201	C	0.359959	1.628638	1.436162
C202	C	-0.306688	0.961976	0.834928
C203	C	0.026645	1.295309	1.168262
C204	C	0.359979	1.628642	1.501595
C205	C	-0.301738	0.905529	0.867630
C206	C	0.031596	1.238863	1.200963
C207	C	0.364929	1.572196	1.534296
C208	C	-0.296793	0.849077	0.834890
C209	C	0.036540	1.182410	1.168223
C210	C	0.369874	1.515743	1.501557
C211	C	-0.296808	0.849073	0.769456
C212	C	0.036525	1.182406	1.102789
C213	C	0.369859	1.515740	1.436122
C214	C	-0.301768	0.905527	0.736761
C215	C	0.031565	1.238860	1.070095
C216	C	0.364898	1.572193	1.403428
C217	C	-0.261641	0.865484	0.971290
C218	C	0.071693	1.198817	1.304623
C219	C	0.405026	1.532150	1.637957
C220	C	-0.261633	0.865481	1.036727
C221	C	0.071700	1.198814	1.370060
C222	C	0.405033	1.532147	1.703393
C223	C	-0.341784	0.945578	1.036735
C224	C	-0.008451	1.278911	1.370068
C225	C	0.324883	1.612244	1.703402
C226	C	-0.341795	0.945575	0.971300
C227	C	-0.008461	1.278908	1.304633
C228	C	0.324872	1.612242	1.637966
C229	C	-0.301720	0.905529	0.938581
C230	C	0.031614	1.238862	1.271914
C231	C	0.364947	1.572196	1.605248
H232	H	-0.229102	0.144579	0.229319
H233	H	0.104231	0.477913	0.562653
H234	H	0.437564	0.811246	0.895986
N235	N	-0.385266	0.271955	0.385041
N236	N	-0.051932	0.605288	0.718374
N237	N	0.281401	0.938622	1.051707
H238	H	-0.414268	0.299080	0.359528
H239	H	-0.080934	0.632414	0.692861
H240	H	0.252399	0.965747	1.026195
H241	H	-0.410641	0.241264	0.410377
H242	H	-0.077308	0.574598	0.743710
H243	H	0.256026	0.907931	1.077044
N244	N	-0.733446	1.022792	0.312270
N245	N	-0.400112	1.356125	0.645604
N246	N	-0.066779	1.689459	0.978937
H247	H	-0.764071	1.058562	0.315441
H248	H	-0.430737	1.391895	0.648774
H249	H	-0.097404	1.725229	0.982107
H250	H	-0.706273	1.021861	0.350870
H251	H	-0.372939	1.355194	0.684204
H252	H	-0.039606	1.688528	1.017537
H253	H	-0.374404	0.978187	1.063379
H254	H	-0.041070	1.311521	1.396713
H255	H	0.292263	1.644854	1.730046
N256	N	-0.385088	0.988752	0.668385
N257	N	-0.051754	1.322086	1.001718
N258	N	0.281579	1.655419	1.335052
H259	H	-0.378996	0.982680	0.714801
H260	H	-0.045663	1.316013	1.048134
H261	H	0.287671	1.649346	1.381468
H262	H	-0.375348	1.033506	0.656966
H263	H	-0.042015	1.366839	0.990300
H264	H	0.291319	1.700173	1.323633
H265	H	-0.404304	0.346367	0.310682
H266	H	-0.070971	0.679700	0.644015
H267	H	0.262362	1.013034	0.977349
H268	H	-0.374432	0.978181	0.944669
H269	H	-0.041099	1.311515	1.278002
H270	H	0.292234	1.644848	1.611335
H271	H	-0.374648	0.666937	0.374436
H272	H	-0.041315	1.000270	0.707769
H273	H	0.292018	1.333603	1.041102
N274	N	-0.385284	0.135942	0.385043
N275	N	-0.051951	0.469275	0.718376
N276	N	0.281383	0.802609	1.051710
H277	H	-0.410699	0.166601	0.410378
H278	H	-0.077366	0.499934	0.743712
H279	H	0.255968	0.833268	1.077045
H280	H	-0.414248	0.108776	0.359482
H281	H	-0.080914	0.442109	0.692815
H282	H	0.252419	0.775443	1.026148
N283	N	-0.218480	0.271936	0.218754
N284	N	0.114853	0.605269	0.552087
N285	N	0.448186	0.938602	0.885421
H286	H	-0.193068	0.241278	0.193415
H287	H	0.140266	0.574611	0.526748
H288	H	0.473599	0.907945	0.860082
H289	H	-0.243942	0.299065	0.189713
H290	H	0.089391	0.632398	0.523047
H291	H	0.422725	0.965732	0.856380
H292	H	-0.742284	0.803043	0.292832
H293	H	-0.408951	1.136376	0.626165
H294	H	-0.075617	1.469710	0.959499
N295	N	-1.071255	0.988784	0.385328
N296	N	-0.737922	1.322117	0.718662
N297	N	-0.404588	1.655451	1.051995
H298	H	-1.040563	1.014133	0.410742
H299	H	-0.707230	1.347466	0.744075
H300	H	-0.373896	1.680799	1.077409
H301	H	-1.098408	1.017815	0.359882
H302	H	-0.765074	1.351148	0.693215
H303	H	-0.431741	1.684481	1.026549
H304	H	-0.404295	0.465079	0.310675
H305	H	-0.070962	0.798413	0.644009
H306	H	0.262371	1.131746	0.977342
H307	H	-0.860991	0.803082	0.292845
H308	H	-0.527658	1.136415	0.626178
H309	H	-0.194324	1.469748	0.959511
H310	H	-0.310733	1.007940	0.742875
H311	H	0.022600	1.341274	1.076209
H312	H	0.355933	1.674607	1.409542
H313	H	-0.943911	0.978185	0.374685
H314	H	-0.610578	1.311519	0.708018
H315	H	-0.277244	1.644852	1.041351
N316	N	-0.218498	0.822281	0.532369
N317	N	0.114835	1.155615	0.865702
N318	N	0.448168	1.488948	1.199035
H319	H	-0.228216	0.777509	0.543739
H320	H	0.105117	1.110842	0.877073
H321	H	0.438450	1.444175	1.210406
H322	H	-0.224601	0.828403	0.485962
H323	H	0.108733	1.161737	0.819296
H324	H	0.442066	1.495070	1.152629
H325	H	-0.229010	0.832875	0.944649
H326	H	0.104324	1.166209	1.277983
H327	H	0.437657	1.499542	1.611316
H328	H	-0.229067	0.666930	0.229292
H329	H	0.104266	1.000263	0.562625
H330	H	0.437599	1.333596	0.895959
N331	N	-0.312023	1.022859	0.870239
N332	N	0.021311	1.356192	1.203573
N333	N	0.354644	1.689525	1.536906
H334	H	-0.275804	1.050924	0.858869
H335	H	0.057529	1.384258	1.192202
H336	H	0.390863	1.717591	1.525536
H337	H	-0.352601	1.044096	0.858836
H338	H	-0.019268	1.377429	1.192169
H339	H	0.314065	1.710763	1.525503
N340	N	-0.667617	0.988679	0.385250
N341	N	-0.334284	1.322012	0.718583
N342	N	-0.000951	1.655346	1.051916
H343	H	-0.714042	0.982618	0.379171
H344	H	-0.380709	1.315951	0.712505
H345	H	-0.047376	1.649284	1.045838
H346	H	-0.656161	0.978901	0.429987
H347	H	-0.322827	1.312235	0.763320
H348	H	0.010506	1.645568	1.096654
N349	N	-0.935486	0.822282	0.218542
N350	N	-0.602152	1.155615	0.551875
N351	N	-0.268819	1.488949	0.885208
H352	H	-0.946889	0.832044	0.173786
H353	H	-0.613556	1.165378	0.507119
H354	H	-0.280222	1.498711	0.840452
H355	H	-0.889071	0.828357	0.224676
H356	H	-0.555738	1.161691	0.558010
H357	H	-0.222405	1.495024	0.891343
H358	H	-0.229073	0.832866	0.659720
H359	H	0.104260	1.166199	0.993053
H360	H	0.437594	1.499533	1.326386
H361	H	-0.199432	0.465146	0.293103
H362	H	0.133901	0.798479	0.626436
H363	H	0.467235	1.131812	0.959769
N364	N	-0.531607	0.988630	0.385231
N365	N	-0.198273	1.321963	0.718565
N366	N	0.135060	1.655296	1.051898
H367	H	-0.562227	1.014006	0.410648
H368	H	-0.228893	1.347339	0.743981
H369	H	0.104440	1.680673	1.077314
H370	H	-0.504461	0.963097	0.414195
H371	H	-0.171127	1.296430	0.747528
H372	H	0.162206	1.629763	1.080862
H373	H	-0.374524	0.978166	0.541029
H374	H	-0.041190	1.311499	0.874362
H375	H	0.292143	1.644833	1.207695
H376	H	-0.229073	0.548219	0.229300
H377	H	0.104260	0.881552	0.562634
H378	H	0.437594	1.214886	0.895967
H379	H	-0.659183	0.832775	0.229109
H380	H	-0.325850	1.166108	0.562443
H381	H	0.007483	1.499441	0.895776
H382	H	-0.199440	0.346441	0.293093
H383	H	0.133893	0.679775	0.626427
H384	H	0.467227	1.013108	0.959760
H385	H	-0.374648	0.548230	0.374454
H386	H	-0.041315	0.881563	0.707788
H387	H	0.292019	1.214896	1.041121
H388	H	-0.292783	0.803108	0.742802
H389	H	0.040550	1.136441	1.076135
H390	H	0.373883	1.469774	1.409468
H391	H	-0.292758	0.803113	0.861514
H392	H	0.040576	1.136446	1.194847
H393	H	0.373909	1.469780	1.528181
H394	H	-0.860814	1.007914	0.310975
H395	H	-0.527481	1.341248	0.644308
H396	H	-0.194147	1.674581	0.977642
H397	H	-0.540473	0.832737	0.229094
H398	H	-0.207139	1.166070	0.562428
H399	H	0.126194	1.499403	0.895761
N400	N	-1.071491	0.822342	0.218548
N401	N	-0.738158	1.155675	0.551881
N402	N	-0.404824	1.489009	0.885215
H403	H	-1.040872	0.796962	0.193134
H404	H	-0.707539	1.130295	0.526468
H405	H	-0.374205	1.463629	0.859801
H406	H	-1.098649	0.793341	0.244027
H407	H	-0.765315	1.126674	0.577360
H408	H	-0.431982	1.460008	0.910693
H409	H	-0.228996	0.832871	1.063356
H410	H	0.104338	1.166204	1.396690
H411	H	0.437671	1.499537	1.730023
