data_functionalizedCrystal
_audit_creation_method	'MofGen! by Chris Wilmer'
_symmetry_space_group_name_H-M	'P1'
_symmetry_Int_Tables_number	1
_symmetry_cell_setting	triclinic
loop_
_symmetry_equiv_pos_as_xyz
  x,y,z
_cell_length_a	16.959455
_cell_length_b	16.959454
_cell_length_c	16.959447
_cell_angle_alpha	90.025781
_cell_angle_beta	90.015228
_cell_angle_gamma	90.017705
loop_
_atom_site_label
_atom_site_type_symbol
_atom_site_fract_x
_atom_site_fract_y
_atom_site_fract_z
Zn1	Zn	-1.208368	0.314776	-0.446953
Zn2	Zn	-1.208284	0.446969	-0.314785
Zn3	Zn	-1.076196	0.314796	-0.314788
Zn4	Zn	-1.076155	0.446905	-0.446921
O5	O	-1.142251	0.380861	-0.380862
O6	O	-1.318968	0.332330	-0.429432
O7	O	-1.190745	0.429471	-0.204174
O8	O	-1.093782	0.204183	-0.332335
O9	O	-1.318906	0.429452	-0.332329
O10	O	-1.190888	0.204168	-0.429435
O11	O	-1.093701	0.332364	-0.204177
O12	O	-0.965580	0.332302	-0.332304
O13	O	-1.093711	0.429342	-0.557536
O14	O	-0.965549	0.429362	-0.429382
O15	O	-1.190847	0.332268	-0.557559
O16	O	-1.190704	0.557571	-0.332298
O17	O	-1.093629	0.557524	-0.429378
C18	C	-0.936885	0.380828	-0.380840
C19	C	-0.849028	0.380832	-0.380850
C20	C	-1.142174	0.586228	-0.380852
C21	C	-1.142214	0.674084	-0.380874
C22	C	-0.477544	0.330256	-0.330408
C23	C	-0.477561	0.431482	-0.431339
C24	C	-0.560107	0.431473	-0.431336
C25	C	-0.601375	0.380856	-0.380867
C26	C	-0.560097	0.330248	-0.330402
C27	C	-0.601390	0.482087	-0.481794
C28	C	-0.683941	0.482081	-0.481792
C29	C	-0.725211	0.431460	-0.431327
C30	C	-0.683929	0.380848	-0.380860
C31	C	-0.725197	0.330231	-0.330391
C32	C	-0.683916	0.279615	-0.279928
C33	C	-0.601367	0.279626	-0.279936
C34	C	-0.807760	0.431449	-0.431319
C35	C	-0.807750	0.330223	-0.330385
C36	C	-0.348419	0.380886	-0.380880
C37	C	-0.436276	0.380873	-0.380877
C38	C	-1.091744	1.045565	-0.431417
C39	C	-1.192911	1.045554	-0.330409
C40	C	-1.192888	0.963008	-0.330400
C41	C	-1.142291	0.921737	-0.380900
C42	C	-1.091717	0.963012	-0.431408
C43	C	-1.243455	0.921728	-0.279887
C44	C	-1.243433	0.839177	-0.279876
C45	C	-1.192839	0.797904	-0.330380
C46	C	-1.142264	0.839184	-0.380891
C47	C	-1.091667	0.797912	-0.431391
C48	C	-1.041096	0.839190	-0.481906
C49	C	-1.041124	0.921739	-0.481912
C50	C	-1.192811	0.715356	-0.330374
C51	C	-1.091640	0.715359	-0.431382
C52	C	-1.142284	0.380796	-0.587030
C53	C	-1.142298	0.380768	-0.674887
C54	C	-1.142337	1.174693	-0.380893
C55	C	-1.142341	1.086837	-0.380917
C56	C	-1.091817	0.431227	-1.046353
C57	C	-1.192967	0.330143	-1.046372
C58	C	-1.192946	0.330159	-0.963826
C59	C	-1.142361	0.380711	-0.922540
C60	C	-1.091797	0.431247	-0.963799
C61	C	-1.243515	0.279631	-0.922560
C62	C	-1.243496	0.279646	-0.840009
C63	C	-1.192906	0.330195	-0.798722
C64	C	-1.142340	0.380731	-0.839986
C65	C	-1.091755	0.431283	-0.798700
C66	C	-1.041183	0.481817	-0.839963
C67	C	-1.041207	0.481795	-0.922511
C68	C	-1.192883	0.330216	-0.716173
C69	C	-1.091734	0.431303	-0.716146
C70	C	-1.142263	0.380870	-0.175495
C71	C	-1.142403	0.380675	-0.087639
H72	H	-0.841345	0.289000	-0.289291
C73	C	-1.036087	0.486913	-0.670734
C74	C	-0.974034	0.452666	-0.613988
C75	C	-0.918388	0.508275	-0.568576
C76	C	-0.924795	0.598130	-0.579911
C77	C	-0.986851	0.632382	-0.636660
C78	C	-1.042497	0.576773	-0.682071
H79	H	-0.969289	0.386145	-0.605595
H80	H	-0.872450	0.482919	-0.526567
H81	H	-0.883603	0.639295	-0.546294
H82	H	-0.991596	0.698902	-0.645053
H83	H	-1.088435	0.602128	-0.724081
H84	H	-1.234100	1.079162	-0.289290
H85	H	-1.284642	0.955337	-0.238768
H86	H	-1.284611	0.805573	-0.238745
C87	C	-1.248505	0.274637	-0.670782
C88	C	-1.242107	0.184776	-0.682151
C89	C	-1.297731	0.129193	-0.636760
C90	C	-1.359753	0.163471	-0.580001
C91	C	-1.366153	0.253338	-0.568630
C92	C	-1.310529	0.308921	-0.614021
H93	H	-1.196192	0.159396	-0.724169
H94	H	-1.292993	0.062667	-0.645178
H95	H	-1.400929	0.122326	-0.546400
H96	H	-1.412068	0.278717	-0.526611
H97	H	-1.315267	0.375446	-0.605603
C98	C	-1.299114	0.224055	-0.794622
C99	C	-1.361139	0.258322	-0.737860
C100	C	-1.416754	0.202729	-0.692470
C101	C	-1.410343	0.112868	-0.703843
C102	C	-1.348315	0.078597	-0.760608
C103	C	-1.292700	0.134191	-0.805998
H104	H	-1.365888	0.324846	-0.729438
H105	H	-1.462671	0.228099	-0.650449
H106	H	-1.451512	0.071715	-0.670243
H107	H	-1.343567	0.012073	-0.769030
H108	H	-1.246783	0.108820	-0.848019
H109	H	-0.567783	0.523302	-0.522877
H110	H	-1.000037	0.522939	-0.956115
H111	H	-0.717545	0.523295	-0.522883
H112	H	-1.234155	0.288990	-1.079992
C113	C	-1.248432	0.669948	-0.274814
C114	C	-1.242039	0.681348	-0.184952
C115	C	-1.297664	0.635940	-0.129390
C116	C	-1.359682	0.579132	-0.163690
C117	C	-1.366077	0.567730	-0.253557
C118	C	-1.310452	0.613138	-0.309119
H119	H	-1.196128	0.723403	-0.159557
H120	H	-1.292930	0.644381	-0.062864
H121	H	-1.400859	0.545519	-0.122560
H122	H	-1.411989	0.525675	-0.278952
H123	H	-1.315187	0.604696	-0.375645
H124	H	-0.443955	0.472696	-0.472424
H125	H	-0.841367	0.472662	-0.472403
H126	H	-1.000000	0.522980	-0.806337
C127	C	-1.036196	0.486813	-1.091742
C128	C	-1.070435	0.548859	-1.148481
C129	C	-1.014815	0.604446	-1.193873
C130	C	-0.924958	0.597986	-1.182525
C131	C	-0.890715	0.535938	-1.125783
C132	C	-0.946334	0.480351	-1.080391
H133	H	-1.136957	0.553643	-1.156884
H134	H	-1.040165	0.650378	-1.235877
H135	H	-0.883785	0.639135	-1.216127
H136	H	-0.824192	0.531154	-1.117381
H137	H	-0.920985	0.434419	-1.038387
C138	C	-1.299154	0.224029	-0.967978
C139	C	-1.361199	0.258281	-1.024731
C140	C	-1.416839	0.202676	-1.070155
C141	C	-1.410434	0.112820	-1.058827
C142	C	-1.348387	0.078563	-1.002072
C143	C	-1.292747	0.134168	-0.956648
H144	H	-1.365942	0.324802	-1.033119
H145	H	-1.462770	0.228036	-1.112170
H146	H	-1.451622	0.071658	-1.092453
H147	H	-1.343644	0.012042	-0.993684
H148	H	-1.246816	0.108808	-0.914633
H149	H	-0.717527	0.238407	-0.238833
H150	H	-0.567749	0.238418	-0.238851
H151	H	-0.443929	0.289043	-0.289325
C152	C	-0.985498	0.967148	-0.537471
C153	C	-0.923483	1.023955	-0.503165
C154	C	-0.867858	1.069369	-0.558721
C155	C	-0.874247	1.057976	-0.648585
C156	C	-0.936264	1.001166	-0.682896
C157	C	-0.991890	0.955752	-0.627339
H158	H	-0.918751	1.032392	-0.436638
H159	H	-0.821948	1.111424	-0.533322
H160	H	-0.833070	1.091594	-0.689711
H161	H	-0.940997	0.992730	-0.749423
H162	H	-1.037799	0.913698	-0.652739
C163	C	-1.036118	1.090967	-0.486982
C164	C	-0.974102	1.147779	-0.452687
C165	C	-0.918477	1.193182	-0.508253
C166	C	-0.924869	1.181773	-0.598114
C167	C	-0.986888	1.124958	-0.632414
C168	C	-1.042513	1.079555	-0.576848
H169	H	-0.969368	1.156227	-0.386162
H170	H	-0.872566	1.235240	-0.482862
H171	H	-0.883692	1.215383	-0.639248
H172	H	-0.991622	1.116511	-0.698939
H173	H	-1.088424	1.037497	-0.602240
H174	H	-1.050441	0.681761	-0.472508
H175	H	-0.999895	0.805578	-0.523020
