data_functionalizedCrystal
_audit_creation_method	'MofGen! by Chris Wilmer'
_symmetry_space_group_name_H-M	'P1'
_symmetry_Int_Tables_number	1
_symmetry_cell_setting	triclinic
loop_
_symmetry_equiv_pos_as_xyz
  x,y,z
_cell_length_a	27.732048
_cell_length_b	10.654548
_cell_length_c	9.130313
_cell_angle_alpha	90.000424
_cell_angle_beta	90.007934
_cell_angle_gamma	83.563397
loop_
_atom_site_label
_atom_site_type_symbol
_atom_site_fract_x
_atom_site_fract_y
_atom_site_fract_z
O1	O	0.067880	1.664988	0.121706
O2	O	0.074349	1.299237	0.121735
O3	O	0.000789	1.493472	0.121691
O4	O	0.141441	1.470753	0.121749
O5	O	0.000789	1.493457	-0.121907
O6	O	0.074349	1.299223	-0.121864
O7	O	0.067880	1.664973	-0.121893
Cu8	Cu	0.071115	1.482097	-0.144121
Cu9	Cu	0.071115	1.482114	0.143963
O10	O	0.141441	1.470739	-0.121850
C11	C	-0.017221	1.492988	-0.000112
C12	C	-0.070885	1.491552	-0.000124
C13	C	0.073874	1.252452	-0.000061
C14	C	0.072454	1.113068	-0.000051
C15	C	0.068355	1.711759	-0.000094
C16	C	0.069776	1.851142	-0.000094
C17	C	-0.409042	1.597291	-0.000057
C18	C	-0.610735	1.591963	-0.000036
O19	O	-0.641388	1.688655	0.000020
N20	N	-0.630575	1.476790	-0.000028
C21	C	-0.599989	1.362941	-0.000016
O22	O	-0.621493	1.264857	0.000006
C23	C	-0.398298	1.368270	-0.000027
C24	C	-0.378460	1.483451	-0.000049
C25	C	-0.389204	1.712463	-0.000078
C26	C	-0.338783	1.713793	-0.000091
C27	C	-0.308201	1.599953	-0.000083
C28	C	-0.328040	1.484782	-0.000062
C29	C	-0.367713	1.254422	-0.000004
C30	C	-0.317287	1.255765	-0.000003
C31	C	-0.297449	1.370945	-0.000025
C32	C	-0.247037	1.372272	-0.000068
N33	N	-0.227197	1.487445	-0.000076
C34	C	-0.257779	1.601286	-0.000083
C35	C	-0.705881	1.360151	-0.000014
C36	C	-0.756304	1.358818	-0.000014
C37	C	-0.767045	1.587841	-0.000031
C38	C	-0.716622	1.589173	-0.000041
C39	C	-0.686040	1.475324	-0.000022
C40	C	-0.151892	1.604072	-0.000112
C41	C	-0.101467	1.605392	-0.000132
C42	C	-0.090730	1.376370	-0.000107
C43	C	-0.141150	1.375049	-0.000095
C44	C	-0.171731	1.488910	-0.000093
O45	O	-0.216355	1.275632	-0.000108
O46	O	-0.236266	1.699355	-0.000073
C47	C	-0.459462	1.595961	-0.000044
C48	C	-0.479300	1.480789	-0.000023
C49	C	-0.448718	1.366949	-0.000015
C50	C	-0.529723	1.479457	-0.000023
C51	C	-0.560305	1.593297	-0.000031
C52	C	-0.540464	1.708470	-0.000038
C53	C	-0.490044	1.709801	-0.000052
C54	C	-0.468559	1.251776	-0.000007
C55	C	-0.518980	1.250454	0.000004
C56	C	-0.549562	1.364295	-0.000004
C57	C	0.159451	1.471223	-0.000043
C58	C	0.213114	1.472659	-0.000022
N59	N	0.071114	1.482094	-0.346744
C60	C	0.071785	2.047606	-0.132849
C61	C	0.070444	1.916642	-0.132871
C62	C	0.070443	1.916615	0.132714
C63	C	0.071781	2.047577	0.132734
C64	C	0.100702	1.557681	-0.423384
C65	C	0.100699	1.557702	-0.576721
C66	C	0.041520	1.406536	-0.576764
C67	C	0.041521	1.406524	-0.423430
N68	N	0.071111	1.482127	0.346585
H69	H	-0.085318	1.699190	-0.000154
O70	O	0.012834	1.332897	-0.349045
C71	C	0.025762	1.205188	-0.386553
H72	H	0.064697	1.192290	-0.428688
H73	H	0.022725	1.143458	-0.285726
H74	H	0.000319	1.176547	-0.475574
O75	O	0.129468	1.630946	-0.651332
C76	C	0.162180	1.553742	-0.740002
H77	H	0.146803	1.460873	-0.762994
H78	H	0.167743	1.604128	-0.847816
H79	H	0.198445	1.533799	-0.680900
H80	H	0.072333	2.100925	-0.240972
O81	O	-0.570157	1.819090	-0.000301
C82	C	-0.561110	1.889099	-0.126447
H83	H	-0.544108	1.822472	-0.214632
H84	H	-0.596713	1.940150	-0.168785
H85	H	-0.535195	1.961284	-0.097932
H86	H	0.017427	1.345008	-0.639220
O87	O	0.069707	1.853031	-0.261835
C88	C	0.027152	1.792300	-0.269799
H89	H	-0.001650	1.842271	-0.194445
H90	H	0.013110	1.795885	-0.387250
H91	H	0.035582	1.689639	-0.234144
H92	H	-0.772451	1.265027	-0.000021
H93	H	-0.322637	1.807585	-0.000104
H94	H	-0.065821	1.283684	-0.000106
H95	H	-0.176785	1.696788	-0.000105
O96	O	-0.470754	1.821656	-0.000320
C97	C	-0.441906	1.829277	-0.126465
H98	H	-0.454053	1.763887	-0.214643
H99	H	-0.446094	1.930569	-0.168816
H100	H	-0.402246	1.799540	-0.097941
O101	O	-0.697376	1.701089	0.000210
C102	C	-0.712975	1.770441	0.126348
H103	H	-0.723688	1.703073	0.214529
H104	H	-0.682253	1.823269	0.168698
H105	H	-0.745596	1.841058	0.097814
H106	H	0.072324	2.100879	0.240881
H107	H	-0.791954	1.680535	-0.000038
H108	H	-0.680985	1.267436	0.000002
H109	H	-0.292389	1.163053	0.000016
O110	O	-0.418837	1.823172	-0.000156
C111	C	-0.390505	1.925094	-0.000135
H112	H	-0.352989	1.892446	-0.046241
H113	H	-0.408826	2.004795	-0.070877
H114	H	-0.386788	1.960459	0.116726
H115	H	0.124799	1.619216	-0.360951
O116	O	-0.387030	1.142611	0.000229
C117	C	-0.415855	1.134983	0.126421
H118	H	-0.428080	1.234209	0.168454
H119	H	-0.449035	1.085552	0.098075
H120	H	-0.393760	1.079022	0.214776
O121	O	-0.160482	1.263246	0.000109
C122	C	-0.189305	1.255620	0.126305
H123	H	-0.201519	1.354845	0.168360
H124	H	-0.222492	1.206219	0.097954
H125	H	-0.167213	1.199630	0.214644
H126	H	-0.535126	1.156653	0.000010
H127	H	-0.443663	1.159071	0.000002
H128	H	0.069896	1.863276	0.240823
