data_functionalizedCrystal
_audit_creation_method	'MofGen! by Chris Wilmer'
_symmetry_space_group_name_H-M	'P1'
_symmetry_Int_Tables_number	1
_symmetry_cell_setting	triclinic
loop_
_symmetry_equiv_pos_as_xyz
  x,y,z
_cell_length_a	8.597366
_cell_length_b	8.597304
_cell_length_c	7.540329
_cell_angle_alpha	82.296904
_cell_angle_beta	97.700350
_cell_angle_gamma	86.359176
loop_
_atom_site_label
_atom_site_type_symbol
_atom_site_fract_x
_atom_site_fract_y
_atom_site_fract_z
O1	O	2.085996	0.234288	0.135480
O2	O	1.629345	0.252266	0.062951
O3	O	1.866658	0.014948	0.135482
O4	O	1.848683	0.471606	0.062950
O5	O	1.866650	0.014946	0.430446
O6	O	1.629337	0.252264	0.357915
O7	O	2.085988	0.234286	0.430445
Cu8	Cu	1.857662	0.243275	0.421112
Cu9	Cu	1.857671	0.243277	0.072283
O10	O	1.848675	0.471604	0.357914
C11	C	1.570840	0.250335	0.201788
C12	C	1.396528	0.244565	0.176033
C13	C	1.864724	-0.043554	0.291605
C14	C	1.858953	-0.217869	0.317351
C15	C	2.144493	0.236217	0.291603
C16	C	2.318805	0.241987	0.317348
C17	C	1.850609	0.530106	0.201787
C18	C	1.856380	0.704421	0.176030
N19	N	1.857666	0.243273	0.666462
N20	N	1.857679	0.243267	-0.173063
H21	H	1.385626	0.244195	0.458058
H22	H	1.856723	-0.284700	0.458055
O23	O	1.316730	0.242201	0.008161
C24	C	1.206252	0.374635	-0.038430
H25	H	1.244728	0.471048	0.043895
H26	H	1.085721	0.339860	-0.008167
C27	C	1.149160	0.317617	-0.342523
C28	C	1.196423	0.436039	-0.241421
H29	H	1.143090	0.355491	-0.467739
H30	H	1.223586	0.228390	-0.311134
H31	H	1.048721	0.288648	-0.317284
H32	H	1.296868	0.464991	-0.266644
H33	H	1.122013	0.525272	-0.272820
O34	O	1.858779	-0.215691	0.008206
C35	C	1.726278	-0.105297	-0.038390
H36	H	1.681916	-0.075665	0.089953
H37	H	1.629228	-0.157374	-0.124643
C38	C	1.827052	0.009215	-0.303780
C39	C	1.772574	0.045620	-0.146146
H40	H	1.855605	0.102305	-0.370256
H41	H	1.916317	-0.065163	-0.272392
H42	H	1.746167	-0.034185	-0.375636
H43	H	1.853464	0.089000	-0.074284
H44	H	1.683322	0.120008	-0.177525
