data_functionalizedCrystal
_audit_creation_method	'MofGen! by Chris Wilmer'
_symmetry_space_group_name_H-M	'P1'
_symmetry_Int_Tables_number	1
_symmetry_cell_setting	triclinic
loop_
_symmetry_equiv_pos_as_xyz
  x,y,z
_cell_length_a	14.044220
_cell_length_b	14.853567
_cell_length_c	13.330367
_cell_angle_alpha	90.000844
_cell_angle_beta	90.002608
_cell_angle_gamma	88.411904
loop_
_atom_site_label
_atom_site_type_symbol
_atom_site_fract_x
_atom_site_fract_y
_atom_site_fract_z
O1	O	-1.257997	-0.217372	-0.083301
O2	O	-0.982018	-0.209528	-0.083327
O3	O	-1.127379	-0.082805	-0.083316
O4	O	-1.112636	-0.344096	-0.083312
O5	O	-1.127358	-0.082800	0.083531
O6	O	-0.981996	-0.209524	0.083520
O7	O	-1.257976	-0.217368	0.083546
Cu8	Cu	-1.119984	-0.213445	0.098768
Cu9	Cu	-1.120009	-0.213451	-0.098548
O10	O	-1.112614	-0.344091	0.083535
C11	C	-0.946688	-0.206092	0.000093
C12	C	-0.841449	-0.195851	0.000083
C13	C	-1.126701	-0.049161	0.000104
C14	C	-1.124699	0.051082	0.000095
C15	C	-1.293306	-0.220803	0.000124
C16	C	-1.398545	-0.231045	0.000127
C17	C	-0.648763	-0.177127	0.000102
C18	C	-0.591225	-0.249765	0.000108
C19	C	-0.484008	-0.239347	0.000119
C20	C	-0.755990	-0.187544	0.000092
C21	C	-1.113293	-0.377735	0.000113
C22	C	-1.115295	-0.477978	0.000115
N23	N	-1.119974	-0.213441	0.237549
C24	C	-1.029888	0.471127	0.000106
C25	C	-1.202581	0.478726	0.000122
C26	C	-1.204464	0.384543	0.000116
C27	C	-1.119057	0.333648	0.000107
C28	C	-1.031768	0.376935	0.000103
C29	C	-1.291751	0.341248	0.000130
C30	C	-1.293637	0.247060	0.000125
C31	C	-1.208229	0.196163	0.000109
C32	C	-1.120937	0.239456	0.000104
C33	C	-1.035530	0.188561	0.000094
C34	C	-0.948237	0.231852	0.000082
C35	C	-0.946360	0.326038	0.000086
C36	C	-1.210105	0.101977	0.000105
C37	C	-1.037410	0.094369	0.000092
N38	N	-1.120027	-0.213448	-0.237330
C39	C	-1.055640	-0.269540	0.710167
C40	C	-1.184404	-0.157357	0.710145
C41	C	-1.184393	-0.157353	0.605126
C42	C	-1.120006	-0.213445	0.552624
C43	C	-1.055630	-0.269540	0.605139
C44	C	-1.248775	-0.101266	0.552603
C45	C	-1.248767	-0.101261	0.447578
C46	C	-1.184375	-0.157348	0.395073
C47	C	-1.119995	-0.213445	0.447596
C48	C	-1.055608	-0.269536	0.395093
C49	C	-0.991223	-0.325629	0.447613
C50	C	-0.991237	-0.325627	0.552635
C51	C	-1.184361	-0.157350	0.290052
C52	C	-1.055597	-0.269536	0.290065
H53	H	-0.617501	-0.107120	0.000107
O54	O	-0.856124	0.176949	0.000082
H55	H	-0.795106	0.222869	0.000082
O56	O	-1.383865	0.396137	0.000154
H57	H	-1.367890	0.468903	0.000146
O58	O	-0.632624	-0.342509	0.000107
H59	H	-0.608328	-0.379648	-0.067892
H60	H	-0.967860	0.052936	0.000080
H61	H	-0.875291	0.361295	0.000077
H62	H	-1.272115	0.520170	0.000137
H63	H	-1.003216	-0.315207	0.752932
H64	H	-0.958816	0.506379	0.000092
H65	H	-1.301192	-0.055586	0.404823
H66	H	-1.236786	-0.111684	0.247295
O67	O	-1.387782	0.200367	0.000115
H68	H	-1.446853	0.251583	0.000110
H69	H	-1.281178	0.066733	0.000121
H70	H	-1.236830	-0.111693	0.752896
H71	H	-1.003162	-0.315210	0.247323
O72	O	-0.921762	-0.386112	0.390983
H73	H	-0.932569	-0.376677	0.309133
O74	O	-0.921808	-0.386135	0.609277
H75	H	-0.932644	-0.376720	0.691125
H76	H	-1.301201	-0.055602	0.595354
