data_functionalizedCrystal
_audit_creation_method	'MofGen! by Chris Wilmer'
_symmetry_space_group_name_H-M	'P1'
_symmetry_Int_Tables_number	1
_symmetry_cell_setting	triclinic
loop_
_symmetry_equiv_pos_as_xyz
  x,y,z
_cell_length_a	14.908795
_cell_length_b	19.805405
_cell_length_c	19.805398
_cell_angle_alpha	90.027637
_cell_angle_beta	86.684627
_cell_angle_gamma	86.683419
loop_
_atom_site_label
_atom_site_type_symbol
_atom_site_fract_x
_atom_site_fract_y
_atom_site_fract_z
Zn1	Zn	1.379173	0.209876	-0.442494
Zn2	Zn	1.379069	0.323065	-0.329298
Zn3	Zn	1.228317	0.216412	-0.322780
Zn4	Zn	1.228259	0.329551	-0.435908
O5	O	1.303705	0.269726	-0.382620
O6	O	1.505408	0.219441	-0.432963
O7	O	1.359053	0.308938	-0.233716
O8	O	1.248397	0.120825	-0.338689
O9	O	1.505332	0.302601	-0.349798
O10	O	1.359230	0.116023	-0.426643
O11	O	1.248296	0.230580	-0.228927
O12	O	1.102061	0.236870	-0.332302
O13	O	1.248297	0.313655	-0.531499
O14	O	1.102018	0.319993	-0.415417
O15	O	1.359173	0.225730	-0.536338
O16	O	1.358996	0.418645	-0.343412
O17	O	1.248197	0.423410	-0.421737
C18	C	1.069305	0.279845	-0.372438
C19	C	0.969028	0.284190	-0.368098
C20	C	0.827654	0.333539	-0.318615
C21	C	0.921873	0.329459	-0.322692
C22	C	0.921957	0.242997	-0.409427
C23	C	0.827737	0.247076	-0.405350
C24	C	0.780589	0.292350	-0.359943
C25	C	0.686368	0.296433	-0.355869
C26	C	0.686454	0.209967	-0.442601
C27	C	0.780673	0.205887	-0.446678
C28	C	1.303603	0.445586	-0.382583
C29	C	1.303642	0.520817	-0.382593
C30	C	1.303740	0.269687	-0.559164
C31	C	1.303755	0.269670	-0.634397
C32	C	1.539020	0.259568	-0.392843
C33	C	1.639297	0.255239	-0.397199
C34	C	1.303831	0.093178	-0.382673
C35	C	1.303885	0.017943	-0.382696
C36	C	1.361392	0.553655	-0.341857
C37	C	1.361430	0.624341	-0.341874
C38	C	1.303714	0.662189	-0.382623
C39	C	1.245962	0.629346	-0.423364
C40	C	1.245929	0.558661	-0.423351
C41	C	1.246095	0.914414	-0.423420
C42	C	1.246130	0.985104	-0.423429
C43	C	1.361596	0.980095	-0.341943
C44	C	1.361563	0.909409	-0.341929
C45	C	1.303815	0.876572	-0.382673
C46	C	1.303775	0.799925	-0.382655
C47	C	1.303748	0.738835	-0.382638
C48	C	1.361597	0.223763	-1.098714
C49	C	1.361583	0.223784	-1.028025
C50	C	1.303848	0.269572	-0.990163
C51	C	1.246129	0.315346	-1.022994
C52	C	1.246149	0.315327	-1.093682
C53	C	1.246051	0.315423	-0.737917
C54	C	1.246034	0.315437	-0.667224
C55	C	1.361485	0.223880	-0.672260
C56	C	1.361505	0.223861	-0.742948
C57	C	1.303790	0.269637	-0.775773
C58	C	1.303807	0.269614	-0.852422
C59	C	1.303825	0.269592	-0.913515
C60	C	1.303721	0.269714	-0.206765
C61	C	1.303881	0.269532	-0.131540
H62	H	0.960189	0.362999	-0.289038
H63	H	1.408387	0.522844	-0.308671
F64	F	0.777473	0.381732	-0.270301
H65	H	1.408583	0.186516	-1.001301
F66	F	1.422960	0.175132	-0.783240
H67	H	0.819074	0.169025	-0.483646
H68	H	0.648124	0.176429	-0.476254
F69	F	1.184582	0.364173	-0.626930
F70	F	1.184629	0.364144	-0.772843
F71	F	1.423062	1.015047	-0.298583
H72	H	1.199124	0.352630	-0.992162
H73	H	1.199132	1.015918	-0.456618
H74	H	1.408482	0.186609	-0.645525
F75	F	1.184721	0.364042	-1.128618
H76	H	0.647981	0.333299	-0.318898
H77	H	1.199073	0.887684	-0.456594
F78	F	0.972150	0.194815	-0.457746
H79	H	1.408455	0.651075	-0.308701
H80	H	1.408558	0.878595	-0.308745
F81	F	1.184541	0.669628	-0.466738
F82	F	1.184466	0.523712	-0.466710
H83	H	1.408606	0.186473	-1.129536
