data_functionalizedCrystal
_audit_creation_method	'MofGen! by Chris Wilmer'
_symmetry_space_group_name_H-M	'P1'
_symmetry_Int_Tables_number	1
_symmetry_cell_setting	triclinic
loop_
_symmetry_equiv_pos_as_xyz
  x,y,z
_cell_length_a	6.817900
_cell_length_b	19.551900
_cell_length_c	14.125465
_cell_angle_alpha	96.298921
_cell_angle_beta	100.398878
_cell_angle_gamma	101.664829
loop_
_atom_site_label
_atom_site_type_symbol
_atom_site_fract_x
_atom_site_fract_y
_atom_site_fract_z
V1	V	-3.982351	-0.096074	-0.300426
O2	O	-3.979997	0.005234	-0.294242
O3	O	-3.925240	-0.191093	-0.298819
O4	O	-3.918656	-0.094325	-0.431248
O5	O	-3.986626	-0.092203	-0.160896
V6	V	-4.469090	-0.083988	-0.283683
O7	O	-4.236556	-0.122585	-0.337154
O8	O	-4.665082	-0.057478	-0.246955
O9	O	-4.302994	0.011030	-0.285290
O10	O	-4.588841	-0.185297	-0.289867
O11	O	-4.582212	-0.087860	-0.423213
O12	O	-4.309578	-0.085737	-0.152861
C13	C	-3.768617	-0.214265	-0.294195
C14	C	-3.803107	-0.291942	-0.293753
C15	C	-4.233016	-0.855292	-0.296303
C16	C	-4.200626	-0.782305	-0.296712
C17	C	-4.002924	-0.742156	-0.291196
C18	C	-3.837593	-0.774997	-0.285245
C19	C	-3.869985	-0.847981	-0.284827
C20	C	-3.829935	-0.630005	-0.344091
C21	C	-3.797553	-0.557023	-0.344516
C22	C	-3.903009	-0.517048	-0.292482
C23	C	-4.040888	-0.550066	-0.240037
C24	C	-4.073279	-0.623051	-0.239618
C25	C	-3.967780	-0.663017	-0.291648
C26	C	-4.033209	-0.405075	-0.298868
C27	C	-4.000809	-0.332086	-0.299271
C28	C	-3.637774	-0.324780	-0.287814
C29	C	-3.670176	-0.397767	-0.287402
C30	C	-3.867898	-0.437910	-0.292934
C31	C	-3.760218	-0.090827	-0.463120
C32	C	-3.789366	-0.090026	-0.570070
C33	C	-3.842794	-0.088557	-0.765887
C34	C	-4.028016	-0.091504	-0.818222
C35	C	-4.057746	-0.090687	-0.927181
C36	C	-3.813056	-0.089374	-0.656918
C37	C	-4.122959	0.034199	-0.289911
C38	C	-4.067707	0.111875	-0.290359
C39	C	-4.131359	-0.089238	-0.120983
C40	C	-4.081449	-0.090035	-0.014032
H41	H	-4.335243	-0.755567	-0.301547
H42	H	-4.164266	-0.094648	-0.781198
H43	H	-3.676620	-0.742303	-0.280752
H44	H	-4.194204	-0.437761	-0.303368
H45	H	-3.685296	-0.530146	-0.387224
C46	C	-4.180164	-0.296377	-0.305522
C47	C	-4.146691	-0.245490	-0.222933
C48	C	-4.311884	-0.212587	-0.228652
H49	H	-4.192515	-0.274242	-0.362221
H50	H	-4.302582	-0.330715	-0.308707
H51	H	-4.024307	-0.211157	-0.219757
H52	H	-4.134363	-0.267607	-0.166221
H53	H	-4.434302	-0.246925	-0.231838
H54	H	-4.324222	-0.190456	-0.285354
H55	H	-4.289204	-0.178061	-0.172614
H56	H	-3.735364	-0.874713	-0.279989
C57	C	-3.661260	-0.084273	-0.815353
C58	C	-3.635838	-0.023285	-0.859542
C59	C	-3.468660	-0.019323	-0.905145
H60	H	-3.540972	-0.082493	-0.768292
H61	H	-3.685412	-0.124735	-0.863392
H62	H	-3.611672	0.017167	-0.811508
H63	H	-3.756082	-0.025051	-0.906618
H64	H	-3.492812	-0.059784	-0.953183
H65	H	-3.348385	-0.017545	-0.858077
H66	H	-3.451400	0.022054	-0.935139
C67	C	-4.447524	-0.898935	-0.302122
C68	C	-4.451162	-0.931833	-0.219068
C69	C	-4.648725	-0.972047	-0.224390
H70	H	-4.541507	-0.868994	-0.305668
H71	H	-4.485076	-0.933849	-0.358523
H72	H	-4.413636	-0.896923	-0.162683
H73	H	-4.357222	-0.961785	-0.215506
H74	H	-4.686277	-1.006962	-0.280790
H75	H	-4.742692	-0.942102	-0.227938
H76	H	-4.651215	-0.994379	-0.168044
H77	H	-4.185538	-0.649931	-0.196914
H78	H	-3.476801	-0.292092	-0.283319
H79	H	-4.126762	-0.517520	-0.197665
H80	H	-3.744025	-0.662546	-0.386455
H81	H	-3.535563	-0.424500	-0.282565
