data_functionalizedCrystal
_audit_creation_method	'MofGen! by Chris Wilmer'
_symmetry_space_group_name_H-M	'P1'
_symmetry_Int_Tables_number	1
_symmetry_cell_setting	triclinic
loop_
_symmetry_equiv_pos_as_xyz
  x,y,z
_cell_length_a	16.120484
_cell_length_b	12.759401
_cell_length_c	16.120256
_cell_angle_alpha	92.880561
_cell_angle_beta	84.383827
_cell_angle_gamma	87.076339
loop_
_atom_site_label
_atom_site_type_symbol
_atom_site_fract_x
_atom_site_fract_y
_atom_site_fract_z
Zn1	Zn	-0.356799	-1.552081	0.489414
Zn2	Zn	-0.489485	-1.551949	0.356723
Zn3	Zn	-0.349727	-1.385772	0.349663
Zn4	Zn	-0.496526	-1.366961	0.496452
O5	O	-0.423134	-1.464191	0.423063
O6	O	-0.374413	-1.699083	0.471821
O7	O	-0.465039	-1.537723	0.238824
O8	O	-0.233700	-1.415761	0.362301
O9	O	-0.471897	-1.698986	0.374334
O10	O	-0.238896	-1.537948	0.464975
O11	O	-0.362360	-1.415633	0.233637
O12	O	-0.369187	-1.236257	0.369126
O13	O	-0.483898	-1.383700	0.612481
O14	O	-0.477040	-1.222436	0.476971
O15	O	-0.381241	-1.519707	0.607310
O16	O	-0.607384	-1.519482	0.381159
O17	O	-0.612557	-1.383572	0.483816
C18	C	-0.423111	-1.191226	0.423047
C19	C	-0.423122	-1.074448	0.423060
C20	C	-0.372461	-1.019625	0.473909
C21	C	-0.372467	-0.909900	0.473913
C22	C	-0.473800	-0.909830	0.372219
C23	C	-0.473790	-1.019554	0.372211
C24	C	-0.640299	-1.449499	0.434036
C25	C	-0.733205	-1.443308	0.438758
C26	C	-0.903305	-1.432010	0.447396
C27	C	-0.942124	-1.496559	0.398744
C28	C	-1.036773	-1.490273	0.403550
C29	C	-0.808647	-1.438294	0.442591
C30	C	-0.205122	-1.478967	0.412066
C31	C	-0.112219	-1.485264	0.407379
C32	C	-0.434144	-1.449620	0.641070
C33	C	-0.438835	-1.443411	0.733972
C34	C	-0.423151	-0.738222	0.423076
C35	C	-0.423138	-0.855000	0.423073
C36	C	-0.412108	-1.478769	0.205901
C37	C	-0.407181	-1.485198	0.112987
C38	C	-0.398648	-1.496570	0.942897
C39	C	-0.447366	-1.432042	0.904057
C40	C	-0.442618	-1.438369	0.809413
C41	C	-0.403395	-1.490244	1.037549
H42	H	-0.331212	-0.865269	0.515317
H43	H	-0.515044	-1.064192	0.330800
O44	O	-0.523117	-0.856441	0.322957
C45	C	-0.579568	-0.786142	0.373191
H46	H	-0.588154	-0.814470	0.439274
H47	H	-0.553885	-0.704535	0.374816
C48	C	-0.653781	-0.746533	0.255437
C49	C	-0.664332	-0.781330	0.336600
H50	H	-0.706067	-0.743559	0.232865
H51	H	-0.615748	-0.793891	0.221592
H52	H	-0.632376	-0.678529	0.256802
H53	H	-0.685726	-0.849337	0.335233
H54	H	-0.702371	-0.733983	0.370444
H55	H	-0.904274	-1.556543	0.353480
O56	O	-0.948357	-1.360310	0.501343
C57	C	-0.926271	-1.258221	0.481928
H58	H	-0.861252	-1.262352	0.446644
H59	H	-0.973252	-1.222560	0.441373
C60	C	-1.006370	-1.184223	0.606505
C61	C	-0.926509	-1.189296	0.563175
H62	H	-1.006520	-1.141704	0.656621
H63	H	-1.021253	-1.253001	0.619584
H64	H	-1.045512	-1.154508	0.572700
H65	H	-0.887370	-1.219022	0.596976
H66	H	-0.911619	-1.120521	0.550104
O67	O	-0.323316	-1.073110	0.523273
C68	C	-0.334153	-1.181713	0.512350
H69	H	-0.397226	-1.194181	0.488128
H70	H	-0.282259	-1.219162	0.465409
C71	C	-0.253420	-1.217604	0.626297
C72	C	-0.330891	-1.232917	0.596553
H73	H	-0.251404	-1.249191	0.678236
H74	H	-0.246116	-1.144436	0.633654
H75	H	-0.210184	-1.248811	0.587172
H76	H	-0.374125	-1.201698	0.635672
H77	H	-0.338202	-1.306081	0.589205
H78	H	-0.492635	-1.372039	0.941886
H79	H	-0.353378	-1.556564	0.905070
