data_functionalizedCrystal
_audit_creation_method	'MofGen! by Chris Wilmer'
_symmetry_space_group_name_H-M	'P1'
_symmetry_Int_Tables_number	1
_symmetry_cell_setting	triclinic
loop_
_symmetry_equiv_pos_as_xyz
  x,y,z
_cell_length_a	13.897449
_cell_length_b	12.594516
_cell_length_c	13.897441
_cell_angle_alpha	90.028053
_cell_angle_beta	90.023394
_cell_angle_gamma	90.012642
loop_
_atom_site_label
_atom_site_type_symbol
_atom_site_fract_x
_atom_site_fract_y
_atom_site_fract_z
Zn1	Zn	1.474742	-0.423685	0.545467
Zn2	Zn	1.474653	-0.601695	0.384175
Zn3	Zn	1.313431	-0.423734	0.384178
Zn4	Zn	1.313429	-0.601624	0.545420
O5	O	1.394064	-0.512685	0.464810
O6	O	1.609712	-0.447307	0.524090
O7	O	1.453230	-0.578139	0.249194
O8	O	1.334868	-0.274782	0.405593
O9	O	1.609646	-0.578091	0.405589
O10	O	1.453382	-0.274745	0.524092
O11	O	1.334781	-0.447391	0.249196
O12	O	1.178449	-0.447322	0.405548
O13	O	1.334865	-0.577970	0.680408
O14	O	1.178448	-0.578017	0.524013
O15	O	1.453380	-0.447238	0.680442
O16	O	1.453228	-0.750632	0.405544
O17	O	1.334778	-0.750579	0.524011
C18	C	1.143449	-0.512668	0.464776
C19	C	1.036236	-0.512687	0.464785
C20	C	0.949166	-0.512690	0.464801
C21	C	0.839933	-0.512698	0.464830
C22	C	1.394019	-0.789225	0.464793
C23	C	1.394088	-0.907531	0.464818
C24	C	1.458588	-0.976774	0.400453
C25	C	1.482161	-1.047470	0.488495
C26	C	1.370636	-1.047634	0.376833
C27	C	1.417707	-0.976668	0.552906
C28	C	1.306140	-0.976827	0.441184
C29	C	1.329680	-1.047490	0.529287
C30	C	1.645657	-0.512702	0.464844
C31	C	1.752871	-0.512709	0.464859
C32	C	1.394132	-0.512590	0.716403
C33	C	1.394161	-0.512550	0.823617
C34	C	1.394135	-0.235064	0.464848
C35	C	1.394165	-0.116758	0.464864
C36	C	1.394051	-0.512701	0.214196
C37	C	1.394209	-0.512442	0.106982
C38	C	1.394188	-0.512478	1.019912
C39	C	1.394170	-0.512521	0.910680
H40	H	1.556570	-1.078503	0.508511
O41	O	1.441679	-0.939598	0.641664
C42	C	1.525673	-0.877237	0.634944
H43	H	1.567636	-0.900793	0.567782
H44	H	1.572278	-0.890703	0.701348
H45	H	1.505025	-0.789792	0.630270
O46	O	1.523796	-0.939770	0.335684
C47	C	1.616463	-0.975787	0.360981
H48	H	1.618246	-0.995577	0.440996
H49	H	1.671475	-0.911023	0.344930
H50	H	1.634601	-1.049882	0.317471
O51	O	1.264755	-1.084259	0.594447
C52	C	1.289867	-1.047877	0.687077
H53	H	1.369887	-1.028059	0.688983
H54	H	1.273670	-1.112432	0.742218
H55	H	1.246350	-0.973724	0.704934
H56	H	1.350767	-1.078805	0.302405
O57	O	1.217427	-0.939816	0.417110
C58	C	1.192925	-0.975935	0.324233
H59	H	1.261308	-0.995804	0.282687
H60	H	1.151502	-0.911202	0.284615
H61	H	1.146152	-1.050004	0.330292
