data_functionalizedCrystal
_audit_creation_method	'MofGen! by Chris Wilmer'
_symmetry_space_group_name_H-M	'P1'
_symmetry_Int_Tables_number	1
_symmetry_cell_setting	triclinic
loop_
_symmetry_equiv_pos_as_xyz
  x,y,z
_cell_length_a	19.188925
_cell_length_b	27.731996
_cell_length_c	18.266242
_cell_angle_alpha	89.987663
_cell_angle_beta	89.990012
_cell_angle_gamma	82.881968
loop_
_atom_site_label
_atom_site_type_symbol
_atom_site_fract_x
_atom_site_fract_y
_atom_site_fract_z
O1	O	0.925751	0.060337	-0.060906
O2	O	1.425751	0.560337	0.439094
O3	O	0.722385	0.068464	-0.060905
O4	O	1.222385	0.568464	0.439095
O5	O	0.830403	-0.005979	-0.060890
O6	O	1.330403	0.494021	0.439110
O7	O	0.817733	0.134780	-0.060922
O8	O	1.317733	0.634780	0.439078
O9	O	0.830385	-0.005983	0.060872
O10	O	1.330385	0.494017	0.560872
O11	O	0.722367	0.068460	0.060856
O12	O	1.222367	0.568460	0.560856
O13	O	0.925732	0.060333	0.060856
O14	O	1.425732	0.560333	0.560856
Zn15	Zn	0.824047	0.064396	0.080188
Zn16	Zn	1.324047	0.564396	0.580188
Zn17	Zn	0.824070	0.064401	-0.080238
Zn18	Zn	1.324070	0.564401	0.419762
O19	O	0.817714	0.134776	0.060840
O20	O	1.317714	0.634776	0.560840
C21	C	0.696366	0.068199	-0.000024
C22	C	1.196366	0.568199	0.499976
C23	C	0.618867	0.067410	-0.000023
C24	C	1.118867	0.567410	0.499977
C25	C	0.056841	0.105810	-0.000034
C26	C	0.556841	0.605810	0.499966
C27	C	0.129660	0.106555	-0.000038
C28	C	0.629660	0.606555	0.499962
C29	C	0.174884	0.062874	-0.000026
C30	C	0.674884	0.562874	0.499974
C31	C	0.147286	0.018445	-0.000030
C32	C	0.647286	0.518445	0.499970
C33	C	0.074469	0.017701	-0.000033
C34	C	0.574469	0.517701	0.499967
N35	N	0.295766	0.031250	0.041429
N36	N	0.795766	0.531250	0.541429
N37	N	0.364938	0.031960	0.041434
N38	N	0.864938	0.531960	0.541434
C39	C	0.394279	0.065113	-0.000018
C40	C	0.894279	0.565113	0.499982
N41	N	0.351832	0.097538	-0.041466
N42	N	0.851832	0.597538	0.458534
N43	N	0.282653	0.096829	-0.041468
N44	N	0.782653	0.596829	0.458532
C45	C	0.253843	0.063676	-0.000023
C46	C	0.753843	0.563676	0.499977
C47	C	0.500827	0.110348	-0.000024
C48	C	1.000827	0.610348	0.499976
C49	C	0.573647	0.111091	-0.000033
C50	C	1.073647	0.611091	0.499967
C51	C	0.591272	0.022980	-0.000018
C52	C	1.091272	0.522980	0.499982
C53	C	0.518453	0.022238	-0.000017
C54	C	1.018453	0.522238	0.499983
C55	C	0.473235	0.065923	-0.000017
C56	C	0.973235	0.565923	0.499983
C57	C	0.830133	-0.023989	-0.000007
C58	C	1.330133	0.476011	0.499993
C59	C	0.829349	-0.077648	0.000001
C60	C	1.329349	0.422352	0.500001
C61	C	0.824427	-0.410377	-0.066407
C62	C	1.324427	0.089623	0.433593
C63	C	0.821450	-0.612044	-0.066420
C64	C	1.321450	-0.112044	0.433580
O65	O	0.821043	-0.638114	-0.122868
O66	O	1.321043	-0.138114	0.377132
N67	N	0.821070	-0.637265	-0.000048
N68	N	1.321070	-0.137265	0.499952
C69	C	0.821430	-0.612065	0.066331
C70	C	1.321430	-0.112065	0.566331
O71	O	0.821032	-0.638143	0.122784
O72	O	1.321032	-0.138143	0.622784
C73	C	0.824402	-0.410398	0.066344
C74	C	1.324402	0.089602	0.566344
C75	C	0.824789	-0.385181	-0.000033
C76	C	1.324789	0.114819	0.499967
C77	C	0.824813	-0.385160	-0.132778
C78	C	1.324813	0.114840	0.367222
C79	C	0.825561	-0.334746	-0.132774
C80	C	1.325561	0.165254	0.367226
C81	C	0.825923	-0.309550	-0.066400
C82	C	1.325923	0.190450	0.433600
C83	C	0.825537	-0.334767	-0.000029
C84	C	1.325537	0.165233	0.499971
C85	C	0.824757	-0.385198	0.132723
C86	C	1.324757	0.114802	0.632723
C87	C	0.825499	-0.334778	0.132720
C88	C	1.325499	0.165222	0.632720
C89	C	0.825885	-0.309561	0.066344
C90	C	1.325885	0.190439	0.566344
C91	C	0.826647	-0.259158	0.066350
C92	C	1.326647	0.240842	0.566350
N93	N	0.827027	-0.233937	-0.000022
N94	N	1.327027	0.266063	0.499978
C95	C	0.826665	-0.259133	-0.066397
C96	C	1.326665	0.240867	0.433603
C97	C	0.819872	-0.717943	0.066320
C98	C	1.319872	-0.217943	0.566320
C99	C	0.819130	-0.768359	0.066318
C100	C	1.319130	-0.268359	0.566318
C101	C	0.819148	-0.768335	-0.066434
C102	C	1.319148	-0.268335	0.433566
C103	C	0.819895	-0.717918	-0.066431
C104	C	1.319895	-0.217918	0.433569
C105	C	0.820251	-0.692722	-0.000051
C106	C	1.320251	-0.192722	0.499949
C107	C	0.828236	-0.153262	-0.066384
C108	C	1.328236	0.346738	0.433616
C109	C	0.828987	-0.102844	-0.066374
C110	C	1.328987	0.397156	0.433626
C111	C	0.828965	-0.102872	0.066378
C112	C	1.328965	0.397128	0.566378
C113	C	0.828218	-0.153286	0.066368
C114	C	1.328218	0.346714	0.566368
C115	C	0.827851	-0.178479	-0.000018
C116	C	1.327851	0.321521	0.499982
O117	O	0.827046	-0.233056	0.122768
O118	O	1.327046	0.266944	0.622768
O119	O	0.827048	-0.233045	-0.122841
O120	O	1.327048	0.266955	0.377159
C121	C	0.823679	-0.460790	-0.066411
C122	C	1.323679	0.039210	0.433589
C123	C	0.823293	-0.486008	-0.000040
C124	C	1.323293	0.013992	0.499960
C125	C	0.823655	-0.460811	0.066334
C126	C	1.323655	0.039189	0.566334
C127	C	0.822551	-0.536424	-0.000043
C128	C	1.322551	-0.036424	0.499957
C129	C	0.822189	-0.561620	-0.066418
C130	C	1.322189	-0.061620	0.433582
C131	C	0.822569	-0.536400	-0.132790
C132	C	1.322569	-0.036400	0.367210
C133	C	0.823317	-0.485987	-0.132786
C134	C	1.323317	0.014013	0.367214
C135	C	0.823275	-0.486032	0.132706
C136	C	1.323275	0.013968	0.632706
C137	C	0.822528	-0.536445	0.132697
C138	C	1.322528	-0.036445	0.632697
C139	C	0.822166	-0.561641	0.066322
C140	C	1.322166	-0.061641	0.566322
C141	C	0.951751	0.060598	-0.000027
C142	C	1.451751	0.560598	0.499973
C143	C	1.029250	0.061386	-0.000033
C144	C	1.529250	0.561386	0.499967
C145	C	0.817984	0.152786	-0.000045
C146	C	1.317984	0.652786	0.499955
C147	C	0.818768	0.206444	-0.000057
C148	C	1.318768	0.706444	0.499943
N149	N	0.824035	0.064392	0.189675
N150	N	1.324035	0.564392	0.689675
N151	N	0.824087	0.064401	-0.189725
N152	N	1.324087	0.564401	0.310275
C153	C	0.871881	0.031445	0.227991
C154	C	1.371881	0.531445	0.727991
C155	C	0.871886	0.031443	0.304636
C156	C	1.371886	0.531443	0.804636
C157	C	0.824051	0.064396	0.342962
C158	C	1.324051	0.564396	0.842962
C159	C	0.776196	0.097346	0.304637
C160	C	1.276196	0.597346	0.804637
C161	C	0.776188	0.097344	0.227994
C162	C	1.276188	0.597344	0.727994
N163	N	0.814691	0.107187	0.463285
N164	N	1.314691	0.607187	0.963285
N165	N	0.814702	0.107187	0.536093
N166	N	1.314702	0.607187	1.036093
C167	C	0.824070	0.064403	0.573885
C168	C	1.324070	0.564403	1.073885
N169	N	0.833440	0.021617	0.536118
N170	N	1.333440	0.521617	1.036118
N171	N	0.833432	0.021617	0.463303
N172	N	1.333432	0.521617	0.963303
C173	C	0.824054	0.064401	0.426069
C174	C	1.324054	0.564401	0.926069
C175	C	0.871924	0.031451	0.695308
C176	C	1.371924	0.531451	1.195308
C177	C	0.871923	0.031448	0.771954
C178	C	1.371923	0.531448	1.271954
C179	C	0.776237	0.097355	0.771954
C180	C	1.276237	0.597355	1.271954
C181	C	0.776234	0.097353	0.695309
C182	C	1.276234	0.597353	1.195309
C183	C	0.824081	0.064402	0.656990
C184	C	1.324081	0.564402	1.156990
H185	H	0.184112	-0.017120	-0.000023
H186	H	0.684112	0.482880	0.499977
H187	H	0.464008	0.145919	-0.000026
H188	H	0.964008	0.645919	0.499974
H189	H	0.737286	0.124184	0.803158
H190	H	1.237286	0.624184	1.303158
H191	H	0.818825	-0.788888	0.120368
H192	H	1.318825	-0.288888	0.620368
C193	C	0.880759	-0.666762	-0.143455
C194	C	1.380759	-0.166762	0.356545
C195	C	0.820297	-0.690195	-0.139388
C196	C	1.320297	-0.190195	0.360612
H197	H	0.881001	-0.649649	-0.188499
H198	H	1.381001	-0.149649	0.311501
H199	H	0.881078	-0.644543	-0.103928
H200	H	1.381078	-0.144543	0.396072
H201	H	0.921202	-0.690205	-0.140710
H202	H	1.421202	-0.190205	0.359290
H203	H	0.779854	-0.666751	-0.142128
H204	H	1.279854	-0.166751	0.357872
H205	H	0.819971	-0.712416	-0.178926
H206	H	1.319971	-0.212416	0.321074
C207	C	0.655020	0.125935	0.328267
C208	C	1.155020	0.625935	0.828267
C209	C	0.723614	0.133567	0.346765
C210	C	1.223614	0.633567	0.846765
H211	H	0.622557	0.148295	0.354279
H212	H	1.122557	0.648295	0.854279
H213	H	0.648171	0.130652	0.277144
H214	H	1.148171	0.630652	0.777144
H215	H	0.647812	0.093685	0.340847
H216	H	1.147812	0.593685	0.840847
H217	H	0.730824	0.165816	0.334180
H218	H	1.230824	0.665816	0.834180
H219	H	0.730466	0.128854	0.397900
H220	H	1.230466	0.628854	0.897900
H221	H	0.737276	0.124184	0.664110
H222	H	1.237276	0.624184	1.164110
C223	C	0.760301	0.163155	0.141784
C224	C	1.260301	0.663155	0.641784
C225	C	0.723598	0.133565	0.185872
C226	C	1.223598	0.633565	0.685872
H227	H	0.727833	0.185515	0.115776
H228	H	1.227833	0.685515	0.615776
H229	H	0.789163	0.180492	0.171672
H230	H	1.289163	0.680492	0.671672
H231	H	0.788788	0.143525	0.107995
H232	H	1.288788	0.643525	0.607995
H233	H	0.695114	0.153195	0.219664
H234	H	1.195114	0.653195	0.719664
H235	H	0.694723	0.116227	0.155981
H236	H	1.194723	0.616227	0.655981
C237	C	0.548907	0.198109	-0.000029
C238	C	1.048907	0.698109	0.499971
C239	C	0.603977	0.159926	-0.000032
C240	C	1.103977	0.659926	0.499968
H241	H	0.567634	0.228257	-0.000023
H242	H	1.067634	0.728257	0.499977
H243	H	0.520880	0.195993	-0.042487
H244	H	1.020880	0.695993	0.457513
H245	H	0.520866	0.195977	0.042436
H246	H	1.020866	0.695977	0.542436
H247	H	0.632016	0.162056	-0.042499
H248	H	1.132016	0.662056	0.457501
H249	H	0.632016	0.162043	0.042430
H250	H	1.132016	0.662043	0.542430
C251	C	0.710717	-0.015002	-0.000007
C252	C	1.210717	0.484998	0.499993
C253	C	0.640975	-0.025035	-0.000008
C254	C	1.140975	0.474965	0.499992
H255	H	0.741403	-0.044646	0.000001
H256	H	1.241403	0.455354	0.500001
H257	H	0.719032	0.003220	-0.042467
H258	H	1.219032	0.503220	0.457533
H259	H	0.719016	0.003218	0.042455
H260	H	1.219016	0.503218	0.542455
H261	H	0.632675	-0.043252	-0.042473
H262	H	1.132675	0.456748	0.457527
H263	H	0.632656	-0.043265	0.042457
H264	H	1.132656	0.456735	0.542457
C265	C	0.825385	-0.339868	0.263941
C266	C	1.325385	0.160132	0.763941
C267	C	0.825884	-0.307083	0.205688
C268	C	1.325884	0.192917	0.705688
H269	H	0.825626	-0.322770	0.308986
H270	H	1.325626	0.177230	0.808986
H271	H	0.784368	-0.355756	0.261167
H272	H	1.284368	0.144244	0.761167
H273	H	0.865831	-0.363307	0.261179
H274	H	1.365831	0.136693	0.761179
H275	H	0.785435	-0.283646	0.208446
H276	H	1.285435	0.216354	0.708446
H277	H	0.866905	-0.291187	0.208463
H278	H	1.366905	0.208813	0.708463
C279	C	0.826546	-0.257441	-0.191733
C280	C	1.326546	0.242559	0.308267
C281	C	0.825866	-0.307020	-0.205737
C282	C	1.325866	0.192980	0.294263
H283	H	0.826703	-0.240325	-0.236780
H284	H	1.326703	0.259675	0.263220
H285	H	0.785971	-0.245440	-0.164389
H286	H	1.285971	0.254560	0.335611
H287	H	0.867434	-0.252934	-0.164540
H288	H	1.367434	0.247066	0.335460
H289	H	0.784975	-0.311528	-0.232925
H290	H	1.284975	0.188472	0.267075
H291	H	0.866446	-0.319025	-0.233092
H292	H	1.366446	0.180975	0.266908
C293	C	0.818007	-0.845613	-0.125372
C294	C	1.318007	-0.345613	0.374628
C295	C	0.818743	-0.796037	-0.139395
C296	C	1.318743	-0.296037	0.360605
H297	H	0.817748	-0.862714	-0.170413
H298	H	1.317748	-0.362714	0.329587
H299	H	0.858614	-0.857650	-0.098111
H300	H	1.358614	-0.357650	0.401889
H301	H	0.777151	-0.850096	-0.098090
H302	H	1.277151	-0.350096	0.401910
H303	H	0.859601	-0.791554	-0.166673
H304	H	1.359601	-0.291554	0.333327
H305	H	0.778131	-0.783996	-0.166668
H306	H	1.278131	-0.283996	0.333332
H307	H	0.495989	-0.013936	-0.000012
H308	H	0.995989	0.486064	0.499988
H309	H	0.829304	-0.082315	-0.120428
H310	H	1.329304	0.417685	0.379572
C311	C	0.913875	-0.052298	0.671658
C312	C	1.413875	0.447702	1.171658
C313	C	0.924507	-0.004756	0.653151
C314	C	1.424507	0.495244	1.153151
H315	H	0.946335	-0.074645	0.645620
H316	H	1.446335	0.425355	1.145620
H317	H	0.920746	-0.057029	0.722776
H318	H	1.420746	0.442971	1.222776
H319	H	0.867334	-0.057465	0.659116
H320	H	1.367334	0.442535	1.159116
H321	H	0.971047	0.000412	0.665697
H322	H	1.471047	0.500412	1.165697
H323	H	0.917642	-0.000023	0.602021
H324	H	1.417642	0.499977	1.102021
C325	C	0.019420	0.180684	-0.062642
C326	C	0.519420	0.680684	0.437358
C327	C	0.007139	0.153828	-0.000044
C328	C	0.507139	0.653828	0.499956
H329	H	-0.011268	0.210328	-0.062650
H330	H	0.488732	0.710328	0.437350
H331	H	0.066731	0.187482	-0.062633
H332	H	0.566731	0.687482	0.437367
H333	H	0.011113	0.162459	-0.105095
H334	H	0.511113	0.662459	0.394905
H335	H	0.015451	0.172052	0.042410
H336	H	0.515451	0.672052	0.542410
H337	H	-0.040184	0.147032	-0.000047
H338	H	0.459816	0.647032	0.499953
C339	C	0.823255	-0.491042	-0.264001
C340	C	1.323255	0.008958	0.235999
C341	C	0.823734	-0.458272	-0.205749
C342	C	1.323734	0.041728	0.294251
H343	H	0.823507	-0.473933	-0.309047
H344	H	1.323507	0.026067	0.190953
H345	H	0.863694	-0.514480	-0.261238
H346	H	1.363694	-0.014480	0.238762
H347	H	0.782231	-0.506933	-0.261229
H348	H	1.282231	-0.006933	0.238771
H349	H	0.864761	-0.442384	-0.208519
H350	H	1.364761	0.057616	0.291481
H351	H	0.783291	-0.434825	-0.208514
H352	H	1.283291	0.065175	0.291486
H353	H	0.827934	-0.173768	-0.120442
H354	H	1.327934	0.326232	0.379558
H355	H	0.910883	0.004616	0.803151
H356	H	1.410883	0.504616	1.303151
C357	C	0.819795	-0.723043	0.197539
C358	C	1.319795	-0.223043	0.697539
C359	C	0.820278	-0.690253	0.139292
C360	C	1.320278	-0.190253	0.639292
H361	H	0.820055	-0.705950	0.242588
H362	H	1.320055	-0.205950	0.742588
H363	H	0.778775	-0.738928	0.194779
H364	H	1.278775	-0.238928	0.694779
H365	H	0.860237	-0.746484	0.194759
H366	H	1.360237	-0.246484	0.694759
H367	H	0.779832	-0.666813	0.142069
H368	H	1.279832	-0.166813	0.642069
H369	H	0.861302	-0.674360	0.142053
H370	H	1.361302	-0.174360	0.642053
C371	C	0.099206	-0.069317	-0.000018
C372	C	0.599206	0.430683	0.499982
C373	C	0.044137	-0.031132	-0.000025
C374	C	0.544137	0.468868	0.499975
H375	H	0.080478	-0.099464	-0.000007
H376	H	0.580478	0.400536	0.499993
H377	H	0.127244	-0.067193	-0.042477
H378	H	0.627244	0.432807	0.457523
H379	H	0.127236	-0.067193	0.042445
H380	H	0.627236	0.432807	0.542445
H381	H	0.016109	-0.033254	-0.042491
H382	H	0.516109	0.466746	0.457509
H383	H	0.016087	-0.033258	0.042439
H384	H	0.516087	0.466742	0.542439
H385	H	0.824515	-0.405669	-0.186831
H386	H	1.324515	0.094331	0.313169
C387	C	0.201343	0.158515	-0.062620
C388	C	0.701343	0.658515	0.437380
C389	C	0.159999	0.155388	-0.000031
C390	C	0.659999	0.655388	0.499969
H391	H	0.220069	0.188664	-0.062615
H392	H	0.720069	0.688664	0.437385
H393	H	0.238690	0.132608	-0.062614
H394	H	0.738690	0.632608	0.437386
H395	H	0.173305	0.156403	-0.105079
H396	H	0.673305	0.656403	0.394921
H397	H	0.188039	0.157497	0.042429
H398	H	0.688039	0.657497	0.542429
H399	H	0.122647	0.181302	-0.000031
H400	H	0.622647	0.681302	0.499969
C401	C	0.763819	-0.436309	0.209729
C402	C	1.263819	0.063691	0.709729
C403	C	0.824303	-0.412898	0.205693
C404	C	1.324303	0.087102	0.705693
H405	H	0.763534	-0.453409	0.254782
H406	H	1.263534	0.046591	0.754782
H407	H	0.723396	-0.412860	0.206939
H408	H	1.223396	0.087140	0.706939
H409	H	0.763516	-0.458543	0.170210
H410	H	1.263516	0.041457	0.670210
H411	H	0.824603	-0.390662	0.245209
H412	H	1.324603	0.109338	0.745209
H413	H	0.864737	-0.436351	0.208491
H414	H	1.364737	0.063649	0.708491
H415	H	0.827910	-0.173819	0.120417
H416	H	1.327910	0.326181	0.620417
C417	C	0.830089	-0.025592	0.125312
C418	C	1.330089	0.474408	0.625312
C419	C	0.829358	-0.075169	0.139335
C420	C	1.329358	0.424831	0.639335
H421	H	0.830324	-0.008489	0.170354
H422	H	1.330324	0.491511	0.670354
H423	H	0.870947	-0.021106	0.098051
H424	H	1.370947	0.478894	0.598051
H425	H	0.789484	-0.013559	0.098032
H426	H	1.289484	0.486441	0.598032
H427	H	0.869966	-0.087204	0.166611
H428	H	1.369966	0.412796	0.666611
H429	H	0.788496	-0.079659	0.166608
H430	H	1.288496	0.420341	0.666608
H431	H	0.910849	0.004612	0.335838
H432	H	1.410849	0.504612	0.835838
H433	H	0.822277	-0.556924	-0.186834
H434	H	1.322277	-0.056924	0.313166
H435	H	0.822219	-0.556973	0.186752
H436	H	1.322219	-0.056973	0.686752
H437	H	0.823571	-0.465522	0.186758
H438	H	1.323571	0.034478	0.686758
C439	C	0.966461	-0.033701	0.235696
C440	C	1.466461	0.466299	0.735696
C441	C	0.924467	-0.004780	0.185873
C442	C	1.424467	0.495220	0.685873
H443	H	0.998921	-0.056067	0.209691
H444	H	1.498921	0.443933	0.709691
H445	H	0.991354	-0.013621	0.265570
H446	H	1.491354	0.486379	0.765570
H447	H	0.937588	-0.051036	0.265609
H448	H	1.437588	0.448964	0.765609
H449	H	0.953339	0.012557	0.155963
H450	H	1.453339	0.512557	0.655963
H451	H	0.899572	-0.024863	0.155986
H452	H	1.399572	0.475137	0.655986
