data_functionalizedCrystal
_audit_creation_method	'MofGen! by Chris Wilmer'
_symmetry_space_group_name_H-M	'P1'
_symmetry_Int_Tables_number	1
_symmetry_cell_setting	triclinic
loop_
_symmetry_equiv_pos_as_xyz
  x,y,z
_cell_length_a	12.759401
_cell_length_b	16.625546
_cell_length_c	12.759393
_cell_angle_alpha	89.963756
_cell_angle_beta	89.980163
_cell_angle_gamma	90.023993
loop_
_atom_site_label
_atom_site_type_symbol
_atom_site_fract_x
_atom_site_fract_y
_atom_site_fract_z
Zn1	Zn	1.606198	-0.320921	-0.593986
Zn2	Zn	2.106198	0.179079	-0.093986
Zn3	Zn	1.606069	-0.455778	-0.418292
Zn4	Zn	2.106069	0.044222	0.081708
Zn5	Zn	1.430500	-0.320966	-0.418322
Zn6	Zn	1.930500	0.179034	0.081678
Zn7	Zn	1.430465	-0.455719	-0.593930
Zn8	Zn	1.930465	0.044281	-0.093930
O9	O	1.518308	-0.388346	-0.506132
O10	O	2.018308	0.111654	-0.006132
O11	O	1.753202	-0.338816	-0.570692
O12	O	2.253202	0.161184	-0.070692
O13	O	1.582740	-0.437938	-0.271275
O14	O	2.082740	0.062062	0.228725
O15	O	1.453876	-0.208128	-0.441660
O16	O	1.953876	0.291872	0.058340
O17	O	1.753107	-0.437894	-0.441610
O18	O	2.253107	0.062106	0.058390
O19	O	1.582960	-0.208094	-0.570720
O20	O	2.082960	0.291906	-0.070720
O21	O	1.453751	-0.338893	-0.271297
O22	O	1.953751	0.161107	0.228703
O23	O	1.283475	-0.338836	-0.441605
O24	O	1.783475	0.161164	0.058395
O25	O	1.453816	-0.437794	-0.740958
O26	O	1.953816	0.062206	-0.240958
O27	O	1.283449	-0.437838	-0.570623
O28	O	1.783449	0.062162	-0.070623
O29	O	1.582926	-0.338758	-0.741000
O30	O	2.082926	0.161242	-0.241000
O31	O	1.582706	-0.568602	-0.441555
O32	O	2.082706	-0.068602	0.058445
O33	O	1.453690	-0.568559	-0.570595
O34	O	1.953690	-0.068559	-0.070595
C35	C	1.245341	-0.388336	-0.506112
C36	C	1.745341	0.111664	-0.006112
C37	C	1.128564	-0.388351	-0.506128
C38	C	1.628564	0.111649	-0.006128
C39	C	1.073716	-0.439980	-0.573202
C40	C	1.573716	0.060020	-0.073202
C41	C	0.963992	-0.439983	-0.573223
C42	C	1.463992	0.060017	-0.073223
C43	C	0.963974	-0.336726	-0.439086
C44	C	1.463974	0.163274	0.060914
C45	C	1.073696	-0.336720	-0.439071
C46	C	1.573696	0.163280	0.060929
C47	C	1.518209	-0.597837	-0.506088
C48	C	2.018209	-0.097837	-0.006088
C49	C	1.518262	-0.687458	-0.506105
C50	C	2.018262	-0.187458	-0.006105
C51	C	1.518446	-1.015633	-0.506214
C52	C	2.018446	-0.515633	-0.006214
C53	C	1.518391	-0.924325	-0.506187
C54	C	2.018391	-0.424325	-0.006187
C55	C	1.518353	-0.851549	-0.506159
C56	C	2.018353	-0.351549	-0.006159
C57	C	1.518300	-0.760234	-0.506132
C58	C	2.018300	-0.260234	-0.006132
C59	C	1.792341	-0.388356	-0.506154
C60	C	2.292341	0.111644	-0.006154
C61	C	1.909118	-0.388361	-0.506163
C62	C	2.409118	0.111639	-0.006163
C63	C	1.518382	-0.388264	-0.780166
C64	C	2.018382	0.111736	-0.280166
C65	C	1.518413	-0.388230	-0.896943
C66	C	2.018413	0.111770	-0.396943
C67	C	1.518437	-0.178037	-0.506200
C68	C	2.018437	0.321963	-0.006200
C69	C	1.518491	-0.088416	-0.506228
C70	C	2.018491	0.411584	-0.006228
C71	C	1.451272	-0.336647	-0.951815
C72	C	1.951272	0.163353	-0.451815
C73	C	1.451297	-0.336623	-1.061539
C74	C	1.951297	0.163377	-0.561539
C75	C	1.585611	-0.439765	-1.061509
C76	C	2.085611	0.060235	-0.561509
C77	C	1.585581	-0.439793	-0.951786
C78	C	2.085581	0.060207	-0.451786
C79	C	1.518296	-0.388369	-0.233165
C80	C	2.018296	0.111631	0.266835
C81	C	1.518468	-0.388177	-0.116389
C82	C	2.018468	0.111823	0.383611
H83	H	0.919286	-0.294691	-0.384490
H84	H	1.419286	0.205309	0.115510
H85	H	1.396579	-0.294661	-0.907165
H86	H	1.896579	0.205339	-0.407165
N87	N	1.382702	-0.283931	-1.117574
N88	N	1.882702	0.216069	-0.617574
N89	N	1.322735	-0.237903	-1.068589
N90	N	1.822735	0.262097	-0.568589
H91	H	1.274284	-0.200689	-1.108162
H92	H	1.774284	0.299311	-0.608162
N93	N	1.129745	-0.283991	-0.370550
N94	N	1.629745	0.216009	0.129450
N95	N	1.227710	-0.283995	-0.370549
N96	N	1.727710	0.216005	0.129451
H97	H	1.267298	-0.246756	-0.322161
H98	H	1.767298	0.253244	0.177839
N99	N	0.907986	-0.492735	-0.641734
N100	N	1.407986	0.007265	-0.141734
N101	N	0.920209	-0.567129	-0.634581
N102	N	1.420209	-0.067129	-0.134581
H103	H	0.880656	-0.604389	-0.682971
H104	H	1.380656	-0.104389	-0.182971
N105	N	1.654254	-0.492415	-1.117516
N106	N	2.154254	0.007585	-0.617516
N107	N	1.714207	-0.538459	-1.068506
N108	N	2.214207	-0.038459	-0.568506
H109	H	1.762696	-0.575640	-1.108058
H110	H	2.262696	-0.075640	-0.608058
H111	H	1.640257	-0.481801	-0.907108
H112	H	2.140257	0.018199	-0.407108
H113	H	1.118387	-0.482020	-0.627806
H114	H	1.618387	0.017980	-0.127806
