data_functionalizedCrystal
_audit_creation_method	'MofGen! by Chris Wilmer'
_symmetry_space_group_name_H-M	'P1'
_symmetry_Int_Tables_number	1
_symmetry_cell_setting	triclinic
loop_
_symmetry_equiv_pos_as_xyz
  x,y,z
_cell_length_a	19.805407
_cell_length_b	19.805405
_cell_length_c	19.805399
_cell_angle_alpha	89.970699
_cell_angle_beta	89.980427
_cell_angle_gamma	90.026410
loop_
_atom_site_label
_atom_site_type_symbol
_atom_site_fract_x
_atom_site_fract_y
_atom_site_fract_z
Zn1	Zn	-1.034736	0.269479	0.382712
Zn2	Zn	-1.034651	0.382667	0.269520
Zn3	Zn	-0.921550	0.269498	0.269536
Zn4	Zn	-0.921514	0.382631	0.382667
O5	O	-0.978113	0.326069	0.326109
O6	O	-1.129441	0.284501	0.367708
O7	O	-1.019627	0.367678	0.174805
O8	O	-0.936616	0.174778	0.284575
O9	O	-1.129378	0.367660	0.284547
O10	O	-1.019772	0.174765	0.367724
O11	O	-0.936533	0.284533	0.174817
O12	O	-0.826829	0.284498	0.284531
O13	O	-0.936553	0.367598	0.477389
O14	O	-0.826802	0.367617	0.367648
O15	O	-1.019737	0.284466	0.477422
O16	O	-1.019592	0.477379	0.284503
O17	O	-0.936471	0.477353	0.367632
C18	C	-0.802257	0.326056	0.326087
C19	C	-0.727025	0.326067	0.326093
C20	C	-0.978036	0.501925	0.326076
C21	C	-0.978066	0.577157	0.326084
C22	C	-0.978151	0.326026	0.502651
C23	C	-0.978167	0.326008	0.577883
C24	C	-1.154655	0.326082	0.326131
C25	C	-1.229887	0.326088	0.326140
C26	C	-0.691684	0.369412	0.369302
C27	C	-0.620996	0.369413	0.369312
C28	C	-0.585649	0.326072	0.326109
C29	C	-0.620994	0.282722	0.282898
C30	C	-0.691681	0.282718	0.282892
C31	C	-0.335921	0.282737	0.282920
C32	C	-0.265229	0.282746	0.282928
C33	C	-0.265235	0.369432	0.369340
C34	C	-0.335922	0.369428	0.369334
C35	C	-0.371262	0.326076	0.326126
C36	C	-0.447910	0.326074	0.326117
C37	C	-0.509002	0.326076	0.326114
C38	C	-0.978207	0.149526	0.326156
C39	C	-0.978248	0.074294	0.326177
C40	C	-1.021389	0.612492	0.282845
C41	C	-1.021418	0.683181	0.282860
C42	C	-0.978119	0.718532	0.326111
C43	C	-0.934794	0.683192	0.369356
C44	C	-0.934769	0.612505	0.369344
C45	C	-0.934894	0.968265	0.369406
C46	C	-0.934921	1.038957	0.369413
C47	C	-1.021542	1.038941	0.282922
C48	C	-1.021517	0.968254	0.282910
C49	C	-0.978195	0.932920	0.326157
C50	C	-0.978166	0.856271	0.326141
C51	C	-0.978145	0.795179	0.326124
C52	C	-0.978114	0.326062	0.150253
C53	C	-0.978229	0.325890	0.075021
C54	C	-1.021481	0.282719	0.613246
C55	C	-1.021488	0.282699	0.683934
C56	C	-0.978184	0.325973	0.719259
C57	C	-0.934864	0.369264	0.683892
C58	C	-0.934854	0.369279	0.613204
C59	C	-0.934902	0.369201	0.968965
C60	C	-0.934917	0.369183	1.039657
C61	C	-1.021536	0.282620	1.039695
C62	C	-1.021527	0.282636	0.969008
C63	C	-0.978205	0.325924	0.933647
C64	C	-0.978197	0.325944	0.856998
C65	C	-0.978194	0.325957	0.795906
H66	H	-0.592225	0.404709	0.404496
C67	C	-1.030947	0.191623	0.763436
C68	C	-1.069098	0.235105	0.722798
H69	H	-1.060340	0.162234	0.787423
H70	H	-1.005168	0.217389	0.794592
H71	H	-1.001466	0.165748	0.735849
H72	H	-1.098575	0.260984	0.750386
H73	H	-1.094888	0.209336	0.691638
H74	H	-0.720455	0.247418	0.247711
C75	C	-1.107145	0.197061	0.976147
C76	C	-1.069126	0.235066	0.930180
H77	H	-1.136526	0.167689	0.952175
H78	H	-1.133025	0.226546	1.003711
H79	H	-1.077665	0.171166	1.003722
H80	H	-1.098606	0.260966	0.902608
H81	H	-1.043244	0.205578	0.902604
C82	C	-0.800043	0.407902	0.407663
C83	C	-0.730535	0.417055	0.416792
H84	H	-0.824025	0.437318	0.436981
H85	H	-0.811647	0.362443	0.417651
H86	H	-0.811598	0.417750	0.362165
H87	H	-0.718979	0.407202	0.462289
H88	H	-0.718926	0.462524	0.406808
H89	H	-0.899650	0.404423	1.068417
H90	H	-0.899492	0.583735	0.404555
C91	C	-0.849268	0.454749	0.976038
C92	C	-0.887275	0.416774	0.930102
H93	H	-0.819863	0.484119	0.952042
H94	H	-0.823413	0.425246	1.003618
H95	H	-0.878753	0.480646	1.003600
H96	H	-0.857790	0.390874	0.902543
H97	H	-0.913132	0.446281	0.902510
C98	C	-0.896419	0.407680	0.792232
C99	C	-0.887262	0.416832	0.722719
H100	H	-0.867034	0.437052	0.816200
H101	H	-0.886539	0.362205	0.803825
H102	H	-0.941895	0.417589	0.803815
H103	H	-0.841787	0.406918	0.711136
H104	H	-0.897138	0.462317	0.711122
H105	H	-1.056809	0.247370	1.068495
H106	H	-0.899576	0.404523	0.584413
H107	H	-0.364698	0.404723	0.404512
H108	H	-0.592209	0.247430	0.247724
C109	C	-1.054594	1.060773	0.168344
C110	C	-1.069169	1.077790	0.235394
H111	H	-1.083993	1.084761	0.139006
H112	H	-1.060780	1.013622	0.162146
H113	H	-1.009125	1.072405	0.158407
H114	H	-1.114637	1.066153	0.245333
H115	H	-1.062989	1.124952	0.241596
C116	C	-0.843896	1.118519	0.378755
C117	C	-0.887327	1.077817	0.416964
H118	H	-0.814514	1.142506	0.408110
H119	H	-0.869700	1.149675	0.353007
H120	H	-0.818011	1.090975	0.349244
H121	H	-0.913216	1.105361	0.446471
H122	H	-0.861521	1.046657	0.442724
H123	H	-1.056644	0.583713	0.247621
C124	C	-0.185713	0.273231	0.191894
C125	C	-0.226380	0.235103	0.235429
H126	H	-0.161735	0.243822	0.162567
H127	H	-0.154549	0.299040	0.217627
H128	H	-0.213279	0.302683	0.165956
H129	H	-0.198813	0.205655	0.261371
H130	H	-0.257548	0.209284	0.209693
H131	H	-0.899618	0.939502	0.404618
H132	H	-1.056747	0.247482	0.584489
C133	C	-1.136076	0.704731	0.250049
C134	C	-1.069091	0.721959	0.235330
H135	H	-1.165524	0.728650	0.220702
H136	H	-1.145942	0.716299	0.295529
H137	H	-1.142193	0.657560	0.243886
H138	H	-1.062974	0.769129	0.241497
H139	H	-1.059222	0.710396	0.189838
C140	C	-0.156879	0.407930	0.407733
C141	C	-0.226388	0.417080	0.416843
H142	H	-0.132900	0.437344	0.437061
H143	H	-0.145272	0.417778	0.362244
H144	H	-0.145325	0.362465	0.417725
H145	H	-0.237943	0.462544	0.406845
H146	H	-0.238000	0.407237	0.462342
C147	C	-0.328805	0.197049	0.197506
C148	C	-0.374760	0.235086	0.235426
H149	H	-0.352786	0.167633	0.168182
H150	H	-0.301256	0.171206	0.227047
H151	H	-0.301213	0.226516	0.171564
H152	H	-0.402348	0.205620	0.261373
H153	H	-0.402320	0.260931	0.205881
H154	H	-1.056773	0.939473	0.247688
C155	C	-0.896363	0.791556	0.407775
C156	C	-0.887197	0.722049	0.416898
H157	H	-0.866973	0.815542	0.437122
H158	H	-0.941832	0.803095	0.417728
H159	H	-0.886488	0.803170	0.362287
H160	H	-0.897077	0.710434	0.462384
H161	H	-0.841718	0.710506	0.406950
