data_functionalizedCrystal
_audit_creation_method	'MofGen! by Chris Wilmer'
_symmetry_space_group_name_H-M	'P1'
_symmetry_Int_Tables_number	1
_symmetry_cell_setting	triclinic
loop_
_symmetry_equiv_pos_as_xyz
  x,y,z
_cell_length_a	19.077105
_cell_length_b	19.077068
_cell_length_c	19.077569
_cell_angle_alpha	89.935763
_cell_angle_beta	94.700723
_cell_angle_gamma	90.115316
loop_
_atom_site_label
_atom_site_type_symbol
_atom_site_fract_x
_atom_site_fract_y
_atom_site_fract_z
Zn1	Zn	1.081898	-0.305533	0.453630
Zn2	Zn	1.072367	-0.427395	0.340438
Zn3	Zn	0.959280	-0.305543	0.331026
Zn4	Zn	0.959616	-0.418291	0.453207
O5	O	1.018290	-0.364190	0.394575
O6	O	1.179137	-0.325504	0.442731
O7	O	1.053237	-0.415046	0.240685
O8	O	0.979394	-0.207356	0.343527
O9	O	1.172134	-0.415036	0.359569
O10	O	1.069481	-0.207349	0.433604
O11	O	0.970152	-0.325521	0.233770
O12	O	0.860822	-0.316693	0.343117
O13	O	0.979966	-0.399519	0.551767
O14	O	0.861068	-0.399528	0.432883
O15	O	1.069807	-0.316676	0.552078
O16	O	1.053562	-0.524373	0.359159
O17	O	0.970724	-0.517684	0.442010
C18	C	0.835404	-0.357124	0.386933
C19	C	0.757165	-0.354118	0.383681
C20	C	0.720549	-0.395903	0.428822
C21	C	0.647035	-0.393069	0.425769
C22	C	0.610138	-0.348452	0.377573
C23	C	0.646759	-0.306662	0.332430
C24	C	0.720272	-0.309493	0.335487
C25	C	0.390264	-0.335349	0.363431
C26	C	0.316746	-0.332522	0.360376
C27	C	0.317027	-0.418929	0.453717
C28	C	0.390541	-0.421759	0.456766
C29	C	0.427156	-0.379966	0.411626
N30	N	0.534995	-0.345555	0.374450
N31	N	0.502298	-0.382860	0.414753
C32	C	1.011165	-0.546487	0.401576
C33	C	1.008182	-0.624475	0.404598
C34	C	1.049946	-0.664574	0.362920
C35	C	1.047145	-0.737852	0.365766
C36	C	1.002575	-0.771031	0.410287
C37	C	0.960809	-0.730927	0.451969
C38	C	0.963615	-0.657650	0.449126
C39	C	0.989560	-0.989815	0.423414
C40	C	0.986756	-1.063097	0.426252
C41	C	1.073093	-1.070017	0.340050
C42	C	1.075891	-0.996738	0.337208
C43	C	1.034128	-0.956641	0.378893
N44	N	0.999709	-0.845933	0.413195
N45	N	1.036998	-0.881740	0.375988
C46	C	1.201891	-0.371285	0.402247
C47	C	1.280130	-0.374308	0.405517
C48	C	1.025987	-0.357080	0.578178
C49	C	1.029267	-0.354051	0.656418
C50	C	1.025463	-0.181182	0.387563
C51	C	1.028520	-0.103195	0.384575
C52	C	1.010666	-0.371224	0.211686
C53	C	1.007530	-0.374061	0.133444
C54	C	0.984034	-0.395756	0.693015
C55	C	0.987121	-0.392909	0.766531
C56	C	1.035439	-0.348353	0.803448
C57	C	1.080677	-0.306647	0.766846
C58	C	1.077592	-0.309497	0.693332
C59	C	1.049684	-0.335205	1.023329
C60	C	1.052764	-0.332356	1.096848
C61	C	0.959208	-0.418620	1.096527
C62	C	0.956125	-0.421464	1.023012
C63	C	1.001365	-0.379760	0.986417
N64	N	1.038595	-0.345441	0.878593
N65	N	0.998213	-0.382676	0.911274
H66	H	0.287207	-0.452953	0.490468
Br67	Br	0.597345	-0.449779	0.487036
Br68	Br	1.103833	-0.792269	0.309205
H69	H	0.944680	-0.432029	0.662962
H70	H	0.950288	-0.426870	0.796325
H71	H	1.086237	-0.637565	0.326664
H72	H	0.924523	-0.757947	0.488222
H73	H	0.950471	-1.090108	0.462519
Br74	Br	1.146258	-0.246183	0.816947
H75	H	1.086522	-0.301247	0.993542
H76	H	0.420577	-0.458093	0.496011
Br77	Br	1.136391	-0.951715	0.276794
Br78	Br	1.129772	-1.124438	0.283484
Br79	Br	0.890542	-0.481928	0.972914
H80	H	0.955553	-0.957173	0.457354
Br81	Br	0.906937	-0.603229	0.505696
H82	H	0.922376	-0.452573	1.126331
H83	H	0.286707	-0.296181	0.321132
Br84	Br	1.118308	-0.271847	1.146946
H85	H	1.114426	-0.275537	0.663536
H86	H	0.420066	-0.301323	0.326669
Br87	Br	0.596687	-0.246102	0.267026
Br88	Br	0.769966	-0.252777	0.274226
Br89	Br	0.770616	-0.456464	0.494230
