data_functionalizedCrystal
_audit_creation_method	'MofGen! by Chris Wilmer'
_symmetry_space_group_name_H-M	'P1'
_symmetry_Int_Tables_number	1
_symmetry_cell_setting	triclinic
loop_
_symmetry_equiv_pos_as_xyz
  x,y,z
_cell_length_a	10.654559
_cell_length_b	17.699092
_cell_length_c	9.130313
_cell_angle_alpha	90.000444
_cell_angle_beta	89.999532
_cell_angle_gamma	83.887526
loop_
_atom_site_label
_atom_site_type_symbol
_atom_site_fract_x
_atom_site_fract_y
_atom_site_fract_z
O1	O	1.665971	0.106332	-0.121801
O2	O	1.300318	0.116453	-0.121802
O3	O	1.493470	0.001269	-0.121798
O4	O	1.472819	0.221515	-0.121805
O5	O	1.493467	0.001272	0.121801
O6	O	1.300315	0.116456	0.121797
O7	O	1.665969	0.106335	0.121798
Cu8	Cu	1.483142	0.111396	0.144040
Cu9	Cu	1.483145	0.111392	-0.144044
O10	O	1.472817	0.221518	0.121794
C11	C	1.253532	0.115710	-0.000003
C12	C	1.114128	0.113482	-0.000003
C13	C	1.492727	-0.026931	-0.000001
C14	C	1.490502	-0.110963	-0.000008
C15	C	1.063808	0.043570	0.000003
C16	C	0.932823	0.041482	-0.000008
C17	C	0.902486	0.179223	-0.000025
C18	C	1.033470	0.181311	-0.000024
C19	C	1.081322	-0.035954	0.000019
C20	C	0.950336	-0.038042	0.000008
C21	C	1.489460	-0.150438	-0.132795
C22	C	1.487362	-0.229395	-0.132797
C23	C	1.486313	-0.268875	-0.000010
C24	C	1.487351	-0.229393	0.132788
C25	C	1.489440	-0.150437	0.132788
C26	C	1.478921	-0.547812	0.132790
C27	C	1.476835	-0.626773	0.132780
C28	C	1.476842	-0.626769	-0.132795
C29	C	1.478932	-0.547814	-0.132795
C30	C	1.479963	-0.508338	0.000002
C31	C	1.482236	-0.422725	0.000002
C32	C	1.484049	-0.354487	-0.000009
C33	C	1.712755	0.107078	-0.000005
C34	C	1.852159	0.109306	-0.000014
C35	C	1.473560	0.249718	-0.000007
C36	C	1.475785	0.333750	-0.000009
N37	N	1.483149	0.111398	0.346662
N38	N	1.483147	0.111384	-0.346667
C39	C	1.568698	0.060412	0.423316
C40	C	1.568695	0.060403	0.576653
C41	C	1.397589	0.162372	0.576669
C42	C	1.397587	0.162377	0.423335
C43	C	1.667489	0.001543	0.423308
C44	C	1.667486	0.001534	0.576645
H45	H	1.074433	0.238239	-0.000054
C46	C	1.870706	0.042759	0.473307
C47	C	1.790148	0.026423	0.359090
H48	H	1.946432	0.058115	0.433657
H49	H	1.830353	0.082552	0.531857
H50	H	1.889983	-0.001317	0.531854
H51	H	1.770864	0.070502	0.300549
H52	H	1.830509	-0.013373	0.300516
C53	C	1.018805	-0.103377	0.221116
C54	C	0.911406	-0.080014	0.137630
H55	H	0.994767	-0.129283	0.306078
H56	H	1.075644	-0.136502	0.164489
H57	H	1.058829	-0.060187	0.249420
H58	H	0.871388	-0.123205	0.109317
H59	H	0.854546	-0.046888	0.194268
H60	H	1.327916	0.203887	0.360925
C61	C	1.377100	-0.310257	0.286858
C62	C	1.486204	-0.272791	0.278749
H63	H	1.376404	-0.337052	0.376967
H64	H	1.304723	-0.274074	0.281352
H65	H	1.376194	-0.345065	0.207764
H66	H	1.487106	-0.237979	0.357837
H67	H	1.558600	-0.308979	0.284269
H68	H	1.637932	-0.053439	0.624193
H69	H	1.327926	0.203877	0.639112
C70	C	1.005216	-0.092575	-0.235203
C71	C	0.902824	-0.072244	-0.141968
H72	H	0.975879	-0.113692	-0.322845
H73	H	1.045757	-0.048780	-0.258030
H74	H	1.063442	-0.129053	-0.187968
H75	H	0.844602	-0.035761	-0.189199
H76	H	0.862263	-0.116045	-0.119143
C77	C	0.688226	0.237184	-0.000037
C78	C	0.813822	0.253778	-0.000036
H79	H	0.633493	0.283213	-0.000034
H80	H	0.673003	0.208548	-0.084979
H81	H	0.673001	0.208546	0.084918
H82	H	0.829050	0.282411	-0.084997
H83	H	0.829051	0.282426	0.084915
H84	H	1.123594	-0.065924	-0.101920
H85	H	1.479786	-0.515682	0.240921
C86	C	1.489244	-0.158372	-0.395312
C87	C	1.490609	-0.107046	-0.278762
H88	H	1.489942	-0.131583	-0.485427
H89	H	1.561628	-0.194550	-0.389791
H90	H	1.415222	-0.183784	-0.389773
H91	H	1.564637	-0.081638	-0.284295
H92	H	1.418218	-0.070854	-0.284286
H93	H	1.127382	-0.059978	0.105202
H94	H	1.486519	-0.261533	-0.240926
C95	C	1.382153	-0.118189	0.359139
C96	C	1.490574	-0.107039	0.278749
H97	H	1.382851	-0.091398	0.449253
H98	H	1.309312	-0.099868	0.304563
H99	H	1.380779	-0.170864	0.378140
H100	H	1.491943	-0.054364	0.259738
H101	H	1.563434	-0.125356	0.333336
H102	H	1.647061	-0.056630	0.381689
H103	H	1.475997	-0.658919	-0.240925
C104	C	1.478714	-0.555741	-0.395314
C105	C	1.480078	-0.504418	-0.278758
H106	H	1.479410	-0.528949	-0.485426
H107	H	1.551099	-0.591918	-0.389798
H108	H	1.404693	-0.581154	-0.389777
H109	H	1.554105	-0.479009	-0.284290
H110	H	1.407686	-0.468227	-0.284278
C111	C	1.477005	-0.618848	0.395312
C112	C	1.475668	-0.670170	0.278751
H113	H	1.476277	-0.645641	0.485421
H114	H	1.551017	-0.593438	0.389807
H115	H	1.404612	-0.582666	0.389771
H116	H	1.548066	-0.706349	0.284286
H117	H	1.401647	-0.695592	0.284259
H118	H	1.763770	0.014504	0.618261
