data_functionalizedCrystal
_audit_creation_method	'MofGen! by Chris Wilmer'
_symmetry_space_group_name_H-M	'P1'
_symmetry_Int_Tables_number	1
_symmetry_cell_setting	triclinic
loop_
_symmetry_equiv_pos_as_xyz
  x,y,z
_cell_length_a	10.654550
_cell_length_b	9.065218
_cell_length_c	9.130313
_cell_angle_alpha	89.997322
_cell_angle_beta	89.999724
_cell_angle_gamma	84.750408
loop_
_atom_site_label
_atom_site_type_symbol
_atom_site_fract_x
_atom_site_fract_y
_atom_site_fract_z
O1	O	1.668660	0.207235	-0.121684
O2	O	1.303260	0.226979	-0.121710
O3	O	1.493513	0.002423	-0.121693
O4	O	1.478407	0.431791	-0.121700
O5	O	1.493500	0.002417	0.121906
O6	O	1.303247	0.226972	0.121889
O7	O	1.668647	0.207228	0.121915
Cu8	Cu	1.485946	0.217100	0.144145
Cu9	Cu	1.485961	0.217107	-0.143939
O10	O	1.478394	0.431784	0.121899
C11	C	1.256450	0.225526	0.000086
C12	C	1.116989	0.221188	0.000076
C13	C	1.038027	0.353403	0.000078
C14	C	0.906990	0.349319	0.000104
C15	C	0.933890	0.080794	0.000119
C16	C	1.064924	0.084879	0.000104
C17	C	1.492055	-0.052559	0.000104
C18	C	1.487714	-0.216378	0.000096
C19	C	1.715457	0.208681	0.000116
C20	C	1.854918	0.213019	0.000117
C21	C	1.479852	0.486766	0.000098
C22	C	1.484193	0.650585	0.000096
N23	N	1.485944	0.217093	0.346767
N24	N	1.485973	0.217102	-0.346562
C25	C	1.570217	0.117702	0.423427
C26	C	1.570229	0.117703	0.576763
C27	C	1.401691	0.316498	0.576768
C28	C	1.401674	0.316489	0.423434
H29	H	0.891482	-0.030185	0.000151
C30	C	1.055419	0.583546	-0.125156
C31	C	1.095254	0.503234	0.000063
H32	H	1.090740	0.676051	-0.125155
H33	H	1.082422	0.529057	-0.210090
H34	H	0.966077	0.600017	-0.125129
H35	H	1.184596	0.486754	0.000030
H36	H	1.068258	0.557736	0.085019
C37	C	0.744014	0.500494	-0.125115
C38	C	0.820193	0.494653	0.000096
H39	H	0.690425	0.590218	-0.125111
H40	H	0.795683	0.496506	-0.210054
H41	H	0.694255	0.418728	-0.125081
H42	H	0.869960	0.576413	0.000057
H43	H	0.768518	0.498656	0.085058
H44	H	1.129219	-0.022793	0.000106
C45	C	1.185256	0.400747	0.624021
C46	C	1.309070	0.425751	0.661052
H47	H	1.128077	0.468193	0.676062
H48	H	1.173189	0.414976	0.521743
H49	H	1.170527	0.302119	0.649169
H50	H	1.323801	0.524377	0.635894
H51	H	1.321141	0.411535	0.763353
C52	C	1.736798	-0.078809	0.438829
C53	C	1.662833	0.008434	0.339153
H54	H	1.793968	-0.146276	0.386802
H55	H	1.782676	-0.016895	0.498615
H56	H	1.683909	-0.132444	0.498653
H57	H	1.715721	0.062077	0.279335
H58	H	1.616952	-0.053488	0.279341
H59	H	1.638850	0.036768	0.639175
H60	H	1.333043	0.397426	0.361014
