data_functionalizedCrystal
_audit_creation_method	'MofGen! by Chris Wilmer'
_symmetry_space_group_name_H-M	'P1'
_symmetry_Int_Tables_number	1
_symmetry_cell_setting	triclinic
loop_
_symmetry_equiv_pos_as_xyz
  x,y,z
_cell_length_a	29.839131
_cell_length_b	12.759401
_cell_length_c	12.759393
_cell_angle_alpha	90.019322
_cell_angle_beta	89.962110
_cell_angle_gamma	89.960666
loop_
_atom_site_label
_atom_site_type_symbol
_atom_site_fract_x
_atom_site_fract_y
_atom_site_fract_z
Zn1	Zn	-0.178852	-1.606060	-0.593958
Zn2	Zn	-0.253990	-1.605873	-0.418259
Zn3	Zn	-0.178872	-1.430362	-0.418295
Zn4	Zn	-0.253953	-1.430269	-0.593898
O5	O	-0.216417	-1.518141	-0.506103
O6	O	-0.188826	-1.753056	-0.570661
O7	O	-0.244050	-1.582551	-0.271243
O8	O	-0.116003	-1.453787	-0.441638
O9	O	-0.244030	-1.752919	-0.441576
O10	O	-0.115987	-1.582871	-0.570697
O11	O	-0.188861	-1.453605	-0.271269
O12	O	-0.188825	-1.283329	-0.441579
O13	O	-0.243966	-1.453628	-0.740927
O14	O	-0.243986	-1.283260	-0.570594
O15	O	-0.188790	-1.582781	-0.740971
O16	O	-0.316853	-1.582461	-0.441517
O17	O	-0.316825	-1.453446	-0.570559
C18	C	-0.216404	-1.245174	-0.506084
C19	C	-0.216409	-1.128397	-0.506101
C20	C	-0.333139	-1.517951	-0.506050
C21	C	-0.383074	-1.517966	-0.506063
C22	C	-0.245177	-1.073527	-0.573167
C23	C	-0.245181	-0.963803	-0.573177
C24	C	-0.187648	-0.963829	-0.439046
C25	C	-0.187642	-1.073551	-0.439042
C26	C	-0.273944	-1.128373	-0.640227
C27	C	-0.302714	-1.073503	-0.707297
C28	C	-0.302718	-0.963779	-0.707307
C29	C	-0.273951	-0.908925	-0.640246
C30	C	-0.692719	-1.585441	-0.439009
C31	C	-0.880392	-1.585571	-0.439050
O32	O	-0.904658	-1.642790	-0.381998
N33	N	-0.903859	-1.518359	-0.506182
C34	C	-0.880405	-1.451114	-0.573313
O35	O	-0.904671	-1.393957	-0.630422
C36	C	-0.692733	-1.450991	-0.573277
C37	C	-0.669268	-1.518200	-0.506133
C38	C	-0.669254	-1.652646	-0.371871
C39	C	-0.622339	-1.652609	-0.371858
C40	C	-0.598888	-1.585367	-0.438982
C41	C	-0.622353	-1.518163	-0.506119
C42	C	-0.669279	-1.383752	-0.640413
C43	C	-0.622358	-1.383729	-0.640400
C44	C	-0.598894	-1.450938	-0.573256
C45	C	-0.551986	-1.450884	-0.573230
N46	N	-0.528519	-1.518096	-0.506098
C47	C	-0.551970	-1.585338	-0.438974
C48	C	-0.978935	-1.451183	-0.573326
C49	C	-1.025853	-1.451212	-0.573334
C50	C	-1.025837	-1.585670	-0.439072
C51	C	-0.978918	-1.585635	-0.439059
C52	C	-0.955468	-1.518395	-0.506194
C53	C	-0.453444	-1.585254	-0.438950
C54	C	-0.406525	-1.585208	-0.438939
C55	C	-0.406545	-1.450754	-0.573205
C56	C	-0.453460	-1.450796	-0.573212
C57	C	-0.476909	-1.518054	-0.506081
O58	O	-0.527691	-1.393703	-0.630260
O59	O	-0.527696	-1.642503	-0.381890
C60	C	-0.739634	-1.585479	-0.439023
C61	C	-0.763099	-1.518274	-0.506160
C62	C	-0.739648	-1.451033	-0.573284
C63	C	-0.810017	-1.518304	-0.506168
C64	C	-0.833468	-1.585545	-0.439044
C65	C	-0.810001	-1.652757	-0.371912
C66	C	-0.763085	-1.652720	-0.371898
C67	C	-0.763115	-1.383820	-0.640416
C68	C	-0.810030	-1.383862	-0.640423
C69	C	-0.833481	-1.451104	-0.573299
C70	C	-0.099238	-1.518360	-0.506178
C71	C	-0.049304	-1.518454	-0.506210
C72	C	-0.216372	-1.518215	-0.780136
C73	C	-0.216352	-1.518246	-0.896913
C74	C	-0.216426	-0.792174	-0.506118
C75	C	-0.216419	-0.908951	-0.506115
C76	C	-0.187619	-1.585505	-0.951800
C77	C	-0.187603	-1.585530	-1.061524
C78	C	-0.245057	-1.451034	-1.061465
C79	C	-0.245070	-1.451004	-0.951742
C80	C	-0.158901	-1.652747	-0.896970
C81	C	-0.130166	-1.720013	-0.951857
C82	C	-0.130150	-1.720038	-1.061581
C83	C	-0.158869	-1.652797	-1.116418
C84	C	-0.216430	-1.518128	-0.233135
C85	C	-0.216322	-1.518301	-0.116359
H86	H	-0.273945	-1.217716	-0.640224
N87	N	-0.100824	-1.788674	-0.895848
N88	N	-0.072202	-1.751746	-0.834643
H89	H	-0.051477	-1.800238	-0.795088
N90	N	-1.049825	-1.382564	-0.641911
N91	N	-1.091716	-1.382593	-0.641921
H92	H	-1.108646	-1.334112	-0.690359
N93	N	-0.273953	-0.796844	-0.640234
N94	N	-0.248272	-0.747885	-0.580347
H95	H	-0.248274	-0.668728	-0.580334
H96	H	-0.744025	-1.329065	-0.695078
H97	H	-0.158848	-1.652811	-1.205763
N98	N	-0.332089	-1.129545	-0.775798
N99	N	-0.332082	-1.227510	-0.775784
H100	H	-0.352828	-1.267090	-0.824165
H101	H	-0.164228	-0.919158	-0.384448
N102	N	-0.158914	-1.652742	-0.784891
N103	N	-0.133274	-1.712784	-0.735945
H104	H	-0.133284	-1.712782	-0.656789
H105	H	-0.688376	-1.329018	-0.695084
N106	N	-0.332102	-0.907745	-0.775832
N107	N	-0.357781	-0.956731	-0.835701
H108	H	-0.378535	-0.917160	-0.884098
H109	H	-0.164214	-1.118227	-0.384439
N110	N	-0.954952	-1.654304	-0.370493
N111	N	-0.928734	-1.721224	-0.407508
H112	H	-0.911809	-1.769726	-0.359082
N113	N	-0.274414	-1.382290	-0.895666
N114	N	-0.271425	-1.285353	-0.907911
H115	H	-0.292147	-1.236818	-0.868305
H116	H	-0.387421	-1.639937	-0.384259
N117	N	-0.477385	-1.653961	-0.370370
N118	N	-0.456422	-1.713951	-0.310432
H119	H	-0.473329	-1.762470	-0.261991
H120	H	-0.603237	-1.707339	-0.317187
H121	H	-1.044939	-1.640421	-0.384417
H122	H	-0.688343	-1.707408	-0.317211
N123	N	-0.954992	-1.382488	-0.641916
N124	N	-0.975955	-1.322487	-0.701844
H125	H	-0.959048	-1.273968	-0.750284
N126	N	-0.598412	-1.315042	-0.708992
N127	N	-0.619372	-1.255048	-0.768933
H128	H	-0.602461	-1.206537	-0.817376
H129	H	-0.106749	-1.774801	-1.106267
H130	H	-0.472566	-1.396072	-0.627890
N131	N	-0.382578	-1.382069	-0.641752
N132	N	-0.340688	-1.382055	-0.641722
H133	H	-0.323760	-1.333548	-0.690136
N134	N	-0.274384	-1.382344	-1.117482
N135	N	-0.258561	-1.315448	-1.178716
H136	H	-0.279274	-1.266935	-1.218281
N137	N	-0.739128	-1.721377	-0.303302
N138	N	-0.760079	-1.781403	-0.243380
H139	H	-0.743162	-1.829897	-0.194930
H140	H	-0.829103	-1.707505	-0.317254
H141	H	-0.829131	-1.329123	-0.695099
