data_functionalizedCrystal
_audit_creation_method	'MofGen! by Chris Wilmer'
_symmetry_space_group_name_H-M	'P1'
_symmetry_Int_Tables_number	1
_symmetry_cell_setting	triclinic
loop_
_symmetry_equiv_pos_as_xyz
  x,y,z
_cell_length_a	23.532407
_cell_length_b	14.853567
_cell_length_c	13.330367
_cell_angle_alpha	90.008763
_cell_angle_beta	90.001508
_cell_angle_gamma	96.758196
loop_
_atom_site_label
_atom_site_type_symbol
_atom_site_fract_x
_atom_site_fract_y
_atom_site_fract_z
O1	O	0.755740	-0.109425	0.083290
O2	O	0.589946	-0.125260	0.083319
O3	O	0.677272	0.013936	0.083307
O4	O	0.668414	-0.248621	0.083302
O5	O	0.677258	0.013914	-0.083540
O6	O	0.589932	-0.125282	-0.083528
O7	O	0.755727	-0.109447	-0.083557
Cu8	Cu	0.672828	-0.117367	-0.098777
Cu9	Cu	0.672844	-0.117340	0.098539
O10	O	0.668401	-0.248643	-0.083545
C11	C	0.568721	-0.124868	-0.000101
C12	C	0.505499	-0.123655	-0.000090
C13	C	0.106722	-0.198424	-0.000137
C14	C	0.047317	-0.197298	-0.000143
O15	O	0.010875	-0.266610	-0.000180
N16	N	0.024330	-0.114546	-0.000140
C17	C	0.060751	-0.032916	-0.000141
O18	O	0.035744	0.037575	-0.000140
C19	C	0.120155	-0.034043	-0.000142
C20	C	0.143139	-0.116800	-0.000135
C21	C	0.129707	-0.281175	-0.000131
C22	C	0.189108	-0.282300	-0.000123
C23	C	0.225524	-0.200676	-0.000121
C24	C	0.202540	-0.117926	-0.000127
C25	C	0.156575	0.047587	-0.000150
C26	C	0.215983	0.046453	-0.000152
C27	C	0.238966	-0.036304	-0.000145
C28	C	0.298358	-0.037427	-0.000117
N29	N	0.321345	-0.120179	-0.000120
C30	C	0.284928	-0.201803	-0.000122
C31	C	-0.064002	-0.030555	-0.000140
C32	C	-0.123405	-0.029427	-0.000132
C33	C	-0.136834	-0.193810	-0.000136
C34	C	-0.077431	-0.194937	-0.000137
C35	C	-0.041014	-0.113306	-0.000143
C36	C	0.409675	-0.204161	-0.000104
C37	C	0.469082	-0.205280	-0.000092
C38	C	0.482507	-0.040897	-0.000093
C39	C	0.423105	-0.039778	-0.000100
C40	C	0.386690	-0.121418	-0.000109
O41	O	0.334835	0.031848	-0.000083
O42	O	0.309944	-0.272282	-0.000136
C43	C	0.676864	0.047509	-0.000114
C44	C	0.675661	0.147580	-0.000105
C45	C	0.776951	-0.109839	-0.000135
C46	C	0.840174	-0.111052	-0.000139
C47	C	0.668809	-0.282216	-0.000122
C48	C	0.670012	-0.382286	-0.000124
N49	N	0.672821	-0.117385	-0.237559
C50	C	0.618704	0.559490	-0.000114
C51	C	0.722449	0.581906	-0.000132
C52	C	0.723580	0.487885	-0.000126
C53	C	0.672272	0.429662	-0.000116
C54	C	0.619833	0.465460	-0.000112
C55	C	0.776017	0.452079	-0.000141
C56	C	0.777150	0.358053	-0.000136
C57	C	0.725842	0.299828	-0.000119
C58	C	0.673401	0.335631	-0.000113
C59	C	0.622093	0.277408	-0.000103
C60	C	0.569652	0.313210	-0.000090
C61	C	0.568524	0.407235	-0.000094
C62	C	0.726969	0.205803	-0.000115
C63	C	0.623222	0.183378	-0.000100
C64	C	0.707433	-0.171725	-0.710178
C65	C	0.638273	-0.062919	-0.710153
C66	C	0.638264	-0.062933	-0.605134
C67	C	0.672841	-0.117343	-0.552633
C68	C	0.707427	-0.171739	-0.605150
C69	C	0.603684	-0.008531	-0.552610
C70	C	0.603675	-0.008542	-0.447585
C71	C	0.638249	-0.062958	-0.395082
C72	C	0.672836	-0.117357	-0.447605
C73	C	0.707413	-0.171767	-0.395104
C74	C	0.741996	-0.226171	-0.447625
C75	C	0.742001	-0.226155	-0.552647
C76	C	0.638244	-0.062975	-0.290060
C77	C	0.707407	-0.171780	-0.290076
N78	N	0.672856	-0.117315	0.237321
H79	H	-0.142112	0.037962	-0.000122
H80	H	0.770159	-0.270446	-0.595419
H81	H	0.581440	0.135978	-0.000088
H82	H	0.770152	-0.270468	-0.404865
Cl83	Cl	0.843075	0.313053	-0.000135
H84	H	0.512168	0.025559	-0.000088
H85	H	0.100061	-0.347647	-0.000136
Cl86	Cl	0.750874	-0.240192	-0.224082
Cl87	Cl	0.750903	-0.240122	-0.776201
Cl88	Cl	0.261760	0.149081	-0.000161
H89	H	0.527877	0.265793	-0.000089
H90	H	0.575538	0.035774	-0.595364
H91	H	0.610125	-0.018615	-0.752906
H92	H	0.576007	0.588645	-0.000100
Cl93	Cl	0.502605	0.452250	-0.000075
Cl94	Cl	0.560189	0.059834	-0.381567
Cl95	Cl	0.786946	0.655101	-0.000161
Cl96	Cl	-0.018227	0.072077	-0.000136
Cl97	Cl	0.594782	0.005430	-0.224037
Cl98	Cl	-0.048543	-0.298978	-0.000132
Cl99	Cl	0.840514	0.525276	-0.000175
H100	H	0.137873	0.114977	-0.000156
Cl101	Cl	0.394210	0.064260	-0.000114
H102	H	0.487792	-0.272673	-0.000086
Cl103	Cl	0.217992	-0.386344	-0.000121
Cl104	Cl	0.363906	-0.306795	-0.000114
H105	H	-0.166496	-0.260273	-0.000142
Cl106	Cl	0.792889	0.160798	-0.000150
