data_functionalizedCrystal
_audit_creation_method	'MofGen! by Chris Wilmer'
_symmetry_space_group_name_H-M	'P1'
_symmetry_Int_Tables_number	1
_symmetry_cell_setting	triclinic
loop_
_symmetry_equiv_pos_as_xyz
  x,y,z
_cell_length_a	14.044220
_cell_length_b	13.596369
_cell_length_c	14.519709
_cell_angle_alpha	90.006934
_cell_angle_beta	91.565489
_cell_angle_gamma	89.999747
loop_
_atom_site_label
_atom_site_type_symbol
_atom_site_fract_x
_atom_site_fract_y
_atom_site_fract_z
O1	O	1.258085	-0.081691	-0.222370
O2	O	1.508085	0.168309	0.027630
O3	O	1.758085	0.418309	0.277630
O4	O	2.008085	0.668309	0.527630
O5	O	0.982102	-0.081716	-0.214346
O6	O	1.232102	0.168284	0.035654
O7	O	1.482102	0.418284	0.285654
O8	O	1.732102	0.668284	0.535654
O9	O	1.127410	-0.081694	-0.084710
O10	O	1.377410	0.168306	0.165290
O11	O	1.627410	0.418306	0.415290
O12	O	1.877410	0.668306	0.665290
O13	O	1.112776	-0.081713	-0.352006
O14	O	1.362776	0.168287	-0.102006
O15	O	1.612776	0.418287	0.147994
O16	O	1.862776	0.668287	0.397994
O17	O	1.127396	0.081889	-0.084701
O18	O	1.377396	0.331889	0.165299
O19	O	1.627396	0.581889	0.415299
O20	O	1.877396	0.831889	0.665299
O21	O	0.982087	0.081867	-0.214337
O22	O	1.232087	0.331867	0.035663
O23	O	1.482087	0.581867	0.285663
O24	O	1.732087	0.831867	0.535663
O25	O	1.258070	0.081892	-0.222361
O26	O	1.508070	0.331892	0.027639
O27	O	1.758070	0.581892	0.277639
O28	O	2.008070	0.831892	0.527639
Zn29	Zn	1.120076	0.107852	-0.218348
Zn30	Zn	1.370076	0.357852	0.031652
Zn31	Zn	1.620076	0.607852	0.281652
Zn32	Zn	1.870076	0.857852	0.531652
Zn33	Zn	1.120095	-0.107676	-0.218359
Zn34	Zn	1.370095	0.142324	0.031641
Zn35	Zn	1.620095	0.392324	0.281641
Zn36	Zn	1.870095	0.642324	0.531641
O37	O	1.112761	0.081870	-0.351997
O38	O	1.362761	0.331870	-0.101997
O39	O	1.612761	0.581870	0.148003
O40	O	1.862761	0.831870	0.398003
C41	C	0.946774	0.000073	-0.210829
C42	C	1.196774	0.250073	0.039171
C43	C	1.446774	0.500073	0.289171
C44	C	1.696774	0.750073	0.539171
C45	C	0.841531	0.000064	-0.200352
C46	C	1.091531	0.250064	0.049648
C47	C	1.341531	0.500064	0.299648
C48	C	1.591531	0.750064	0.549648
C49	C	1.126721	0.000098	-0.050290
C50	C	1.376721	0.250098	0.199710
C51	C	1.626721	0.500098	0.449710
C52	C	1.876721	0.750098	0.699710
C53	C	1.124677	0.000098	0.052256
C54	C	1.374677	0.250098	0.302256
C55	C	1.624677	0.500098	0.552256
C56	C	1.874677	0.750098	0.802256
N57	N	1.120070	0.254944	-0.218340
N58	N	1.370070	0.504944	0.031660
N59	N	1.620070	0.754944	0.281660
N60	N	1.870070	1.004944	0.531660
C61	C	0.648837	0.000084	-0.181197
C62	C	0.898837	0.250084	0.068803
C63	C	1.148837	0.500084	0.318803
C64	C	1.398837	0.750084	0.568803
C65	C	0.591329	0.000083	-0.255505
C66	C	0.841329	0.250083	-0.005505
C67	C	1.091329	0.500083	0.244495
C68	C	1.341329	0.750083	0.494495
C69	C	0.484108	0.000095	-0.244848
C70	C	0.734108	0.250095	0.005152
C71	C	0.984108	0.500095	0.255152
C72	C	1.234108	0.750095	0.505152
C73	C	0.756068	0.000073	-0.191854
C74	C	1.006068	0.250073	0.058146
C75	C	1.256068	0.500073	0.308146
C76	C	1.506068	0.750073	0.558146
C77	C	1.293398	0.000101	-0.225878
C78	C	1.543398	0.250101	0.024122
C79	C	1.793398	0.500101	0.274122
C80	C	2.043398	0.750101	0.524122
C81	C	1.398641	0.000104	-0.236355
C82	C	1.648641	0.250104	0.013645
C83	C	1.898641	0.500104	0.263645
C84	C	2.148641	0.750104	0.513645
N85	N	1.120109	-0.254767	-0.218360
N86	N	1.370109	-0.004767	0.031640
N87	N	1.620109	0.245233	0.281640
N88	N	1.870109	0.495233	0.531640
C89	C	1.120094	0.656235	-0.218360
C90	C	1.370094	0.906235	0.031640
C91	C	1.620094	1.156235	0.281640
C92	C	1.870094	1.406235	0.531640
C93	C	1.120085	0.544583	-0.218357
C94	C	1.370085	0.794583	0.031643
C95	C	1.620085	1.044583	0.281643
C96	C	1.870085	1.294583	0.531643
C97	C	1.120083	0.455593	-0.218351
C98	C	1.370083	0.705593	0.031649
C99	C	1.620083	0.955593	0.281649
C100	C	1.870083	1.205593	0.531649
C101	C	1.120072	0.343934	-0.218347
C102	C	1.370072	0.593934	0.031653
C103	C	1.620072	0.843934	0.281653
C104	C	1.870072	1.093934	0.531653
C105	C	1.113451	0.000076	-0.386416
C106	C	1.363451	0.250076	-0.136416
C107	C	1.613451	0.500076	0.113584
C108	C	1.863451	0.750076	0.363584
C109	C	1.115494	0.000070	-0.488963
C110	C	1.365494	0.250070	-0.238963
C111	C	1.615494	0.500070	0.011037
C112	C	1.865494	0.750070	0.261037
C113	C	1.117153	0.000072	0.427758
C114	C	1.367153	0.250072	0.677758
C115	C	1.617153	0.500072	0.927758
C116	C	1.867153	0.750072	1.177758
C117	C	1.119243	0.000079	0.323282
C118	C	1.369243	0.250079	0.573282
C119	C	1.619243	0.500079	0.823282
C120	C	1.869243	0.750079	1.073282
C121	C	1.120915	0.000086	0.240010
C122	C	1.370915	0.250086	0.490010
C123	C	1.620915	0.500086	0.740010
C124	C	1.870915	0.750086	0.990010
C125	C	1.123005	0.000092	0.135527
C126	C	1.373005	0.250092	0.385527
C127	C	1.623005	0.500092	0.635527
C128	C	1.873005	0.750092	0.885527
H129	H	0.617546	0.000095	-0.109582
H130	H	0.867546	0.250095	0.140418
H131	H	1.117546	0.500095	0.390418
H132	H	1.367546	0.750095	0.640418
H133	H	0.622622	0.000073	-0.327127
H134	H	0.872622	0.250073	-0.077127
H135	H	1.122622	0.500073	0.172873
H136	H	1.372622	0.750073	0.422873
