data_functionalizedCrystal
_audit_creation_method	'MofGen! by Chris Wilmer'
_symmetry_space_group_name_H-M	'P1'
_symmetry_Int_Tables_number	1
_symmetry_cell_setting	triclinic
loop_
_symmetry_equiv_pos_as_xyz
  x,y,z
_cell_length_a	16.992694
_cell_length_b	10.540539
_cell_length_c	16.053802
_cell_angle_alpha	92.593658
_cell_angle_beta	87.249047
_cell_angle_gamma	87.596857
loop_
_atom_site_label
_atom_site_type_symbol
_atom_site_fract_x
_atom_site_fract_y
_atom_site_fract_z
O1	O	1.045174	0.264306	-0.069318
O2	O	0.816873	0.261349	-0.069343
O3	O	0.936232	0.078573	-0.069329
O4	O	0.925815	0.447082	-0.069332
O5	O	0.929662	0.088589	0.069529
O6	O	0.810303	0.271366	0.069516
O7	O	1.038604	0.274322	0.069540
Zn8	Zn	0.923410	0.274434	0.091575
Zn9	Zn	0.932067	0.261237	-0.091377
O10	O	0.919245	0.457098	0.069526
C11	C	0.784355	0.262556	0.000083
C12	C	0.697247	0.251215	0.000074
C13	C	0.932166	0.036210	0.000099
C14	C	0.929829	-0.104941	0.000094
C15	C	0.647620	0.360635	0.000073
C16	C	0.565773	0.349973	0.000085
C17	C	0.533555	0.229889	0.000091
C18	C	0.583189	0.120461	0.000094
C19	C	0.665034	0.131125	0.000088
C20	C	0.289709	0.185691	0.000114
C21	C	0.207858	0.175036	0.000117
C22	C	0.190447	0.404549	0.000110
C23	C	0.272294	0.415202	0.000099
C24	C	0.321921	0.305774	0.000106
N25	N	0.449895	0.218988	0.000100
N26	N	0.405579	0.316677	0.000103
C27	C	0.840283	-0.296162	-0.000227
C28	C	0.842638	-0.149316	0.000086
C29	C	0.968037	-0.157237	0.079393
C30	C	0.965058	-0.304035	0.079460
C31	C	0.974303	-0.315790	-0.078448
C32	C	0.975156	-0.168814	-0.079496
C33	C	1.071123	0.273115	0.000112
C34	C	1.158230	0.284456	0.000117
C35	C	0.923311	0.499461	0.000097
C36	C	0.925649	0.640612	0.000096
N37	N	0.917508	0.283440	0.216434
N38	N	0.937975	0.252222	-0.216237
C39	C	0.968315	0.205700	0.260134
C40	C	0.964193	0.212013	0.347540
C41	C	0.909269	0.296073	0.391245
C42	C	0.858458	0.373817	0.347539
C43	C	0.862576	0.367497	0.260134
C44	C	0.891281	0.323645	0.652653
C45	C	0.887169	0.329962	0.740063
C46	C	0.992904	0.168156	0.740059
C47	C	0.997020	0.161848	0.652652
C48	C	0.946206	0.239587	0.608954
N49	N	0.905057	0.302531	0.480588
N50	N	0.950415	0.233122	0.519612
H51	H	0.673844	0.458420	0.000068
H52	H	0.525369	0.439075	0.000084
C53	C	0.937493	-0.122821	-0.158750
H54	H	0.894328	-0.064928	-0.143407
H55	H	0.919324	-0.193613	-0.189887
H56	H	0.975593	-0.081516	-0.191842
H57	H	0.298520	0.512986	0.000084
H58	H	0.808532	-0.331853	-0.057095
H59	H	1.031928	-0.129114	0.082349
H60	H	0.556951	0.022687	0.000111
H61	H	1.038951	-0.139421	-0.084277
H62	H	1.013043	0.137255	0.224555
H63	H	0.150032	0.493638	0.000105
C64	C	0.790329	-0.335462	0.076158
H65	H	0.821271	-0.390231	0.108247
H66	H	0.745822	-0.378590	0.057923
H67	H	0.773088	-0.261801	0.109440
C68	C	0.794096	-0.091248	0.077002
H69	H	0.772865	-0.157418	0.108184
H70	H	0.752329	-0.037764	0.059320
H71	H	0.827156	-0.042753	0.110969
C72	C	1.048787	0.082639	0.788128
H73	H	1.038466	0.098431	0.846443
H74	H	1.101898	0.100750	0.773796
H75	H	1.040461	-0.004037	0.773810
C76	C	0.835410	0.409186	0.604591
H77	H	0.845723	0.393387	0.546277
H78	H	0.843742	0.495851	0.618917
H79	H	0.782292	0.391083	0.618919
C80	C	1.057471	0.069444	0.604579
H81	H	1.052662	0.076842	0.546265
H82	H	1.047846	-0.015182	0.618888
H83	H	1.109217	0.089706	0.618917
C84	C	0.919370	-0.340003	0.159521
H85	H	0.917153	-0.429858	0.160269
H86	H	0.867349	-0.303041	0.160746
H87	H	0.945434	-0.309312	0.206944
H88	H	0.181630	0.077244	0.000121
C89	C	0.798044	0.466283	0.395612
H90	H	0.802873	0.458925	0.453926
H91	H	0.746283	0.446097	0.381298
H92	H	0.807717	0.550889	0.381276
H93	H	1.027595	-0.346303	0.083064
H94	H	0.821203	0.430799	0.224555
H95	H	0.936097	-0.112911	0.138399
H96	H	0.812311	-0.113678	-0.056760
H97	H	0.842440	0.398419	0.775644
C98	C	0.344288	0.065325	0.000116
H99	H	0.313377	-0.007717	0.000111
H100	H	0.374293	0.068204	0.048538
H101	H	0.378862	0.061216	-0.048314
C102	C	1.059410	-0.372266	-0.079168
H103	H	1.065297	-0.422179	-0.031863
H104	H	1.095126	-0.305349	-0.077425
H105	H	1.070304	-0.424142	-0.128655
H106	H	0.948927	-0.354127	-0.138551
C107	C	1.020088	0.126511	0.395607
H108	H	1.053396	0.075558	0.357059
H109	H	0.989975	0.073209	0.429714
H110	H	1.051392	0.178027	0.429692
H111	H	0.705441	0.042023	0.000088
