data_functionalizedCrystal
_audit_creation_method	'MofGen! by Chris Wilmer'
_symmetry_space_group_name_H-M	'P1'
_symmetry_Int_Tables_number	1
_symmetry_cell_setting	triclinic
loop_
_symmetry_equiv_pos_as_xyz
  x,y,z
_cell_length_a	21.295419
_cell_length_b	21.295417
_cell_length_c	19.805399
_cell_angle_alpha	89.970204
_cell_angle_beta	89.981377
_cell_angle_gamma	90.044503
loop_
_atom_site_label
_atom_site_type_symbol
_atom_site_fract_x
_atom_site_fract_y
_atom_site_fract_z
Zn1	Zn	0.962322	-0.250375	-0.382692
Zn2	Zn	1.462322	0.249625	0.117308
Zn3	Zn	0.962237	-0.355644	-0.269500
Zn4	Zn	1.462237	0.144356	0.230500
Zn5	Zn	0.857056	-0.250420	-0.269519
Zn6	Zn	1.357056	0.249580	0.230481
Zn7	Zn	0.857016	-0.355638	-0.382648
Zn8	Zn	1.357016	0.144362	0.117352
O9	O	0.909658	-0.303019	-0.326090
O10	O	1.409658	0.196981	0.173910
O11	O	1.050400	-0.264323	-0.367687
O12	O	1.550400	0.235677	0.132313
O13	O	0.948266	-0.341707	-0.174785
O14	O	1.448266	0.158293	0.325215
O15	O	0.871073	-0.162324	-0.284558
O16	O	1.371073	0.337676	0.215442
O17	O	1.050338	-0.341664	-0.284525
O18	O	1.550338	0.158336	0.215475
O19	O	0.948411	-0.162292	-0.367706
O20	O	1.448411	0.337708	0.132294
O21	O	0.870990	-0.264399	-0.174800
O22	O	1.370990	0.235601	0.325200
O23	O	0.768962	-0.264393	-0.284515
O24	O	1.268962	0.235607	0.215485
O25	O	0.871004	-0.341653	-0.477371
O26	O	1.371004	0.158347	0.022629
O27	O	0.768932	-0.341696	-0.367631
O28	O	1.268932	0.158304	0.132369
O29	O	0.948372	-0.264317	-0.477403
O30	O	1.448372	0.235683	0.022597
O31	O	0.948227	-0.443733	-0.284483
O32	O	1.448227	0.056267	0.215517
O33	O	0.870922	-0.443728	-0.367612
O34	O	1.370922	0.056272	0.132388
C35	C	0.746106	-0.303049	-0.326071
C36	C	1.246106	0.196951	0.173929
C37	C	0.676138	-0.303077	-0.326079
C38	C	1.176138	0.196923	0.173921
C39	C	0.643327	-0.262872	-0.369448
C40	C	1.143327	0.237128	0.130552
C41	C	0.577584	-0.262855	-0.369451
C42	C	1.077584	0.237145	0.130549
C43	C	0.544656	-0.303055	-0.326091
C44	C	1.044656	0.196945	0.173909
C45	C	0.577475	-0.343263	-0.282713
C46	C	1.077475	0.156737	0.217287
C47	C	0.643217	-0.343274	-0.282707
C48	C	1.143217	0.156726	0.217293
N49	N	0.441382	-0.358133	-0.320802
N50	N	0.941382	0.141867	0.179198
N51	N	0.378930	-0.358120	-0.320812
N52	N	0.878930	0.141880	0.179188
C53	C	0.346581	-0.303022	-0.326106
C54	C	0.846581	0.196978	0.173894
N55	N	0.379043	-0.247936	-0.331403
N56	N	0.879043	0.252064	0.168597
N57	N	0.441500	-0.247949	-0.331397
N58	N	0.941500	0.252051	0.168603
C59	C	0.473370	-0.303047	-0.326092
C60	C	0.973370	0.196953	0.173908
C61	C	0.242484	-0.262795	-0.369480
C62	C	0.742484	0.237205	0.130520
C63	C	0.176740	-0.262777	-0.369478
C64	C	0.676740	0.237223	0.130522
C65	C	0.176633	-0.343191	-0.282744
C66	C	0.676633	0.156809	0.217256
C67	C	0.242375	-0.343203	-0.282743
C68	C	0.742375	0.156797	0.217257
C69	C	0.275297	-0.303006	-0.326115
C70	C	0.775297	0.196994	0.173885
C71	C	0.909578	-0.466571	-0.326055
C72	C	1.409578	0.033429	0.173945
C73	C	0.909601	-0.536539	-0.326063
C74	C	1.409601	-0.036539	0.173937
C75	C	0.949848	-0.569331	-0.369390
C76	C	1.449848	-0.069331	0.130610
C77	C	0.949870	-0.635074	-0.369406
C78	C	1.449870	-0.135074	0.130594
C79	C	0.909652	-0.668021	-0.326085
C80	C	1.409652	-0.168021	0.173915
C81	C	0.869397	-0.635221	-0.282755
C82	C	1.369397	-0.135221	0.217245
C83	C	0.869372	-0.569480	-0.282745
C84	C	1.369372	-0.069480	0.217255
N85	N	0.904898	-0.771284	-0.266849
N86	N	1.404898	-0.271284	0.233151
N87	N	0.904926	-0.833735	-0.266861
N88	N	1.404926	-0.333735	0.233139
C89	C	0.909726	-0.866096	-0.326115
C90	C	1.409726	-0.366096	0.173885
N91	N	0.914508	-0.833646	-0.385358
N92	N	1.414508	-0.333646	0.114642
N93	N	0.914484	-0.771189	-0.385345
N94	N	1.414484	-0.271189	0.114655
C95	C	0.909675	-0.739307	-0.326092
C96	C	1.409675	-0.239307	0.173908
C97	C	0.949999	-0.970174	-0.369463
C98	C	1.449999	-0.470174	0.130537
C99	C	0.950017	-1.035918	-0.369481
C100	C	1.450017	-0.535918	0.130519
C101	C	0.869547	-1.036064	-0.282824
C102	C	1.369547	-0.536064	0.217176
C103	C	0.869526	-0.970321	-0.282812
C104	C	1.369526	-0.470321	0.217188
C105	C	0.909755	-0.937380	-0.326131
C106	C	1.409755	-0.437380	0.173869
C107	C	1.073848	-0.302989	-0.326109
C108	C	1.573848	0.197011	0.173891
C109	C	1.143816	-0.302977	-0.326117
C110	C	1.643816	0.197023	0.173883
C111	C	0.909693	-0.302979	-0.502632
C112	C	1.409693	0.197021	-0.002632
C113	C	0.909708	-0.302963	-0.577864
C114	C	1.409708	0.197037	-0.077864
C115	C	0.909756	-0.138829	-0.326139
C116	C	1.409756	0.361171	0.173861
C117	C	0.909797	-0.068861	-0.326160
C118	C	1.409797	0.431139	0.173840
C119	C	0.949995	-0.262692	-0.613227
C120	C	1.449995	0.237308	-0.113227
C121	C	0.950001	-0.262674	-0.683915
C122	C	1.450001	0.237326	-0.183915
C123	C	0.909724	-0.302930	-0.719240
C124	C	1.409724	0.197070	-0.219240
C125	C	0.869433	-0.343202	-0.683873
C126	C	1.369433	0.156798	-0.183873
C127	C	0.869424	-0.343217	-0.613186
C128	C	1.369424	0.156783	-0.113186
C129	C	0.869469	-0.343144	-0.968947
C130	C	1.369469	0.156856	-0.468947
C131	C	0.869482	-0.343127	-1.039639
C132	C	1.369482	0.156873	-0.539639
C133	C	0.950046	-0.262600	-1.039676
C134	C	1.450046	0.237400	-0.539676
C135	C	0.950037	-0.262615	-0.968988
C136	C	1.450037	0.237385	-0.468988
C137	C	0.909744	-0.302885	-0.933628
C138	C	1.409744	0.197115	-0.433628
C139	C	0.909737	-0.302903	-0.856979
C140	C	1.409737	0.197097	-0.356979
C141	C	0.909734	-0.302915	-0.795887
C142	C	1.409734	0.197085	-0.295887
C143	C	0.909659	-0.303013	-0.150234
C144	C	1.409659	0.196987	0.349766
C145	C	0.909766	-0.302853	-0.075002
C146	C	1.409766	0.197147	0.424998
H147	H	0.670128	-0.230140	-0.404764
H148	H	1.170128	0.269860	0.095236
H149	H	0.550864	-0.230112	-0.404766
H150	H	1.050864	0.269888	0.095234
C151	C	0.476650	-0.378958	-0.244221
C152	C	0.976650	0.121042	0.255779
C153	C	0.541283	-0.387454	-0.235054
C154	C	1.041283	0.112546	0.264946
H155	H	0.454308	-0.406243	-0.214798
H156	H	0.954308	0.093757	0.285202
H157	H	0.465914	-0.336654	-0.234398
H158	H	0.965914	0.163346	0.265602
H159	H	0.465893	-0.388225	-0.289684
H160	H	0.965893	0.111775	0.210316
H161	H	0.552040	-0.378182	-0.189592
H162	H	1.052040	0.121818	0.310408
H163	H	0.552023	-0.429767	-0.244872
H164	H	1.052023	0.070233	0.255128
H165	H	0.982808	-0.229882	-0.712704
H166	H	1.482808	0.270118	-0.212704
C167	C	0.183454	-0.183305	-0.455221
C168	C	0.683454	0.316695	0.044779
C169	C	0.140671	-0.218580	-0.417154
C170	C	0.640671	0.281420	0.082846
H171	H	0.161185	-0.156023	-0.484657
H172	H	0.661185	0.343977	0.015343
H173	H	0.209108	-0.159194	-0.425780
H174	H	0.709108	0.340806	0.074220
H175	H	0.209079	-0.210778	-0.481051
H176	H	0.709079	0.289222	0.018949
H177	H	0.115049	-0.191107	-0.391320
H178	H	0.615049	0.308893	0.108680
H179	H	0.115007	-0.242693	-0.446599
H180	H	0.615007	0.257307	0.053401
H181	H	0.269290	-0.230060	-0.404792
H182	H	0.769290	0.269940	0.095208
H183	H	0.836796	-1.062889	-0.247555
H184	H	1.336796	-0.562889	0.252445
H185	H	0.836650	-0.662051	-0.247484
H186	H	1.336650	-0.162051	0.252516
H187	H	0.669931	-0.376015	-0.247389
H188	H	1.169931	0.123985	0.252611
C189	C	0.075812	-0.378884	-0.244248
C190	C	0.575812	0.121116	0.255752
C191	C	0.140445	-0.387382	-0.235084
C192	C	0.640445	0.112618	0.264916
H193	H	0.053471	-0.406169	-0.214825
H194	H	0.553471	0.093831	0.285175
H195	H	0.065078	-0.336580	-0.234422
H196	H	0.565078	0.163420	0.265578
H197	H	0.065053	-0.388149	-0.289710
H198	H	0.565053	0.111851	0.210290
H199	H	0.151205	-0.378113	-0.189623
H200	H	0.651205	0.121887	0.310377
H201	H	0.151184	-0.429695	-0.244905
H202	H	0.651184	0.070305	0.255095
H203	H	0.982852	-0.229808	-1.068475
H204	H	1.482852	0.270192	-0.568475
H205	H	0.836681	-0.375910	-1.068398
H206	H	1.336681	0.124090	-0.568398
H207	H	0.269091	-0.375945	-0.247429
H208	H	0.769091	0.124055	0.252571
C209	C	1.029394	-0.575796	-0.455043
C210	C	1.529394	-0.075796	0.044957
C211	C	0.994064	-0.533124	-0.417009
C212	C	1.494064	-0.033124	0.082991
H213	H	1.056687	-0.553440	-0.484444
H214	H	1.556687	-0.053440	0.015556
H215	H	1.053496	-0.601425	-0.425579
H216	H	1.553496	-0.101425	0.074421
H217	H	1.001957	-0.601455	-0.480910
H218	H	1.501957	-0.101455	0.019090
H219	H	1.021501	-0.507468	-0.391139
H220	H	1.521501	-0.007468	0.108861
H221	H	0.969959	-0.507483	-0.446477
H222	H	1.469959	-0.007483	0.053523
C223	C	0.980750	-0.156019	-0.947272
C224	C	1.480750	0.343981	-0.447272
C225	C	0.994308	-0.218358	-0.930164
C226	C	1.494308	0.281642	-0.430164
H227	H	1.008079	-0.128695	-0.923302
H228	H	1.508079	0.371305	-0.423302
H229	H	0.986522	-0.150256	-0.994427
H230	H	1.486522	0.349744	-0.494427
H231	H	0.938457	-0.146829	-0.935678
H232	H	1.438457	0.353171	-0.435678
H233	H	1.036600	-0.227550	-0.941763
H234	H	1.536600	0.272450	-0.441763
H235	H	0.988541	-0.224125	-0.882999
H236	H	1.488541	0.275875	-0.382999
C237	C	0.958594	-0.708948	-0.460465
C238	C	1.458594	-0.208948	0.039535
C239	C	0.994111	-0.671134	-0.417032
C240	C	1.494111	-0.171134	0.082968
H241	H	0.985906	-0.731207	-0.489868
H242	H	1.485906	-0.231207	0.010132
H243	H	0.934645	-0.737968	-0.434663
H244	H	1.434645	-0.237968	0.065337
H245	H	0.931150	-0.683310	-0.486327
H246	H	1.431150	-0.183310	0.013673
H247	H	1.021551	-0.696773	-0.391165
H248	H	1.521551	-0.196773	0.108835
H249	H	1.018070	-0.642111	-0.442836
H250	H	1.518070	-0.142111	0.057164
C251	C	0.789793	-0.422801	-0.676731
C252	C	1.289793	0.077199	-0.176731
C253	C	0.825158	-0.387453	-0.722700
C254	C	1.325158	0.112547	-0.222700
H255	H	0.762458	-0.450118	-0.700702
H256	H	1.262458	0.049882	-0.200702
H257	H	0.817201	-0.446879	-0.649159
H258	H	1.317201	0.053121	-0.149159
H259	H	0.765728	-0.395377	-0.649164
H260	H	1.265728	0.104623	-0.149164
H261	H	0.849227	-0.414877	-0.750264
H262	H	1.349227	0.085123	-0.250264
H263	H	0.797747	-0.363373	-0.750284
H264	H	1.297747	0.136627	-0.250284
C265	C	0.789834	-0.576229	-0.197091
C266	C	1.289834	-0.076229	0.302909
C267	C	0.825133	-0.533430	-0.235113
C268	C	1.325133	-0.033430	0.264887
H269	H	0.762527	-0.553971	-0.167681
H270	H	1.262527	-0.053971	0.332319
H271	H	0.765748	-0.601876	-0.226562
H272	H	1.265748	-0.101876	0.273438
H273	H	0.817290	-0.601858	-0.171234
H274	H	1.317290	-0.101858	0.328766
H275	H	0.797677	-0.507804	-0.260974
H276	H	1.297677	-0.007804	0.239026
H277	H	0.849221	-0.507772	-0.205638
H278	H	1.349221	-0.007772	0.294362
C279	C	0.789821	-0.422727	-0.976020
C280	C	1.289821	0.077273	-0.476020
C281	C	0.825172	-0.387400	-0.930084
C282	C	1.325172	0.112600	-0.430084
H283	H	0.762473	-0.450049	-0.952024
H284	H	1.262473	0.049951	-0.452024
H285	H	0.765777	-0.395294	-1.003601
H286	H	1.265777	0.104706	-0.503601
H287	H	0.817242	-0.446804	-1.003581
H288	H	1.317242	0.053196	-0.503581
H289	H	0.797751	-0.363319	-0.902526
H290	H	1.297751	0.136681	-0.402526
H291	H	0.849218	-0.414836	-0.902491
H292	H	1.349218	0.085164	-0.402491
H293	H	0.836612	-0.376003	-0.584395
H294	H	1.336612	0.123997	-0.084395
H295	H	0.982754	-0.943352	-0.404738
H296	H	1.482754	-0.443352	0.095262
H297	H	0.982791	-1.062616	-0.404765
H298	H	1.482791	-0.562616	0.095235
C299	C	0.789997	-0.977071	-0.197152
C300	C	1.289997	-0.477071	0.302848
C301	C	0.825293	-0.934271	-0.235177
C302	C	1.325293	-0.434271	0.264823
H303	H	0.762691	-0.954814	-0.167741
H304	H	1.262691	-0.454814	0.332259
H305	H	0.765910	-1.002719	-0.226622
H306	H	1.265910	-0.502719	0.273378
H307	H	0.817456	-1.002699	-0.171298
H308	H	1.317456	-0.502699	0.328702
H309	H	0.797834	-0.908646	-0.261036
H310	H	1.297834	-0.408646	0.238964
H311	H	0.849381	-0.908613	-0.205704
H312	H	1.349381	-0.408613	0.294296
H313	H	0.982795	-0.229912	-0.584470
H314	H	1.482795	0.270088	-0.084470
