data_functionalizedCrystal
_audit_creation_method	'MofGen! by Chris Wilmer'
_symmetry_space_group_name_H-M	'P1'
_symmetry_Int_Tables_number	1
_symmetry_cell_setting	triclinic
loop_
_symmetry_equiv_pos_as_xyz
  x,y,z
_cell_length_a	13.897449
_cell_length_b	16.625546
_cell_length_c	13.897441
_cell_angle_alpha	89.967525
_cell_angle_beta	89.981404
_cell_angle_gamma	90.023748
loop_
_atom_site_label
_atom_site_type_symbol
_atom_site_fract_x
_atom_site_fract_y
_atom_site_fract_z
Zn1	Zn	1.474650	-0.320956	-0.545362
Zn2	Zn	1.974650	0.179044	-0.045362
Zn3	Zn	1.474537	-0.455804	-0.384055
Zn4	Zn	1.974537	0.044196	0.115945
Zn5	Zn	1.313345	-0.320992	-0.384080
Zn6	Zn	1.813345	0.179008	0.115920
Zn7	Zn	1.313308	-0.455753	-0.545308
Zn8	Zn	1.813308	0.044247	-0.045308
O9	O	1.393960	-0.388376	-0.464702
O10	O	1.893960	0.111624	0.035298
O11	O	1.609617	-0.338850	-0.523977
O12	O	2.109617	0.161150	-0.023977
O13	O	1.453123	-0.437957	-0.249077
O14	O	1.953123	0.062043	0.250923
O15	O	1.334806	-0.208155	-0.405508
O16	O	1.834806	0.291845	0.094492
O17	O	1.609533	-0.437922	-0.405465
O18	O	2.109533	0.062078	0.094535
O19	O	1.453316	-0.208129	-0.524001
O20	O	1.953316	0.291871	-0.024001
O21	O	1.334696	-0.338912	-0.249095
O22	O	1.834696	0.161088	0.250905
O23	O	1.178359	-0.338862	-0.405455
O24	O	1.678359	0.161138	0.094545
O25	O	1.334742	-0.437836	-0.680297
O26	O	1.834742	0.062164	-0.180297
O27	O	1.178331	-0.437871	-0.523909
O28	O	1.678331	0.062129	-0.023909
O29	O	1.453279	-0.338801	-0.680337
O30	O	1.953279	0.161199	-0.180337
O31	O	1.453086	-0.568630	-0.405413
O32	O	1.953086	-0.068630	0.094587
O33	O	1.334632	-0.568593	-0.523884
O34	O	1.834632	-0.068593	-0.023884
C35	C	1.143346	-0.388366	-0.464680
C36	C	1.643346	0.111634	0.035320
C37	C	1.036132	-0.388381	-0.464693
C38	C	1.536132	0.111619	0.035307
C39	C	0.839837	-0.388383	-0.464718
C40	C	1.339837	0.111617	0.035282
C41	C	0.949069	-0.388379	-0.464702
C42	C	1.449069	0.111621	0.035298
C43	C	1.393869	-0.597867	-0.464661
C44	C	1.893869	-0.097867	0.035339
C45	C	1.393918	-0.687488	-0.464676
C46	C	1.893918	-0.187488	0.035324
C47	C	1.394086	-1.015664	-0.464777
C48	C	1.894086	-0.515664	0.035223
C49	C	1.394036	-0.924356	-0.464751
C50	C	1.894036	-0.424356	0.035249
C51	C	1.394001	-0.851579	-0.464726
C52	C	1.894001	-0.351579	0.035274
C53	C	1.393953	-0.760265	-0.464702
C54	C	1.893953	-0.260265	0.035298
C55	C	1.645553	-0.388388	-0.464724
C56	C	2.145553	0.111612	0.035276
C57	C	1.752767	-0.388393	-0.464734
C58	C	2.252767	0.111607	0.035266
C59	C	1.394019	-0.388309	-0.716295
C60	C	1.894019	0.111691	-0.216295
C61	C	1.394044	-0.388280	-0.823509
C62	C	1.894044	0.111720	-0.323509
C63	C	1.394078	-0.178068	-0.464763
C64	C	1.894078	0.321932	0.035237
C65	C	1.394128	-0.088446	-0.464789
C66	C	1.894128	0.411554	0.035211
C67	C	1.394064	-0.388257	-0.910578
C68	C	1.894064	0.111743	-0.410578
C69	C	1.394092	-0.388221	-1.019811
C70	C	1.894092	0.111779	-0.519811
C71	C	1.393957	-0.388386	-0.214087
C72	C	1.893957	0.111614	0.285913
C73	C	1.394118	-0.388187	-0.106874
C74	C	1.894118	0.111813	0.393126
