data_functionalizedCrystal
_audit_creation_method	'MofGen! by Chris Wilmer'
_symmetry_space_group_name_H-M	'P1'
_symmetry_Int_Tables_number	1
_symmetry_cell_setting	triclinic
loop_
_symmetry_equiv_pos_as_xyz
  x,y,z
_cell_length_a	12.759401
_cell_length_b	25.639239
_cell_length_c	25.639234
_cell_angle_alpha	90.024584
_cell_angle_beta	90.015038
_cell_angle_gamma	90.038847
loop_
_atom_site_label
_atom_site_type_symbol
_atom_site_fract_x
_atom_site_fract_y
_atom_site_fract_z
Zn1	Zn	1.606044	-0.208182	0.295575
Zn2	Zn	2.106044	0.291818	0.795575
Zn3	Zn	1.605876	-0.295610	0.208140
Zn4	Zn	2.105876	0.204390	0.708140
Zn5	Zn	1.430357	-0.208190	0.208158
Zn6	Zn	1.930357	0.291810	0.708158
Zn7	Zn	1.430261	-0.295589	0.295548
Zn8	Zn	1.930261	0.204411	0.795548
O9	O	1.518135	-0.251893	0.251855
O10	O	2.018135	0.248107	0.751855
O11	O	1.753043	-0.219785	0.283981
O12	O	2.253043	0.280215	0.783981
O13	O	1.582562	-0.284026	0.134977
O14	O	2.082562	0.215974	0.634977
O15	O	1.453773	-0.135024	0.219773
O16	O	1.953773	0.364976	0.719773
O17	O	1.752919	-0.284018	0.219742
O18	O	2.252919	0.215982	0.719742
O19	O	1.582850	-0.135018	0.283998
O20	O	2.082850	0.364982	0.783998
O21	O	1.453609	-0.219799	0.134990
O22	O	1.953609	0.280201	0.634990
O23	O	1.283323	-0.219779	0.219746
O24	O	1.783323	0.280221	0.719746
O25	O	1.453610	-0.283982	0.368717
O26	O	1.953610	0.216018	0.868717
O27	O	1.283253	-0.283990	0.283951
O28	O	1.783253	0.216010	0.783951
O29	O	1.582757	-0.219764	0.368737
O30	O	2.082757	0.280236	0.868737
O31	O	1.582470	-0.368772	0.219716
O32	O	2.082470	0.131228	0.719716
O33	O	1.453447	-0.368757	0.283934
O34	O	1.953447	0.131243	0.783934
C35	C	1.245167	-0.251883	0.251848
C36	C	1.745167	0.248117	0.751848
C37	C	1.128391	-0.251892	0.251858
C38	C	1.628391	0.248108	0.751858
C39	C	1.517958	-0.387735	0.251831
C40	C	2.017958	0.112265	0.751831
C41	C	1.517978	-0.445849	0.251839
C42	C	2.017978	0.054151	0.751839
C43	C	1.073520	-0.285380	0.285234
C44	C	1.573520	0.214620	0.785234
C45	C	0.963795	-0.285386	0.285240
C46	C	1.463795	0.214614	0.785240
C47	C	0.963823	-0.218415	0.218488
C48	C	1.463823	0.281585	0.718488
C49	C	1.073545	-0.218406	0.218485
C50	C	1.573545	0.281594	0.718485
C51	C	1.128365	-0.318865	0.318606
C52	C	1.628365	0.181135	0.818606
C53	C	1.073494	-0.352356	0.351985
C54	C	1.573494	0.147644	0.851985
C55	C	0.963770	-0.352363	0.351990
C56	C	1.463770	0.147637	0.851990
C57	C	0.908917	-0.318878	0.318617
C58	C	1.408917	0.181122	0.818617
C59	C	1.585492	-0.806208	0.218474
C60	C	2.085492	-0.306208	0.718474
C61	C	1.585533	-0.860812	0.218481
C62	C	2.085533	-0.360812	0.718481
O63	O	1.642752	-0.889045	0.190086
O64	O	2.142752	-0.389045	0.690086
N65	N	1.518319	-0.888132	0.251890
N66	N	2.018319	-0.388132	0.751890
C67	C	1.451068	-0.860844	0.285298
C68	C	1.951068	-0.360844	0.785298
O69	O	1.393902	-0.889095	0.313716
O70	O	1.893902	-0.389095	0.813716
C71	C	1.451033	-0.806241	0.285293
C72	C	1.951033	-0.306241	0.785293
C73	C	1.518244	-0.778924	0.251878
C74	C	2.018244	-0.278924	0.751878
C75	C	1.652698	-0.778891	0.185062
C76	C	2.152698	-0.278891	0.685062
C77	C	1.652656	-0.724291	0.185054
C78	C	2.152656	-0.224291	0.685054
C79	C	1.585407	-0.697007	0.218459
C80	C	2.085407	-0.197007	0.718459
C81	C	1.518202	-0.724324	0.251871
C82	C	2.018202	-0.224324	0.751871
C83	C	1.383788	-0.778954	0.318704
C84	C	1.883788	-0.278954	0.818704
C85	C	1.383760	-0.724347	0.318696
C86	C	1.883760	-0.224347	0.818696
C87	C	1.450970	-0.697030	0.285281
C88	C	1.950970	-0.197030	0.785281
C89	C	1.450911	-0.642439	0.285268
C90	C	1.950911	-0.142439	0.785268
N91	N	1.518125	-0.615120	0.251858
N92	N	2.018125	-0.115120	0.751858
C93	C	1.585373	-0.642403	0.218454
C94	C	2.085373	-0.142403	0.718454
C95	C	1.451147	-0.975515	0.285306
C96	C	1.951147	-0.475515	0.785306
C97	C	1.451176	-1.030117	0.285309
C98	C	1.951176	-0.530117	0.785309
C99	C	1.585642	-1.030081	0.218492
C100	C	2.085642	-0.530081	0.718492
C101	C	1.585608	-0.975478	0.218487
C102	C	2.085608	-0.475478	0.718487
C103	C	1.518361	-0.948195	0.251897
C104	C	2.018361	-0.448195	0.751897
C105	C	1.585278	-0.527738	0.218440
C106	C	2.085278	-0.027738	0.718440
C107	C	1.585227	-0.473133	0.218434
C108	C	2.085227	0.026867	0.718434
C109	C	1.450765	-0.473174	0.285253
C110	C	1.950765	0.026826	0.785253
C111	C	1.450812	-0.527774	0.285257
C112	C	1.950812	-0.027774	0.785257
C113	C	1.518077	-0.555055	0.251849
C114	C	2.018077	-0.055055	0.751849
O115	O	1.393724	-0.614172	0.313649
O116	O	1.893724	-0.114172	0.813649
O117	O	1.642539	-0.614145	0.190045
O118	O	2.142539	-0.114145	0.690045
C119	C	1.792168	-0.251903	0.251863
C120	C	2.292168	0.248097	0.751863
C121	C	1.908944	-0.251907	0.251866
C122	C	2.408944	0.248093	0.751866
C123	C	1.518192	-0.251870	0.388228
C124	C	2.018192	0.248130	0.888228
C125	C	1.518216	-0.251860	0.446342
C126	C	2.018216	0.248140	0.946342
C127	C	1.518341	-0.115520	0.251891
C128	C	2.018341	0.384480	0.751891
C129	C	1.518428	-0.057406	0.251906
C130	C	2.018428	0.442594	0.751906
C131	C	1.518138	-0.251878	0.116013
C132	C	2.018138	0.248122	0.616013
C133	C	1.518318	-0.251740	0.057899
C134	C	2.018318	0.248260	0.557899
C135	C	1.585389	-0.285260	0.697521
C136	C	2.085389	0.214740	1.197521
C137	C	1.585378	-0.285271	0.642917
C138	C	2.085378	0.214729	1.142917
O139	O	1.642443	-0.313726	0.614668
O140	O	2.142443	0.186274	1.114668
N141	N	1.518239	-0.251834	0.615616
N142	N	2.018239	0.248166	1.115616
C143	C	1.451098	-0.218389	0.642923
C144	C	1.951098	0.281611	1.142923
O145	O	1.393989	-0.189950	0.614687
O146	O	1.893989	0.310050	1.114687
C147	C	1.451105	-0.218381	0.697526
C148	C	1.951105	0.281619	1.197526
C149	C	1.518256	-0.251816	0.724824
C150	C	2.018256	0.248184	1.224824
C151	C	1.652534	-0.318692	0.724820
C152	C	2.152534	0.181308	1.224820
C153	C	1.652547	-0.318680	0.779420
C154	C	2.152547	0.181320	1.279420
C155	C	1.585414	-0.285236	0.806723
C156	C	2.085414	0.214764	1.306723
C157	C	1.518268	-0.251804	0.779425
C158	C	2.018268	0.248196	1.279425
C159	C	1.383960	-0.184939	0.724831
C160	C	1.883960	0.315061	1.224831
C161	C	1.383972	-0.184934	0.779438
C162	C	1.883972	0.315066	1.279438
C163	C	1.451123	-0.218368	0.806736
C164	C	1.951123	0.281632	1.306736
C165	C	1.451148	-0.218348	0.861328
C166	C	1.951148	0.281652	1.361328
N167	N	1.518287	-0.251784	0.888628
N168	N	2.018287	0.248216	1.388628
C169	C	1.585420	-0.285228	0.861326
C170	C	2.085420	0.214772	1.361326
C171	C	1.451088	-0.218409	0.528252
C172	C	1.951088	0.281591	1.028252
C173	C	1.451086	-0.218414	0.473650
C174	C	1.951086	0.281586	0.973650
C175	C	1.585365	-0.285296	0.473648
C176	C	2.085365	0.214704	0.973648
C177	C	1.585372	-0.285288	0.528251
C178	C	2.085372	0.214712	1.028251
C179	C	1.518228	-0.251845	0.555553
C180	C	2.018228	0.248155	1.055553
C181	C	1.585441	-0.285201	0.975991
C182	C	2.085441	0.214799	1.475991
C183	C	1.585451	-0.285184	1.030596
C184	C	2.085451	0.214816	1.530596
C185	C	1.451168	-0.218304	1.030593
C186	C	1.951168	0.281696	1.530593
C187	C	1.451163	-0.218318	0.975993
C188	C	1.951163	0.281682	1.475993
C189	C	1.518303	-0.251771	0.948693
C190	C	2.018303	0.248229	1.448693
O191	O	1.394109	-0.189909	0.889611
O192	O	1.894109	0.310091	1.389611
O193	O	1.642510	-0.313667	0.889568
O194	O	2.142510	0.186333	1.389568
H195	H	1.217708	-0.318864	0.318604
H196	H	1.717708	0.181136	0.818604
H197	H	1.118162	-0.379615	0.379159
H198	H	1.618162	0.120385	0.879159
O199	O	1.718200	-0.805396	0.152700
O200	O	2.218200	-0.305396	0.652700
C201	C	1.860173	-0.866937	0.145770
C202	C	2.360173	-0.366937	0.645770
C203	C	1.786037	-0.836960	0.182475
C204	C	2.286037	-0.336960	0.682475
H205	H	1.915023	-0.892472	0.169827
H206	H	2.415023	-0.392472	0.669827
H207	H	1.908267	-0.838028	0.121925
H208	H	2.408267	-0.338028	0.621925
H209	H	1.812053	-0.892530	0.118377
H210	H	2.312053	-0.392530	0.618377
H211	H	1.834075	-0.811367	0.209899
H212	H	2.334075	-0.311367	0.709899
H213	H	1.737939	-0.865897	0.206283
H214	H	2.237939	-0.365897	0.706283
H215	H	1.329294	-0.157700	0.801665
H216	H	1.829294	0.342300	1.301665
H217	H	1.396087	-0.550017	0.312468
H218	H	1.896087	-0.050017	0.812468
H219	H	0.819572	-0.318882	0.318629
H220	H	1.319572	0.181118	0.818629
O221	O	1.650998	-0.949026	0.186013
O222	O	2.150998	-0.449026	0.686013
C223	C	1.784321	-0.954768	0.119715
C224	C	2.284321	-0.454768	0.619715
C225	C	1.710333	-0.984787	0.156475
C226	C	2.210333	-0.484787	0.656475
H227	H	1.832297	-0.983668	0.095816
H228	H	2.332297	-0.483668	0.595816
H229	H	1.839288	-0.929180	0.143713
H230	H	2.339288	-0.429180	0.643713
H231	H	1.736088	-0.929228	0.092375
H232	H	2.236088	-0.429228	0.592375
H233	H	1.758481	-1.010356	0.183822
H234	H	2.258481	-0.510356	0.683822
H235	H	1.655363	-1.010342	0.132445
H236	H	2.155363	-0.510342	0.632445
O237	O	0.910380	-0.185945	0.186083
O238	O	1.410380	0.314055	0.686083
C239	C	0.741357	-0.156266	0.156519
C240	C	1.241357	0.343734	0.656519
C241	C	0.801748	-0.193070	0.193239
C242	C	1.301748	0.306930	0.693239
H243	H	0.653518	-0.162006	0.162300
H244	H	1.153518	0.337994	0.662300
H245	H	0.762820	-0.165391	0.114332
H246	H	1.262820	0.334609	0.614332
H247	H	0.763036	-0.114122	0.165767
H248	H	1.263036	0.385878	0.665767
H249	H	0.780102	-0.235227	0.184038
H250	H	1.280102	0.264773	0.684038
H251	H	0.780280	-0.183900	0.235415
H252	H	1.280280	0.316100	0.735415
O253	O	1.385811	-0.186004	0.447078
O254	O	1.885811	0.313996	0.947078
C255	C	1.243906	-0.178974	0.385452
C256	C	1.743906	0.321026	0.885452
C257	C	1.317790	-0.215734	0.415500
C258	C	1.817790	0.284266	0.915500
H259	H	1.188878	-0.202997	0.359922
H260	H	1.688878	0.297003	0.859922
H261	H	1.292114	-0.151649	0.359863
H262	H	1.792114	0.348351	0.859863
H263	H	1.195980	-0.155059	0.414361
H264	H	1.695980	0.344941	0.914361
H265	H	1.365731	-0.239683	0.386628
H266	H	1.865731	0.260317	0.886628
H267	H	1.269521	-0.243026	0.441097
H268	H	1.769521	0.256974	0.941097
H269	H	1.707204	-0.345928	0.702596
H270	H	2.207204	0.154072	1.202596
H271	H	1.640052	-0.312514	0.550474
H272	H	2.140052	0.187486	1.050474
H273	H	1.640403	-1.052306	0.191294
H274	H	2.140403	-0.552306	0.691294
O275	O	0.910629	-0.384942	0.384431
O276	O	1.410629	0.115058	0.884431
C277	C	0.922188	-0.451346	0.450659
C278	C	1.422188	0.048654	0.950659
C279	C	0.982497	-0.414483	0.413940
C280	C	1.482497	0.085517	0.913940
H281	H	0.980267	-0.475232	0.474535
H282	H	1.480267	0.024768	0.974535
H283	H	0.870800	-0.478689	0.426631
H284	H	1.370800	0.021311	0.926631
H285	H	0.870836	-0.427376	0.478023
H286	H	1.370836	0.072624	0.978023
H287	H	1.033906	-0.438411	0.386569
H288	H	1.533906	0.061589	0.886569
H289	H	1.033818	-0.387139	0.438000
H290	H	1.533818	0.112861	0.938000
H291	H	1.118222	-0.191133	0.191311
H292	H	1.618222	0.308867	0.691311
O293	O	1.385846	-1.056568	0.317813
O294	O	1.885846	-0.556568	0.817813
C295	C	1.252427	-1.050826	0.384063
C296	C	1.752427	-0.550826	0.884063
C297	C	1.326373	-1.020808	0.347283
C298	C	1.826373	-0.520808	0.847283
H299	H	1.204308	-1.021926	0.407891
H300	H	1.704308	-0.521926	0.907891
H301	H	1.300593	-1.076334	0.411464
H302	H	1.800593	-0.576334	0.911464
H303	H	1.197581	-1.076446	0.360032
H304	H	1.697581	-0.576446	0.860032
H305	H	1.381234	-0.995159	0.371272
H306	H	1.881234	-0.495159	0.871272
H307	H	1.278142	-0.995332	0.319881
H308	H	1.778142	-0.495332	0.819881
O309	O	1.650475	-0.317772	0.447040
O310	O	2.150475	0.182228	0.947040
C311	C	1.709991	-0.347402	0.362913
C312	C	2.209991	0.152598	0.862913
C313	C	1.636191	-0.310609	0.392982
C314	C	2.136191	0.189391	0.892982
H315	H	1.698485	-0.341616	0.319202
H316	H	2.198485	0.158384	0.819202
H317	H	1.691473	-0.389570	0.373595
H318	H	2.191473	0.110430	0.873595
H319	H	1.794716	-0.338232	0.373685
H320	H	2.294716	0.161768	0.873685
H321	H	1.551442	-0.319732	0.382226
H322	H	2.051442	0.180268	0.882226
H323	H	1.654800	-0.268452	0.382297
H324	H	2.154800	0.231548	0.882297
H325	H	1.329053	-0.801186	0.345911
H326	H	1.829053	-0.301186	0.845911
O327	O	1.385958	-0.948990	0.317813
O328	O	1.885958	-0.448990	0.817813
C329	C	1.371672	-0.887295	0.388375
C330	C	1.871672	-0.387295	0.888375
C331	C	1.445614	-0.917306	0.351602
C332	C	1.945614	-0.417306	0.851602
H333	H	1.419873	-0.861663	0.415695
H334	H	1.919873	-0.361663	0.915695
H335	H	1.323661	-0.916181	0.412289
H336	H	1.823661	-0.416181	0.912289
H337	H	1.316725	-0.861795	0.364334
H338	H	1.816725	-0.361795	0.864334
H339	H	1.500624	-0.942807	0.375603
H340	H	2.000624	-0.442807	0.875603
H341	H	1.493552	-0.888392	0.327686
H342	H	1.993552	-0.388392	0.827686
H343	H	1.329276	-0.157713	0.702615
H344	H	1.829276	0.342287	1.202615
H345	H	1.639957	-0.450893	0.191222
H346	H	2.139957	0.049107	0.691222
O347	O	1.650648	-0.554153	0.185937
O348	O	2.150648	-0.054153	0.685937
C349	C	1.784047	-0.548341	0.119680
C350	C	2.284047	-0.048341	0.619680
C351	C	1.710060	-0.518361	0.156457
C352	C	2.210060	-0.018361	0.656457
H353	H	1.832116	-0.519416	0.095844
H354	H	2.332116	-0.019416	0.595844
H355	H	1.735916	-0.573929	0.092287
H356	H	2.235916	-0.073929	0.592287
H357	H	1.838936	-0.573877	0.143715
H358	H	2.338936	-0.073877	0.643715
H359	H	1.655156	-0.492796	0.132465
H360	H	2.155156	0.007204	0.632465
H361	H	1.758256	-0.492806	0.183852
H362	H	2.258256	0.007194	0.683852
H363	H	1.396008	-0.450951	0.312449
H364	H	1.896008	0.049049	0.812449
H365	H	1.640138	-0.312411	1.052820
H366	H	2.140138	0.187589	1.552820
O367	O	1.318380	-0.697789	0.351079
O368	O	1.818380	-0.197789	0.851079
C369	C	1.176428	-0.636241	0.358052
C370	C	1.676428	-0.136241	0.858052
C371	C	1.250421	-0.666274	0.321322
C372	C	1.750421	-0.166274	0.821322
H373	H	1.121449	-0.610762	0.334008
H374	H	1.621449	-0.110762	0.834008
H375	H	1.224553	-0.610602	0.385401
H376	H	1.724553	-0.110602	0.885401
H377	H	1.128454	-0.665160	0.381944
H378	H	1.628454	-0.165160	0.881944
H379	H	1.298411	-0.637393	0.297396
H380	H	1.798411	-0.137393	0.797396
H381	H	1.202236	-0.691921	0.294008
H382	H	1.702236	-0.191921	0.794008
H383	H	1.640120	-0.312438	0.953770
H384	H	2.140120	0.187562	1.453770
H385	H	1.707387	-0.702052	0.157846
H386	H	2.207387	-0.202052	0.657846
H387	H	1.707225	-0.345908	0.801641
H388	H	2.207225	0.154092	1.301641
O389	O	1.385921	-0.185771	1.057040
O390	O	1.885921	0.314229	1.557040
C391	C	1.252668	-0.119466	1.051294
C392	C	1.752668	0.380534	1.551294
C393	C	1.326532	-0.156270	1.021278
C394	C	1.826532	0.343730	1.521278
H395	H	1.204616	-0.095613	1.022394
H396	H	1.704616	0.404387	1.522394
H397	H	1.300894	-0.092089	1.076857
H398	H	1.800894	0.407911	1.576857
H399	H	1.197756	-0.143479	1.076860
H400	H	1.697756	0.356521	1.576860
H401	H	1.381458	-0.132299	0.995683
H402	H	1.881458	0.367701	1.495683
H403	H	1.278240	-0.183648	0.995748
H404	H	1.778240	0.316352	1.495748
H405	H	1.396415	-0.191170	0.550478
H406	H	1.896415	0.308830	1.050478
O407	O	1.385889	-0.185911	0.949413
O408	O	1.885889	0.314089	1.449413
C409	C	1.243991	-0.178893	0.887782
C410	C	1.743991	0.321107	1.387782
C411	C	1.317872	-0.215648	0.917838
C412	C	1.817872	0.284352	1.417838
H413	H	1.188966	-0.202921	0.862255
H414	H	1.688966	0.297079	1.362255
H415	H	1.292201	-0.151572	0.862189
H416	H	1.792201	0.348428	1.362189
H417	H	1.196061	-0.154973	0.916686
H418	H	1.696061	0.345027	1.416686
H419	H	1.365817	-0.239601	0.888972
H420	H	1.865817	0.260399	1.388972
H421	H	1.269602	-0.242935	0.943439
H422	H	1.769602	0.257065	1.443439
