data_functionalizedCrystal
_audit_creation_method	'MofGen! by Chris Wilmer'
_symmetry_space_group_name_H-M	'P1'
_symmetry_Int_Tables_number	1
_symmetry_cell_setting	triclinic
loop_
_symmetry_equiv_pos_as_xyz
  x,y,z
_cell_length_a	25.639239
_cell_length_b	25.639243
_cell_length_c	25.639234
_cell_angle_alpha	90.020836
_cell_angle_beta	89.975416
_cell_angle_gamma	89.958634
loop_
_atom_site_label
_atom_site_type_symbol
_atom_site_fract_x
_atom_site_fract_y
_atom_site_fract_z
Zn1	Zn	-0.208147	-0.799250	-0.295656
Zn2	Zn	0.291853	-0.299250	0.204344
Zn3	Zn	-0.295575	-0.799166	-0.208221
Zn4	Zn	0.204425	-0.299166	0.291779
Zn5	Zn	-0.208159	-0.711819	-0.208230
Zn6	Zn	0.291841	-0.211819	0.291770
Zn7	Zn	-0.295557	-0.711771	-0.295620
Zn8	Zn	0.204443	-0.211771	0.204380
O9	O	-0.251859	-0.755502	-0.251932
O10	O	0.248141	-0.255502	0.248068
O11	O	-0.219747	-0.872404	-0.284069
O12	O	0.280253	-0.372404	0.215931
O13	O	-0.283991	-0.787564	-0.135057
O14	O	0.216009	-0.287564	0.364943
O15	O	-0.134992	-0.723472	-0.219846
O16	O	0.365008	-0.223472	0.280154
O17	O	-0.283979	-0.872342	-0.219831
O18	O	0.216021	-0.372342	0.280169
O19	O	-0.134983	-0.787707	-0.284078
O20	O	0.365017	-0.287707	0.215922
O21	O	-0.219767	-0.723391	-0.135063
O22	O	0.280233	-0.223391	0.364937
O23	O	-0.219750	-0.638647	-0.219811
O24	O	0.280250	-0.138647	0.280189
O25	O	-0.283950	-0.723391	-0.368790
O26	O	0.216050	-0.223391	0.131210
O27	O	-0.283961	-0.638613	-0.284016
O28	O	0.216039	-0.138613	0.215984
O29	O	-0.219730	-0.787661	-0.368817
O30	O	0.280270	-0.287661	0.131183
O31	O	-0.368738	-0.787518	-0.219795
O32	O	0.131262	-0.287518	0.280205
O33	O	-0.368725	-0.723310	-0.284007
O34	O	0.131275	-0.223310	0.215993
C35	C	-0.251856	-0.619659	-0.251911
C36	C	0.248144	-0.119659	0.248089
C37	C	-0.251867	-0.561545	-0.251914
C38	C	0.248133	-0.061545	0.248086
C39	C	-0.218466	-0.201208	-0.285436
C40	C	0.281534	0.298792	0.214564
C41	C	-0.218465	-0.146604	-0.285439
C42	C	0.281535	0.353396	0.214561
O43	O	-0.190057	-0.118390	-0.313915
O44	O	0.309943	0.381610	0.186085
N45	N	-0.251857	-0.119263	-0.251946
N46	N	0.248143	0.380737	0.248054
C47	C	-0.285249	-0.146528	-0.218443
C48	C	0.214751	0.353472	0.281557
O49	O	-0.313651	-0.118258	-0.189954
O50	O	0.186349	0.381742	0.310046
C51	C	-0.285246	-0.201131	-0.218437
C52	C	0.214754	0.298869	0.281563
C53	C	-0.251855	-0.228470	-0.251937
C54	C	0.248145	0.271530	0.248063
C55	C	-0.185077	-0.228547	-0.318933
C56	C	0.314923	0.271453	0.181067
C57	C	-0.185078	-0.283148	-0.318930
C58	C	0.314922	0.216852	0.181070
C59	C	-0.218468	-0.310410	-0.285431
C60	C	0.281532	0.189590	0.214569
C61	C	-0.251857	-0.283071	-0.251934
C62	C	0.248143	0.216929	0.248066
C63	C	-0.318634	-0.228396	-0.184932
C64	C	0.181366	0.271604	0.315068
C65	C	-0.318629	-0.283003	-0.184929
C66	C	0.181371	0.216997	0.315071
C67	C	-0.285238	-0.310342	-0.218429
C68	C	0.214762	0.189658	0.281571
C69	C	-0.285248	-0.364933	-0.218433
C70	C	0.214752	0.135067	0.281567
N71	N	-0.251855	-0.392275	-0.251926
N72	N	0.248145	0.107725	0.248074
C73	C	-0.218466	-0.365013	-0.285425
C74	C	0.281534	0.134987	0.214575
C75	C	-0.285251	-0.031857	-0.218456
C76	C	0.214749	0.468143	0.281544
C77	C	-0.285256	0.022745	-0.218464
C78	C	0.214744	0.522745	0.281536
C79	C	-0.218472	0.022665	-0.285460
C80	C	0.281528	0.522665	0.214540
C81	C	-0.218469	-0.031938	-0.285454
C82	C	0.281531	0.468062	0.214546
C83	C	-0.251858	-0.059199	-0.251950
C84	C	0.248142	0.440801	0.248050
C85	C	-0.218471	-0.479678	-0.285418
C86	C	0.281529	0.020322	0.214582
C87	C	-0.218477	-0.534283	-0.285414
C88	C	0.281523	-0.034283	0.214586
C89	C	-0.285259	-0.534199	-0.218416
C90	C	0.214741	-0.034199	0.281584
C91	C	-0.285256	-0.479598	-0.218422
C92	C	0.214744	0.020402	0.281578
C93	C	-0.251857	-0.452339	-0.251924
C94	C	0.248143	0.047661	0.248076
O95	O	-0.313640	-0.393182	-0.189970
O96	O	0.186360	0.106818	0.310030
O97	O	-0.190063	-0.393290	-0.313905
O98	O	0.309937	0.106710	0.186095
C99	C	-0.387702	-0.755414	-0.251908
C100	C	0.112298	-0.255414	0.248092
C101	C	-0.445816	-0.755424	-0.251915
C102	C	0.054184	-0.255424	0.248085
C103	C	-0.806173	-0.789022	-0.218554
C104	C	-0.306173	-0.289022	0.281446
C105	C	-0.860777	-0.789042	-0.218561
C106	C	-0.360777	-0.289042	0.281439
O107	O	-0.889009	-0.817518	-0.190169
O108	O	-0.389009	-0.317518	0.309831
N109	N	-0.888098	-0.755594	-0.251966
N110	N	-0.388098	-0.255594	0.248034
C111	C	-0.860812	-0.722126	-0.285371
C112	C	-0.360812	-0.222126	0.214629
O113	O	-0.889065	-0.693677	-0.313786
O114	O	-0.389065	-0.193677	0.186214
C115	C	-0.806209	-0.722109	-0.285366
C116	C	-0.306209	-0.222109	0.214634
C117	C	-0.778891	-0.755556	-0.251955
C118	C	-0.278891	-0.255556	0.248045
C119	C	-0.778855	-0.822467	-0.185145
C120	C	-0.278855	-0.322467	0.314855
C121	C	-0.724254	-0.822446	-0.185137
C122	C	-0.224254	-0.322446	0.314863
C123	C	-0.696972	-0.788980	-0.218538
C124	C	-0.196972	-0.288980	0.281462
C125	C	-0.724290	-0.755535	-0.251947
C126	C	-0.224290	-0.255535	0.248053
C127	C	-0.778924	-0.688644	-0.318773
C128	C	-0.278924	-0.188644	0.181227
C129	C	-0.724317	-0.688630	-0.318766
C130	C	-0.224317	-0.188630	0.181234
C131	C	-0.696999	-0.722077	-0.285354
C132	C	-0.196999	-0.222077	0.214646
C133	C	-0.642407	-0.722048	-0.285341
C134	C	-0.142407	-0.222048	0.214659
N135	N	-0.615086	-0.755497	-0.251935
N136	N	-0.115086	-0.255497	0.248065
C137	C	-0.642369	-0.788963	-0.218534
C138	C	-0.142369	-0.288963	0.281466
C139	C	-0.975483	-0.722165	-0.285379
C140	C	-0.475483	-0.222165	0.214621
C141	C	-1.030085	-0.722179	-0.285382
C142	C	-0.530085	-0.222179	0.214618
C143	C	-1.030047	-0.789097	-0.218572
C144	C	-0.530047	-0.289097	0.281428
C145	C	-0.975443	-0.789080	-0.218567
C146	C	-0.475443	-0.289080	0.281433
C147	C	-0.948162	-0.755614	-0.251973
C148	C	-0.448162	-0.255614	0.248027
C149	C	-0.527704	-0.788916	-0.218520
C150	C	-0.027704	-0.288916	0.281480
C151	C	-0.473098	-0.788890	-0.218514
C152	C	0.026902	-0.288890	0.281486
C153	C	-0.473142	-0.721975	-0.285326
C154	C	0.026858	-0.221975	0.214674
C155	C	-0.527742	-0.721998	-0.285330
C156	C	-0.027742	-0.221998	0.214670
C157	C	-0.555022	-0.755473	-0.251926
C158	C	-0.055022	-0.255473	0.248074
O159	O	-0.614141	-0.693588	-0.313719
O160	O	-0.114141	-0.193588	0.186281
O161	O	-0.614109	-0.817412	-0.190128
O162	O	-0.114109	-0.317412	0.309872
C163	C	-0.115486	-0.755604	-0.251967
C164	C	0.384514	-0.255604	0.248033
C165	C	-0.057372	-0.755648	-0.251982
C166	C	0.442628	-0.255648	0.248018
C167	C	-0.251836	-0.755530	-0.388305
C168	C	0.248164	-0.255530	0.111695
C169	C	-0.251827	-0.755542	-0.446419
C170	C	0.248173	-0.255542	0.053581
C171	C	-0.251863	0.108125	-0.251953
C172	C	0.248137	0.608125	0.248047
C173	C	-0.251864	0.050011	-0.251961
C174	C	0.248136	0.550011	0.248039
C175	C	-0.285225	-0.788971	-0.697601
C176	C	0.214775	-0.288971	-0.197601
C177	C	-0.285236	-0.788966	-0.642997
C178	C	0.214764	-0.288966	-0.142997
O179	O	-0.313690	-0.817364	-0.614751
O180	O	0.186310	-0.317364	-0.114751
N181	N	-0.251801	-0.755553	-0.615693
N182	N	0.248199	-0.255553	-0.115693
C183	C	-0.218357	-0.722141	-0.642996
C184	C	0.281643	-0.222141	-0.142996
O185	O	-0.189920	-0.693720	-0.614757
O186	O	0.310080	-0.193720	-0.114757
C187	C	-0.218349	-0.722144	-0.697599
C188	C	0.281651	-0.222144	-0.197599
C189	C	-0.251782	-0.755562	-0.724900
C190	C	0.248218	-0.255562	-0.224900
C191	C	-0.318656	-0.822386	-0.724903
C192	C	0.181344	-0.322386	-0.224903
C193	C	-0.318644	-0.822392	-0.779503
C194	C	0.181356	-0.322392	-0.279503
C195	C	-0.285201	-0.788983	-0.806802
C196	C	0.214799	-0.288983	-0.306802
C197	C	-0.251771	-0.755568	-0.779501
C198	C	0.248229	-0.255568	-0.279501
C199	C	-0.184908	-0.688729	-0.724901
C200	C	0.315092	-0.188729	-0.224901
C201	C	-0.184904	-0.688735	-0.779508
C202	C	0.315096	-0.188735	-0.279508
C203	C	-0.218337	-0.722153	-0.806810
C204	C	0.281663	-0.222153	-0.306810
C205	C	-0.218316	-0.722165	-0.861401
C206	C	0.281684	-0.222165	-0.361401
N207	N	-0.251751	-0.755578	-0.888705
N208	N	0.248249	-0.255578	-0.388705
C209	C	-0.285194	-0.788986	-0.861406
C210	C	0.214806	-0.288986	-0.361406
C211	C	-0.218377	-0.722136	-0.528325
C212	C	0.281623	-0.222136	-0.028325
C213	C	-0.218382	-0.722135	-0.473723
C214	C	0.281618	-0.222135	0.026277
C215	C	-0.285261	-0.788959	-0.473728
C216	C	0.214739	-0.288959	0.026272
C217	C	-0.285253	-0.788962	-0.528331
C218	C	0.214747	-0.288962	-0.028331
C219	C	-0.251812	-0.755548	-0.555629
C220	C	0.248188	-0.255548	-0.055629
C221	C	-0.285166	-0.788997	-0.976071
C222	C	0.214834	-0.288997	-0.476071
C223	C	-0.285150	-0.789002	-1.030676
C224	C	0.214850	-0.289002	-0.530676
C225	C	-0.218272	-0.722176	-1.030667
C226	C	0.281728	-0.222176	-0.530667
C227	C	-0.218287	-0.722173	-0.976066
C228	C	0.281713	-0.222173	-0.476066
C229	C	-0.251738	-0.755585	-0.948769
C230	C	0.248262	-0.255585	-0.448769
O231	O	-0.189878	-0.693780	-0.889681
O232	O	0.310122	-0.193780	-0.389681
O233	O	-0.313631	-0.817397	-0.889651
O234	O	0.186369	-0.317397	-0.389651
C235	C	-0.251845	-0.755503	-0.116089
C236	C	0.248155	-0.255503	0.383911
C237	C	-0.251707	-0.755593	-0.057975
C238	C	0.248293	-0.255593	0.442025
H239	H	-0.312451	-0.457338	-0.191150
H240	H	0.187549	0.042662	0.308850
H241	H	-0.702015	-0.849683	-0.157932
H242	H	-0.202015	-0.349683	0.342068
Cl243	Cl	-0.327233	-0.066123	-0.176335
Cl244	Cl	0.172767	0.433877	0.323665
Cl245	Cl	-0.561990	-0.830998	-0.176524
Cl246	Cl	-0.061990	-0.330998	0.323476
H247	H	-0.312375	-0.816217	-1.052903
H248	H	0.187625	-0.316217	-0.552903
Cl249	Cl	-0.176498	-0.568649	-0.327532
Cl250	Cl	0.323502	-0.068649	0.172468
Cl251	Cl	-1.064421	-0.680123	-0.327381
Cl252	Cl	-0.564421	-0.180123	0.172619
Cl253	Cl	-0.813143	-0.864545	-0.143149
Cl254	Cl	-0.313143	-0.364545	0.356851
Cl255	Cl	-0.176232	-0.680179	-1.064996
Cl256	Cl	0.323768	-0.180179	-0.564996
Cl257	Cl	-0.941106	-0.831130	-0.176563
Cl258	Cl	-0.441106	-0.331130	0.323437
H259	H	-0.157887	-0.305402	-0.346208
H260	H	0.342113	0.194598	0.153792
Cl261	Cl	-1.064355	-0.831168	-0.176581
Cl262	Cl	-0.564355	-0.331168	0.323419
Cl263	Cl	-0.438834	-0.679908	-0.327316
Cl264	Cl	0.061166	-0.179908	0.172684
Cl265	Cl	-0.176490	-0.066301	-0.327568
Cl266	Cl	0.323510	0.433699	0.172432
H267	H	-0.191274	-0.457490	-0.312697
H268	H	0.308726	0.042510	0.187303
Cl269	Cl	-0.327286	-0.830974	-0.562647
Cl270	Cl	0.172714	-0.330974	-0.062647
H271	H	-0.312402	-0.816208	-0.953853
H272	H	0.187598	-0.316208	-0.453853
Cl273	Cl	-0.941192	-0.680086	-0.327376
Cl274	Cl	-0.441192	-0.180086	0.172624
H275	H	-0.801157	-0.661405	-0.345978
H276	H	-0.301157	-0.161405	0.154022
H277	H	-0.702107	-0.661379	-0.345971
H278	H	-0.202107	-0.161379	0.154029
H279	H	-0.157684	-0.661516	-0.702682
H280	H	0.342316	-0.161516	-0.202682
Cl281	Cl	-0.360683	-0.864399	-0.813817
Cl282	Cl	0.139317	-0.364399	-0.313817
Cl283	Cl	-0.142856	-0.646729	-0.813822
Cl284	Cl	0.357144	-0.146729	-0.313822
Cl285	Cl	-0.143096	-0.194285	-0.361052
Cl286	Cl	0.356904	0.305715	0.138948
Cl287	Cl	-0.438759	-0.830942	-0.176508
Cl288	Cl	0.061241	-0.330942	0.323492
H289	H	-0.191283	0.044871	-0.312735
H290	H	0.308717	0.544871	0.187265
Cl291	Cl	-0.327240	0.057107	-0.176353
Cl292	Cl	0.172760	0.557107	0.323647
Cl293	Cl	-0.360604	-0.194041	-0.142805
Cl294	Cl	0.139396	0.305959	0.357195
H295	H	-0.549986	-0.694764	-0.312538
H296	H	-0.049986	-0.194764	0.187462
H297	H	-0.345818	-0.305196	-0.157645
H298	H	0.154182	0.194804	0.342355
H299	H	-0.312445	-0.556405	-0.191143
H300	H	0.187555	-0.056405	0.308857
Cl301	Cl	-0.360703	-0.864392	-0.690594
Cl302	Cl	0.139297	-0.364392	-0.190594
Cl303	Cl	-0.176250	-0.680167	-0.941743
Cl304	Cl	0.323750	-0.180167	-0.441743
Cl305	Cl	-0.327306	-0.830957	-0.439399
Cl306	Cl	0.172694	-0.330957	0.060601
H307	H	-0.191151	-0.694929	-0.451499
H308	H	0.308849	-0.194929	0.048501
H309	H	-0.191139	-0.694928	-0.550548
H310	H	0.308861	-0.194928	-0.050548
