data_functionalizedCrystal
_audit_creation_method	'MofGen! by Chris Wilmer'
_symmetry_space_group_name_H-M	'P1'
_symmetry_Int_Tables_number	1
_symmetry_cell_setting	triclinic
loop_
_symmetry_equiv_pos_as_xyz
  x,y,z
_cell_length_a	18.101398
_cell_length_b	19.121063
_cell_length_c	18.101389
_cell_angle_alpha	92.419391
_cell_angle_beta	89.975673
_cell_angle_gamma	92.464489
loop_
_atom_site_label
_atom_site_type_symbol
_atom_site_fract_x
_atom_site_fract_y
_atom_site_fract_z
Zn1	Zn	1.119554	-0.279777	-0.431404
Zn2	Zn	1.114175	-0.397213	-0.312837
Zn3	Zn	0.995713	-0.279770	-0.307565
Zn4	Zn	0.990390	-0.397183	-0.436624
O5	O	1.054958	-0.338486	-0.372107
O6	O	1.222473	-0.295371	-0.415698
O7	O	1.098437	-0.381644	-0.208505
O8	O	1.016620	-0.181486	-0.319601
O9	O	1.218521	-0.381651	-0.328587
O10	O	1.107605	-0.181491	-0.410586
O11	O	1.011404	-0.295359	-0.204632
O12	O	0.891375	-0.295330	-0.324663
O13	O	1.007547	-0.381599	-0.539564
O14	O	0.887464	-0.381592	-0.419482
O15	O	1.102443	-0.295342	-0.535729
O16	O	1.093276	-0.495494	-0.333648
O17	O	1.002331	-0.495472	-0.424594
C18	C	0.862549	-0.338457	-0.372067
C19	C	0.780234	-0.338462	-0.372069
C20	C	0.481141	-0.338506	-0.372133
C21	C	0.514915	-0.283961	-0.312742
C22	C	0.600526	-0.284107	-0.312506
C23	C	0.629525	-0.338484	-0.372101
C24	C	0.595084	-0.412466	-0.354099
C25	C	0.509452	-0.412163	-0.353690
C26	C	0.513600	-0.319712	-0.449688
C27	C	0.599325	-0.318065	-0.449186
C28	C	0.713385	-0.338476	-0.372084
C29	C	0.397281	-0.338519	-0.372148
C30	C	1.046662	-0.520967	-0.380276
C31	C	1.043181	-0.599034	-0.383795
C32	C	1.088932	-0.635698	-0.338137
C33	C	1.085662	-0.709049	-0.341451
C34	C	1.036637	-0.745735	-0.390420
C35	C	0.990884	-0.709066	-0.436083
C36	C	0.994158	-0.635716	-0.432772
C37	C	1.024385	-0.967206	-0.402788
C38	C	1.021113	-1.040562	-0.406094
C39	C	1.115892	-1.040539	-0.311462
C40	C	1.119159	-0.967188	-0.308152
C41	C	1.073408	-0.930525	-0.353818
C42	C	1.033292	-0.820713	-0.393807
C43	C	1.076758	-0.855549	-0.350434
C44	C	1.248119	-0.338515	-0.372148
C45	C	1.330432	-0.338528	-0.372165
C46	C	1.055002	-0.338468	-0.565269
C47	C	1.055020	-0.338461	-0.647582
C48	C	1.063306	-0.155292	-0.363923
C49	C	1.066864	-0.077226	-0.360436
C50	C	1.055069	-0.338329	-0.946668
C51	C	0.995174	-0.392427	-0.917747
C52	C	0.995318	-0.392678	-0.832140
C53	C	1.055044	-0.338394	-0.798288
C54	C	1.132167	-0.358491	-0.830296
C55	C	1.131831	-0.358846	-0.915957
C56	C	1.038526	-0.264013	-0.911754
C57	C	1.036771	-0.264443	-0.826122
C58	C	1.055035	-0.338430	-0.714430
C59	C	1.055084	-0.338295	-1.030526
C60	C	1.054959	-0.338453	-0.179695
C61	C	1.055093	-0.338263	-0.097373
H62	H	0.624031	-0.229245	-0.323408
F63	F	0.491260	-0.212031	-0.326789
H64	H	0.937700	-0.379979	-0.937774
H65	H	0.486843	-0.454179	-0.395241
F66	F	0.981117	-0.859763	-0.445922
H67	H	0.613574	-0.454195	-0.396148
F68	F	0.626535	-0.300342	-0.237302
F69	F	1.134359	-0.748066	-0.292857
F70	F	1.150670	-0.429854	-0.945268
H71	H	0.615770	-0.428682	-0.298133
H72	H	1.077478	-0.221996	-0.802832
F73	F	1.191874	-0.309549	-0.940855
F74	F	1.095600	-0.211330	-0.935889
F75	F	0.488519	-0.250426	-0.471918
F76	F	1.151424	-0.428744	-0.805426
F77	F	1.191876	-0.308609	-0.801465
F78	F	1.164583	-1.079564	-0.262868
F79	F	1.141107	-0.596660	-0.286012
H80	H	0.983441	-0.245705	-0.932518
F81	F	1.171346	-0.928149	-0.256041
H82	H	0.956904	-0.605865	-0.469953
F83	F	0.968924	-1.079605	-0.458208
F84	F	0.629122	-0.246909	-0.467015
H85	H	0.492814	-0.296243	-0.255539
F86	F	0.975692	-0.928197	-0.451389
F87	F	0.938712	-0.748113	-0.488204
H88	H	0.488724	-0.428103	-0.297092
F89	F	1.128935	-0.816504	-0.298323
F90	F	0.962605	-0.244635	-0.798666
H91	H	0.938024	-0.380101	-0.810543
F92	F	1.008910	-0.463980	-0.949139
F93	F	1.009275	-0.464671	-0.808598
H94	H	0.619076	-0.354899	-0.495539
H95	H	0.491559	-0.359441	-0.493899
