data_functionalizedCrystal
_audit_creation_method	'MofGen! by Chris Wilmer'
_symmetry_space_group_name_H-M	'P1'
_symmetry_Int_Tables_number	1
_symmetry_cell_setting	triclinic
loop_
_symmetry_equiv_pos_as_xyz
  x,y,z
_cell_length_a	16.109295
_cell_length_b	9.730217
_cell_length_c	16.109304
_cell_angle_alpha	90.000439
_cell_angle_beta	96.539088
_cell_angle_gamma	90.001520
loop_
_atom_site_label
_atom_site_type_symbol
_atom_site_fract_x
_atom_site_fract_y
_atom_site_fract_z
O1	O	-1.103132	0.114188	0.106843
O2	O	-0.861070	0.114210	0.120148
O3	O	-0.988750	0.114199	-0.007536
O4	O	-0.975453	0.114199	0.234526
O5	O	-0.988746	-0.114381	-0.007537
O6	O	-0.861066	-0.114370	0.120146
O7	O	-1.103128	-0.114392	0.106842
Zn8	Zn	-0.982097	-0.150673	0.113494
Zn9	Zn	-0.982102	0.150491	0.113496
O10	O	-0.975449	-0.114381	0.234525
C11	C	-0.830093	-0.000077	0.119609
C12	C	-0.737797	-0.000068	0.117996
C13	C	-0.515525	-0.000083	0.190008
C14	C	-0.428804	-0.000091	0.188485
C15	C	-0.448677	-0.000085	0.036996
C16	C	-0.535396	-0.000087	0.038520
C17	C	-0.568818	-0.000079	0.115028
C18	C	-0.395378	-0.000086	0.111982
C19	C	-0.301352	-0.000095	0.110331
C20	C	-0.662850	-0.000072	0.116679
N21	N	-0.982099	-0.356210	0.113493
C22	C	-1.095205	-0.356210	0.000462
C23	C	-1.151764	-0.428150	-0.056051
C24	C	-1.151773	-0.572030	-0.056052
C25	C	-1.095215	-0.643973	0.000465
C26	C	-1.038656	-0.572033	0.056978
C27	C	-1.038655	-0.428150	0.056974
C28	C	-0.925547	-0.572033	0.170004
C29	C	-0.925541	-0.428153	0.170010
C30	C	-0.868989	-0.643976	0.226521
C31	C	-0.812433	-0.572036	0.283039
C32	C	-0.812427	-0.428147	0.283038
C33	C	-0.868982	-0.356213	0.226523
C34	C	-0.134105	-0.000101	0.107386
C35	C	-0.226398	-0.000096	0.109014
C36	C	-0.988209	-0.000088	-0.038511
C37	C	-0.986592	-0.000078	-0.130806
N38	N	-0.982106	0.356027	0.113491
C39	C	-0.982861	0.124516	-0.343143
C40	C	-0.981335	0.124515	-0.429863
C41	C	-0.981335	-0.124696	-0.429861
C42	C	-0.982855	-0.124693	-0.343142
C43	C	-0.983622	-0.000083	-0.299785
C44	C	-0.980576	-0.000087	-0.473225
C45	C	-0.978921	-0.000089	-0.567251
C46	C	-0.985275	-0.000081	-0.205753
C47	C	-0.975990	-0.000092	0.265501
C48	C	-0.977606	-0.000092	0.357796
H49	H	-0.385417	-0.000098	0.249542
H50	H	-0.421455	-0.000100	-0.025294
H51	H	-0.578790	-0.000087	-0.022542
O52	O	-0.983445	0.245598	-0.301048
C53	C	-0.911933	0.458630	-0.265139
C54	C	-0.911163	0.321533	-0.312825
H55	H	-0.853508	0.520075	-0.274658
H56	H	-0.913096	0.437332	-0.195691
H57	H	-0.969806	0.520022	-0.289814
H58	H	-0.853299	0.260072	-0.288222
H59	H	-0.910044	0.342928	-0.382267
H60	H	-0.542734	-0.000087	0.252305
O61	O	-0.980450	0.245515	-0.471998
C62	C	-0.906772	0.390116	-0.560503
C63	C	-0.907662	0.253044	-0.512808
H64	H	-0.847937	0.396235	-0.593525
H65	H	-0.907527	0.479227	-0.514647
H66	H	-0.964235	0.396321	-0.608699
H67	H	-0.850208	0.246704	-0.464613
H68	H	-0.906950	0.163998	-0.558715
O69	O	-0.980636	-0.245613	-0.472114
C70	C	-0.978259	-0.356066	-0.605704
C71	C	-0.979062	-0.219027	-0.557961
H72	H	-0.976969	-0.334619	-0.675117
H73	H	-1.036722	-0.417524	-0.596339
H74	H	-0.920425	-0.417517	-0.580983
H75	H	-1.036858	-0.157466	-0.582651
H76	H	-0.920560	-0.157673	-0.567325
H77	H	-0.983470	-0.226163	-0.307839
H78	H	-1.095211	-0.239056	0.000463
O79	O	-1.206708	-0.358052	-0.110832
C80	C	-1.256883	-0.136397	-0.160877
C81	C	-1.194606	-0.215604	-0.098803
H82	H	-1.247109	-0.021214	-0.151185
H83	H	-1.323463	-0.164628	-0.149961
H84	H	-1.246142	-0.164725	-0.227488
H85	H	-1.205270	-0.187319	-0.032168
H86	H	-1.128049	-0.187366	-0.109792
H87	H	-0.868986	-0.239058	0.226520
O88	O	-1.206787	-0.641707	-0.110983
C89	C	-1.318933	-0.626540	-0.223140
C90	C	-1.256692	-0.547461	-0.160960
H91	H	-1.359285	-0.550377	-0.263575
H92	H	-1.360511	-0.693863	-0.187274
H93	H	-1.283035	-0.693939	-0.264645
H94	H	-1.292522	-0.479986	-0.119440
H95	H	-1.215114	-0.480224	-0.196878
H96	H	-1.095218	-0.761128	0.000454
H97	H	-0.766384	-0.630620	0.329047
O98	O	-0.868858	-0.783739	0.226608
C99	C	-0.806833	-0.990212	0.288664
C100	C	-0.806880	-0.831931	0.288638
H101	H	-0.756741	-1.029223	0.338822
H102	H	-0.793161	-1.029358	0.224917
H103	H	-0.870616	-1.029235	0.302310
H104	H	-0.743115	-0.792790	0.275027
H105	H	-0.820599	-0.792879	0.352390
H106	H	-0.766367	-0.369581	0.329054
