data_functionalizedCrystal
_audit_creation_method	'MofGen! by Chris Wilmer'
_symmetry_space_group_name_H-M	'P1'
_symmetry_Int_Tables_number	1
_symmetry_cell_setting	triclinic
loop_
_symmetry_equiv_pos_as_xyz
  x,y,z
_cell_length_a	19.805407
_cell_length_b	15.297327
_cell_length_c	19.805399
_cell_angle_alpha	99.649417
_cell_angle_beta	89.980427
_cell_angle_gamma	99.707092
loop_
_atom_site_label
_atom_site_type_symbol
_atom_site_fract_x
_atom_site_fract_y
_atom_site_fract_z
Zn1	Zn	0.988098	-0.359189	-0.429336
Zn2	Zn	1.488098	0.140811	0.070664
Zn3	Zn	0.968423	-0.510058	-0.335728
Zn4	Zn	1.468423	-0.010058	0.164272
Zn5	Zn	0.874909	-0.359214	-0.316164
Zn6	Zn	1.374909	0.140786	0.183836
Zn7	Zn	0.855293	-0.510010	-0.448869
Zn8	Zn	1.355293	-0.010010	0.051131
O9	O	0.921681	-0.434618	-0.382524
O10	O	1.421681	0.065382	0.117476
O11	O	1.080203	-0.379212	-0.416932
O12	O	1.580203	0.120788	0.083068
O13	O	0.955994	-0.490079	-0.238420
O14	O	1.455994	0.009921	0.261580
O15	O	0.906367	-0.232963	-0.314814
O16	O	1.406367	0.267037	0.185186
O17	O	1.065749	-0.490055	-0.348159
O18	O	1.565749	0.009945	0.151841
O19	O	0.989526	-0.232945	-0.397962
O20	O	1.489526	0.267055	0.102038
O21	O	0.887290	-0.379254	-0.224047
O22	O	1.387290	0.120746	0.275953
O23	O	0.777592	-0.379208	-0.333754
O24	O	1.277592	0.120792	0.166246
O25	O	0.872934	-0.489973	-0.540990
O26	O	1.372934	0.010027	-0.040990
O27	O	0.763180	-0.489997	-0.431252
O28	O	1.263180	0.010003	0.068748
O29	O	0.970505	-0.379166	-0.526640
O30	O	1.470505	0.120834	-0.026640
O31	O	0.936973	-0.636300	-0.367099
O32	O	1.436973	-0.136300	0.132901
O33	O	0.853857	-0.636265	-0.450222
O34	O	1.353857	-0.136265	0.049778
C35	C	0.745827	-0.434601	-0.382500
C36	C	1.245827	0.065399	0.117500
C37	C	0.670593	-0.434615	-0.382509
C38	C	1.170593	0.065385	0.117491
C39	C	0.627751	-0.492390	-0.433217
C40	C	1.127751	0.007610	0.066783
C41	C	0.557063	-0.492392	-0.433227
C42	C	1.057063	0.007608	0.066773
C43	C	0.529217	-0.434622	-0.382525
C44	C	1.029217	0.065378	0.117475
C45	C	0.572065	-0.376841	-0.331814
C46	C	1.072065	0.123159	0.168186
C47	C	0.642752	-0.376835	-0.331808
C48	C	1.142752	0.123165	0.168192
C49	C	0.286989	-0.376861	-0.331839
C50	C	0.786989	0.123139	0.168161
C51	C	0.216295	-0.376873	-0.331848
C52	C	0.716295	0.123127	0.168152
C53	C	0.201299	-0.492417	-0.433258
C54	C	0.701299	0.007583	0.066742
C55	C	0.271987	-0.492412	-0.433252
C56	C	0.771987	0.007588	0.066748
C57	C	0.314829	-0.434627	-0.382543
C58	C	0.814829	0.065373	0.117457
C59	C	0.391477	-0.434625	-0.382534
C60	C	0.891477	0.065375	0.117466
C61	C	0.452569	-0.434628	-0.382531
C62	C	0.952569	0.065372	0.117469
C63	C	0.891170	-0.669017	-0.412918
C64	C	1.391170	-0.169017	0.087082
C65	C	0.878179	-0.769294	-0.425943
C66	C	1.378179	-0.269294	0.074057
C67	C	1.014807	-1.051906	-0.289663
C68	C	1.514807	-0.551906	0.210337
C69	C	1.027012	-0.957691	-0.277422
C70	C	1.527012	-0.457691	0.222578
C71	C	0.989805	-0.910587	-0.314551
C72	C	1.489805	-0.410587	0.185449
C73	C	0.940391	-0.957708	-0.363923
C74	C	1.440391	-0.457708	0.136077
C75	C	0.928180	-1.051932	-0.376162
C76	C	1.428180	-0.551932	0.123838
C77	C	0.903178	-0.910613	-0.401050
C78	C	1.403178	-0.410613	0.098950
C79	C	0.853764	-0.957734	-0.450423
C80	C	1.353764	-0.457734	0.049577
C81	C	0.841556	-1.051949	-0.462659
C82	C	1.341556	-0.551949	0.037341
C83	C	0.878763	-1.099053	-0.425530
C84	C	1.378763	-0.599053	0.074470
C85	C	0.915389	-0.816389	-0.388812
C86	C	1.415389	-0.316389	0.111188
C87	C	0.828762	-0.816415	-0.475311
C88	C	1.328762	-0.316415	0.024689
C89	C	0.816557	-0.910630	-0.487552
C90	C	1.316557	-0.410630	0.012448
C91	C	1.098221	-0.434636	-0.382549
C92	C	1.598221	0.065364	0.117451
C93	C	1.173452	-0.434644	-0.382559
C94	C	1.673452	0.065356	0.117441
C95	C	0.921726	-0.434561	-0.559060
C96	C	1.421726	0.065439	-0.059060
C97	C	0.921746	-0.434537	-0.634289
C98	C	1.421746	0.065463	-0.134289
C99	C	0.952329	-0.199304	-0.352027
C100	C	1.452329	0.300696	0.147973
C101	C	0.965390	-0.099027	-0.339031
C102	C	1.465390	0.400973	0.160969
C103	C	0.972552	-0.376837	-0.662161
C104	C	1.472552	0.123163	-0.162161
C105	C	0.972562	-0.376810	-0.732846
C106	C	1.472562	0.123190	-0.232846
C107	C	0.921768	-0.434490	-0.775658
C108	C	1.421768	0.065510	-0.275658
C109	C	0.870957	-0.492193	-0.747781
C110	C	1.370957	0.007807	-0.247781
C111	C	0.870944	-0.492214	-0.677096
C112	C	1.370944	0.007786	-0.177096
C113	C	0.871006	-0.492109	-1.032843
C114	C	1.371006	0.007891	-0.532843
C115	C	0.871024	-0.492085	-1.103533
C116	C	1.371024	0.007915	-0.603533
C117	C	0.972624	-0.376705	-1.088593
C118	C	1.472624	0.123295	-0.588593
C119	C	0.972612	-0.376726	-1.017909
C120	C	1.472612	0.123274	-0.517909
C121	C	0.921798	-0.434426	-0.990037
C122	C	1.421798	0.065574	-0.490037
C123	C	0.921787	-0.434452	-0.913392
C124	C	1.421787	0.065548	-0.413392
C125	C	0.921782	-0.434469	-0.852303
C126	C	1.421782	0.065531	-0.352303
C127	C	0.921683	-0.434610	-0.206667
C128	C	1.421683	0.065390	0.293333
C129	C	0.921828	-0.434380	-0.131406
C130	C	1.421828	0.065620	0.368594
H131	H	0.522183	-0.539439	-0.474518
H132	H	1.022183	-0.039439	0.025482
C133	C	0.815071	-0.555706	-0.646439
C134	C	1.315071	-0.055706	-0.146439
H135	H	0.784828	-0.590067	-0.682061
H136	H	1.284828	-0.090067	-0.182061
H137	H	0.790063	-0.521219	-0.614381
H138	H	1.290063	-0.021219	-0.114381
H139	H	0.835856	-0.595023	-0.623973
H140	H	1.335856	-0.095023	-0.123973
H141	H	1.013936	-0.329827	-0.755537
H142	H	1.513936	0.170173	-0.255537
H143	H	0.829658	-0.539057	-1.138389
H144	H	1.329658	-0.039057	-0.638389
C145	C	1.028483	-0.313276	-0.970819
C146	C	1.528483	0.186724	-0.470819
H147	H	1.058740	-0.278901	-0.997542
H148	H	1.558740	0.221099	-0.497542
H149	H	1.053474	-0.347794	-0.947721
H150	H	1.553474	0.152206	-0.447721
H151	H	1.007699	-0.273971	-0.938148
H152	H	1.507699	0.226029	-0.438148
H153	H	0.321862	-0.329816	-0.290545
H154	H	0.821862	0.170184	0.209455
H155	H	1.045092	-1.090267	-0.259433
H156	H	1.545092	-0.590267	0.240567
H157	H	1.013997	-0.329721	-1.111294
H158	H	1.513997	0.170279	-0.611294
C159	C	1.028424	-0.313384	-0.615074
C160	C	1.528424	0.186616	-0.115074
H161	H	1.058679	-0.279009	-0.641799
H162	H	1.558679	0.220991	-0.141799
H163	H	1.053417	-0.347900	-0.591975
H164	H	1.553417	0.152100	-0.091975
H165	H	1.007640	-0.274078	-0.582403
H166	H	1.507640	0.225922	-0.082403
H167	H	0.650417	-0.539436	-0.474502
H168	H	1.150417	-0.039436	0.025498
H169	H	0.955622	-0.778031	-0.348612
H170	H	1.455622	-0.278031	0.151388
H171	H	0.294654	-0.539456	-0.474536
H172	H	0.794654	-0.039456	0.025464
H173	H	0.166408	-0.539464	-0.474549
H174	H	0.666408	-0.039464	0.025451
C175	C	1.003236	-0.806953	-0.301092
C176	C	1.503236	-0.306953	0.198908
H177	H	1.037999	-0.785636	-0.266375
H178	H	1.537999	-0.285636	0.233625
H179	H	0.962321	-0.785689	-0.286591
H180	H	1.462321	-0.285689	0.213409
H181	H	1.017692	-0.785597	-0.342010
H182	H	1.517692	-0.285597	0.157990
C183	C	0.541436	-0.313299	-0.276041
C184	C	1.041436	0.186701	0.223959
H185	H	0.493199	-0.321583	-0.283302
H186	H	0.993199	0.178417	0.216698
H187	H	0.560909	-0.252697	-0.278159
H188	H	1.060909	0.247303	0.221841
H189	H	0.551295	-0.326431	-0.232248
H190	H	1.051295	0.173569	0.267752
C191	C	0.815102	-0.555557	-1.002191
C192	C	1.315102	-0.055557	-0.502191
H193	H	0.784855	-0.589903	-1.037813
H194	H	1.284855	-0.089903	-0.537813
H195	H	0.790108	-0.521031	-0.970146
H196	H	1.290108	-0.021031	-0.470146
H197	H	0.835852	-0.594889	-0.979709
H198	H	1.335852	-0.094889	-0.479709
H199	H	0.829597	-0.539153	-0.782644
H200	H	1.329597	-0.039153	-0.282644
C201	C	0.689879	-0.313282	-0.276030
C202	C	1.189879	0.186718	0.223970
H203	H	0.663171	-0.278881	-0.245831
H204	H	1.163171	0.221119	0.254169
H205	H	0.722573	-0.274018	-0.296879
H206	H	1.222573	0.225982	0.203121
H207	H	0.712958	-0.347740	-0.250958
H208	H	1.212958	0.152260	0.249042
H209	H	1.067245	-0.919329	-0.237222
H210	H	1.567245	-0.419329	0.262778
C211	C	0.185667	-0.313316	-0.276078
C212	C	0.685667	0.186684	0.223922
H213	H	0.221306	-0.278894	-0.245881
H214	H	0.721306	0.221106	0.254119
H215	H	0.153595	-0.347774	-0.251013
H216	H	0.653595	0.152226	0.248987
H217	H	0.163212	-0.274059	-0.296940
H218	H	0.663212	0.225941	0.203060
C219	C	0.787831	-0.764615	-0.516158
C220	C	1.287831	-0.264615	-0.016158
H221	H	0.756646	-0.806171	-0.547308
H222	H	1.256646	-0.306171	-0.047308
H223	H	0.818475	-0.727807	-0.540892
H224	H	1.318475	-0.227807	-0.040892
H225	H	0.763109	-0.727914	-0.485467
H226	H	1.263109	-0.227914	0.014533
C227	C	0.865336	-1.202690	-0.438991
C228	C	1.365336	-0.702690	0.061009
H229	H	0.894571	-1.223990	-0.409805
H230	H	1.394571	-0.723990	0.090195
H231	H	0.874257	-1.223958	-0.485442
H232	H	1.374257	-0.723958	0.014558
H233	H	0.818893	-1.224060	-0.430015
H234	H	1.318893	-0.724060	0.069985
H235	H	0.801311	-1.090312	-0.502854
H236	H	1.301311	-0.590312	-0.002854
C237	C	0.762199	-0.962469	-0.541854
C238	C	1.262199	-0.462469	-0.041854
H239	H	0.760256	-1.025327	-0.543819
H240	H	1.260256	-0.525327	-0.043819
H241	H	0.774083	-0.946982	-0.585329
H242	H	1.274083	-0.446982	-0.085329
H243	H	0.718718	-0.947088	-0.529904
H244	H	1.218718	-0.447088	-0.029904
