data_functionalizedCrystal
_audit_creation_method	'MofGen! by Chris Wilmer'
_symmetry_space_group_name_H-M	'P1'
_symmetry_Int_Tables_number	1
_symmetry_cell_setting	triclinic
loop_
_symmetry_equiv_pos_as_xyz
  x,y,z
_cell_length_a	8.597340
_cell_length_b	14.519731
_cell_length_c	7.088929
_cell_angle_alpha	83.763267
_cell_angle_beta	103.954719
_cell_angle_gamma	84.516174
loop_
_atom_site_label
_atom_site_type_symbol
_atom_site_fract_x
_atom_site_fract_y
_atom_site_fract_z
O1	O	2.101745	0.126654	0.187229
O2	O	2.601745	0.626654	0.687229
O3	O	1.637107	0.141709	0.110684
O4	O	2.137107	0.641709	0.610684
O5	O	1.881729	-0.000078	0.151001
O6	O	2.381729	0.499922	0.651001
O7	O	1.857122	0.268441	0.146912
O8	O	2.357122	0.768441	0.646912
O9	O	1.914420	-0.019069	0.474364
O10	O	2.414420	0.480931	0.974364
O11	O	1.669798	0.122718	0.434047
O12	O	2.169798	0.622718	0.934047
O13	O	2.134436	0.107663	0.510592
O14	O	2.634436	0.607663	1.010592
Cu15	Cu	1.905102	0.113456	0.501845
Cu16	Cu	2.405102	0.613456	1.001845
Cu17	Cu	1.866441	0.135916	0.119431
Cu18	Cu	2.366441	0.635916	0.619431
O19	O	1.889814	0.249450	0.470275
O20	O	2.389814	0.749450	0.970275
C21	C	1.593988	0.131655	0.262570
C22	C	2.093988	0.631655	0.762570
C23	C	1.416801	0.129979	0.233381
C24	C	1.916801	0.629979	0.733381
C25	C	1.896922	-0.043931	0.312493
C26	C	2.396922	0.456069	0.812493
C27	C	1.893468	-0.146305	0.311925
C28	C	2.393468	0.353695	0.811925
C29	C	1.890660	-0.229444	0.311458
C30	C	2.390660	0.270556	0.811458
C31	C	1.887151	-0.333746	0.310865
C32	C	2.387151	0.166254	0.810865
C33	C	1.884366	-0.416879	0.310394
C34	C	2.384366	0.083121	0.810394
C35	C	1.880858	-0.521188	0.309805
C36	C	2.380858	-0.021188	0.809805
C37	C	2.177555	0.117718	0.358702
C38	C	2.677555	0.617718	0.858702
C39	C	2.354740	0.119395	0.387878
C40	C	2.854740	0.619395	0.887878
C41	C	1.874620	0.293304	0.308779
C42	C	2.374620	0.793304	0.808779
C43	C	1.878073	0.395679	0.309334
C44	C	2.378073	0.895679	0.809334
N45	N	1.932306	0.097659	0.770817
N46	N	2.432306	0.597659	1.270817
N47	N	1.839250	0.151706	-0.149539
N48	N	2.339250	0.651706	0.350461
H49	H	1.334372	0.137758	0.078760
H50	H	1.834372	0.637758	0.578760
H51	H	1.437161	0.111609	0.542489
H52	H	1.937161	0.611609	1.042489
F53	F	1.713191	0.224913	0.722970
F54	F	2.213191	0.724913	1.222970
F55	F	2.058387	0.024456	0.898321
F56	F	2.558387	0.524456	1.398321
