data_functionalizedCrystal
_audit_creation_method	'MofGen! by Chris Wilmer'
_symmetry_space_group_name_H-M	'P1'
_symmetry_Int_Tables_number	1
_symmetry_cell_setting	triclinic
loop_
_symmetry_equiv_pos_as_xyz
  x,y,z
_cell_length_a	11.792241
_cell_length_b	10.268362
_cell_length_c	11.792241
_cell_angle_alpha	89.994572
_cell_angle_beta	84.193416
_cell_angle_gamma	89.999626
loop_
_atom_site_label
_atom_site_type_symbol
_atom_site_fract_x
_atom_site_fract_y
_atom_site_fract_z
O1	O	-1.506909	0.108174	-0.155569
O2	O	-1.256909	0.358174	0.094431
O3	O	-1.006909	0.608174	0.344431
O4	O	-0.756909	0.858174	0.594431
O5	O	-1.176568	0.108205	-0.171602
O6	O	-0.926568	0.358205	0.078398
O7	O	-0.676568	0.608205	0.328398
O8	O	-0.426568	0.858205	0.578398
O9	O	-1.349755	0.108180	0.001585
O10	O	-1.099755	0.358180	0.251585
O11	O	-0.849755	0.608180	0.501585
O12	O	-0.599755	0.858180	0.751585
O13	O	-1.333722	0.108199	-0.328756
O14	O	-1.083722	0.358199	-0.078756
O15	O	-0.833722	0.608199	0.171244
O16	O	-0.583722	0.858199	0.421244
O17	O	-1.349740	-0.108421	0.001593
O18	O	-1.099740	0.141579	0.251593
O19	O	-0.849740	0.391579	0.501593
O20	O	-0.599740	0.641579	0.751593
O21	O	-1.176553	-0.108396	-0.171594
O22	O	-0.926553	0.141604	0.078406
O23	O	-0.676553	0.391604	0.328406
O24	O	-0.426553	0.641604	0.578406
O25	O	-1.506894	-0.108426	-0.155561
O26	O	-1.256894	0.141574	0.094439
O27	O	-1.006894	0.391574	0.344439
O28	O	-0.756894	0.641574	0.594439
Cu29	Cu	-1.341722	-0.128188	-0.163577
Cu30	Cu	-1.091722	0.121812	0.086423
Cu31	Cu	-0.841722	0.371812	0.336423
Cu32	Cu	-0.591722	0.621812	0.586423
Cu33	Cu	-1.341740	0.127967	-0.163586
Cu34	Cu	-1.091740	0.377967	0.086414
Cu35	Cu	-0.841740	0.627967	0.336414
Cu36	Cu	-0.591740	0.877967	0.586414
O37	O	-1.333707	-0.108401	-0.328748
O38	O	-1.083707	0.141599	-0.078748
O39	O	-0.833707	0.391599	0.171252
O40	O	-0.583707	0.641599	0.421252
C41	C	-1.134269	-0.000092	-0.170591
C42	C	-0.884269	0.249908	0.079409
C43	C	-0.634269	0.499908	0.329409
C44	C	-0.384269	0.749908	0.579409
C45	C	-1.008255	-0.000080	-0.167576
C46	C	-0.758255	0.249920	0.082424
C47	C	-0.508255	0.499920	0.332424
C48	C	-0.258255	0.749920	0.582424
N49	N	-1.341717	-0.308354	-0.163571
N50	N	-1.091717	-0.058354	0.086429
N51	N	-0.841717	0.191646	0.336429
N52	N	-0.591717	0.441646	0.586429
C53	C	-1.348740	-0.000120	0.043880
C54	C	-1.098740	0.249880	0.293880
C55	C	-0.848740	0.499880	0.543880
C56	C	-0.598740	0.749880	0.793880
C57	C	-1.345726	-0.000119	0.169894
C58	C	-1.095726	0.249881	0.419894
C59	C	-0.845726	0.499881	0.669894
C60	C	-0.595726	0.749881	0.919894
C61	C	-1.549192	-0.000127	-0.156572
C62	C	-1.299192	0.249873	0.093428
C63	C	-1.049192	0.499873	0.343428
C64	C	-0.799192	0.749873	0.593428
C65	C	-1.675206	-0.000130	-0.159587
C66	C	-1.425206	0.249870	0.090413
C67	C	-1.175206	0.499870	0.340413
C68	C	-0.925206	0.749870	0.590413
C69	C	-0.777543	-0.000118	-0.162034
C70	C	-0.527543	0.249882	0.087966
C71	C	-0.277543	0.499882	0.337966
C72	C	-0.027543	0.749882	0.587966
C73	C	-0.905928	-0.000097	-0.165113
C74	C	-0.655928	0.249903	0.084887
C75	C	-0.405928	0.499903	0.334887
C76	C	-0.155928	0.749903	0.584887
C77	C	-1.341734	-0.574025	-0.163583
C78	C	-1.091734	-0.324025	0.086417
C79	C	-0.841734	-0.074025	0.336417
C80	C	-0.591734	0.175975	0.586417
C81	C	-1.341721	-0.426187	-0.163580
C82	C	-1.091721	-0.176187	0.086420
C83	C	-0.841721	0.073813	0.336420
C84	C	-0.591721	0.323813	0.586420
N85	N	-1.341753	0.308133	-0.163584
N86	N	-1.091753	0.558133	0.086416
N87	N	-0.841753	0.808133	0.336416
N88	N	-0.591753	1.058133	0.586416
C89	C	-1.334721	-0.000099	-0.371043
C90	C	-1.084721	0.249901	-0.121043
C91	C	-0.834721	0.499901	0.128957
C92	C	-0.584721	0.749901	0.378957
C93	C	-1.337736	-0.000092	-0.497057
C94	C	-1.087736	0.249908	-0.247057
C95	C	-0.837736	0.499908	0.002943
C96	C	-0.587736	0.749908	0.252943
C97	C	-1.340183	-0.000096	0.400606
C98	C	-1.090183	0.249904	0.650606
C99	C	-0.840183	0.499904	0.900606
C100	C	-0.590183	0.749904	1.150606
C101	C	-1.343262	-0.000108	0.272221
C102	C	-1.093262	0.249892	0.522221
C103	C	-0.843262	0.499892	0.772221
C104	C	-0.593262	0.749892	1.022221
