data_functionalizedCrystal
_audit_creation_method	'MofGen! by Chris Wilmer'
_symmetry_space_group_name_H-M	'P1'
_symmetry_Int_Tables_number	1
_symmetry_cell_setting	triclinic
loop_
_symmetry_equiv_pos_as_xyz
  x,y,z
_cell_length_a	17.038272
_cell_length_b	8.559649
_cell_length_c	7.088929
_cell_angle_alpha	95.344185
_cell_angle_beta	83.339391
_cell_angle_gamma	80.445110
loop_
_atom_site_label
_atom_site_type_symbol
_atom_site_fract_x
_atom_site_fract_y
_atom_site_fract_z
O1	O	-1.007820	-0.359357	-0.158741
O2	O	-0.780514	-0.353897	-0.158797
O3	O	-0.914193	-0.126746	-0.158762
O4	O	-0.874141	-0.586507	-0.158776
O5	O	-0.932062	-0.096317	0.159218
O6	O	-0.798383	-0.323467	0.159183
O7	O	-1.025689	-0.328927	0.159239
Cu8	Cu	-0.913668	-0.323418	0.188245
Cu9	Cu	-0.892535	-0.359405	-0.187803
O10	O	-0.892010	-0.556077	0.159204
C11	C	-0.926163	-0.052414	0.000225
C12	C	-0.935197	0.123737	0.000217
C13	C	-0.760617	-0.333712	0.000186
C14	C	-0.674712	-0.318885	0.000164
C15	C	-1.045585	-0.349112	0.000252
C16	C	-1.131490	-0.363941	0.000261
C17	C	-0.616440	-0.455037	0.000162
C18	C	-0.535726	-0.441091	0.000188
C19	C	-0.513286	-0.290993	0.000204
C20	C	-0.571565	-0.154830	0.000212
C21	C	-0.652278	-0.168776	0.000199
C22	C	-0.270482	-0.241723	0.000257
C23	C	-0.189762	-0.227788	0.000264
C24	C	-0.153929	-0.514051	0.000244
C25	C	-0.234645	-0.527985	0.000219
C26	C	-0.292917	-0.391821	0.000237
C27	C	-0.430783	-0.276735	0.000225
C28	C	-0.375419	-0.406079	0.000230
C29	C	-0.880040	-0.630410	0.000213
C30	C	-0.871005	-0.806562	0.000209
N31	N	-0.928537	-0.298107	0.452737
N32	N	-0.877673	-0.384705	-0.452295
H33	H	-0.634703	-0.577264	0.000147
F34	F	-0.997450	-0.180818	0.559480
F35	F	-0.473711	-0.586006	0.000177
F36	F	-0.808771	-0.502004	0.440971
H37	H	-0.997071	0.198835	0.000248
H38	H	-0.252907	-0.650213	0.000184
F39	F	-0.091907	-0.658955	0.000228
H40	H	-0.317919	-0.130848	0.000273
F41	F	-0.165885	-0.068022	0.000314
F42	F	-0.399304	-0.565819	0.000221
H43	H	-0.699723	-0.057906	0.000200
F44	F	-0.406892	-0.116993	0.000236
F45	F	-0.547680	0.004919	0.000242
H46	H	-0.809136	0.118350	0.000199
