data_functionalizedCrystal
_audit_creation_method	'MofGen! by Chris Wilmer'
_symmetry_space_group_name_H-M	'P1'
_symmetry_Int_Tables_number	1
_symmetry_cell_setting	triclinic
loop_
_symmetry_equiv_pos_as_xyz
  x,y,z
_cell_length_a	14.908571
_cell_length_b	13.897447
_cell_length_c	14.908308
_cell_angle_alpha	86.731647
_cell_angle_beta	89.824947
_cell_angle_gamma	86.715799
loop_
_atom_site_label
_atom_site_type_symbol
_atom_site_fract_x
_atom_site_fract_y
_atom_site_fract_z
Zn1	Zn	1.345302	-0.503381	0.587592
Zn2	Zn	1.353885	-0.655952	0.437235
Zn3	Zn	1.203617	-0.484854	0.428589
Zn4	Zn	1.194912	-0.654806	0.578887
O5	O	1.274429	-0.574748	0.508076
O6	O	1.472267	-0.531853	0.574908
O7	O	1.341186	-0.625981	0.310263
O8	O	1.222463	-0.352334	0.449706
O9	O	1.478572	-0.643946	0.464442
O10	O	1.326559	-0.365946	0.566525
O11	O	1.230785	-0.500276	0.303911
O12	O	1.076636	-0.499165	0.441265
O13	O	1.207627	-0.641993	0.705866
O14	O	1.070241	-0.624028	0.551688
O15	O	1.318118	-0.530742	0.712262
O16	O	1.332745	-0.790777	0.456001
O17	O	1.215949	-0.789935	0.560071
C18	C	1.040813	-0.559462	0.494594
C19	C	0.940870	-0.552947	0.488848
C20	C	0.746464	-0.670908	0.592879
C21	C	0.652559	-0.664790	0.587484
C22	C	0.659151	-0.534589	0.472666
C23	C	0.753057	-0.540707	0.478062
C24	C	0.796710	-0.608870	0.538170
C25	C	0.890618	-0.614992	0.543560
C26	C	0.897208	-0.484787	0.428748
C27	C	0.803303	-0.478669	0.423352
C28	C	1.274357	-0.825356	0.508051
C29	C	1.274407	-0.932575	0.508075
C30	C	1.274449	-1.019649	0.508098
C31	C	1.274511	-1.128886	0.508124
C32	C	1.508957	-0.590094	0.521610
C33	C	1.608899	-0.596634	0.527378
C34	C	1.260944	-0.588306	0.742601
C35	C	1.255198	-0.594084	0.842542
C36	C	1.274525	-0.323164	0.508122
C37	C	1.274565	-0.215953	0.508142
C38	C	1.287913	-0.561176	0.274466
C39	C	1.293834	-0.555138	0.174535
C40	C	1.359451	-0.489072	1.037003
C41	C	1.354054	-0.494498	1.130906
C42	C	1.239004	-0.610355	1.124254
C43	C	1.244401	-0.604929	1.030350
C44	C	1.304627	-0.544287	0.986728
C45	C	1.310028	-0.538867	0.892823
C46	C	1.194973	-0.654718	0.886173
C47	C	1.189577	-0.660144	0.980076
H48	H	0.926159	-0.670495	0.592502
H49	H	0.782008	-0.726413	0.641817
H50	H	0.767747	-0.423171	0.374416
H51	H	1.140541	-0.709515	1.015606
H52	H	0.611652	-0.715306	0.632036
H53	H	0.938129	-0.434274	0.384197
H54	H	1.359068	-0.489491	0.857308
H55	H	0.623592	-0.479089	0.423735
H56	H	1.408494	-0.439700	1.001485
H57	H	1.150334	-0.699681	0.845229
H58	H	1.189971	-0.659726	1.159787
H59	H	1.398695	-0.449534	1.171836
