data_functionalizedCrystal
_audit_creation_method	'MofGen! by Chris Wilmer'
_symmetry_space_group_name_H-M	'P1'
_symmetry_Int_Tables_number	1
_symmetry_cell_setting	triclinic
loop_
_symmetry_equiv_pos_as_xyz
  x,y,z
_cell_length_a	16.992698
_cell_length_b	9.065218
_cell_length_c	8.140239
_cell_angle_alpha	90.001671
_cell_angle_beta	89.997881
_cell_angle_gamma	92.158586
loop_
_atom_site_label
_atom_site_type_symbol
_atom_site_fract_x
_atom_site_fract_y
_atom_site_fract_z
O1	O	-1.042612	0.313060	0.136636
O2	O	-0.814302	0.309630	0.136633
O3	O	-0.933176	0.097140	0.136630
O4	O	-0.923738	0.525550	0.136639
O5	O	-0.933172	0.097138	-0.136597
O6	O	-0.814298	0.309628	-0.136594
O7	O	-1.042608	0.313058	-0.136591
Zn8	Zn	-0.928452	0.311343	-0.179973
Zn9	Zn	-0.928457	0.311345	0.180015
O10	O	-0.923734	0.525548	-0.136588
C11	C	-0.785056	0.305211	0.000019
C12	C	-0.697918	0.292029	0.000018
C13	C	-0.208330	0.203457	0.000013
C14	C	-0.290204	0.215854	0.000004
C15	C	-0.322739	0.355459	0.000016
C16	C	-0.273394	0.482674	0.000018
C17	C	-0.191521	0.470275	0.000015
C18	C	-0.566701	0.406845	0.000017
C19	C	-0.648580	0.419234	0.000025
C20	C	-0.665384	0.152414	0.000008
C21	C	-0.583509	0.140027	0.000015
C22	C	-0.534172	0.267242	0.000008
N23	N	-0.406427	0.368134	0.000012
N24	N	-0.450485	0.254566	-0.000000
C25	C	-0.071854	0.317478	0.000022
C26	C	-0.158991	0.330663	0.000020
C27	C	-0.932267	0.042068	0.000019
C28	C	-0.929555	-0.122026	0.000025
C29	C	-0.924643	0.580619	0.000027
C30	C	-0.927355	0.744714	0.000031
N31	N	-0.928455	0.311341	-0.425656
N32	N	-0.928461	0.311336	0.425698
H33	H	-0.181847	0.089777	0.000014
H34	H	-0.705563	0.048843	0.000011
O35	O	-0.338018	0.092137	0.000069
C36	C	-0.291746	-0.033738	0.000026
H37	H	-0.230922	-0.003465	0.051763
H38	H	-0.285616	-0.076072	-0.131057
C39	C	-0.406347	-0.192128	0.043618
C40	C	-0.331645	-0.154948	0.107175
H41	H	-0.430959	-0.266899	0.109706
H42	H	-0.437522	-0.107324	0.043641
H43	H	-0.401228	-0.227397	-0.065617
H44	H	-0.336765	-0.119663	0.216400
H45	H	-0.300471	-0.239749	0.107173
H46	H	-0.675066	0.532922	0.000010
O47	O	-0.143704	0.593992	0.000102
C48	C	-0.189974	0.719870	0.000074
H49	H	-0.250801	0.689598	0.051803
H50	H	-0.196097	0.762214	-0.131003
C51	C	-0.075373	0.878249	0.043697
C52	C	-0.150079	0.841070	0.107245
H53	H	-0.050762	0.953015	0.109798
H54	H	-0.044199	0.793444	0.043710
H55	H	-0.080485	0.913527	-0.065533
H56	H	-0.144965	0.805776	0.216464
H57	H	-0.181251	0.925873	0.107253
H58	H	-0.557026	0.026347	0.000005
H59	H	-0.526540	0.510433	0.000020
H60	H	-0.299890	0.596343	0.000017
