data_functionalizedCrystal
_audit_creation_method	'MofGen! by Chris Wilmer'
_symmetry_space_group_name_H-M	'P1'
_symmetry_Int_Tables_number	1
_symmetry_cell_setting	triclinic
loop_
_symmetry_equiv_pos_as_xyz
  x,y,z
_cell_length_a	9.065218
_cell_length_b	10.654550
_cell_length_c	7.540329
_cell_angle_alpha	89.997570
_cell_angle_beta	89.996962
_cell_angle_gamma	84.750394
loop_
_atom_site_label
_atom_site_type_symbol
_atom_site_fract_x
_atom_site_fract_y
_atom_site_fract_z
O1	O	1.959392	0.184158	-0.147482
O2	O	1.530024	0.199263	-0.147484
O3	O	1.754580	0.009010	-0.147477
O4	O	1.734836	0.374410	-0.147490
O5	O	1.754567	0.009008	0.147489
O6	O	1.530011	0.199261	0.147481
O7	O	1.959378	0.184155	0.147483
Cu8	Cu	1.744693	0.191708	0.174415
Cu9	Cu	1.744709	0.191711	-0.174416
O10	O	1.734823	0.374408	0.147475
C11	C	1.475039	0.197810	-0.000002
C12	C	1.311220	0.193469	-0.000003
C13	C	1.753124	-0.037795	0.000004
C14	C	1.748786	-0.177255	-0.000002
C15	C	1.881001	-0.256217	0.000004
C16	C	1.876917	-0.387254	-0.000009
C17	C	1.608391	-0.360354	-0.000026
C18	C	1.612477	-0.229320	-0.000026
C19	C	2.017310	-0.204153	0.000027
C20	C	2.149536	-0.283116	0.000035
C21	C	2.145452	-0.414153	0.000023
C22	C	2.009142	-0.466226	0.000003
C23	C	2.014364	0.185608	-0.000003
C24	C	2.178183	0.189949	-0.000014
C25	C	1.736279	0.421213	-0.000009
C26	C	1.740616	0.560673	-0.000014
N27	N	1.744693	0.191705	0.419763
N28	N	1.744721	0.191703	-0.419764
H29	H	2.260515	-0.240708	0.000008
O30	O	2.273787	-0.490989	0.000254
C31	C	2.279464	-0.567577	0.153035
H32	H	2.162278	-0.575534	0.203958
H33	H	2.333417	-0.665411	0.118672
H34	H	2.347285	-0.523722	0.260015
H35	H	1.504816	-0.165026	-0.000029
O36	O	1.475863	-0.410729	-0.000112
C37	C	1.360038	-0.312934	-0.000072
H38	H	1.402311	-0.223469	-0.055916
H39	H	1.264963	-0.341389	-0.085710
H40	H	1.319182	-0.294866	0.141436
O41	O	2.021545	-0.076892	-0.000042
C42	C	2.170201	-0.047866	0.000028
H43	H	2.243884	-0.130989	-0.055812
H44	H	2.181100	0.038987	-0.085597
H45	H	2.205824	-0.028123	0.141545
H46	H	2.005827	-0.572927	-0.000026
