data_functionalizedCrystal
_audit_creation_method	'MofGen! by Chris Wilmer'
_symmetry_space_group_name_H-M	'P1'
_symmetry_Int_Tables_number	1
_symmetry_cell_setting	triclinic
loop_
_symmetry_equiv_pos_as_xyz
  x,y,z
_cell_length_a	15.538191
_cell_length_b	26.210047
_cell_length_c	15.625429
_cell_angle_alpha	108.072640
_cell_angle_beta	66.736792
_cell_angle_gamma	90.007287
loop_
_atom_site_label
_atom_site_type_symbol
_atom_site_fract_x
_atom_site_fract_y
_atom_site_fract_z
O1	O	1.249530	-0.011707	-0.292676
O2	O	0.975410	0.007540	-0.188631
O3	O	1.119789	-0.026806	-0.374278
O4	O	1.105151	0.022639	-0.107029
O5	O	1.119761	-0.111658	-0.374248
O6	O	0.975382	-0.077313	-0.188601
O7	O	1.249502	-0.096559	-0.292645
Cu8	Cu	1.112439	-0.094684	-0.240620
Cu9	Cu	1.112472	0.005664	-0.240657
O10	O	1.105123	-0.062214	-0.106998
C11	C	0.940315	-0.032873	-0.177730
C12	C	0.835784	-0.026875	-0.145305
C13	C	0.547564	-0.086466	-0.467441
C14	C	0.449339	-0.080824	-0.436950
C15	C	0.427125	-0.049094	-0.265444
C16	C	0.525350	-0.054735	-0.295921
C17	C	0.585563	-0.073421	-0.396921
C18	C	0.563348	-0.041690	-0.225401
C19	C	0.661565	-0.047328	-0.255876
C20	C	0.721783	-0.066012	-0.356871
C21	C	0.683779	-0.079059	-0.427395
C22	C	0.503134	-0.023001	-0.124402
C23	C	0.541132	-0.009956	-0.053881
C24	C	0.639351	-0.015598	-0.084356
C25	C	0.699569	-0.034281	-0.185351
C26	C	0.677355	-0.002550	-0.013831
C27	C	0.775571	-0.008189	-0.044306
C28	C	0.797786	-0.039920	-0.215825
N29	N	1.112423	-0.165263	-0.240598
C30	C	1.176397	-0.532994	-0.322845
C31	C	1.176417	-0.746656	-0.322864
O32	O	1.230774	-0.787212	-0.392778
N33	N	1.112477	-0.758172	-0.240678
C34	C	1.048523	-0.716269	-0.158484
O35	O	0.994132	-0.730968	-0.088584
C36	C	1.048498	-0.502609	-0.158468
C37	C	1.112449	-0.491095	-0.240656
C38	C	1.240342	-0.521479	-0.405026
C39	C	1.240339	-0.468066	-0.405019
C40	C	1.176392	-0.426168	-0.322829
C41	C	1.112447	-0.437682	-0.240648
C42	C	0.984541	-0.460707	-0.076278
C43	C	0.984538	-0.407290	-0.076282
C44	C	1.048489	-0.395777	-0.158470
C45	C	1.048497	-0.342371	-0.158451
N46	N	1.112438	-0.330855	-0.240637
C47	C	1.176385	-0.372753	-0.322826
C48	C	1.048542	-0.828445	-0.158497
C49	C	1.048549	-0.881860	-0.158500
C50	C	1.176442	-0.912243	-0.322881
C51	C	1.176439	-0.858826	-0.322875
C52	C	1.112482	-0.816929	-0.240683
C53	C	1.176376	-0.260581	-0.322804
C54	C	1.176370	-0.207162	-0.322787
C55	C	1.048474	-0.176784	-0.158408
C56	C	1.048482	-0.230198	-0.158422
C57	C	1.112437	-0.272097	-0.240628
O58	O	0.994162	-0.301789	-0.088578
O59	O	1.230754	-0.358045	-0.392725
C60	C	1.176399	-0.586406	-0.322853
C61	C	1.112454	-0.597921	-0.240671
C62	C	1.048507	-0.556023	-0.158482
C63	C	1.112461	-0.651336	-0.240674
C64	C	1.176409	-0.693234	-0.322864
C65	C	1.240349	-0.681718	-0.405050
C66	C	1.240347	-0.628305	-0.405042
C67	C	0.984566	-0.567539	-0.076296
C68	C	0.984575	-0.620953	-0.076310
C69	C	1.048522	-0.662852	-0.158499
C70	C	1.284597	-0.056146	-0.303546
C71	C	1.389127	-0.062140	-0.335972
C72	C	1.119110	-0.075404	-0.407631
C73	C	1.117120	-0.093796	-0.507054
N74	N	1.112496	0.076242	-0.240689
C75	C	1.110622	0.076965	-0.834121
C76	C	1.108747	0.059668	-0.927542
C77	C	1.108717	-0.032832	-0.927495
C78	C	1.110596	-0.015543	-0.834074
C79	C	1.111547	0.039356	-0.787394
C80	C	1.111522	-0.053152	-0.787347
C81	C	1.113396	-0.035864	-0.693932
C82	C	1.114345	0.019033	-0.647243
C83	C	1.113422	0.056644	-0.693978
C84	C	1.110564	-0.108050	-0.834025
C85	C	1.111490	-0.145659	-0.787298
C86	C	1.113371	-0.128372	-0.693885
C87	C	1.114319	-0.073475	-0.647197
C88	C	1.114294	-0.165983	-0.647150
C89	C	1.116168	-0.148695	-0.553735
C90	C	1.116194	-0.056187	-0.553781
C91	C	1.105801	-0.013614	-0.073646
C92	C	1.107792	0.004781	0.025778
H93	H	0.378087	-0.033878	-0.183210
H94	H	0.732808	-0.094278	-0.509639
O95	O	1.302336	-0.722456	-0.484937
C96	C	1.251828	-0.760595	-0.524031
H97	H	1.177576	-0.740293	-0.501295
H98	H	1.246922	-0.795560	-0.494208
C99	C	1.394785	-0.807381	-0.665657
C100	C	1.303590	-0.782446	-0.637740
H101	H	1.426715	-0.820862	-0.735798
H102	H	1.428814	-0.781688	-0.639317
H103	H	1.390683	-0.836516	-0.640797
H104	H	1.307693	-0.753308	-0.662589
H105	H	1.269562	-0.808135	-0.664086
O106	O	0.407710	-0.017570	-0.094677
C107	C	0.368790	-0.050936	-0.037454
H108	H	0.418898	-0.059570	-0.004932
H109	H	0.358375	-0.090740	-0.086244
C110	C	0.211113	-0.011351	0.007084
C111	C	0.272654	-0.021951	0.047035
H112	H	0.151810	0.006527	0.059199
H113	H	0.237334	0.011127	-0.031471
H114	H	0.202445	-0.044523	-0.033573
H115	H	0.281331	0.011221	0.087681
H116	H	0.246432	-0.044423	0.085599
O117	O	1.238519	-0.952913	-0.402835
C118	C	1.223070	-0.955445	-0.487026
H119	H	1.186782	-0.914451	-0.475061
H120	H	1.176158	-0.987829	-0.499569
C121	C	1.363156	-1.020189	-0.592911
C122	C	1.318593	-0.969838	-0.578218
H123	H	1.422077	-1.029070	-0.649163
H124	H	1.373562	-1.018485	-0.536189
H125	H	1.324052	-1.047170	-0.603357
H126	H	1.357691	-0.942857	-0.567759
H127	H	1.308195	-0.971538	-0.634940
O128	O	0.817208	-0.071580	-0.386599
C129	C	0.856093	-0.126116	-0.443786
H130	H	0.805970	-0.146781	-0.476290
H131	H	0.866489	-0.147859	-0.394972
C132	C	1.013794	-0.103017	-0.488361
C133	C	0.952236	-0.128398	-0.528291
H134	H	1.073102	-0.104426	-0.540485
H135	H	0.987597	-0.066276	-0.449830
H136	H	1.022447	-0.121140	-0.447684
H137	H	0.943575	-0.110271	-0.568957
H138	H	0.978434	-0.165136	-0.566831
H139	H	0.596593	-0.101685	-0.549685
H140	H	1.292411	-0.458697	-0.471944
H141	H	0.932500	-0.630321	-0.009376
H142	H	1.107938	-0.077531	-0.965513
H143	H	0.806510	0.002429	0.013119
O144	O	1.238529	-0.196077	-0.402728
C145	C	1.294982	-0.244514	-0.475260
H146	H	1.256376	-0.280448	-0.463668
H147	H	1.364963	-0.249005	-0.468849
C148	C	1.361681	-0.198681	-0.593046
C149	C	1.314261	-0.242815	-0.578814
H150	H	1.373578	-0.197633	-0.656924
H151	H	1.323650	-0.166047	-0.544179
H152	H	1.419993	-0.202429	-0.587697
H153	H	1.255945	-0.239064	-0.584150
H154	H	1.352282	-0.275449	-0.627684
O155	O	0.482735	0.008132	0.044254
C156	C	0.499945	-0.027550	0.088985
H157	H	0.574408	-0.050808	0.042476
H158	H	0.446193	-0.057347	0.094258
C159	C	0.399309	0.033707	0.250673
C160	C	0.490769	0.005145	0.193554
H161	H	0.393645	0.053874	0.315177
H162	H	0.387711	0.057746	0.220537
H163	H	0.354526	0.008871	0.255056
H164	H	0.535549	0.029982	0.189161
H165	H	0.502374	-0.018889	0.223691
H166	H	1.115861	0.033109	-0.571174
H167	H	0.418407	-0.091448	-0.494384
O168	O	1.111507	0.130318	-0.788890
C169	C	1.110321	0.159807	-0.850175
H170	H	1.079193	0.136421	-0.903281
H171	H	1.185608	0.165870	-0.894273
C172	C	1.087603	0.244142	-0.720591
C173	C	1.049364	0.215422	-0.785810
H174	H	1.050006	0.278449	-0.680888
H175	H	1.088406	0.224275	-0.679302
H176	H	1.150342	0.249189	-0.757350
H177	H	0.986632	0.210370	-0.749050
H178	H	1.048549	0.235289	-0.827091
O179	O	0.618994	0.015634	0.084315
C180	C	0.673594	0.025925	0.140025
H181	H	0.746873	0.033314	0.093155
H182	H	0.680600	-0.010503	0.163174
C183	C	0.534784	0.067320	0.290492
C184	C	0.624784	0.076400	0.232927
H185	H	0.504674	0.098453	0.347801
H186	H	0.497998	0.060385	0.252960
H187	H	0.540635	0.036962	0.309773
H188	H	0.618931	0.106753	0.213638
H189	H	0.661568	0.083341	0.270459
H190	H	1.107984	0.090299	-0.965580
O191	O	1.238543	-0.301311	-0.402547
C192	C	1.296715	-0.326780	-0.373278
H193	H	1.259304	-0.319491	-0.290520
H194	H	1.366301	-0.309252	-0.389872
C195	C	1.362745	-0.397078	-0.532328
C196	C	1.316793	-0.388130	-0.430685
H197	H	1.375134	-0.434921	-0.567742
H198	H	1.323556	-0.379918	-0.552049
H199	H	1.420728	-0.382468	-0.546142
H200	H	1.258806	-0.402734	-0.416871
H201	H	1.355973	-0.405294	-0.410963
O202	O	1.302559	-0.562108	-0.484934
C203	C	1.358970	-0.540480	-0.557467
H204	H	1.360058	-0.495635	-0.520852
H205	H	1.328318	-0.545336	-0.614426
C206	C	1.459194	-0.625954	-0.654190
C207	C	1.460536	-0.570875	-0.609217
H208	H	1.521844	-0.644704	-0.686115
H209	H	1.421187	-0.640526	-0.605325
H210	H	1.433646	-0.629992	-0.701649
H211	H	1.486073	-0.566836	-0.561751
H212	H	1.498550	-0.556303	-0.658075
H213	H	1.228513	-0.849457	-0.389799
H214	H	0.996411	-0.142662	-0.091488
H215	H	0.996484	-0.891228	-0.091569
O216	O	1.108860	-0.124912	-0.924823
C217	C	1.189713	-0.162872	-0.992917
H218	H	1.217955	-0.182203	-0.951381
H219	H	1.246449	-0.141477	-1.035323
C220	C	1.128553	-0.183384	-1.117138
C221	C	1.163236	-0.207130	-1.066124
H222	H	1.112223	-0.210684	-1.162299
H223	H	1.074082	-0.157808	-1.071264
H224	H	1.175838	-0.165555	-1.152469
H225	H	1.115946	-0.224953	-1.030785
H226	H	1.217698	-0.232710	-1.111994
O227	O	1.110402	-0.198978	-0.832535
C228	C	1.029386	-0.216080	-0.772811
H229	H	0.972952	-0.179500	-0.721368
H230	H	1.048894	-0.236428	-0.726913
C231	C	1.060082	-0.301617	-0.902245
C232	C	0.990766	-0.256689	-0.839068
H233	H	1.036261	-0.326668	-0.943115
H234	H	1.114667	-0.290096	-0.942482
H235	H	1.076332	-0.318567	-0.863987
H236	H	0.974526	-0.239735	-0.877326
H237	H	0.936178	-0.268207	-0.798839
O238	O	0.986379	-0.787808	-0.078548
C239	C	0.929939	-0.809437	-0.006029
H240	H	0.968557	-0.849653	-0.017638
H241	H	0.859957	-0.816313	-0.012438
C242	C	0.863224	-0.720055	0.111786
C243	C	0.910658	-0.769447	0.097532
H244	H	0.851326	-0.695387	0.175668
H245	H	0.901245	-0.705483	0.062927
H246	H	0.804911	-0.725793	0.106439
H247	H	0.968975	-0.763710	0.102867
H248	H	0.872646	-0.784017	0.146394
O249	O	0.922412	-0.526903	0.003648
C250	C	0.865968	-0.548531	0.076166
H251	H	0.904581	-0.588750	0.064554
H252	H	0.795985	-0.555403	0.069757
C253	C	0.799264	-0.459150	0.193984
C254	C	0.846693	-0.508544	0.179728
H255	H	0.787370	-0.434483	0.257867
H256	H	0.837289	-0.444578	0.145127
H257	H	0.740950	-0.464883	0.188638
H258	H	0.905010	-0.502811	0.185062
H259	H	0.808677	-0.523114	0.228589
H260	H	0.932466	-0.470073	-0.009353
H261	H	0.932454	-0.373178	-0.009351
H262	H	1.114205	0.101348	-0.655972
O263	O	0.986271	-0.241295	-0.078524
C264	C	0.929847	-0.192855	-0.005970
H265	H	0.928749	-0.161544	-0.042563
H266	H	0.960494	-0.176645	0.050994
C267	C	0.829641	-0.242593	0.090708
C268	C	0.828287	-0.204137	0.045763
H269	H	0.766995	-0.249552	0.122623
H270	H	0.867656	-0.275228	0.041829
H271	H	0.855185	-0.229080	0.138171
H272	H	0.802754	-0.217653	-0.001708
H273	H	0.790264	-0.171505	0.094635
H274	H	1.292421	-0.618936	-0.471967
H275	H	1.116977	-0.011483	-0.515776
H276	H	1.113510	-0.210681	-0.685167
H277	H	1.116902	-0.179319	-0.515679
H278	H	0.846815	-0.055138	-0.298069
