data_functionalizedCrystal
_audit_creation_method	'MofGen! by Chris Wilmer'
_symmetry_space_group_name_H-M	'P1'
_symmetry_Int_Tables_number	1
_symmetry_cell_setting	triclinic
loop_
_symmetry_equiv_pos_as_xyz
  x,y,z
_cell_length_a	11.169417
_cell_length_b	12.759399
_cell_length_c	12.759393
_cell_angle_alpha	90.030906
_cell_angle_beta	89.980603
_cell_angle_gamma	89.984005
loop_
_atom_site_label
_atom_site_type_symbol
_atom_site_fract_x
_atom_site_fract_y
_atom_site_fract_z
Zn1	Zn	1.834917	0.418191	-0.593974
Zn2	Zn	2.334917	0.918191	-0.093974
Zn3	Zn	1.834792	0.593906	-0.418293
Zn4	Zn	2.334792	1.093906	0.081707
Zn5	Zn	1.634205	0.418245	-0.418314
Zn6	Zn	2.134205	0.918245	0.081686
Zn7	Zn	1.634194	0.593831	-0.593935
Zn8	Zn	2.134194	1.093831	-0.093935
O9	O	1.734527	0.506043	-0.506129
O10	O	2.234527	1.006043	-0.006129
O11	O	2.002850	0.441509	-0.570677
O12	O	2.502850	0.941509	-0.070677
O13	O	1.808135	0.570659	-0.271274
O14	O	2.308135	1.070659	0.228726
O15	O	1.660887	0.271217	-0.441641
O16	O	2.160887	0.771217	0.058359
O17	O	2.002758	0.570606	-0.441605
O18	O	2.502758	1.070606	0.058395
O19	O	1.808350	0.271177	-0.570697
O20	O	2.308350	0.771177	-0.070697
O21	O	1.660765	0.441601	-0.271290
O22	O	2.160765	0.941601	0.228710
O23	O	1.466254	0.441528	-0.441603
O24	O	1.966254	0.941528	0.058397
O25	O	1.660869	0.570478	-0.740961
O26	O	2.160869	1.070478	-0.240961
O27	O	1.466246	0.570530	-0.570631
O28	O	1.966246	1.070530	-0.070631
O29	O	1.808339	0.441436	-0.740990
O30	O	2.308339	0.941436	-0.240990
O31	O	1.808125	0.740917	-0.441567
O32	O	2.308125	1.240917	0.058433
O33	O	1.660747	0.740862	-0.570610
O34	O	2.160747	1.240862	-0.070610
C35	C	1.734453	0.779011	-0.506105
C36	C	2.234453	1.279011	-0.006105
C37	C	1.734532	0.895787	-0.506130
C38	C	2.234532	1.395787	-0.006130
C39	C	1.422702	0.506027	-0.506115
C40	C	1.922702	1.006027	-0.006115
C41	C	1.289302	0.506046	-0.506134
C42	C	1.789302	1.006046	-0.006134
C43	C	1.734617	0.505942	-0.780162
C44	C	2.234617	1.005942	-0.280162
C45	C	1.734655	0.505899	-0.896939
C46	C	2.234655	1.005899	-0.396939
C47	C	2.047569	0.506060	-0.506143
C48	C	2.547569	1.006060	-0.006143
C49	C	2.180969	0.506067	-0.506149
C50	C	2.680969	1.006067	-0.006149
C51	C	1.734634	0.232010	-0.506176
C52	C	2.234634	0.732010	-0.006176
C53	C	1.734679	0.115233	-0.506196
C54	C	2.234679	0.615233	-0.006196
C55	C	1.811359	0.950643	-0.439013
C56	C	2.311359	1.450643	0.060987
C57	C	1.811436	1.060367	-0.439049
C58	C	2.311436	1.560367	0.060951
C59	C	1.657848	1.060370	-0.573320
C60	C	2.157848	1.560370	-0.073320
C61	C	1.657778	0.950648	-0.573289
C62	C	2.157778	1.450648	-0.073289
C63	C	1.811449	0.438696	-0.951818
C64	C	2.311449	0.938696	-0.451818
C65	C	1.811469	0.438651	-1.061542
C66	C	2.311469	0.938651	-0.561542
C67	C	1.657899	0.573021	-1.061499
C68	C	2.157899	1.073021	-0.561499
C69	C	1.657873	0.573060	-0.951777
C70	C	2.157873	1.073060	-0.451777
C71	C	1.734507	0.506068	-0.233161
C72	C	2.234507	1.006068	0.266839
C73	C	1.734701	0.505815	-0.116385
C74	C	2.234701	1.005815	0.383615
H75	H	1.873998	1.105026	-0.384397
H76	H	2.373998	1.605026	0.115603
H77	H	1.595330	0.627784	-0.907093
H78	H	2.095330	1.127784	-0.407093
H79	H	1.873966	0.384007	-0.907172
H80	H	2.373966	0.884007	-0.407172
O81	O	1.575043	1.119539	-0.645734
O82	O	2.075043	1.619539	-0.145734
H83	H	1.587983	1.205052	-0.634469
H84	H	2.087983	1.705052	-0.134469
O85	O	1.574909	0.891478	-0.645687
O86	O	2.074909	1.391478	-0.145687
H87	H	1.587768	0.805965	-0.634391
H88	H	2.087768	1.305965	-0.134391
O89	O	1.894302	0.366175	-1.120737
O90	O	2.394302	0.866175	-0.620737
H91	H	1.947692	0.319490	-1.064167
H92	H	2.447692	0.819490	-0.564167
H93	H	1.873858	0.905978	-0.384330
H94	H	2.373858	1.405978	0.115670
O95	O	1.575087	0.645459	-1.120644
O96	O	2.075087	1.145459	-0.620644
H97	H	1.588011	0.634148	-1.206161
H98	H	2.088011	1.134148	-0.706161
