data_functionalizedCrystal
_audit_creation_method	'MofGen! by Chris Wilmer'
_symmetry_space_group_name_H-M	'P1'
_symmetry_Int_Tables_number	1
_symmetry_cell_setting	triclinic
loop_
_symmetry_equiv_pos_as_xyz
  x,y,z
_cell_length_a	17.077404
_cell_length_b	16.625546
_cell_length_c	17.077396
_cell_angle_alpha	89.968950
_cell_angle_beta	89.980813
_cell_angle_gamma	90.020715
loop_
_atom_site_label
_atom_site_type_symbol
_atom_site_fract_x
_atom_site_fract_y
_atom_site_fract_z
Zn1	Zn	1.200039	-0.321033	-0.443874
Zn2	Zn	1.533373	0.012301	-0.110541
Zn3	Zn	1.866706	0.345634	0.222793
Zn4	Zn	1.199953	-0.455877	-0.312604
Zn5	Zn	1.533286	-0.122544	0.020729
Zn6	Zn	1.866619	0.210789	0.354063
Zn7	Zn	1.068776	-0.321058	-0.312617
Zn8	Zn	1.402110	0.012275	0.020716
Zn9	Zn	1.735443	0.345608	0.354049
Zn10	Zn	1.068740	-0.455823	-0.443823
Zn11	Zn	1.402074	-0.122490	-0.110490
Zn12	Zn	1.735407	0.210844	0.222844
O13	O	1.134377	-0.388448	-0.378230
O14	O	1.467710	-0.055114	-0.044896
O15	O	1.801044	0.278219	0.288437
O16	O	1.309875	-0.338932	-0.426476
O17	O	1.643208	-0.005599	-0.093143
O18	O	1.976541	0.327734	0.240190
O19	O	1.182531	-0.438027	-0.202759
O20	O	1.515864	-0.104693	0.130575
O21	O	1.849197	0.228640	0.463908
O22	O	1.086240	-0.208222	-0.330056
O23	O	1.419574	0.125111	0.003278
O24	O	1.752907	0.458444	0.336611
O25	O	1.309811	-0.438002	-0.330033
O26	O	1.643144	-0.104669	0.003301
O27	O	1.976478	0.228665	0.336634
O28	O	1.182679	-0.208204	-0.426489
O29	O	1.516012	0.125130	-0.093156
O30	O	1.849345	0.458463	0.240177
O31	O	1.086156	-0.338976	-0.202769
O32	O	1.419489	-0.005643	0.130565
O33	O	1.752823	0.327691	0.463898
O34	O	0.958925	-0.338923	-0.330006
O35	O	1.292258	-0.005590	0.003327
O36	O	1.625591	0.327744	0.336660
O37	O	1.086178	-0.437909	-0.553677
O38	O	1.419512	-0.104576	-0.220343
O39	O	1.752845	0.228758	0.112990
O40	O	0.958898	-0.437934	-0.426403
O41	O	1.292231	-0.104601	-0.093069
O42	O	1.625565	0.228733	0.240264
O43	O	1.182643	-0.338879	-0.553714
O44	O	1.515977	-0.005546	-0.220381
O45	O	1.849310	0.327787	0.112952
O46	O	1.182496	-0.568703	-0.329984
O47	O	1.515829	-0.235369	0.003350
O48	O	1.849162	0.097964	0.336683
O49	O	1.086094	-0.568663	-0.426390
O50	O	1.419428	-0.235329	-0.093056
O51	O	1.752761	0.098004	0.240277
C52	C	0.930429	-0.388426	-0.378201
C53	C	1.263763	-0.055093	-0.044868
C54	C	1.597096	0.278241	0.288466
C55	C	0.843180	-0.388436	-0.378207
C56	C	1.176513	-0.055103	-0.044874
C57	C	1.509846	0.278231	0.288459
C58	C	1.134303	-0.597939	-0.378197
C59	C	1.467636	-0.264605	-0.044863
C60	C	1.800970	0.068728	0.288470
C61	C	1.134343	-0.687560	-0.378209
C62	C	1.467676	-0.354226	-0.044876
C63	C	1.801010	-0.020893	0.288458
C64	C	0.467395	-0.336977	-0.428557
C65	C	0.800729	-0.003644	-0.095223
C66	C	1.134062	0.329690	0.238110
C67	C	0.549376	-0.336971	-0.428548
C68	C	0.882709	-0.003638	-0.095215
C69	C	1.216042	0.329695	0.238119
C70	C	0.590331	-0.388465	-0.378249
C71	C	0.923664	-0.055131	-0.044916
C72	C	1.256997	0.278202	0.288417
C73	C	0.549301	-0.439973	-0.327962
C74	C	0.882634	-0.106640	0.005372
C75	C	1.215967	0.226693	0.338705
C76	C	0.467322	-0.439983	-0.327975
C77	C	0.800655	-0.106649	0.005358
C78	C	1.133988	0.226684	0.338692
C79	C	0.720171	-0.439949	-0.327936
C80	C	1.053504	-0.106616	0.005397
C81	C	1.386837	0.226718	0.338730
C82	C	0.802155	-0.439939	-0.327922
C83	C	1.135489	-0.106606	0.005411
C84	C	1.468822	0.226728	0.338745
C85	C	0.802225	-0.336938	-0.428509
C86	C	1.135558	-0.003604	-0.095176
C87	C	1.468891	0.329729	0.238157
C88	C	0.720246	-0.336947	-0.428523
C89	C	1.053579	-0.003614	-0.095189
C90	C	1.386913	0.329720	0.238144
C91	C	0.679222	-0.388455	-0.378234
C92	C	1.012555	-0.055121	-0.044900
C93	C	1.345888	0.278212	0.288433
C94	C	1.134480	-1.015735	-0.378291
C95	C	1.467813	-0.682402	-0.044957
C96	C	1.801147	-0.349069	0.288376
C97	C	1.134439	-0.924427	-0.378270
C98	C	1.467773	-0.591094	-0.044937
C99	C	1.801106	-0.257760	0.288397
C100	C	1.134411	-0.851650	-0.378249
C101	C	1.467744	-0.518317	-0.044916
C102	C	1.801077	-0.184984	0.288417
C103	C	1.134371	-0.760336	-0.378230
C104	C	1.467705	-0.427003	-0.044896
C105	C	1.801038	-0.093670	0.288437
C106	C	1.339121	-0.388470	-0.378259
C107	C	1.672455	-0.055137	-0.044925
C108	C	2.005788	0.278196	0.288408
C109	C	1.426371	-0.388480	-0.378271
C110	C	1.759705	-0.055147	-0.044938
C111	C	2.093038	0.278187	0.288395
C112	C	1.134417	-0.388385	-0.582974
C113	C	1.467750	-0.055052	-0.249641
C114	C	1.801083	0.278281	0.083693
C115	C	1.134433	-0.388359	-0.670224
C116	C	1.467767	-0.055025	-0.336890
C117	C	1.801100	0.278308	-0.003557
C118	C	1.134473	-0.178139	-0.378280
C119	C	1.467806	0.155194	-0.044946
C120	C	1.801140	0.488528	0.288387
C121	C	1.134514	-0.088518	-0.378301
C122	C	1.467847	0.244816	-0.044968
C123	C	1.801181	0.578149	0.288366
C124	C	1.084266	-0.336777	-0.711219
C125	C	1.417600	-0.003443	-0.377885
C126	C	1.750933	0.329890	-0.044552
C127	C	1.084279	-0.336758	-0.793199
C128	C	1.417613	-0.003425	-0.459866
C129	C	1.750946	0.329908	-0.126532
C130	C	1.134464	-0.388319	-0.834183
C131	C	1.467797	-0.054985	-0.500850
C132	C	1.801130	0.278348	-0.167517
C133	C	1.184633	-0.439906	-0.793183
C134	C	1.517966	-0.106573	-0.459850
C135	C	1.851299	0.226760	-0.126516
C136	C	1.184615	-0.439928	-0.711204
C137	C	1.517949	-0.106595	-0.377871
C138	C	1.851282	0.226739	-0.044537
C139	C	1.184667	-0.439856	-0.964053
C140	C	1.518000	-0.106523	-0.630720
C141	C	1.851333	0.226811	-0.297386
C142	C	1.184685	-0.439833	-1.046038
C143	C	1.518019	-0.106500	-0.712704
C144	C	1.851352	0.226833	-0.379371
C145	C	1.084331	-0.336686	-1.046048
C146	C	1.417664	-0.003353	-0.712715
C147	C	1.750997	0.329980	-0.379382
C148	C	1.084313	-0.336708	-0.964069
C149	C	1.417647	-0.003375	-0.630736
C150	C	1.750980	0.329959	-0.297403
C151	C	1.134484	-0.388295	-0.923074
C152	C	1.467817	-0.054962	-0.589741
C153	C	1.801150	0.278372	-0.256408
C154	C	1.134383	-0.388452	-0.174282
C155	C	1.467716	-0.055119	0.159052
C156	C	1.801050	0.278215	0.492385
C157	C	1.134518	-0.388251	-0.087032
C158	C	1.467852	-0.054918	0.246301
C159	C	1.801185	0.278415	0.579634
H160	H	0.434056	-0.295040	-0.469511
H161	H	0.767389	0.038293	-0.136177
H162	H	1.100723	0.371627	0.197156
H163	H	0.582653	-0.481903	-0.287011
H164	H	0.915986	-0.148570	0.046322
H165	H	1.249319	0.184763	0.379656
H166	H	0.582774	-0.295035	-0.469498
H167	H	0.916107	0.038298	-0.136165
H168	H	1.249441	0.371631	0.197169
H169	H	1.043405	-0.294786	-0.677855
H170	H	1.376738	0.038548	-0.344522
H171	H	1.710072	0.371881	-0.011188
H172	H	0.686771	-0.481895	-0.286989
H173	H	1.020105	-0.148562	0.046344
H174	H	1.353438	0.184771	0.379677
Br175	Br	0.411645	-0.509892	-0.259737
Br176	Br	0.744978	-0.176558	0.073596
Br177	Br	1.078311	0.156775	0.406929
Br178	Br	1.016150	-0.266795	-0.848832
Br179	Br	1.349483	0.066538	-0.515499
Br180	Br	1.682817	0.399872	-0.182165
H181	H	1.043452	-0.294719	-0.930702
H182	H	1.376786	0.038614	-0.597369
H183	H	1.710119	0.371947	-0.264035
H184	H	1.043481	-0.294681	-1.079430
H185	H	1.376814	0.038652	-0.746097
H186	H	1.710148	0.371985	-0.412763
Br187	Br	1.252801	-0.509801	-1.101659
Br188	Br	1.586134	-0.176468	-0.768326
Br189	Br	1.919467	0.156866	-0.434993
H190	H	1.225528	-0.481856	-0.930678
H191	H	1.558861	-0.148523	-0.597344
H192	H	1.892194	0.184810	-0.264011
Br193	Br	0.664664	-0.267057	-0.496780
Br194	Br	0.997998	0.066277	-0.163447
Br195	Br	1.331331	0.399610	0.169886
Br196	Br	1.252734	-0.509889	-0.848803
Br197	Br	1.586067	-0.176556	-0.515470
Br198	Br	1.919401	0.156777	-0.182137
Br199	Br	1.252696	-0.509941	-0.655567
Br200	Br	1.586029	-0.176608	-0.322234
Br201	Br	1.919363	0.156726	0.011100
H202	H	0.835499	-0.481872	-0.286967
H203	H	1.168832	-0.148538	0.046367
H204	H	1.502165	0.184795	0.379700
Br205	Br	0.857899	-0.267027	-0.496752
Br206	Br	1.191233	0.066307	-0.163418
Br207	Br	1.524566	0.399640	0.169915
