data_functionalizedCrystal
_audit_creation_method	'MofGen! by Chris Wilmer'
_symmetry_space_group_name_H-M	'P1'
_symmetry_Int_Tables_number	1
_symmetry_cell_setting	triclinic
loop_
_symmetry_equiv_pos_as_xyz
  x,y,z
_cell_length_a	19.121063
_cell_length_b	18.101398
_cell_length_c	19.121605
_cell_angle_alpha	92.444910
_cell_angle_beta	90.075163
_cell_angle_gamma	87.536641
loop_
_atom_site_label
_atom_site_type_symbol
_atom_site_fract_x
_atom_site_fract_y
_atom_site_fract_z
Zn1	Zn	-0.262316	-1.138672	-0.408103
Zn2	Zn	-0.384556	-1.128035	-0.295862
Zn3	Zn	-0.267325	-1.009341	-0.290902
Zn4	Zn	-0.379507	-1.009742	-0.413078
O5	O	-0.323426	-1.071447	-0.351986
O6	O	-0.278548	-1.240893	-0.393208
O7	O	-0.373215	-1.107670	-0.197099
O8	O	-0.168553	-1.030781	-0.302291
O9	O	-0.368358	-1.233078	-0.310744
O10	O	-0.164873	-1.125800	-0.388398
O11	O	-0.287085	-1.020467	-0.193455
O12	O	-0.282189	-0.905762	-0.307115
O13	O	-0.359752	-1.031464	-0.510523
O14	O	-0.364609	-0.906057	-0.396878
O15	O	-0.273652	-1.126189	-0.506868
O16	O	-0.481994	-1.108059	-0.315568
O17	O	-0.478284	-1.021149	-0.401687
C18	C	-0.323396	-0.879039	-0.351998
C19	C	-0.323399	-0.796726	-0.352021
C20	C	-0.323437	-0.497632	-0.351999
C21	C	-0.375567	-0.529143	-0.408218
C22	C	-0.375389	-0.614779	-0.408431
C23	C	-0.323419	-0.646016	-0.352010
C24	C	-0.248715	-0.619083	-0.369055
C25	C	-0.249025	-0.533442	-0.369453
C26	C	-0.345365	-0.524896	-0.278576
C27	C	-0.346970	-0.610495	-0.279040
C28	C	-0.323404	-0.729876	-0.352015
C29	C	-0.323447	-0.413772	-0.351996
C30	C	-0.505576	-1.063514	-0.359721
C31	C	-0.583500	-1.060189	-0.363054
C32	C	-0.622015	-1.103915	-0.319819
C33	C	-0.695232	-1.100792	-0.322957
C34	C	-0.729933	-1.053939	-0.369327
C35	C	-0.691413	-1.010212	-0.412567
C36	C	-0.618197	-1.013339	-0.409431
C37	C	-0.950903	-1.042235	-0.381038
C38	C	-1.024124	-1.039110	-0.384169
C39	C	-1.027938	-1.129691	-0.294560
C40	C	-0.954721	-1.132811	-0.291426
C41	C	-0.916207	-1.089087	-0.334668
C42	C	-0.804773	-1.050744	-0.372535
C43	C	-0.841368	-1.092286	-0.331463
C44	C	-0.140564	-1.079433	-0.344236
C45	C	-0.062639	-1.082836	-0.340934
C46	C	-0.315580	-1.080058	-0.534845
C47	C	-0.312237	-1.083727	-0.612768
C48	C	-0.323454	-0.264608	-0.351979
C49	C	-0.323457	-0.346922	-0.351988
C50	C	-0.291082	-1.106990	-1.053392
C51	C	-0.294227	-1.103538	-0.980175
C52	C	-0.340623	-1.052490	-0.945472
C53	C	-0.383882	-1.004896	-0.983992
C54	C	-0.380740	-1.008353	-1.057207
C55	C	-0.352355	-1.039590	-0.724503
C56	C	-0.355492	-1.036135	-0.651282
C57	C	-0.265837	-1.134778	-0.647470
C58	C	-0.262696	-1.138227	-0.720687
C59	C	-0.305958	-1.090636	-0.759200
C60	C	-0.343837	-1.048958	-0.870633
C61	C	-0.302747	-1.094172	-0.834039
C62	C	-0.331191	-1.062916	-0.169837
C63	C	-0.334336	-1.059398	-0.091906
H64	H	-0.208615	-0.512772	-0.330205
H65	H	-0.360979	-0.510721	-0.462372
H66	H	-0.430687	-0.632827	-0.398109
H67	H	-0.431038	-0.505579	-0.398047
H68	H	-0.360629	-0.638391	-0.462895
N69	N	-0.803939	-1.142816	-0.281453
H70	H	-0.818856	-1.128451	-0.231900
H71	H	-0.816181	-1.195676	-0.292978
H72	H	-0.381612	-1.007394	-0.842370
H73	H	-0.421662	-0.963335	-0.955731
H74	H	-0.230796	-0.516706	-0.423035
N75	N	-1.061554	-0.988573	-0.434184
H76	H	-1.026046	-0.961349	-0.461103
H77	H	-1.090507	-1.018927	-0.467942
H78	H	-0.719672	-0.972067	-0.450325
H79	H	-0.726588	-1.136397	-0.287750
N80	N	-0.195685	-0.646066	-0.316328
H81	H	-0.219633	-0.676082	-0.280800
H82	H	-0.157988	-0.677929	-0.341192
N83	N	-0.224217	-0.651761	-0.439230
H84	H	-0.261392	-0.684014	-0.460078
H85	H	-0.215305	-0.610528	-0.471606
N86	N	-0.909368	-0.995071	-0.427669
H87	H	-0.942463	-0.964913	-0.457515
H88	H	-0.880253	-0.960776	-0.397806
N89	N	-0.584588	-1.154453	-0.269810
H90	H	-0.555640	-1.124153	-0.235999
H91	H	-0.620140	-1.181672	-0.242948
N92	N	-0.917294	-1.183356	-0.241423
H93	H	-0.952804	-1.210588	-0.214513
H94	H	-0.885660	-1.220242	-0.268694
N95	N	-0.842204	-1.000203	-0.422537
H96	H	-0.806698	-0.972971	-0.449451
H97	H	-0.871154	-1.030553	-0.456302
N98	N	-0.416498	-0.492104	-0.257247
H99	H	-0.435230	-0.459237	-0.294967
H100	H	-0.449564	-0.533264	-0.250561
H101	H	-1.059304	-1.165290	-0.259356
N102	N	-0.219189	-1.186114	-0.605930
H103	H	-0.189323	-1.218978	-0.639024
H104	H	-0.188040	-1.155959	-0.574181
N105	N	-0.241033	-1.162046	-1.090811
H106	H	-0.252479	-1.213881	-1.078522
H107	H	-0.245622	-1.156953	-1.143027
N108	N	-0.576652	-0.966181	-0.456065
H109	H	-0.609743	-0.936024	-0.485915
H110	H	-0.547533	-0.931885	-0.426206
N111	N	-0.427396	-0.957026	-1.098751
H112	H	-0.457264	-0.924161	-1.065659
H113	H	-0.397549	-0.925436	-1.127927
N114	N	-0.295124	-0.497821	-0.223141
H115	H	-0.321584	-0.465675	-0.186741
H116	H	-0.271801	-0.541642	-0.200159
N117	N	-0.247576	-1.154870	-0.938634
H118	H	-0.217705	-1.187730	-0.971728
H119	H	-0.216431	-1.124711	-0.906884
N120	N	-0.419778	-0.633405	-0.261897
H121	H	-0.437442	-0.666648	-0.301232
H122	H	-0.418496	-0.660942	-0.217043
H123	H	-0.393260	-0.994549	-0.623029
N124	N	-0.399011	-0.988260	-0.766036
H125	H	-0.428876	-0.955396	-0.732941
H126	H	-0.369163	-0.956671	-0.795211
H127	H	-0.264974	-1.135737	-0.862297
N128	N	-0.212639	-1.193269	-0.758114
H129	H	-0.185709	-1.222891	-0.722605
H130	H	-0.239865	-1.227733	-0.789705
H131	H	-0.312010	-0.631494	-0.235156
