data_functionalizedCrystal
_audit_creation_method	'MofGen! by Chris Wilmer'
_symmetry_space_group_name_H-M	'P1'
_symmetry_Int_Tables_number	1
_symmetry_cell_setting	triclinic
loop_
_symmetry_equiv_pos_as_xyz
  x,y,z
_cell_length_a	19.188930
_cell_length_b	14.044220
_cell_length_c	12.503572
_cell_angle_alpha	93.843168
_cell_angle_beta	86.479840
_cell_angle_gamma	88.166828
loop_
_atom_site_label
_atom_site_type_symbol
_atom_site_fract_x
_atom_site_fract_y
_atom_site_fract_z
O1	O	0.937478	0.112788	-0.089673
O2	O	1.270811	0.446121	0.243660
O3	O	1.604144	0.779454	0.576994
O4	O	0.735191	0.128718	-0.089600
O5	O	1.068524	0.462052	0.243733
O6	O	1.401858	0.795385	0.577067
O7	O	0.833298	-0.017218	-0.089625
O8	O	1.166631	0.316115	0.243709
O9	O	1.499964	0.649448	0.577042
O10	O	0.839371	0.258724	-0.089648
O11	O	1.172704	0.592058	0.243685
O12	O	1.506038	0.925391	0.577018
O13	O	0.825920	-0.006225	0.089019
O14	O	1.159254	0.327108	0.422352
O15	O	1.492587	0.660442	0.755686
O16	O	0.727814	0.139712	0.089044
O17	O	1.061147	0.473045	0.422377
O18	O	1.394481	0.806378	0.755710
O19	O	0.930100	0.123781	0.088971
O20	O	1.263434	0.457114	0.422304
O21	O	1.596767	0.790448	0.755638
Cu22	Cu	0.828284	0.132750	0.105319
Cu23	Cu	1.161617	0.466084	0.438652
Cu24	Cu	1.494950	0.799417	0.771986
Cu25	Cu	0.837008	0.119749	-0.105948
Cu26	Cu	1.170341	0.453083	0.227385
Cu27	Cu	1.503675	0.786416	0.560719
O28	O	0.831994	0.269718	0.088996
O29	O	1.165327	0.603051	0.422329
O30	O	1.498661	0.936384	0.755662
C31	C	0.826951	-0.047025	-0.000302
C32	C	1.160284	0.286308	0.333032
C33	C	1.493617	0.619642	0.666365
C34	C	0.819022	-0.152218	-0.000297
C35	C	1.152355	0.181116	0.333036
C36	C	1.485688	0.514449	0.666369
C37	C	0.705458	0.133700	-0.000269
C38	C	1.038791	0.467033	0.333065
C39	C	1.372124	0.800367	0.666398
C40	C	0.627852	0.132153	-0.000240
C41	C	0.961185	0.465487	0.333093
C42	C	1.294519	0.798820	0.666426
C43	C	0.804527	-0.344819	-0.000308
C44	C	1.137860	-0.011486	0.333026
C45	C	1.471193	0.321847	0.666359
C46	C	0.860762	-0.402687	-0.000331
C47	C	1.194095	-0.069354	0.333002
C48	C	1.527429	0.263979	0.666336
C49	C	0.852697	-0.509858	-0.000337
C50	C	1.186030	-0.176524	0.332997
C51	C	1.519364	0.156809	0.666330
C52	C	0.812591	-0.237639	-0.000302
C53	C	1.145924	0.095694	0.333031
C54	C	1.479258	0.429028	0.666365
C55	C	0.588455	0.217782	-0.000265
C56	C	0.921788	0.551115	0.333069
C57	C	1.255122	0.884449	0.666402
C58	C	0.515538	0.216327	-0.000276
C59	C	0.848871	0.549660	0.333057
C60	C	1.182204	0.882993	0.666390
C61	C	0.482022	0.129237	-0.000285
C62	C	0.815355	0.462570	0.333048
C63	C	1.148688	0.795903	0.666381
C64	C	0.521428	0.043597	-0.000255
C65	C	0.854761	0.376931	0.333078
C66	C	1.188094	0.710264	0.666412
C67	C	0.594343	0.045056	-0.000233
C68	C	0.927676	0.378389	0.333101
C69	C	1.261010	0.711722	0.666434
N70	N	0.372258	0.058924	-0.061123
N71	N	0.705591	0.392257	0.272210
N72	N	1.038925	0.725591	0.605543
N73	N	0.302991	0.057544	-0.061147
N74	N	0.636325	0.390878	0.272187
N75	N	0.969658	0.724211	0.605520
C76	C	0.262332	0.124838	-0.000351
C77	C	0.595665	0.458171	0.332983
C78	C	0.928999	0.791504	0.666316
N79	N	0.293556	0.193577	0.060457
N80	N	0.626889	0.526910	0.393790
N81	N	0.960223	0.860243	0.727123
N82	N	0.362829	0.194959	0.060475
N83	N	0.696162	0.528292	0.393809
N84	N	1.029496	0.861626	0.727142
C85	C	0.402958	0.127646	-0.000309
C86	C	0.736291	0.460979	0.333024
C87	C	1.069624	0.794313	0.666358
C88	C	0.143870	0.208894	-0.000386
C89	C	0.477203	0.542228	0.332947
C90	C	0.810536	0.875561	0.666281
C91	C	0.070951	0.207436	-0.000391
C92	C	0.404284	0.540769	0.332942
C93	C	0.737618	0.874103	0.666276
C94	C	0.076843	0.034704	-0.000381
C95	C	0.410176	0.368037	0.332953
C96	C	0.743509	0.701370	0.666286
C97	C	0.149759	0.036165	-0.000365
C98	C	0.483093	0.369498	0.332969
C99	C	0.816426	0.702832	0.666302
C100	C	0.183269	0.123263	-0.000373
C101	C	0.516602	0.456596	0.332961
C102	C	0.849935	0.789929	0.666294
C103	C	0.959834	0.118799	-0.000363
C104	C	1.293167	0.452133	0.332970
C105	C	1.626500	0.785466	0.666304
C106	C	1.037440	0.120345	-0.000398
C107	C	1.370773	0.453679	0.332935
C108	C	1.704106	0.787012	0.666268
C109	C	0.838341	0.299524	-0.000330
C110	C	1.171674	0.632858	0.333003
C111	C	1.505007	0.966191	0.666337
C112	C	0.846270	0.404716	-0.000341
C113	C	1.179603	0.738050	0.332992
C114	C	1.512937	1.071383	0.666325
N115	N	0.822152	0.141894	0.253913
N116	N	1.155486	0.475227	0.587246
N117	N	1.488819	0.808560	0.920579
N118	N	0.843144	0.110598	-0.254542
N119	N	1.176477	0.443931	0.078791
N120	N	1.509811	0.777265	0.412125
C121	C	0.813134	0.155352	0.473030
C122	C	1.146467	0.488686	0.806364
C123	C	1.479801	0.822019	1.139697
C124	C	0.852161	0.097143	0.526347
C125	C	1.185494	0.430476	0.859681
C126	C	1.518827	0.763809	1.193014
C127	C	0.847142	0.104631	0.648272
C128	C	1.180476	0.437964	0.981605
C129	C	1.513809	0.771298	1.314939
C130	C	0.818151	0.147865	0.351095
C131	C	1.151484	0.481198	0.684428
C132	C	1.484818	0.814532	1.017761
H133	H	0.914967	-0.371747	-0.000423
H134	H	1.248301	-0.038413	0.332911
H135	H	1.581634	0.294920	0.666244
H136	H	0.171153	0.279816	-0.000376
H137	H	0.504487	0.613149	0.332957
H138	H	0.837820	0.946482	0.666290
H139	H	0.750329	-0.375763	-0.000291
H140	H	1.083662	-0.042430	0.333043
H141	H	1.416995	0.290904	0.666376
N142	N	0.763894	0.228815	0.533857
N143	N	1.097227	0.562148	0.867190
N144	N	1.430561	0.895482	1.200524
H145	H	0.776999	0.294832	0.514345
H146	H	1.110332	0.628166	0.847678
H147	H	1.443666	0.961499	1.181012
H148	H	0.714462	0.216933	0.514367
H149	H	1.047796	0.550267	0.847701
H150	H	1.381129	0.883600	1.181034
N151	N	0.624597	0.311718	-0.000281
N152	N	0.957931	0.645051	0.333053
N153	N	1.291264	0.978385	0.666386
H154	H	0.588570	0.365743	-0.000300
H155	H	0.921904	0.699076	0.333033
H156	H	1.255237	1.032410	0.666366
H157	H	0.651970	0.320171	0.065951
H158	H	0.985304	0.653504	0.399284
H159	H	1.318637	0.986837	0.732618
H160	H	0.483454	0.286058	-0.000293
H161	H	0.816788	0.619391	0.333041
H162	H	1.150121	0.952725	0.666374
H163	H	0.494135	-0.027313	-0.000277
H164	H	0.827468	0.306021	0.333056
H165	H	1.160802	0.639354	0.666389
H166	H	0.626420	-0.024676	-0.000214
H167	H	0.959754	0.308658	0.333120
H168	H	1.293087	0.641991	0.666453
H169	H	0.038874	0.277168	-0.000404
H170	H	0.372208	0.610502	0.332929
H171	H	0.705541	0.943835	0.666262
H172	H	0.049557	-0.036211	-0.000455
H173	H	0.382891	0.297122	0.332879
H174	H	0.716224	0.630456	0.666212
N175	N	0.192258	-0.056192	-0.000339
N176	N	0.525591	0.277141	0.332995
N177	N	0.858925	0.610475	0.666328
H178	H	0.159963	-0.111586	-0.000345
H179	H	0.493297	0.221748	0.332989
H180	H	0.826630	0.555081	0.666322
H181	H	0.225394	-0.063427	-0.066553
H182	H	0.558728	0.269906	0.266781
H183	H	0.892061	0.603239	0.600114
N184	N	0.901413	0.023679	0.465530
N185	N	1.234746	0.357013	0.798864
N186	N	1.568079	0.690346	1.132197
H187	H	0.898065	0.028674	0.385790
H188	H	1.231398	0.362007	0.719123
H189	H	1.564731	0.695340	1.052456
H190	H	0.950834	0.035532	0.485094
H191	H	1.284167	0.368866	0.818427
H192	H	1.617500	0.702199	1.151761
