data_functionalizedCrystal
_audit_creation_method	'MofGen! by Chris Wilmer'
_symmetry_space_group_name_H-M	'P1'
_symmetry_Int_Tables_number	1
_symmetry_cell_setting	triclinic
loop_
_symmetry_equiv_pos_as_xyz
  x,y,z
_cell_length_a	10.654541
_cell_length_b	14.853559
_cell_length_c	9.730217
_cell_angle_alpha	89.998938
_cell_angle_beta	89.999932
_cell_angle_gamma	84.057691
loop_
_atom_site_label
_atom_site_type_symbol
_atom_site_fract_x
_atom_site_fract_y
_atom_site_fract_z
O1	O	1.666518	0.126615	-0.114241
O2	O	1.300913	0.138681	-0.114252
O3	O	1.493487	0.001470	-0.114244
O4	O	1.473944	0.263826	-0.114248
O5	O	1.493481	0.001469	0.114336
O6	O	1.300907	0.138680	0.114328
O7	O	1.666512	0.126613	0.114340
Zn8	Zn	1.483708	0.132646	0.150626
Zn9	Zn	1.483716	0.132648	-0.150538
O10	O	1.473938	0.263825	0.114332
C11	C	1.254121	0.137795	0.000037
C12	C	1.114705	0.135146	0.000032
C13	C	1.492600	-0.032124	0.000043
C14	C	1.489952	-0.132223	0.000035
C15	C	1.085023	0.299219	0.000013
C16	C	1.004686	0.380007	-0.000002
C17	C	0.873694	0.377512	-0.000004
C18	C	0.823037	0.294220	0.000014
C19	C	0.903374	0.213432	0.000030
C20	C	1.034368	0.215936	0.000027
C21	C	0.933056	0.049361	0.000059
C22	C	1.064049	0.051854	0.000050
C23	C	0.882400	-0.033931	0.000077
C24	C	0.962737	-0.114722	0.000082
C25	C	1.093737	-0.112223	0.000082
C26	C	1.144386	-0.028935	0.000065
C27	C	1.478723	-0.555457	-0.124564
C28	C	1.478716	-0.555453	0.124642
C29	C	1.481214	-0.461407	0.124644
C30	C	1.482465	-0.414381	0.000039
C31	C	1.481217	-0.461401	-0.124567
C32	C	1.482449	-0.414378	0.249247
C33	C	1.484946	-0.320325	0.249254
C34	C	1.486206	-0.273298	0.124647
C35	C	1.484960	-0.320325	0.000037
C36	C	1.486210	-0.273299	-0.124568
C37	C	1.484973	-0.320325	-0.249181
C38	C	1.482477	-0.414375	-0.249173
C39	C	1.488702	-0.179249	0.124640
C40	C	1.488705	-0.179243	-0.124571
C41	C	1.713304	0.127500	0.000048
C42	C	1.852719	0.130149	0.000043
C43	C	1.474824	0.297419	0.000042
C44	C	1.477472	0.397517	0.000040
N45	N	1.483712	0.132645	0.356162
N46	N	1.483722	0.132643	-0.356075
C47	C	1.654306	0.011180	0.356160
C48	C	1.739611	-0.049550	0.428098
C49	C	1.739624	-0.049550	0.571978
C50	C	1.654320	0.011184	0.643922
C51	C	1.569015	0.071913	0.571984
C52	C	1.569014	0.071909	0.428101
C53	C	1.398417	0.193372	0.571987
C54	C	1.398408	0.193379	0.428107
C55	C	1.313113	0.254106	0.643931
C56	C	1.227812	0.314842	0.571993
C57	C	1.227803	0.314841	0.428104
C58	C	1.313103	0.254109	0.356169
H59	H	1.191682	0.301258	-0.000016
C60	C	1.486324	-0.268606	0.386319
H61	H	1.485232	-0.310085	0.460527
H62	H	1.414128	-0.225491	0.391504
H63	H	1.560489	-0.238346	0.391493
H64	H	0.716375	0.292196	0.000030
C65	C	1.182098	-0.201092	0.000091
H66	H	1.133163	-0.251049	0.000091
H67	H	1.233822	-0.203528	0.079796
H68	H	1.233808	-0.203533	-0.079635
C69	C	1.490079	-0.127522	-0.261639
H70	H	1.488976	-0.168999	-0.335845
H71	H	1.564224	-0.097248	-0.266818
H72	H	1.417863	-0.084417	-0.266823
H73	H	1.158358	0.364283	0.630579
C74	C	1.133968	0.381646	0.348983
H75	H	1.083178	0.417817	0.412441
H76	H	1.081644	0.348865	0.292855
H77	H	1.179201	0.419487	0.292857
C78	C	1.313128	0.254109	0.802195
H79	H	1.376157	0.209249	0.834738
H80	H	1.232854	0.241230	0.834757
H81	H	1.330408	0.311854	0.834729
H82	H	1.481468	-0.452671	-0.350626
H83	H	1.045945	0.447822	-0.000013
C84	C	1.313097	0.254104	0.197905
H85	H	1.376110	0.209232	0.165366
H86	H	1.330362	0.311841	0.165344
H87	H	1.232813	0.241213	0.165366
C88	C	0.738314	-0.036682	0.000073
H89	H	0.719654	-0.097855	0.000095
H90	H	0.703202	-0.006955	-0.079644
H91	H	0.703196	-0.006944	0.079787
C92	C	0.907014	-0.206330	0.000099
H93	H	0.817495	-0.196245	0.000095
H94	H	0.934582	-0.239629	0.079810
H95	H	0.934571	-0.239628	-0.079622
H96	H	1.251044	-0.026893	0.000049
H97	H	1.489681	-0.140962	0.226097
H98	H	1.654325	0.011172	0.761077
H99	H	1.654314	0.011182	0.239005
H100	H	1.485982	-0.282023	-0.350634
C101	C	1.477345	-0.607179	0.261695
H102	H	1.475689	-0.669928	0.243850
H103	H	1.404583	-0.585346	0.312900
H104	H	1.550944	-0.598189	0.312885
H105	H	1.809063	-0.099001	0.369508
C106	C	1.477357	-0.607179	-0.261627
H107	H	1.475685	-0.669927	-0.243787
H108	H	1.550940	-0.598181	-0.312825
H109	H	1.404579	-0.585344	-0.312821
H110	H	1.481424	-0.452672	0.350694
H111	H	1.809082	-0.099005	0.630550
C112	C	0.785321	0.466376	-0.000029
H113	H	0.834245	0.516339	-0.000049
H114	H	0.733596	0.468817	0.079676
H115	H	0.733613	0.468799	-0.079756
