data_functionalizedCrystal
_audit_creation_method	'MofGen! by Chris Wilmer'
_symmetry_space_group_name_H-M	'P1'
_symmetry_Int_Tables_number	1
_symmetry_cell_setting	triclinic
loop_
_symmetry_equiv_pos_as_xyz
  x,y,z
_cell_length_a	11.792241
_cell_length_b	11.026607
_cell_length_c	10.065918
_cell_angle_alpha	82.291637
_cell_angle_beta	99.762002
_cell_angle_gamma	83.610284
loop_
_atom_site_label
_atom_site_type_symbol
_atom_site_fract_x
_atom_site_fract_y
_atom_site_fract_z
O1	O	0.494000	-1.629339	0.113506
O2	O	0.744000	-1.379339	0.363506
O3	O	0.994000	-1.129339	0.613506
O4	O	1.244000	-0.879339	0.863506
O5	O	0.439808	-1.275676	0.113506
O6	O	0.689808	-1.025676	0.363506
O7	O	0.939808	-0.775676	0.613506
O8	O	1.189808	-0.525676	0.863506
O9	O	0.303436	-1.461089	0.113496
O10	O	0.553436	-1.211089	0.363496
O11	O	0.803436	-0.961089	0.613496
O12	O	1.053436	-0.711089	0.863496
O13	O	0.630372	-1.443927	0.113516
O14	O	0.880372	-1.193927	0.363516
O15	O	1.130372	-0.943927	0.613516
O16	O	1.380372	-0.693927	0.863516
O17	O	0.267251	-1.428986	-0.113494
O18	O	0.517251	-1.178986	0.136506
O19	O	0.767251	-0.928986	0.386506
O20	O	1.017251	-0.678986	0.636506
O21	O	0.403623	-1.243574	-0.113484
O22	O	0.653623	-0.993574	0.136516
O23	O	0.903623	-0.743574	0.386516
O24	O	1.153623	-0.493574	0.636516
O25	O	0.457815	-1.597237	-0.113484
O26	O	0.707815	-1.347237	0.136516
O27	O	0.957815	-1.097237	0.386516
O28	O	1.207815	-0.847237	0.636516
Zn29	Zn	0.424974	-1.415309	-0.149524
Zn30	Zn	0.674974	-1.165309	0.100476
Zn31	Zn	0.924974	-0.915309	0.350476
Zn32	Zn	1.174974	-0.665309	0.600476
Zn33	Zn	0.472649	-1.457605	0.149545
Zn34	Zn	0.722649	-1.207605	0.399545
Zn35	Zn	0.972649	-0.957605	0.649545
Zn36	Zn	1.222649	-0.707605	0.899545
O37	O	0.594187	-1.411824	-0.113475
O38	O	0.844187	-1.161824	0.136525
O39	O	1.094187	-0.911824	0.386525
O40	O	1.344187	-0.661824	0.636525
C41	C	0.242839	-1.443960	0.000002
C42	C	0.492839	-1.193960	0.250002
C43	C	0.742839	-0.943960	0.500002
C44	C	0.992839	-0.693960	0.750002
C45	C	0.116184	-1.440732	0.000003
C46	C	0.366184	-1.190732	0.250003
C47	C	0.616184	-0.940732	0.500003
C48	C	0.866184	-0.690732	0.750003
C49	C	0.411718	-1.214349	0.000011
C50	C	0.661718	-0.964349	0.250011
C51	C	0.911718	-0.714349	0.500011
C52	C	1.161718	-0.464349	0.750011
C53	C	0.381915	-1.079439	0.000011
C54	C	0.631915	-0.829439	0.250011
C55	C	0.881915	-0.579439	0.500011
C56	C	1.131915	-0.329439	0.750011
C57	C	0.485905	-1.658565	0.000014
C58	C	0.735905	-1.408565	0.250014
C59	C	0.985905	-1.158565	0.500014
C60	C	1.235905	-0.908565	0.750014
C61	C	0.515709	-1.793476	0.000023
C62	C	0.765709	-1.543476	0.250023
C63	C	1.015709	-1.293476	0.500023
C64	C	1.265709	-1.043476	0.750023
C65	C	-0.115703	-1.434801	0.000026
C66	C	0.134297	-1.184801	0.250026
C67	C	0.384297	-0.934801	0.500026
C68	C	0.634297	-0.684801	0.750026
C69	C	0.013335	-1.438097	0.000013
C70	C	0.263335	-1.188097	0.250013
C71	C	0.513335	-0.938097	0.500013
C72	C	0.763335	-0.688097	0.750013
C73	C	0.654785	-1.428954	0.000023
C74	C	0.904785	-1.178954	0.250023
C75	C	1.154785	-0.928954	0.500023
C76	C	1.404785	-0.678954	0.750023
C77	C	0.781440	-1.432182	0.000031
C78	C	1.031440	-1.182182	0.250031
C79	C	1.281440	-0.932182	0.500031
C80	C	1.531440	-0.682182	0.750031
N81	N	0.392438	-1.386451	-0.353631
N82	N	0.642438	-1.136451	-0.103631
N83	N	0.892438	-0.886451	0.146369
N84	N	1.142438	-0.636451	0.396369
C85	C	0.464207	-1.006175	0.000017
C86	C	0.714207	-0.756175	0.250017
C87	C	0.964207	-0.506175	0.500017
C88	C	1.214207	-0.256175	0.750017
C89	C	0.433406	-0.866738	0.000017
C90	C	0.683406	-0.616738	0.250017
C91	C	0.933406	-0.366738	0.500017
C92	C	1.183406	-0.116738	0.750017
C93	C	0.461327	-1.447556	-0.421407
C94	C	0.711327	-1.197556	-0.171407
C95	C	0.961327	-0.947556	0.078593
C96	C	1.211327	-0.697556	0.328593
C97	C	0.436278	-1.425358	-0.578575
C98	C	0.686278	-1.175358	-0.328575
C99	C	0.936278	-0.925358	-0.078575
C100	C	1.186278	-0.675358	0.171425
N101	N	0.505178	-1.486471	0.353652
N102	N	0.755178	-1.236471	0.603652
N103	N	1.005178	-0.986471	0.853652
N104	N	1.255178	-0.736471	1.103652
H105	H	0.557460	-1.046680	0.000015
H106	H	0.807460	-0.796680	0.250015
H107	H	1.057460	-0.546680	0.500015
H108	H	1.307460	-0.296680	0.750015
C109	C	0.641703	-0.848183	0.000031
C110	C	0.891703	-0.598183	0.250031
C111	C	1.141703	-0.348183	0.500031
C112	C	1.391703	-0.098183	0.750031
N113	N	0.736600	-0.889390	0.000040
N114	N	0.986600	-0.639390	0.250040
N115	N	1.236600	-0.389390	0.500040
N116	N	1.486600	-0.139390	0.750040
H117	H	0.288666	-1.038938	0.000041
H118	H	0.538666	-0.788938	0.250041
H119	H	0.788666	-0.538938	0.500041
H120	H	1.038666	-0.288938	0.750041
C121	C	0.609919	-1.579352	-0.567561
C122	C	0.859919	-1.329352	-0.317561
C123	C	1.109919	-1.079352	-0.067561
C124	C	1.359919	-0.829352	0.182439
N125	N	0.688811	-1.649306	-0.508217
N126	N	0.938811	-1.399306	-0.258217
N127	N	1.188811	-1.149306	-0.008217
N128	N	1.438811	-0.899306	0.241783
H129	H	0.340151	-0.826243	0.000046
H130	H	0.590151	-0.576243	0.250046
H131	H	0.840151	-0.326243	0.500046
H132	H	1.090151	-0.076243	0.750046
H133	H	0.538847	-1.516310	-0.363076
H134	H	0.788847	-1.266310	-0.113076
H135	H	1.038847	-1.016310	0.136924
H136	H	1.288847	-0.766310	0.386924
H137	H	0.358748	-1.356608	-0.636900
H138	H	0.608748	-1.106608	-0.386900
H139	H	0.858748	-0.856608	-0.136900
H140	H	1.108748	-0.606608	0.113100
H141	H	0.314913	-1.317706	-0.411961
H142	H	0.564913	-1.067706	-0.161961
H143	H	0.814913	-0.817706	0.088039
H144	H	1.064913	-0.567706	0.338039
