data_functionalizedCrystal
_audit_creation_method	'MofGen! by Chris Wilmer'
_symmetry_space_group_name_H-M	'P1'
_symmetry_Int_Tables_number	1
_symmetry_cell_setting	triclinic
loop_
_symmetry_equiv_pos_as_xyz
  x,y,z
_cell_length_a	10.654550
_cell_length_b	11.792254
_cell_length_c	9.130313
_cell_angle_alpha	89.995304
_cell_angle_beta	89.999724
_cell_angle_gamma	84.341764
loop_
_atom_site_label
_atom_site_type_symbol
_atom_site_fract_x
_atom_site_fract_y
_atom_site_fract_z
O1	O	1.667397	0.159419	-0.121691
O2	O	1.301876	0.174607	-0.121718
O3	O	1.493498	0.001864	-0.121693
O4	O	1.475774	0.332162	-0.121715
O5	O	1.493485	0.001859	0.121906
O6	O	1.301863	0.174602	0.121881
O7	O	1.667383	0.159414	0.121908
Cu8	Cu	1.484622	0.167008	0.144137
Cu9	Cu	1.484637	0.167014	-0.143947
O10	O	1.475761	0.332157	0.121884
C11	C	1.255074	0.173490	0.000078
C12	C	1.115640	0.170153	0.000068
C13	C	1.035872	0.271862	0.000066
C14	C	0.904860	0.268720	0.000091
C15	C	0.933397	0.062152	0.000116
C16	C	1.064407	0.065295	0.000101
C17	C	1.492375	-0.040432	0.000106
C18	C	1.489033	-0.166452	0.000104
C19	C	1.486318	-0.268795	0.000099
C20	C	1.482923	-0.397190	0.000085
C21	C	1.714185	0.160532	0.000109
C22	C	1.853619	0.163868	0.000109
C23	C	1.476884	0.374453	0.000081
C24	C	1.480226	0.500474	0.000073
N25	N	1.484620	0.167003	0.346760
N26	N	1.484649	0.167010	-0.346569
C27	C	1.569499	0.090544	0.423422
C28	C	1.569511	0.090545	0.576759
C29	C	1.399761	0.243471	0.576757
C30	C	1.399744	0.243465	0.423423
H31	H	1.129358	-0.017534	0.000107
H32	H	0.839917	0.351541	0.000092
C33	C	1.092226	0.387200	0.000045
H34	H	1.025951	0.447322	0.000061
H35	H	1.142733	0.392724	-0.084908
H36	H	1.142745	0.392717	0.084999
H37	H	1.638609	0.028283	0.361007
H38	H	1.638626	0.028284	0.639174
C39	C	1.306417	0.327583	0.661091
H40	H	1.318591	0.316646	0.763392
H41	H	1.222515	0.314554	0.635983
H42	H	1.320578	0.403452	0.635941
C43	C	0.877035	-0.053182	0.000133
H44	H	0.787586	-0.040489	0.000126
H45	H	0.904372	-0.095108	0.085081
H46	H	0.904364	-0.095098	-0.084826
C47	C	1.306375	0.327576	0.339088
H48	H	1.255841	0.373126	0.406705
H49	H	1.253818	0.286302	0.279288
H50	H	1.351875	0.375205	0.279258
