data_functionalizedCrystal
_audit_creation_method	'MofGen! by Chris Wilmer'
_symmetry_space_group_name_H-M	'P1'
_symmetry_Int_Tables_number	1
_symmetry_cell_setting	triclinic
loop_
_symmetry_equiv_pos_as_xyz
  x,y,z
_cell_length_a	16.959455
_cell_length_b	17.641144
_cell_length_c	16.959447
_cell_angle_alpha	78.810528
_cell_angle_beta	90.020374
_cell_angle_gamma	78.824102
loop_
_atom_site_label
_atom_site_type_symbol
_atom_site_fract_x
_atom_site_fract_y
_atom_site_fract_z
Zn1	Zn	1.271935	-0.314637	0.510736
Zn2	Zn	1.771935	0.185363	1.010736
Zn3	Zn	1.298550	-0.446791	0.405313
Zn4	Zn	1.798550	0.053209	0.905313
Zn5	Zn	1.139769	-0.314662	0.378565
Zn6	Zn	1.639769	0.185338	0.878565
Zn7	Zn	1.166409	-0.446732	0.537426
Zn8	Zn	1.666409	0.053268	1.037426
O9	O	1.219166	-0.380705	0.458010
O10	O	1.719166	0.119295	0.958010
O11	O	1.386079	-0.332181	0.496776
O12	O	1.886079	0.167819	0.996776
O13	O	1.277477	-0.429298	0.291161
O14	O	1.777477	0.070702	0.791161
O15	O	1.135013	-0.204080	0.373734
O16	O	1.635013	0.295920	0.873734
O17	O	1.405634	-0.429274	0.419322
O18	O	1.905634	0.070726	0.919322
O19	O	1.232115	-0.204061	0.470840
O20	O	1.732115	0.295939	0.970840
O21	O	1.160821	-0.332224	0.271509
O22	O	1.660821	0.167776	0.771509
O23	O	1.032689	-0.332167	0.399613
O24	O	1.532689	0.167833	0.899613
O25	O	1.180418	-0.429174	0.644489
O26	O	1.680418	0.070826	1.144489
O27	O	1.052261	-0.429198	0.516328
O28	O	1.552261	0.070802	1.016328
O29	O	1.257947	-0.332124	0.624880
O30	O	1.757947	0.167876	1.124880
O31	O	1.303309	-0.557361	0.445202
O32	O	1.803309	-0.057361	0.945202
O33	O	1.206226	-0.557318	0.542264
O34	O	1.706226	-0.057318	1.042264
C35	C	1.013794	-0.380679	0.457965
C36	C	1.513794	0.119321	0.957965
C37	C	0.925939	-0.380687	0.457968
C38	C	1.425939	0.119313	0.957968
C39	C	0.564628	-0.431211	0.417644
C40	C	1.064628	0.068789	0.917644
C41	C	0.544319	-0.330265	0.498486
C42	C	1.044319	0.169735	0.998486
C43	C	0.626863	-0.330252	0.498464
C44	C	1.126863	0.169748	0.998464
C45	C	0.678293	-0.380720	0.458032
C46	C	1.178293	0.119280	0.958032
C47	C	0.647180	-0.431202	0.417623
C48	C	1.147180	0.068798	0.917623
C49	C	0.657983	-0.279777	0.538880
C50	C	1.157983	0.220223	1.038880
C51	C	0.740531	-0.279762	0.538860
C52	C	1.240531	0.220238	1.038860
C53	C	0.791962	-0.330227	0.498423
C54	C	1.291962	0.169773	0.998423
C55	C	0.760844	-0.380710	0.458011
C56	C	1.260844	0.119290	0.958011
C57	C	0.812275	-0.431179	0.417580
C58	C	1.312275	0.068821	0.917580
C59	C	0.781158	-0.481658	0.377162
C60	C	1.281158	0.018342	0.877162
C61	C	0.698611	-0.481667	0.377186
C62	C	1.198611	0.018333	0.877186
C63	C	0.874509	-0.330219	0.498400
C64	C	1.374509	0.169781	0.998400
C65	C	0.894826	-0.431169	0.417558
C66	C	1.394826	0.068831	0.917558
C67	C	1.260568	-0.586011	0.499549
C68	C	1.760568	-0.086011	0.999549
C69	C	1.278352	-0.673842	0.517346
C70	C	1.778352	-0.173842	1.017346
C71	C	1.084346	-0.963049	0.322906
C72	C	1.584346	-0.463049	0.822906
C73	C	1.101070	-1.045579	0.339631
C74	C	1.601070	-0.545579	0.839631
C75	C	1.202068	-1.045432	0.440797
C76	C	1.702068	-0.545432	0.940797
C77	C	1.185349	-0.962900	0.424083
C78	C	1.685349	-0.462900	0.924083
C79	C	1.126488	-0.921715	0.365137
C80	C	1.626488	-0.421715	0.865137
C81	C	1.227492	-0.921566	0.466314
C82	C	1.727492	-0.421566	0.966314
C83	C	1.210777	-0.839041	0.449599
C84	C	1.710777	-0.339041	0.949599
C85	C	1.151921	-0.797850	0.390653
C86	C	1.651921	-0.297850	0.890653
C87	C	1.109774	-0.839190	0.348421
C88	C	1.609774	-0.339190	0.848421
C89	C	1.286356	-0.962753	0.525257
C90	C	1.786356	-0.462753	1.025257
C91	C	1.328499	-0.921419	0.567487
C92	C	1.828499	-0.421419	1.067487
C93	C	1.311781	-0.838892	0.550776
C94	C	1.811781	-0.338892	1.050776
C95	C	1.252924	-0.797701	0.491831
C96	C	1.752924	-0.297701	0.991831
C97	C	1.353927	-0.797552	0.593008
C98	C	1.853927	-0.297552	1.093008
C99	C	1.337213	-0.715027	0.576293
C100	C	1.837213	-0.215027	1.076293
C101	C	1.236210	-0.715176	0.475115
C102	C	1.736210	-0.215176	0.975115
C103	C	1.425339	-0.380732	0.458056
C104	C	1.925339	0.119268	0.958056
C105	C	1.513198	-0.380743	0.458075
C106	C	2.013198	0.119257	0.958075
C107	C	1.219185	-0.380640	0.664165
C108	C	1.719185	0.119360	1.164165
C109	C	1.219194	-0.380612	0.752016
C110	C	1.719194	0.119388	1.252016
C111	C	1.177623	-0.174597	0.416326
C112	C	1.677623	0.325403	0.916326
C113	C	1.159921	-0.086766	0.398563
C114	C	1.659921	0.413234	0.898563
C115	C	1.219180	-0.380713	0.252645
C116	C	1.719180	0.119287	0.752645
C117	C	1.219280	-0.380519	0.164750
C118	C	1.719280	0.119481	0.664750
C119	C	1.178905	-0.431058	1.133687
C120	C	1.678905	0.068942	1.633687
C121	C	1.259638	-0.329999	1.113263
C122	C	1.759638	0.170001	1.613263
C123	C	1.259620	-0.330016	1.030721
C124	C	1.759620	0.169984	1.530721
C125	C	1.219245	-0.380555	0.999658
C126	C	1.719245	0.119445	1.499658
C127	C	1.178888	-0.431078	1.051137
C128	C	1.678888	0.068922	1.551137
C129	C	1.299983	-0.279500	0.979236
C130	C	1.799983	0.220500	1.479236
C131	C	1.299968	-0.279516	0.896688
C132	C	1.799968	0.220484	1.396688
C133	C	1.259588	-0.330051	0.865623
C134	C	1.759588	0.169949	1.365623
C135	C	1.219228	-0.380575	0.917108
C136	C	1.719228	0.119425	1.417108
C137	C	1.178854	-0.431114	0.886045
C138	C	1.678854	0.068886	1.386045
C139	C	1.138489	-0.481635	0.937528
C140	C	1.638489	0.018365	1.437528
C141	C	1.138509	-0.481613	1.020072
C142	C	1.638509	0.018387	1.520072
C143	C	1.259568	-0.330073	0.783079
C144	C	1.759568	0.169927	1.283079
C145	C	1.178837	-0.431134	0.803495
C146	C	1.678837	0.068866	1.303495
H147	H	0.502441	-0.289180	0.531408
H148	H	1.002441	0.210820	1.031408
H149	H	0.616104	-0.238693	0.571803
H150	H	1.116104	0.261307	1.071803
H151	H	1.332834	-0.238378	0.854777
H152	H	1.832834	0.261622	1.354777
N153	N	0.836637	-0.536087	0.333555
N154	N	1.336637	-0.036087	0.833555
H155	H	0.819754	-0.523744	0.274604
H156	H	1.319754	-0.023744	0.774604
H157	H	0.833656	-0.592543	0.357227
H158	H	1.333656	-0.092543	0.857227
N159	N	1.094950	-0.536150	0.904022
N160	N	1.594950	-0.036150	1.404022
H161	H	1.101071	-0.528496	0.843919
H162	H	1.601071	-0.028496	1.343919
H163	H	1.036018	-0.523840	0.915948
H164	H	1.536018	-0.023840	1.415948
N165	N	0.774091	-0.225320	0.582450
N166	N	1.274091	0.274680	1.082450
H167	H	0.728984	-0.193352	0.608066
H168	H	1.228984	0.306648	1.108066
H169	H	0.800931	-0.188706	0.542917
H170	H	1.300931	0.311294	1.042917
N171	N	1.135370	-0.485551	1.189198
N172	N	1.635370	0.014449	1.689198
H173	H	1.076418	-0.473270	1.172334
H174	H	1.576418	0.026730	1.672334
H175	H	1.141559	-0.477853	1.246188
H176	H	1.641559	0.022147	1.746188
H177	H	0.899841	-0.289121	0.531309
H178	H	1.399841	0.210879	1.031309
N179	N	1.303188	-0.275497	1.146763
N180	N	1.803188	0.224503	1.646763
H181	H	1.297077	-0.283152	1.206868
H182	H	1.797077	0.216848	1.706868
H183	H	1.279506	-0.219063	1.120927
H184	H	1.779506	0.280937	1.620927
H185	H	1.105649	-0.522747	1.061996
H186	H	1.605649	-0.022747	1.561996
N187	N	1.046291	-0.794754	0.284843
N188	N	1.546291	-0.294754	0.784843
H189	H	1.002712	-0.760524	0.309998
H190	H	1.502712	-0.260524	0.809998
H191	H	1.022185	-0.833506	0.260642
H192	H	1.522185	-0.333506	0.760642
H193	H	1.145950	-0.472283	0.778210
H194	H	1.645950	0.027717	1.278210
H195	H	1.292435	-0.288942	0.741166
H196	H	1.792435	0.211058	1.241166
N197	N	1.391982	-0.965837	0.631065
N198	N	1.891982	-0.465837	1.131065
H199	H	1.435569	-1.000064	0.605916
H200	H	1.935569	-0.500064	1.105916
H201	H	1.366705	-1.000036	0.674577
H202	H	1.866705	-0.500036	1.174577
N203	N	1.382655	-0.670441	0.621851
N204	N	1.882655	-0.170441	1.121851
H205	H	1.363134	-0.611913	0.602316
H206	H	1.863134	-0.111913	1.102316
H207	H	1.442030	-0.684822	0.612526
H208	H	1.942030	-0.184822	1.112526
N209	N	0.950295	-0.485598	0.373942
N210	N	1.450295	0.014402	0.873942
H211	H	0.918054	-0.517573	0.348343
H212	H	1.418054	-0.017573	0.848343
H213	H	0.991950	-0.522205	0.413454
H214	H	1.491950	-0.022205	0.913454
N215	N	1.020858	-0.918628	0.259326
N216	N	1.520858	-0.418628	0.759326
H217	H	1.046070	-0.884385	0.215793
H218	H	1.546070	-0.384385	0.715793
H219	H	0.977294	-0.884444	0.284543
H220	H	1.477294	-0.384444	0.784543
H221	H	1.401857	-0.831098	0.640997
H222	H	1.901857	-0.331098	1.140997
H223	H	0.673267	-0.522764	0.344280
H224	H	1.173267	-0.022764	0.844280
H225	H	1.138316	-0.730653	0.377042
H226	H	1.638316	-0.230653	0.877042
N227	N	1.055616	-1.090163	0.294076
N228	N	1.555616	-0.590163	0.794076
H229	H	1.015794	-1.051547	0.254198
H230	H	1.515794	-0.551547	0.754198
H231	H	1.025951	-1.124415	0.333149
H232	H	1.525951	-0.624415	0.833149
N233	N	1.343533	-0.224998	1.012738
N234	N	1.843533	0.275002	1.512738
H235	H	1.337414	-0.232649	1.072841
H236	H	1.837414	0.267351	1.572841
H237	H	1.319855	-0.168564	0.986898
H238	H	1.819855	0.331436	1.486898
H239	H	0.539289	-0.472308	0.384734
H240	H	1.039289	0.027692	0.884734
H241	H	1.188273	-0.681642	0.427121
H242	H	1.688273	-0.181642	0.927121
H243	H	1.249994	-1.078976	0.488789
H244	H	1.749994	-0.578976	0.988789
H245	H	1.299965	-1.029950	0.538862
H246	H	1.799965	-0.529950	1.038862
