data_functionalizedCrystal
_audit_creation_method	'MofGen! by Chris Wilmer'
_symmetry_space_group_name_H-M	'P1'
_symmetry_Int_Tables_number	1
_symmetry_cell_setting	triclinic
loop_
_symmetry_equiv_pos_as_xyz
  x,y,z
_cell_length_a	10.967819
_cell_length_b	15.538191
_cell_length_c	10.065875
_cell_angle_alpha	95.296196
_cell_angle_beta	69.228723
_cell_angle_gamma	66.442818
loop_
_atom_site_label
_atom_site_type_symbol
_atom_site_fract_x
_atom_site_fract_y
_atom_site_fract_z
O1	O	1.707018	0.069651	-0.514965
O2	O	1.318305	0.093282	-0.423543
O3	O	1.588329	-0.057345	-0.487057
O4	O	1.436993	0.220278	-0.451451
O5	O	1.536786	-0.028510	-0.247944
O6	O	1.266762	0.122116	-0.184430
O7	O	1.655475	0.098486	-0.275853
Zn8	Zn	1.452935	0.114879	-0.192177
Zn9	Zn	1.520845	0.076889	-0.507218
O10	O	1.385451	0.249112	-0.212338
C11	C	1.243999	0.108157	-0.292572
C12	C	1.099389	0.109512	-0.258561
C13	C	0.912162	0.096585	-0.332140
C14	C	1.061627	0.095179	-0.367284
C15	C	1.578392	-0.078376	-0.371229
C16	C	1.625557	-0.183999	-0.382336
C17	C	1.157005	-0.461376	-0.272106
C18	C	1.201354	-0.560627	-0.282534
C19	C	1.450808	-0.588612	-0.341204
C20	C	1.406482	-0.489362	-0.330789
C21	C	1.259578	-0.425751	-0.296238
C22	C	1.509055	-0.453738	-0.354920
C23	C	1.464730	-0.354496	-0.344498
C24	C	1.317832	-0.290879	-0.309944
C25	C	1.215253	-0.326510	-0.285815
C26	C	1.655956	-0.517349	-0.389461
C27	C	1.758529	-0.481725	-0.413593
C28	C	1.714207	-0.382482	-0.403181
C29	C	1.567309	-0.318865	-0.368627
C30	C	1.816786	-0.346851	-0.427309
C31	C	1.772461	-0.247610	-0.416887
C32	C	1.522984	-0.219623	-0.358204
C33	C	1.729781	0.083610	-0.406827
C34	C	1.874393	0.082254	-0.440847
C35	C	1.395388	0.270143	-0.328169
C36	C	1.348225	0.375765	-0.317072
N37	N	1.406598	0.140806	0.022828
N38	N	1.567195	0.050954	-0.722226
C39	C	1.504717	0.085903	0.067527
C40	C	1.469062	0.105864	0.233081
H41	H	0.833840	0.109899	-0.213053
C42	C	1.088504	-0.599809	-0.255993
N43	N	1.003507	-0.629321	-0.236002
H44	H	1.615115	0.024118	-0.016765
H45	H	1.936391	-0.398656	-0.455426
C46	C	1.257446	0.224268	0.136702
N47	N	1.145102	0.287134	0.222471
H48	H	1.281744	-0.210069	-0.301451
C49	C	1.053651	-0.256531	-0.247809
N50	N	0.931937	-0.203824	-0.219178
C51	C	1.704711	-0.626519	-0.400929
N52	N	1.741433	-0.708746	-0.409570
C53	C	1.167424	0.077196	-0.528177
N54	N	1.247113	0.063649	-0.649359
C55	C	1.920119	-0.551707	-0.451599
N56	N	2.041833	-0.604418	-0.480232
C57	C	1.319903	0.189331	0.346952
N58	N	1.207558	0.252197	0.432721
C59	C	1.361382	-0.149645	-0.320198
N60	N	1.239668	-0.096937	-0.291567
H61	H	1.021071	0.122828	-0.139465
C62	C	0.980194	0.064272	-0.601732
N63	N	1.059883	0.050725	-0.722915
H64	H	1.037384	-0.409581	-0.243982
H65	H	1.855986	-0.218604	-0.436536
C66	C	1.716356	-0.032512	0.163905
N67	N	1.828705	-0.095376	0.078139
H68	H	1.570416	-0.640416	-0.369330
