data_functionalizedCrystal
_audit_creation_method	'MofGen! by Chris Wilmer'
_symmetry_space_group_name_H-M	'P1'
_symmetry_Int_Tables_number	1
_symmetry_cell_setting	triclinic
loop_
_symmetry_equiv_pos_as_xyz
  x,y,z
_cell_length_a	6.817900
_cell_length_b	11.102288
_cell_length_c	11.102280
_cell_angle_alpha	91.946070
_cell_angle_beta	108.605459
_cell_angle_gamma	108.605689
loop_
_atom_site_label
_atom_site_type_symbol
_atom_site_fract_x
_atom_site_fract_y
_atom_site_fract_z
V1	V	-4.111520	-0.175829	-0.396255
O2	O	-4.070552	0.008460	-0.388712
O3	O	-4.088297	-0.348649	-0.393545
O4	O	-4.088296	-0.173120	-0.569075
O5	O	-4.070553	-0.168285	-0.211966
V6	V	-4.588623	-0.153786	-0.374212
O7	O	-4.386860	-0.224181	-0.444607
O8	O	-4.763480	-0.105434	-0.325861
O9	O	-4.388639	0.019034	-0.376922
O10	O	-4.746987	-0.338075	-0.381756
O11	O	-4.746986	-0.161330	-0.558501
O12	O	-4.388640	-0.156496	-0.201392
C13	C	-3.938608	-0.390779	-0.387294
C14	C	-4.001075	-0.532062	-0.386230
C15	C	-4.214430	-0.604910	-0.392071
C16	C	-4.273118	-0.737662	-0.391081
C17	C	-3.905072	-0.724704	-0.378405
C18	C	-3.846392	-0.591956	-0.379403
C19	C	-3.938606	-0.166872	-0.611199
C20	C	-4.001068	-0.165801	-0.752480
C21	C	-3.970252	-0.048917	-0.800709
C22	C	-4.028935	-0.047922	-0.933460
C23	C	-4.149258	-0.280705	-0.969742
C24	C	-4.090561	-0.281698	-0.836993
C25	C	-3.918602	0.097342	-1.088926
C26	C	-3.887820	0.214231	-1.137160
C27	C	-3.933944	0.312590	-1.082219
C28	C	-4.010898	0.294064	-0.979047
C29	C	-4.041703	0.177173	-0.930821
C30	C	-3.995528	0.078820	-0.985757
C31	C	-4.200906	-0.426955	-0.681524
C32	C	-4.231724	-0.543847	-0.633296
C33	C	-4.185616	-0.642218	-0.688237
C34	C	-4.108701	-0.623705	-0.791416
C35	C	-4.077883	-0.506813	-0.839644
C36	C	-4.123982	-0.408442	-0.784694
C37	C	-4.201671	0.061157	-0.383170
C38	C	-4.118443	0.202439	-0.384242
C39	C	-4.201672	-0.162747	-0.159262
C40	C	-4.118448	-0.163812	-0.017979
H41	H	-3.897379	0.045454	-0.731901
H42	H	-4.446848	-0.796970	-0.395840
H43	H	-4.340386	-0.556149	-0.397628
O44	O	-3.994934	-0.486838	-0.950936
H45	H	-3.836947	-0.404241	-0.920783
O46	O	-3.738237	-0.789302	-0.371040
H47	H	-3.814876	-0.893847	-0.371318
O48	O	-3.616259	-0.513369	-0.373104
H49	H	-3.518546	-0.577313	-0.368170
O50	O	-4.060647	0.400150	-0.919776
H51	H	-4.190555	0.424084	-0.993877
H52	H	-3.908883	0.407763	-1.121500
H53	H	-3.825154	0.229307	-1.221163
H54	H	-3.881009	0.017263	-1.133659
O55	O	-4.124668	0.157180	-0.819542
H56	H	-4.151565	0.245216	-0.789433
H57	H	-4.210734	-0.737401	-0.648965
H58	H	-4.222132	-0.375064	-1.038568
O59	O	-4.059043	-0.729827	-0.850700
H60	H	-3.929126	-0.753770	-0.776614
O61	O	-4.314680	-0.563824	-0.522007
H62	H	-4.341534	-0.475776	-0.491888
H63	H	-4.238418	-0.346849	-0.636765
