data_functionalizedCrystal
_audit_creation_method	'MofGen! by Chris Wilmer'
_symmetry_space_group_name_H-M	'P1'
_symmetry_Int_Tables_number	1
_symmetry_cell_setting	triclinic
loop_
_symmetry_equiv_pos_as_xyz
  x,y,z
_cell_length_a	13.897449
_cell_length_b	13.897448
_cell_length_c	13.897441
_cell_angle_alpha	90.030599
_cell_angle_beta	90.022859
_cell_angle_gamma	90.017525
loop_
_atom_site_label
_atom_site_type_symbol
_atom_site_fract_x
_atom_site_fract_y
_atom_site_fract_z
Zn1	Zn	-1.474703	0.383988	-0.545436
Zn2	Zn	-1.224703	0.633988	-0.295436
Zn3	Zn	-0.974703	0.883988	-0.045436
Zn4	Zn	-0.724703	1.133988	0.204564
Zn5	Zn	-1.474597	0.545310	-0.384137
Zn6	Zn	-1.224597	0.795310	-0.134137
Zn7	Zn	-0.974597	1.045310	0.115863
Zn8	Zn	-0.724597	1.295310	0.365863
Zn9	Zn	-1.313392	0.384030	-0.384148
Zn10	Zn	-1.063392	0.634030	-0.134148
Zn11	Zn	-0.813392	0.884030	0.115852
Zn12	Zn	-0.563392	1.134030	0.365852
Zn13	Zn	-1.313373	0.545243	-0.545384
Zn14	Zn	-1.063373	0.795243	-0.295384
Zn15	Zn	-0.813373	1.045243	-0.045384
Zn16	Zn	-0.563373	1.295243	0.204616
O17	O	-1.394016	0.464643	-0.464776
O18	O	-1.144016	0.714643	-0.214776
O19	O	-0.894016	0.964643	0.035224
O20	O	-0.644016	1.214643	0.285224
O21	O	-1.609670	0.405399	-0.524056
O22	O	-1.359670	0.655399	-0.274056
O23	O	-1.109670	0.905399	-0.024056
O24	O	-0.859670	1.155399	0.225944
O25	O	-1.453176	0.523962	-0.249157
O26	O	-1.203176	0.773962	0.000843
O27	O	-0.953176	1.023962	0.250843
O28	O	-0.703176	1.273962	0.500843
O29	O	-1.334842	0.249043	-0.405570
O30	O	-1.084842	0.499043	-0.155570
O31	O	-0.834842	0.749043	0.094430
O32	O	-0.584842	0.999043	0.344430
O33	O	-1.609592	0.523921	-0.405551
O34	O	-1.359592	0.773921	-0.155551
O35	O	-1.109592	1.023921	0.094449
O36	O	-0.859592	1.273921	0.344449
O37	O	-1.453356	0.249012	-0.524067
O38	O	-1.203356	0.499012	-0.274067
O39	O	-0.953356	0.749012	-0.024067
O40	O	-0.703356	0.999012	0.225933
O41	O	-1.334739	0.405470	-0.249165
O42	O	-1.084739	0.655470	0.000835
O43	O	-0.834739	0.905470	0.250835
O44	O	-0.584739	1.155470	0.500835
O45	O	-1.178408	0.405405	-0.405519
O46	O	-0.928408	0.655405	-0.155519
O47	O	-0.678408	0.905405	0.094481
O48	O	-0.428408	1.155405	0.344481
O49	O	-1.334811	0.523806	-0.680372
O50	O	-1.084811	0.773806	-0.430372
O51	O	-0.834811	1.023806	-0.180372
O52	O	-0.584811	1.273806	0.069628
O53	O	-1.178394	0.523847	-0.523978
O54	O	-0.928394	0.773847	-0.273978
O55	O	-0.678394	1.023847	-0.023978
O56	O	-0.428394	1.273847	0.226022
O57	O	-1.453339	0.405333	-0.680411
O58	O	-1.203339	0.655333	-0.430411
O59	O	-0.953339	0.905333	-0.180411
O60	O	-0.703339	1.155333	0.069589
O61	O	-1.453158	0.680283	-0.405501
O62	O	-1.203158	0.930283	-0.155501
O63	O	-0.953158	1.180283	0.094499
O64	O	-0.703158	1.430283	0.344499
O65	O	-1.334708	0.680233	-0.523968
O66	O	-1.084708	0.930233	-0.273968
O67	O	-0.834708	1.180233	-0.023968
O68	O	-0.584708	1.430233	0.226032
C69	C	-1.143402	0.464624	-0.464745
C70	C	-0.893402	0.714624	-0.214745
C71	C	-0.643402	0.964624	0.035255
C72	C	-0.393402	1.214624	0.285255
C73	C	-1.036188	0.464639	-0.464755
C74	C	-0.786188	0.714639	-0.214755
C75	C	-0.536188	0.964639	0.035245
C76	C	-0.286188	1.214639	0.285245
C77	C	-0.839893	0.464637	-0.464773
C78	C	-0.589893	0.714637	-0.214773
C79	C	-0.339893	0.964637	0.035227
C80	C	-0.089893	1.214637	0.285227
C81	C	-0.949125	0.464635	-0.464760
C82	C	-0.699125	0.714635	-0.214760
C83	C	-0.449125	0.964635	0.035240
C84	C	-0.199125	1.214635	0.285240
C85	C	-1.393946	0.715257	-0.464748
C86	C	-1.143946	0.965257	-0.214748
C87	C	-0.893946	1.215257	0.035252
C88	C	-0.643946	1.465257	0.285252
C89	C	-1.394004	0.822471	-0.464769
C90	C	-1.144004	1.072471	-0.214769
C91	C	-0.894004	1.322471	0.035231
C92	C	-0.644004	1.572471	0.285231
C93	C	-1.394085	0.464558	-0.716369
C94	C	-1.144085	0.714558	-0.466369
C95	C	-0.894085	0.964558	-0.216369
C96	C	-0.644085	1.214558	0.033631
C97	C	-1.394114	0.464521	-0.823583
C98	C	-1.144114	0.714521	-0.573583
C99	C	-0.894114	0.964521	-0.323583
C100	C	-0.644114	1.214521	-0.073583
C101	C	-0.645609	0.464656	-0.464799
C102	C	-0.395609	0.714656	-0.214799
C103	C	-0.145609	0.964656	0.035201
C104	C	0.104391	1.214656	0.285201
C105	C	-0.752823	0.464646	-0.464785
C106	C	-0.502823	0.714646	-0.214785
C107	C	-0.252823	0.964646	0.035215
C108	C	-0.002823	1.214646	0.285215
C109	C	-1.394113	0.213050	-0.464825
C110	C	-1.144113	0.463050	-0.214825
C111	C	-0.894113	0.713050	0.035175
C112	C	-0.644113	0.963050	0.285175
C113	C	-1.394154	0.105836	-0.464846
C114	C	-1.144154	0.355836	-0.214846
C115	C	-0.894154	0.605836	0.035154
C116	C	-0.644154	0.855836	0.285154
C117	C	-1.394105	1.018766	-0.464829
C118	C	-1.144105	1.268766	-0.214829
C119	C	-0.894105	1.518766	0.035171
C120	C	-0.644105	1.768766	0.285171
C121	C	-1.394046	0.909534	-0.464798
C122	C	-1.144046	1.159534	-0.214798
C123	C	-0.894046	1.409534	0.035202
C124	C	-0.644046	1.659534	0.285202
C125	C	-1.394140	0.464456	-1.019879
C126	C	-1.144140	0.714456	-0.769879
C127	C	-0.894140	0.964456	-0.519879
C128	C	-0.644140	1.214456	-0.269879
C129	C	-1.394122	0.464495	-0.910646
C130	C	-1.144122	0.714495	-0.660646
C131	C	-0.894122	0.964495	-0.410646
C132	C	-0.644122	1.214495	-0.160646
C133	C	-1.394003	0.464658	-0.214162
C134	C	-1.144003	0.714658	0.035838
C135	C	-0.894003	0.964658	0.285838
C136	C	-0.644003	1.214658	0.535838
C137	C	-1.394161	0.464423	-0.106949
C138	C	-1.144161	0.714423	0.143051
C139	C	-0.894161	0.964423	0.393051
C140	C	-0.644161	1.214423	0.643051
