data_functionalizedCrystal
_audit_creation_method	'MofGen! by Chris Wilmer'
_symmetry_space_group_name_H-M	'P1'
_symmetry_Int_Tables_number	1
_symmetry_cell_setting	triclinic
loop_
_symmetry_equiv_pos_as_xyz
  x,y,z
_cell_length_a	11.792254
_cell_length_b	9.616153
_cell_length_c	10.540539
_cell_angle_alpha	90.000094
_cell_angle_beta	84.362045
_cell_angle_gamma	90.006826
loop_
_atom_site_label
_atom_site_type_symbol
_atom_site_fract_x
_atom_site_fract_y
_atom_site_fract_z
O1	O	1.507358	0.115637	0.174063
O2	O	1.177065	0.115640	0.191978
O3	O	1.349747	0.115637	-0.001711
O4	O	1.334676	0.115640	0.367751
O5	O	1.349723	-0.115655	-0.001707
O6	O	1.177041	-0.115652	0.191982
O7	O	1.507334	-0.115654	0.174067
Zn8	Zn	1.342184	-0.152375	0.183025
Zn9	Zn	1.342215	0.152361	0.183019
O10	O	1.334652	-0.115651	0.367755
C11	C	1.134760	-0.000006	0.190851
C12	C	1.008738	-0.000004	0.187473
C13	C	0.906394	0.000001	0.184729
C14	C	0.777999	0.000002	0.181297
N15	N	1.342171	-0.360350	0.183028
C16	C	1.249515	-0.580718	0.286292
C17	C	1.249719	-0.419551	0.286677
C18	C	1.460839	-0.418800	0.212781
C19	C	1.460334	-0.580018	0.213511
C20	C	1.317340	-0.580262	0.049669
C21	C	1.314616	-0.419036	0.050542
C22	C	1.549639	-0.000006	0.175193
C23	C	1.675661	0.000002	0.178571
C24	C	1.348605	-0.000006	-0.049008
C25	C	1.345223	0.000001	-0.189945
N26	N	1.342237	0.360336	0.183006
C27	C	1.215653	0.000521	-0.372957
C28	C	1.219081	0.000001	-0.226349
C29	C	1.405915	-0.132078	-0.251795
C30	C	1.401610	-0.132189	-0.398326
C31	C	1.404203	0.130832	-0.398857
C32	C	1.405365	0.132579	-0.251879
C33	C	1.335794	-0.000005	0.415052
C34	C	1.339176	-0.000003	0.555989
H35	H	1.161546	-0.380035	0.268829
O36	O	1.270432	-0.634341	0.416608
H37	H	1.346582	-0.702790	0.408134
H38	H	1.531522	-0.380448	0.139591
H39	H	1.377674	-0.378742	-0.029981
O40	O	1.490332	-0.365325	0.340171
H41	H	1.420665	-0.297136	0.382489
H42	H	1.171324	0.094680	-0.183595
O43	O	1.350179	0.263467	-0.440472
H44	H	1.260197	0.268166	-0.398430
O45	O	1.346636	0.262020	-0.197471
H46	H	1.274914	0.232072	-0.126608
H47	H	1.232635	-0.620999	0.021261
H48	H	1.227317	-0.380835	0.027982
O49	O	1.149642	0.125975	-0.410622
H50	H	1.072627	0.091174	-0.454401
H51	H	1.497333	0.140554	-0.227952
H52	H	1.384945	-0.618380	-0.027203
H53	H	1.363736	-0.230366	-0.209059
O54	O	1.524889	0.132031	-0.461803
H55	H	1.538547	0.039949	-0.524949
O56	O	1.489177	-0.629825	0.342348
H57	H	1.503347	-0.538763	0.403547
O58	O	1.149897	-0.124245	-0.412728
H59	H	1.204810	-0.186629	-0.482880
O60	O	1.270917	-0.368438	0.417725
H61	H	1.271125	-0.253016	0.418462
O62	O	1.132349	-0.632141	0.263051
H63	H	1.138944	-0.700269	0.177641
O64	O	1.155379	-0.125636	-0.170817
H65	H	1.122011	-0.186265	-0.248694
H66	H	1.356736	-0.230921	-0.426380
H67	H	1.492330	-0.138182	-0.446585
H68	H	1.498551	-0.136989	-0.229738
H69	H	1.531543	-0.619007	0.141293
