data_functionalizedCrystal
_audit_creation_method	'MofGen! by Chris Wilmer'
_symmetry_space_group_name_H-M	'P1'
_symmetry_Int_Tables_number	1
_symmetry_cell_setting	triclinic
loop_
_symmetry_equiv_pos_as_xyz
  x,y,z
_cell_length_a	14.519709
_cell_length_b	13.596369
_cell_length_c	8.597275
_cell_angle_alpha	97.698824
_cell_angle_beta	84.510331
_cell_angle_gamma	90.012081
loop_
_atom_site_label
_atom_site_type_symbol
_atom_site_fract_x
_atom_site_fract_y
_atom_site_fract_z
O1	O	1.225510	-0.064224	0.205738
O2	O	1.475510	0.185776	0.455738
O3	O	1.725510	0.435776	0.705738
O4	O	1.975510	0.685776	0.955738
O5	O	0.957228	-0.062201	0.229966
O6	O	1.207228	0.187799	0.479966
O7	O	1.457228	0.437799	0.729966
O8	O	1.707228	0.687799	0.979966
O9	O	1.096647	-0.082569	-0.010598
O10	O	1.346647	0.167431	0.239402
O11	O	1.596647	0.417431	0.489402
O12	O	1.846647	0.667431	0.739402
O13	O	1.086091	-0.043855	0.446302
O14	O	1.336091	0.206145	0.696302
O15	O	1.586091	0.456145	0.946302
O16	O	1.836091	0.706145	1.196302
O17	O	1.096664	0.081012	-0.010611
O18	O	1.346664	0.331012	0.239389
O19	O	1.596664	0.581012	0.489389
O20	O	1.846664	0.831012	0.739389
O21	O	0.957245	0.101381	0.229953
O22	O	1.207245	0.351381	0.479953
O23	O	1.457245	0.601381	0.729953
O24	O	1.707245	0.851381	0.979953
O25	O	1.225527	0.099358	0.205725
O26	O	1.475527	0.349358	0.455725
O27	O	1.725527	0.599358	0.705725
O28	O	1.975527	0.849358	0.955725
Zn29	Zn	1.091389	0.126341	0.217837
Zn30	Zn	1.341389	0.376341	0.467837
Zn31	Zn	1.591389	0.626341	0.717837
Zn32	Zn	1.841389	0.876341	0.967837
Zn33	Zn	1.091366	-0.089185	0.217854
Zn34	Zn	1.341366	0.160815	0.467854
Zn35	Zn	1.591366	0.410815	0.717854
Zn36	Zn	1.841366	0.660815	0.967854
O37	O	1.086108	0.119726	0.446289
O38	O	1.336108	0.369726	0.696289
O39	O	1.586108	0.619726	0.946289
O40	O	1.836108	0.869726	1.196289
C41	C	0.922868	0.019491	0.228831
C42	C	1.172868	0.269491	0.478831
C43	C	1.422868	0.519491	0.728831
C44	C	1.672868	0.769491	0.978831
C45	C	0.820459	0.019193	0.225447
C46	C	1.070459	0.269193	0.475447
C47	C	1.320459	0.519193	0.725447
C48	C	1.570459	0.769193	0.975447
C49	C	0.445463	0.018182	0.212991
C50	C	0.695463	0.268182	0.462991
C51	C	0.945463	0.518182	0.712991
C52	C	1.195463	0.768182	0.962991
C53	C	0.549799	0.018462	0.216450
C54	C	0.799799	0.268462	0.466450
C55	C	1.049799	0.518462	0.716450
C56	C	1.299799	0.768462	0.966450
C57	C	0.632958	0.018686	0.219218
C58	C	0.882958	0.268686	0.469218
C59	C	1.132958	0.518686	0.719218
C60	C	1.382958	0.768686	0.969218
C61	C	0.737300	0.018969	0.222678
C62	C	0.987300	0.268969	0.472678
C63	C	1.237300	0.518969	0.722678
C64	C	1.487300	0.768969	0.972678
N65	N	1.091351	-0.236276	0.217855
N66	N	1.341351	0.013724	0.467855
N67	N	1.591351	0.263724	0.717855
N68	N	1.841351	0.513724	0.967855
C69	C	1.091354	-0.325274	0.217856
C70	C	1.341354	-0.075274	0.467856
C71	C	1.591354	0.174726	0.717856
C72	C	1.841354	0.424726	0.967856
C73	C	1.091368	-0.436926	0.217852
C74	C	1.341368	-0.186926	0.467852
C75	C	1.591368	0.063074	0.717852
C76	C	1.841368	0.313074	0.967852
C77	C	1.091383	-0.525917	0.217841
C78	C	1.341383	-0.275917	0.467841
C79	C	1.591383	-0.025917	0.717841
C80	C	1.841383	0.224083	0.967841
C81	C	1.091396	-0.637576	0.217835
C82	C	1.341396	-0.387576	0.467835
C83	C	1.591396	-0.137576	0.717835
C84	C	1.841396	0.112424	0.967835
C85	C	1.259887	0.017664	0.206861
C86	C	1.509887	0.267664	0.456861
C87	C	1.759887	0.517664	0.706861
C88	C	2.009887	0.767664	0.956861
C89	C	1.362296	0.017956	0.210244
C90	C	1.612296	0.267956	0.460244
C91	C	1.862296	0.517956	0.710244
C92	C	2.112296	0.767956	0.960244
C93	C	1.095521	-0.005735	-0.069079
C94	C	1.345521	0.244265	0.180921
C95	C	1.595521	0.494265	0.430921
C96	C	1.845521	0.744265	0.680921
C97	C	1.092130	-0.020506	-0.243313
C98	C	1.342130	0.229494	0.006687
C99	C	1.592130	0.479494	0.256687
C100	C	1.842130	0.729494	0.506687
N101	N	1.091411	0.273432	0.217824
N102	N	1.341411	0.523432	0.467824
N103	N	1.591411	0.773432	0.717824
N104	N	1.841411	1.023432	0.967824
C105	C	1.087234	0.042890	0.504770
C106	C	1.337234	0.292890	0.754770
C107	C	1.587234	0.542890	1.004770
C108	C	1.837234	0.792890	1.254770
C109	C	1.090625	0.057654	0.679005
C110	C	1.340625	0.307654	0.929005
C111	C	1.590625	0.557654	1.179005
C112	C	1.840625	0.807654	1.429005
H113	H	1.090825	-0.098718	-0.310102
H114	H	1.340825	0.151282	-0.060102
H115	H	1.590825	0.401282	0.189898
H116	H	1.840825	0.651282	0.439898
Br117	Br	1.092818	0.188024	-0.209682
Br118	Br	1.342818	0.438024	0.040318
Br119	Br	1.592818	0.688024	0.290318
Br120	Br	1.842818	0.938024	0.540318
