data_functionalizedCrystal
_audit_creation_method	'MofGen! by Chris Wilmer'
_symmetry_space_group_name_H-M	'P1'
_symmetry_Int_Tables_number	1
_symmetry_cell_setting	triclinic
loop_
_symmetry_equiv_pos_as_xyz
  x,y,z
_cell_length_a	17.640280
_cell_length_b	13.033304
_cell_length_c	13.033109
_cell_angle_alpha	105.201444
_cell_angle_beta	84.505550
_cell_angle_gamma	95.479665
loop_
_atom_site_label
_atom_site_type_symbol
_atom_site_fract_x
_atom_site_fract_y
_atom_site_fract_z
Zn1	Zn	-0.219076	-1.752289	-0.755353
Zn2	Zn	-0.331270	-1.756248	-0.551159
Zn3	Zn	-0.219086	-1.552094	-0.555147
Zn4	Zn	-0.359680	-1.607990	-0.699401
O5	O	-0.282278	-1.667155	-0.640265
O6	O	-0.222064	-1.898642	-0.750013
O7	O	-0.304503	-1.707431	-0.405861
O8	O	-0.113292	-1.553601	-0.606791
O9	O	-0.304493	-1.901551	-0.599993
O10	O	-0.113285	-1.700683	-0.753881
O11	O	-0.222082	-1.557440	-0.408792
O12	O	-0.249631	-1.413681	-0.552536
O13	O	-0.352915	-1.648867	-0.852650
O14	O	-0.352925	-1.454747	-0.658518
O15	O	-0.249613	-1.754883	-0.893758
O16	O	-0.440831	-1.761631	-0.545738
O17	O	-0.461704	-1.652706	-0.654651
C18	C	-0.304362	-1.396403	-0.599889
C19	C	-0.313830	-1.280581	-0.582636
C20	C	-0.277347	-1.227537	-0.649253
C21	C	-0.287132	-1.107829	-0.631423
C22	C	-0.478698	-1.713695	-0.593717
C23	C	-0.562723	-1.733706	-0.573852
C24	C	-0.893535	-1.515621	-0.791616
C25	C	-0.972486	-1.534421	-0.772917
C26	C	-0.950690	-1.647947	-0.659654
C27	C	-0.871735	-1.629161	-0.678347
C28	C	-0.843165	-1.562996	-0.744328
C29	C	-0.821365	-1.676535	-0.631059
C30	C	-0.742417	-1.657746	-0.649746
C31	C	-0.713840	-1.591581	-0.715722
C32	C	-0.764217	-1.544206	-0.763015
C33	C	-0.849937	-1.742694	-0.565072
C34	C	-0.799566	-1.790068	-0.517784
C35	C	-0.720617	-1.771285	-0.536477
C36	C	-0.692040	-1.705121	-0.602453
C37	C	-0.670241	-1.818660	-0.489184
C38	C	-0.591293	-1.799871	-0.507871
C39	C	-0.613093	-1.686331	-0.621140
C40	C	-0.085091	-1.620465	-0.687022
C41	C	-0.001061	-1.600569	-0.706947
C42	C	-0.304432	-1.707668	-0.912072
C43	C	-0.313872	-1.724933	-1.027900
C44	C	-0.260104	-0.938964	-0.680793
C45	C	-0.250643	-1.054787	-0.698049
C46	C	-0.277301	-1.658417	-1.080989
C47	C	-0.287058	-1.676259	-1.200704
C48	C	-0.260151	-1.626847	-0.369538
C49	C	-0.250481	-1.609734	-0.253791
H50	H	-0.649556	-1.576276	-0.730928
H51	H	-0.693515	-1.872523	-0.435454
H52	H	-0.740955	-1.490337	-0.816753
O53	O	-0.827280	-1.854196	-0.453532
C54	C	-0.801376	-1.811453	-0.350841
H55	H	-0.786084	-1.722258	-0.338222
H56	H	-0.748740	-1.852376	-0.342849
C57	C	-0.883620	-1.939519	-0.282008
C58	C	-0.864845	-1.829966	-0.266506
H59	H	-0.922768	-1.950942	-0.229986
H60	H	-0.901071	-1.968319	-0.351194
H61	H	-0.839752	-1.973609	-0.275349
H62	H	-0.908710	-1.795881	-0.273179
H63	H	-0.847403	-1.801160	-0.197320
H64	H	-0.325611	-1.064623	-0.561183
H65	H	-0.238865	-1.270745	-0.719482
H66	H	-0.352307	-1.237371	-0.512401
O67	O	-0.204678	-1.106146	-0.781870
C68	C	-0.172672	-1.033587	-0.840363
H69	H	-0.172830	-0.948974	-0.786838
H70	H	-0.207826	-1.040442	-0.911160
C71	C	-0.089818	-1.163290	-0.946664
C72	C	-0.090005	-1.059367	-0.880922
H73	H	-0.038826	-1.179193	-0.971688
H74	H	-0.111382	-1.212176	-0.907260
H75	H	-0.119117	-1.168989	-1.005654
H76	H	-0.060715	-1.053673	-0.821927
H77	H	-0.068434	-1.010480	-0.920317
H78	H	-0.352406	-1.795087	-1.071075
H79	H	-0.550280	-1.838447	-0.469363
O80	O	-0.585419	-1.622165	-0.685380
C81	C	-0.611278	-1.664950	-0.788092
H82	H	-0.665492	-1.718960	-0.782692
H83	H	-0.565307	-1.713168	-0.841733
C84	C	-0.561807	-1.507258	-0.841755
C85	C	-0.628397	-1.573587	-0.835122
H86	H	-0.572363	-1.450902	-0.870768
H87	H	-0.544382	-1.478434	-0.772558
H88	H	-0.523504	-1.547452	-0.886454
H89	H	-0.666695	-1.533396	-0.790413
H90	H	-0.645828	-1.602402	-0.904313
H91	H	-1.013497	-1.495853	-0.811444
H92	H	-0.870273	-1.461752	-0.845353
O93	O	-0.231333	-1.574800	-1.029339
C94	C	-0.231836	-1.575590	-0.921305
H95	H	-0.248843	-1.659690	-0.912667
H96	H	-0.274637	-1.518738	-0.871652
C97	C	-0.130705	-1.436352	-0.892644
C98	C	-0.151587	-1.539648	-0.882036
H99	H	-0.081205	-1.414177	-0.868419
H100	H	-0.130368	-1.435816	-0.965428
H101	H	-0.166379	-1.388989	-0.851266
H102	H	-0.115919	-1.587012	-0.923424
H103	H	-0.151916	-1.540191	-0.809258
H104	H	-0.325594	-1.746418	-1.243875
O105	O	-0.978489	-1.712346	-0.595711
C106	C	-1.023486	-1.799295	-0.654310
H107	H	-1.005850	-1.812248	-0.742976
H108	H	-1.086253	-1.781831	-0.638902
C109	C	-1.033332	-1.884454	-0.510458
C110	C	-1.011667	-1.900370	-0.619359
H111	H	-1.026045	-1.946802	-0.488897
H112	H	-1.003020	-1.825874	-0.470977
H113	H	-1.085637	-1.869899	-0.497632
H114	H	-0.959360	-1.914911	-0.632182
H115	H	-1.041970	-1.958955	-0.658842
O116	O	-0.204607	-1.525987	-1.202152
C117	C	-0.248048	-1.459537	-1.118968
H118	H	-0.301032	-1.507458	-1.094662
H119	H	-0.266043	-1.390478	-1.147369
C120	C	-0.134546	-1.356648	-1.052421
C121	C	-0.199618	-1.415508	-1.022562
H122	H	-0.104671	-1.329484	-0.992955
H123	H	-0.105278	-1.401413	-1.108466
H124	H	-0.149551	-1.299107	-1.076090
H125	H	-0.184612	-1.473056	-0.998907
H126	H	-0.228881	-1.370752	-0.966511
H127	H	-0.914222	-1.757993	-0.549862
