data_functionalizedCrystal
_audit_creation_method	'MofGen! by Chris Wilmer'
_symmetry_space_group_name_H-M	'P1'
_symmetry_Int_Tables_number	1
_symmetry_cell_setting	triclinic
loop_
_symmetry_equiv_pos_as_xyz
  x,y,z
_cell_length_a	14.044202
_cell_length_b	17.666332
_cell_length_c	14.044220
_cell_angle_alpha	90.006987
_cell_angle_beta	86.809211
_cell_angle_gamma	89.993331
loop_
_atom_site_label
_atom_site_type_symbol
_atom_site_fract_x
_atom_site_fract_y
_atom_site_fract_z
O1	O	-1.277179	0.062914	0.230212
O2	O	-0.943845	0.396247	0.563546
O3	O	-0.610512	0.729580	0.896879
O4	O	-1.000506	0.062923	0.221897
O5	O	-0.667173	0.396257	0.555231
O6	O	-0.333840	0.729590	0.888564
O7	O	-1.134690	0.062911	0.087719
O8	O	-0.801356	0.396244	0.421052
O9	O	-0.468023	0.729578	0.754386
O10	O	-1.142995	0.062926	0.364391
O11	O	-0.809662	0.396259	0.697724
O12	O	-0.476329	0.729592	1.031057
O13	O	-1.134663	-0.062986	0.087709
O14	O	-0.801330	0.270348	0.421042
O15	O	-0.467997	0.603681	0.754376
O16	O	-1.000480	-0.062973	0.221887
O17	O	-0.667147	0.270360	0.555221
O18	O	-0.333813	0.603693	0.888554
O19	O	-1.277152	-0.062983	0.230202
O20	O	-0.943819	0.270350	0.563536
O21	O	-0.610486	0.603683	0.896869
Cu22	Cu	-1.138814	-0.074474	0.226044
Cu23	Cu	-0.805480	0.258860	0.559377
Cu24	Cu	-0.472147	0.592193	0.892711
Cu25	Cu	-1.138845	0.074414	0.226056
Cu26	Cu	-0.805512	0.407747	0.559389
Cu27	Cu	-0.472178	0.741080	0.892723
O28	O	-1.142969	-0.062971	0.364381
O29	O	-0.809636	0.270362	0.697714
O30	O	-0.476302	0.603696	1.031047
C31	C	-0.964871	-0.000024	0.218256
C32	C	-0.631538	0.333309	0.551589
C33	C	-0.298205	0.666643	0.884922
C34	C	-0.858728	-0.000020	0.207407
C35	C	-0.525395	0.333313	0.540741
C36	C	-0.192061	0.666646	0.874074
N37	N	-1.138799	-0.179193	0.226036
N38	N	-0.805465	0.154140	0.559369
N39	N	-0.472132	0.487474	0.892702
C40	C	-0.613270	-0.000025	0.264506
C41	C	-0.279936	0.333309	0.597839
C42	C	0.053397	0.666642	0.931173
C43	C	-0.664395	-0.000027	0.187590
C44	C	-0.331062	0.333306	0.520923
C45	C	0.002271	0.666639	0.854257
C46	C	-0.772532	-0.000024	0.198619
C47	C	-0.439199	0.333310	0.531952
C48	C	-0.105865	0.666643	0.865286
C49	C	-0.505123	-0.000029	0.253478
C50	C	-0.171790	0.333305	0.586812
C51	C	0.161544	0.666638	0.920145
C52	C	-1.198239	-0.218808	0.166655
C53	C	-0.864905	0.114525	0.499988
C54	C	-0.531572	0.447858	0.833322
C55	C	-1.198244	-0.298056	0.166651
C56	C	-0.864911	0.035277	0.499984
C57	C	-0.531577	0.368611	0.833318
C58	C	-1.138820	-0.337685	0.226045
C59	C	-0.805486	-0.004352	0.559378
C60	C	-0.472153	0.328981	0.892711
C61	C	-1.079368	-0.298061	0.285429
C62	C	-0.746034	0.035273	0.618763
C63	C	-0.412701	0.368606	0.952096
C64	C	-1.079357	-0.218815	0.285425
C65	C	-0.746024	0.114519	0.618758
C66	C	-0.412691	0.447852	0.952091
N67	N	-1.133810	-0.462099	0.309494
N68	N	-0.800476	-0.128766	0.642827
N69	N	-0.467143	0.204567	0.976160
N70	N	-1.133825	-0.537380	0.309495
N71	N	-0.800492	-0.204046	0.642829
N72	N	-0.467158	0.129287	0.976162
C73	C	-1.138846	-0.576449	0.226060
C74	C	-0.805512	-0.243116	0.559394
C75	C	-0.472179	0.090217	0.892727
N76	N	-1.143869	-0.537395	0.142622
N77	N	-0.810536	-0.204061	0.475955
N78	N	-0.477203	0.129272	0.809289
N79	N	-1.143859	-0.462107	0.142622
N80	N	-0.810526	-0.128774	0.475955
N81	N	-0.477192	0.204559	0.809288
C82	C	-1.138824	-0.423614	0.226056
C83	C	-0.805490	-0.090281	0.559389
C84	C	-0.472157	0.243052	0.892722
C85	C	-1.198295	-0.701994	0.166670
C86	C	-0.864961	-0.368660	0.500003
C87	C	-0.531628	-0.035327	0.833337
C88	C	-1.198293	-0.781243	0.166664
C89	C	-0.864960	-0.447910	0.499997
C90	C	-0.531626	-0.114576	0.833331
C91	C	-1.079422	-0.781246	0.285451
C92	C	-0.746089	-0.447913	0.618784
C93	C	-0.412755	-0.114579	0.952118
C94	C	-1.079418	-0.701998	0.285448
C95	C	-0.746085	-0.368665	0.618782
C96	C	-0.412752	-0.035332	0.952115
C97	C	-1.138860	-0.662377	0.226059
C98	C	-0.805526	-0.329044	0.559393
C99	C	-0.472193	0.004290	0.892726
C100	C	-0.312788	-0.000034	0.233842
C101	C	0.020546	0.333299	0.567176
C102	C	0.353879	0.666633	0.900509
C103	C	-0.418931	-0.000032	0.244684
C104	C	-0.085598	0.333302	0.578018
C105	C	0.247736	0.666635	0.911351
C106	C	-1.131041	-0.000037	0.052092
C107	C	-0.797707	0.333296	0.385425
C108	C	-0.464374	0.666629	0.718759
C109	C	-1.120196	-0.000038	-0.054051
C110	C	-0.786863	0.333295	0.279282
C111	C	-0.453529	0.666629	0.612616
N112	N	-1.138867	0.179133	0.226057
N113	N	-0.805534	0.512467	0.559391
N114	N	-0.472200	0.845800	0.892724
C115	C	-1.100370	-0.000026	-0.248389
C116	C	-0.767037	0.333307	0.084944
C117	C	-0.433703	0.666640	0.418277
C118	C	-1.177284	-0.000027	-0.299517
C119	C	-0.843951	0.333306	0.033817
C120	C	-0.510618	0.666640	0.367150
C121	C	-1.166253	-0.000020	-0.407653
C122	C	-0.832920	0.333313	-0.074320
C123	C	-0.499586	0.666646	0.259013
C124	C	-1.111400	-0.000033	-0.140243
C125	C	-0.778067	0.333300	0.193090
C126	C	-0.444733	0.666634	0.526424
C127	C	-1.146618	-0.000021	0.400008
C128	C	-0.813284	0.333313	0.733341
C129	C	-0.479951	0.666646	1.066674
C130	C	-1.157462	-0.000015	0.506151
C131	C	-0.824129	0.333318	0.839484
C132	C	-0.490796	0.666651	1.172818
H133	H	-0.626952	0.000022	0.113457
H134	H	-0.293618	0.333355	0.446791
H135	H	0.039715	0.666689	0.780124
Cl136	Cl	-0.985920	-0.000019	-0.306193
Cl137	Cl	-0.652586	0.333315	0.027140
Cl138	Cl	-0.319253	0.666648	0.360473
Cl139	Cl	-0.671077	-0.000009	0.378955
Cl140	Cl	-0.337743	0.333324	0.712288
Cl141	Cl	-0.004410	0.666657	1.045622
Cl142	Cl	-1.272976	-0.347866	0.091995
Cl143	Cl	-0.939643	-0.014533	0.425328
Cl144	Cl	-0.606310	0.318800	0.758662
Cl145	Cl	-1.272958	-0.168999	0.091991
Cl146	Cl	-0.939625	0.164334	0.425324
Cl147	Cl	-0.606291	0.497668	0.758658
H148	H	-1.030982	-0.330331	0.333787
H149	H	-0.697648	0.003003	0.667120
H150	H	-0.364315	0.336336	1.000454
H151	H	-1.246693	-0.669733	0.118309
H152	H	-0.913359	-0.336399	0.451642
H153	H	-0.580026	-0.003066	0.784975
Cl154	Cl	-1.004628	-0.169009	0.360082
Cl155	Cl	-0.671294	0.164324	0.693415
Cl156	Cl	-0.337961	0.497657	1.026749
H157	H	-1.031033	-0.813512	0.333807
H158	H	-0.697700	-0.480178	0.667140
H159	H	-0.364367	-0.146845	1.000473
Cl160	Cl	-1.273018	-0.831048	0.092002
Cl161	Cl	-0.939684	-0.497715	0.425335
Cl162	Cl	-0.606351	-0.164381	0.758668
Cl163	Cl	-1.004695	-0.652192	0.360107
Cl164	Cl	-0.671362	-0.318858	0.693441
Cl165	Cl	-0.338029	0.014475	1.026774
H166	H	-1.251418	0.000021	-0.262075
H167	H	-0.918085	0.333355	0.071258
H168	H	-0.584751	0.666688	0.404592
