data_functionalizedCrystal
_audit_creation_method	'MofGen! by Chris Wilmer'
_symmetry_space_group_name_H-M	'P1'
_symmetry_Int_Tables_number	1
_symmetry_cell_setting	triclinic
loop_
_symmetry_equiv_pos_as_xyz
  x,y,z
_cell_length_a	15.995292
_cell_length_b	15.995350
_cell_length_c	14.048226
_cell_angle_alpha	90.000012
_cell_angle_beta	90.009306
_cell_angle_gamma	83.480495
loop_
_atom_site_label
_atom_site_type_symbol
_atom_site_fract_x
_atom_site_fract_y
_atom_site_fract_z
O1	O	1.111021	0.107691	0.079182
O2	O	0.867239	0.121070	0.079177
O3	O	0.995794	-0.007509	0.079179
O4	O	0.982466	0.236269	0.079180
O5	O	0.995773	-0.007505	-0.079143
O6	O	0.867218	0.121073	-0.079144
O7	O	1.111000	0.107694	-0.079140
Zn8	Zn	0.989106	0.114384	-0.104279
Zn9	Zn	0.989133	0.114380	0.104316
O10	O	0.982445	0.236273	-0.079141
C11	C	0.836033	0.120527	0.000016
C12	C	0.743080	0.118894	0.000015
C13	C	0.405341	0.112893	0.000025
C14	C	0.428654	0.205697	0.000379
C15	C	0.525329	0.207461	0.000019
C16	C	0.572897	0.115871	0.000021
C17	C	0.543784	0.069475	-0.090386
C18	C	0.446993	0.068358	-0.090457
C19	C	0.447161	0.066459	0.089584
C20	C	0.543654	0.069898	0.090774
C21	C	0.667593	0.117549	0.000015
C22	C	0.310646	0.111212	0.000025
C23	C	0.995232	-0.038702	0.000020
C24	C	0.993580	-0.131652	0.000025
C25	C	0.987648	-0.469398	0.000022
C26	C	0.896094	-0.421945	0.000375
C27	C	0.897746	-0.325255	0.000018
C28	C	0.990591	-0.301838	0.000024
C29	C	1.035737	-0.342923	-0.090383
C30	C	1.033437	-0.439558	-0.090458
C31	C	1.035352	-0.439921	0.089583
C32	C	1.035330	-0.342975	0.090777
C33	C	0.992259	-0.207141	0.000022
C34	C	0.985983	-0.564095	0.000017
C35	C	1.142206	0.108237	0.000024
C36	C	1.235159	0.109870	0.000031
C37	C	0.983006	0.267466	0.000020
C38	C	0.984658	0.360416	0.000021
N39	N	0.989093	0.114386	-0.246639
C40	C	1.046084	0.057460	-0.703478
C41	C	1.046077	0.057465	-0.603821
C42	C	0.989132	0.114379	-0.554009
C43	C	0.932198	0.171296	-0.603861
C44	C	0.932210	0.171294	-0.703517
C45	C	0.932175	0.171296	-0.396147
C46	C	0.932161	0.171298	-0.296484
C47	C	1.046041	0.057468	-0.296451
C48	C	1.046054	0.057465	-0.396106
C49	C	0.989118	0.114382	-0.445951
N50	N	0.989152	0.114371	0.246677
H51	H	0.420167	0.100492	-0.158039
H52	H	0.544364	0.243792	0.064828
H53	H	0.862257	-0.296827	0.064825
H54	H	1.102854	-0.471695	0.090194
N55	N	0.409747	0.104969	0.180351
H56	H	0.455456	0.126903	0.219620
H57	H	0.383406	0.060867	0.217836
N58	N	0.585997	-0.019800	-0.094852
H59	H	0.624492	-0.031054	-0.038178
H60	H	0.619918	-0.027924	-0.155446
N61	N	0.995721	-0.467121	0.180353
H62	H	0.946438	-0.498832	0.164334
H63	H	0.975557	-0.415862	0.219584
N64	N	0.568276	0.114627	0.179373
H65	H	0.598249	0.164463	0.160813
H66	H	0.606919	0.074558	0.219469
H67	H	0.576625	0.003046	0.096236
H68	H	0.859509	-0.440470	0.065208
N69	N	0.870798	0.232675	-0.757275
H70	H	0.833736	0.200661	-0.798636
H71	H	0.902854	0.269749	-0.798556
N72	N	0.870747	0.232687	-0.242760
H73	H	0.902740	0.269767	-0.201399
H74	H	0.833686	0.200615	-0.201483
N75	N	1.107454	-0.003918	-0.242693
H76	H	1.144521	0.028096	-0.201339
H77	H	1.143469	-0.039960	-0.289430
H78	H	0.433168	-0.001851	0.090196
N79	N	1.125018	-0.322653	0.098014
H80	H	1.164574	-0.376561	0.097211
H81	H	1.132519	-0.291430	0.159357
H82	H	0.400666	0.241467	0.065214
H83	H	0.862002	-0.297381	-0.064900
H84	H	1.100654	-0.471820	-0.094557
N85	N	0.870770	0.232686	-0.449911
H86	H	0.834692	0.268740	-0.403236
H87	H	0.833765	0.200612	-0.491271
H88	H	1.092451	0.011111	-0.744028
N89	N	0.570338	0.112149	-0.179513
H90	H	0.601219	0.161525	-0.161535
H91	H	0.518871	0.132654	-0.218254
H92	H	0.859654	-0.441530	-0.064097
H93	H	1.000499	-0.457852	-0.158043
H94	H	1.103947	-0.328812	-0.093741
H95	H	0.885835	0.217641	-0.563299
H96	H	1.004363	-0.314534	-0.157664
H97	H	1.092435	0.011125	-0.563238
N98	N	1.107484	-0.003904	-0.449835
H99	H	1.143559	-0.039952	-0.403139
H100	H	1.144490	0.028191	-0.491158
N101	N	0.991665	-0.306820	0.179376
H102	H	0.943106	-0.263970	0.160815
H103	H	1.032895	-0.278831	0.219500
N104	N	0.427712	-0.021769	-0.095925
H105	H	0.364747	-0.023196	-0.096021
H106	H	0.453106	-0.053977	-0.039101
H107	H	0.399627	0.241271	-0.064091
H108	H	0.543724	0.244019	-0.064898
