data_functionalizedCrystal
_audit_creation_method	'MofGen! by Chris Wilmer'
_symmetry_space_group_name_H-M	'P1'
_symmetry_Int_Tables_number	1
_symmetry_cell_setting	triclinic
loop_
_symmetry_equiv_pos_as_xyz
  x,y,z
_cell_length_a	14.908308
_cell_length_b	18.215407
_cell_length_c	14.908571
_cell_angle_alpha	93.318172
_cell_angle_beta	83.640574
_cell_angle_gamma	86.720391
loop_
_atom_site_label
_atom_site_type_symbol
_atom_site_fract_x
_atom_site_fract_y
_atom_site_fract_z
Zn1	Zn	-0.532552	-1.081608	0.390067
Zn2	Zn	-0.389920	-1.081513	0.532712
Zn3	Zn	-0.381211	-0.966080	0.381349
Zn4	Zn	-0.541230	-0.950969	0.541362
O5	O	-0.461228	-1.020043	0.461372
O6	O	-0.513644	-1.184578	0.409017
O7	O	-0.262104	-1.072485	0.505365
O8	O	-0.394010	-0.987769	0.255841
O9	O	-0.408853	-1.184508	0.513818
O10	O	-0.505200	-1.072647	0.262247
O11	O	-0.255706	-0.987676	0.394159
O12	O	-0.402425	-0.861093	0.402546
O13	O	-0.666739	-0.962014	0.528561
O14	O	-0.519990	-0.849991	0.520107
O15	O	-0.660363	-1.057995	0.417405
O16	O	-0.417268	-1.057832	0.660523
O17	O	-0.528435	-0.961922	0.666878
C18	C	-0.461204	-0.828840	0.461320
C19	C	-0.461217	-0.747040	0.461320
C20	C	-0.515881	-0.482002	0.406887
C21	C	-0.515879	-0.558862	0.406877
C22	C	-0.406577	-0.558825	0.515828
C23	C	-0.406585	-0.481967	0.515842
C24	C	-0.461235	-0.443558	0.461366
C25	C	-0.461225	-0.597275	0.461342
C26	C	-0.461222	-0.680610	0.461331
C27	C	-0.461239	-0.360218	0.461378
C28	C	-0.697311	-1.008329	0.474920
C29	C	-0.797916	-1.003338	0.480693
C30	C	-0.980324	-1.093902	0.375774
C31	C	-1.074851	-1.089214	0.381196
C32	C	-1.081498	-0.989273	0.496952
C33	C	-0.986971	-0.993960	0.491531
C34	C	-0.936387	-1.046277	0.430941
C35	C	-0.841859	-1.050968	0.425525
C36	C	-0.848507	-0.951023	0.541276
C37	C	-0.943034	-0.946336	0.546697
C38	C	-0.226060	-1.031756	0.447812
C39	C	-0.125441	-1.036902	0.441784
C40	C	-0.474758	-1.008246	0.696544
C41	C	-0.480576	-1.003265	0.797153
C42	C	-0.461247	-0.211993	0.461410
C43	C	-0.461243	-0.293793	0.461388
C44	C	-0.546600	-0.946276	0.942296
C45	C	-0.541140	-0.950954	0.847765
C46	C	-0.425470	-1.050904	0.841079
C47	C	-0.430931	-1.046226	0.935610
C48	C	-0.491497	-0.993909	0.986215
C49	C	-0.496952	-0.989228	1.080748
C50	C	-0.381287	-1.089181	1.074061
C51	C	-0.375827	-1.093859	0.979530
C52	C	-0.447656	-1.031881	1.225283
C53	C	-0.441846	-1.036867	1.124674
H54	H	-0.800675	-1.093568	0.376190
H55	H	-0.362081	-0.590107	0.560178
H56	H	-0.586012	-0.912167	0.812008
O57	O	-0.555836	-0.938508	1.130010
C58	C	-0.617509	-0.974766	1.187975
H59	H	-0.586461	-1.031439	1.200270
H60	H	-0.633451	-0.940891	1.255166
H61	H	-0.682487	-0.981287	1.155364
O62	O	-0.327934	-1.135486	1.116875
C63	C	-0.345765	-1.120162	1.211164
H64	H	-0.416290	-1.091821	1.228052
H65	H	-0.341902	-1.173841	1.246660
H66	H	-0.293524	-1.082435	1.235024
O67	O	-0.366547	-1.101622	0.791864
C68	C	-0.304907	-1.065368	0.733859
H69	H	-0.300892	-1.006280	0.762079
H70	H	-0.235218	-1.095541	0.728774
H71	H	-0.328764	-1.064966	0.663821
H72	H	-0.560381	-0.450732	0.362529
H73	H	-0.939138	-1.136504	0.326444
H74	H	-0.362085	-0.450664	0.560211
O75	O	-0.992221	-0.895617	0.605650
C76	C	-1.050282	-0.931870	0.667238
H77	H	-1.022123	-0.990964	0.671206
H78	H	-1.055358	-0.901706	0.736954
H79	H	-1.120312	-0.932256	0.643359
H80	H	-0.326517	-1.136456	0.938317
O81	O	-1.130590	-0.938352	0.555703
C82	C	-1.106322	-0.867148	0.534590
H83	H	-1.076176	-0.868357	0.460789
H84	H	-1.168928	-0.827312	0.545938
H85	H	-1.054242	-0.848198	0.579969
H86	H	-0.812724	-0.912245	0.586199
O87	O	-1.117390	-1.135556	0.327572
C88	C	-1.052469	-1.182721	0.272917
H89	H	-0.987218	-1.186749	0.306128
H90	H	-1.079230	-1.239834	0.264839
H91	H	-1.038462	-1.159720	0.203592
H92	H	-0.595917	-0.903679	0.983499
H93	H	-0.560378	-0.590160	0.362515
