data_functionalizedCrystal
_audit_creation_method	'MofGen! by Chris Wilmer'
_symmetry_space_group_name_H-M	'P1'
_symmetry_Int_Tables_number	1
_symmetry_cell_setting	triclinic
loop_
_symmetry_equiv_pos_as_xyz
  x,y,z
_cell_length_a	15.944551
_cell_length_b	16.992695
_cell_length_c	15.455313
_cell_angle_alpha	87.152573
_cell_angle_beta	92.676985
_cell_angle_gamma	87.083481
loop_
_atom_site_label
_atom_site_type_symbol
_atom_site_fract_x
_atom_site_fract_y
_atom_site_fract_z
O1	O	-1.124754	-0.097702	-0.072040
O2	O	-0.624754	0.402298	0.427960
O3	O	-0.881041	-0.110169	-0.072062
O4	O	-0.381041	0.389831	0.427938
O5	O	-1.001920	0.010207	-0.072045
O6	O	-0.501920	0.510207	0.427955
O7	O	-1.003875	-0.218078	-0.072058
O8	O	-0.503875	0.281922	0.427942
O9	O	-0.995006	0.003352	0.072217
O10	O	-0.495006	0.503352	0.572217
O11	O	-0.874127	-0.117024	0.072199
O12	O	-0.374127	0.382976	0.572199
O13	O	-1.117839	-0.104557	0.072221
O14	O	-0.617839	0.395443	0.572221
Cu15	Cu	-0.995352	-0.111417	0.085382
Cu16	Cu	-0.495352	0.388583	0.585382
Cu17	Cu	-1.003529	-0.103310	-0.085223
Cu18	Cu	-0.503529	0.396690	0.414777
O19	O	-0.996960	-0.224933	0.072203
O20	O	-0.496960	0.275067	0.572203
C21	C	-0.846255	-0.113079	0.000066
C22	C	-0.346255	0.386921	0.500066
C23	C	-0.752906	-0.111527	0.000058
C24	C	-0.252906	0.388473	0.500058
C25	C	-0.995949	0.035992	0.000086
C26	C	-0.495949	0.535992	0.500086
C27	C	-0.988449	0.123037	0.000085
C28	C	-0.488449	0.623037	0.500085
C29	C	-1.152625	-0.101647	0.000091
C30	C	-0.652625	0.398353	0.500091
C31	C	-1.245975	-0.103199	0.000093
C32	C	-0.745975	0.396801	0.500093
C33	C	-0.532795	-0.033204	0.000079
C34	C	-0.032795	0.466796	0.500079
C35	C	-0.477623	-0.066195	-0.071051
C36	C	0.022377	0.433805	0.428949
C37	C	-0.581991	-0.108720	0.000068
C38	C	-0.081991	0.391280	0.500068
C39	C	-0.470830	-0.072971	0.071179
C40	C	0.029170	0.427029	0.571179
C41	C	-0.416895	-0.106003	0.000082
C42	C	0.083105	0.393997	0.500082
C43	C	-0.528052	-0.141729	-0.071121
C44	C	-0.028052	0.358271	0.428879
C45	C	-0.521261	-0.148498	0.071173
C46	C	-0.021261	0.351502	0.571173
C47	C	-0.466111	-0.181543	0.000025
C48	C	0.033889	0.318457	0.500025
C49	C	-0.677099	-0.110283	0.000059
C50	C	-0.177099	0.389717	0.500059
C51	C	-0.321790	-0.104446	0.000084
C52	C	0.178210	0.395554	0.500084
C53	C	-1.002931	-0.250718	0.000071
C54	C	-0.502931	0.249282	0.500071
C55	C	-1.010431	-0.337762	0.000066
C56	C	-0.510431	0.162238	0.500066
N57	N	-0.989607	-0.117118	0.205377
N58	N	-0.489607	0.382882	0.705377
C59	C	-1.060814	0.173273	0.000092
C60	C	-0.560814	0.673273	0.500092
C61	C	-1.053762	0.255060	0.000083
C62	C	-0.553762	0.755060	0.500083
C63	C	-0.974345	0.286609	0.000073
C64	C	-0.474345	0.786609	0.500073
C65	C	-0.901975	0.236367	0.000063
C66	C	-0.401975	0.736367	0.500063
C67	C	-0.909028	0.154581	0.000066
C68	C	-0.409028	0.654581	0.500066
C69	C	-0.945114	0.530209	0.000059
C70	C	-0.445114	1.030209	0.500059
C71	C	-0.938067	0.612001	0.000059
C72	C	-0.438067	1.112001	0.500059
C73	C	-1.089855	0.630689	0.000077
C74	C	-0.589855	1.130689	0.500077
C75	C	-1.096900	0.548901	0.000085
C76	C	-0.596900	1.048901	0.500085
C77	C	-1.024531	0.498666	0.000070
C78	C	-0.524531	0.998666	0.500070
N79	N	-0.967135	0.370209	0.000067
N80	N	-0.467135	0.870209	0.500067
N81	N	-1.031742	0.415068	0.000070
N82	N	-0.531742	0.915068	0.500070
N83	N	-1.009280	-0.097602	-0.205218
N84	N	-0.509280	0.402398	0.294782
C85	C	-1.040980	-0.065997	0.250778
C86	C	-0.540980	0.434003	0.750778
C87	C	-1.036644	-0.070316	0.341586
C88	C	-0.536644	0.429684	0.841586
C89	C	-0.980937	-0.125761	0.386990
C90	C	-0.480937	0.374239	0.886990
C91	C	-0.929558	-0.176884	0.341582
C92	C	-0.429558	0.323116	0.841582
C93	C	-0.933890	-0.172561	0.250776
C94	C	-0.433890	0.327439	0.750776
C95	C	-0.962233	-0.144402	0.658568
C96	C	-0.462233	0.355598	1.158568
C97	C	-0.957906	-0.148723	0.749380
C98	C	-0.457906	0.351277	1.249380
C99	C	-1.064992	-0.042153	0.749378
C100	C	-0.564992	0.457847	1.249378
C101	C	-1.069323	-0.037838	0.658571
C102	C	-0.569323	0.462162	1.158571
C103	C	-1.017941	-0.088958	0.613171
C104	C	-0.517941	0.411042	1.113171
N105	N	-0.976505	-0.130179	0.479809
N106	N	-0.476505	0.369821	0.979809
N107	N	-1.022369	-0.084536	0.520353
N108	N	-0.522369	0.415464	1.020353
H109	H	-0.561929	0.029473	-0.000005
H110	H	-0.061929	0.529473	0.499995
H111	H	-1.112689	0.295960	0.000091
H112	H	-0.612689	0.795960	0.500091
H113	H	-0.458253	-0.031397	-0.131184
H114	H	0.041747	0.468603	0.368816
H115	H	-0.850101	0.113679	0.000060
H116	H	-0.350101	0.613679	0.500060
H117	H	-0.553065	-0.170785	-0.131322
H118	H	-0.053065	0.329215	0.368678
H119	H	-0.445719	-0.043874	0.131312
H120	H	0.054281	0.456126	0.631312
Br121	Br	-1.106363	-0.000934	0.403205
Br122	Br	-0.606363	0.499066	0.903205
Br123	Br	-1.168599	0.130464	0.000118
Br124	Br	-0.668599	0.630464	0.500118
H125	H	-1.161570	0.523220	0.000093
H126	H	-0.661570	1.023220	0.500093
Br127	Br	-1.188065	0.698869	0.000097
Br128	Br	-0.688065	1.198869	0.500097
H129	H	-0.892055	-0.214188	0.213811
H130	H	-0.392055	0.285812	0.713811
Br131	Br	-0.417857	-0.286105	-0.000042
Br132	Br	0.082143	0.213895	0.499958
Br133	Br	-0.553581	-0.206455	0.171402
Br134	Br	-0.053581	0.293545	0.671402
H135	H	-0.873392	0.637684	0.000065
H136	H	-0.373392	1.137684	0.500065
Br137	Br	-0.846898	0.462043	0.000034
Br138	Br	-0.346898	0.962043	0.500034
Br139	Br	-0.892504	-0.213779	0.596959
Br140	Br	-0.392504	0.286221	1.096959
Br141	Br	-1.116593	0.009247	0.189168
Br142	Br	-0.616593	0.509247	0.689168
Br143	Br	-0.882301	-0.223979	0.810995
Br144	Br	-0.382301	0.276021	1.310995
H145	H	-0.837312	0.262061	0.000050
H146	H	-0.337312	0.762061	0.500050
Br147	Br	-1.144929	0.037405	0.596949
Br148	Br	-0.644929	0.537405	1.096949
H149	H	-1.106824	-0.000533	0.786351
H150	H	-0.606824	0.499467	1.286351
H151	H	-0.884195	-0.222026	0.378555
H152	H	-0.384195	0.277974	0.878555
