data_functionalizedCrystal
_audit_creation_method	'MofGen! by Chris Wilmer'
_symmetry_space_group_name_H-M	'P1'
_symmetry_Int_Tables_number	1
_symmetry_cell_setting	triclinic
loop_
_symmetry_equiv_pos_as_xyz
  x,y,z
_cell_length_a	10.723023
_cell_length_b	10.654550
_cell_length_c	9.198806
_cell_angle_alpha	90.002002
_cell_angle_beta	90.003222
_cell_angle_gamma	84.476225
loop_
_atom_site_label
_atom_site_type_symbol
_atom_site_fract_x
_atom_site_fract_y
_atom_site_fract_z
O1	O	1.657214	0.176142	0.120874
O2	O	1.294064	0.193004	0.120879
O3	O	1.483989	0.001832	0.120871
O4	O	1.467289	0.367314	0.120882
O5	O	1.483974	0.001832	-0.120914
O6	O	1.294050	0.193003	-0.120906
O7	O	1.657200	0.176142	-0.120911
Cu8	Cu	1.475624	0.184572	-0.142985
Cu9	Cu	1.475640	0.184573	0.142953
O10	O	1.467275	0.367313	-0.120903
C11	C	1.247557	0.191777	-0.000012
C12	C	1.109002	0.188106	-0.000010
C13	C	1.047223	0.186469	-0.125261
C14	C	0.904019	0.182675	-0.125262
C15	C	1.482755	-0.044966	-0.000020
C16	C	1.479087	-0.184408	-0.000015
C17	C	1.590911	-0.263911	-0.000021
C18	C	1.587457	-0.394931	-0.000011
C19	C	1.360344	-0.366933	0.000006
C20	C	1.363800	-0.235915	0.000006
C21	C	1.706199	-0.212404	-0.000042
C22	C	1.818033	-0.291908	-0.000049
C23	C	1.814578	-0.422928	-0.000039
C24	C	1.699290	-0.474445	-0.000021
C25	C	1.703707	0.177369	-0.000016
C26	C	1.842262	0.181039	-0.000009
C27	C	1.468508	0.414111	-0.000009
C28	C	1.472177	0.553554	-0.000005
N29	N	1.475621	0.184571	-0.344099
C30	C	1.402861	0.111744	-0.416332
C31	C	1.402877	0.111739	-0.583744
N32	N	1.475653	0.184564	0.344067
H33	H	1.709024	-0.105722	-0.000054
H34	H	0.850889	0.181275	-0.232493
C35	C	1.118990	0.188378	-0.270125
C36	C	1.195300	0.299623	-0.306214
C37	C	1.267068	0.301536	-0.451079
C38	C	1.262527	0.192204	-0.559857
C39	C	1.186214	0.080952	-0.523771
C40	C	1.114445	0.079039	-0.378906
H41	H	1.198664	0.380564	-0.225688
H42	H	1.323560	0.383893	-0.477791
H43	H	1.315655	0.193620	-0.667095
H44	H	1.182850	0.000010	-0.604297
H45	H	1.057953	-0.003319	-0.352193
C46	C	1.240796	-0.148449	0.000007
C47	C	1.211959	-0.054526	0.125564
C48	C	1.088953	0.032942	0.125573
C49	C	0.994785	0.026488	0.000024
C50	C	1.023619	-0.067438	-0.125543
C51	C	1.146625	-0.154907	-0.125551
H52	H	1.281670	-0.049745	0.218512
H53	H	1.067609	0.102473	0.218526
H54	H	0.903729	0.091238	0.000030
H55	H	0.953908	-0.072220	-0.218490
H56	H	1.167969	-0.224438	-0.218504
H57	H	1.911896	-0.249955	-0.000028
C58	C	0.914016	0.182940	0.144870
C59	C	0.909467	0.073603	0.253628
C60	C	0.981231	0.075504	0.398507
C61	C	1.057545	0.186743	0.434628
C62	C	1.062097	0.296089	0.325866
C63	C	0.990332	0.294187	0.180988
H64	H	0.852972	-0.008750	0.226892
H65	H	0.977861	-0.005441	0.479019
H66	H	1.110670	0.188151	0.541876
H67	H	1.118592	0.378442	0.352602
H68	H	0.993703	0.375133	0.100476
H69	H	1.340551	0.049401	-0.354233
C70	C	1.559815	0.268805	-0.572038
C71	C	1.660715	0.208993	-0.467344
C72	C	1.744877	0.293234	-0.383437
C73	C	1.728140	0.437286	-0.404224
C74	C	1.627236	0.497105	-0.508922
C75	C	1.543073	0.412864	-0.592829
H76	H	1.673109	0.102351	-0.451953
H77	H	1.819574	0.248951	-0.305933
H78	H	1.790442	0.499645	-0.342111
H79	H	1.614841	0.603747	-0.524314
H80	H	1.468377	0.457147	-0.670334
H81	H	1.537919	0.246925	-0.406199
H82	H	1.055877	0.186695	0.107221
H83	H	1.905639	-0.487658	-0.000031
H84	H	1.696486	-0.581131	0.000003
H85	H	1.266481	-0.408889	0.000018
H86	H	1.340588	0.049386	-0.645862
