data_functionalizedCrystal
_audit_creation_method	'MofGen! by Chris Wilmer'
_symmetry_space_group_name_H-M	'P1'
_symmetry_Int_Tables_number	1
_symmetry_cell_setting	triclinic
loop_
_symmetry_equiv_pos_as_xyz
  x,y,z
_cell_length_a	11.792241
_cell_length_b	10.654550
_cell_length_c	9.130313
_cell_angle_alpha	90.003780
_cell_angle_beta	89.998583
_cell_angle_gamma	95.660841
loop_
_atom_site_label
_atom_site_type_symbol
_atom_site_fract_x
_atom_site_fract_y
_atom_site_fract_z
O1	O	0.159415	-1.667383	-0.121920
O2	O	0.174603	-1.301862	-0.121897
O3	O	0.001859	-1.493493	-0.121899
O4	O	0.332159	-1.475752	-0.121918
O5	O	0.001864	-1.493490	0.121700
O6	O	0.174608	-1.301859	0.121702
O7	O	0.159419	-1.667381	0.121678
Cu8	Cu	0.167014	-1.484620	0.143933
Cu9	Cu	0.167008	-1.484623	-0.144151
O10	O	0.332164	-1.475750	0.121680
C11	C	0.173490	-1.255066	-0.000095
C12	C	0.170154	-1.115632	-0.000085
C13	C	-0.040432	-1.492377	-0.000100
C14	C	-0.166454	-1.489042	-0.000101
C15	C	0.160532	-1.714177	-0.000127
C16	C	0.163869	-1.853611	-0.000146
C17	C	-0.397180	-1.482908	-0.000125
C18	C	-0.268787	-1.486316	-0.000112
C19	C	0.374455	-1.476865	-0.000122
C20	C	0.500476	-1.480201	-0.000130
N21	N	0.167017	-1.484627	0.346555
C22	C	0.271863	-1.035858	-0.000113
C23	C	0.268721	-0.904847	-0.000138
C24	C	0.062152	-0.933394	-0.000114
C25	C	0.065295	-1.064404	-0.000079
C26	C	0.391124	-1.019376	-0.000133
C27	C	0.387982	-0.888364	-0.000158
N28	N	0.166996	-1.484625	-0.346774
C29	C	0.090552	-1.569503	0.423206
C30	C	0.090539	-1.569500	0.576543
C31	C	0.243465	-1.399740	0.576564
C32	C	0.243472	-1.399739	0.423230
C33	C	0.002265	-1.667516	0.423195
C34	C	0.002251	-1.667513	0.576532
H35	H	-0.023221	-0.891668	-0.000132
O36	O	-0.096105	-1.631585	0.633469
C37	C	-0.260564	-1.689081	0.784624
C38	C	-0.149199	-1.729913	0.720252
H39	H	-0.303534	-1.768567	0.854777
H40	H	-0.240599	-1.601298	0.855011
H41	H	-0.320047	-1.667171	0.691638
H42	H	-0.089663	-1.751890	0.813144
H43	H	-0.169249	-1.817657	0.649826
H44	H	0.437769	-1.048574	0.101816
O45	O	-0.101843	-1.642433	0.373457
C46	C	-0.267452	-1.715647	0.231296
C47	C	-0.149590	-1.744237	0.287559
H48	H	-0.306080	-1.797926	0.161812
H49	H	-0.325703	-1.701566	0.328339
H50	H	-0.257789	-1.626228	0.161999
H51	H	-0.159145	-1.833667	0.356832
H52	H	-0.091382	-1.758239	0.190451
H53	H	-0.017527	-1.129352	-0.000036
H54	H	0.424026	-0.842589	0.105008
H55	H	0.029909	-1.758622	0.375629
H56	H	0.432916	-0.846505	-0.102114
O57	O	0.317851	-1.317235	0.348998
C58	C	0.469470	-1.148789	0.365206
C59	C	0.385314	-1.242182	0.449456
H60	H	0.524019	-1.088066	0.446390
H61	H	0.526719	-1.203313	0.293455
H62	H	0.419909	-1.085787	0.293384
H63	H	0.434782	-1.305207	0.521357
H64	H	0.328065	-1.187580	0.521115
O65	O	0.436501	-1.061579	-0.125660
C66	C	0.518394	-1.006699	-0.361671
C67	C	0.467056	-0.958729	-0.219570
H68	H	0.543090	-0.923573	-0.437649
H69	H	0.597280	-1.055990	-0.334375
H70	H	0.452733	-1.076076	-0.418231
H71	H	0.532632	-0.889308	-0.162940
H72	H	0.388147	-0.909513	-0.246960
O73	O	0.025507	-1.782635	0.625938
C74	C	0.067738	-1.992448	0.561903
C75	C	0.041444	-1.862128	0.505753
H76	H	0.080607	-2.056761	0.464762
H77	H	0.148518	-1.981603	0.631228
H78	H	-0.006533	-2.035484	0.631306
H79	H	0.115645	-1.819019	0.436289
H80	H	-0.039374	-1.873054	0.436507
H81	H	0.305712	-1.330625	0.639010
