data_functionalizedCrystal
_audit_creation_method	'MofGen! by Chris Wilmer'
_symmetry_space_group_name_H-M	'P1'
_symmetry_Int_Tables_number	1
_symmetry_cell_setting	triclinic
loop_
_symmetry_equiv_pos_as_xyz
  x,y,z
_cell_length_a	12.837943
_cell_length_b	16.109301
_cell_length_c	14.586319
_cell_angle_alpha	90.005214
_cell_angle_beta	89.997399
_cell_angle_gamma	90.854790
loop_
_atom_site_label
_atom_site_type_symbol
_atom_site_fract_x
_atom_site_fract_y
_atom_site_fract_z
O1	O	1.375379	-0.216129	-0.076235
O2	O	1.073577	-0.205453	-0.076239
O3	O	1.232769	-0.090419	-0.076227
O4	O	1.216188	-0.331163	-0.076246
O5	O	1.232758	-0.090416	0.076254
O6	O	1.073566	-0.205450	0.076242
O7	O	1.375368	-0.216126	0.076246
Cu8	Cu	1.224466	-0.210788	0.090167
Cu9	Cu	1.224479	-0.210791	-0.090159
O10	O	1.216177	-0.331161	0.076235
C11	C	1.034953	-0.201845	0.000001
C12	C	0.919879	-0.191088	0.000000
C13	C	1.413993	-0.219735	0.000004
C14	C	1.529067	-0.230491	-0.000000
C15	C	1.232092	-0.059389	0.000014
C16	C	1.230078	0.033066	0.000015
C17	C	1.770069	-0.101174	0.000019
C18	C	1.878191	-0.111278	0.000015
C19	C	1.853436	-0.260800	-0.000007
C20	C	1.745314	-0.250697	-0.000003
C21	C	1.703634	-0.170882	0.000009
C22	C	1.595510	-0.160779	0.000007
C23	C	1.570757	-0.310301	-0.000009
C24	C	1.678879	-0.320404	-0.000013
C25	C	1.216854	-0.362190	-0.000008
C26	C	1.218868	-0.454645	-0.000015
N27	N	1.224465	-0.210786	0.216999
C28	C	1.319857	0.248206	0.000002
C29	C	1.317957	0.335078	-0.000006
C30	C	1.129081	0.330208	-0.000005
C31	C	1.130983	0.243338	-0.000004
C32	C	1.226374	0.202340	0.000004
C33	C	1.222572	0.376081	-0.000004
C34	C	1.220511	0.470271	-0.000013
C35	C	1.228435	0.108144	0.000011
N36	N	1.224489	-0.210787	-0.216991
C37	C	1.294978	-0.159869	0.452010
C38	C	1.294981	-0.159868	0.547991
C39	C	1.153968	-0.261706	0.547991
C40	C	1.153961	-0.261703	0.452011
C41	C	1.224472	-0.210786	0.404023
C42	C	1.224482	-0.210787	0.595984
C43	C	1.224485	-0.210786	0.700051
C44	C	1.224468	-0.210786	0.299950
H45	H	1.736133	-0.036186	0.000020
H46	H	1.352391	-0.118409	0.412941
C47	C	1.372542	-0.103863	0.600773
H48	H	1.414536	-0.073545	0.558444
H49	H	1.335274	-0.066282	0.638223
H50	H	1.415684	-0.137216	0.638205
C51	C	1.420789	0.385528	-0.000003
H52	H	1.477868	0.348666	0.000009
H53	H	1.423981	0.419512	-0.053177
H54	H	1.423967	0.419521	0.053177
C55	C	1.076423	-0.317718	0.600780
H56	H	1.086531	-0.310435	0.664815
H57	H	1.007245	-0.303181	0.585062
H58	H	1.087669	-0.374104	0.585038
C59	C	1.024160	0.375309	-0.000001
H60	H	1.036415	0.433615	0.000009
H61	H	0.985666	0.360070	-0.053172
H62	H	0.985674	0.360074	0.053182
C63	C	1.028146	0.192882	0.000002
H64	H	0.971062	0.229739	0.000010
H65	H	1.024965	0.158887	-0.053171
H66	H	1.024964	0.158899	0.053183
C67	C	1.076403	-0.317716	0.399222
H68	H	1.034421	-0.348049	0.441547
H69	H	1.033265	-0.284370	0.361788
H70	H	1.113684	-0.355296	0.361773
H71	H	1.561577	-0.095790	0.000013
C72	C	1.724733	-0.408193	-0.000031
H73	H	1.798642	-0.404228	-0.000038
H74	H	1.701926	-0.437263	0.053135
H75	H	1.701930	-0.437247	-0.053219
C76	C	1.951266	-0.034600	0.000017
H77	H	1.910954	0.014379	0.000017
H78	H	1.993963	-0.035432	0.053187
H79	H	1.993954	-0.035434	-0.053167
C80	C	1.899297	-0.348587	-0.000013
H81	H	1.973205	-0.344617	-0.000016
H82	H	1.876488	-0.377651	0.053156
H83	H	1.876501	-0.377649	-0.053197
C84	C	1.497676	-0.386982	-0.000022
H85	H	1.427312	-0.369536	-0.000015
H86	H	1.510317	-0.419352	-0.053201
H87	H	1.510305	-0.419358	0.053153
H88	H	1.397531	0.214828	0.000006
