data_functionalizedCrystal
_audit_creation_method	'MofGen! by Chris Wilmer'
_symmetry_space_group_name_H-M	'P1'
_symmetry_Int_Tables_number	1
_symmetry_cell_setting	triclinic
loop_
_symmetry_equiv_pos_as_xyz
  x,y,z
_cell_length_a	14.044190
_cell_length_b	10.908878
_cell_length_c	10.065875
_cell_angle_alpha	83.443480
_cell_angle_beta	99.589132
_cell_angle_gamma	76.638284
loop_
_atom_site_label
_atom_site_type_symbol
_atom_site_fract_x
_atom_site_fract_y
_atom_site_fract_z
O1	O	-0.160393	1.704257	-0.113445
O2	O	-0.087688	1.338726	-0.113463
O3	O	-0.261156	1.515996	-0.113428
O4	O	0.013075	1.526987	-0.113481
O5	O	-0.227968	1.482206	0.113554
O6	O	-0.054501	1.304936	0.113519
O7	O	-0.127205	1.670466	0.113537
Zn8	Zn	-0.085584	1.482336	0.149566
Zn9	Zn	-0.129310	1.526857	-0.149492
O10	O	0.046262	1.493196	0.113501
C11	C	-0.064300	1.274768	0.000026
C12	C	-0.044065	1.134535	0.000020
C13	C	-0.117898	1.077064	0.000034
C14	C	-0.096987	0.932126	0.000028
C15	C	-0.279119	1.494296	0.000067
C16	C	-0.382084	1.479963	0.000078
C17	C	-0.644269	1.555410	0.000029
C18	C	-0.570621	1.453790	0.000033
C19	C	-0.465710	1.468356	0.000058
C20	C	-0.749191	1.540846	0.000003
C21	C	0.064225	1.514897	0.000003
C22	C	0.167189	1.529231	-0.000017
C23	C	-0.150594	1.734425	0.000045
C24	C	-0.170830	1.874659	0.000041
N25	N	-0.055744	1.451961	0.353666
N26	N	-0.159158	1.557241	-0.353592
C27	C	-0.118932	1.516280	0.421457
C28	C	-0.095961	1.492913	0.578620
H29	H	-0.249530	0.932754	0.000047
O30	O	0.060177	1.057592	-0.000004
H31	H	0.111896	1.066497	0.092500
H32	H	-0.586359	1.355849	0.000020
H33	H	0.015357	1.379592	0.411977
O34	O	-0.001753	1.397073	0.655833
H35	H	-0.001898	1.301366	0.628520
H36	H	-0.190039	1.588639	0.363148
O37	O	-0.623431	1.685139	0.000062
H38	H	-0.543099	1.676362	0.000092
O39	O	-0.253358	1.653094	0.569191
H40	H	-0.233440	1.728676	0.504073
O41	O	-0.222140	1.154003	0.000068
H42	H	-0.222204	1.255767	0.000083
H43	H	-0.018289	0.874032	0.000006
