data_functionalizedCrystal
_audit_creation_method	'MofGen! by Chris Wilmer'
_symmetry_space_group_name_H-M	'P1'
_symmetry_Int_Tables_number	1
_symmetry_cell_setting	triclinic
loop_
_symmetry_equiv_pos_as_xyz
  x,y,z
_cell_length_a	12.837939
_cell_length_b	12.503584
_cell_length_c	12.811415
_cell_angle_alpha	88.122923
_cell_angle_beta	90.588266
_cell_angle_gamma	93.891371
loop_
_atom_site_label
_atom_site_type_symbol
_atom_site_fract_x
_atom_site_fract_y
_atom_site_fract_z
O1	O	-1.384313	-0.115207	0.265909
O2	O	-1.082362	-0.113906	0.252505
O3	O	-1.239950	-0.099831	0.108077
O4	O	-1.226725	-0.129283	0.410337
O5	O	-1.228098	0.077750	0.118961
O6	O	-1.070510	0.063675	0.263389
O7	O	-1.372461	0.062374	0.276793
Cu8	Cu	-1.220403	0.079239	0.271085
Cu9	Cu	-1.234420	-0.130772	0.258213
O10	O	-1.214873	0.048299	0.421221
C11	C	-1.037767	-0.024675	0.253419
C12	C	-0.922543	-0.023362	0.239913
C13	C	-0.683343	-0.039165	0.402275
C14	C	-0.575080	-0.037930	0.389591
C15	C	-0.597751	-0.019650	0.201861
C16	C	-0.706014	-0.020884	0.214546
C17	C	-0.748806	-0.030644	0.314756
C18	C	-0.857072	-0.031886	0.327439
C19	C	-0.879740	-0.013598	0.139711
C20	C	-0.771477	-0.012364	0.127026
N21	N	-1.210553	0.226949	0.280138
C22	C	-1.196062	0.444765	0.293464
C23	C	-1.258762	0.503708	0.235840
C24	C	-1.250699	0.624909	0.243255
C25	C	-1.204123	0.323554	0.286050
C26	C	-0.417056	-0.026858	0.275880
C27	C	-0.532280	-0.028174	0.289387
C28	C	-1.232919	-0.007247	0.074562
C29	C	-1.229617	0.004057	-0.041518
N30	N	-1.244275	0.721518	0.249163
C31	C	-1.236315	-0.168324	-0.271502
C32	C	-1.233212	-0.157708	-0.380570
C33	C	-1.220301	0.035902	-0.368723
C34	C	-1.223404	0.025287	-0.259656
C35	C	-1.231412	-0.076830	-0.211049
C36	C	-1.234523	-0.087444	-0.101979
C37	C	-1.221604	0.106165	-0.090135
C38	C	-1.218502	0.116781	-0.199203
C39	C	-1.221904	-0.044288	0.454736
C40	C	-1.225207	-0.055599	0.570815
H41	H	-0.718185	-0.047113	0.483870
F42	F	-1.211753	0.144573	-0.420471
H43	H	-1.242845	-0.251471	-0.231926
F44	F	-0.505412	-0.046996	0.482742
H45	H	-1.211977	0.199921	-0.238793
F46	F	-1.117990	0.497778	0.365222
F47	F	-1.216395	0.203547	-0.025789
F48	F	-1.243050	-0.196124	-0.050250
F49	F	-1.337155	0.450661	0.164423
H50	H	-1.237200	-0.232213	-0.429787
H51	H	-0.891911	-0.039831	0.409035
F52	F	-0.949420	-0.004542	0.046560
F53	F	-0.725922	-0.001974	0.020381
F54	F	-0.552189	-0.009251	0.095220
