data_functionalizedCrystal
_audit_creation_method	'MofGen! by Chris Wilmer'
_symmetry_space_group_name_H-M	'P1'
_symmetry_Int_Tables_number	1
_symmetry_cell_setting	triclinic
loop_
_symmetry_equiv_pos_as_xyz
  x,y,z
_cell_length_a	23.532355
_cell_length_b	22.010155
_cell_length_c	16.109301
_cell_angle_alpha	89.997171
_cell_angle_beta	83.144490
_cell_angle_gamma	90.002586
loop_
_atom_site_label
_atom_site_type_symbol
_atom_site_fract_x
_atom_site_fract_y
_atom_site_fract_z
O1	O	0.755654	0.050444	0.100709
O2	O	1.088988	0.383778	0.434042
O3	O	1.422321	0.717111	0.767375
O4	O	0.589841	0.050464	0.115357
O5	O	0.923174	0.383797	0.448690
O6	O	1.256508	0.717131	0.782023
O7	O	0.677303	0.050448	-0.013035
O8	O	1.010636	0.383781	0.320298
O9	O	1.343969	0.717114	0.653631
O10	O	0.668193	0.050461	0.229101
O11	O	1.001526	0.383794	0.562434
O12	O	1.334859	0.717128	0.895767
O13	O	0.677287	-0.050603	-0.013016
O14	O	1.010620	0.282731	0.320317
O15	O	1.343954	0.616064	0.653651
O16	O	0.589825	-0.050586	0.115376
O17	O	0.923158	0.282747	0.448709
O18	O	1.256492	0.616080	0.782043
O19	O	0.755639	-0.050606	0.100728
O20	O	1.088972	0.282727	0.434061
O21	O	1.422305	0.616061	0.767394
Cu22	Cu	0.672730	-0.059823	0.108054
Cu23	Cu	1.006064	0.273511	0.441387
Cu24	Cu	1.339397	0.606844	0.774720
Cu25	Cu	0.672749	0.059681	0.108031
Cu26	Cu	1.006082	0.393014	0.441364
Cu27	Cu	1.339416	0.726348	0.774698
O28	O	0.668177	-0.050589	0.229120
O29	O	1.001510	0.282744	0.562453
O30	O	1.334843	0.616077	0.895787
C31	C	0.568615	-0.000059	0.115000
C32	C	0.901948	0.333275	0.448334
C33	C	1.235282	0.666608	0.781667
C34	C	0.505392	-0.000051	0.113899
C35	C	0.838726	0.333282	0.447233
C36	C	1.172059	0.666615	0.780566
C37	C	0.113344	-0.055160	0.106993
C38	C	0.446678	0.278174	0.440326
C39	C	0.780011	0.611507	0.773660
C40	C	0.053941	-0.055162	0.105946
C41	C	0.387274	0.278171	0.439279
C42	C	0.720608	0.611504	0.772612
O43	O	0.023213	-0.102007	0.105385
O44	O	0.356546	0.231326	0.438718
O45	O	0.689880	0.564659	0.772051
N46	N	0.024239	-0.000080	0.105416
N47	N	0.357573	0.333253	0.438749
N48	N	0.690906	0.666587	0.772082
C49	C	0.053945	0.055008	0.105925
C50	C	0.387278	0.388342	0.439258
C51	C	0.720611	0.721675	0.772592
O52	O	0.023227	0.101860	0.105377
O53	O	0.356560	0.435193	0.438711
O54	O	0.689893	0.768527	0.772044
C55	C	0.113347	0.055010	0.106966
C56	C	0.446681	0.388344	0.440300
C57	C	0.780014	0.721677	0.773633
C58	C	0.143045	-0.000076	0.107505
C59	C	0.476379	0.333258	0.440838
C60	C	0.809712	0.666591	0.774171
C61	C	0.143042	-0.110241	0.107530
C62	C	0.476376	0.223092	0.440864
C63	C	0.809709	0.556425	0.774197
C64	C	0.202441	-0.110239	0.108579
C65	C	0.535775	0.223095	0.441912
C66	C	0.869108	0.556428	0.775246
C67	C	0.232142	-0.055155	0.109091
C68	C	0.565476	0.278179	0.442424
C69	C	0.898809	0.611512	0.775757
C70	C	0.202444	-0.000073	0.108553
C71	C	0.535778	0.333260	0.441887
C72	C	0.869111	0.666594	0.775220
C73	C	0.143052	0.110098	0.107469
C74	C	0.476386	0.443431	0.440803
C75	C	0.809719	0.776765	0.774136
C76	C	0.202459	0.110095	0.108510
C77	C	0.535792	0.443428	0.441843
C78	C	0.869126	0.776762	0.775177
C79	C	0.232157	0.055009	0.109048
C80	C	0.565490	0.388342	0.442382
C81	C	0.898824	0.721676	0.775715
C82	C	0.291544	0.055014	0.110114
C83	C	0.624878	0.388347	0.443447
C84	C	0.958211	0.721680	0.776780
N85	N	0.321246	-0.000069	0.110644
N86	N	0.654580	0.333265	0.443977
N87	N	0.987913	0.666598	0.777310
C88	C	0.291545	-0.055153	0.110132
C89	C	0.624879	0.278181	0.443465
C90	C	0.958212	0.611514	0.776799
C91	C	-0.070805	0.055001	0.103736
C92	C	0.262528	0.388334	0.437070
C93	C	0.595862	0.721667	0.770403
C94	C	-0.130207	0.054999	0.102701
C95	C	0.203126	0.388333	0.436034
C96	C	0.536460	0.721666	0.769368
C97	C	-0.130206	-0.055171	0.102720
C98	C	0.203127	0.278162	0.436054
C99	C	0.536460	0.611495	0.769387
C100	C	-0.070804	-0.055170	0.103762
C101	C	0.262530	0.278164	0.437095
C102	C	0.595863	0.611497	0.770428
C103	C	-0.041103	-0.000082	0.104266
C104	C	0.292230	0.333252	0.437600
C105	C	0.625564	0.666585	0.770933
C106	C	0.416287	-0.055143	0.112335
C107	C	0.749621	0.278190	0.445669
C108	C	1.082954	0.611524	0.779002
C109	C	0.475691	-0.055135	0.113388
C110	C	0.809025	0.278198	0.446721
C111	C	1.142358	0.611531	0.780055
C112	C	0.475686	0.055035	0.113364
C113	C	0.809019	0.388368	0.446697
C114	C	1.142353	0.721702	0.780031
C115	C	0.416287	0.055028	0.112316
C116	C	0.749620	0.388361	0.445650
C117	C	1.082953	0.721695	0.778983
C118	C	0.386589	-0.000066	0.111799
C119	C	0.719923	0.333267	0.445132
C120	C	1.053256	0.666601	0.778466
O121	O	0.322311	0.101835	0.110672
O122	O	0.655644	0.435168	0.444005
O123	O	0.988977	0.768501	0.777339
O124	O	0.322272	-0.101996	0.110669
O125	O	0.655605	0.231337	0.444002
O126	O	0.988938	0.564670	0.777335
N127	N	0.672721	-0.143875	0.108069
N128	N	1.006055	0.189458	0.441402
N129	N	1.339388	0.522791	0.774736
C130	C	0.711480	-0.563662	0.051187
C131	C	1.044813	-0.230329	0.384520
C132	C	1.378146	0.103005	0.717853
C133	C	0.711482	-0.627270	0.051181
C134	C	1.044815	-0.293936	0.384514
C135	C	1.378149	0.039397	0.717848
O136	O	0.744413	-0.660167	0.002829
O137	O	1.077746	-0.326834	0.336162
O138	O	1.411080	0.006499	0.669495
N139	N	0.672749	-0.659082	0.108013
N140	N	1.006082	-0.325749	0.441347
N141	N	1.339415	0.007584	0.774680
C142	C	0.634006	-0.627284	0.164850
C143	C	0.967340	-0.293951	0.498183
C144	C	1.300673	0.039382	0.831516
O145	O	0.601061	-0.660184	0.213189
O146	O	0.934394	-0.326851	0.546522
O147	O	1.267727	0.006482	0.879856
C148	C	0.634002	-0.563678	0.164851
C149	C	0.967335	-0.230345	0.498184
C150	C	1.300668	0.102989	0.831517
C151	C	0.672741	-0.531868	0.108020
C152	C	1.006075	-0.198535	0.441354
C153	C	1.339408	0.134798	0.774687
C154	C	0.750216	-0.531852	-0.005640
C155	C	1.083549	-0.198519	0.327694
C156	C	1.416882	0.134814	0.661027
C157	C	0.750214	-0.468249	-0.005633
C158	C	1.083547	-0.134916	0.327701
C159	C	1.416880	0.198417	0.661034
C160	C	0.711475	-0.436456	0.051201
C161	C	1.044809	-0.103122	0.384534
C162	C	1.378142	0.230211	0.717867
C163	C	0.672739	-0.468265	0.108027
C164	C	1.006073	-0.134932	0.441361
C165	C	1.339406	0.198402	0.774694
C166	C	0.595257	-0.531881	0.221682
C167	C	0.928590	-0.198548	0.555016
C168	C	1.261924	0.134786	0.888349
C169	C	0.595255	-0.468270	0.221678
C170	C	0.928588	-0.134937	0.555011
C171	C	1.261922	0.198397	0.888345
C172	C	0.633995	-0.436461	0.164848
C173	C	0.967328	-0.103127	0.498181
C174	C	1.300661	0.230206	0.831514
C175	C	0.633999	-0.372868	0.164868
C176	C	0.967332	-0.039535	0.498201
C177	C	1.300666	0.293798	0.831534
N178	N	0.672732	-0.341055	0.108035
N179	N	1.006066	-0.007722	0.441369
N180	N	1.339399	0.325611	0.774702
C181	C	0.711470	-0.372849	0.051202
C182	C	1.044804	-0.039516	0.384535
C183	C	1.378137	0.293818	0.717869
C184	C	0.634019	-0.760862	0.164842
C185	C	0.967352	-0.427529	0.498175
C186	C	1.300686	-0.094195	0.831509
C187	C	0.634026	-0.824467	0.164846
C188	C	0.967360	-0.491134	0.498179
C189	C	1.300693	-0.157801	0.831512
C190	C	0.711501	-0.824448	0.051176
C191	C	1.044835	-0.491115	0.384509
C192	C	1.378168	-0.157782	0.717842
C193	C	0.711496	-0.760842	0.051177
C194	C	1.044830	-0.427508	0.384510
C195	C	1.378163	-0.094175	0.717843
C196	C	0.672752	-0.729049	0.108010
C197	C	1.006086	-0.395716	0.441343
C198	C	1.339419	-0.062383	0.774676
C199	C	0.711463	-0.239278	0.051221
C200	C	1.044797	0.094056	0.384555
C201	C	1.378130	0.427389	0.717888
C202	C	0.711460	-0.175669	0.051236
C203	C	1.044793	0.157664	0.384569
C204	C	1.378126	0.490998	0.717902
C205	C	0.633983	-0.175694	0.164902
C206	C	0.967316	0.157640	0.498235
C207	C	1.300649	0.490973	0.831569
C208	C	0.633988	-0.239297	0.164891
C209	C	0.967322	0.094036	0.498224
C210	C	1.300655	0.427370	0.831558
C211	C	0.672731	-0.271087	0.108044
C212	C	1.006064	0.062246	0.441377
C213	C	1.339398	0.395579	0.774710
O214	O	0.601083	-0.339930	0.213193
O215	O	0.934417	-0.006597	0.546527
O216	O	1.267750	0.326736	0.879860
O217	O	0.744406	-0.339941	0.002863
O218	O	1.077739	-0.006608	0.336197
O219	O	1.411072	0.326725	0.669530
C220	C	0.776864	-0.000082	0.101084
C221	C	1.110198	0.333252	0.434418
C222	C	1.443531	0.666585	0.767751
C223	C	0.840087	-0.000085	0.102185
C224	C	1.173420	0.333248	0.435518
C225	C	1.506754	0.666582	0.768852
C226	C	0.676926	-0.000078	-0.043998
C227	C	1.010259	0.333255	0.289336
C228	C	1.343592	0.666589	0.622669
C229	C	0.675819	-0.000079	-0.136284
C230	C	1.009153	0.333255	0.197049
C231	C	1.342486	0.666588	0.530383
N232	N	0.672763	0.143733	0.108009
N233	N	1.006096	0.477067	0.441342
N234	N	1.339429	0.810400	0.774675
C235	C	0.725145	-0.000075	-0.358958
C236	C	1.058478	0.333258	-0.025624
C237	C	1.391812	0.666592	0.307709
C238	C	0.724101	-0.000070	-0.445670
C239	C	1.057434	0.333264	-0.112336
C240	C	1.390768	0.666597	0.220997
C241	C	0.620331	-0.000060	-0.424951
C242	C	0.953664	0.333273	-0.091618
C243	C	1.286997	0.666607	0.241716
C244	C	0.621375	-0.000061	-0.338241
C245	C	0.954708	0.333273	-0.004907
C246	C	1.288042	0.666606	0.328426
C247	C	0.673784	-0.000071	-0.305247
C248	C	1.007117	0.333262	0.028087
C249	C	1.340451	0.666595	0.361420
C250	C	0.671695	-0.000065	-0.478669
C251	C	1.005029	0.333268	-0.145335
C252	C	1.338362	0.666601	0.187998
C253	C	0.670563	-0.000060	-0.572686
C254	C	1.003896	0.333274	-0.239352
C255	C	1.337230	0.666607	0.093981
C256	C	0.674917	-0.000076	-0.211224
C257	C	1.008250	0.333258	0.122109
C258	C	1.341583	0.666591	0.455443
C259	C	0.668554	-0.000063	0.260082
C260	C	1.001887	0.333271	0.593415
C261	C	1.335220	0.666604	0.926749
C262	C	0.669660	-0.000058	0.352368
C263	C	1.002993	0.333275	0.685702
C264	C	1.336327	0.666609	1.019035
H265	H	-0.046628	-0.100026	0.104201
H266	H	0.286706	0.233308	0.437534
H267	H	0.620039	0.566641	0.770868
H268	H	0.743041	-0.734946	0.004900
H269	H	1.076375	-0.401613	0.338234
H270	H	1.409708	-0.068280	0.671567
H271	H	0.226638	0.154955	0.108921
H272	H	0.559972	0.488289	0.442255
H273	H	0.893305	0.821622	0.775588
Br274	Br	0.551666	-0.000047	-0.265341
Br275	Br	0.884999	0.333286	0.067993
Br276	Br	1.218332	0.666619	0.401326
H277	H	0.602487	-0.850362	0.211131
H278	H	0.935820	-0.517029	0.544464
H279	H	1.269153	-0.183696	0.877797
Br280	Br	-0.170506	0.129762	0.101991
Br281	Br	0.162828	0.463095	0.435325
Br282	Br	0.496161	0.796428	0.768658
Br283	Br	0.764040	-0.132502	-0.025893
Br284	Br	1.097374	0.200831	0.307440
Br285	Br	1.430707	0.534165	0.640774
H286	H	0.563711	-0.557771	0.267958
H287	H	0.897045	-0.224438	0.601291
H288	H	1.230378	0.108895	0.934625
Br289	Br	0.515992	-0.129900	0.114124
Br290	Br	0.849325	0.203433	0.447457
Br291	Br	1.182658	0.536767	0.780790
H292	H	0.577661	-0.000052	-0.451826
H293	H	0.910994	0.333281	-0.118492
H294	H	1.244328	0.666614	0.214841
Br295	Br	0.542668	-0.425128	0.298810
Br296	Br	0.876001	-0.091794	0.632143
Br297	Br	1.209335	0.241539	0.965477
Br298	Br	-0.170526	-0.129929	0.102025
Br299	Br	0.162807	0.203404	0.435358
Br300	Br	0.496140	0.536737	0.768692
H301	H	-0.046627	0.099862	0.104155
H302	H	0.286706	0.433196	0.437489
H303	H	0.620040	0.766529	0.770822
Br304	Br	0.581436	-0.717721	0.241985
Br305	Br	0.914770	-0.384388	0.575318
Br306	Br	1.248103	-0.051054	0.908651
H307	H	0.118883	0.154955	0.107030
H308	H	0.452216	0.488288	0.440363
H309	H	0.785549	0.821622	0.773697
Br310	Br	0.375980	0.129788	0.111603
Br311	Br	0.709313	0.463121	0.444936
Br312	Br	1.042646	0.796454	0.778269
H313	H	0.226617	-0.155095	0.109012
H314	H	0.559950	0.178238	0.442346
H315	H	0.893283	0.511571	0.775679
Br316	Br	0.375993	-0.129914	0.111631
Br317	Br	0.709326	0.203419	0.444964
Br318	Br	1.042660	0.536753	0.778298
H319	H	0.602444	-0.149797	0.211178
H320	H	0.935777	0.183536	0.544511
H321	H	1.269111	0.516869	0.877844
H322	H	0.602448	-0.265197	0.211176
H323	H	0.935782	0.068137	0.544509
H324	H	1.269115	0.401470	0.877842
Br325	Br	0.802795	-0.574990	-0.082782
Br326	Br	1.136128	-0.241657	0.250551
Br327	Br	1.469462	0.091677	0.583885
Br328	Br	0.516006	0.129788	0.114055
Br329	Br	0.849339	0.463122	0.447388
Br330	Br	1.182673	0.796455	0.780722
Br331	Br	0.102745	-0.185009	0.106839
Br332	Br	0.436078	0.148325	0.440173
Br333	Br	0.769412	0.481658	0.773506
Br334	Br	0.764043	-0.282412	-0.025930
Br335	Br	1.097376	0.050922	0.307404
Br336	Br	1.430710	0.384255	0.640737
Br337	Br	0.793808	-0.000071	-0.518561
Br338	Br	1.127142	0.333262	-0.185227
Br339	Br	1.460475	0.666596	0.148106
H340	H	0.781757	-0.442354	-0.051911
H341	H	1.115090	-0.109020	0.281422
H342	H	1.448424	0.224313	0.614756
H343	H	0.743043	-0.850346	0.004898
H344	H	1.076377	-0.517013	0.338231
H345	H	1.409710	-0.183680	0.671564
Br346	Br	0.796271	-0.000090	-0.314182
Br347	Br	1.129604	0.333244	0.019151
Br348	Br	1.462937	0.666577	0.352485
