data_functionalizedCrystal
_audit_creation_method	'MofGen! by Chris Wilmer'
_symmetry_space_group_name_H-M	'P1'
_symmetry_Int_Tables_number	1
_symmetry_cell_setting	triclinic
loop_
_symmetry_equiv_pos_as_xyz
  x,y,z
_cell_length_a	19.288859
_cell_length_b	14.971486
_cell_length_c	13.448316
_cell_angle_alpha	90.006811
_cell_angle_beta	89.992367
_cell_angle_gamma	96.626073
loop_
_atom_site_label
_atom_site_type_symbol
_atom_site_fract_x
_atom_site_fract_y
_atom_site_fract_z
O1	O	0.921717	-0.111555	-0.082712
O2	O	1.421717	0.388445	0.417288
O3	O	0.719505	-0.126613	-0.082710
O4	O	1.219505	0.373387	0.417290
O5	O	0.826030	0.011145	-0.082704
O6	O	1.326030	0.511145	0.417296
O7	O	0.815191	-0.249314	-0.082718
O8	O	1.315191	0.250686	0.417282
O9	O	0.826017	0.011154	0.082680
O10	O	1.326017	0.511154	0.582680
O11	O	0.719491	-0.126605	0.082674
O12	O	1.219491	0.373395	0.582674
O13	O	0.921703	-0.111547	0.082672
O14	O	1.421703	0.388453	0.582672
Cu15	Cu	0.820596	-0.119075	0.097774
Cu16	Cu	1.320596	0.380925	0.597774
Cu17	Cu	0.820612	-0.119085	-0.097812
Cu18	Cu	1.320612	0.380915	0.402188
O19	O	0.815177	-0.249305	0.082666
O20	O	1.315177	0.250695	0.582666
C21	C	0.693620	-0.126125	-0.000017
C22	C	1.193620	0.373875	0.499983
C23	C	0.616511	-0.124674	-0.000016
C24	C	1.116511	0.375326	0.499984
C25	C	0.052702	-0.195684	-0.000022
C26	C	0.552702	0.304316	0.499978
C27	C	0.125153	-0.197056	-0.000027
C28	C	0.625153	0.302944	0.499973
C29	C	0.169596	-0.116225	-0.000021
C30	C	0.669596	0.383775	0.499979
C31	C	0.141583	-0.034017	-0.000035
C32	C	0.641583	0.465983	0.499965
C33	C	0.069133	-0.032647	-0.000039
C34	C	0.569133	0.467353	0.499961
C35	C	0.290665	-0.055939	0.057927
C36	C	0.790665	0.444061	0.557927
C37	C	0.363113	-0.057312	0.057938
C38	C	0.863113	0.442688	0.557938
C39	C	0.393056	-0.120446	-0.000011
C40	C	0.893056	0.379554	0.499989
C41	C	0.350540	-0.182222	-0.057958
C42	C	0.850540	0.317778	0.442042
C43	C	0.278090	-0.180852	-0.057963
C44	C	0.778090	0.319148	0.442037
C45	C	0.248157	-0.117701	-0.000016
C46	C	0.748157	0.382299	0.499984
C47	C	0.499620	-0.204136	-0.000010
C48	C	0.999620	0.295864	0.499990
C49	C	0.572073	-0.205505	-0.000021
C50	C	1.072073	0.294495	0.499979
C51	C	0.588502	-0.042464	-0.000019
C52	C	1.088502	0.457536	0.499981
C53	C	0.516051	-0.041098	-0.000017
C54	C	1.016051	0.458902	0.499983
C55	C	0.471614	-0.121937	-0.000008
C56	C	0.971614	0.378063	0.499992
C57	C	0.825539	0.044472	-0.000012
C58	C	1.325539	0.544472	0.499988
C59	C	0.824086	0.143761	-0.000013
C60	C	1.324086	0.643761	0.499987
C61	C	0.947588	-0.112035	-0.000023
C62	C	1.447588	0.387965	0.499977
C63	C	1.024697	-0.113486	-0.000030
C64	C	1.524697	0.386514	0.499970
C65	C	0.815669	-0.282632	-0.000028
C66	C	1.315669	0.217368	0.499972
C67	C	0.817122	-0.381921	-0.000033
C68	C	1.317122	0.118079	0.499967
N69	N	0.820590	-0.119067	0.235338
N70	N	1.320590	0.380933	0.735338
C71	C	0.886667	0.201326	-0.000013
C72	C	1.386667	0.701326	0.499987
C73	C	0.885298	0.294618	-0.000023
C74	C	1.385298	0.794618	0.499977
C75	C	0.821347	0.330343	-0.000026
C76	C	1.321347	0.830343	0.499974
C77	C	0.758761	0.272770	-0.000029
C78	C	1.258761	0.772770	0.499971
C79	C	0.760131	0.179480	-0.000026
C80	C	1.260131	0.679480	0.499974
C81	C	0.755911	0.467217	-0.000032
C82	C	1.255911	0.967217	0.499968
C83	C	0.754541	0.560514	-0.000033
C84	C	1.254541	1.060514	0.499967
C85	C	0.881078	0.582355	-0.000029
C86	C	1.381078	1.082355	0.499971
C87	C	0.882448	0.489065	-0.000027
C88	C	1.382448	0.989065	0.499973
C89	C	0.819861	0.431499	-0.000028
C90	C	1.319861	0.931499	0.499972
N91	N	0.820623	-0.119085	-0.235376
N92	N	1.320623	0.380915	0.264624
C93	C	0.867774	-0.058093	0.287381
C94	C	1.367774	0.441907	0.787381
C95	C	0.867779	-0.058092	0.391484
C96	C	1.367779	0.441908	0.891484
C97	C	0.820601	-0.119071	0.443543
C98	C	1.320601	0.380929	0.943543
C99	C	0.773412	-0.180048	0.391492
C100	C	1.273412	0.319952	0.891492
C101	C	0.773405	-0.180044	0.287391
C102	C	1.273405	0.319956	0.787391
C103	C	0.773431	-0.180054	0.608473
C104	C	1.273431	0.319946	1.108473
C105	C	0.773439	-0.180060	0.712581
C106	C	1.273439	0.319940	1.212581
C107	C	0.867805	-0.058102	0.712566
C108	C	1.367805	0.441898	1.212566
C109	C	0.867798	-0.058098	0.608464
C110	C	1.367798	0.441902	1.108464
C111	C	0.820609	-0.119077	0.556421
C112	C	1.320609	0.380923	1.056421
H113	H	0.016526	-0.261509	-0.000019
H114	H	0.516526	0.238491	0.499981
H115	H	0.735022	-0.229714	0.754962
H116	H	1.235022	0.270286	1.254962
Br117	Br	0.931830	0.024650	0.537810
Br118	Br	1.431830	0.524650	1.037810
Br119	Br	0.973463	0.152852	0.000005
Br120	Br	1.473463	0.652852	0.500005
Br121	Br	0.931849	0.024649	0.783198
Br122	Br	1.431849	0.524649	1.283198
Br123	Br	0.610081	-0.317069	-0.000025
Br124	Br	1.110081	0.182931	0.499975
Br125	Br	0.931809	0.024663	0.216741
Br126	Br	1.431809	0.524663	0.716741
H127	H	0.936258	0.341485	-0.000021
H128	H	1.436258	0.841485	0.499979
Br129	Br	0.670972	0.389092	-0.000038
Br130	Br	1.170972	0.889092	0.499962
H131	H	0.706691	0.301865	-0.000038
H132	H	1.206691	0.801865	0.499962
Br133	Br	0.709362	-0.262793	0.216761
Br134	Br	1.209362	0.237207	0.716761
Br135	Br	0.931813	0.024663	0.462118
Br136	Br	1.431813	0.524663	0.962118
Br137	Br	0.201897	0.075683	-0.000035
Br138	Br	0.701897	0.575683	0.499965
H139	H	0.493249	0.025836	-0.000018
H140	H	0.993249	0.525836	0.499982
H141	H	0.463438	-0.269960	-0.000004
H142	H	0.963438	0.230040	0.499996
H143	H	0.709171	0.132610	-0.000026
H144	H	1.209171	0.632610	0.499974
H145	H	0.932038	0.629231	-0.000032
H146	H	1.432038	1.129231	0.499968
H147	H	0.735003	-0.229707	0.566103
H148	H	1.235003	0.270293	1.066103
Br149	Br	0.709379	-0.262801	0.462139
Br150	Br	1.209379	0.237199	0.962139
H151	H	0.147960	-0.263993	-0.000011
H152	H	0.647960	0.236007	0.499989
Br153	Br	0.220392	-0.264682	-0.136605
Br154	Br	0.720392	0.235318	0.363395
H155	H	0.934522	0.459982	-0.000017
H156	H	1.434522	0.959982	0.499983
H157	H	0.702466	0.589597	-0.000020
H158	H	1.202466	1.089597	0.499980
H159	H	0.624687	0.023350	-0.000021
H160	H	1.124687	0.523350	0.499979
Br161	Br	0.391164	-0.267921	-0.136593
Br162	Br	0.891164	0.232079	0.363407
H163	H	0.397724	-0.007015	0.105128
H164	H	0.897724	0.492985	0.605128
H165	H	0.046333	0.034290	-0.000046
H166	H	0.546333	0.534290	0.499954
H167	H	0.266293	-0.004524	0.105118
H168	H	0.766293	0.495476	0.605118
