data_functionalizedCrystal
_audit_creation_method	'MofGen! by Chris Wilmer'
_symmetry_space_group_name_H-M	'P1'
_symmetry_Int_Tables_number	1
_symmetry_cell_setting	triclinic
loop_
_symmetry_equiv_pos_as_xyz
  x,y,z
_cell_length_a	15.995350
_cell_length_b	15.995350
_cell_length_c	15.072220
_cell_angle_alpha	89.992853
_cell_angle_beta	89.999692
_cell_angle_gamma	83.492375
loop_
_atom_site_label
_atom_site_type_symbol
_atom_site_fract_x
_atom_site_fract_y
_atom_site_fract_z
O1	O	-1.110984	-0.107932	0.073703
O2	O	-0.610984	0.392068	0.573703
O3	O	-0.867209	-0.121260	0.073721
O4	O	-0.367209	0.378740	0.573721
O5	O	-0.995760	0.007292	0.073710
O6	O	-0.495760	0.507292	0.573710
O7	O	-0.982433	-0.236484	0.073713
O8	O	-0.482433	0.263516	0.573713
O9	O	-0.995752	0.007307	-0.073855
O10	O	-0.495752	0.507307	0.426145
O11	O	-0.867200	-0.121244	-0.073844
O12	O	-0.367200	0.378756	0.426156
O13	O	-1.110976	-0.107917	-0.073862
O14	O	-0.610976	0.392083	0.426138
Zn15	Zn	-0.989087	-0.114578	-0.097283
Zn16	Zn	-0.489087	0.385422	0.402717
Zn17	Zn	-0.989098	-0.114599	0.097141
Zn18	Zn	-0.489098	0.385401	0.597141
O19	O	-0.982424	-0.236468	-0.073852
O20	O	-0.482424	0.263532	0.426148
C21	C	-0.836010	-0.120701	-0.000060
C22	C	-0.336010	0.379299	0.499940
C23	C	-0.743060	-0.119049	-0.000053
C24	C	-0.243060	0.380951	0.499947
C25	C	-0.995205	0.038494	-0.000070
C26	C	-0.495205	0.538494	0.499930
C27	C	-0.993553	0.131444	-0.000065
C28	C	-0.493553	0.631444	0.499935
C29	C	-1.142175	-0.108476	-0.000080
C30	C	-0.642175	0.391524	0.499920
C31	C	-1.235125	-0.110127	-0.000081
C32	C	-0.735125	0.389873	0.499919
C33	C	-0.982980	-0.267671	-0.000069
C34	C	-0.482980	0.232329	0.499931
C35	C	-0.984631	-0.360621	-0.000069
C36	C	-0.484631	0.139379	0.499931
C37	C	-0.405312	-0.113117	-0.000071
C38	C	0.094688	0.386883	0.499929
C39	C	-0.452746	-0.021565	-0.000401
C40	C	0.047254	0.478435	0.499599
C41	C	-0.549436	-0.023217	-0.000063
C42	C	-0.049436	0.476783	0.499937
C43	C	-0.572873	-0.116060	-0.000063
C44	C	-0.072873	0.383940	0.499937
C45	C	-0.531790	-0.161225	0.084201
C46	C	-0.031790	0.338775	0.584201
C47	C	-0.435155	-0.158925	0.084266
C48	C	0.064845	0.341075	0.584266
C49	C	-0.434806	-0.160799	-0.083543
C50	C	0.065194	0.339201	0.416457
C51	C	-0.531751	-0.160777	-0.084651
C52	C	-0.031751	0.339223	0.415349
C53	C	-0.667570	-0.117727	-0.000055
C54	C	-0.167570	0.382273	0.499945
C55	C	-0.310614	-0.111452	-0.000073
C56	C	0.189386	0.388548	0.499927
C57	C	-0.987621	0.469192	-0.000068
C58	C	-0.487621	0.969192	0.499932
C59	C	-0.896069	0.421758	0.000270
C60	C	-0.396069	0.921758	0.500270
C61	C	-0.897721	0.325068	-0.000063
C62	C	-0.397721	0.825068	0.499937
C63	C	-0.990564	0.301631	-0.000066
C64	C	-0.490564	0.801631	0.499934
C65	C	-1.035715	0.342718	-0.084335
C66	C	-0.535715	0.842718	0.415665
C67	C	-1.033416	0.439353	-0.084405
C68	C	-0.533416	0.939353	0.415595
C69	C	-1.035316	0.439694	0.083404
C70	C	-0.535316	0.939694	0.583404
C71	C	-1.035295	0.342748	0.084518
C72	C	-0.535295	0.842748	0.584518
C73	C	-0.992231	0.206934	-0.000068
C74	C	-0.492231	0.706934	0.499932
C75	C	-0.985956	0.563890	-0.000072
C76	C	-0.485956	1.063890	0.499928
N77	N	-0.989085	-0.114564	-0.229971
N78	N	-0.489085	0.385436	0.270029
C79	C	-0.989099	-0.114592	-0.589173
C80	C	-0.489099	0.385408	-0.089173
C81	C	-1.058107	-0.046036	-0.551544
C82	C	-0.558107	0.453964	-0.051544
C83	C	-1.057927	-0.045783	-0.448718
C84	C	-0.557927	0.454217	0.051282
C85	C	-0.989093	-0.114578	-0.410969
C86	C	-0.489093	0.385422	0.089031
C87	C	-0.901736	-0.095497	-0.448305
C88	C	-0.401736	0.404503	0.051695
C89	C	-0.902144	-0.095013	-0.551163
C90	C	-0.402144	0.404987	-0.051163
C91	C	-1.006660	-0.202431	-0.551250
C92	C	-0.506660	0.297569	-0.051250
C93	C	-1.008643	-0.201842	-0.448386
C94	C	-0.508643	0.298158	0.051614
C95	C	-0.989084	-0.114572	-0.310255
C96	C	-0.489084	0.385428	0.189745
C97	C	-0.989102	-0.114597	-0.689886
C98	C	-0.489102	0.385403	-0.189886
N99	N	-0.989106	-0.114606	0.229830
N100	N	-0.489106	0.385394	0.729830
H101	H	-0.434221	0.015037	-0.060830
H102	H	0.065779	0.515037	0.439170
H103	H	-0.849251	-0.143047	-0.576056
H104	H	-0.349251	0.356953	-0.076056
O105	O	-1.124980	0.322404	0.091258
O106	O	-0.624980	0.822404	0.591258
H107	H	-1.168373	0.381690	0.090430
H108	H	-0.668373	0.881690	0.590430
O109	O	-1.124727	0.481767	0.084166
O110	O	-0.624727	0.981767	0.584166
H111	H	-1.135186	0.523489	0.025417
H112	H	-0.635186	1.023489	0.525417
O113	O	-0.850402	0.288156	-0.080218
O114	O	-0.350402	0.788156	0.419782
H115	H	-0.826254	0.339378	-0.118898
H116	H	-0.326254	0.839378	0.381102
H117	H	-0.416850	-0.126002	0.147255
H118	H	0.083150	0.373998	0.647255
H119	H	-0.961638	-0.255247	-0.422688
H120	H	-0.461638	0.244753	0.077312
H121	H	-1.004348	0.314343	-0.147042
H122	H	-0.504348	0.814343	0.352958
O123	O	-1.143944	-0.060818	-0.415267
O124	O	-0.643944	0.439182	0.084733
H125	H	-1.186046	-0.068333	-0.472558
H126	H	-0.686046	0.431667	0.027442
O127	O	-0.392725	-0.250206	-0.084310
O128	O	0.107275	0.249794	0.415690
H129	H	-0.410015	-0.282969	-0.023207
H130	H	0.089985	0.217031	0.476793
O131	O	-0.426795	0.026692	0.079190
O132	O	0.073205	0.526692	0.579190
H133	H	-0.380262	-0.014246	0.118985
H134	H	0.119738	0.485754	0.618985
O135	O	-1.144418	-0.060835	-0.584298
O136	O	-0.644418	0.439165	-0.084298
H137	H	-1.139057	-0.117206	-0.627754
H138	H	-0.639057	0.382794	-0.127754
H139	H	-0.560168	-0.129868	0.146912
H140	H	-0.060168	0.370132	0.646912
H141	H	-1.002283	0.315493	0.146857
H142	H	-0.502283	0.815493	0.646857
H143	H	-0.577298	0.012512	0.060446
H144	H	-0.077298	0.512512	0.560446
H145	H	-1.046706	0.019403	-0.424120
H146	H	-0.546706	0.519403	0.075880
O147	O	-0.995674	0.466880	0.168013
O148	O	-0.495674	0.966880	0.668013
H149	H	-0.941528	0.501725	0.151511
H150	H	-0.441528	1.001725	0.651511
O151	O	-0.940011	-0.270017	-0.583489
O152	O	-0.440011	0.229983	-0.083489
H153	H	-0.894592	-0.241242	-0.626314
H154	H	-0.394592	0.258758	-0.126314
O155	O	-0.550502	-0.251576	0.088352
O156	O	-0.050502	0.248424	0.588352
H157	H	-0.490541	-0.293943	0.087422
H158	H	0.009459	0.206057	0.587422
H159	H	-0.559064	-0.127807	-0.146989
H160	H	-0.059064	0.372193	0.353011
H161	H	-0.849147	-0.144100	-0.423854
H162	H	-0.349147	0.355900	0.076146
O163	O	-1.043468	0.039825	-0.585786
O164	O	-0.543468	0.539825	-0.085786
H165	H	-0.980424	0.054624	-0.564294
H166	H	-0.480424	0.554624	-0.064294
H167	H	-0.577862	0.012284	-0.060467
H168	H	-0.077862	0.512284	0.439533
H169	H	-0.886666	-0.030953	-0.575163
H170	H	-0.386666	0.469047	-0.075163
O171	O	-0.880727	-0.011602	-0.414215
O172	O	-0.380727	0.488398	0.085785
H173	H	-0.932363	0.016632	-0.370691
H174	H	-0.432363	0.516632	0.129309
H175	H	-0.414267	-0.130862	-0.147414
H176	H	0.085733	0.369138	0.352586
O177	O	-1.089244	-0.226716	-0.585591
O178	O	-0.589244	0.273284	-0.085591
H179	H	-1.087022	-0.230475	-0.659101
H180	H	-0.587022	0.269525	-0.159101
H181	H	-0.862229	0.296639	0.060344
H182	H	-0.362229	0.796639	0.560344
O183	O	-0.392423	-0.247953	0.089341
O184	O	0.107577	0.252047	0.589341
H185	H	-0.411840	-0.278049	0.151226
H186	H	0.088160	0.221951	0.651226
H187	H	-0.547116	-0.228480	-0.089741
H188	H	-0.047116	0.271520	0.410259
H189	H	-1.072906	-0.216320	-0.423984
H190	H	-0.572906	0.283680	0.076016
O191	O	-1.122444	0.482081	-0.089494
O192	O	-0.622444	0.982081	0.410506
H193	H	-1.166948	0.433694	-0.091901
H194	H	-0.666948	0.933694	0.408099
H195	H	-0.859480	0.440283	0.060701
H196	H	-0.359480	0.940283	0.560701
O197	O	-0.847804	0.447702	-0.079330
O198	O	-0.347804	0.947702	0.420670
H199	H	-0.888738	0.494232	-0.119133
H200	H	-0.388738	0.994232	0.380867
H201	H	-1.103924	0.328592	-0.087471
H202	H	-0.603924	0.828592	0.412529
O203	O	-0.989786	0.463615	-0.167833
O204	O	-0.489786	0.963615	0.332167
H205	H	-0.970521	0.406351	-0.207746
H206	H	-0.470521	0.906351	0.292254
