data_functionalizedCrystal
_audit_creation_method	'MofGen! by Chris Wilmer'
_symmetry_space_group_name_H-M	'P1'
_symmetry_Int_Tables_number	1
_symmetry_cell_setting	triclinic
loop_
_symmetry_equiv_pos_as_xyz
  x,y,z
_cell_length_a	6.394989
_cell_length_b	16.992694
_cell_length_c	15.455313
_cell_angle_alpha	92.865953
_cell_angle_beta	87.251077
_cell_angle_gamma	88.582967
loop_
_atom_site_label
_atom_site_type_symbol
_atom_site_fract_x
_atom_site_fract_y
_atom_site_fract_z
O1	O	-0.452196	-1.041422	0.072013
O2	O	-0.447332	-0.813087	0.072039
O3	O	-0.146241	-0.930496	0.072026
O4	O	-0.753287	-0.924014	0.072026
O5	O	-0.129078	-0.937203	-0.072237
O6	O	-0.430169	-0.819794	-0.072224
O7	O	-0.435033	-1.048129	-0.072250
Cu8	Cu	-0.431034	-0.934574	-0.085409
Cu9	Cu	-0.451331	-0.926642	0.085198
O10	O	-0.736124	-0.930721	-0.072237
C11	C	-0.432490	-0.787166	-0.000089
C12	C	-0.413810	-0.699937	-0.000079
N13	N	-0.465593	-0.921064	0.205194
C14	C	-0.449875	-1.074050	-0.000120
C15	C	-0.468556	-1.161279	-0.000124
C16	C	-0.059624	-0.932567	-0.000102
C17	C	0.177264	-0.928650	-0.000100
N18	N	-0.416757	-0.940158	-0.205405
C19	C	-0.594058	-0.651478	-0.000080
C20	C	-0.576491	-0.569518	-0.000092
C21	C	-0.378675	-0.536019	-0.000097
C22	C	-0.198413	-0.584485	-0.000099
C23	C	-0.215981	-0.666443	-0.000093
C24	C	-0.305863	-0.291703	-0.000120
C25	C	-0.288308	-0.209738	-0.000123
C26	C	-0.666388	-0.194777	-0.000118
C27	C	-0.683939	-0.276738	-0.000107
C28	C	-0.503677	-0.325196	-0.000113
N29	N	-0.360715	-0.452243	-0.000106
N30	N	-0.521638	-0.408971	-0.000110
C31	C	-0.337958	-0.971043	0.250583
C32	C	-0.348739	-0.966823	0.341392
C33	C	-0.487145	-0.912619	0.386809
C34	C	-0.614794	-0.862638	0.341414
C35	C	-0.604022	-0.866862	0.250608
C36	C	-0.533634	-0.894402	0.658393
C37	C	-0.544391	-0.890179	0.749206
C38	C	-0.278338	-0.994366	0.749177
C39	C	-0.267570	-0.998583	0.658369
C40	C	-0.395226	-0.948604	0.612981
N41	N	-0.498163	-0.908302	0.479630
N42	N	-0.384217	-0.952925	0.520162
H43	H	-0.723269	-0.530065	-0.000092
H44	H	-0.174409	-1.035057	0.786140
H45	H	-0.069204	-0.705898	-0.000092
H46	H	-0.657104	-0.846037	0.786181
H47	H	-0.755141	-0.678746	-0.000075
H48	H	-0.845022	-0.304006	-0.000093
C49	C	-0.187613	-1.029970	0.201433
C50	C	-0.078182	-1.072849	0.260624
C51	C	0.060316	-1.127148	0.215382
H52	H	-0.091223	-1.002662	0.166005
H53	H	-0.264300	-1.065038	0.166028
H54	H	-0.001499	-1.037786	0.296014
H55	H	-0.174517	-1.100174	0.296054
H56	H	-0.016371	-1.162216	0.179977
H57	H	0.156692	-1.099833	0.179956
H58	H	0.134568	-1.156253	0.255535
C59	C	-0.116993	-1.057401	0.609179
C60	C	0.088216	-1.041780	0.631271
C61	C	0.226979	-1.095956	0.585986
H62	H	-0.128564	-1.052820	0.548582
H63	H	-0.150478	-1.109332	0.624085
H64	H	0.121691	-0.989862	0.616358
H65	H	0.099854	-1.046367	0.691859
H66	H	0.193494	-1.147888	0.600893
H67	H	0.215390	-1.091371	0.525392
H68	H	0.366227	-1.085370	0.600975
H69	H	-0.813146	-0.155314	-0.000115
H70	H	-0.707959	-0.826165	0.213653
H71	H	-0.244810	-1.007521	0.378347
H72	H	-0.727498	-0.818506	0.378399
C73	C	-0.073714	-0.173214	-0.000093
C74	C	-0.096926	-0.091066	-0.000071
C75	C	0.100697	-0.057393	-0.000032
H76	H	0.007225	-0.191974	-0.050391
H77	H	-0.004863	-0.187329	0.050231
H78	H	-0.165746	-0.076958	-0.050390
H79	H	-0.177829	-0.072285	0.050223
H80	H	0.169548	-0.071507	0.050293
H81	H	0.181621	-0.076158	-0.050330
H82	H	0.084974	-0.001651	-0.000009
C83	C	-0.110097	-0.344257	0.000059
C84	C	-0.000641	-0.325384	0.074289
C85	C	0.179705	-0.373790	0.074490
H86	H	-0.023331	-0.336281	-0.050190
H87	H	-0.148786	-0.397878	0.000106
H88	H	0.038053	-0.271777	0.074234
H89	H	-0.087345	-0.333364	0.124550
H90	H	0.141016	-0.427410	0.074537
H91	H	0.266453	-0.365810	0.024238
H92	H	0.253983	-0.360996	0.124858
H93	H	-0.037345	-0.557204	-0.000115
H94	H	-0.637573	-0.853706	0.621446
