data_functionalizedCrystal
_audit_creation_method	'MofGen! by Chris Wilmer'
_symmetry_space_group_name_H-M	'P1'
_symmetry_Int_Tables_number	1
_symmetry_cell_setting	triclinic
loop_
_symmetry_equiv_pos_as_xyz
  x,y,z
_cell_length_a	14.971486
_cell_length_b	27.732048
_cell_length_c	14.048226
_cell_angle_alpha	89.988614
_cell_angle_beta	89.998499
_cell_angle_gamma	83.128392
loop_
_atom_site_label
_atom_site_type_symbol
_atom_site_fract_x
_atom_site_fract_y
_atom_site_fract_z
O1	O	1.185952	0.062991	-0.079062
O2	O	0.925432	0.070534	-0.079089
O3	O	1.063783	-0.003597	-0.079057
O4	O	1.047601	0.137122	-0.079094
O5	O	1.063767	-0.003601	0.079265
O6	O	0.925416	0.070530	0.079232
O7	O	1.185935	0.062986	0.079259
Zn8	Zn	1.055673	0.066757	0.104383
Zn9	Zn	1.055695	0.066763	-0.104212
O10	O	1.047584	0.137117	0.079227
C11	C	0.892105	0.070195	0.000068
C12	C	0.792824	0.069184	0.000059
C13	C	0.734910	0.112734	0.000048
C14	C	0.641626	0.111781	0.000063
C15	C	0.606257	0.067278	0.000081
C16	C	0.664178	0.023724	0.000094
C17	C	0.757460	0.024678	0.000086
C18	C	0.469746	0.021740	0.000108
C19	C	0.376457	0.020787	0.000114
C20	C	0.353912	0.108844	0.000084
C21	C	0.447195	0.109797	0.000076
C22	C	0.505109	0.066243	0.000088
C23	C	1.063435	-0.021608	0.000107
C24	C	1.062412	-0.075267	0.000114
C25	C	1.137729	-0.413735	0.000073
C26	C	1.133934	-0.615412	0.000060
O27	O	1.202806	-0.646350	0.000025
N28	N	1.051898	-0.634914	0.000052
C29	C	0.970804	-0.603994	0.000042
O30	O	0.900940	-0.625209	0.000025
C31	C	0.974601	-0.402318	0.000048
C32	C	1.056642	-0.382818	0.000066
C33	C	1.219764	-0.394235	0.000090
C34	C	1.220712	-0.343819	0.000098
C35	C	1.139625	-0.312902	0.000091
C36	C	1.057590	-0.332402	0.000074
C37	C	0.893508	-0.371398	0.000031
C38	C	0.894464	-0.320976	0.000030
C39	C	0.976506	-0.301477	0.000048
C40	C	0.977451	-0.251069	0.000075
N41	N	1.059487	-0.231567	0.000083
C42	C	1.140574	-0.262483	0.000091
C43	C	0.968817	-0.709877	0.000040
C44	C	0.967868	-0.760296	0.000040
C45	C	1.130998	-0.771710	0.000056
C46	C	1.131946	-0.721291	0.000063
C47	C	1.050854	-0.690375	0.000048
C48	C	1.142559	-0.156605	0.000110
C49	C	1.143500	-0.106184	0.000122
C50	C	0.980370	-0.094773	0.000101
C51	C	0.979429	-0.145190	0.000093
C52	C	1.060530	-0.176105	0.000094
O53	O	0.908616	-0.220103	0.000099
O54	O	1.210428	-0.241258	0.000086
C55	C	1.136781	-0.464151	0.000065
C56	C	1.054746	-0.483651	0.000049
C57	C	0.973659	-0.452734	0.000041
C58	C	1.053797	-0.534070	0.000049
C59	C	1.134884	-0.564986	0.000056
C60	C	1.216921	-0.545484	0.000064
C61	C	1.217868	-0.495067	0.000072
C62	C	0.891623	-0.472237	0.000033
C63	C	0.890682	-0.522654	0.000026
C64	C	0.971769	-0.553570	0.000033
C65	C	1.219263	0.063326	0.000100
C66	C	1.318544	0.064337	0.000103
C67	C	1.047932	0.155128	0.000062
C68	C	1.048955	0.208788	0.000048
N69	N	1.055665	0.066753	0.246743
N70	N	1.055710	0.066764	-0.246573
C71	C	1.116945	0.033942	0.296576
C72	C	1.116951	0.033941	0.396234
C73	C	1.055680	0.066755	0.446057
C74	C	0.994393	0.099569	0.396217
C75	C	0.994384	0.099566	0.296562
C76	C	0.994419	0.099572	0.603932
C77	C	0.994429	0.099575	0.703594
C78	C	1.116987	0.033947	0.703604
C79	C	1.116977	0.033945	0.603948
C80	C	1.055691	0.066759	0.554115
H81	H	0.635373	-0.012511	0.000122
H82	H	0.475989	0.146035	0.000053
N83	N	1.179574	0.000411	0.754483
N84	N	1.178956	-0.044266	0.743347
H85	H	1.223158	-0.067952	0.779277
N86	N	0.931789	0.133077	0.245641
N87	N	0.876482	0.117688	0.190048
H88	H	0.832271	0.141354	0.154084
H89	H	0.306753	0.144307	0.000079
H90	H	0.516899	-0.013726	0.000119
H91	H	1.166850	0.007223	0.436807
N92	N	0.931828	0.133091	0.754475
N93	N	0.877102	0.162380	0.709974
H94	H	0.832884	0.186049	0.745907
N95	N	0.340342	-0.024675	0.000134
N96	N	0.392057	-0.063558	0.000154
H97	H	0.366552	-0.095667	0.000170
N98	N	0.582482	0.156271	0.000057
N99	N	0.614072	0.196002	0.000037
H100	H	0.572302	0.227426	0.000034
N101	N	0.811635	-0.289390	0.000029
N102	N	0.812486	-0.244374	0.000039
H103	H	0.753989	-0.222066	0.000041
H104	H	0.912624	-0.161067	0.000106
N105	N	0.771019	0.158198	0.000021
N106	N	0.719296	0.197078	0.000014
H107	H	0.744795	0.229189	-0.000003
N108	N	0.816608	-0.019812	0.000108
N109	N	0.785020	-0.059545	0.000128
H110	H	0.826791	-0.090967	0.000149
N111	N	1.227307	-0.086266	0.000157
N112	N	1.281803	-0.095731	0.066902
H113	H	1.340991	-0.081665	0.066927
H114	H	1.166843	0.007223	0.256016
N115	N	0.897547	-0.063186	0.000064
N116	N	0.842849	-0.064984	-0.066693
H117	H	0.784355	-0.042674	-0.066729
H118	H	1.282944	-0.570665	0.000074
N119	N	1.225409	-0.188172	0.000108
N120	N	1.298643	-0.170746	0.000123
H121	H	1.357156	-0.193040	0.000127
N122	N	1.179571	0.000420	0.553077
N123	N	1.151632	-0.029620	0.497489
H124	H	1.195845	-0.053298	0.461570
N125	N	1.304524	-0.323912	0.000112
N126	N	1.376911	-0.351530	0.000115
H127	H	1.436108	-0.337475	0.000122
H128	H	1.285799	-0.419403	0.000092
N129	N	1.215757	-0.701383	0.000085
N130	N	1.288146	-0.728998	0.000099
H131	H	1.347341	-0.714941	0.000115
N132	N	1.213836	-0.803289	0.000047
N133	N	1.287084	-0.785878	0.000042
H134	H	1.345586	-0.808181	0.000029
N135	N	0.884065	-0.780211	0.000054
N136	N	0.829554	-0.770762	0.066787
H137	H	0.770365	-0.784825	0.066794
N138	N	0.885969	-0.678307	0.000024
N139	N	0.812735	-0.695733	0.000019
H140	H	0.754221	-0.673439	0.000012
N141	N	0.806864	-0.542560	0.000019
N142	N	0.734475	-0.514944	0.000012
H143	H	0.675279	-0.529001	0.000001
H144	H	0.826701	-0.387265	0.000011
H145	H	1.284675	-0.479196	0.000086
N146	N	0.808781	-0.440667	0.000023
N147	N	0.735547	-0.458092	0.000014
H148	H	0.677034	-0.435798	0.000011
N149	N	0.931808	0.133092	0.553042
N150	N	0.877108	0.162389	0.597536
H151	H	0.832891	0.186064	0.561596
H152	H	0.944501	0.126285	0.436789
