data_functionalizedCrystal
_audit_creation_method	'MofGen! by Chris Wilmer'
_symmetry_space_group_name_H-M	'P1'
_symmetry_Int_Tables_number	1
_symmetry_cell_setting	triclinic
loop_
_symmetry_equiv_pos_as_xyz
  x,y,z
_cell_length_a	19.077068
_cell_length_b	11.169417
_cell_length_c	11.169409
_cell_angle_alpha	89.980176
_cell_angle_beta	92.259065
_cell_angle_gamma	92.327792
loop_
_atom_site_label
_atom_site_type_symbol
_atom_site_fract_x
_atom_site_fract_y
_atom_site_fract_z
Zn1	Zn	-0.280126	1.815630	-0.697665
Zn2	Zn	-0.397846	1.807395	-0.505018
Zn3	Zn	-0.280169	1.614913	-0.497002
Zn4	Zn	-0.397789	1.606803	-0.705659
O5	O	-0.338983	1.711185	-0.601336
O6	O	-0.295748	1.982486	-0.672119
O7	O	-0.382278	1.781809	-0.336008
O8	O	-0.181673	1.648378	-0.516921
O9	O	-0.382237	1.976436	-0.530582
O10	O	-0.181642	1.795844	-0.664347
O11	O	-0.295821	1.640393	-0.330119
O12	O	-0.295766	1.445887	-0.524672
O13	O	-0.382139	1.634556	-0.872546
O14	O	-0.382181	1.439929	-0.677971
O15	O	-0.295693	1.787981	-0.866672
O16	O	-0.496329	1.773945	-0.538333
O17	O	-0.496287	1.626571	-0.685743
C18	C	-0.338972	1.399361	-0.601320
C19	C	-0.338984	1.265960	-0.601343
C20	C	-0.521846	1.698517	-0.613802
C21	C	-0.600075	1.693208	-0.619175
C22	C	-0.636826	1.767503	-0.545014
C23	C	-0.710331	1.762516	-0.550075
C24	C	-0.747084	1.683227	-0.629291
C25	C	-0.710328	1.608929	-0.703460
C26	C	-0.636824	1.613923	-0.698404
C27	C	-0.966916	1.660064	-0.652640
C28	C	-1.040425	1.655073	-0.657687
C29	C	-1.040424	1.808662	-0.504303
C30	C	-0.966918	1.813643	-0.499250
C31	C	-0.930169	1.739350	-0.573423
N32	N	-0.822218	1.678125	-0.634463
N33	N	-0.855036	1.744459	-0.568256
C34	C	-0.155406	1.723935	-0.588848
C35	C	-0.077176	1.729368	-0.583526
C36	C	-0.338905	1.711282	-0.914373
C37	C	-0.338871	1.711324	-1.047771
C38	C	-0.338994	2.024226	-0.601353
C39	C	-0.338999	2.157626	-0.601360
C40	C	-0.339010	1.711160	-0.289513
C41	C	-0.338845	1.711365	-0.156103
H42	H	-0.606907	1.832062	-0.480503
H43	H	-0.740251	1.823014	-0.489685
F44	F	-0.927809	1.898046	-0.414950
H45	H	-1.070353	1.869149	-0.443917
H46	H	-0.606902	1.553426	-0.758795
H47	H	-1.070347	1.590521	-0.722215
F48	F	-0.927814	1.580992	-0.731581
H49	H	-0.740258	1.544376	-0.767964
