data_functionalizedCrystal
_audit_creation_method	'MofGen! by Chris Wilmer'
_symmetry_space_group_name_H-M	'P1'
_symmetry_Int_Tables_number	1
_symmetry_cell_setting	triclinic
loop_
_symmetry_equiv_pos_as_xyz
  x,y,z
_cell_length_a	10.540510
_cell_length_b	13.339070
_cell_length_c	11.804365
_cell_angle_alpha	74.887832
_cell_angle_beta	101.967963
_cell_angle_gamma	100.071303
loop_
_atom_site_label
_atom_site_type_symbol
_atom_site_fract_x
_atom_site_fract_y
_atom_site_fract_z
O1	O	-1.753074	-0.122485	-0.099031
O2	O	-1.388257	-0.135983	-0.099031
O3	O	-1.528796	0.018328	-0.099027
O4	O	-1.612535	-0.276796	-0.099034
O5	O	-1.491783	-0.022255	0.099028
O6	O	-1.351244	-0.176565	0.099024
O7	O	-1.716061	-0.163068	0.099024
Cu8	Cu	-1.530273	-0.173522	0.117108
Cu9	Cu	-1.574045	-0.125528	-0.117115
O10	O	-1.575522	-0.317378	0.099021
C11	C	-1.322104	-0.155268	-0.000004
C12	C	-1.180128	-0.152259	-0.000004
C13	C	-1.496144	0.035827	-0.000002
C14	C	-1.453982	0.148431	-0.000006
C15	C	-1.782214	-0.143782	-0.000006
C16	C	-1.924192	-0.146789	-0.000013
C17	C	-0.999298	-0.259364	-0.000461
C18	C	-1.146903	-0.262667	-0.000008
C19	C	-1.094968	-0.118914	0.113094
C20	C	-0.947363	-0.116504	0.113181
C21	C	-0.988864	-0.068055	-0.112044
C22	C	-1.137268	-0.072987	-0.113532
C23	C	-1.608174	-0.334877	-0.000008
C24	C	-1.650338	-0.447479	-0.000011
N25	N	-1.499495	-0.207278	0.281848
C26	C	-1.781820	0.510883	-0.000005
C27	C	-1.821436	0.405085	0.000006
C28	C	-1.729576	0.340917	0.000002
C29	C	-1.598093	0.382556	-0.000012
C30	C	-1.558471	0.488362	-0.000013
C31	C	-1.506227	0.318396	-0.000006
C32	C	-1.374744	0.360035	-0.000020
C33	C	-1.335129	0.465832	-0.000022
C34	C	-1.426989	0.530000	-0.000019
C35	C	-1.545849	0.212590	-0.000004
C36	C	-1.322500	0.190069	-0.000012
C37	C	-1.282884	0.295867	-0.000023
N38	N	-1.604830	-0.091765	-0.281855
C39	C	-1.678732	-0.010685	0.655801
C40	C	-1.702013	0.014855	0.531140
C41	C	-1.651385	-0.040676	0.468811
C42	C	-1.577473	-0.121752	0.531155
C43	C	-1.554199	-0.147300	0.655828
C44	C	-1.526852	-0.177291	0.468838
C45	C	-1.452940	-0.258367	0.531182
C46	C	-1.429669	-0.283910	0.655843
C47	C	-1.480297	-0.228380	0.718172
C48	C	-1.550126	-0.151742	0.344165
C49	C	-1.425593	-0.288357	0.344192
C50	C	-1.402312	-0.313898	0.468853
H51	H	-1.206472	-0.290270	-0.081084
Br52	Br	-0.964446	-0.096818	-0.254923
H53	H	-1.113866	-0.038495	0.117302
H54	H	-1.342132	-0.379912	0.519629
Br55	Br	-0.860500	0.019355	0.121822
Br56	Br	-0.979080	-0.303365	-0.135651
Br57	Br	-0.925960	-0.358195	0.133949
H58	H	-1.195539	-0.096965	-0.197201
Br59	Br	-1.142470	-0.213077	0.253381
Br60	Br	-1.197821	0.102989	-0.000003
H61	H	-1.369499	-0.349935	0.706604
Br62	Br	-1.356890	-0.363732	0.259612
Br63	Br	-1.906466	0.597965	0.000028
Br64	Br	-1.650433	-0.041716	0.259570
H65	H	-1.175293	-0.323792	0.081199
H66	H	-1.761839	0.254772	0.000012
Br67	Br	-0.875937	-0.209756	0.254085
H68	H	-1.928489	0.371190	0.000019
H69	H	-1.160136	0.009019	-0.120360
Br70	Br	-0.905094	0.070371	-0.113311
Br71	Br	-1.802320	0.124878	0.446532
H72	H	-1.670343	-0.019877	0.367306
H73	H	-1.228066	0.499729	-0.000025
H74	H	-1.652903	0.178697	0.000008
Br75	Br	-1.448689	-0.263038	0.887363
Br76	Br	-1.373258	0.673623	-0.000195
Br77	Br	-1.104449	0.352391	-0.000049
H78	H	-1.719955	0.034516	0.706558
