data_functionalizedCrystal
_audit_creation_method	'MofGen! by Chris Wilmer'
_symmetry_space_group_name_H-M	'P1'
_symmetry_Int_Tables_number	1
_symmetry_cell_setting	triclinic
loop_
_symmetry_equiv_pos_as_xyz
  x,y,z
_cell_length_a	17.699083
_cell_length_b	16.974813
_cell_length_c	16.053810
_cell_angle_alpha	96.219974
_cell_angle_beta	87.420691
_cell_angle_gamma	83.339637
loop_
_atom_site_label
_atom_site_type_symbol
_atom_site_fract_x
_atom_site_fract_y
_atom_site_fract_z
O1	O	1.000627	0.103655	0.076315
O2	O	1.500627	0.603655	0.576315
O3	O	0.780216	0.116707	0.077224
O4	O	1.280216	0.616707	0.577224
O5	O	0.896925	-0.005309	0.068962
O6	O	1.396925	0.494691	0.568962
O7	O	0.883918	0.225671	0.084577
O8	O	1.383918	0.725671	0.584577
O9	O	0.903342	-0.012003	-0.070350
O10	O	1.403342	0.487997	0.429650
O11	O	0.786633	0.110014	-0.062088
O12	O	1.286633	0.610014	0.437912
O13	O	1.007044	0.096961	-0.062997
O14	O	1.507044	0.596961	0.437003
Zn15	Zn	0.897858	0.102425	-0.084661
Zn16	Zn	1.397858	0.602425	0.415339
Zn17	Zn	0.889403	0.111244	0.098888
Zn18	Zn	1.389403	0.611244	0.598888
O19	O	0.890335	0.218978	-0.054735
O20	O	1.390335	0.718978	0.445265
C21	C	0.755229	0.112893	0.007540
C22	C	1.255229	0.612893	0.507540
C23	C	0.671213	0.111491	0.007455
C24	C	1.171213	0.611491	0.507455
C25	C	0.899758	-0.038209	-0.002690
C26	C	1.399758	0.461791	0.497310
C27	C	0.898631	-0.126269	-0.008638
C28	C	1.398631	0.373731	0.491362
C29	C	0.622421	0.183112	0.012297
C30	C	1.122421	0.683112	0.512297
C31	C	0.543481	0.181788	0.012197
C32	C	1.043481	0.681788	0.512197
C33	C	0.513335	0.108843	0.007261
C34	C	1.013335	0.608843	0.507261
C35	C	0.562135	0.037217	0.002416
C36	C	1.062135	0.537217	0.502416
C37	C	0.641073	0.038541	0.002511
C38	C	1.141073	0.538541	0.502511
C39	C	0.243785	0.031875	0.002034
C40	C	0.743785	0.531875	0.502034
C41	C	0.164841	0.030557	0.001943
C42	C	0.664841	0.530557	0.501943
C43	C	0.146193	0.175123	0.011721
C44	C	0.646193	0.675123	0.511721
C45	C	0.225132	0.176447	0.011815
C46	C	0.725132	0.676447	0.511815
C47	C	0.273924	0.104820	0.006966
C48	C	0.773924	0.604820	0.506966
C49	C	0.359519	0.106256	0.007073
C50	C	0.859519	0.606256	0.507073
C51	C	0.427741	0.107407	0.007160
C52	C	0.927741	0.607407	0.507160
C53	C	0.894605	-0.163987	0.064507
C54	C	1.394605	0.336013	0.564507
C55	C	0.893541	-0.246728	0.058916
C56	C	1.393541	0.253272	0.558916
C57	C	0.896508	-0.291750	-0.019820
C58	C	1.396508	0.208250	0.480180
C59	C	0.900532	-0.254027	-0.092970
C60	C	1.400532	0.245973	0.407030
C61	C	0.901591	-0.171287	-0.087378
C62	C	1.401591	0.328713	0.412622
C63	C	0.893712	-0.539598	-0.044686
C64	C	1.393712	-0.039598	0.455314
C65	C	0.892655	-0.622344	-0.050272
C66	C	1.392655	-0.122344	0.449728
C67	C	0.885662	-0.615039	0.101614
C68	C	1.385662	-0.115039	0.601614
C69	C	0.886726	-0.532298	0.107199
C70	C	1.386726	-0.032298	0.607199
C71	C	0.890746	-0.494582	0.034049
C72	C	1.390746	0.005418	0.534049
N73	N	0.895423	-0.376325	-0.025537
N74	N	1.395423	0.123675	0.474463
N75	N	0.891826	-0.410007	0.039766
N76	N	1.391826	0.089993	0.539766
C77	C	1.032032	0.100776	0.006689
C78	C	1.532032	0.600776	0.506689
C79	C	1.116047	0.102178	0.006779
C80	C	1.616047	0.602178	0.506779
C81	C	0.887502	0.251878	0.016919
C82	C	1.387502	0.751878	0.516919
C83	C	0.888629	0.339938	0.022872
C84	C	1.388629	0.839938	0.522872
N85	N	0.903634	0.096406	-0.209929
N86	N	1.403634	0.596406	0.290071
N87	N	0.883633	0.117257	0.224156
N88	N	1.383633	0.617257	0.724156
C89	C	0.853880	0.148225	0.749885
C90	C	1.353880	0.648225	1.249885
C91	C	0.857922	0.144023	0.662194
C92	C	1.357922	0.644023	1.162194
C93	C	0.911716	0.087998	0.614690
C94	C	1.411716	0.587998	1.114690
C95	C	0.961475	0.036177	0.654882
C96	C	1.461475	0.536177	1.154882
C97	C	0.957436	0.040383	0.742572
C98	C	1.457436	0.540383	1.242572
C99	C	0.929352	0.069641	0.352038
C100	C	1.429352	0.569641	0.852038
C101	C	0.933387	0.065438	0.264342
C102	C	1.433387	0.565438	0.764342
C103	C	0.829834	0.173285	0.271659
C104	C	1.329834	0.673285	0.771659
C105	C	0.825796	0.177483	0.359350
C106	C	1.325796	0.677483	0.859350
C107	C	0.875558	0.125664	0.399535
C108	C	1.375558	0.625664	0.899535
N109	N	0.915848	0.083701	0.525055
N110	N	1.415848	0.583701	1.025055
N111	N	0.871429	0.129966	0.489169
N112	N	1.371429	0.629966	0.989169
H113	H	0.503756	0.240109	0.016141
H114	H	1.003756	0.740109	0.516141
H115	H	0.904858	-0.140577	-0.146940
H116	H	1.404858	0.359423	0.353060
H117	H	0.789321	0.215474	0.238933
H118	H	1.289321	0.715474	0.738933
C119	C	1.019996	-0.024565	0.603364
C120	C	1.519996	0.475435	1.103364
C121	C	1.093295	-0.010623	0.625541
C122	C	1.593295	0.489377	1.125541
C123	C	1.147222	-0.066562	0.578095
C124	C	1.647222	0.433438	1.078095
H125	H	1.011530	-0.076868	0.614120
H126	H	1.511530	0.423132	1.114120
H127	H	1.015329	-0.019652	0.545374
H128	H	1.515329	0.480348	1.045374
H129	H	1.097960	-0.015542	0.683517
H130	H	1.597960	0.484458	1.183517
H131	H	1.101786	0.041670	0.614781
H132	H	1.601786	0.541670	1.114781
H133	H	1.142554	-0.061649	0.520105
H134	H	1.642554	0.438351	1.020105
H135	H	1.138749	-0.118862	0.588855
H136	H	1.638749	0.381138	1.088855
H137	H	1.196961	-0.057105	0.593130
H138	H	1.696961	0.442895	1.093130
C139	C	0.903721	-0.302762	-0.178534
C140	C	1.403721	0.197238	0.321466
C141	C	0.907453	-0.252015	-0.241394
C142	C	1.407453	0.247985	0.258606
C143	C	0.910384	-0.296878	-0.320227
C144	C	1.410384	0.203122	0.179773
H145	H	0.947582	-0.341330	-0.184412
H146	H	1.447582	0.158670	0.315588
H147	H	0.859305	-0.329041	-0.183496
H148	H	1.359305	0.170959	0.316504
H149	H	0.951865	-0.225749	-0.236434
H150	H	1.451865	0.274251	0.263566
H151	H	0.863597	-0.213446	-0.235543
H152	H	1.363597	0.286554	0.264457
H153	H	0.865968	-0.323157	-0.325189
H154	H	1.365968	0.176843	0.174811
H155	H	0.954245	-0.335445	-0.326096
H156	H	1.454245	0.164555	0.173904
H157	H	0.912909	-0.262452	-0.362887
H158	H	1.412909	0.237548	0.137113
H159	H	0.249671	0.235846	0.015838
H160	H	0.749671	0.735846	0.515838
C161	C	0.093122	0.252837	0.017103
C162	C	0.593122	0.752837	0.517103
C163	C	0.043931	0.259732	0.088994
C164	C	0.543931	0.759732	0.588994
C165	C	-0.004972	0.331304	0.093977
C166	C	0.495028	0.831304	0.593977
H167	H	0.122284	0.296536	0.020107
H168	H	0.622284	0.796536	0.520107
H169	H	0.064141	0.253003	-0.031287
H170	H	0.564141	0.753003	0.468713
H171	H	0.072910	0.259573	0.137372
H172	H	0.572910	0.759573	0.637372
H173	H	0.014752	0.216050	0.086006
H174	H	0.514752	0.716050	0.586006
H175	H	-0.033954	0.331470	0.045587
H176	H	0.466046	0.831470	0.545587
H177	H	0.024197	0.374998	0.096979
H178	H	0.524197	0.874998	0.596979
H179	H	-0.038358	0.335989	0.142750
H180	H	0.461642	0.835989	0.642750
H181	H	0.997952	-0.001812	0.775291
H182	H	1.497952	0.498188	1.275291
C183	C	0.803866	0.200151	0.618451
C184	C	1.303866	0.700151	1.118451
C185	C	0.760134	0.155441	0.565231
C186	C	1.260134	0.655441	1.065231
C187	C	0.710334	0.207122	0.524916
C188	C	1.210334	0.707122	1.024916
H189	H	0.771180	0.234133	0.659209
H190	H	1.271180	0.734133	1.159209
H191	H	0.832443	0.231549	0.586430
H192	H	1.332443	0.731549	1.086430
H193	H	0.731560	0.124057	0.597250
H194	H	1.231560	0.624057	1.097250
H195	H	0.792800	0.121462	0.524458
H196	H	1.292800	0.621462	1.024458
H197	H	0.738910	0.238519	0.492895
H198	H	1.238910	0.738519	0.992895
H199	H	0.677653	0.241100	0.565680
H200	H	1.177653	0.741100	1.065680
H201	H	0.680661	0.176793	0.488797
H202	H	1.180661	0.676793	0.988797
C203	C	0.991864	0.004569	0.212912
C204	C	1.491864	0.504569	0.712912
C205	C	1.034587	-0.039903	0.266872
C206	C	1.534587	0.460097	0.766872
C207	C	1.088459	-0.095979	0.219526
C208	C	1.588459	0.404021	0.719526
H209	H	0.966493	-0.030189	0.176472
H210	H	1.466493	0.469811	0.676472
H211	H	1.024809	0.031461	0.180640
H212	H	1.524809	0.531461	0.680640
H213	H	1.001647	-0.066794	0.299130
H214	H	1.501647	0.433206	0.799130
H215	H	1.059975	-0.005167	0.303313
H216	H	1.559975	0.494833	0.803313
H217	H	1.121404	-0.069087	0.187254
H218	H	1.621404	0.430913	0.687254
H219	H	1.063082	-0.130731	0.183088
H220	H	1.563082	0.369269	0.683088
H221	H	1.117459	-0.126155	0.256131
H222	H	1.617459	0.373845	0.756131
H223	H	0.897000	-0.508901	-0.104250
H224	H	1.397000	-0.008901	0.395750
H225	H	0.781993	0.223102	0.398026
H226	H	1.281993	0.723102	0.898026
C227	C	0.529505	-0.042033	-0.002815
C228	C	1.029505	0.457967	0.497185
C229	C	0.551040	-0.081885	0.065921
C230	C	1.051040	0.418115	0.565921
C231	C	0.521005	-0.154898	0.061128
C232	C	1.021005	0.345102	0.561128
H233	H	0.475505	-0.032675	-0.002139
H234	H	0.975505	0.467325	0.497861
H235	H	0.548537	-0.073893	-0.053367
H236	H	1.048537	0.426107	0.446633
H237	H	0.532004	-0.050032	0.116460
H238	H	1.032004	0.449968	0.616460
H239	H	0.605035	-0.091264	0.065259
H240	H	1.105035	0.408736	0.565259
H241	H	0.540038	-0.186758	0.010576
H242	H	1.040038	0.313242	0.510576
H243	H	0.467006	-0.145532	0.061802
H244	H	0.967006	0.354468	0.561802
H245	H	0.535618	-0.181950	0.107759
H246	H	1.035618	0.318050	0.607759
H247	H	0.140300	-0.028847	-0.002078
H248	H	0.640300	0.471153	0.497922
H249	H	0.680800	-0.019780	-0.001432
H250	H	1.180800	0.480220	0.498568
H251	H	0.810072	0.193842	0.788557
H252	H	1.310072	0.693842	1.288557
H253	H	0.646958	0.242512	0.016317
H254	H	1.146958	0.742512	0.516317
H255	H	0.882388	-0.645757	0.161168
H256	H	1.382388	-0.145757	0.661168
H257	H	0.892193	-0.127335	0.128622
H258	H	1.392193	0.372665	0.628622
H259	H	0.283503	-0.026447	-0.001915
H260	H	0.783503	0.473553	0.498085
H261	H	0.890265	-0.277434	0.118478
H262	H	1.390265	0.222566	0.618478
H263	H	0.884311	-0.495646	0.171314
H264	H	1.384311	0.004354	0.671314
H265	H	0.969869	0.027447	0.384749
H266	H	1.469869	0.527447	0.884749
C267	C	0.895840	-0.671084	-0.135840
C268	C	1.395840	-0.171084	0.364160
C269	C	0.899566	-0.620342	-0.198705
C270	C	1.399566	-0.120342	0.301295
C271	C	0.902492	-0.665211	-0.277535
C272	C	1.402492	-0.165211	0.222465
H273	H	0.939701	-0.709652	-0.141719
H274	H	1.439701	-0.209652	0.358281
H275	H	0.851424	-0.697363	-0.140795
H276	H	1.351424	-0.197363	0.359205
H277	H	0.943978	-0.594075	-0.193753
H278	H	1.443978	-0.094075	0.306247
H279	H	0.855709	-0.581774	-0.192854
H280	H	1.355709	-0.081774	0.307146
H281	H	0.858076	-0.691491	-0.282490
H282	H	1.358076	-0.191491	0.217510
H283	H	0.946354	-0.703777	-0.283405
H284	H	1.446354	-0.203777	0.216595
H285	H	0.905013	-0.630788	-0.320198
H286	H	1.405013	-0.130788	0.179802
