data_functionalizedCrystal
_audit_creation_method	'MofGen! by Chris Wilmer'
_symmetry_space_group_name_H-M	'P1'
_symmetry_Int_Tables_number	1
_symmetry_cell_setting	triclinic
loop_
_symmetry_equiv_pos_as_xyz
  x,y,z
_cell_length_a	10.654550
_cell_length_b	15.072220
_cell_length_c	10.654551
_cell_angle_alpha	90.006552
_cell_angle_beta	84.485132
_cell_angle_gamma	90.007433
loop_
_atom_site_label
_atom_site_type_symbol
_atom_site_fract_x
_atom_site_fract_y
_atom_site_fract_z
O1	O	1.667840	0.073849	0.176407
O2	O	1.302362	0.073835	0.193213
O3	O	1.493503	0.073843	0.002071
O4	O	1.476698	0.073841	0.367549
O5	O	1.493490	-0.073722	0.002048
O6	O	1.302349	-0.073730	0.193190
O7	O	1.667827	-0.073716	0.176384
Zn8	Zn	1.485086	-0.097152	0.184783
Zn9	Zn	1.485103	0.097271	0.184814
O10	O	1.476686	-0.073724	0.367526
C11	C	1.255557	0.000050	0.191968
C12	C	1.116114	0.000045	0.188276
N13	N	1.485083	-0.229841	0.184761
C14	C	1.036629	0.000057	0.300817
C15	C	0.905608	0.000073	0.297341
C16	C	0.933570	0.000067	0.068771
C17	C	1.064589	0.000045	0.072249
C18	C	1.088154	0.000057	0.416844
C19	C	1.008667	0.000070	0.529395
C20	C	0.877647	0.000086	0.525918
C21	C	0.826112	0.000088	0.409891
C22	C	1.485104	-0.589043	0.184804
C23	C	1.587717	-0.551404	0.082875
C24	C	1.587444	-0.448578	0.082493
C25	C	1.485095	-0.410838	0.184783
C26	C	1.353814	-0.448187	0.155022
C27	C	1.354420	-0.551044	0.154300
C28	C	1.512593	-0.551119	0.316788
C29	C	1.515560	-0.448254	0.315931
C30	C	1.485081	-0.310125	0.184773
C31	C	1.485108	-0.689756	0.184811
C32	C	1.714632	0.000071	0.177629
C33	C	1.854075	0.000082	0.181321
C34	C	1.492263	0.000062	-0.044739
C35	C	1.488570	0.000068	-0.184182
N36	N	1.485115	0.229960	0.184826
C37	C	1.486845	0.080504	-0.249681
C38	C	1.483365	0.080500	-0.380701
C39	C	1.483340	-0.080384	-0.380712
C40	C	1.486811	-0.080378	-0.249693
C41	C	1.488604	0.160951	-0.184169
C42	C	1.486880	0.241393	-0.249669
C43	C	1.483400	0.241389	-0.380689
C44	C	1.481643	0.160942	-0.446210
C45	C	1.477926	0.000059	0.414336
C46	C	1.481619	0.000059	0.553779
H47	H	1.194836	0.000049	0.419687
H48	H	1.481983	0.306889	-0.434014
Br49	Br	1.172470	0.000023	-0.080488
Br50	Br	1.750028	-0.406483	0.112336
Br51	Br	1.223232	-0.592552	0.273228
Br52	Br	0.648296	0.000092	0.405175
Br53	Br	1.676529	-0.407561	0.353542
Br54	Br	0.863630	0.000072	-0.088684
H55	H	1.050636	0.000061	0.623860
H56	H	1.488189	-0.145877	-0.196359
H57	H	0.812931	0.000088	0.617562
Br58	Br	1.476903	0.160939	-0.624023
Br59	Br	1.223390	-0.407450	0.275381
Br60	Br	1.314328	-0.591053	-0.006186
H61	H	1.685592	-0.576129	0.100494
Br62	Br	1.558667	-0.594495	-0.079413
Br63	Br	1.312781	-0.405271	-0.003652
Br64	Br	1.557955	-0.407573	-0.080714
Br65	Br	1.668851	-0.594326	0.363987
H66	H	1.445752	-0.422562	0.395422
H67	H	1.437779	-0.575464	0.392654
Br68	Br	1.493338	0.160961	-0.006358
H69	H	1.488298	0.306890	-0.196312
H70	H	1.481911	-0.145880	-0.434070
