data_functionalizedCrystal
_audit_creation_method	'MofGen! by Chris Wilmer'
_symmetry_space_group_name_H-M	'P1'
_symmetry_Int_Tables_number	1
_symmetry_cell_setting	triclinic
loop_
_symmetry_equiv_pos_as_xyz
  x,y,z
_cell_length_a	17.699104
_cell_length_b	27.731996
_cell_length_c	26.809956
_cell_angle_alpha	89.989402
_cell_angle_beta	89.983055
_cell_angle_gamma	82.956452
loop_
_atom_site_label
_atom_site_type_symbol
_atom_site_fract_x
_atom_site_fract_y
_atom_site_fract_z
O1	O	1.003521	0.061174	-0.041496
O2	O	1.503521	0.561174	0.458504
O3	O	0.783073	0.069116	-0.041496
O4	O	1.283073	0.569116	0.458504
O5	O	0.900164	-0.005228	-0.041485
O6	O	1.400164	0.494772	0.458515
O7	O	0.886430	0.135519	-0.041507
O8	O	1.386430	0.635519	0.458493
O9	O	0.900129	-0.005228	0.041474
O10	O	1.400129	0.494772	0.541474
O11	O	0.783037	0.069116	0.041463
O12	O	1.283037	0.569116	0.541463
O13	O	1.003486	0.061174	0.041463
O14	O	1.503486	0.561174	0.541463
Zn15	Zn	0.893256	0.065145	0.054635
Zn16	Zn	1.393256	0.565145	0.554635
Zn17	Zn	0.893303	0.065145	-0.054668
Zn18	Zn	1.393303	0.565145	0.445332
O19	O	0.886394	0.135519	0.041452
O20	O	1.386394	0.635519	0.541452
C21	C	0.754861	0.068830	-0.000016
C22	C	1.254861	0.568830	0.499984
C23	C	0.670852	0.067971	-0.000015
C24	C	1.170852	0.567971	0.499985
C25	C	0.145627	0.106766	-0.000027
C26	C	0.645627	0.606766	0.499973
C27	C	0.224564	0.107570	-0.000028
C28	C	0.724564	0.607570	0.499972
C29	C	0.273579	0.063927	-0.000021
C30	C	0.773579	0.563927	0.499979
C31	C	0.243654	0.019477	-0.000018
C32	C	0.743654	0.519477	0.499982
C33	C	0.164719	0.018673	-0.000020
C34	C	0.664719	0.518673	0.499980
C35	C	0.561990	0.022717	-0.000011
C36	C	1.061990	0.522717	0.499989
C37	C	0.640930	0.023524	-0.000007
C38	C	1.140930	0.523524	0.499993
C39	C	0.621835	0.111614	-0.000019
C40	C	1.121835	0.611614	0.499981
C41	C	0.542900	0.110810	-0.000021
C42	C	1.042900	0.610810	0.499979
C43	C	0.512982	0.066360	-0.000020
C44	C	1.012982	0.566360	0.499980
C45	C	0.427390	0.065489	-0.000019
C46	C	0.927390	0.565489	0.499981
C47	C	0.359169	0.064798	-0.000019
C48	C	0.859169	0.564798	0.499981
C49	C	0.899864	-0.023237	-0.000004
C50	C	1.399864	0.476763	0.499996
C51	C	0.899015	-0.076896	0.000001
C52	C	1.399015	0.423104	0.500001
C53	C	0.893688	-0.409632	-0.045244
C54	C	1.393688	0.090368	0.454756
C55	C	0.890460	-0.611302	-0.045253
C56	C	1.390460	-0.111302	0.454747
O57	O	0.890027	-0.637374	-0.083712
O58	O	1.390027	-0.137374	0.416288
N59	N	0.890040	-0.636520	-0.000032
N60	N	1.390040	-0.136520	0.499968
C61	C	0.890422	-0.611318	0.045194
C62	C	1.390422	-0.111318	0.545194
O63	O	0.889982	-0.637395	0.083656
O64	O	1.389982	-0.137395	0.583656
C65	C	0.893643	-0.409649	0.045202
C66	C	1.393643	0.090351	0.545202
C67	C	0.894071	-0.384433	-0.000022
C68	C	1.394071	0.115567	0.499978
C69	C	0.894115	-0.384416	-0.090464
C70	C	1.394115	0.115584	0.409536
C71	C	0.894925	-0.334002	-0.090462
C72	C	1.394925	0.165998	0.409538
C73	C	0.895309	-0.308803	-0.045239
C74	C	1.395309	0.191197	0.454761
C75	C	0.894882	-0.334019	-0.000019
C76	C	1.394882	0.165981	0.499981
C77	C	0.894019	-0.384447	0.090427
C78	C	1.394019	0.115553	0.590427
C79	C	0.894823	-0.334026	0.090425
C80	C	1.394823	0.165974	0.590425
C81	C	0.895251	-0.308811	0.045202
C82	C	1.395251	0.191189	0.545202
C83	C	0.896077	-0.258406	0.045206
C84	C	1.396077	0.241594	0.545206
N85	N	0.896497	-0.233188	-0.000014
N86	N	1.396497	0.266812	0.499986
C87	C	0.896113	-0.258386	-0.045237
C88	C	1.396113	0.241614	0.454763
C89	C	0.888732	-0.717198	0.045186
C90	C	1.388732	-0.217198	0.545186
C91	C	0.887928	-0.767615	0.045184
C92	C	1.387928	-0.267615	0.545184
C93	C	0.887965	-0.767595	-0.045263
C94	C	1.387965	-0.267595	0.454737
C95	C	0.888775	-0.717177	-0.045260
C96	C	1.388775	-0.217177	0.454740
C97	C	0.889152	-0.691979	-0.000035
C98	C	1.389152	-0.191979	0.499965
C99	C	0.897817	-0.152513	-0.045228
C100	C	1.397817	0.347487	0.454772
C101	C	0.898631	-0.102095	-0.045221
C102	C	1.398631	0.397905	0.454779
C103	C	0.898589	-0.102119	0.045225
C104	C	1.398589	0.397881	0.545225
C105	C	0.897779	-0.152533	0.045219
C106	C	1.397779	0.347467	0.545219
C107	C	0.897391	-0.177729	-0.000012
C108	C	1.397391	0.322271	0.499988
O109	O	0.896502	-0.232302	0.083645
O110	O	1.396502	0.267698	0.583645
O111	O	0.896536	-0.232299	-0.083694
O112	O	1.396536	0.267701	0.416306
C113	C	0.892877	-0.460046	-0.045247
C114	C	1.392877	0.039954	0.454753
C115	C	0.892450	-0.485261	-0.000027
C116	C	1.392450	0.014739	0.499973
C117	C	0.892833	-0.460063	0.045196
C118	C	1.392833	0.039937	0.545196
C119	C	0.891645	-0.535679	-0.000029
C120	C	1.391645	-0.035679	0.499971
C121	C	0.891262	-0.560877	-0.045252
C122	C	1.391262	-0.060877	0.454748
C123	C	0.891682	-0.535659	-0.090472
C124	C	1.391682	-0.035659	0.409528
C125	C	0.892493	-0.485244	-0.090470
C126	C	1.392493	0.014756	0.409530
C127	C	0.892413	-0.485281	0.090416
C128	C	1.392413	0.014719	0.590416
C129	C	0.891603	-0.535696	0.090410
C130	C	1.391603	-0.035696	0.590410
C131	C	0.891219	-0.560894	0.045187
C132	C	1.391219	-0.060894	0.545187
C133	C	1.031698	0.061460	-0.000018
C134	C	1.531698	0.561460	0.499982
C135	C	1.115707	0.062319	-0.000022
C136	C	1.615707	0.562319	0.499978
C137	C	0.886694	0.153527	-0.000030
C138	C	1.386694	0.653527	0.499970
C139	C	0.887544	0.207187	-0.000038
C140	C	1.387544	0.707187	0.499962
N141	N	0.893229	0.065145	0.129231
N142	N	1.393229	0.565145	0.629231
N143	N	0.893336	0.065142	-0.129264
N144	N	1.393336	0.565142	0.370736
C145	C	0.938843	0.094423	0.473852
C146	C	1.438843	0.594423	0.973852
C147	C	0.938867	0.094422	0.682730
C148	C	1.438867	0.594422	1.182730
O149	O	0.977629	0.119310	0.709730
O150	O	1.477629	0.619310	1.209730
N151	N	0.893321	0.065140	0.708858
N152	N	1.393321	0.565140	1.208858
C153	C	0.847769	0.035854	0.682763
C154	C	1.347769	0.535854	1.182763
O155	O	0.809036	0.010944	0.709780
O156	O	1.309036	0.510944	1.209780
C157	C	0.847750	0.035852	0.473887
C158	C	1.347750	0.535852	0.973887
C159	C	0.893293	0.065140	0.447761
C160	C	1.393293	0.565140	0.947761
C161	C	0.984383	0.123708	0.447727
C162	C	1.484383	0.623708	0.947727
C163	C	0.984373	0.123709	0.395510
C164	C	1.484373	0.623709	0.895510
C165	C	0.938823	0.094426	0.369419
C166	C	1.438823	0.594426	0.869419
C167	C	0.893283	0.065142	0.395545
C168	C	1.393283	0.565142	0.895545
C169	C	0.802202	0.006563	0.447793
C170	C	1.302202	0.506563	0.947793
C171	C	0.802203	0.006565	0.395571
C172	C	1.302203	0.506565	0.895571
C173	C	0.847746	0.035852	0.369445
C174	C	1.347746	0.535852	0.869445
C175	C	0.847723	0.035860	0.317238
C176	C	1.347723	0.535860	0.817238
N177	N	0.893270	0.065142	0.291110
N178	N	1.393270	0.565142	0.791110
C179	C	0.938819	0.094425	0.317200
C180	C	1.438819	0.594425	0.817200
C181	C	0.847782	0.035858	0.792427
C182	C	1.347782	0.535858	1.292427
C183	C	0.847786	0.035859	0.844646
C184	C	1.347786	0.535859	1.344646
C185	C	0.938885	0.094427	0.844608
C186	C	1.438885	0.594427	1.344608
C187	C	0.938876	0.094428	0.792388
C188	C	1.438876	0.594428	1.292388
C189	C	0.893328	0.065140	0.766299
C190	C	1.393328	0.565140	1.266299
C191	C	0.938795	0.094427	0.207543
C192	C	1.438795	0.594427	0.707543
C193	C	0.938779	0.094428	0.155322
C194	C	1.438779	0.594428	0.655322
C195	C	0.847683	0.035858	0.155363
C196	C	1.347683	0.535858	0.655363
C197	C	0.847696	0.035859	0.207580
C198	C	1.347696	0.535859	0.707580
C199	C	0.893258	0.065145	0.233668
C200	C	1.393258	0.565145	0.733668
O201	O	0.808988	0.010981	0.290206
O202	O	1.308988	0.510981	0.790206
O203	O	0.977560	0.119323	0.290175
O204	O	1.477560	0.619323	0.790175
C205	C	0.938852	0.094421	0.526068
C206	C	1.438852	0.594421	1.026068
C207	C	0.893312	0.065136	0.552194
C208	C	1.393312	0.565136	1.052194
C209	C	0.847762	0.035853	0.526103
C210	C	1.347762	0.535853	1.026103
C211	C	0.893316	0.065137	0.604413
C212	C	1.393316	0.565137	1.104413
C213	C	0.938866	0.094420	0.630504
C214	C	1.438866	0.594420	1.130504
C215	C	0.984412	0.123702	0.604375
C216	C	1.484412	0.623702	1.104375
C217	C	0.984402	0.123704	0.552159
C218	C	1.484402	0.623704	1.052159
C219	C	0.802216	0.006571	0.552231
C220	C	1.302216	0.506571	1.052231
C221	C	0.802229	0.006572	0.604447
C222	C	1.302229	0.506572	1.104447
C223	C	0.847779	0.035855	0.630538
C224	C	1.347779	0.535855	1.130538
H225	H	0.897496	-0.173021	-0.082059
H226	H	1.397496	0.326979	0.417941
O227	O	1.028603	0.152221	0.526841
O228	O	1.528603	0.652221	1.026841
C229	C	1.007028	0.201302	0.539593
C230	C	1.507028	0.701302	1.039593
H231	H	0.977646	0.203394	0.577511
H232	H	1.477646	0.703394	1.077511
H233	H	1.059778	0.221059	0.541371
H234	H	1.559778	0.721059	1.041371
H235	H	0.966215	0.219141	0.510208
H236	H	1.466215	0.719141	1.010208
H237	H	0.889122	-0.696650	-0.082085
H238	H	1.389122	-0.196650	0.417915
O239	O	0.899145	-0.077577	-0.089135
O240	O	1.399145	0.422423	0.410865
C241	C	0.965161	-0.053941	-0.091851
C242	C	1.465161	0.446059	0.408149
H243	H	1.010771	-0.073022	-0.066213
H244	H	1.510771	0.426978	0.433787
H245	H	0.987160	-0.055205	-0.131856
H246	H	1.487160	0.444795	0.368144
H247	H	0.950935	-0.014484	-0.079680
H248	H	1.450935	0.485516	0.420320
H249	H	0.680838	-0.012018	-0.000003
H250	H	1.180838	0.487982	0.499997
O251	O	0.650863	0.154806	0.000063
O252	O	1.150863	0.654806	0.500063
C253	C	0.625733	0.181409	0.043018
C254	C	1.125733	0.681409	0.543018
H255	H	0.609607	0.155415	0.073052
H256	H	1.109607	0.655415	0.573052
H257	H	0.673306	0.201917	0.057437
H258	H	1.173306	0.701917	0.557437
H259	H	0.573966	0.208405	0.033301
H260	H	1.073966	0.708405	0.533301
O261	O	0.098048	0.149175	-0.000122
O262	O	0.598048	0.649175	0.499878
C263	C	0.111566	0.176171	-0.043085
C264	C	0.611566	0.676171	0.456915
H265	H	0.138865	0.150619	-0.073110
H266	H	0.638865	0.650619	0.426890
H267	H	0.055334	0.195622	-0.057513
H268	H	0.555334	0.695622	0.442487
H269	H	0.151429	0.204101	-0.033375
H270	H	0.651429	0.704101	0.466625
H271	H	0.248920	0.143763	-0.000037
H272	H	0.748920	0.643763	0.499963
H273	H	0.975866	0.118280	0.134053
H274	H	1.475866	0.618280	0.634053
H275	H	0.975896	0.118274	0.228777
H276	H	1.475896	0.618274	0.728777
O277	O	0.983048	0.122943	0.869936
O278	O	1.483048	0.622943	1.369936
C279	C	0.961512	0.172026	0.857168
C280	C	1.461512	0.672026	1.357168
H281	H	0.900424	0.176754	0.842823
H282	H	1.400424	0.676754	1.342823
H283	H	0.965640	0.195798	0.891507
H284	H	1.465640	0.695798	1.391507
H285	H	1.001057	0.183216	0.826850
H286	H	1.501057	0.683216	1.326850
O287	O	1.028577	0.152225	0.370193
O288	O	1.528577	0.652225	0.870193
C289	C	1.007006	0.201306	0.382944
C290	C	1.507006	0.701306	0.882944
H291	H	0.977621	0.203400	0.420862
H292	H	1.477621	0.703400	0.920862
H293	H	1.059758	0.221061	0.384725
H294	H	1.559758	0.721061	0.884725
H295	H	0.966197	0.219147	0.353559
H296	H	1.466197	0.719147	0.853559
O297	O	0.533060	-0.020502	0.000018
O298	O	1.033060	0.479498	0.500018
C299	C	0.593251	-0.058848	0.000016
C300	C	1.093251	0.441152	0.500016
H301	H	0.646710	-0.045359	0.015720
H302	H	1.146710	0.454641	0.515720
H303	H	0.577112	-0.089885	0.024108
H304	H	1.077112	0.410115	0.524108
H305	H	0.604603	-0.072308	-0.039780
H306	H	1.104603	0.427692	0.460220
O307	O	0.291372	-0.022874	0.000010
O308	O	0.791372	0.477126	0.500010
C309	C	0.367459	-0.012635	0.000000
C310	C	0.867459	0.487365	0.500000
H311	H	0.370028	0.025328	0.015701
H312	H	0.870028	0.525328	0.515701
H313	H	0.403541	-0.040460	0.024091
H314	H	0.903541	0.459540	0.524091
H315	H	0.390334	-0.014495	-0.039798
H316	H	0.890334	0.485505	0.460202
O317	O	0.895292	-0.309507	0.134329
O318	O	1.395292	0.190493	0.634329
C319	C	0.961341	-0.285908	0.137052
C320	C	1.461341	0.214092	0.637052
H321	H	0.983346	-0.280193	0.097791
H322	H	1.483346	0.219807	0.597791
H323	H	0.947150	-0.249212	0.156198
H324	H	1.447150	0.250788	0.656198
H325	H	1.006934	-0.309234	0.159367
H326	H	1.506934	0.190766	0.659367
H327	H	0.140360	-0.017520	-0.000017
H328	H	0.640360	0.482480	0.499983
O329	O	0.895297	-0.309582	-0.134437
O330	O	1.395297	0.190418	0.365563
C331	C	0.894801	-0.342645	-0.174346
C332	C	1.394801	0.157355	0.325654
H333	H	0.870255	-0.376555	-0.161082
H334	H	1.370255	0.123445	0.338918
H335	H	0.858284	-0.324965	-0.205975
H336	H	1.358284	0.175035	0.294025
H337	H	0.955463	-0.353148	-0.188254
H338	H	1.455463	0.146852	0.311746
O339	O	0.495212	0.153174	-0.000096
O340	O	0.995212	0.653174	0.499904
C341	C	0.449020	0.155347	-0.043070
C342	C	0.949020	0.655347	0.456930
H343	H	0.445491	0.116984	-0.057386
H344	H	0.945491	0.616984	0.442614
H345	H	0.389467	0.173424	-0.033414
H346	H	0.889467	0.673424	0.466586
H347	H	0.474748	0.177391	-0.073159
H348	H	0.974748	0.677391	0.426841
O349	O	0.803327	0.007469	0.130035
O350	O	1.303327	0.507469	0.630035
C351	C	0.726345	0.020904	0.142814
C352	C	1.226345	0.520904	0.642814
H353	H	0.718547	0.059890	0.157167
H354	H	1.218547	0.559890	0.657167
H355	H	0.689151	0.018115	0.108478
H356	H	1.189151	0.518115	0.608478
H357	H	0.709087	-0.004429	0.173129
H358	H	1.209087	0.495571	0.673129
H359	H	0.893799	-0.404927	-0.127292
H360	H	1.393799	0.095073	0.372708
H361	H	0.897438	-0.173065	0.082044
H362	H	1.397438	0.326935	0.582044
O363	O	0.887453	-0.792088	-0.089180
O364	O	1.387453	-0.292088	0.410820
C365	C	0.821421	-0.815708	-0.091870
C366	C	1.321421	-0.315708	0.408130
H367	H	0.775828	-0.796634	-0.066205
H368	H	1.275828	-0.296634	0.433795
H369	H	0.799409	-0.814414	-0.131865
H370	H	1.299409	-0.314414	0.368135
H371	H	0.835632	-0.855174	-0.079717
H372	H	1.335632	-0.355174	0.420283
O373	O	1.028750	0.152075	0.629748
O374	O	1.528750	0.652075	1.129748
C375	C	1.080732	0.122555	0.659954
C376	C	1.580732	0.622555	1.159954
H377	H	1.089318	0.084087	0.644216
H378	H	1.589318	0.584087	1.144216
H379	H	1.137557	0.137957	0.660535
H380	H	1.637557	0.637957	1.160535
H381	H	1.057355	0.121752	0.699534
H382	H	1.557355	0.621752	1.199534
O383	O	0.757908	-0.021816	0.370173
O384	O	1.257908	0.478184	0.870173
C385	C	0.705889	0.007697	0.339987
C386	C	1.205889	0.507697	0.839987
H387	H	0.729005	0.043547	0.332148
H388	H	1.229005	0.543547	0.832148
H389	H	0.697683	-0.011729	0.303273
H390	H	1.197683	0.488271	0.803273
H391	H	0.648915	0.015140	0.360128
H392	H	1.148915	0.515140	0.860128
H393	H	0.810601	0.012017	0.228852
H394	H	1.310601	0.512017	0.728852
H395	H	1.021479	0.147553	0.468964
H396	H	1.521479	0.647553	0.968964
H397	H	0.765135	-0.017276	0.625714
H398	H	1.265135	0.482724	1.125714
H399	H	0.887591	-0.788142	0.082010
H400	H	1.387591	-0.288142	0.582010
H401	H	0.892727	-0.464770	0.127243
H402	H	1.392727	0.035230	0.627243
H403	H	0.975961	0.118277	0.771121
H404	H	1.475961	0.618277	1.271121
H405	H	0.893672	-0.404968	0.127253
H406	H	1.393672	0.095032	0.627253
H407	H	0.810691	0.012016	0.865912
H408	H	1.310691	0.512016	1.365912
H409	H	0.889043	-0.696686	0.082016
H410	H	1.389043	-0.196686	0.582016
H411	H	0.898905	-0.081593	0.082044
H412	H	1.398905	0.418407	0.582044
H413	H	0.892841	-0.464719	-0.127295
H414	H	1.392841	0.035281	0.372705
H415	H	0.810689	0.012007	0.771189
H416	H	1.310689	0.512007	1.271189
O417	O	0.757894	-0.021887	0.526968
O418	O	1.257894	0.478113	1.026968
C419	C	0.717716	-0.047738	0.561232
C420	C	1.217716	0.452262	1.061232
H421	H	0.713075	-0.027723	0.598452
H422	H	1.213075	0.472277	1.098452
H423	H	0.658233	-0.050690	0.546167
H424	H	1.158233	0.449310	1.046167
H425	H	0.749350	-0.085706	0.566785
H426	H	1.249350	0.414294	1.066785
H427	H	0.765117	-0.017286	0.469055
H428	H	1.265117	0.482714	0.969055
O429	O	0.891170	-0.560155	-0.134387
O430	O	1.391170	-0.060155	0.365613
C431	C	0.825135	-0.583772	-0.137076
C432	C	1.325135	-0.083772	0.362924
H433	H	0.779542	-0.564693	-0.111414
H434	H	1.279542	-0.064693	0.388586
H435	H	0.803125	-0.582482	-0.177071
H436	H	1.303125	-0.082482	0.322929
H437	H	0.839341	-0.623237	-0.124918
H438	H	1.339341	-0.123237	0.375082
O439	O	0.891156	-0.560109	0.134388
O440	O	1.391156	-0.060109	0.634388
C441	C	0.891686	-0.527052	0.174300
C442	C	1.391686	-0.027052	0.674300
H443	H	0.868305	-0.489082	0.161037
H444	H	1.368305	0.010918	0.661037
H445	H	0.854672	-0.538506	0.205927
H446	H	1.354672	-0.038506	0.705927
H447	H	0.952507	-0.526839	0.188209
H448	H	1.452507	-0.026839	0.688209
