data_functionalizedCrystal
_audit_creation_method	'MofGen! by Chris Wilmer'
_symmetry_space_group_name_H-M	'P1'
_symmetry_Int_Tables_number	1
_symmetry_cell_setting	triclinic
loop_
_symmetry_equiv_pos_as_xyz
  x,y,z
_cell_length_a	10.685980
_cell_length_b	13.897447
_cell_length_c	10.686551
_cell_angle_alpha	94.405975
_cell_angle_beta	98.408259
_cell_angle_gamma	94.386237
loop_
_atom_site_label
_atom_site_type_symbol
_atom_site_fract_x
_atom_site_fract_y
_atom_site_fract_z
Zn1	Zn	1.995765	-0.216203	0.866700
Zn2	Zn	2.329098	0.117130	1.200033
Zn3	Zn	2.662432	0.450464	1.533366
Zn4	Zn	1.979324	-0.390948	0.654433
Zn5	Zn	2.312657	-0.057615	0.987766
Zn6	Zn	2.645991	0.275718	1.321100
Zn7	Zn	1.767189	-0.243050	0.638164
Zn8	Zn	2.100523	0.090283	0.971497
Zn9	Zn	2.433856	0.423617	1.304830
Zn10	Zn	1.783448	-0.390855	0.850343
Zn11	Zn	2.116781	-0.057521	1.183677
Zn12	Zn	2.450114	0.275812	1.517010
O13	O	1.881432	-0.310264	0.752410
O14	O	2.214765	0.023069	1.085743
O15	O	2.548098	0.356403	1.419077
O16	O	2.171219	-0.228187	0.852196
O17	O	2.504552	0.105146	1.185529
O18	O	2.837886	0.438480	1.518863
O19	O	1.937499	-0.382604	0.474643
O20	O	2.270832	-0.049271	0.807976
O21	O	2.604166	0.284063	1.141309
O22	O	1.797587	-0.104500	0.668516
O23	O	2.130920	0.228833	1.001849
O24	O	2.464254	0.562166	1.335183
O25	O	2.159140	-0.356572	0.696245
O26	O	2.492473	-0.023238	1.029578
O27	O	2.825806	0.310095	1.362911
O28	O	1.965521	-0.084776	0.836420
O29	O	2.298854	0.248557	1.169754
O30	O	2.632187	0.581891	1.503087
O31	O	1.781645	-0.273944	0.462690
O32	O	2.114978	0.059389	0.796023
O33	O	2.448311	0.392723	1.129356
O34	O	1.591711	-0.273853	0.652656
O35	O	1.925045	0.059480	0.985989
O36	O	2.258378	0.392814	1.319323
O37	O	1.825297	-0.356412	1.030145
O38	O	2.158630	-0.023079	1.363479
O39	O	2.491964	0.310255	1.696812
O40	O	1.603656	-0.382444	0.808543
O41	O	1.936990	-0.049111	1.141877
O42	O	2.270323	0.284222	1.475210
O43	O	1.981286	-0.228096	1.042162
O44	O	2.314619	0.105237	1.375496
O45	O	2.647952	0.438570	1.708829
O46	O	1.953264	-0.525924	0.680385
O47	O	2.286597	-0.192591	1.013718
O48	O	2.619931	0.140742	1.347051
O49	O	1.809355	-0.525855	0.824319
O50	O	2.142688	-0.192522	1.157652
O51	O	2.476021	0.140811	1.490986
C52	C	1.551625	-0.331052	0.727060
C53	C	1.884958	0.002281	1.060393
C54	C	2.218292	0.335614	1.393727
C55	C	1.410535	-0.339967	0.716245
C56	C	1.743868	-0.006634	1.049579
C57	C	2.077202	0.326700	1.382912
C58	C	1.881326	-0.560887	0.752373
C59	C	2.214659	-0.227553	1.085706
C60	C	2.547993	0.105780	1.419039
C61	C	1.881400	-0.668094	0.752408
C62	C	2.214734	-0.334761	1.085741
C63	C	2.548067	-0.001428	1.419075
C64	C	1.881464	-0.755158	0.752442
C65	C	2.214797	-0.421825	1.085775
C66	C	2.548131	-0.088492	1.419108
C67	C	1.881555	-0.864383	0.752481
C68	C	2.214889	-0.531050	1.085815
C69	C	2.548222	-0.197716	1.419148
C70	C	2.212526	-0.289395	0.777860
C71	C	2.545859	0.043938	1.111193
C72	C	2.879192	0.377271	1.444526
C73	C	2.353618	-0.280502	0.788705
C74	C	2.686952	0.052831	1.122038
C75	C	3.020285	0.386165	1.455372
C76	C	1.906939	-0.289249	1.083500
C77	C	2.240272	0.044084	1.416833
C78	C	2.573605	0.377418	1.750166
C79	C	1.917809	-0.280294	1.224590
C80	C	2.251142	0.053040	1.557924
C81	C	2.584475	0.386373	1.891257
C82	C	1.881574	-0.058659	0.752478
C83	C	2.214907	0.274675	1.085811
C84	C	2.548241	0.608008	1.419145
C85	C	1.881635	0.048560	0.752507
C86	C	2.214968	0.381894	1.085840
C87	C	2.548302	0.715227	1.419174
C88	C	1.856096	-0.331123	0.422614
C89	C	2.189430	0.002210	0.755947
C90	C	2.522763	0.335543	1.089281
C91	C	1.845473	-0.339791	0.281543
C92	C	2.178806	-0.006458	0.614876
C93	C	2.512139	0.326875	0.948210
H94	H	1.412828	-0.222766	0.859012
H95	H	1.746161	0.110567	1.192346
H96	H	2.079495	0.443901	1.525679
Cl97	Cl	2.026280	-0.191069	1.315961
Cl98	Cl	2.359613	0.142264	1.649294
Cl99	Cl	2.692947	0.475598	1.982628
Cl100	Cl	1.319117	-0.429104	0.607671
Cl101	Cl	1.652450	-0.095771	0.941005
Cl102	Cl	1.985784	0.237563	1.274338
Cl103	Cl	1.737020	-0.429021	1.190179
Cl104	Cl	2.070354	-0.095688	1.523512
Cl105	Cl	2.403687	0.237645	1.856845
