data_functionalizedCrystal
_audit_creation_method	'MofGen! by Chris Wilmer'
_symmetry_space_group_name_H-M	'P1'
_symmetry_Int_Tables_number	1
_symmetry_cell_setting	triclinic
loop_
_symmetry_equiv_pos_as_xyz
  x,y,z
_cell_length_a	6.817900
_cell_length_b	17.982865
_cell_length_c	10.773894
_cell_angle_alpha	96.511751
_cell_angle_beta	96.645922
_cell_angle_gamma	102.450232
loop_
_atom_site_label
_atom_site_type_symbol
_atom_site_fract_x
_atom_site_fract_y
_atom_site_fract_z
V1	V	-3.943874	-0.102610	-0.389465
O2	O	-3.938325	0.007812	-0.381501
O3	O	-3.890803	-0.206230	-0.387331
O4	O	-3.861675	-0.099768	-0.559083
O5	O	-3.967655	-0.099387	-0.208560
V6	V	-4.432487	-0.089552	-0.367763
O7	O	-4.193968	-0.131255	-0.437070
O8	O	-4.632591	-0.060907	-0.320158
O9	O	-4.262351	0.014067	-0.369897
O10	O	-4.555433	-0.199974	-0.375728
O11	O	-4.526103	-0.092775	-0.548668
O12	O	-4.291479	-0.092394	-0.198146
C13	C	-3.735761	-0.231529	-0.381324
C14	C	-3.773431	-0.316231	-0.380710
C15	C	-3.698605	-0.095726	-0.600408
C16	C	-3.712651	-0.094087	-0.739075
C17	C	-3.987719	-0.826080	-0.262531
C18	C	-3.952321	-0.746495	-0.263124
C19	C	-3.951523	-0.716767	-0.377712
C20	C	-3.986105	-0.766629	-0.491714
C21	C	-4.021487	-0.846212	-0.491118
C22	C	-3.843410	-0.445678	-0.494117
C23	C	-3.808030	-0.366089	-0.494704
C24	C	-3.774244	-0.345961	-0.266123
C25	C	-3.809626	-0.425544	-0.265528
C26	C	-3.844194	-0.475399	-0.379528
C27	C	-3.882572	-0.561694	-0.378883
C28	C	-3.913160	-0.630474	-0.378359
C29	C	-3.890598	-0.096927	-0.806952
C30	C	-3.905119	-0.095234	-0.950271
C31	C	-4.080736	0.039363	-0.375901
C32	C	-4.022303	0.124064	-0.376523
C33	C	-4.117893	-0.096439	-0.156813
C34	C	-4.083086	-0.098073	-0.018145
H35	H	-3.988374	-0.850277	-0.169220
O36	O	-3.525397	-0.089451	-0.802900
H37	H	-3.461440	-0.140112	-0.788475
H38	H	-4.224698	-0.101761	-0.970161
O39	O	-3.736914	-0.292188	-0.143158
H40	H	-3.855062	-0.258308	-0.142627
H41	H	-3.924170	-0.705905	-0.170300
H42	H	-3.871560	-0.486261	-0.586944
H43	H	-3.810283	-0.449744	-0.172219
H44	H	-3.807389	-0.341889	-0.588021
O45	O	-3.717852	-0.090597	-1.014090
H46	H	-3.653894	-0.141258	-0.999666
H47	H	-3.985439	-0.742418	-0.585013
H48	H	-4.049641	-0.886805	-0.583943
H49	H	-4.032191	-0.100606	-0.758959
