data_functionalizedCrystal
_audit_creation_method	'MofGen! by Chris Wilmer'
_symmetry_space_group_name_H-M	'P1'
_symmetry_Int_Tables_number	1
_symmetry_cell_setting	triclinic
loop_
_symmetry_equiv_pos_as_xyz
  x,y,z
_cell_length_a	11.792241
_cell_length_b	13.448316
_cell_length_c	14.971486
_cell_angle_alpha	90.006811
_cell_angle_beta	96.096228
_cell_angle_gamma	89.997457
loop_
_atom_site_label
_atom_site_type_symbol
_atom_site_fract_x
_atom_site_fract_y
_atom_site_fract_z
O1	O	-1.506121	0.082596	0.122599
O2	O	-1.175699	0.082619	0.135234
O3	O	-1.349766	0.082600	-0.001248
O4	O	-1.332054	0.082615	0.259081
O5	O	-1.349744	-0.082784	-0.001256
O6	O	-1.175677	-0.082765	0.135226
O7	O	-1.506099	-0.082788	0.122591
Cu8	Cu	-1.340886	-0.097877	0.128907
Cu9	Cu	-1.340912	0.097708	0.128917
O10	O	-1.332032	-0.082769	0.259073
C11	C	-1.133402	-0.000070	0.134436
C12	C	-1.007404	-0.000061	0.132061
N13	N	-1.340876	-0.235442	0.128900
C14	C	-1.548396	-0.000097	0.123389
C15	C	-1.674395	-0.000099	0.125764
C16	C	-0.776720	-0.000090	0.127692
C17	C	-0.905089	-0.000074	0.130120
C18	C	-1.348963	-0.000092	-0.034580
C19	C	-1.346589	-0.000091	-0.133887
C20	C	-1.417977	-0.287490	0.068491
C21	C	-1.417984	-0.391594	0.068490
C22	C	-1.340895	-0.443646	0.128903
C23	C	-1.263786	-0.391590	0.189315
C24	C	-1.263774	-0.287489	0.189311
C25	C	-1.263817	-0.608570	0.189321
C26	C	-1.263830	-0.712678	0.189327
C27	C	-1.418027	-0.712675	0.068500
C28	C	-1.418016	-0.608574	0.068496
C29	C	-1.340908	-0.556525	0.128909
N30	N	-1.340931	0.235273	0.128918
C31	C	-1.448849	-0.000099	-0.190702
C32	C	-1.446612	-0.000088	-0.284011
C33	C	-1.342114	-0.000078	-0.320502
C34	C	-1.239846	-0.000067	-0.263679
C35	C	-1.242084	-0.000070	-0.170372
C36	C	-1.235188	-0.000063	-0.458160
C37	C	-1.232949	-0.000062	-0.551473
C38	C	-1.439715	-0.000081	-0.571798
C39	C	-1.441954	-0.000085	-0.478492
C40	C	-1.339685	-0.000076	-0.421675
C41	C	-1.332835	-0.000075	0.292405
C42	C	-1.335209	-0.000069	0.391711
H43	H	-1.480757	-0.245116	0.019299
F44	F	-1.555451	-0.000099	-0.344475
H45	H	-1.158814	-0.000063	-0.124113
F46	F	-1.500068	-0.553175	0.004203
H47	H	-1.147857	-0.000069	-0.581181
F48	F	-1.181745	-0.553180	0.253619
H49	H	-1.527045	-0.000101	-0.448784
F50	F	-1.500092	-0.768073	0.004206
H51	H	-1.201055	-0.755054	0.238521
F52	F	-1.181735	-0.446989	0.253609
F53	F	-1.181709	-0.232096	0.253605
F54	F	-1.548558	-0.000087	-0.632268
H55	H	-1.151910	-0.000053	-0.411902
F56	F	-1.128630	-0.000044	-0.302518
F57	F	-1.500042	-0.446988	0.004195
F58	F	-1.560072	-0.000120	-0.151875
