data_functionalizedCrystal
_audit_creation_method	'MofGen! by Chris Wilmer'
_symmetry_space_group_name_H-M	'P1'
_symmetry_Int_Tables_number	1
_symmetry_cell_setting	triclinic
loop_
_symmetry_equiv_pos_as_xyz
  x,y,z
_cell_length_a	12.759401
_cell_length_b	21.295417
_cell_length_c	12.759393
_cell_angle_alpha	89.960830
_cell_angle_beta	89.981504
_cell_angle_gamma	90.030668
loop_
_atom_site_label
_atom_site_type_symbol
_atom_site_fract_x
_atom_site_fract_y
_atom_site_fract_z
Zn1	Zn	1.606140	-0.250569	-0.593926
Zn2	Zn	1.605986	-0.355853	-0.418223
Zn3	Zn	1.430442	-0.250602	-0.418265
Zn4	Zn	1.430382	-0.355805	-0.593864
O5	O	1.518237	-0.303208	-0.506069
O6	O	1.753141	-0.264542	-0.570626
O7	O	1.582660	-0.341926	-0.271207
O8	O	1.453838	-0.162509	-0.441611
O9	O	1.753027	-0.341894	-0.441538
O10	O	1.582923	-0.162484	-0.570668
O11	O	1.453689	-0.264598	-0.271238
O12	O	1.283413	-0.264551	-0.441551
O13	O	1.453736	-0.341811	-0.740893
O14	O	1.283369	-0.341843	-0.570562
O15	O	1.582865	-0.264495	-0.740939
O16	O	1.582602	-0.443936	-0.441478
O17	O	1.453587	-0.443901	-0.570521
C18	C	1.245270	-0.303196	-0.506055
C19	C	1.128493	-0.303206	-0.506074
C20	C	1.073636	-0.343516	-0.573139
C21	C	0.963912	-0.343524	-0.573151
C22	C	0.963912	-0.262910	-0.439022
C23	C	1.073635	-0.262899	-0.439017
C24	C	1.128495	-0.383823	-0.640196
C25	C	1.073637	-0.424137	-0.707266
C26	C	0.963913	-0.424145	-0.707277
C27	C	0.909047	-0.383839	-0.640219
C28	C	1.518100	-0.466759	-0.506011
C29	C	1.518137	-0.536727	-0.506021
C30	C	1.585375	-0.569592	-0.438898
C31	C	1.585424	-0.635334	-0.438921
C32	C	1.518217	-0.668210	-0.506058
C33	C	1.450974	-0.635338	-0.573195
C34	C	1.450934	-0.569596	-0.573177
N35	N	1.426309	-0.771475	-0.514062
N36	N	1.426350	-0.833927	-0.514073
C37	C	1.518334	-0.866284	-0.506118
N38	N	1.610278	-0.833832	-0.498130
N39	N	1.610236	-0.771375	-0.498114
C40	C	1.518253	-0.739495	-0.506085
C41	C	1.585631	-0.970434	-0.439016
C42	C	1.585682	-1.036178	-0.439047
C43	C	1.451223	-1.036180	-0.573315
C44	C	1.451181	-0.970438	-0.573289
C45	C	1.518384	-0.937569	-0.506134
C46	C	1.792271	-0.303220	-0.506084
C47	C	1.909047	-0.303225	-0.506091
C48	C	1.518311	-0.303144	-0.780103
C49	C	1.518342	-0.303117	-0.896880
C50	C	1.518404	-0.139017	-0.506151
C51	C	1.518475	-0.069049	-0.506185
C52	C	1.585589	-0.262855	-0.951767
C53	C	1.585614	-0.262832	-1.061491
C54	C	1.451143	-0.343339	-1.061431
C55	C	1.451113	-0.343358	-0.951709
C56	C	1.652818	-0.222613	-0.896938
C57	C	1.720071	-0.182348	-0.951825
C58	C	1.720096	-0.182325	-1.061549
C59	C	1.652868	-0.222568	-1.116386
C60	C	1.518225	-0.303225	-0.233102
C61	C	1.518397	-0.303075	-0.116326
H62	H	0.819702	-0.383844	-0.640243
H63	H	1.118317	-0.456949	-0.761869
H64	H	1.118301	-0.230070	-0.384415
H65	H	1.396255	-0.662109	-0.627859
C66	C	1.659307	-0.533439	-0.365036
C67	C	1.650803	-0.542548	-0.245595
C68	C	1.724738	-0.506395	-0.171734
C69	C	1.807177	-0.461135	-0.217314
C70	C	1.815684	-0.452024	-0.336760
C71	C	1.741749	-0.488177	-0.410621
H72	H	1.589774	-0.576054	-0.211849
H73	H	1.718440	-0.513140	-0.083312
H74	H	1.861908	-0.434372	-0.162637
H75	H	1.876713	-0.418518	-0.370506
H76	H	1.748047	-0.481432	-0.499043
C77	C	0.903562	-0.218581	-0.365254
C78	C	0.782872	-0.218594	-0.365254
C79	C	0.722524	-0.174266	-0.291482
C80	C	0.782865	-0.129924	-0.217709
C81	C	0.903562	-0.129909	-0.217706
C82	C	0.963911	-0.174237	-0.291479
H83	H	0.738198	-0.251420	-0.419868
H84	H	0.633176	-0.174277	-0.291484
H85	H	0.738192	-0.097109	-0.163097
H86	H	0.948237	-0.097083	-0.163092
H87	H	1.053259	-0.174226	-0.291476
H88	H	1.640181	-0.662097	-0.384261
H89	H	1.652881	-0.222539	-1.205731
C90	C	1.377204	-0.387608	-1.121748
C91	C	1.377240	-0.387590	-1.242438
C92	C	1.303303	-0.431862	-1.302754
C93	C	1.229331	-0.476151	-1.242380
C94	C	1.229293	-0.476170	-1.121683
C95	C	1.303229	-0.431899	-1.061367
H96	H	1.432001	-0.354803	-1.287137
H97	H	1.303331	-0.431847	-1.392102
H98	H	1.174598	-0.508924	-1.287029
H99	H	1.174532	-0.508957	-1.076984
H100	H	1.303201	-0.431913	-0.972019
H101	H	0.919251	-0.456967	-0.761896
C102	C	1.376963	-0.533442	-0.647013
C103	C	1.257537	-0.542551	-0.638340
C104	C	1.183563	-0.506395	-0.712176
C105	C	1.229015	-0.461131	-0.794684
C106	C	1.348447	-0.452020	-0.803360
C107	C	1.422421	-0.488176	-0.729525
H108	H	1.223885	-0.576060	-0.577260
H109	H	1.095151	-0.513140	-0.705753
H110	H	1.174255	-0.434367	-0.849342
H111	H	1.382099	-0.418511	-0.864441
H112	H	1.510833	-0.481431	-0.735948
H113	H	1.396339	-0.376134	-0.907018
C114	C	1.794015	-0.138081	-0.891511
C115	C	1.913449	-0.143221	-0.906609
C116	C	1.987394	-0.098952	-0.846298
C117	C	1.941906	-0.049544	-0.770890
C118	C	1.822466	-0.044402	-0.755788
C119	C	1.748521	-0.088671	-0.816099
H120	H	1.947128	-0.179798	-0.962434
H121	H	2.075812	-0.102759	-0.857478
H122	H	1.996645	-0.016773	-0.726244
H123	H	1.788787	-0.007825	-0.699963
H124	H	1.660103	-0.084864	-0.804920
C125	C	1.659560	-0.934273	-0.365158
C126	C	1.733536	-0.970427	-0.291331
C127	C	1.807466	-0.934268	-0.217474
C128	C	1.807418	-0.861955	-0.217443
C129	C	1.733439	-0.825797	-0.291273
C130	C	1.659510	-0.861956	-0.365130
H131	H	1.733574	-1.023961	-0.291352
H132	H	1.862230	-0.961034	-0.162820
H133	H	1.862145	-0.835188	-0.162769
H134	H	1.733402	-0.772263	-0.291252
H135	H	1.604746	-0.835189	-0.419784
H136	H	1.217838	-0.383822	-0.640192
H137	H	1.774848	-0.149535	-1.106236
C138	C	1.377290	-1.072334	-0.647167
C139	C	1.294856	-1.117596	-0.601584
C140	C	1.220922	-1.153752	-0.675441
C141	C	1.229423	-1.144646	-0.794882
C142	C	1.311860	-1.099382	-0.840472
C143	C	1.385794	-1.063226	-0.766614
H144	H	1.288560	-1.124338	-0.513161
H145	H	1.159897	-1.187259	-0.641692
H146	H	1.174693	-1.171411	-0.849555
H147	H	1.318156	-1.092639	-0.928894
H148	H	1.446820	-1.029718	-0.800363
C149	C	1.377211	-0.934283	-0.647122
C150	C	1.303286	-0.970440	-0.720976
C151	C	1.229316	-0.934285	-0.794817
C152	C	1.229273	-0.861973	-0.794804
C153	C	1.303201	-0.825811	-0.720947
C154	C	1.377170	-0.861966	-0.647106
H155	H	1.303315	-1.023974	-0.720989
H156	H	1.174590	-0.961055	-0.849491
H157	H	1.174517	-0.835208	-0.849465
H158	H	1.303171	-0.772277	-0.720935
H159	H	1.431897	-0.835196	-0.592432
H160	H	1.640442	-1.062935	-0.384389
H161	H	1.652807	-0.222629	-0.807595
