data_functionalizedCrystal
_audit_creation_method	'MofGen! by Chris Wilmer'
_symmetry_space_group_name_H-M	'P1'
_symmetry_Int_Tables_number	1
_symmetry_cell_setting	triclinic
loop_
_symmetry_equiv_pos_as_xyz
  x,y,z
_cell_length_a	10.967874
_cell_length_b	15.944551
_cell_length_c	10.065875
_cell_angle_alpha	98.788968
_cell_angle_beta	69.229500
_cell_angle_gamma	84.117170
loop_
_atom_site_label
_atom_site_type_symbol
_atom_site_fract_x
_atom_site_fract_y
_atom_site_fract_z
O1	O	1.739799	0.061439	-0.522666
O2	O	1.362215	0.082292	-0.433868
O3	O	1.561316	-0.050613	-0.480679
O4	O	1.540699	0.194344	-0.475855
O5	O	1.523351	-0.025171	-0.244764
O6	O	1.324250	0.107734	-0.197953
O7	O	1.701834	0.086880	-0.286751
Zn8	Zn	1.507014	0.101347	-0.204896
Zn9	Zn	1.557035	0.067826	-0.515724
O10	O	1.502733	0.219785	-0.239940
C11	C	1.294915	0.095418	-0.304548
C12	C	1.150943	0.096614	-0.270689
C13	C	1.106424	0.083968	-0.377804
C14	C	0.957622	0.085205	-0.342812
C15	C	1.541477	-0.069169	-0.362520
C16	C	1.538911	-0.162364	-0.361916
C17	C	1.409366	-0.374650	-0.331469
C18	C	1.450804	-0.424318	-0.229296
C19	C	1.534269	-0.332999	-0.360835
C20	C	1.488265	-0.449385	-0.461897
C21	C	1.529778	-0.497824	-0.359795
C22	C	1.575726	-0.381428	-0.258574
C23	C	1.613186	-0.406500	-0.491275
C24	C	1.654711	-0.456149	-0.389095
C25	C	1.536853	-0.238047	-0.361432
C26	C	1.527202	-0.592774	-0.359190
C27	C	1.769135	0.073754	-0.416075
C28	C	1.913108	0.072557	-0.449943
C29	C	1.522572	0.238341	-0.358102
C30	C	1.525140	0.331535	-0.358716
N31	N	1.472885	0.124223	0.007234
N32	N	1.591175	0.044943	-0.727856
C33	C	1.545153	0.075780	0.058022
C34	C	1.518896	0.093393	0.221362
H35	H	0.985149	0.060819	-0.567563
H36	H	1.178470	0.072231	-0.495415
H37	H	0.885577	0.096952	-0.225193
O38	O	1.444134	-0.484622	-0.564499
C39	C	1.414384	-0.420665	-0.636047
H40	H	1.472175	-0.366297	-0.624801
H41	H	1.443097	-0.449845	-0.755877
H42	H	1.303828	-0.394137	-0.585320
H43	H	1.681798	-0.398024	-0.602033
H44	H	1.758468	-0.491361	-0.413433
H45	H	1.672485	-0.009577	0.194706
H46	H	1.078895	0.108361	-0.153077
O47	O	1.285601	-0.332449	-0.301996
C48	C	1.200447	-0.340899	-0.163763
H49	H	1.261169	-0.355170	-0.095978
H50	H	1.127204	-0.278412	-0.107482
H51	H	1.144108	-0.395947	-0.176049
O52	O	1.619944	-0.346100	-0.156108
C53	C	1.735525	-0.312701	-0.223224
H54	H	1.737991	-0.298741	-0.331810
H55	H	1.735819	-0.250608	-0.150273
H56	H	1.826227	-0.361747	-0.241860
H57	H	1.626458	0.021264	-0.019418
O58	O	1.375800	0.189160	0.099782
C59	C	1.281820	0.155105	0.204532
H60	H	1.329669	0.090674	0.214538
H61	H	1.244744	0.201791	0.313793
H62	H	1.195053	0.145314	0.169972
O63	O	1.368805	-0.434514	-0.097279
C64	C	1.267374	-0.477584	-0.113598
H65	H	1.301721	-0.515886	-0.229511
H66	H	1.243037	-0.523278	-0.034670
H67	H	1.175348	-0.428416	-0.089808
H68	H	1.437576	0.147906	0.298802
