data_functionalizedCrystal
_audit_creation_method	'MofGen! by Chris Wilmer'
_symmetry_space_group_name_H-M	'P1'
_symmetry_Int_Tables_number	1
_symmetry_cell_setting	triclinic
loop_
_symmetry_equiv_pos_as_xyz
  x,y,z
_cell_length_a	19.288865
_cell_length_b	10.654550
_cell_length_c	9.130313
_cell_angle_alpha	90.000773
_cell_angle_beta	89.990494
_cell_angle_gamma	96.189411
loop_
_atom_site_label
_atom_site_type_symbol
_atom_site_fract_x
_atom_site_fract_y
_atom_site_fract_z
O1	O	0.097554	-1.665752	-0.121709
O2	O	0.597554	-1.165752	0.378291
O3	O	0.106849	-1.300075	-0.121738
O4	O	0.606849	-0.800075	0.378262
O5	O	0.001140	-1.493480	-0.121693
O6	O	0.501140	-0.993480	0.378307
O7	O	0.203263	-1.472347	-0.121753
O8	O	0.703263	-0.972347	0.378247
O9	O	0.001138	-1.493465	0.121905
O10	O	0.501138	-0.993465	0.621905
O11	O	0.106846	-1.300060	0.121861
O12	O	0.606846	-0.800060	0.621861
O13	O	0.097552	-1.665737	0.121890
O14	O	0.597552	-1.165737	0.621890
Cu15	Cu	0.102199	-1.482897	0.144118
Cu16	Cu	0.602199	-0.982897	0.644118
Cu17	Cu	0.102202	-1.482915	-0.143966
Cu18	Cu	0.602202	-0.982915	0.356034
O19	O	0.203260	-1.472332	0.121846
O20	O	0.703260	-0.972332	0.621846
C21	C	-0.024742	-1.492792	0.000110
C22	C	0.475258	-0.992792	0.500110
C23	C	-0.101859	-1.490751	0.000123
C24	C	0.398141	-0.990751	0.500123
C25	C	0.106165	-1.253284	0.000059
C26	C	0.606165	-0.753284	0.500059
C27	C	0.104123	-1.113884	0.000049
C28	C	0.604123	-0.613884	0.500049
C29	C	0.098236	-1.712528	0.000090
C30	C	0.598236	-1.212528	0.500090
C31	C	0.100277	-1.851928	0.000091
C32	C	0.600277	-1.351928	0.500091
C33	C	-0.145812	-1.604232	0.000139
C34	C	0.354188	-1.104232	0.500139
C35	C	-0.218272	-1.602315	0.000116
C36	C	0.281728	-1.102315	0.500116
C37	C	-0.246775	-1.486909	0.000106
C38	C	0.253225	-0.986909	0.500106
C39	C	-0.202812	-1.373413	0.000081
C40	C	0.297188	-0.873413	0.500081
C41	C	-0.130354	-1.375334	0.000090
C42	C	0.369646	-0.875334	0.500090
C43	C	-0.355657	-1.396182	0.085426
C44	C	0.144343	-0.896182	0.585426
C45	C	-0.428114	-1.394266	0.085426
C46	C	0.071886	-0.894266	0.585426
C47	C	-0.470259	-1.480980	0.000073
C48	C	0.029741	-0.980980	0.500073
C49	C	-0.439940	-1.569632	-0.085263
C50	C	0.060060	-1.069632	0.414737
C51	C	-0.367482	-1.571552	-0.085254
C52	C	0.132518	-1.071552	0.414746
C53	C	-0.325343	-1.484814	0.000095
C54	C	0.174657	-0.984814	0.500095
C55	C	-0.592782	-1.592390	0.000061
C56	C	-0.092782	-1.092390	0.500061
C57	C	-0.665243	-1.590467	0.000029
C58	C	-0.165243	-1.090467	0.500029
C59	C	-0.649781	-1.361562	0.000009
C60	C	-0.149781	-0.861562	0.500009
C61	C	-0.577322	-1.363488	0.000027
C62	C	-0.077322	-0.863488	0.500027
C63	C	-0.548827	-1.478905	0.000060
C64	C	-0.048827	-0.978905	0.500060
C65	C	0.229142	-1.473020	0.000039
C66	C	0.729142	-0.973020	0.500039
C67	C	0.306259	-1.475061	0.000016
C68	C	0.806259	-0.975061	0.500016
N69	N	0.102196	-1.482894	0.346741
N70	N	0.602196	-0.982894	0.846741
C71	C	0.166363	-1.033066	0.000035
C72	C	0.666363	-0.533066	0.500035
C73	C	0.164440	-0.902087	0.000061
C74	C	0.664440	-0.402087	0.500061
C75	C	0.038033	-0.932756	0.000109
C76	C	0.538033	-0.432756	0.500109
C77	C	0.039956	-1.063733	0.000094
C78	C	0.539956	-0.563733	0.500094
C79	C	0.055409	-1.568561	0.423412
C80	C	0.555409	-1.068561	0.923412
C81	C	0.055409	-1.568572	0.576749
C82	C	0.555409	-1.068572	1.076749
C83	C	0.148991	-1.397244	0.576729
C84	C	0.648991	-0.897244	1.076729
C85	C	0.148987	-1.397228	0.423395
C86	C	0.648987	-0.897228	0.923395
N87	N	0.102201	-1.482920	0.653412
N88	N	0.602201	-0.982920	1.153412
H89	H	-0.122616	-1.698214	0.000161
H90	H	0.377384	-1.198214	0.500161
H91	H	0.218611	-1.073895	0.000009
H92	H	0.718611	-0.573895	0.500009
F93	F	0.230684	-0.816079	0.000048
F94	F	0.730684	-0.316079	0.500048
F95	F	-0.030254	-0.879369	0.000150
F96	F	0.469746	-0.379369	0.500150
H97	H	-0.094566	-1.282921	0.000077
H98	H	0.405434	-0.782921	0.500077
H99	H	0.017308	-1.638314	0.361003
H100	H	0.517308	-1.138314	0.861003
F101	F	-0.026291	-1.149751	0.000118
F102	F	0.473709	-0.649751	0.500118
F103	F	-0.562453	-1.715225	0.000103
F104	F	-0.062453	-1.215225	0.500103
F105	F	0.005610	-1.659748	0.658343
F106	F	0.505610	-1.159748	1.158343
F107	F	0.198788	-1.306079	0.658321
F108	F	0.698788	-0.806079	1.158321
H109	H	0.187087	-1.327461	0.360965
H110	H	0.687087	-0.827461	0.860965
H111	H	-0.342799	-1.643733	-0.154740
H112	H	0.157201	-1.143733	0.345260
F113	F	-0.265059	-1.723102	0.000131
F114	F	0.234941	-1.223102	0.500131
H115	H	-0.541534	-1.271079	0.000022
H116	H	-0.041534	-0.771079	0.500022
F117	F	-0.712022	-1.711257	0.000036
F118	F	-0.212022	-1.211257	0.500036
F119	F	-0.484788	-1.661926	-0.176112
F120	F	0.015212	-1.161926	0.323888
H121	H	-0.452794	-1.322075	0.154903
H122	H	0.047206	-0.822075	0.654903
F123	F	-0.680112	-1.238738	-0.000009
F124	F	-0.180112	-0.738738	0.499991
H125	H	-0.321348	-1.325565	0.154939
H126	H	0.178652	-0.825565	0.654939
F127	F	-0.233148	-1.250590	0.000061
F128	F	0.266852	-0.750590	0.500061
