data_functionalizedCrystal
_audit_creation_method	'MofGen! by Chris Wilmer'
_symmetry_space_group_name_H-M	'P1'
_symmetry_Int_Tables_number	1
_symmetry_cell_setting	triclinic
loop_
_symmetry_equiv_pos_as_xyz
  x,y,z
_cell_length_a	12.759401
_cell_length_b	10.685194
_cell_length_c	12.759393
_cell_angle_alpha	85.597731
_cell_angle_beta	89.980404
_cell_angle_gamma	94.377514
loop_
_atom_site_label
_atom_site_type_symbol
_atom_site_fract_x
_atom_site_fract_y
_atom_site_fract_z
Zn1	Zn	1.574255	-0.502343	-0.561903
Zn2	Zn	1.560696	-0.713409	-0.372745
Zn3	Zn	1.398550	-0.502405	-0.386239
Zn4	Zn	1.385102	-0.713316	-0.548392
O5	O	1.479651	-0.607868	-0.467320
O6	O	1.719477	-0.530354	-0.536818
O7	O	1.539141	-0.685484	-0.227510
O8	O	1.433160	-0.325798	-0.420842
O9	O	1.709515	-0.685423	-0.397845
O10	O	1.562250	-0.325752	-0.549903
O11	O	1.420013	-0.530460	-0.237423
O12	O	1.249746	-0.530370	-0.407741
O13	O	1.410240	-0.685265	-0.697210
O14	O	1.239865	-0.685326	-0.526875
O15	O	1.549210	-0.530264	-0.707136
O16	O	1.526101	-0.889995	-0.384743
O17	O	1.397092	-0.889927	-0.513791
C18	C	1.206685	-0.607846	-0.467307
C19	C	1.089907	-0.607866	-0.467324
C20	C	0.920188	-0.688693	-0.529249
C21	C	1.029913	-0.688679	-0.529239
C22	C	1.040170	-0.527071	-0.405407
C23	C	0.930447	-0.527093	-0.405412
C24	C	1.458694	-0.935751	-0.446359
C25	C	1.449825	-1.076021	-0.437428
C26	C	1.753682	-0.607892	-0.467333
C27	C	1.870458	-0.607902	-0.467339
C28	C	1.479737	-0.607747	-0.741361
C29	C	1.479774	-0.607695	-0.858141
C30	C	1.500718	-0.278705	-0.488385
C31	C	1.509695	-0.138435	-0.497362
C32	C	1.552141	-0.526973	-0.918174
C33	C	1.552163	-0.526919	-1.027902
C34	C	1.407445	-0.688320	-1.017553
C35	C	1.407420	-0.688367	-0.907827
C36	C	1.479631	-0.607898	-0.194350
C37	C	1.479820	-0.607594	-0.077594
H38	H	1.070396	-0.754469	-0.579652
F39	F	1.585564	-1.068019	-0.573370
H40	H	1.391769	-1.129902	-0.379283
F41	F	1.629144	-0.441113	-0.865298
H42	H	1.348482	-0.754099	-0.858947
F43	F	1.330449	-0.774175	-1.070442
H44	H	1.611090	-0.461185	-1.076777
H45	H	0.871348	-0.754494	-0.579674
F46	F	0.877518	-0.441102	-0.339511
F47	F	1.104023	-0.441068	-0.339507
