data_functionalizedCrystal
_audit_creation_method	'MofGen! by Chris Wilmer'
_symmetry_space_group_name_H-M	'P1'
_symmetry_Int_Tables_number	1
_symmetry_cell_setting	triclinic
loop_
_symmetry_equiv_pos_as_xyz
  x,y,z
_cell_length_a	21.395362
_cell_length_b	10.686203
_cell_length_c	21.395355
_cell_angle_alpha	94.377563
_cell_angle_beta	90.048039
_cell_angle_gamma	85.650757
loop_
_atom_site_label
_atom_site_type_symbol
_atom_site_fract_x
_atom_site_fract_y
_atom_site_fract_z
Zn1	Zn	-0.977066	0.501858	-0.335618
Zn2	Zn	-0.477066	1.001858	0.164382
Zn3	Zn	-0.985042	0.712826	-0.222839
Zn4	Zn	-0.485042	1.212826	0.277161
Zn5	Zn	-0.872283	0.501925	-0.230810
Zn6	Zn	-0.372283	1.001925	0.269190
Zn7	Zn	-0.880325	0.712861	-0.327535
Zn8	Zn	-0.380325	1.212861	0.172465
O9	O	-0.928679	0.607367	-0.279200
O10	O	-0.428679	1.107367	0.220800
O11	O	-1.065800	0.529800	-0.320705
O12	O	-0.565800	1.029800	0.179295
O13	O	-0.970057	0.684863	-0.136217
O14	O	-0.470057	1.184863	0.363783
O15	O	-0.879479	0.325348	-0.251432
O16	O	-0.379479	0.825348	0.248568
O17	O	-1.071660	0.684798	-0.237846
O18	O	-0.571660	1.184798	0.262154
O19	O	-0.956462	0.325298	-0.328434
O20	O	-0.456462	0.825298	0.171566
O21	O	-0.887213	0.529915	-0.142074
O22	O	-0.387213	1.029915	0.357926
O23	O	-0.785674	0.529949	-0.243593
O24	O	-0.285674	1.029949	0.256407
O25	O	-0.893185	0.684857	-0.416285
O26	O	-0.393185	1.184857	0.083715
O27	O	-0.791582	0.684922	-0.314656
O28	O	-0.291582	1.184922	0.185344
O29	O	-0.964260	0.529834	-0.422224
O30	O	-0.464260	1.029834	0.077776
O31	O	-0.977854	0.889399	-0.230008
O32	O	-0.477854	1.389399	0.269992
O33	O	-0.900919	0.889424	-0.306927
O34	O	-0.400919	1.389424	0.193073
C35	C	-0.765894	0.607448	-0.279113
C36	C	-0.265894	1.107448	0.220887
C37	C	-0.696255	0.607512	-0.279089
C38	C	-0.196255	1.107512	0.220911
C39	C	-0.941142	0.935194	-0.266739
C40	C	-0.441142	1.435194	0.233261
C41	C	-0.946531	1.075439	-0.261429
C42	C	-0.446531	1.575439	0.238571
C43	C	-0.666639	0.688317	-0.316025
C44	C	-0.166639	1.188317	0.183975
C45	C	-0.601203	0.688291	-0.316050
C46	C	-0.101203	1.188291	0.183950
C47	C	-0.565386	0.607475	-0.279126
C48	C	-0.065386	1.107475	0.220874
C49	C	-0.595009	0.526655	-0.242187
C50	C	-0.095009	1.026655	0.257813
C51	C	-0.660444	0.526674	-0.242169
C52	C	-0.160444	1.026674	0.257831
C53	C	-0.461272	0.597319	-0.223098
C54	C	0.038728	1.097319	0.276902
C55	C	-0.395839	0.597309	-0.223115
C56	C	0.104161	1.097309	0.276885
C57	C	-0.363562	0.607409	-0.279183
C58	C	0.136438	1.107409	0.220817
C59	C	-0.396728	0.617546	-0.335235
C60	C	0.103272	1.117546	0.164765
C61	C	-0.462163	0.617565	-0.335216
C62	C	0.037837	1.117565	0.164784
C63	C	-0.494432	0.607445	-0.279142
C64	C	0.005568	1.107445	0.220858
C65	C	-0.262993	0.688191	-0.316149
C66	C	0.237007	1.188191	0.183851
C67	C	-0.197555	0.688156	-0.316174
C68	C	0.302445	1.188156	0.183826
C69	C	-0.191363	0.526526	-0.242306
C70	C	0.308637	1.026526	0.257694
C71	C	-0.256799	0.526554	-0.242287
C72	C	0.243201	1.026554	0.257713
C73	C	-0.292611	0.607393	-0.279207
C74	C	0.207389	1.107393	0.220793
C75	C	-0.092100	0.607309	-0.279269
C76	C	0.407900	1.107309	0.220731
C77	C	-0.161742	0.607337	-0.279251
C78	C	0.338258	1.107337	0.220749
C79	C	-0.916178	1.278261	-0.291730
C80	C	-0.416178	1.778261	0.208270
C81	C	-0.910835	1.138015	-0.297087
C82	C	-0.410835	1.638015	0.202913
C83	C	-0.928730	0.607342	-0.442625
C84	C	-0.428730	1.107342	0.057375
C85	C	-0.928752	0.607331	-0.512266
C86	C	-0.428752	1.107331	-0.012266
C87	C	-0.965758	0.526607	-0.548073
C88	C	-0.465758	1.026607	-0.048073
C89	C	-0.965756	0.526553	-0.613511
C90	C	-0.465756	1.026553	-0.113511
C91	C	-0.928753	0.607245	-0.643138
C92	C	-0.428753	1.107245	-0.143138
C93	C	-0.891739	0.687974	-0.607323
C94	C	-0.391739	1.187974	-0.107323
C95	C	-0.891738	0.688017	-0.541887
C96	C	-0.391738	1.188017	-0.041887
C97	C	-0.928125	0.720859	-0.742492
C98	C	-0.428125	1.220859	-0.242492
C99	C	-0.928130	0.720818	-0.807926
C100	C	-0.428130	1.220818	-0.307926
C101	C	-0.928752	0.607112	-0.844964
C102	C	-0.428752	1.107112	-0.344964
C103	C	-0.929381	0.493442	-0.816559
C104	C	-0.429381	0.993442	-0.316559
C105	C	-0.929380	0.493485	-0.751123
C106	C	-0.429380	0.993485	-0.251123
C107	C	-0.928750	0.607207	-0.714092
C108	C	-0.428750	1.107207	-0.214092
C109	C	-0.965758	0.526322	-0.951726
C110	C	-0.465758	1.026322	-0.451726
C111	C	-0.965750	0.526266	-1.017164
C112	C	-0.465750	1.026266	-0.517164
C113	C	-0.891737	0.687699	-1.010975
C114	C	-0.391737	1.187699	-0.510975
C115	C	-0.891741	0.687744	-0.945538
C116	C	-0.391741	1.187744	-0.445538
C117	C	-0.928754	0.607057	-0.915917
C118	C	-0.428754	1.107057	-0.415917
C119	C	-0.928661	0.607302	-0.116415
C120	C	-0.428661	1.107302	0.383585
C121	C	-0.928747	0.606957	-0.046787
C122	C	-0.428747	1.106957	0.453213
H123	H	-0.695793	0.754140	-0.346090
H124	H	-0.195793	1.254140	0.153910
H125	H	-0.162201	0.460718	-0.212245
H126	H	0.337799	0.960718	0.287755
H127	H	-0.684557	0.460869	-0.212091
H128	H	-0.184557	0.960869	0.287909
H129	H	-0.292152	0.754008	-0.346215
H130	H	0.207848	1.254008	0.153785
H131	H	-0.370450	0.625769	-0.380890
H132	H	0.129550	1.125769	0.119110
C133	C	-1.006462	0.437455	-1.056552
C134	C	-0.506462	0.937455	-0.556552
N135	N	-1.037127	0.370563	-1.086220
N136	N	-0.537127	0.870563	-0.586220
H137	H	-0.876152	1.084298	-0.331678
H138	H	-0.376152	1.584298	0.168322
H139	H	-0.173443	0.753954	-0.346256
H140	H	0.326557	1.253954	0.153744
C141	C	-0.555609	0.437756	-0.201571
C142	C	-0.055609	0.937756	0.298429
N143	N	-0.525932	0.370792	-0.170979
N144	N	-0.025932	0.870792	0.329021
C145	C	-0.993385	1.148014	-0.214690
C146	C	-0.493385	1.648014	0.285310
N147	N	-1.028675	1.202678	-0.179486
N148	N	-0.528675	1.702678	0.320514
C149	C	-0.851034	0.776463	-1.043562
C150	C	-0.351034	1.276463	-0.543562
N151	N	-0.820375	0.843321	-1.068109
N152	N	-0.320375	1.343321	-0.568109
H153	H	-0.861610	0.753486	-0.916383
H154	H	-0.361610	1.253486	-0.416383
C155	C	-0.498643	0.628715	-0.396871
C156	C	0.001357	1.128715	0.103129
N157	N	-0.526120	0.637110	-0.443311
N158	N	-0.026120	1.137110	0.056689
C159	C	-0.927438	0.845855	-0.839166
C160	C	-0.427438	1.345855	-0.339166
N161	N	-0.926915	0.940037	-0.862694
N162	N	-0.426915	1.440037	-0.362694
H163	H	-0.577085	0.754091	-0.346130
H164	H	-0.077085	1.254091	0.153870
H165	H	-0.995897	0.460904	-0.523960
H166	H	-0.495897	0.960904	-0.023960
H167	H	-0.927451	0.813429	-0.712342
H168	H	-0.427451	1.313429	-0.212342
H169	H	-0.929888	0.400852	-0.846713
H170	H	-0.429888	0.900852	-0.346713
C171	C	-0.359362	0.586149	-0.161459
C172	C	0.140638	1.086149	0.338541
N173	N	-0.331889	0.577737	-0.115018
N174	N	0.168111	1.077737	0.384982
H175	H	-0.995889	0.460811	-0.642670
H176	H	-0.495889	0.960811	-0.142670
H177	H	-0.861609	0.753671	-0.631450
H178	H	-0.361609	1.253671	-0.131450
H179	H	-0.929891	0.400932	-0.727998
H180	H	-0.429891	0.900932	-0.227998
H181	H	-0.861599	0.753751	-0.512733
H182	H	-0.361599	1.253751	-0.012733
C183	C	-0.289378	0.437673	-0.201647
C184	C	0.210622	0.937673	0.298353
N185	N	-0.313917	0.370723	-0.171036
N186	N	0.186083	0.870723	0.328964
C187	C	-0.496770	0.586212	-0.161415
C188	C	0.003230	1.086212	0.338585
N189	N	-0.523506	0.577849	-0.114956
N190	N	-0.023506	1.077849	0.385044
H191	H	-0.995893	0.460615	-0.927607
H192	H	-0.495893	0.960615	-0.427607
