data_functionalizedCrystal
_audit_creation_method	'MofGen! by Chris Wilmer'
_symmetry_space_group_name_H-M	'P1'
_symmetry_Int_Tables_number	1
_symmetry_cell_setting	triclinic
loop_
_symmetry_equiv_pos_as_xyz
  x,y,z
_cell_length_a	8.497374
_cell_length_b	8.497374
_cell_length_c	19.077105
_cell_angle_alpha	87.692222
_cell_angle_beta	92.300461
_cell_angle_gamma	90.001110
loop_
_atom_site_label
_atom_site_type_symbol
_atom_site_fract_x
_atom_site_fract_y
_atom_site_fract_z
Zn1	Zn	0.988922	-0.725397	1.076029
Zn2	Zn	0.725163	-0.989147	1.076034
Zn3	Zn	0.714556	-0.714759	0.958362
Zn4	Zn	0.978300	-0.978513	0.958358
O5	O	0.851735	-0.851954	1.017196
O6	O	0.962818	-0.769287	1.174521
O7	O	0.502994	-0.952747	1.060429
O8	O	0.750957	-0.495407	0.973971
O9	O	0.769036	-0.963063	1.174525
O10	O	0.952533	-0.503224	1.060420
O11	O	0.495201	-0.751155	0.973976
O12	O	0.740657	-0.740843	0.859870
O13	O	1.200471	-0.944938	0.973963
O14	O	0.934429	-0.934622	0.859866
O15	O	1.208275	-0.758975	1.060415
O16	O	0.758736	-1.208499	1.060424
O17	O	0.944714	-1.200686	0.973968
C18	C	0.835240	-0.835425	0.834330
C19	C	0.828221	-0.828392	0.756100
C20	C	0.925652	-0.926131	0.719363
C21	C	0.919064	-0.919502	0.645857
C22	C	0.815037	-0.815141	0.609089
C23	C	0.717603	-0.717392	0.645830
C24	C	0.724199	-0.724014	0.719335
C25	C	0.784514	-0.784493	0.389252
C26	C	0.777922	-0.777881	0.315742
C27	C	0.979386	-0.979990	0.315774
C28	C	0.985967	-0.986609	0.389280
C29	C	0.888538	-0.888855	0.426015
N30	N	0.808298	-0.808366	0.533954
N31	N	0.895287	-0.895623	0.501149
C32	C	1.441856	-0.851980	1.017200
C33	C	1.263211	-0.851972	1.017193
C34	C	0.851742	-0.440473	1.017190
C35	C	0.851747	-0.261829	1.017190
C36	C	0.868295	-0.868548	1.200775
C37	C	0.875352	-0.875620	1.279006
H38	H	0.705169	-0.704906	0.419152
H39	H	0.632909	-0.632413	0.615887
Br40	Br	1.111597	-1.112655	0.265916
Br41	Br	0.636715	-0.636257	0.265842
Br42	Br	0.591976	-0.591355	0.769192
H43	H	1.010357	-1.011118	0.749295
H44	H	1.070673	-1.071594	0.419212
Br45	Br	1.051301	-1.052149	0.596004
