data_functionalizedCrystal
_audit_creation_method	'MofGen! by Chris Wilmer'
_symmetry_space_group_name_H-M	'P1'
_symmetry_Int_Tables_number	1
_symmetry_cell_setting	triclinic
loop_
_symmetry_equiv_pos_as_xyz
  x,y,z
_cell_length_a	11.169417
_cell_length_b	11.169416
_cell_length_c	11.169406
_cell_angle_alpha	89.956706
_cell_angle_beta	90.032821
_cell_angle_gamma	89.996714
loop_
_atom_site_label
_atom_site_type_symbol
_atom_site_fract_x
_atom_site_fract_y
_atom_site_fract_z
Zn1	Zn	-1.835139	-0.477586	-0.678638
Zn2	Zn	-1.501805	-0.144252	-0.345304
Zn3	Zn	-1.168472	0.189081	-0.011971
Zn4	Zn	-1.835007	-0.678380	-0.477970
Zn5	Zn	-1.501674	-0.345046	-0.144636
Zn6	Zn	-1.168341	-0.011713	0.188697
Zn7	Zn	-1.634385	-0.477703	-0.477965
Zn8	Zn	-1.301052	-0.144370	-0.144632
Zn9	Zn	-0.967719	0.188964	0.188701
Zn10	Zn	-1.634451	-0.678219	-0.678608
Zn11	Zn	-1.301117	-0.344886	-0.345275
Zn12	Zn	-0.967784	-0.011553	-0.011941
O13	O	-1.734746	-0.577972	-0.578295
O14	O	-1.401412	-0.244639	-0.244962
O15	O	-1.068079	0.088695	0.088371
O16	O	-2.003071	-0.504240	-0.652033
O17	O	-1.669738	-0.170906	-0.318699
O18	O	-1.336404	0.162427	0.014634
O19	O	-1.808312	-0.651876	-0.310019
O20	O	-1.474979	-0.318543	0.023314
O21	O	-1.141646	0.014791	0.356648
O22	O	-1.661043	-0.309738	-0.504596
O23	O	-1.327710	0.023595	-0.171262
O24	O	-0.994377	0.356929	0.162071
O25	O	-2.002975	-0.651762	-0.504603
O26	O	-1.669641	-0.318429	-0.171269
O27	O	-1.336308	0.014905	0.162064
O28	O	-1.808536	-0.309652	-0.652029
O29	O	-1.475203	0.023682	-0.318695
O30	O	-1.141869	0.357015	0.014638
O31	O	-1.660916	-0.504440	-0.310016
O32	O	-1.327583	-0.171106	0.023317
O33	O	-0.994250	0.162227	0.356651
O34	O	-1.466444	-0.504284	-0.504567
O35	O	-1.133111	-0.170951	-0.171234
O36	O	-0.799778	0.162383	0.162100
O37	O	-1.661154	-0.651489	-0.846562
O38	O	-1.327821	-0.318155	-0.513229
O39	O	-0.994488	0.015178	-0.179895
O40	O	-1.466492	-0.651602	-0.651978
O41	O	-1.133159	-0.318269	-0.318645
O42	O	-0.799826	0.015064	0.014688
O43	O	-1.808599	-0.504084	-0.846584
O44	O	-1.475266	-0.170751	-0.513250
O45	O	-1.141932	0.162583	-0.179917
O46	O	-1.808375	-0.846308	-0.504574
O47	O	-1.475042	-0.512975	-0.171241
O48	O	-1.141709	-0.179642	0.162093
O49	O	-1.661027	-0.846190	-0.651982
O50	O	-1.327694	-0.512857	-0.318649
O51	O	-0.994360	-0.179524	0.014684
C52	C	-1.422921	-0.577939	-0.578270
C53	C	-1.089587	-0.244606	-0.244937
C54	C	-0.756254	0.088727	0.088397
C55	C	-1.289521	-0.577954	-0.578287
C56	C	-0.956187	-0.244621	-0.244954
C57	C	-0.622854	0.088712	0.088379
C58	C	-1.734727	-0.889797	-0.578302
C59	C	-1.401393	-0.556463	-0.244968
C60	C	-1.068060	-0.223130	0.088365
C61	C	-1.734828	-1.023197	-0.578345
C62	C	-1.401495	-0.689863	-0.245011
C63	C	-1.068162	-0.356530	0.088322
C64	C	-1.734899	-0.577755	-0.891338
C65	C	-1.401565	-0.244422	-0.558005
C66	C	-1.068232	0.088911	-0.224671
C67	C	-1.734964	-0.577663	-1.024738
C68	C	-1.401631	-0.244330	-0.691405
C69	C	-1.068297	0.089004	-0.358071
C70	C	-1.047788	-0.577994	-0.578313
C71	C	-0.714454	-0.244661	-0.244980
C72	C	-0.381121	0.088673	0.088353
C73	C	-1.181188	-0.577974	-0.578301
C74	C	-0.847854	-0.244640	-0.244967
C75	C	-0.514521	0.088693	0.088366
C76	C	-1.734797	-0.264930	-0.578315
C77	C	-1.401464	0.068404	-0.244982
C78	C	-1.068130	0.401737	0.088352
C79	C	-1.734819	-0.131530	-0.578323
C80	C	-1.401486	0.201804	-0.244990
C81	C	-1.068152	0.535137	0.088343
C82	C	-1.734662	-0.578101	-0.266470
C83	C	-1.401329	-0.244768	0.066863
C84	C	-1.067995	0.088565	0.400196
C85	C	-1.734829	-0.577856	-0.133071
C86	C	-1.401496	-0.244522	0.200263
C87	C	-1.068162	0.088811	0.533596
