data_functionalizedCrystal
_audit_creation_method	'MofGen! by Chris Wilmer'
_symmetry_space_group_name_H-M	'P1'
_symmetry_Int_Tables_number	1
_symmetry_cell_setting	triclinic
loop_
_symmetry_equiv_pos_as_xyz
  x,y,z
_cell_length_a	13.930277
_cell_length_b	14.853567
_cell_length_c	14.853567
_cell_angle_alpha	83.634930
_cell_angle_beta	90.002649
_cell_angle_gamma	89.998032
loop_
_atom_site_label
_atom_site_type_symbol
_atom_site_fract_x
_atom_site_fract_y
_atom_site_fract_z
O1	O	-0.079756	1.196366	0.117699
O2	O	0.420244	1.696366	0.617699
O3	O	-0.079772	0.933906	0.131721
O4	O	0.420228	1.433906	0.631721
O5	O	-0.079767	1.072147	-0.006520
O6	O	0.420233	1.572147	0.493480
O7	O	-0.079762	1.058125	0.255940
O8	O	0.420238	1.558125	0.755940
O9	O	0.079895	1.072133	-0.006514
O10	O	0.579895	1.572133	0.493486
O11	O	0.079890	0.933892	0.131726
O12	O	0.579890	1.433892	0.631726
O13	O	0.079905	1.196352	0.117705
O14	O	0.579905	1.696352	0.617705
Zn15	Zn	0.105247	1.065120	0.124716
Zn16	Zn	0.605247	1.565120	0.624716
Zn17	Zn	-0.105114	1.065138	0.124709
Zn18	Zn	0.394886	1.565138	0.624709
O19	O	0.079900	1.058111	0.255945
O20	O	0.579900	1.558111	0.755945
C21	C	0.000057	0.900311	0.131088
C22	C	0.500057	1.400311	0.631088
C23	C	0.000051	0.800227	0.129184
C24	C	0.500051	1.300227	0.629184
C25	C	0.000070	0.387693	0.039019
C26	C	0.500070	0.887693	0.539019
C27	C	0.000073	0.366412	0.203251
C28	C	0.500073	0.866412	0.703251
C29	C	0.000070	0.460446	0.205042
C30	C	0.500070	0.960446	0.705042
C31	C	0.000066	0.518108	0.123819
C32	C	0.500066	1.018108	0.623819
C33	C	0.000065	0.481736	0.040806
C34	C	0.500065	0.981736	0.540806
C35	C	0.000061	0.496825	0.288053
C36	C	0.500061	0.996825	0.788053
C37	C	0.000057	0.590864	0.289846
C38	C	0.500057	1.090864	0.789846
C39	C	0.000060	0.648528	0.208623
C40	C	0.500060	1.148528	0.708623
C41	C	0.000060	0.612150	0.125607
C42	C	0.500060	1.112150	0.625607
C43	C	0.000056	0.669812	0.044384
C44	C	0.500056	1.169812	0.544384
C45	C	0.000063	0.633437	-0.038633
C46	C	0.500063	1.133437	0.461367
C47	C	0.000067	0.539399	-0.040417
C48	C	0.500067	1.039399	0.459583
C49	C	0.000055	0.742565	0.210407
C50	C	0.500055	1.242565	0.710407
C51	C	0.000050	0.763855	0.046172
C52	C	0.500050	1.263855	0.546172
N53	N	0.248814	1.065114	0.124721
N54	N	0.748814	1.565114	0.624721
C55	C	0.299075	1.003892	0.185915
C56	C	0.799075	1.503892	0.685915
C57	C	0.299058	1.126340	0.063523
C58	C	0.799058	1.626340	0.563523
C59	C	0.399553	1.126350	0.063521
C60	C	0.899553	1.626350	0.563521
C61	C	0.449814	1.065128	0.124715
C62	C	0.949814	1.565128	0.624715
C63	C	0.399580	1.003898	0.185912
C64	C	0.899580	1.503898	0.685912
C65	C	0.449796	1.187573	0.002318
C66	C	0.949796	1.687573	0.502318
C67	C	0.550297	1.187584	0.002312
C68	C	1.050297	1.687584	0.502312
C69	C	0.600560	1.126366	0.063512
C70	C	1.100560	1.626366	0.563512
C71	C	0.550319	1.065134	0.124712
C72	C	1.050319	1.565134	0.624712
C73	C	0.600580	1.003912	0.185907
C74	C	1.100580	1.503912	0.685907
C75	C	0.550341	0.942684	0.247113
C76	C	1.050341	1.442684	0.747113
C77	C	0.449842	0.942680	0.247112
C78	C	0.949842	1.442680	0.747112
C79	C	0.701059	1.126370	0.063512
C80	C	1.201059	1.626370	0.563512
C81	C	0.701085	1.003918	0.185904
C82	C	1.201085	1.503918	0.685904
N83	N	0.751320	1.065148	0.124707
N84	N	1.251320	1.565148	0.624707
C85	C	0.000061	1.071504	-0.040106
C86	C	0.500061	1.571504	0.459894
C87	C	0.000053	1.069601	-0.140189
C88	C	0.500053	1.569601	0.359811
C89	C	0.000075	1.229947	0.118337
C90	C	0.500075	1.729947	0.618337
C91	C	0.000075	1.330031	0.120241
C92	C	0.500075	1.830031	0.620241
C93	C	0.000066	0.979435	-0.552723
C94	C	0.500066	1.479435	-0.052723
C95	C	0.000076	1.143668	-0.574004
C96	C	0.500076	1.643668	-0.074004
C97	C	0.000070	1.145458	-0.479971
C98	C	0.500070	1.645458	0.020029
C99	C	0.000064	1.064235	-0.422309
C100	C	0.500064	1.564235	0.077691
C101	C	0.000063	0.981223	-0.458680
C102	C	0.500063	1.481223	0.041320
C103	C	0.000080	1.228469	-0.443591
C104	C	0.500080	1.728469	0.056409
C105	C	0.000076	1.230262	-0.349552
C106	C	0.500076	1.730262	0.150448
C107	C	0.000063	1.149039	-0.291889
C108	C	0.500063	1.649039	0.208111
C109	C	0.000061	1.066023	-0.328266
C110	C	0.500061	1.566023	0.171734
C111	C	0.000055	0.984800	-0.270604
C112	C	0.500055	1.484800	0.229396
C113	C	0.000047	0.901783	-0.306979
C114	C	0.500047	1.401783	0.193021
C115	C	0.000050	0.899999	-0.401017
C116	C	0.500050	1.399999	0.098983
C117	C	0.000059	1.150823	-0.197851
C118	C	0.500059	1.650823	0.302149
C119	C	0.000052	0.986588	-0.176561
C120	C	0.500052	1.486588	0.323439
C121	C	0.000070	1.058754	0.289531
C122	C	0.500070	1.558754	0.789531
C123	C	0.000072	1.060657	0.389615
C124	C	0.500072	1.560657	0.889615
H125	H	0.000050	0.810798	-0.019971
H126	H	0.500050	1.310798	0.480029
H127	H	0.258132	1.176181	0.013696
H128	H	0.758132	1.676181	0.513696
H129	H	0.000043	0.920445	-0.129618
H130	H	0.500043	1.420445	0.370382
H131	H	0.000044	0.832411	-0.430643
H132	H	0.500044	1.332411	0.069357
H133	H	0.000068	0.319459	0.269379
H134	H	0.500068	0.819459	0.769379
H135	H	0.000051	0.620472	0.357443
H136	H	0.500051	1.120472	0.857443
H137	H	0.000053	0.680397	-0.104764
H138	H	0.500053	1.180397	0.395236
H139	H	0.408870	1.237413	-0.047509
H140	H	0.908870	1.737413	0.452491
H141	H	0.000054	0.449870	0.354180
H142	H	0.500054	0.949870	0.854180
H143	H	0.000096	0.509774	-0.108005
H144	H	0.500096	1.009774	0.391995
H145	H	0.000051	0.772178	0.277998
H146	H	0.500051	1.272178	0.777998
H147	H	0.000080	0.358072	-0.028572
H148	H	0.500080	0.858072	0.471428
H149	H	0.000055	0.911844	-0.582344
H150	H	0.500055	1.411844	-0.082344
H151	H	0.000088	1.209795	-0.620958
H152	H	0.500088	1.709795	-0.120958
H153	H	0.742002	0.954067	0.235740
H154	H	1.242002	1.454067	0.735740
H155	H	0.741959	1.176217	0.013676
H156	H	1.241959	1.676217	0.513676
H157	H	0.591196	1.237440	-0.047523
H158	H	1.091196	1.737440	0.452477
H159	H	0.591275	0.892833	0.296934
H160	H	1.091275	1.392833	0.796934
H161	H	0.000082	1.297860	-0.319944
H162	H	0.500082	1.797860	0.180056
H163	H	0.000048	0.835652	-0.260019
H164	H	0.500048	1.335652	0.239981
H165	H	0.408931	0.892829	0.296943
H166	H	0.908931	1.392829	0.796943
H167	H	0.000094	1.294596	-0.490546
H168	H	0.500094	1.794596	0.009454
H169	H	0.000072	1.218414	-0.168238
H170	H	0.500072	1.718414	0.331762
H171	H	0.258167	0.954043	0.235750
H172	H	0.758167	1.454043	0.735750
