data_functionalizedCrystal
_audit_creation_method	'MofGen! by Chris Wilmer'
_symmetry_space_group_name_H-M	'P1'
_symmetry_Int_Tables_number	1
_symmetry_cell_setting	triclinic
loop_
_symmetry_equiv_pos_as_xyz
  x,y,z
_cell_length_a	18.215405
_cell_length_b	18.215407
_cell_length_c	18.215399
_cell_angle_alpha	90.017813
_cell_angle_beta	90.030551
_cell_angle_gamma	90.019398
loop_
_atom_site_label
_atom_site_type_symbol
_atom_site_fract_x
_atom_site_fract_y
_atom_site_fract_z
Zn1	Zn	-0.293100	1.125072	0.416063
Zn2	Zn	0.206900	1.625072	0.916063
Zn3	Zn	-0.416171	1.124980	0.292991
Zn4	Zn	0.083829	1.624980	0.792991
Zn5	Zn	-0.293111	1.002004	0.293015
Zn6	Zn	0.206889	1.502004	0.793015
Zn7	Zn	-0.416117	1.001970	0.416020
Zn8	Zn	0.083883	1.501970	0.916020
O9	O	-0.354625	1.063507	0.354522
O10	O	0.145375	1.563507	0.854522
O11	O	-0.309443	1.228044	0.399745
O12	O	0.190557	1.728044	0.899745
O13	O	-0.399874	1.108643	0.190010
O14	O	0.100126	1.608643	0.690010
O15	O	-0.190125	1.018382	0.309365
O16	O	0.309875	1.518382	0.809365
O17	O	-0.399863	1.227977	0.309325
O18	O	0.100137	1.727977	0.809325
O19	O	-0.190117	1.108799	0.399768
O20	O	0.309883	1.608799	0.899768
O21	O	-0.309462	1.018293	0.190027
O22	O	0.190538	1.518293	0.690027
O23	O	-0.309410	0.899016	0.309324
O24	O	0.190590	1.399016	0.809324
O25	O	-0.399771	1.018324	0.519010
O26	O	0.100229	1.518324	1.019010
O27	O	-0.399782	0.898991	0.399695
O28	O	0.100218	1.398991	0.899695
O29	O	-0.309391	1.108766	0.519042
O30	O	0.190609	1.608766	1.019042
O31	O	-0.519148	1.108610	0.309283
O32	O	-0.019148	1.608610	0.809283
O33	O	-0.519109	1.018235	0.399672
O34	O	-0.019109	1.518235	0.899672
C35	C	-0.354592	0.872300	0.354508
C36	C	0.145408	1.372300	0.854508
C37	C	-0.354596	0.790502	0.354519
C38	C	0.145404	1.290502	0.854519
C39	C	-0.307634	0.525473	0.401679
C40	C	0.192366	1.025473	0.901679
C41	C	-0.307622	0.602332	0.401677
C42	C	0.192378	1.102332	0.901677
C43	C	-0.401639	0.602281	0.307381
C44	C	0.098361	1.102281	0.807381
C45	C	-0.401654	0.525424	0.307388
C46	C	0.098346	1.025424	0.807388
C47	C	-0.354647	0.487022	0.354536
C48	C	0.145353	0.987022	0.854536
C49	C	-0.354620	0.640738	0.354527
C50	C	0.145380	1.140738	0.854527
C51	C	-0.354608	0.724072	0.354524
C52	C	0.145392	1.224072	0.854524
C53	C	-0.354661	0.403683	0.354540
C54	C	0.145339	0.903683	0.854540
C55	C	-0.545831	1.063429	0.354487
C56	C	-0.045831	1.563429	0.854487
C57	C	-0.627630	1.063463	0.354496
C58	C	-0.127630	1.563463	0.854496
C59	C	-0.815820	1.110632	0.307517
C60	C	-0.315820	1.610632	0.807517
C61	C	-0.892679	1.110665	0.307535
C62	C	-0.392679	1.610665	0.807535
C63	C	-0.892677	1.016476	0.401580
C64	C	-0.392677	1.516476	0.901580
C65	C	-0.815820	1.016447	0.401565
C66	C	-0.315820	1.516447	0.901565
C67	C	-0.777393	1.063524	0.354530
C68	C	-0.277393	1.563524	0.854530
C69	C	-0.931109	1.063586	0.354562
C70	C	-0.431109	1.563586	0.854562
C71	C	-1.014443	1.063621	0.354582
C72	C	-0.514443	1.563621	0.854582
C73	C	-0.694054	1.063490	0.354511
C74	C	-0.194054	1.563490	0.854511
C75	C	-0.162672	1.063605	0.354574
C76	C	0.337328	1.563605	0.854574
C77	C	-0.080873	1.063647	0.354596
C78	C	0.419127	1.563647	0.854596
C79	C	-0.354574	1.063552	0.546475
C80	C	0.145426	1.563552	1.046475
C81	C	-0.354552	1.063571	0.628274
C82	C	0.145448	1.563571	1.128274
C83	C	-0.354658	1.255460	0.354537
C84	C	0.145342	1.755460	0.854537
C85	C	-0.354672	1.337259	0.354543
C86	C	0.145328	1.837259	0.854543
C87	C	-0.354622	1.063504	0.163316
C88	C	0.145378	1.563504	0.663316
C89	C	-0.354436	1.063628	0.081517
C90	C	0.145564	1.563628	0.581517
C91	C	-0.307447	1.110681	0.816486
C92	C	0.192553	1.610681	1.316486
C93	C	-0.307426	1.110690	0.893344
C94	C	0.192574	1.610690	1.393344
C95	C	-0.401544	1.016513	0.893301
C96	C	0.098456	1.516513	1.393301
C97	C	-0.401561	1.016501	0.816443
C98	C	0.098439	1.516501	1.316443
C99	C	-0.354514	1.063589	0.778038
C100	C	0.145486	1.563589	1.278038
C101	C	-0.354475	1.063610	0.931754
C102	C	0.145525	1.563610	1.431754
C103	C	-0.354452	1.063619	1.015088
C104	C	0.145548	1.563619	1.515088
C105	C	-0.354535	1.063579	0.694699
C106	C	0.145465	1.563579	1.194699
H107	H	-0.269357	0.494209	0.440070
H108	H	0.230643	0.994209	0.940070
O109	O	-0.452360	0.483947	0.256530
O110	O	0.047640	0.983947	0.756530
H111	H	-0.510132	0.498698	0.269042
H112	H	-0.010132	0.998698	0.769042
O113	O	-0.452285	0.965726	0.934725
O114	O	0.047715	1.465726	1.434725
H115	H	-0.489729	0.998649	0.969731
H116	H	0.010271	1.498649	1.469731
H117	H	-0.923962	1.149026	0.269254
H118	H	-0.423962	1.649026	0.769254
H119	H	-0.923974	0.978146	0.439873
H120	H	-0.423974	1.478146	0.939873
H121	H	-0.784535	1.148966	0.269219
H122	H	-0.284535	1.648966	0.769219
H123	H	-0.439887	0.978148	0.785138
H124	H	0.060113	1.478148	1.285138
O125	O	-0.256704	1.161463	0.775058
O126	O	0.243296	1.661463	1.275058
H127	H	-0.198940	1.148866	0.789819
H128	H	0.301060	1.648866	1.289819
O129	O	-0.256666	1.161485	0.934816
O130	O	0.243334	1.661485	1.434816
H131	H	-0.223961	1.194228	0.895196
H132	H	0.276039	1.694228	1.395196
H133	H	-0.269339	0.633636	0.440066
H134	H	0.230661	1.133636	0.940066
H135	H	-0.439909	0.633558	0.268994
H136	H	0.060091	1.133558	0.768994
O137	O	-0.774365	0.965625	0.452263
O138	O	-0.274365	1.465625	0.952263
H139	H	-0.813997	0.932883	0.484961
H140	H	-0.313997	1.432883	0.984961
