data_functionalizedCrystal
_audit_creation_method	'MofGen! by Chris Wilmer'
_symmetry_space_group_name_H-M	'P1'
_symmetry_Int_Tables_number	1
_symmetry_cell_setting	triclinic
loop_
_symmetry_equiv_pos_as_xyz
  x,y,z
_cell_length_a	6.817900
_cell_length_b	9.541902
_cell_length_c	9.582889
_cell_angle_alpha	89.850255
_cell_angle_beta	111.207298
_cell_angle_gamma	69.436382
loop_
_atom_site_label
_atom_site_type_symbol
_atom_site_fract_x
_atom_site_fract_y
_atom_site_fract_z
V1	V	-4.148497	0.466329	-0.206432
V2	V	-3.815164	0.799663	0.126901
V3	V	-3.481831	1.132996	0.460235
O4	O	-4.092640	0.457734	0.010562
O5	O	-3.759307	0.791068	0.343895
O6	O	-3.425974	1.124401	0.677229
O7	O	-4.138665	0.462869	-0.409938
O8	O	-3.805332	0.796202	-0.076604
O9	O	-3.471998	1.129536	0.256729
O10	O	-4.135176	0.669836	-0.202975
O11	O	-3.801843	1.003169	0.130358
O12	O	-3.468510	1.336502	0.463692
O13	O	-4.096153	0.249335	-0.197833
O14	O	-3.762820	0.582668	0.135500
O15	O	-3.429486	0.916002	0.468833
V16	V	-4.622582	0.440408	-0.180510
V17	V	-4.289249	0.773741	0.152823
V18	V	-3.955916	1.107075	0.486156
O19	O	-4.430459	0.523190	-0.263293
O20	O	-4.097125	0.856523	0.070040
O21	O	-3.763792	1.189857	0.403373
O22	O	-4.790818	0.383548	-0.123649
O23	O	-4.457485	0.716881	0.209684
O24	O	-4.124152	1.050214	0.543018
O25	O	-4.409208	0.443869	0.022995
O26	O	-4.075875	0.777202	0.356329
O27	O	-3.742542	1.110535	0.689662
O28	O	-4.795836	0.449003	-0.397504
O29	O	-4.462503	0.782336	-0.064171
O30	O	-4.129169	1.115670	0.269162
O31	O	-4.792324	0.657403	-0.189109
O32	O	-4.458990	0.990736	0.144224
O33	O	-4.125657	1.324069	0.477558
O34	O	-4.412697	0.236902	-0.183967
O35	O	-4.079363	0.570235	0.149366
O36	O	-3.746030	0.903569	0.482699
C37	C	-3.991913	0.455442	-0.459557
C38	C	-3.658580	0.788776	-0.126223
C39	C	-3.325246	1.122109	0.207110
C40	C	-4.065395	0.453969	-0.625923
C41	C	-3.732061	0.787303	-0.292590
C42	C	-3.398728	1.120636	0.040743
C43	C	-4.223753	0.187283	-0.191394
C44	C	-3.890420	0.520616	0.141939
C45	C	-3.557087	0.853949	0.475273
C46	C	-4.132343	0.020916	-0.192866
C47	C	-3.799009	0.354249	0.140467
C48	C	-3.465676	0.687582	0.473800
C49	C	-3.987462	0.719447	-0.195553
C50	C	-3.654128	1.052780	0.137780
C51	C	-3.320795	1.386114	0.471113
C52	C	-4.058109	0.885812	-0.194073
C53	C	-3.724776	1.219146	0.139260
C54	C	-3.391442	1.552479	0.472593
C55	C	-4.219303	0.451291	0.072607
C56	C	-3.885970	0.784624	0.405940
C57	C	-3.552636	1.117958	0.739273
C58	C	-4.125062	0.452774	0.238972
C59	C	-3.791728	0.786107	0.572305
C60	C	-3.458395	1.119440	0.905638
