data_functionalizedCrystal
_audit_creation_method	'MofGen! by Chris Wilmer'
_symmetry_space_group_name_H-M	'P1'
_symmetry_Int_Tables_number	1
_symmetry_cell_setting	triclinic
loop_
_symmetry_equiv_pos_as_xyz
  x,y,z
_cell_length_a	11.792241
_cell_length_b	14.044220
_cell_length_c	10.268362
_cell_angle_alpha	90.006985
_cell_angle_beta	89.996518
_cell_angle_gamma	88.691147
loop_
_atom_site_label
_atom_site_type_symbol
_atom_site_fract_x
_atom_site_fract_y
_atom_site_fract_z
O1	O	1.519105	0.129988	0.108177
O2	O	2.019105	0.629988	0.608177
O3	O	1.190022	0.143385	0.108207
O4	O	1.690022	0.643385	0.608207
O5	O	1.349624	-0.001323	0.108180
O6	O	1.849624	0.498677	0.608180
O7	O	1.359503	0.274697	0.108204
O8	O	1.859503	0.774697	0.608204
O9	O	1.349621	-0.001332	-0.108421
O10	O	1.849621	0.498668	0.391579
O11	O	1.190019	0.143376	-0.108393
O12	O	1.690019	0.643376	0.391607
O13	O	1.519102	0.129980	-0.108424
O14	O	2.019102	0.629980	0.391576
Cu15	Cu	1.354560	0.136677	-0.128186
Cu16	Cu	1.854560	0.636677	0.371814
Cu17	Cu	1.354564	0.136687	0.127969
Cu18	Cu	1.854564	0.636687	0.627969
O19	O	1.359500	0.274688	-0.108396
O20	O	1.859500	0.774688	0.391604
C21	C	1.147650	0.142539	-0.000089
C22	C	1.647650	0.642539	0.499911
C23	C	1.021400	0.140020	-0.000078
C24	C	1.521400	0.640020	0.499922
C25	C	0.790253	0.135389	-0.000116
C26	C	1.290253	0.635389	0.499884
C27	C	0.918880	0.137962	-0.000095
C28	C	1.418880	0.637962	0.499905
C29	C	1.345298	-0.036664	-0.000121
C30	C	1.845298	0.463336	0.499879
C31	C	1.332399	-0.141956	-0.000121
C32	C	1.832399	0.358044	0.499879
C33	C	1.308817	-0.334739	-0.000100
C34	C	1.808817	0.165261	0.499900
C35	C	1.400302	-0.391902	-0.000105
C36	C	1.900302	0.108098	0.499895
C37	C	1.387181	-0.499173	-0.000093
C38	C	1.887181	0.000827	0.499907
C39	C	1.321937	-0.227458	-0.000112
C40	C	1.821937	0.272542	0.499888
C41	C	1.561474	0.130826	-0.000125
C42	C	2.061474	0.630826	0.499875
C43	C	1.687724	0.133344	-0.000127
C44	C	2.187724	0.633344	0.499873
C45	C	1.363826	0.310029	-0.000093
C46	C	1.863826	0.810029	0.499907
C47	C	1.376725	0.415321	-0.000084
C48	C	1.876725	0.915321	0.499916
N49	N	1.354566	0.136687	0.308135
N50	N	1.854566	0.636687	0.808135
N51	N	1.354566	0.136670	-0.308352
N52	N	1.854566	0.636670	0.191648
C53	C	1.354563	0.136682	0.573806
C54	C	1.854563	0.636682	1.073806
C55	C	1.354562	0.136688	0.425968
C56	C	1.854562	0.636688	0.925968
H57	H	1.488479	-0.360278	-0.000026
H58	H	1.988479	0.139722	0.499974
C59	C	1.191345	-0.377081	-0.000163
C60	C	1.691345	0.122919	0.499837
C61	C	1.201523	-0.476604	-0.000192
C62	C	1.701523	0.023396	0.499808
C63	C	1.093334	-0.515654	-0.000273
C64	C	1.593334	-0.015654	0.499727
H65	H	1.151151	-0.356594	0.075347
H66	H	1.651151	0.143406	0.575347
H67	H	1.151248	-0.356559	-0.075729
H68	H	1.651248	0.143441	0.424271
H69	H	1.241603	-0.497118	0.075368
H70	H	1.741603	0.002882	0.575368
H71	H	1.241696	-0.497118	-0.075696
H72	H	1.741696	0.002882	0.424304
H73	H	1.053237	-0.495132	-0.075839
H74	H	1.553237	0.004868	0.424161
H75	H	1.053150	-0.495159	0.075238
H76	H	1.553150	0.004841	0.575238
H77	H	1.100226	-0.583183	-0.000304
H78	H	1.600226	-0.083183	0.499696
