data_functionalizedCrystal
_audit_creation_method	'MofGen! by Chris Wilmer'
_symmetry_space_group_name_H-M	'P1'
_symmetry_Int_Tables_number	1
_symmetry_cell_setting	triclinic
loop_
_symmetry_equiv_pos_as_xyz
  x,y,z
_cell_length_a	17.038272
_cell_length_b	14.853567
_cell_length_c	13.930277
_cell_angle_alpha	90.000757
_cell_angle_beta	90.001549
_cell_angle_gamma	87.373243
loop_
_atom_site_label
_atom_site_type_symbol
_atom_site_fract_x
_atom_site_fract_y
_atom_site_fract_z
O1	O	-1.037627	-0.195788	-0.079697
O2	O	-0.809992	-0.192679	-0.079726
O3	O	-0.929890	-0.063462	-0.079714
O4	O	-0.917729	-0.325006	-0.079709
O5	O	-0.929873	-0.063457	0.079948
O6	O	-0.809976	-0.192675	0.079936
O7	O	-1.037610	-0.195784	0.079965
Zn8	Zn	-0.923790	-0.194229	0.105300
Zn9	Zn	-0.923812	-0.194235	-0.105061
O10	O	-0.917713	-0.325002	0.079953
C11	C	-0.780852	-0.189850	0.000101
C12	C	-0.694048	-0.181414	0.000090
C13	C	-0.929331	-0.029829	0.000114
C14	C	-0.927680	0.070379	0.000106
C15	C	-1.066751	-0.198614	0.000135
C16	C	-1.153555	-0.207050	0.000140
C17	C	-0.644036	-0.258867	0.000092
C18	C	-0.562475	-0.250935	0.000105
C19	C	-0.530928	-0.165549	0.000110
C20	C	-0.580947	-0.088090	0.000110
C21	C	-0.662506	-0.096023	0.000104
C22	C	-0.285133	-0.137524	0.000135
C23	C	-0.203567	-0.129597	0.000138
C24	C	-0.185101	-0.292443	0.000135
C25	C	-0.266663	-0.300368	0.000123
C26	C	-0.316674	-0.222909	0.000129
C27	C	-0.447559	-0.157439	0.000120
C28	C	-0.400041	-0.231019	0.000125
C29	C	-0.918272	-0.358634	0.000122
C30	C	-0.919923	-0.458842	0.000125
N31	N	-0.923781	-0.194225	0.248866
C32	C	-0.849478	0.488797	0.000114
C33	C	-0.991919	0.499359	0.000132
C34	C	-0.993472	0.405209	0.000127
C35	C	-0.923026	0.352848	0.000117
C36	C	-0.851028	0.394638	0.000112
C37	C	-1.065468	0.363411	0.000141
C38	C	-1.067024	0.269255	0.000137
C39	C	-0.996578	0.216893	0.000120
C40	C	-0.924577	0.258689	0.000114
C41	C	-0.854131	0.206328	0.000104
C42	C	-0.782129	0.248122	0.000091
C43	C	-0.780582	0.342276	0.000095
C44	C	-0.998125	0.122739	0.000116
C45	C	-0.855682	0.112168	0.000101
N46	N	-0.923828	-0.194232	-0.248627
C47	C	-0.870719	-0.251428	0.701130
C48	C	-0.976927	-0.137036	0.701110
C49	C	-0.976917	-0.137032	0.600615
C50	C	-0.923809	-0.194228	0.550372
C51	C	-0.870710	-0.251428	0.600625
C52	C	-1.030021	-0.079840	0.550354
C53	C	-1.030014	-0.079835	0.449852
C54	C	-0.976901	-0.137027	0.399608
C55	C	-0.923800	-0.194228	0.449867
C56	C	-0.870691	-0.251425	0.399624
C57	C	-0.817585	-0.308622	0.449882
C58	C	-0.817597	-0.308620	0.550381
C59	C	-0.976889	-0.137029	0.299109
C60	C	-0.870682	-0.251425	0.299119
H61	H	-0.669714	-0.328397	0.000088
H62	H	-0.827479	-0.297995	0.742052
N63	N	-0.763350	-0.367060	0.398556
N64	N	-0.788219	-0.424946	0.342477
H65	H	-0.749918	-0.466219	0.306225
N66	N	-1.084241	-0.021405	0.398505
N67	N	-1.084222	-0.021403	0.308774
H68	H	-1.122518	0.019866	0.272508
H69	H	-1.122821	0.406050	0.000158
H70	H	-1.020131	-0.090464	0.258194
H71	H	-0.798315	0.069542	0.000089
H72	H	-0.774361	-0.355189	0.591307
H73	H	-0.724773	0.205477	0.000090
H74	H	-0.521757	-0.314006	0.000106
N75	N	-1.140561	0.226554	0.000133
N76	N	-1.141938	0.142488	0.000123
H77	H	-1.193874	0.112327	0.000118
H78	H	-0.721962	0.376313	0.000086
N79	N	-1.071662	0.080046	0.000152
N80	N	-1.119161	0.094093	0.067470
H81	H	-1.171101	0.063940	0.067498
H82	H	-0.703226	-0.032952	0.000102
H83	H	-0.425730	-0.300540	0.000127
H84	H	-1.049272	0.541997	0.000148
H85	H	-1.073264	-0.033277	0.591264
H86	H	-0.790855	0.522830	0.000100
N87	N	-0.548738	-0.000863	0.000106
N88	N	-0.593404	0.068285	0.000103
H89	H	-0.570659	0.129893	0.000097
H90	H	-0.827432	-0.297998	0.258218
N91	N	-0.171331	-0.042378	0.000135
N92	N	-0.127881	-0.019787	-0.067167
H93	H	-0.105113	0.041808	-0.067173
N94	N	-0.134015	-0.371559	0.000159
N95	N	-0.136944	-0.426955	0.067467
H96	H	-0.100864	-0.482836	0.067489
N97	N	-1.031189	-0.078616	0.752404
N98	N	-1.103457	-0.085447	0.741152
H99	H	-1.141785	-0.044184	0.777377
N100	N	-0.298871	-0.387595	0.000106
N101	N	-0.254208	-0.456745	0.000102
H102	H	-0.276954	-0.518351	0.000084
H103	H	-0.325843	-0.074451	0.000140
H104	H	-0.421865	-0.087917	0.000151
