data_functionalizedCrystal
_audit_creation_method	'MofGen! by Chris Wilmer'
_symmetry_space_group_name_H-M	'P1'
_symmetry_Int_Tables_number	1
_symmetry_cell_setting	triclinic
loop_
_symmetry_equiv_pos_as_xyz
  x,y,z
_cell_length_a	14.044220
_cell_length_b	11.026607
_cell_length_c	10.065875
_cell_angle_alpha	79.302338
_cell_angle_beta	80.407284
_cell_angle_gamma	79.112553
loop_
_atom_site_label
_atom_site_type_symbol
_atom_site_fract_x
_atom_site_fract_y
_atom_site_fract_z
O1	O	0.393284	-1.670494	0.113515
O2	O	0.347236	-1.312203	0.113514
O3	O	0.231359	-1.485969	0.113501
O4	O	0.509161	-1.496729	0.113528
O5	O	0.253569	-1.452846	-0.113485
O6	O	0.369446	-1.279081	-0.113472
O7	O	0.415494	-1.637372	-0.113471
Zn8	Zn	0.395996	-1.452967	-0.149510
Zn9	Zn	0.366734	-1.496608	0.149554
O10	O	0.531371	-1.463606	-0.113458
C11	C	0.206346	-1.464699	0.000008
C12	C	0.098724	-1.450655	0.000006
C13	C	0.349846	-1.249512	0.000021
C14	C	0.324521	-1.112056	0.000020
C15	C	0.412884	-1.700064	0.000025
C16	C	0.438207	-1.837520	0.000035
C17	C	-0.098320	-1.424983	0.000025
C18	C	-0.138958	-1.524588	0.000030
C19	C	-0.248600	-1.510304	0.000041
C20	C	0.011332	-1.439265	0.000015
C21	C	0.556383	-1.484876	0.000039
C22	C	0.664004	-1.498921	0.000049
N23	N	0.415967	-1.423193	-0.353614
C24	C	0.394445	-1.045821	0.000028
C25	C	0.368273	-0.903753	0.000027
C26	C	0.373675	-1.486240	-0.421397
C27	C	0.389055	-1.463335	-0.578563
N28	N	0.346756	-1.526391	0.353657
H29	H	-0.091415	-1.620605	0.000122
H30	H	0.517454	-0.885983	0.000034
H31	H	-0.145870	-1.328988	0.000029
H32	H	0.463557	-1.352254	-0.411935
H33	H	0.473686	-1.094290	0.000028
O34	O	0.273776	-0.845759	0.000081
C35	C	0.161549	-0.651262	-0.000010
C36	C	0.268599	-0.716787	-0.000039
H37	H	0.157332	-0.546974	-0.000136
H38	H	0.114720	-0.692928	0.095004
H39	H	0.133350	-0.665373	-0.094983
H40	H	0.296887	-0.702701	0.094869
H41	H	0.315362	-0.675110	-0.095116
O42	O	0.230029	-1.054057	0.000074
C43	C	0.117802	-0.859560	-0.000017
C44	C	0.224853	-0.925085	-0.000046
H45	H	0.113585	-0.755271	-0.000143
H46	H	0.070973	-0.901226	0.094997
H47	H	0.089604	-0.873670	-0.094990
H48	H	0.253141	-0.910999	0.094863
H49	H	0.271616	-0.883408	-0.095123
O50	O	0.316762	-1.570726	-0.351864
C51	C	0.156781	-1.630883	-0.307844
C52	C	0.221110	-1.535087	-0.386664
H53	H	0.079439	-1.602118	-0.335972
H54	H	0.154432	-1.634249	-0.193476
H55	H	0.188878	-1.727264	-0.335803
H56	H	0.189062	-1.438657	-0.358820
H57	H	0.223458	-1.531830	-0.501012
O58	O	0.445707	-1.378531	-0.648062
C59	C	0.470308	-1.163491	-0.692031
C60	C	0.406055	-1.259393	-0.613262
H61	H	0.438286	-1.067153	-0.663902
H62	H	0.472578	-1.159985	-0.806407
H63	H	0.547679	-1.192368	-0.664026
H64	H	0.328654	-1.230587	-0.641152
H65	H	0.403868	-1.262884	-0.498905
O66	O	0.289751	-1.610844	-0.576987
C67	C	0.129686	-1.670727	-0.533520
C68	C	0.194175	-1.574998	-0.612033
H69	H	0.052405	-1.641795	-0.561848
H70	H	0.127196	-1.674227	-0.419105
H71	H	0.161744	-1.767090	-0.561556
H72	H	0.162166	-1.478586	-0.584112
H73	H	0.196664	-1.571608	-0.726430
