data_functionalizedCrystal
_audit_creation_method	'MofGen! by Chris Wilmer'
_symmetry_space_group_name_H-M	'P1'
_symmetry_Int_Tables_number	1
_symmetry_cell_setting	triclinic
loop_
_symmetry_equiv_pos_as_xyz
  x,y,z
_cell_length_a	15.944499
_cell_length_b	15.021413
_cell_length_c	13.339070
_cell_angle_alpha	90.000989
_cell_angle_beta	80.446548
_cell_angle_gamma	89.995782
loop_
_atom_site_label
_atom_site_type_symbol
_atom_site_fract_x
_atom_site_fract_y
_atom_site_fract_z
O1	O	1.144879	0.074084	-0.130210
O2	O	0.904084	0.074074	-0.146350
O3	O	0.996846	0.074075	0.008979
O4	O	1.052117	0.074083	-0.285539
O5	O	0.996864	-0.073989	0.008970
O6	O	0.904102	-0.073990	-0.146359
O7	O	1.144896	-0.073980	-0.130220
Zn8	Zn	1.024502	-0.097494	-0.138291
Zn9	Zn	1.024479	0.097587	-0.138278
O10	O	1.052134	-0.073982	-0.285549
C11	C	0.872644	0.000040	-0.145694
C12	C	0.778934	0.000036	-0.143713
C13	C	0.508426	0.000052	-0.233955
C14	C	0.558516	0.073056	-0.187040
C15	C	0.441621	0.000057	-0.136515
C16	C	0.558513	-0.072924	-0.187023
C17	C	0.607355	0.000045	-0.140057
C18	C	0.490476	0.073121	-0.089574
C19	C	0.490470	-0.072924	-0.089570
C20	C	0.540526	0.000097	-0.042585
C21	C	0.346146	0.000064	-0.134478
C22	C	0.702827	0.000044	-0.142087
N23	N	1.024523	-0.230631	-0.138299
C24	C	1.067424	-0.470290	-0.066458
C25	C	0.986948	-0.529623	-0.046824
C26	C	1.024501	-0.412238	-0.138286
C27	C	1.104945	-0.529647	-0.157861
C28	C	1.024485	-0.587662	-0.138272
C29	C	0.943975	-0.470265	-0.118607
C30	C	1.062032	-0.470284	-0.229683
C31	C	0.981509	-0.529590	-0.210088
C32	C	1.024510	-0.311181	-0.138292
C33	C	1.024467	-0.688718	-0.138267
C34	C	1.176336	0.000055	-0.130875
C35	C	1.270046	0.000065	-0.132857
C36	C	0.987519	0.000044	0.046662
C37	C	0.959689	0.000046	0.158960
N38	N	1.024462	0.230725	-0.138262
C39	C	1.061462	0.000052	-0.323232
C40	C	1.089292	0.000055	-0.435529
C41	C	1.176076	0.000055	0.523786
C42	C	1.202226	0.000047	0.418278
C43	C	1.141594	0.000047	0.353443
C44	C	1.054808	0.000054	0.394127
C45	C	1.028655	0.000054	0.499646
C46	C	0.994173	0.000047	0.329303
C47	C	0.907387	0.000054	0.369987
C48	C	0.881239	0.000055	0.475496
C49	C	0.941871	0.000055	0.540331
C50	C	1.020325	0.000047	0.223784
C51	C	0.872905	0.000046	0.199644
C52	C	0.846755	0.000054	0.305153
H53	H	1.103663	-0.444252	-0.005682
H54	H	0.955194	-0.555689	0.030474
C55	C	1.169937	-0.000143	0.238882
C56	C	1.138447	-0.076329	0.197395
C57	C	1.164554	-0.076539	0.091863
H58	H	1.148646	0.051430	0.210422
H59	H	1.230306	-0.000195	0.223899
H60	H	1.078090	-0.076269	0.212369
H61	H	1.159735	-0.127915	0.225826
H62	H	1.224924	-0.076591	0.076880
H63	H	1.143261	-0.024962	0.063413
H64	H	1.143199	-0.128234	0.063701
H65	H	1.272887	0.000041	0.385161
H66	H	0.945150	-0.555462	-0.270828
C67	C	0.451197	0.155544	-0.034588
C68	C	0.515130	0.206685	-0.002316
C69	C	0.478976	0.282612	0.048347
H70	H	0.423613	0.189770	-0.079399
H71	H	0.410895	0.138128	0.022714
H72	H	0.555417	0.224102	-0.059610
H73	H	0.542719	0.172485	0.042507
H74	H	0.438674	0.265196	0.105649
H75	H	0.451392	0.316831	0.003530
H76	H	0.522347	0.317316	0.070258
H77	H	0.493939	0.000125	-0.314820
H78	H	0.460765	-0.134647	-0.048395
H79	H	1.172983	-0.555732	-0.174424
H80	H	1.093804	-0.444199	-0.306958
H81	H	0.823533	0.000042	0.146855
H82	H	0.588202	-0.134640	-0.228257
C83	C	0.787003	0.000238	0.519610
C84	C	0.748894	0.076425	0.486684
C85	C	0.662087	0.076629	0.527309
H86	H	0.760900	-0.051335	0.497383
H87	H	0.780074	0.000285	0.591738
H88	H	0.755817	0.076370	0.414571
H89	H	0.774972	0.128010	0.508910
H90	H	0.655158	0.076676	0.599437
H91	H	0.635992	0.025053	0.505078
H92	H	0.636221	0.128325	0.504982
C93	C	0.853267	-0.435465	-0.096377
C94	C	0.854336	-0.342263	-0.096586
C95	C	0.770795	-0.310173	-0.076103
H96	H	0.822617	-0.456152	-0.147067
H97	H	0.826526	-0.456222	-0.031636
H98	H	0.881065	-0.321514	-0.161318
H99	H	0.884970	-0.321552	-0.045896
H100	H	0.744054	-0.330930	-0.011362
H101	H	0.740151	-0.330866	-0.126796
H102	H	0.771510	-0.246933	-0.076233
C103	C	0.559807	0.000102	0.065253
C104	C	0.648003	-0.000646	0.062217
C105	C	0.665798	-0.000649	0.161535
H106	H	0.536350	0.051981	0.099799
H107	H	0.535520	-0.051288	0.100135
H108	H	0.672280	0.050739	0.027350
H109	H	0.671481	-0.052522	0.027691
H110	H	0.641511	-0.052038	0.196416
H111	H	0.642336	0.051232	0.196072
H112	H	0.725639	-0.001164	0.159488
H113	H	0.776092	0.000059	0.338293
C114	C	1.241858	0.000234	0.594227
C115	C	1.231157	0.076418	0.655497
C116	C	1.291751	0.076618	0.720391
H117	H	1.234778	-0.051340	0.635981
H118	H	1.297306	0.000281	0.554927
H119	H	1.175721	0.076363	0.694793
H120	H	1.238244	0.128005	0.613771
H121	H	1.347200	0.076665	0.681091
H122	H	1.284666	0.025040	0.762138
H123	H	1.284504	0.128312	0.761964
H124	H	0.588211	0.134773	-0.228252
H125	H	1.090987	0.000041	0.190670
H126	H	0.920584	0.000064	0.626246
