data_functionalizedCrystal
_audit_creation_method	'MofGen! by Chris Wilmer'
_symmetry_space_group_name_H-M	'P1'
_symmetry_Int_Tables_number	1
_symmetry_cell_setting	triclinic
loop_
_symmetry_equiv_pos_as_xyz
  x,y,z
_cell_length_a	15.538191
_cell_length_b	19.188930
_cell_length_c	14.185569
_cell_angle_alpha	76.885558
_cell_angle_beta	97.875798
_cell_angle_gamma	65.208438
loop_
_atom_site_label
_atom_site_type_symbol
_atom_site_fract_x
_atom_site_fract_y
_atom_site_fract_z
O1	O	1.229395	-0.205739	-0.083403
O2	O	1.729395	0.294261	0.416597
O3	O	0.954801	-0.125034	-0.083413
O4	O	1.454801	0.374966	0.416587
O5	O	1.100027	-0.269037	-0.083388
O6	O	1.600027	0.230963	0.416612
O7	O	1.084169	-0.061735	-0.083427
O8	O	1.584169	0.438265	0.416573
O9	O	1.142929	-0.311574	0.083454
O10	O	1.642929	0.188426	0.583454
O11	O	0.997702	-0.167570	0.083429
O12	O	1.497702	0.332430	0.583429
O13	O	1.272296	-0.248275	0.083439
O14	O	1.772296	0.251725	0.583439
Cu15	Cu	1.138916	-0.211807	0.098668
Cu16	Cu	1.638916	0.288193	0.598668
Cu17	Cu	1.088181	-0.161503	-0.098642
Cu18	Cu	1.588181	0.338497	0.401358
O19	O	1.127070	-0.104272	0.083415
O20	O	1.627070	0.395728	0.583415
C21	C	0.941121	-0.137858	0.000007
C22	C	1.441121	0.362142	0.500007
C23	C	0.836443	-0.112707	0.000004
C24	C	1.336443	0.387293	0.500004
C25	C	0.549690	-0.362580	0.000037
C26	C	1.049690	0.137420	0.500037
C27	C	0.451326	-0.338928	0.000032
C28	C	0.951326	0.161072	0.500032
C29	C	0.428328	-0.205894	0.000006
C30	C	0.928328	0.294106	0.500006
C31	C	0.526694	-0.229535	0.000016
C32	C	1.026694	0.270465	0.500016
C33	C	0.587368	-0.307879	0.000031
C34	C	1.087368	0.192121	0.500031
C35	C	0.564371	-0.174835	0.000010
C36	C	1.064371	0.325165	0.500010
C37	C	0.662727	-0.198474	0.000015
C38	C	1.162727	0.301526	0.500015
C39	C	0.723406	-0.276813	0.000026
C40	C	1.223406	0.223187	0.500026
C41	C	0.685724	-0.331518	0.000035
C42	C	1.185724	0.168482	0.500035
C43	C	0.503694	-0.096489	-0.000011
C44	C	1.003694	0.403511	0.499989
C45	C	0.541372	-0.041789	-0.000017
C46	C	1.041372	0.458211	0.499983
C47	C	0.639731	-0.065429	-0.000005
C48	C	1.139731	0.434571	0.499995
C49	C	0.700410	-0.143769	0.000006
C50	C	1.200410	0.356231	0.500006
C51	C	0.677414	-0.010724	-0.000015
C52	C	1.177414	0.489276	0.499985
C53	C	0.775770	-0.034363	-0.000010
C54	C	1.275770	0.465637	0.499990
C55	C	0.798766	-0.167408	0.000011
C56	C	1.298766	0.332592	0.500011
C57	C	1.120966	-0.316188	0.000036
C58	C	1.620966	0.183812	0.500036
C59	C	1.119427	-0.393308	0.000045
C60	C	1.619427	0.106692	0.500045
C61	C	1.204639	-0.459636	0.000053
C62	C	1.704639	0.040364	0.500053
C63	C	1.203188	-0.532092	0.000037
C64	C	1.703188	-0.032092	0.500037
C65	C	1.116524	-0.538221	0.000033
C66	C	1.616524	-0.038221	0.500033
C67	C	1.031299	-0.471879	0.000019
C68	C	1.531299	0.028121	0.500019
C69	C	1.032751	-0.399423	0.000025
C70	C	1.532751	0.100577	0.500025
N71	N	1.064881	-0.644063	0.056810
N72	N	1.564881	-0.144063	0.556810
N73	N	1.063508	-0.712897	0.056806
N74	N	1.563508	-0.212897	0.556806
C75	C	1.112146	-0.756526	0.000012
C76	C	1.612146	-0.256526	0.500012
N77	N	1.162225	-0.728730	-0.056765
N78	N	1.662225	-0.228730	0.443235
N79	N	1.163601	-0.659893	-0.056757
N80	N	1.663601	-0.159893	0.443243
C81	C	1.114941	-0.616785	0.000025
C82	C	1.614941	-0.116785	0.500025
C83	C	1.195790	-0.901421	0.000001
C84	C	1.695790	-0.401421	0.500001
C85	C	1.194333	-0.973876	-0.000021
C86	C	1.694333	-0.473876	0.499979
C87	C	1.022445	-0.913663	-0.000028
C88	C	1.522445	-0.413663	0.499972
C89	C	1.023901	-0.841208	-0.000016
C90	C	1.523901	-0.341208	0.499984
C91	C	1.110577	-0.835093	0.000003
C92	C	1.610577	-0.335093	0.500003
C93	C	1.285976	-0.235450	0.000017
C94	C	1.785976	0.264550	0.500017
C95	C	1.390652	-0.260600	0.000014
C96	C	1.890652	0.239400	0.500014
C97	C	1.106131	-0.057120	-0.000012
C98	C	1.606131	0.442880	0.499988
C99	C	1.107668	0.020001	-0.000027
C100	C	1.607668	0.520001	0.499973
N101	N	1.174608	-0.247190	0.237446
N102	N	1.674608	0.252810	0.737446
N103	N	1.052497	-0.126126	-0.237419
N104	N	1.552497	0.373874	0.262581
C105	C	0.947635	-0.022200	0.605057
C106	C	1.447635	0.477800	1.105057
C107	C	0.974678	-0.049000	0.710083
C108	C	1.474678	0.451000	1.210083
C109	C	1.103301	-0.176486	0.710066
C110	C	1.603301	0.323514	1.210066
C111	C	1.076267	-0.149699	0.605037
C112	C	1.576267	0.350301	1.105037
C113	C	0.998434	-0.072555	0.552541
C114	C	1.498434	0.427445	1.052541
C115	C	1.127065	-0.200053	0.552522
C116	C	1.627065	0.299947	1.052522
C117	C	1.100036	-0.173266	0.447503
C118	C	1.600036	0.326734	0.947503
C119	C	1.022208	-0.096124	0.394999
C120	C	1.522208	0.403876	0.894999
C121	C	0.971404	-0.045768	0.447522
C122	C	1.471404	0.454232	0.947522
C123	C	1.204902	-0.277194	0.605020
C124	C	1.704902	0.222806	1.105020
C125	C	1.255701	-0.327549	0.552505
C126	C	1.755701	0.172451	1.052505
C127	C	1.228667	-0.300764	0.447484
C128	C	1.728667	0.199236	0.947484
C129	C	1.150839	-0.223623	0.394980
C130	C	1.650839	0.276377	0.894980
C131	C	1.279470	-0.351121	0.394961
C132	C	1.779470	0.148879	0.894961
C133	C	1.252441	-0.324334	0.289942
C134	C	1.752441	0.175666	0.789942
C135	C	1.123810	-0.196836	0.289961
C136	C	1.623810	0.303164	0.789961
H137	H	0.599096	-0.426377	0.000054
H138	H	1.099096	0.073623	0.500054
H139	H	1.293808	-0.365338	0.247183
H140	H	1.793808	0.134662	0.747183
H141	H	0.960737	-0.476873	0.000014
H142	H	1.460737	0.023127	0.500014
H143	H	1.266365	-0.896442	0.000013
H144	H	1.766365	-0.396442	0.500013
H145	H	0.627997	0.053066	-0.000036
H146	H	1.127997	0.553066	0.499964
H147	H	0.884250	0.040615	0.562312
H148	H	1.384250	0.540615	1.062312
H149	H	0.933305	-0.007987	0.752836
H150	H	1.433305	0.492013	1.252836
H151	H	0.963359	-0.345415	0.000019
H152	H	1.463359	0.154585	0.500019
H153	H	0.378914	-0.142105	-0.000009
H154	H	0.878914	0.357895	0.499991
H155	H	1.272579	-0.586105	0.000039
H156	H	1.772579	-0.086105	0.500039
H157	H	1.275217	-0.454664	0.000065
H158	H	1.775217	0.045336	0.500065
H159	H	0.423606	-0.077244	-0.000018
H160	H	0.923606	0.422756	0.499982
H161	H	1.319076	-0.390359	0.595259
H162	H	1.819076	0.109641	1.095259
H163	H	0.951880	-0.918651	-0.000037
H164	H	1.451880	-0.418651	0.499963
H165	H	0.848172	-0.231205	0.000028
H166	H	1.348172	0.268795	0.500028
H167	H	1.263724	-1.027882	-0.000020
H168	H	1.763724	-0.527882	0.499980
H169	H	0.491957	0.022000	-0.000033
H170	H	0.991957	0.522000	0.499967
H171	H	0.954513	-0.787202	-0.000017
H172	H	1.454513	-0.287202	0.499983
H173	H	0.806449	0.010177	-0.000006
H174	H	1.306449	0.510177	0.499994
H175	H	1.060424	-0.134021	0.247216
H176	H	1.560424	0.365979	0.747216
H177	H	1.166676	-0.239296	0.752820
H178	H	1.666676	0.260704	1.252820
H179	H	1.342849	-0.413929	0.437717
H180	H	1.842849	0.086071	0.937717
H181	H	1.000204	-0.074314	0.309486
H182	H	1.500204	0.425686	0.809486
H183	H	1.226910	-0.299000	0.690534
H184	H	1.726910	0.201000	1.190534
H185	H	0.803490	-0.296055	0.000017
H186	H	1.303490	0.203945	0.500017
H187	H	0.908018	0.017047	0.404777
H188	H	1.408018	0.517047	0.904777
H189	H	0.420654	-0.383478	0.000035
H190	H	0.920654	0.116522	0.500035
H191	H	0.735130	-0.395315	0.000053
H192	H	1.235130	0.104685	0.500053
