data_functionalizedCrystal
_audit_creation_method	'MofGen! by Chris Wilmer'
_symmetry_space_group_name_H-M	'P1'
_symmetry_Int_Tables_number	1
_symmetry_cell_setting	triclinic
loop_
_symmetry_equiv_pos_as_xyz
  x,y,z
_cell_length_a	10.489741
_cell_length_b	10.489711
_cell_length_c	14.185569
_cell_angle_alpha	76.713487
_cell_angle_beta	103.293762
_cell_angle_gamma	84.533091
loop_
_atom_site_label
_atom_site_type_symbol
_atom_site_fract_x
_atom_site_fract_y
_atom_site_fract_z
O1	O	1.665386	0.208601	-0.083347
O2	O	1.294183	0.225500	-0.083362
O3	O	1.488250	0.031451	-0.083357
O4	O	1.471319	0.402650	-0.083352
O5	O	1.545579	-0.025866	0.083479
O6	O	1.351512	0.168182	0.083474
O7	O	1.722715	0.151284	0.083489
Cu8	Cu	1.542348	0.154500	0.098715
Cu9	Cu	1.474550	0.222284	-0.098588
O10	O	1.528648	0.345333	0.083484
C11	C	1.275316	0.195566	0.000054
C12	C	1.133685	0.191750	0.000048
C13	C	1.515643	-0.044739	0.000058
C14	C	1.511838	-0.186367	0.000050
C15	C	1.628548	-0.368759	0.000065
C16	C	1.598517	-0.304874	0.082320
C17	C	1.541964	-0.248388	-0.082167
C18	C	1.474999	-0.374850	0.082393
C19	C	1.418438	-0.318348	-0.082169
C20	C	1.388324	-0.254497	0.000107
C21	C	1.065560	0.068281	0.000056
C22	C	0.945162	0.154865	-0.082200
C23	C	1.001718	0.098384	0.082287
C24	C	1.015128	0.278408	-0.082276
C25	C	1.071719	0.221885	0.082286
C26	C	0.951341	0.308565	0.000009
C27	C	1.741582	0.181219	0.000071
C28	C	1.883211	0.185036	0.000070
C29	C	1.501255	0.421523	0.000067
C30	C	1.505058	0.563154	0.000069
N31	N	1.590043	0.106823	0.237487
N32	N	1.426865	0.269951	-0.237360
C33	C	1.286737	0.409969	0.605130
C34	C	1.322874	0.373863	0.710152
C35	C	1.494756	0.202098	0.710118
C36	C	1.458629	0.238185	0.605093
C37	C	1.354619	0.342123	0.552607
C38	C	1.526511	0.170339	0.552571
C39	C	1.490391	0.206428	0.447555
C40	C	1.386389	0.310364	0.395062
C41	C	1.318499	0.378212	0.447592
C42	C	1.630526	0.066408	0.605058
C43	C	1.698409	-0.001438	0.552536
C44	C	1.662283	0.034644	0.447518
C45	C	1.558281	0.138580	0.395025
C46	C	1.730172	-0.033204	0.394989
C47	C	1.694052	0.002886	0.289973
C48	C	1.522161	0.174669	0.290010
H49	H	1.730078	-0.418478	0.000150
F50	F	1.143532	0.258883	0.173189
F51	F	1.698051	-0.295588	0.173217
H52	H	0.901892	0.410185	-0.000034
F53	F	1.438030	-0.446378	0.173392
F54	F	0.992471	-0.001153	0.173185
F55	F	1.411449	0.285281	0.234148
H56	H	1.570343	-0.193537	-0.151706
F57	F	1.318958	-0.327667	-0.173074
F58	F	1.024141	0.377902	-0.173274
F59	F	1.347953	0.348777	0.283294
H60	H	1.115225	-0.033180	-0.000048
H61	H	1.233796	0.462839	0.404856
H62	H	0.890256	0.126516	-0.151744
F63	F	1.176025	0.520581	0.549268
H64	H	1.783098	-0.086062	0.595282
F65	F	1.250615	0.446090	0.766043
F66	F	1.255550	-0.189866	0.000153
H67	H	1.579445	0.117474	0.752863
F68	F	1.668969	0.028010	0.716826
F69	F	1.840875	-0.143807	0.450859
F70	F	1.766306	-0.069323	0.234074
