data_functionalizedCrystal
_audit_creation_method	'MofGen! by Chris Wilmer'
_symmetry_space_group_name_H-M	'P1'
_symmetry_Int_Tables_number	1
_symmetry_cell_setting	triclinic
loop_
_symmetry_equiv_pos_as_xyz
  x,y,z
_cell_length_a	10.967904
_cell_length_b	10.065918
_cell_length_c	10.723024
_cell_angle_alpha	99.739244
_cell_angle_beta	95.410596
_cell_angle_gamma	68.241094
loop_
_atom_site_label
_atom_site_type_symbol
_atom_site_fract_x
_atom_site_fract_y
_atom_site_fract_z
O1	O	-1.733048	0.521111	0.250387
O2	O	-1.357019	0.432670	0.254353
O3	O	-1.553707	0.478925	0.071088
O4	O	-1.536361	0.474856	0.433652
O5	O	-1.519489	0.243888	0.037070
O6	O	-1.322802	0.197633	0.220335
O7	O	-1.698830	0.286074	0.216369
Zn8	Zn	-1.505383	0.204536	0.212951
Zn9	Zn	-1.550467	0.514208	0.257771
O10	O	-1.502143	0.239818	0.399634
C11	C	-1.291762	0.303827	0.234487
C12	C	-1.148295	0.270084	0.225961
N13	N	-1.474624	-0.006805	0.182362
C14	C	-1.102059	0.376796	0.239782
C15	C	-0.953779	0.341924	0.230970
C16	C	-1.539756	-0.059263	0.247128
C17	C	-1.516094	-0.221996	0.223574
C18	C	-0.764086	0.414915	0.236242
C19	C	-0.907549	0.448652	0.244793
C20	C	-1.535335	0.361111	0.007536
C21	C	-1.531559	0.360228	-0.131146
N22	N	-1.581236	0.725551	0.288350
C23	C	-1.641616	0.386115	-0.202385
C24	C	-1.637715	0.385203	-0.345721
C25	C	-1.520514	0.357635	0.463185
C26	C	-1.524292	0.358528	0.601869
H27	H	-1.172250	0.493974	0.258145
C28	C	-0.858949	0.183611	0.206351
H29	H	-0.771720	0.180939	0.203728
H30	H	-0.864184	0.134098	0.272443
H31	H	-0.882422	0.138136	0.127726
H32	H	-1.442813	-0.297555	0.150680
H33	H	-0.977734	0.565838	0.263159
C34	C	-1.680237	-0.172389	0.386820
H35	H	-1.683150	-0.076404	0.389741
H36	H	-1.764904	-0.175811	0.363705
H37	H	-1.653715	-0.201978	0.467774
H38	H	-1.430069	0.336356	-0.336912
C39	C	-1.053461	0.111779	0.201343
H40	H	-0.966232	0.109107	0.198720
H41	H	-1.058696	0.062266	0.267435
H42	H	-1.076935	0.066304	0.122718
H43	H	-1.613041	0.016302	0.320009
C44	C	-1.765001	0.415150	-0.428424
H45	H	-1.745683	0.410621	-0.513910
H46	H	-1.801997	0.344699	-0.423068
H47	H	-1.825848	0.508631	-0.399328
C48	C	-1.772809	0.416966	-0.141439
H49	H	-1.758218	0.413522	-0.053098
H50	H	-1.832507	0.510161	-0.154940
H51	H	-1.808630	0.346223	-0.178673
C52	C	-1.375626	-0.108872	0.083899
H53	H	-1.372702	-0.204859	0.080993
H54	H	-1.402131	-0.079287	0.002949
H55	H	-1.290953	-0.105455	0.107030
C56	C	-1.400364	0.329380	-0.192085
H57	H	-1.331822	0.313269	-0.128801
H58	H	-1.382223	0.245964	-0.254388
H59	H	-1.406100	0.409902	-0.230642
