data_functionalizedCrystal
_audit_creation_method	'MofGen! by Chris Wilmer'
_symmetry_space_group_name_H-M	'P1'
_symmetry_Int_Tables_number	1
_symmetry_cell_setting	triclinic
loop_
_symmetry_equiv_pos_as_xyz
  x,y,z
_cell_length_a	18.101398
_cell_length_b	18.215405
_cell_length_c	18.215398
_cell_angle_alpha	90.024832
_cell_angle_beta	90.008911
_cell_angle_gamma	90.022336
loop_
_atom_site_label
_atom_site_type_symbol
_atom_site_fract_x
_atom_site_fract_y
_atom_site_fract_z
Zn1	Zn	-1.132142	0.293112	-0.415912
Zn2	Zn	-0.632142	0.793112	0.084088
Zn3	Zn	-1.132045	0.416178	-0.292847
Zn4	Zn	-0.632045	0.916178	0.207153
Zn5	Zn	-1.008300	0.293119	-0.292882
Zn6	Zn	-0.508300	0.793119	0.207118
Zn7	Zn	-1.008259	0.416130	-0.415894
Zn8	Zn	-0.508259	0.916130	0.084106
O9	O	-1.070186	0.354635	-0.354384
O10	O	-0.570186	0.854635	0.145616
O11	O	-1.235762	0.309454	-0.399579
O12	O	-0.735762	0.809454	0.100421
O13	O	-1.115606	0.399877	-0.189867
O14	O	-0.615606	0.899877	0.310133
O15	O	-1.024785	0.190134	-0.309224
O16	O	-0.524785	0.690134	0.190776
O17	O	-1.235690	0.399870	-0.309164
O18	O	-0.735690	0.899870	0.190836
O19	O	-1.115771	0.190129	-0.399613
O20	O	-0.615771	0.690129	0.100387
O21	O	-1.024691	0.309466	-0.189893
O22	O	-0.524691	0.809466	0.310107
O23	O	-0.904662	0.309419	-0.309207
O24	O	-0.404662	0.809419	0.190793
O25	O	-1.024716	0.399789	-0.518881
O26	O	-0.524716	0.899789	-0.018881
O27	O	-0.904632	0.399795	-0.399584
O28	O	-0.404632	0.899795	0.100416
O29	O	-1.115732	0.309408	-0.518894
O30	O	-0.615732	0.809408	-0.018894
O31	O	-1.115566	0.519156	-0.309147
O32	O	-0.615566	1.019156	0.190853
O33	O	-1.024622	0.519121	-0.399550
O34	O	-0.524622	1.019121	0.100450
C35	C	-0.877776	0.354603	-0.354398
C36	C	-0.377776	0.854603	0.145602
C37	C	-0.795462	0.354608	-0.354421
C38	C	-0.295462	0.854608	0.145579
C39	C	-0.496371	0.354647	-0.354396
C40	C	0.003629	0.854647	0.145604
C41	C	-0.527702	0.411785	-0.410978
C42	C	-0.027702	0.911785	0.089022
C43	C	-0.613320	0.411607	-0.411209
C44	C	-0.113320	0.911607	0.088791
C45	C	-0.644753	0.354628	-0.354409
C46	C	-0.144753	0.854628	0.145591
C47	C	-0.613694	0.277115	-0.375603
C48	C	-0.113694	0.777115	0.124397
C49	C	-0.528049	0.277457	-0.376007
C50	C	-0.028049	0.777457	0.123993
C51	C	-0.527919	0.374340	-0.276484
C52	C	-0.027919	0.874340	0.223516
C53	C	-0.613569	0.376042	-0.276899
C54	C	-0.113569	0.876042	0.223101
C55	C	-0.728613	0.354613	-0.354414
C56	C	-0.228613	0.854613	0.145586
C57	C	-0.412511	0.354657	-0.354392
C58	C	0.087489	0.854657	0.145608
C59	C	-1.070099	0.545841	-0.354359
C60	C	-0.570099	1.045841	0.145641
C61	C	-1.070130	0.627640	-0.354373
C62	C	-0.570130	1.127640	0.145627
C63	C	-1.070230	0.354593	-0.546337
C64	C	-0.570230	0.854593	-0.046337
C65	C	-1.070249	0.354575	-0.628135
C66	C	-0.570249	0.854575	-0.128135
C67	C	-0.263348	0.354664	-0.354375
C68	C	0.236652	0.854664	0.145625
C69	C	-0.345662	0.354668	-0.354384
C70	C	0.154338	0.854668	0.145616
C71	C	-1.117525	0.892637	-0.401506
C72	C	-0.617525	1.392637	0.098494
C73	C	-1.117507	0.815779	-0.401496
C74	C	-0.617507	1.315779	0.098504
C75	C	-1.022846	0.815891	-0.307288
C76	C	-0.522846	1.315891	0.192712
C77	C	-1.022868	0.892748	-0.307294
C78	C	-0.522868	1.392748	0.192706
C79	C	-1.070206	0.931120	-0.354408
C80	C	-0.570206	1.431120	0.145592
C81	C	-1.070167	0.777404	-0.354391
C82	C	-0.570167	1.277404	0.145609
C83	C	-1.070148	0.694070	-0.354380
C84	C	-0.570148	1.194070	0.145620
C85	C	-1.070226	1.014459	-0.354419
C86	C	-0.570226	1.514459	0.145581
C87	C	-1.070270	1.162682	-0.354421
C88	C	-0.570270	1.662682	0.145579
C89	C	-1.070243	1.080883	-0.354426
C90	C	-0.570243	1.580883	0.145574
C91	C	-1.117622	0.401561	-0.893184
C92	C	-0.617622	0.901561	-0.393184
C93	C	-1.117611	0.401586	-0.816325
C94	C	-0.617611	0.901586	-0.316325
C95	C	-1.022932	0.307446	-0.816335
C96	C	-0.522932	0.807446	-0.316335
C97	C	-1.022940	0.307425	-0.893193
C98	C	-0.522940	0.807425	-0.393193
C99	C	-1.070289	0.354481	-0.931615
C100	C	-0.570289	0.854481	-0.431615
C101	C	-1.070270	0.354528	-0.777899
C102	C	-0.570270	0.854528	-0.277899
C103	C	-1.070257	0.354555	-0.694565
C104	C	-0.570257	0.854555	-0.194565
C105	C	-1.070301	0.354455	-1.014954
C106	C	-0.570301	0.854455	-0.514954
C107	C	-1.070185	0.354624	-0.163177
C108	C	-0.570185	0.854624	0.336823
C109	C	-1.070310	0.354435	-0.081379
C110	C	-0.570310	0.854435	0.418621
H111	H	-0.507090	0.469452	-0.397844
H112	H	-0.007090	0.969452	0.102156
H113	H	-0.634055	0.233390	-0.335676
H114	H	-0.134055	0.733390	0.164324
Br115	Br	-0.494149	0.304975	-0.206216
Br116	Br	0.005851	0.804975	0.293784
Br117	Br	-0.958692	0.243571	-0.764186
Br118	Br	-0.458692	0.743571	-0.264186
Br119	Br	-0.958683	0.243541	-0.945354
Br120	Br	-0.458683	0.743541	-0.445354
H121	H	-0.984303	0.784642	-0.268930
H122	H	-0.484303	1.284642	0.231070
Br123	Br	-0.648323	0.507419	-0.389102
Br124	Br	-0.148323	1.007419	0.110898
Br125	Br	-0.958650	0.944979	-0.243365
Br126	Br	-0.458650	1.444979	0.256635
H127	H	-1.156176	0.439878	-0.924465
H128	H	-0.656176	0.939878	-0.424465
H129	H	-1.156067	0.923877	-0.439872
H130	H	-0.656067	1.423877	0.060128
H131	H	-0.506191	0.398921	-0.468372
H132	H	-0.006191	0.898921	0.031628
Br133	Br	-0.647498	0.389892	-0.507425
Br134	Br	-0.147498	0.889892	-0.007425
Br135	Br	-1.181848	0.465486	-0.764171
Br136	Br	-0.681848	0.965486	-0.264171
H137	H	-1.156039	0.784449	-0.439847
H138	H	-0.656039	1.284449	0.060153
H139	H	-0.508087	0.260753	-0.432964
H140	H	-0.008087	0.760753	0.067036
H141	H	-0.635158	0.260110	-0.431940
H142	H	-0.135158	0.760110	0.068060
Br143	Br	-0.493501	0.204099	-0.310317
Br144	Br	0.006499	0.704099	0.189683
Br145	Br	-0.491887	0.466928	-0.244374
Br146	Br	0.008113	0.966928	0.255626
H147	H	-0.633877	0.433080	-0.260914
H148	H	-0.133877	0.933080	0.239086
Br149	Br	-0.649226	0.311713	-0.202855
Br150	Br	-0.149226	0.811713	0.297145
