data_functionalizedCrystal
_audit_creation_method	'MofGen! by Chris Wilmer'
_symmetry_space_group_name_H-M	'P1'
_symmetry_Int_Tables_number	1
_symmetry_cell_setting	triclinic
loop_
_symmetry_equiv_pos_as_xyz
  x,y,z
_cell_length_a	13.033291
_cell_length_b	25.639239
_cell_length_c	13.032268
_cell_angle_alpha	82.858909
_cell_angle_beta	90.920764
_cell_angle_gamma	97.208341
loop_
_atom_site_label
_atom_site_type_symbol
_atom_site_fract_x
_atom_site_fract_y
_atom_site_fract_z
Zn1	Zn	1.498345	-0.162668	0.781439
Zn2	Zn	1.998345	0.337332	1.281439
Zn3	Zn	1.520033	-0.237806	0.609447
Zn4	Zn	2.020033	0.262194	1.109447
Zn5	Zn	1.348207	-0.159907	0.587616
Zn6	Zn	1.848207	0.340093	1.087616
Zn7	Zn	1.326268	-0.259603	0.759482
Zn8	Zn	1.826268	0.240397	1.259482
O9	O	1.423214	-0.204996	0.684496
O10	O	1.923214	0.295004	1.184496
O11	O	1.645147	-0.164669	0.776950
O12	O	2.145147	0.335331	1.276950
O13	O	1.515499	-0.217195	0.462645
O14	O	2.015499	0.282805	0.962645
O15	O	1.368228	-0.087105	0.613380
O16	O	1.868228	0.412895	1.113380
O17	O	1.661081	-0.219872	0.650588
O18	O	2.161081	0.280128	1.150588
O19	O	1.478534	-0.089133	0.755781
O20	O	1.978534	0.410867	1.255781
O21	O	1.389259	-0.159963	0.446606
O22	O	1.889259	0.340037	0.946606
O23	O	1.201372	-0.181098	0.592089
O24	O	1.701372	0.318902	1.092089
O25	O	1.330837	-0.257021	0.906300
O26	O	1.830837	0.242979	1.406300
O27	O	1.185254	-0.254344	0.718358
O28	O	1.685254	0.245656	1.218358
O29	O	1.457260	-0.185804	0.922432
O30	O	1.957260	0.314196	1.422432
O31	O	1.494225	-0.313866	0.629297
O32	O	1.994225	0.186134	1.129297
O33	O	1.351867	-0.329880	0.739527
O34	O	1.851867	0.170120	1.239527
C35	C	1.155995	-0.219787	0.650472
C36	C	1.655995	0.280213	1.150472
C37	C	1.041675	-0.226129	0.635941
C38	C	1.541675	0.273871	1.135941
C39	C	1.423044	-0.340845	0.684424
C40	C	1.923044	0.159155	1.184424
C41	C	1.423061	-0.398959	0.684440
C42	C	1.923061	0.101041	1.184440
C43	C	0.864656	-0.208250	0.677070
C44	C	1.364656	0.291750	1.177070
C45	C	0.982813	-0.201696	0.692088
C46	C	1.482813	0.298304	1.192088
C47	C	1.349078	-0.658496	0.741870
C48	C	1.849078	-0.158496	1.241870
C49	C	1.349041	-0.603893	0.741853
C50	C	1.849041	-0.103893	1.241853
O51	O	1.285973	-0.582758	0.790627
O52	O	1.785973	-0.082758	1.290627
N53	N	1.423184	-0.568229	0.684510
N54	N	1.923184	-0.068229	1.184510
C55	C	1.497374	-0.587171	0.627187
C56	C	1.997374	-0.087171	1.127187
O57	O	1.560436	-0.551822	0.578411
O58	O	2.060436	-0.051822	1.078411
C59	C	1.497415	-0.641773	0.627211
C60	C	1.997415	-0.141773	1.127211
C61	C	1.423261	-0.677434	0.684550
C62	C	1.923261	-0.177434	1.184550
C63	C	1.274930	-0.694157	0.799206
C64	C	1.774930	-0.194157	1.299206
C65	C	1.274966	-0.748756	0.799221
C66	C	1.774966	-0.248756	1.299221
C67	C	1.349149	-0.767694	0.741900
C68	C	1.849149	-0.267694	1.241900
C69	C	1.423296	-0.732034	0.684565
C70	C	1.923296	-0.232034	1.184565
C71	C	1.571609	-0.660714	0.569895
C72	C	2.071609	-0.160714	1.069895
C73	C	1.571643	-0.715321	0.569924
C74	C	2.071643	-0.215321	1.069924
C75	C	1.497489	-0.750982	0.627263
C76	C	1.997489	-0.250982	1.127263
C77	C	1.497515	-0.805571	0.627260
C78	C	1.997515	-0.305571	1.127260
N79	N	1.423372	-0.841235	0.684603
N80	N	1.923372	-0.341235	1.184603
C81	C	1.349189	-0.822297	0.741924
C82	C	1.849189	-0.322297	1.241924
C83	C	1.497285	-0.472503	0.627144
C84	C	1.997285	0.027497	1.127144
C85	C	1.497241	-0.417902	0.627115
C86	C	1.997241	0.082098	1.127115
C87	C	1.348909	-0.434628	0.741782
C88	C	1.848909	0.065372	1.241782
C89	C	1.348949	-0.489230	0.741806
C90	C	1.848949	0.010770	1.241806
C91	C	1.423143	-0.508167	0.684488
C92	C	1.923143	-0.008167	1.184488
C93	C	1.349269	-0.936958	0.741950
C94	C	1.849269	-0.436958	1.241950
C95	C	1.349309	-0.991562	0.741957
C96	C	1.849309	-0.491562	1.241957
C97	C	1.497644	-0.974831	0.627294
C98	C	1.997644	-0.474831	1.127294
C99	C	1.497602	-0.920232	0.627282
C100	C	1.997602	-0.420232	1.127282
C101	C	1.423410	-0.901298	0.684619
C102	C	1.923410	-0.401298	1.184619
O103	O	1.560553	-0.826745	0.578514
O104	O	2.060553	-0.326745	1.078514
O105	O	1.286147	-0.857651	0.790702
O106	O	1.786147	-0.357651	1.290702
C107	C	1.691475	-0.190147	0.718654
C108	C	2.191475	0.309853	1.218654
C109	C	1.805792	-0.183820	0.733209
C110	C	2.305792	0.316180	1.233209
C111	C	1.389182	-0.224152	0.952723
C112	C	1.889182	0.275848	1.452723
C113	C	1.374680	-0.232315	1.067025
C114	C	1.874680	0.267685	1.567025
C115	C	1.423409	-0.068617	0.684594
C116	C	1.923409	0.431383	1.184594
C117	C	1.423492	-0.010500	0.684636
C118	C	1.923492	0.489500	1.184636
C119	C	1.457172	-0.185873	0.417320
C120	C	1.957172	0.314127	0.917320
C121	C	1.471873	-0.177552	0.303044
C122	C	1.971873	0.322448	0.803044
C123	C	1.430766	-0.200718	1.125967
C124	C	1.930766	0.299282	1.625967
C125	C	1.415779	-0.209154	1.244104
C126	C	1.915779	0.290846	1.744104
H127	H	0.827578	-0.234015	0.617884
H128	H	1.327578	0.265985	1.117884
F129	F	1.549156	-0.134031	1.254698
F130	F	2.049156	0.365969	1.754698
H131	H	1.557702	-0.487917	0.580461
H132	H	2.057702	0.012083	1.080461
F133	F	1.031268	-0.168010	0.769443
F134	F	1.531268	0.331990	1.269443
H135	H	1.004602	-0.251899	0.576755
H136	H	1.504602	0.248101	1.076755
F137	F	0.854252	-0.150136	0.810560
F138	F	1.354252	0.349864	1.310560
H139	H	1.315560	-0.265610	1.104023
H140	H	1.815560	0.234390	1.604023
F141	F	1.270306	-0.916815	0.802973
F142	F	1.770306	-0.416815	1.302973
H143	H	1.288921	-1.020596	0.788651
H144	H	1.788921	-0.520596	1.288651
F145	F	1.196051	-0.786704	0.860263
F146	F	1.696051	-0.286704	1.360263
F147	F	1.650543	-0.622772	0.508876
F148	F	2.150543	-0.122772	1.008876
F149	F	1.195969	-0.674011	0.860221
F150	F	1.695969	-0.174011	1.360221
H151	H	1.288506	-0.419199	0.788457
H152	H	1.788506	0.080801	1.288457
F153	F	1.270026	-0.527179	0.802834
F154	F	1.770026	-0.027179	1.302834
H155	H	1.557614	-0.388869	0.580411
H156	H	2.057614	0.111131	1.080411
H157	H	1.356655	-0.242451	1.281098
H158	H	1.856655	0.257549	1.781098
H159	H	1.632065	-0.730735	0.523252
H160	H	2.132065	-0.230735	1.023252
F161	F	1.576593	-0.994997	0.566296
F162	F	2.076593	-0.494997	1.066296
F163	F	1.576508	-0.882277	0.566235
F164	F	2.076508	-0.382277	1.066235
H165	H	1.489876	-0.167419	1.088967
H166	H	1.989876	0.332581	1.588967
