data_functionalizedCrystal
_audit_creation_method	'MofGen! by Chris Wilmer'
_symmetry_space_group_name_H-M	'P1'
_symmetry_Int_Tables_number	1
_symmetry_cell_setting	triclinic
loop_
_symmetry_equiv_pos_as_xyz
  x,y,z
_cell_length_a	8.634740
_cell_length_b	8.559649
_cell_length_c	16.053810
_cell_angle_alpha	92.217761
_cell_angle_beta	87.031001
_cell_angle_gamma	85.174486
loop_
_atom_site_label
_atom_site_type_symbol
_atom_site_fract_x
_atom_site_fract_y
_atom_site_fract_z
O1	O	1.992619	0.505978	-0.069424
O2	O	1.548748	0.463076	-0.069425
O3	O	1.809788	0.257946	-0.069424
O4	O	1.731578	0.711108	-0.069426
O5	O	1.795473	0.269240	0.069435
O6	O	1.534432	0.474370	0.069433
O7	O	1.978303	0.517273	0.069435
Zn8	Zn	1.754095	0.497615	0.091481
Zn9	Zn	1.772956	0.482734	-0.091471
O10	O	1.717262	0.722403	0.069433
C11	C	1.485291	0.459004	0.000004
C12	C	1.317539	0.430026	0.000003
C13	C	1.808558	0.204975	0.000004
C14	C	1.826201	0.030311	-0.000000
C15	C	2.041760	0.521344	0.000004
C16	C	2.209512	0.550322	-0.000001
C17	C	1.718493	0.775373	0.000004
C18	C	1.700850	0.950037	0.000003
N19	N	1.741233	0.507772	0.216341
N20	N	1.785831	0.472566	-0.216331
C21	C	1.674737	0.559821	0.739973
C22	C	1.683763	0.552751	0.652566
C23	C	1.803891	0.458434	0.608857
C24	C	1.914990	0.371169	0.652559
C25	C	1.905957	0.378231	0.739964
C26	C	1.843299	0.427569	0.347448
C27	C	1.852327	0.420517	0.260037
C28	C	1.621097	0.602098	0.260050
C29	C	1.612079	0.609159	0.347457
C30	C	1.723174	0.521888	0.391151
N31	N	1.813122	0.451209	0.519513
N32	N	1.713935	0.529105	0.480493
H33	H	1.580036	0.014934	0.000005
H34	H	1.947023	-0.034593	0.000007
Cl35	Cl	1.262195	0.236772	0.000006
H36	H	1.593301	0.623799	0.616989
H37	H	1.996419	0.307177	0.775540
Cl38	Cl	1.982963	0.317867	0.402372
H39	H	1.576922	0.636631	0.775555
H40	H	1.514262	0.685959	0.383043
H41	H	1.245360	0.675483	0.000006
H42	H	1.530647	0.673148	0.224466
H43	H	1.950157	0.343709	0.224453
H44	H	2.012797	0.294365	0.616966
