data_functionalizedCrystal
_audit_creation_method	'MofGen! by Chris Wilmer'
_symmetry_space_group_name_H-M	'P1'
_symmetry_Int_Tables_number	1
_symmetry_cell_setting	triclinic
loop_
_symmetry_equiv_pos_as_xyz
  x,y,z
_cell_length_a	21.395362
_cell_length_b	18.050589
_cell_length_c	21.395355
_cell_angle_alpha	89.987098
_cell_angle_beta	89.956060
_cell_angle_gamma	90.044101
loop_
_atom_site_label
_atom_site_type_symbol
_atom_site_fract_x
_atom_site_fract_y
_atom_site_fract_z
Zn1	Zn	0.957870	-0.295431	-0.354610
Zn2	Zn	1.457870	0.204569	0.145390
Zn3	Zn	0.957777	-0.419603	-0.249843
Zn4	Zn	1.457777	0.080397	0.250157
Zn5	Zn	0.853085	-0.295465	-0.249811
Zn6	Zn	1.353085	0.204535	0.250189
Zn7	Zn	0.853059	-0.419618	-0.354548
Zn8	Zn	1.353059	0.080382	0.145452
O9	O	0.905448	-0.357529	-0.302203
O10	O	1.405448	0.142471	0.197797
O11	O	1.045536	-0.311882	-0.340752
O12	O	1.545536	0.188118	0.159248
O13	O	0.943862	-0.403144	-0.162161
O14	O	1.443862	0.096856	0.337839
O15	O	0.867035	-0.191536	-0.263726
O16	O	1.367035	0.308464	0.236274
O17	O	1.045468	-0.403110	-0.263780
O18	O	1.545468	0.096890	0.236220
O19	O	0.944020	-0.191511	-0.340721
O20	O	1.444020	0.308489	0.159279
O21	O	0.866945	-0.311940	-0.162138
O22	O	1.366945	0.188060	0.337862
O23	O	0.765404	-0.311955	-0.263665
O24	O	1.265404	0.188045	0.236335
O25	O	0.866990	-0.403136	-0.442234
O26	O	1.366990	0.096864	0.057766
O27	O	0.765385	-0.403170	-0.340615
O28	O	1.265385	0.096830	0.159385
O29	O	0.943995	-0.311896	-0.442280
O30	O	1.443995	0.188104	0.057720
O31	O	0.943836	-0.523529	-0.263719
O32	O	1.443836	-0.023529	0.236281
O33	O	0.866900	-0.523540	-0.340645
O34	O	1.366900	-0.023540	0.159355
C35	C	0.742660	-0.357568	-0.302130
C36	C	1.242660	0.142432	0.197870
C37	C	0.673019	-0.357603	-0.302114
C38	C	1.173019	0.142397	0.197886
C39	C	0.640312	-0.405161	-0.342121
C40	C	1.140312	0.094839	0.157879
C41	C	0.574877	-0.405143	-0.342149
C42	C	1.074877	0.094857	0.157851
C43	C	0.542151	-0.357574	-0.302159
C44	C	1.042151	0.142426	0.197841
C45	C	0.574865	-0.310007	-0.262148
C46	C	1.074865	0.189993	0.237852
C47	C	0.640300	-0.310021	-0.262126
C48	C	1.140300	0.189979	0.237874
C49	C	0.438426	-0.351592	-0.245753
C50	C	0.938426	0.148408	0.254247
C51	C	0.372993	-0.351583	-0.245774
C52	C	0.872993	0.148417	0.254226
C53	C	0.340330	-0.357526	-0.302228
C54	C	0.840330	0.142474	0.197772
C55	C	0.373108	-0.363494	-0.358662
C56	C	0.873108	0.136506	0.141338
C57	C	0.438542	-0.363508	-0.358640
C58	C	0.938542	0.136492	0.141360
C59	C	0.471198	-0.357553	-0.302179
C60	C	0.971198	0.142447	0.197821
C61	C	0.236671	-0.405067	-0.342269
C62	C	0.736671	0.094933	0.157731
C63	C	0.171234	-0.405044	-0.342298
C64	C	0.671234	0.094956	0.157702
C65	C	0.171224	-0.309911	-0.262291
C66	C	0.671224	0.190089	0.237709
C67	C	0.236659	-0.309931	-0.262268
C68	C	0.736659	0.190069	0.237732
C69	C	0.269379	-0.357513	-0.302256
C70	C	0.769379	0.142487	0.197744
C71	C	0.905372	-0.550481	-0.302192
C72	C	1.405372	-0.050481	0.197808
C73	C	0.905397	-0.633027	-0.302209
C74	C	1.405397	-0.133027	0.197791
C75	C	0.863601	-0.832511	-0.344027
C76	C	1.363601	-0.332511	0.155973
C77	C	0.848322	-0.881943	-0.286848
C78	C	1.348322	-0.381943	0.213152
C79	C	0.905459	-0.784157	-0.302217
C80	C	1.405459	-0.284157	0.197783
C81	C	0.920768	-0.881806	-0.359402
C82	C	1.420768	-0.381806	0.140598
C83	C	0.905517	-0.930142	-0.302230
C84	C	1.405517	-0.430142	0.197770
C85	C	0.890151	-0.832503	-0.245009
C86	C	1.390151	-0.332503	0.254991
C87	C	0.962623	-0.832361	-0.317601
C88	C	1.462623	-0.332361	0.182399
C89	C	0.947366	-0.881772	-0.260383
C90	C	1.447366	-0.381772	0.239617
C91	C	0.905424	-0.700059	-0.302211
C92	C	1.405424	-0.200059	0.197789
C93	C	0.905552	-1.014239	-0.302230
C94	C	1.405552	-0.514239	0.197770
C95	C	1.068871	-0.357490	-0.302276
C96	C	1.568871	0.142510	0.197724
C97	C	1.138513	-0.357474	-0.302307
C98	C	1.638513	0.142526	0.197693
C99	C	0.905500	-0.357514	-0.465626
C100	C	1.405500	0.142486	0.034374
C101	C	0.905522	-0.357508	-0.535268
C102	C	1.405522	0.142492	-0.035268
C103	C	0.905541	-0.163823	-0.302227
C104	C	1.405541	0.336177	0.197773
C105	C	0.905581	-0.081278	-0.302237
C106	C	1.405581	0.418722	0.197763
C107	C	0.945617	-0.309997	-0.568006
C108	C	1.445617	0.190003	-0.068006
C109	C	0.945616	-0.309965	-0.633441
C110	C	1.445616	0.190035	-0.133441
C111	C	0.905527	-0.357457	-0.666136
C112	C	1.405527	0.142543	-0.166136
C113	C	0.865425	-0.404971	-0.633390
C114	C	1.365425	0.095029	-0.133390
C115	C	0.865422	-0.404996	-0.567956
C116	C	1.365422	0.095004	-0.067956
C117	C	0.900554	-0.424328	-0.769805
C118	C	1.400554	0.075672	-0.269805
C119	C	0.900560	-0.424304	-0.835238
C120	C	1.400560	0.075696	-0.335238
C121	C	0.905531	-0.357379	-0.867957
C122	C	1.405531	0.142621	-0.367957
C123	C	0.910508	-0.290475	-0.835234
C124	C	1.410508	0.209525	-0.335234
C125	C	0.910505	-0.290501	-0.769800
C126	C	1.410505	0.209499	-0.269800
C127	C	0.905525	-0.357435	-0.737088
C128	C	1.405525	0.142565	-0.237088
C129	C	0.945627	-0.309829	-0.971647
C130	C	1.445627	0.190171	-0.471647
C131	C	0.945621	-0.309796	-1.037084
C132	C	1.445621	0.190204	-0.537084
C133	C	0.865434	-0.404809	-1.037032
C134	C	1.365434	0.095191	-0.537032
C135	C	0.865436	-0.404835	-0.971596
C136	C	1.365436	0.095165	-0.471596
C137	C	0.905535	-0.357347	-0.938908
C138	C	1.405535	0.142653	-0.438908
C139	C	0.905432	-0.357490	-0.139415
C140	C	1.405432	0.142510	0.360585
C141	C	0.905531	-0.357288	-0.069774
C142	C	1.405531	0.142712	0.430226
H143	H	0.666929	-0.271291	-0.229547
H144	H	1.166929	0.228709	0.270453
C145	C	0.821336	-0.457103	-0.935583
C146	C	1.321336	0.042897	-0.435583
H147	H	0.797463	-0.485387	-0.964425
H148	H	1.297463	0.014613	-0.464425
H149	H	0.794050	-0.428711	-0.910034
H150	H	1.294050	0.071289	-0.410034
H151	H	0.845291	-0.489469	-0.910078
H152	H	1.345291	0.010531	-0.410078
C153	C	0.135233	-0.257577	-0.218310
C154	C	0.635233	0.242423	0.281690
H155	H	0.091578	-0.264379	-0.224053
H156	H	0.591578	0.235621	0.275947
H157	H	0.146012	-0.207701	-0.227553
H158	H	0.646012	0.292299	0.272447
H159	H	0.145897	-0.268372	-0.176188
H160	H	0.645897	0.231628	0.323812
H161	H	0.982789	-0.903266	-0.224991
H162	H	1.482789	-0.403266	0.275009
C163	C	1.027887	-0.802944	-0.335186
C164	C	1.527887	-0.302944	0.164814
H165	H	1.038686	-0.819802	-0.375843
H166	H	1.538686	-0.319802	0.124157
H167	H	1.057730	-0.820562	-0.305897
H168	H	1.557730	-0.320562	0.194103
H169	H	1.027506	-0.750320	-0.334681
H170	H	1.527506	-0.250320	0.165319
C171	C	0.989728	-0.257532	-1.073096
C172	C	1.489728	0.242468	-0.573096
H173	H	1.013612	-0.229261	-1.044254
H174	H	1.513612	0.270739	-0.544254
H175	H	0.965781	-0.225166	-1.098601
H176	H	1.465781	0.274834	-0.598601
H177	H	1.017014	-0.285933	-1.098645
H178	H	1.517014	0.214067	-0.598645
C179	C	0.895094	-0.497891	-0.871230
C180	C	1.395094	0.002109	-0.371230
H181	H	0.895817	-0.488293	-0.914886
H182	H	1.395817	0.011707	-0.414886
H183	H	0.856939	-0.521653	-0.860485
H184	H	1.356939	-0.021653	-0.360485
H185	H	0.929166	-0.529124	-0.860530
H186	H	1.429166	-0.029124	-0.360530
C187	C	0.336940	-0.345071	-0.183698
C188	C	0.836940	0.154929	0.316302
H189	H	0.293292	-0.345938	-0.191794
H190	H	0.793292	0.154062	0.308206
H191	H	0.347660	-0.299837	-0.163699
H192	H	0.847660	0.200163	0.336301
H193	H	0.347620	-0.385447	-0.157306
H194	H	0.847620	0.114553	0.342694
C195	C	0.821328	-0.457212	-0.669349
C196	C	1.321328	0.042788	-0.169349
H197	H	0.797444	-0.485509	-0.640477
H198	H	1.297444	0.014491	-0.140477
H199	H	0.845280	-0.489556	-0.694894
H200	H	1.345280	0.010444	-0.194894
H201	H	0.794041	-0.428795	-0.694852
H202	H	1.294041	0.071205	-0.194852
H203	H	0.933693	-0.903463	-0.407758
H204	H	1.433693	-0.403463	0.092242
H205	H	0.877170	-0.810935	-0.196640
H206	H	1.377170	-0.310935	0.303360
H207	H	0.978268	-0.271327	-0.541395
H208	H	1.478268	0.228673	-0.041395
H209	H	0.978264	-0.271272	-0.660102
H210	H	1.478264	0.228728	-0.160102
H211	H	0.828150	-0.810879	-0.379334
H212	H	1.328150	-0.310879	0.120666
C213	C	0.337191	-0.370025	-0.420767
C214	C	0.837191	0.129975	0.079233
H215	H	0.366084	-0.373584	-0.454370
H216	H	0.866084	0.126416	0.045630
H217	H	0.311710	-0.327464	-0.426342
H218	H	0.811710	0.172536	0.073658
H219	H	0.311627	-0.413068	-0.419903
H220	H	0.811627	0.086932	0.080097
H221	H	0.465014	-0.346749	-0.199778
H222	H	0.965014	0.153251	0.300222
C223	C	0.989728	-0.257591	-0.935685
C224	C	1.489728	0.242409	-0.435685
H225	H	0.983990	-0.264418	-0.892025
H226	H	1.483990	0.235582	-0.392025
H227	H	0.980583	-0.207690	-0.946395
H228	H	1.480583	0.292310	-0.446395
H229	H	1.031822	-0.268450	-0.946443
H230	H	1.531822	0.231550	-0.446443
H231	H	0.548216	-0.271275	-0.229589
H232	H	1.048216	0.228725	0.270411
H233	H	0.800008	-0.903738	-0.273849
H234	H	1.300008	-0.403738	0.226151
H235	H	0.914556	-0.236026	-0.743160
H236	H	1.414556	0.263974	-0.243160
H237	H	0.914556	-0.235979	-0.861872
H238	H	1.414556	0.264021	-0.361872
C239	C	0.821341	-0.457054	-1.072988
C240	C	1.321341	0.042946	-0.572988
H241	H	0.827088	-0.450239	-1.116648
H242	H	1.327088	0.049761	-0.616648
H243	H	0.779247	-0.446206	-1.062234
H244	H	1.279247	0.053794	-0.562234
H245	H	0.830495	-0.506955	-1.062274
H246	H	1.330495	-0.006955	-0.562274
C247	C	0.895086	-0.497948	-0.733818
C248	C	1.395086	0.002052	-0.233818
H249	H	0.895791	-0.488382	-0.690162
H250	H	1.395791	0.011618	-0.190162
H251	H	0.929154	-0.529175	-0.744569
H252	H	1.429154	-0.029175	-0.244569
H253	H	0.856927	-0.521699	-0.744516
H254	H	1.356927	-0.021699	-0.244516
C255	C	0.821325	-0.457270	-0.531942
C256	C	1.321325	0.042730	-0.031942
H257	H	0.797452	-0.485556	-0.560784
H258	H	1.297452	0.014444	-0.060784
H259	H	0.794039	-0.428886	-0.506388
H260	H	1.294039	0.071114	-0.006388
H261	H	0.845287	-0.489635	-0.506443
H262	H	1.345287	0.010365	-0.006443
C263	C	0.676303	-0.457512	-0.386093
C264	C	1.176303	0.042488	0.113907
H265	H	0.719958	-0.450721	-0.380343
H266	H	1.219958	0.049279	0.119657
H267	H	0.665642	-0.446736	-0.428215
H268	H	1.165642	0.053264	0.071785
H269	H	0.665520	-0.507387	-0.376833
H270	H	1.165520	-0.007387	0.123167
H271	H	0.548242	-0.443870	-0.374731
H272	H	1.048242	0.056130	0.125269
H273	H	0.263312	-0.443807	-0.374833
H274	H	0.763312	0.056193	0.125167
C275	C	0.474599	-0.370070	-0.420710
C276	C	0.974599	0.129930	0.079290
H277	H	0.518246	-0.369233	-0.412608
H278	H	1.018246	0.130767	0.087392
H279	H	0.463940	-0.329716	-0.447129
H280	H	0.963940	0.170284	0.052871
H281	H	0.463862	-0.415320	-0.440680
H282	H	0.963862	0.084680	0.059320
C283	C	0.135256	-0.457371	-0.386300
C284	C	0.635256	0.042629	0.113700
H285	H	0.164117	-0.485717	-0.410103
H286	H	0.664117	0.014283	0.089897
H287	H	0.109780	-0.429018	-0.413655
H288	H	0.609780	0.070982	0.086345
H289	H	0.109682	-0.489677	-0.362280
H290	H	0.609682	0.010323	0.137720
H291	H	0.263290	-0.271208	-0.229686
H292	H	0.763290	0.228792	0.270314
