data_functionalizedCrystal
_audit_creation_method	'MofGen! by Chris Wilmer'
_symmetry_space_group_name_H-M	'P1'
_symmetry_Int_Tables_number	1
_symmetry_cell_setting	triclinic
loop_
_symmetry_equiv_pos_as_xyz
  x,y,z
_cell_length_a	19.188930
_cell_length_b	13.101032
_cell_length_c	14.044220
_cell_angle_alpha	93.665102
_cell_angle_beta	88.166828
_cell_angle_gamma	86.634999
loop_
_atom_site_label
_atom_site_type_symbol
_atom_site_fract_x
_atom_site_fract_y
_atom_site_fract_z
O1	O	0.937312	-0.085551	0.113044
O2	O	1.270646	0.247782	0.446378
O3	O	1.603979	0.581116	0.779711
O4	O	0.735026	-0.085481	0.128975
O5	O	1.068359	0.247852	0.462308
O6	O	1.401693	0.581185	0.795642
O7	O	0.833132	-0.085505	-0.016962
O8	O	1.166466	0.247828	0.316372
O9	O	1.499799	0.581162	0.649705
O10	O	0.839206	-0.085527	0.258981
O11	O	1.172539	0.247806	0.592314
O12	O	1.505872	0.581139	0.925648
O13	O	0.826084	0.084927	-0.006480
O14	O	1.159418	0.418260	0.326854
O15	O	1.492751	0.751594	0.660187
O16	O	0.727978	0.084951	0.139457
O17	O	1.061311	0.418284	0.472790
O18	O	1.394645	0.751617	0.806124
O19	O	0.930264	0.084881	0.123526
O20	O	1.263598	0.418214	0.456860
O21	O	1.596931	0.751548	0.790193
Zn22	Zn	0.828002	0.111976	0.133156
Zn23	Zn	1.161336	0.445309	0.466489
Zn24	Zn	1.494669	0.778642	0.799822
Zn25	Zn	0.837288	-0.112576	0.119345
Zn26	Zn	1.170621	0.220757	0.452679
Zn27	Zn	1.503955	0.554091	0.786012
O28	O	0.832158	0.084905	0.269463
O29	O	1.165491	0.418238	0.602796
O30	O	1.498825	0.751571	0.936130
C31	C	0.705457	-0.000256	0.133701
C32	C	1.038791	0.333077	0.467034
C33	C	1.372124	0.666410	0.800367
C34	C	0.627852	-0.000229	0.132154
C35	C	0.961185	0.333104	0.465487
C36	C	1.294518	0.666437	0.798821
N37	N	0.821670	0.265226	0.142580
N38	N	1.155003	0.598559	0.475914
N39	N	1.488337	0.931893	0.809247
C40	C	0.826950	-0.000288	-0.047024
C41	C	1.160284	0.333046	0.286309
C42	C	1.493617	0.666379	0.619643
C43	C	0.819021	-0.000284	-0.152217
C44	C	1.152355	0.333050	0.181117
C45	C	1.485688	0.666383	0.514450
C46	C	0.588455	-0.000252	0.217783
C47	C	0.921788	0.333081	0.551116
C48	C	1.255121	0.666414	0.884449
C49	C	0.515537	-0.000263	0.216328
C50	C	0.848871	0.333070	0.549661
C51	C	1.182204	0.666403	0.882994
C52	C	0.482021	-0.000272	0.129238
C53	C	0.815354	0.333061	0.462571
C54	C	1.148688	0.666394	0.795904
C55	C	0.521427	-0.000243	0.043598
C56	C	0.854761	0.333090	0.376931
C57	C	1.188094	0.666423	0.710265
C58	C	0.594343	-0.000222	0.045056
C59	C	0.927676	0.333111	0.378390
C60	C	1.261009	0.666445	0.711723
N61	N	0.372145	-0.058314	0.059099
N62	N	0.705479	0.275020	0.392432
N63	N	1.038812	0.608353	0.725766
N64	N	0.302879	-0.058336	0.057719
N65	N	0.636212	0.274997	0.391053
N66	N	0.969545	0.608331	0.724386
C67	C	0.262331	-0.000335	0.124839
C68	C	0.595665	0.332999	0.458172
C69	C	0.928998	0.666332	0.791505
N70	N	0.293668	0.057678	0.193404
N71	N	0.627001	0.391011	0.526737
N72	N	0.960334	0.724344	0.860070
N73	N	0.362941	0.057696	0.194786
N74	N	0.696274	0.391029	0.528119
N75	N	1.029607	0.724362	0.861452
C76	C	0.402957	-0.000295	0.127647
C77	C	0.736290	0.333039	0.460980
C78	C	1.069624	0.666372	0.794313
C79	C	0.143869	-0.000368	0.208896
C80	C	0.477202	0.332965	0.542229
C81	C	0.810536	0.666299	0.875562
C82	C	0.070950	-0.000373	0.207437
C83	C	0.404283	0.332960	0.540770
C84	C	0.737617	0.666294	0.874104
C85	C	0.076842	-0.000363	0.034705
C86	C	0.410175	0.332970	0.368038
C87	C	0.743509	0.666303	0.701371
C88	C	0.149759	-0.000348	0.036166
C89	C	0.483092	0.332985	0.369499
C90	C	0.816425	0.666319	0.702833
C91	C	0.183268	-0.000355	0.123264
C92	C	0.516601	0.332978	0.456597
C93	C	0.849935	0.666311	0.789931
C94	C	0.959833	-0.000346	0.118800
C95	C	1.293166	0.332987	0.452134
C96	C	1.626500	0.666320	0.785467
C97	C	1.037439	-0.000380	0.120346
C98	C	1.370772	0.332953	0.453680
C99	C	1.704106	0.666287	0.787013
C100	C	0.852234	0.525128	0.097099
C101	C	1.185567	0.858462	0.430432
C102	C	1.518900	1.191795	0.763765
C103	C	0.813061	0.474265	0.155404
C104	C	1.146394	0.807598	0.488737
C105	C	1.479727	1.140932	0.822070
C106	C	0.817852	0.357945	0.148267
C107	C	1.151185	0.691278	0.481600
C108	C	1.484519	1.024612	0.814934
C109	C	0.847443	0.641459	0.104234
C110	C	1.180776	0.974792	0.437567
C111	C	1.514110	1.308125	0.770901
N112	N	0.843622	0.734174	0.109925
N113	N	1.176956	1.067507	0.443258
N114	N	1.510289	1.400840	0.776592
C115	C	0.804526	-0.000293	-0.344819
C116	C	1.137859	0.333040	-0.011485
C117	C	1.471193	0.666373	0.321848
C118	C	0.860762	-0.000316	-0.402686
C119	C	1.194095	0.333017	-0.069353
C120	C	1.527428	0.666351	0.263980
C121	C	0.852696	-0.000321	-0.509857
C122	C	1.186030	0.333012	-0.176523
C123	C	1.519363	0.666345	0.156810
C124	C	0.812590	-0.000288	-0.237638
C125	C	1.145924	0.333045	0.095695
C126	C	1.479257	0.666379	0.429028
C127	C	0.838340	-0.000315	0.299525
C128	C	1.171674	0.333018	0.632858
C129	C	1.505007	0.666352	0.966192
C130	C	0.846269	-0.000326	0.404717
C131	C	1.179603	0.333008	0.738051
C132	C	1.512936	0.666341	1.071384
H133	H	0.615733	-0.000260	0.288704
H134	H	0.949066	0.333073	0.622038
H135	H	1.282400	0.666406	0.955371
O136	O	0.632697	-0.000344	-0.038074
O137	O	0.966030	0.332989	0.295259
O138	O	1.299364	0.666322	0.628593
C139	C	0.678710	-0.088617	-0.047837
C140	C	1.012044	0.244716	0.285496
C141	C	1.345377	0.578049	0.618830
H142	H	0.688300	-0.118047	0.025556
H143	H	1.021633	0.215286	0.358889
H144	H	1.354967	0.548619	0.692222
H145	H	0.730406	-0.068754	-0.082141
H146	H	1.063739	0.264579	0.251192
H147	H	1.397073	0.597913	0.584526
H148	H	0.654634	-0.150429	-0.094819
H149	H	0.987968	0.182904	0.238514
H150	H	1.321301	0.516238	0.571847
O151	O	0.768819	0.526684	0.221327
O152	O	1.102152	0.860018	0.554661
O153	O	1.435485	1.193351	0.887994
C154	C	0.773814	0.632838	0.213863
C155	C	1.107148	0.966171	0.547196
C156	C	1.440481	1.299504	0.880530
H157	H	0.826499	0.647336	0.179081
H158	H	1.159833	0.980670	0.512415
H159	H	1.493166	1.314003	0.845748
H160	H	0.768898	0.673700	0.288124
H161	H	1.102231	1.007034	0.621457
H162	H	1.435565	1.340367	0.954791
H163	H	0.730086	0.663315	0.168350
H164	H	1.063419	0.996648	0.501683
H165	H	1.396753	1.329981	0.835016
H166	H	0.038873	-0.000386	0.277170
H167	H	0.372207	0.332948	0.610503
H168	H	0.705540	0.666281	0.943836
H169	H	0.750328	-0.000277	-0.375762
H170	H	1.083662	0.333056	-0.042429
H171	H	1.416995	0.666389	0.290904
H172	H	0.483454	-0.000279	0.286059
H173	H	0.816787	0.333054	0.619392
H174	H	1.150120	0.666387	0.952726
O175	O	0.896638	0.472991	0.031209
O176	O	1.229971	0.806325	0.364542
O177	O	1.563304	1.139658	0.697876
C178	C	0.965641	0.499072	0.047931
C179	C	1.298975	0.832405	0.381265
C180	C	1.632308	1.165739	0.714598
H181	H	0.964675	0.577003	0.089163
H182	H	1.298008	0.910337	0.422496
H183	H	1.631342	1.243670	0.755830
H184	H	0.995418	0.502600	-0.023220
H185	H	1.328751	0.835933	0.310114
H186	H	1.662085	1.169267	0.643447
H187	H	0.992629	0.438704	0.091371
H188	H	1.325963	0.772038	0.424704
H189	H	1.659296	1.105371	0.758038
H190	H	0.171153	-0.000359	0.279817
H191	H	0.504486	0.332974	0.613150
H192	H	0.837819	0.666308	0.946483
O193	O	0.925373	-0.000282	-0.365616
O194	O	1.258706	0.333051	-0.032283
O195	O	1.592039	0.666384	0.301050
C196	C	0.919150	-0.000297	-0.265313
C197	C	1.252483	0.333036	0.068020
C198	C	1.585817	0.666369	0.401354
H199	H	0.864761	0.031981	-0.240011
H200	H	1.198095	0.365314	0.093322
H201	H	1.531428	0.698647	0.426656
H202	H	0.960056	0.049178	-0.232002
H203	H	1.293390	0.382512	0.101331
H204	H	1.626723	0.715845	0.434665
H205	H	0.927600	-0.082061	-0.242817
H206	H	1.260934	0.251272	0.090516
H207	H	1.594267	0.584606	0.423849
H208	H	0.494134	-0.000265	-0.027312
H209	H	0.827468	0.333069	0.306021
H210	H	1.160801	0.666402	0.639355
O211	O	0.044185	-0.000419	-0.049816
O212	O	0.377518	0.332914	0.283518
O213	O	0.710851	0.666248	0.616851
C214	C	-0.028623	-0.000414	-0.032742
C215	C	0.304711	0.332919	0.300592
C216	C	0.638044	0.666253	0.633925
H217	H	-0.039769	-0.032685	0.039298
H218	H	0.293564	0.300648	0.372631
H219	H	0.626897	0.633982	0.705964
H220	H	-0.052393	-0.049901	-0.091493
H221	H	0.280941	0.283432	0.241840
H222	H	0.614274	0.616766	0.575173
H223	H	-0.052580	0.081345	-0.032224
H224	H	0.280754	0.414679	0.301110
H225	H	0.614087	0.748012	0.634443
H226	H	0.181837	-0.000335	-0.033562
H227	H	0.515170	0.332998	0.299771
H228	H	0.848504	0.666332	0.633104
