data_functionalizedCrystal
_audit_creation_method	'MofGen! by Chris Wilmer'
_symmetry_space_group_name_H-M	'P1'
_symmetry_Int_Tables_number	1
_symmetry_cell_setting	triclinic
loop_
_symmetry_equiv_pos_as_xyz
  x,y,z
_cell_length_a	27.440280
_cell_length_b	12.970454
_cell_length_c	12.970454
_cell_angle_alpha	59.999776
_cell_angle_beta	89.994878
_cell_angle_gamma	59.994056
loop_
_atom_site_label
_atom_site_type_symbol
_atom_site_fract_x
_atom_site_fract_y
_atom_site_fract_z
Zr1	Zr	0.469497	1.128423	-0.135341
O2	O	0.391680	1.343529	-0.299960
O3	O	0.493353	0.913328	-0.084876
O4	O	0.493353	1.128418	-0.299967
O5	O	0.391678	1.128441	0.084797
O6	O	0.573555	1.128401	-0.299973
O7	O	0.391679	1.128440	-0.084869
O8	O	0.573554	0.743645	0.084785
O9	O	0.391680	1.513197	-0.299961
O10	O	0.563380	1.001784	-0.063359
O11	O	0.503526	1.001797	0.063266
O12	O	0.503527	1.255037	-0.189975
O13	O	0.443673	1.255050	-0.063351
Zr14	Zr	0.597409	1.128398	0.135248
Zr15	Zr	0.597410	1.128397	-0.135351
Zr16	Zr	0.469496	1.128425	0.135257
Zr17	Zr	0.469497	1.399023	-0.135343
Zr18	Zr	0.597409	0.857799	0.135249
O19	O	0.573554	1.343494	0.084782
O20	O	0.573555	1.343492	-0.299974
O21	O	0.391678	1.343531	0.084796
O22	O	0.675227	0.913292	0.299866
O23	O	0.675228	0.913290	-0.084890
O24	O	0.493351	0.913330	0.299880
O25	O	0.675228	1.128381	-0.084891
O26	O	0.573553	1.128404	0.299873
O27	O	0.493351	1.128421	0.299879
O28	O	0.675228	1.128382	0.084776
O29	O	0.493353	1.513176	-0.299969
O30	O	0.573553	0.743646	0.299875
O31	O	0.675227	0.743625	0.299867
O32	O	0.675228	0.743624	0.084778
O33	O	0.391679	1.513198	-0.084871
O34	O	0.493353	1.513177	-0.084879
O35	O	0.563380	1.001785	0.189882
O36	O	0.623234	1.001772	0.063257
O37	O	0.563380	1.255025	-0.063360
O38	O	0.503526	1.255038	0.063265
C39	C	0.533453	0.789932	-0.000045
C40	C	0.533453	0.675055	-0.000044
C41	C	0.373454	1.128444	-0.000034
C42	C	0.319151	1.128455	-0.000030
C43	C	-0.017546	1.128378	-0.093519
C44	C	-0.068564	1.128368	-0.093520
O45	O	-0.094938	1.128313	-0.172987
N46	N	-0.094082	1.128371	-0.000051
C47	C	-0.068576	1.128370	0.093433
O48	O	-0.094966	1.128370	0.172936
C49	C	-0.017557	1.128369	0.093437
C50	C	0.007955	1.128381	-0.000045
C51	C	0.007966	1.128388	-0.186994
C52	C	0.058980	1.128401	-0.186994
C53	C	0.084482	1.128404	-0.093520
C54	C	0.058969	1.128394	-0.000046
C55	C	0.007951	1.128358	0.186925
C56	C	0.058974	1.128357	0.186922
C57	C	0.084486	1.128368	0.093439
C58	C	0.135484	1.128410	0.093428
N59	N	0.161002	1.128407	-0.000041
C60	C	0.135501	1.128404	-0.093515
C61	C	-0.175720	1.128367	0.093417
C62	C	-0.226741	1.128378	0.093408
C63	C	-0.226724	1.128373	-0.093544
C64	C	-0.175705	1.128373	-0.093539
C65	C	-0.150202	1.128364	-0.000053
C66	C	0.242633	1.128433	-0.093509
C67	C	0.293650	1.128452	-0.093504
C68	C	0.293631	1.128449	0.093450
C69	C	0.242617	1.128438	0.093442
C70	C	0.217120	1.128425	-0.000043
O71	O	0.161893	1.128459	0.172857
O72	O	0.161901	1.128385	-0.172996
C73	C	0.693453	1.128378	-0.000059
C74	C	0.747755	1.128367	-0.000063
C75	C	0.533454	1.128409	-0.338524
C76	C	0.533455	1.128409	-0.453400
C77	C	0.533453	1.466890	-0.000049
C78	C	0.533453	1.581767	-0.000049
C79	C	0.533452	1.128413	0.338431
C80	C	0.533452	1.128413	0.453307
C81	C	0.693453	0.789899	-0.000057
C82	C	0.747755	0.675011	-0.000061
C83	C	0.533452	0.789934	0.338432
C84	C	0.533452	0.675057	0.453309
C85	C	0.693452	0.789901	0.338420
C86	C	0.747754	0.675013	0.453293
C87	C	0.373455	1.466921	-0.338514
C88	C	0.319153	1.581809	-0.453386
C89	C	0.373454	1.466923	-0.000036
C90	C	0.319151	1.581811	-0.000033
C91	C	0.533454	1.466888	-0.338526
C92	C	0.533455	1.581765	-0.453403
C93	C	0.742013	0.621064	-0.066166
C94	C	0.793031	0.513130	-0.066195
C95	C	0.849791	0.459136	-0.000110
C96	C	0.855531	0.513094	0.065997
C97	C	0.804514	0.621033	0.066017
C98	C	0.804503	0.621054	0.441141
C99	C	0.855531	0.513120	0.549066
C100	C	0.849807	0.459140	0.669141
C101	C	0.793052	0.513110	0.681290
C102	C	0.742026	0.621049	0.573366
C103	C	0.262403	1.635781	-0.441235
C104	C	0.211376	1.743748	-0.549159
C105	C	0.217099	1.797734	-0.669234
C106	C	0.273855	1.743757	-0.681383
C107	C	0.324881	1.635799	-0.573460
C108	C	0.324893	1.635769	0.066061
C109	C	0.273875	1.743733	0.066060
C110	C	0.217116	1.797730	-0.000028
C111	C	0.211375	1.743768	-0.066130
C112	C	0.262393	1.635813	-0.066136
H113	H	0.314420	1.128465	-0.169634
F114	F	0.904083	0.344254	-0.000142
H115	H	0.901739	0.469189	0.539151
F116	F	0.279937	1.801225	-0.809186
H117	H	0.079737	1.128345	0.263054
H118	H	0.257709	1.591884	-0.119954
F119	F	0.150979	1.801171	-0.536203
H120	H	0.891361	0.371249	0.757009
F121	F	0.385277	1.578361	-0.586412
H122	H	0.788401	0.469143	0.779069
F123	F	-0.019191	1.128343	0.286423
F124	F	0.681630	0.678458	0.586319
H125	H	0.221880	1.128420	-0.169633
H126	H	0.314401	1.128458	0.169553
H127	H	0.901752	0.469116	0.119800
F128	F	0.810634	0.678428	0.136388
H129	H	0.221840	1.128449	0.169554
F130	F	0.150963	1.801248	-0.136458
H131	H	0.371105	1.591813	0.119887
F132	F	0.162787	1.912633	-0.784087
F133	F	-0.148557	1.128383	-0.193034
H134	H	0.809175	0.664989	0.343380
H135	H	0.257732	1.591832	-0.343473
F136	F	-0.019166	1.128382	-0.286489
F137	F	0.162824	1.912626	-0.000010
H138	H	0.079751	1.128404	-0.263112
F139	F	0.786909	0.455720	-0.136553
H140	H	-0.247515	1.128391	0.169518
F141	F	-0.253874	1.128366	-0.193026
F142	F	-0.148585	1.128372	0.192917
H143	H	0.278561	1.787651	0.119893
H144	H	0.695802	0.665025	-0.119995
