data_functionalizedCrystal
_audit_creation_method	'MofGen! by Chris Wilmer'
_symmetry_space_group_name_H-M	'P1'
_symmetry_Int_Tables_number	1
_symmetry_cell_setting	triclinic
loop_
_symmetry_equiv_pos_as_xyz
  x,y,z
_cell_length_a	15.298708
_cell_length_b	15.297327
_cell_length_c	21.395355
_cell_angle_alpha	99.659679
_cell_angle_beta	99.639898
_cell_angle_gamma	107.405650
loop_
_atom_site_label
_atom_site_type_symbol
_atom_site_fract_x
_atom_site_fract_y
_atom_site_fract_z
Zn1	Zn	1.357703	-0.123945	-0.206232
Zn2	Zn	1.330661	-0.279481	-0.123386
Zn3	Zn	1.202169	-0.150905	-0.123371
Zn4	Zn	1.175230	-0.306400	-0.250012
O5	O	1.266441	-0.215183	-0.175750
O6	O	1.484256	-0.122029	-0.176926
O7	O	1.313573	-0.262443	-0.035714
O8	O	1.245392	-0.017161	-0.116035
O9	O	1.464388	-0.236301	-0.116060
O10	O	1.359663	0.002646	-0.176912
O11	O	1.219170	-0.167978	-0.035703
O12	O	1.068455	-0.194080	-0.158486
O13	O	1.199478	-0.282180	-0.331875
O14	O	1.048663	-0.308321	-0.251529
O15	O	1.333541	-0.148131	-0.299710
O16	O	1.287451	-0.413220	-0.158512
O17	O	1.173256	-0.432997	-0.251543
C18	C	1.024815	-0.257048	-0.209757
C19	C	0.921443	-0.274980	-0.224323
C20	C	0.671235	-0.087251	-0.071830
C21	C	0.768359	-0.070397	-0.058145
C22	C	0.806635	-0.121542	-0.099688
C23	C	0.747777	-0.189542	-0.154920
C24	C	0.650644	-0.206393	-0.168609
C25	C	0.786044	-0.240683	-0.196467
C26	C	0.727186	-0.308684	-0.251699
C27	C	0.630063	-0.325532	-0.265386
C28	C	0.591787	-0.274387	-0.223843
C29	C	0.883177	-0.223833	-0.182777
C30	C	0.862586	-0.342975	-0.279556
C31	C	0.765462	-0.359828	-0.293242
C32	C	1.224521	-0.456855	-0.209790
C33	C	1.206673	-0.560228	-0.224361
C34	C	1.394388	-0.810273	-0.071768
C35	C	1.411157	-0.713149	-0.058075
C36	C	1.360038	-0.674914	-0.099645
C37	C	1.292146	-0.733813	-0.154911
C38	C	1.275370	-0.830948	-0.168603
C39	C	1.241020	-0.695588	-0.196480
C40	C	1.173128	-0.754488	-0.251746
C41	C	1.156356	-0.851613	-0.265436
C42	C	1.207476	-0.889848	-0.223866
C43	C	1.257796	-0.598453	-0.182788
C44	C	1.138778	-0.619128	-0.279623
C45	C	1.122009	-0.716253	-0.293317
C46	C	1.509009	-0.173155	-0.141611
C47	C	1.612378	-0.155246	-0.127063
C48	C	1.266521	-0.215151	-0.339160
C49	C	1.266555	-0.215137	-0.408796
C50	C	1.308549	0.027437	-0.141588
C51	C	1.326493	0.130827	-0.127030
C52	C	1.336360	-0.145336	-0.424762
C53	C	1.336365	-0.145296	-0.490192
C54	C	1.266574	-0.215072	-0.539654
C55	C	1.196757	-0.284880	-0.523683
C56	C	1.196748	-0.284912	-0.458253
C57	C	1.244703	-0.300099	-0.656160
C58	C	1.244718	-0.300067	-0.721587
C59	C	1.266596	-0.214973	-0.741460
C60	C	1.288479	-0.129906	-0.695895
C61	C	1.288470	-0.129938	-0.630466
C62	C	1.266575	-0.215045	-0.610603
C63	C	1.336411	-0.145123	-0.828372
C64	C	1.336410	-0.145083	-0.893804
C65	C	1.196805	-0.284674	-0.927294
C66	C	1.196803	-0.284707	-0.861863
C67	C	1.266610	-0.214932	-0.812405
C68	C	1.266426	-0.215139	-0.012959
C69	C	1.266617	-0.214859	0.056738
H70	H	0.885719	-0.107815	-0.088542
H71	H	0.582143	-0.380896	-0.310363
H72	H	1.097151	-0.587999	-0.313473
Cl73	Cl	1.315972	-0.023002	-0.573188
H74	H	0.717526	-0.415195	-0.338212
Cl75	Cl	0.910698	-0.407266	-0.331790
Cl76	Cl	1.071003	-0.925656	-0.334911
Cl77	Cl	1.217217	-0.407006	-0.778860
Cl78	Cl	0.623113	-0.022954	-0.019617
H79	H	1.139930	-0.341690	-0.563959
Cl80	Cl	0.469684	-0.295567	-0.241048
H81	H	1.393201	-0.088519	-0.384496
H82	H	1.313073	-0.550506	-0.137790
H83	H	1.373694	-0.595830	-0.088492
Cl84	Cl	1.424162	-0.057404	-0.766194
H85	H	1.466432	-0.665196	-0.013077
H86	H	0.816274	-0.015034	-0.013173
H87	H	1.435996	-0.841415	-0.037924
Cl88	Cl	1.424185	-0.057337	-0.913874
H89	H	1.139972	-0.341480	-0.967566
H90	H	1.066731	-0.764222	-0.338315
H91	H	1.139965	-0.341551	-0.848865
Cl92	Cl	1.186021	-1.012016	-0.240876
H93	H	1.226641	-0.369418	-0.640018
Cl94	Cl	1.424110	-0.057524	-0.510270
H95	H	1.306296	-0.060614	-0.712074
Cl96	Cl	1.108987	-0.372670	-0.438182
H97	H	0.931091	-0.168464	-0.137808
