data_functionalizedCrystal
_audit_creation_method	'MofGen! by Chris Wilmer'
_symmetry_space_group_name_H-M	'P1'
_symmetry_Int_Tables_number	1
_symmetry_cell_setting	triclinic
loop_
_symmetry_equiv_pos_as_xyz
  x,y,z
_cell_length_a	19.188925
_cell_length_b	19.188930
_cell_length_c	13.448316
_cell_angle_alpha	89.988273
_cell_angle_beta	89.992287
_cell_angle_gamma	83.143665
loop_
_atom_site_label
_atom_site_type_symbol
_atom_site_fract_x
_atom_site_fract_y
_atom_site_fract_z
O1	O	0.926149	0.087151	-0.082724
O2	O	0.722837	0.098889	-0.082723
O3	O	0.830361	-0.008636	-0.082704
O4	O	0.818626	0.194676	-0.082743
O5	O	0.830347	-0.008642	0.082679
O6	O	0.722824	0.098883	0.082661
O7	O	0.926136	0.087145	0.082659
Cu8	Cu	0.824479	0.093013	0.097761
Cu9	Cu	0.824495	0.093021	-0.097825
O10	O	0.818613	0.194669	0.082641
C11	C	0.696820	0.098507	-0.000031
C12	C	0.619315	0.097367	-0.000029
C13	C	0.057545	0.152831	-0.000042
C14	C	0.130368	0.153908	-0.000048
C15	C	0.175302	0.090816	-0.000034
C16	C	0.147408	0.026642	-0.000040
C17	C	0.074586	0.025568	-0.000045
N18	N	0.295975	0.045137	0.056272
N19	N	0.365152	0.046163	0.056279
C20	C	0.394712	0.094050	-0.000023
N21	N	0.352479	0.140884	-0.056319
N22	N	0.283295	0.139861	-0.056321
C23	C	0.254267	0.091974	-0.000030
C24	C	0.501561	0.159386	-0.000030
C25	C	0.574385	0.160460	-0.000042
C26	C	0.591425	0.033193	-0.000024
C27	C	0.518601	0.032121	-0.000022
C28	C	0.473673	0.095220	-0.000021
C29	C	0.829974	-0.034650	-0.000010
C30	C	0.828833	-0.112154	-0.000001
C31	C	0.891924	-0.157079	0.000003
C32	C	0.890852	-0.229903	-0.000013
C33	C	0.826686	-0.257799	-0.000013
C34	C	0.763587	-0.212864	-0.000023
C35	C	0.764660	-0.140041	-0.000017
N36	N	0.777634	-0.365805	0.056271
N37	N	0.776619	-0.434983	0.056267
C38	C	0.823448	-0.477207	-0.000033
N39	N	0.871342	-0.447640	-0.056317
N40	N	0.872359	-0.378456	-0.056309
C41	C	0.825515	-0.336761	-0.000020
C42	C	0.885381	-0.601097	-0.000047
C43	C	0.884307	-0.673922	-0.000069
C44	C	0.757040	-0.656880	-0.000070
C45	C	0.758116	-0.584057	-0.000058
C46	C	0.822289	-0.556170	-0.000042
C47	C	0.952154	0.087527	-0.000035
C48	C	1.029658	0.088666	-0.000043
C49	C	0.819000	0.220684	-0.000056
C50	C	0.820140	0.298188	-0.000071
N51	N	0.824473	0.093007	0.235325
N52	N	0.824506	0.093021	-0.235389
C53	C	0.872098	0.045415	0.287374
C54	C	0.872103	0.045414	0.391477
C55	C	0.824484	0.093010	0.443530
C56	C	0.776853	0.140605	0.391474
C57	C	0.776846	0.140601	0.287372
C58	C	0.776873	0.140609	0.608454
C59	C	0.776880	0.140614	0.712562
C60	C	0.872129	0.045422	0.712559
C61	C	0.872122	0.045419	0.608457
C62	C	0.824492	0.093015	0.556408
H63	H	0.183999	-0.024728	-0.000032
H64	H	0.713282	-0.103462	-0.000020
H65	H	0.738078	0.179356	0.433861
H66	H	0.910883	0.006660	0.433855
H67	H	0.738063	0.179355	0.244995
H68	H	0.020968	0.204211	-0.000046
H69	H	0.706740	-0.547478	-0.000056
H70	H	0.944179	-0.134379	0.000013
N71	N	0.046099	-0.039979	-0.000015
N72	N	0.007363	-0.054779	0.069707
H73	H	-0.012757	-0.101073	0.069734
N74	N	0.158852	0.219460	-0.000047
N75	N	0.118730	0.275791	-0.000047
H76	H	0.138844	0.322088	-0.000044
N77	N	0.490100	-0.033417	0.000007
N78	N	0.425080	-0.034368	0.000011
H79	H	0.404950	-0.080657	0.000033
H80	H	0.937635	-0.578390	-0.000039
H81	H	0.704794	-0.679592	-0.000075
H82	H	0.738085	0.179365	0.566079
H83	H	0.942230	-0.266488	-0.000013
H84	H	0.910878	0.006659	0.244999
N85	N	0.948765	-0.719803	-0.000056
N86	N	0.991478	-0.717384	0.069666
H87	H	1.037004	-0.749787	0.069677
N88	N	0.920804	-0.003167	0.555300
N89	N	0.963347	-0.045637	0.601781
H90	H	0.997741	-0.079941	0.564239
N91	N	0.920771	-0.003221	0.765701
N92	N	0.920003	-0.067752	0.754068
H93	H	0.954356	-0.102109	0.791596
N94	N	0.455673	0.223843	-0.000028
N95	N	0.480585	0.281131	-0.000036
H96	H	0.448179	0.326655	-0.000034
H97	H	0.597088	0.212713	-0.000049
H98	H	0.738104	0.179370	0.754938
H99	H	0.628010	-0.018178	-0.000020
H100	H	0.711342	-0.235581	-0.000025
