data_functionalizedCrystal
_audit_creation_method	'MofGen! by Chris Wilmer'
_symmetry_space_group_name_H-M	'P1'
_symmetry_Int_Tables_number	1
_symmetry_cell_setting	triclinic
loop_
_symmetry_equiv_pos_as_xyz
  x,y,z
_cell_length_a	14.908783
_cell_length_b	16.625546
_cell_length_c	14.908308
_cell_angle_alpha	93.264070
_cell_angle_beta	89.788727
_cell_angle_gamma	93.313227
loop_
_atom_site_label
_atom_site_type_symbol
_atom_site_fract_x
_atom_site_fract_y
_atom_site_fract_z
Zn1	Zn	1.345304	-0.282015	-0.587817
Zn2	Zn	1.678637	0.051318	-0.254483
Zn3	Zn	2.011971	0.384652	0.078850
Zn4	Zn	1.353880	-0.408665	-0.437451
Zn5	Zn	1.687213	-0.075332	-0.104118
Zn6	Zn	2.020547	0.258002	0.229216
Zn7	Zn	1.203617	-0.281142	-0.428788
Zn8	Zn	1.536951	0.052191	-0.095455
Zn9	Zn	1.870284	0.385524	0.237879
Zn10	Zn	1.194905	-0.424105	-0.579072
Zn11	Zn	1.528238	-0.090771	-0.245739
Zn12	Zn	1.861572	0.242562	0.087595
O13	O	1.274427	-0.348982	-0.508282
O14	O	1.607760	-0.015648	-0.174949
O15	O	1.941093	0.317685	0.158385
O16	O	1.472270	-0.292719	-0.575156
O17	O	1.805603	0.040614	-0.241822
O18	O	2.138936	0.373948	0.091511
O19	O	1.341183	-0.384922	-0.310479
O20	O	1.674516	-0.051589	0.022854
O21	O	2.007849	0.281745	0.356188
O22	O	1.222470	-0.168425	-0.449918
O23	O	1.555803	0.164909	-0.116585
O24	O	1.889136	0.498242	0.216749
O25	O	1.478570	-0.385768	-0.464683
O26	O	1.811904	-0.052435	-0.131349
O27	O	2.145237	0.280899	0.201984
O28	O	1.326566	-0.169066	-0.566756
O29	O	1.659900	0.164268	-0.233422
O30	O	1.993233	0.497601	0.099911
O31	O	1.230785	-0.291232	-0.304114
O32	O	1.564119	0.042102	0.029219
O33	O	1.897452	0.375435	0.362552
O34	O	1.076634	-0.306203	-0.441438
O35	O	1.409967	0.027130	-0.108105
O36	O	1.743300	0.360464	0.225228
O37	O	1.207620	-0.412083	-0.706055
O38	O	1.540954	-0.078749	-0.372722
O39	O	1.874287	0.254584	-0.039388
O40	O	1.070233	-0.411237	-0.551851
O41	O	1.403566	-0.077903	-0.218518
O42	O	1.736899	0.255430	0.114815
O43	O	1.318118	-0.307690	-0.712480
O44	O	1.651451	0.025643	-0.379146
O45	O	1.984785	0.358976	-0.045813
O46	O	1.332734	-0.523547	-0.456203
O47	O	1.666068	-0.190213	-0.122870
O48	O	1.999401	0.143120	0.210464
O49	O	1.215936	-0.534890	-0.560251
O50	O	1.549269	-0.201557	-0.226918
O51	O	1.882603	0.131777	0.106415
C52	C	1.040807	-0.360301	-0.494756
C53	C	1.374141	-0.026968	-0.161423
C54	C	1.707474	0.306365	0.171910
C55	C	0.940863	-0.365164	-0.488991
C56	C	1.274196	-0.031831	-0.155658
C57	C	1.607529	0.301502	0.177675
C58	C	0.746483	-0.277561	-0.593370
C59	C	1.079817	0.055772	-0.260037
C60	C	1.413150	0.389105	0.073297
C61	C	0.652576	-0.282128	-0.587956
C62	C	0.985910	0.051205	-0.254623
C63	C	1.319243	0.384539	0.078711
C64	C	0.659140	-0.378860	-0.472746
C65	C	0.992474	-0.045526	-0.139413
C66	C	1.325807	0.287807	0.193920
C67	C	0.753047	-0.374293	-0.478160
C68	C	1.086381	-0.040960	-0.144827
C69	C	1.419714	0.292374	0.188507
C70	C	0.796715	-0.323643	-0.538475
C71	C	1.130049	0.009690	-0.205142
C72	C	1.463382	0.343024	0.128192
C73	C	0.890624	-0.319081	-0.543893
C74	C	1.223957	0.014252	-0.210559
C75	C	1.557291	0.347586	0.122774
C76	C	0.897186	-0.415808	-0.428679
C77	C	1.230520	-0.082475	-0.095345
C78	C	1.563853	0.250859	0.237988
C79	C	0.803279	-0.420375	-0.423265
C80	C	1.136613	-0.087041	-0.089932
C81	C	1.469946	0.246292	0.243402
C82	C	1.274344	-0.558475	-0.508239
C83	C	1.607677	-0.225141	-0.174906
C84	C	1.941010	0.108192	0.158427
C85	C	1.274389	-0.648094	-0.508256
C86	C	1.607722	-0.314761	-0.174923
C87	C	1.941055	0.018572	0.158411
C88	C	1.274540	-0.976267	-0.508359
C89	C	1.607873	-0.642934	-0.175025
C90	C	1.941207	-0.309601	0.158308
C91	C	1.274495	-0.884960	-0.508333
C92	C	1.607828	-0.551627	-0.174999
C93	C	1.941162	-0.218293	0.158334
C94	C	1.274464	-0.812184	-0.508307
C95	C	1.607797	-0.478850	-0.174974
C96	C	1.941130	-0.145517	0.158360
C97	C	1.274420	-0.720870	-0.508282
C98	C	1.607753	-0.387537	-0.174948
C99	C	1.941087	-0.054204	0.158385
C100	C	1.508958	-0.337619	-0.521861
C101	C	1.842291	-0.004285	-0.188528
C102	C	2.175625	0.329048	0.144806
C103	C	1.608901	-0.332776	-0.527647
C104	C	1.942235	0.000557	-0.194314
C105	C	2.275568	0.333890	0.139019
C106	C	1.260941	-0.361706	-0.742804
C107	C	1.594274	-0.028373	-0.409471
C108	C	1.927607	0.304961	-0.076137
C109	C	1.255194	-0.367128	-0.842743
C110	C	1.588527	-0.033795	-0.509410
C111	C	1.921861	0.299538	-0.176077
C112	C	1.274533	-0.138671	-0.508346
C113	C	1.607867	0.194663	-0.175012
C114	C	1.941200	0.527996	0.158321
C115	C	1.274579	-0.049049	-0.508373
C116	C	1.607912	0.284285	-0.175040
C117	C	1.941245	0.617618	0.158294
C118	C	1.359454	-0.268595	-1.037231
C119	C	1.692787	0.064738	-0.703898
C120	C	2.026120	0.398072	-0.370565
C121	C	1.354057	-0.273687	-1.131134
C122	C	1.687390	0.059646	-0.797800
C123	C	2.020723	0.392980	-0.464467
C124	C	1.238999	-0.382400	-1.124451
C125	C	1.572333	-0.049066	-0.791118
C126	C	1.905666	0.284267	-0.457784
C127	C	1.244396	-0.377308	-1.030549
C128	C	1.577730	-0.043975	-0.697216
C129	C	1.911063	0.289359	-0.363882
C130	C	1.304626	-0.320404	-0.986943
C131	C	1.637960	0.012929	-0.653609
C132	C	1.971293	0.346262	-0.320276
C133	C	1.310027	-0.315317	-0.893039
C134	C	1.643360	0.018016	-0.559706
C135	C	1.976694	0.351350	-0.226372
C136	C	1.194966	-0.424025	-0.886358
C137	C	1.528299	-0.090692	-0.553025
C138	C	1.861633	0.242641	-0.219691
C139	C	1.189569	-0.429117	-0.980260
C140	C	1.522902	-0.095784	-0.646927
C141	C	1.856236	0.237549	-0.313593
C142	C	1.287912	-0.336246	-0.274675
C143	C	1.621245	-0.002913	0.058658
C144	C	1.954578	0.330421	0.391991
C145	C	1.293833	-0.330588	-0.174747
C146	C	1.627166	0.002745	0.158587
C147	C	1.960499	0.336079	0.491920
H148	H	0.767712	-0.461609	-0.374156
H149	H	1.101045	-0.128276	-0.040823
H150	H	1.434379	0.205057	0.292511
H151	H	1.408500	-0.222266	-1.001727
H152	H	1.741833	0.111068	-0.668394
H153	H	2.075166	0.444401	-0.335060
H154	H	0.782038	-0.236324	-0.642484
H155	H	1.115372	0.097009	-0.309151
H156	H	1.448705	0.430343	0.024182
H157	H	1.398700	-0.231496	-1.172075
H158	H	1.732034	0.101837	-0.838742
H159	H	2.065367	0.435170	-0.505409
H160	H	0.926177	-0.277840	-0.593005
H161	H	1.259510	0.055493	-0.259671
H162	H	1.592843	0.388827	0.073662
H163	H	0.938095	-0.453338	-0.383986
H164	H	1.271428	-0.120004	-0.050653
H165	H	1.604762	0.213329	0.282681
C166	C	1.188487	-0.527371	-0.780011
C167	C	1.521820	-0.194037	-0.446678
C168	C	1.855154	0.139296	-0.113345
C169	C	1.134691	-0.480979	-0.831080
C170	C	1.468024	-0.147646	-0.497747
C171	C	1.801358	0.185687	-0.164414
H172	H	1.151276	-0.562528	-0.745883
H173	H	1.484610	-0.229195	-0.412550
H174	H	1.817943	0.104139	-0.079217
H175	H	1.225536	-0.558295	-0.818905
H176	H	1.558869	-0.224962	-0.485572
H177	H	1.892203	0.108371	-0.152238
H178	H	1.225123	-0.492748	-0.740600
H179	H	1.558456	-0.159415	-0.407267
H180	H	1.891789	0.173919	-0.073933
H181	H	1.098060	-0.515602	-0.870497
H182	H	1.431393	-0.182268	-0.537163
H183	H	1.764727	0.151065	-0.203830
H184	H	1.097627	-0.450052	-0.792183
H185	H	1.430960	-0.116719	-0.458850
H186	H	1.764293	0.216614	-0.125516
H187	H	0.611681	-0.244601	-0.632655
H188	H	0.945014	0.088732	-0.299322
H189	H	1.278347	0.422065	0.034011
C190	C	1.125805	-0.489343	-1.108425
C191	C	1.459138	-0.156010	-0.775091
C192	C	1.792471	0.177323	-0.441758
C193	C	1.172794	-0.444940	-1.172392
C194	C	1.506128	-0.111607	-0.839059
C195	C	1.839461	0.221726	-0.505726
H196	H	1.084929	-0.527949	-1.138024
H197	H	1.418262	-0.194616	-0.804690
H198	H	1.751595	0.138717	-0.471357
H199	H	1.167071	-0.516304	-1.074065
H200	H	1.500404	-0.182970	-0.740732
H201	H	1.833738	0.150363	-0.407398
H202	H	1.093534	-0.453888	-1.069812
H203	H	1.426868	-0.120555	-0.736478
H204	H	1.760201	0.212778	-0.403145
H205	H	1.205070	-0.480395	-1.211001
H206	H	1.538404	-0.147061	-0.877668
H207	H	1.871737	0.186272	-0.544335
H208	H	1.131522	-0.417979	-1.206767
H209	H	1.464856	-0.084645	-0.873434
H210	H	1.798189	0.248688	-0.540101
H211	H	0.623570	-0.420087	-0.423631
H212	H	0.956903	-0.086753	-0.090298
H213	H	1.290236	0.246580	0.243035
H214	H	1.359071	-0.268984	-0.857537
H215	H	1.692404	0.064349	-0.524203
H216	H	2.025737	0.397682	-0.190870
H217	H	1.140530	-0.475445	-1.015777
H218	H	1.473863	-0.142111	-0.682444
H219	H	1.807197	0.191222	-0.349110
