data_functionalizedCrystal
_audit_creation_method	'MofGen! by Chris Wilmer'
_symmetry_space_group_name_H-M	'P1'
_symmetry_Int_Tables_number	1
_symmetry_cell_setting	triclinic
loop_
_symmetry_equiv_pos_as_xyz
  x,y,z
_cell_length_a	20.919309
_cell_length_b	12.477989
_cell_length_c	12.477989
_cell_angle_alpha	89.511470
_cell_angle_beta	66.848536
_cell_angle_gamma	61.922883
loop_
_atom_site_label
_atom_site_type_symbol
_atom_site_fract_x
_atom_site_fract_y
_atom_site_fract_z
Zr1	Zr	0.762531	-0.243112	1.034897
O2	O	0.872390	-0.402239	0.890165
O3	O	0.636235	-0.188263	1.073195
O4	O	0.754313	-0.407520	1.093950
O5	O	0.766528	-0.016930	0.859943
O6	O	0.766528	-0.418588	1.261602
O7	O	0.754313	-0.182982	0.869411
O8	O	0.555309	-0.026377	1.224476
O9	O	0.977746	-0.409141	0.897069
O10	O	0.703387	-0.180461	1.221979
O11	O	0.703387	-0.048279	1.089796
O12	O	0.842408	-0.306426	1.114232
O13	O	0.842407	-0.174243	0.982049
Zr14	Zr	0.801495	0.004070	1.287183
Zr15	Zr	0.782013	-0.260763	1.302283
Zr16	Zr	0.782013	0.021722	1.019797
Zr17	Zr	0.930563	-0.254119	1.045908
Zr18	Zr	0.633463	0.015078	1.276173
O19	O	0.927791	-0.050778	1.248885
O20	O	0.900090	-0.427337	1.270355
O21	O	0.900090	-0.025680	0.868696
O22	O	0.691636	0.163198	1.431915
O23	O	0.663936	-0.213362	1.453385
O24	O	0.663936	0.188296	1.051726
O25	O	0.797499	-0.222111	1.462137
O26	O	0.809714	0.168479	1.228130
O27	O	0.797498	0.179547	1.060478
O28	O	0.809714	-0.056059	1.452669
O29	O	0.993232	-0.423171	1.109606
O30	O	0.570794	0.184130	1.212474
O31	O	0.586280	0.170099	1.425011
O32	O	0.570795	-0.040408	1.437013
O33	O	0.993232	-0.198633	0.885067
O34	O	1.008717	-0.212664	1.097604
O35	O	0.721619	0.067384	1.207848
O36	O	0.721619	-0.064798	1.340031
O37	O	0.860640	-0.190762	1.232284
O38	O	0.860640	-0.058580	1.100101
C39	C	0.571831	-0.105752	1.147267
C40	C	0.500498	-0.101079	1.142593
C41	C	0.757644	-0.097441	0.826580
C42	C	0.749374	-0.089948	0.713068
C43	C	0.806382	0.211746	1.142153
C44	C	0.814652	0.324175	1.135742
C45	C	0.466985	-0.167881	1.209391
C46	C	0.399955	-0.163479	1.205002
C47	C	0.366444	-0.092280	1.133806
C48	C	0.399960	-0.025470	1.067005
C49	C	0.466984	-0.029866	1.071402
C50	C	0.164069	-0.075548	1.117084
C51	C	0.097042	-0.071160	1.112689
C52	C	0.097041	-0.209167	1.250688
C53	C	0.164070	-0.213563	1.255073
C54	C	0.197577	-0.146748	1.188277
C55	C	0.297930	-0.087782	1.129314
C56	C	0.266086	-0.151240	1.192776
C57	C	0.992195	-0.133289	1.174813
C58	C	1.063529	-0.137962	1.179487
C59	C	0.757644	-0.450787	1.179927
C60	C	0.749374	-0.563216	1.186338
C61	C	0.806382	-0.141600	1.495500
C62	C	0.814652	-0.149094	1.609012
C63	C	0.596200	-0.127832	1.481727
C64	C	0.533137	-0.130652	1.590565
C65	C	0.596200	0.225515	1.128380
C66	C	0.533137	0.342616	1.117295
C67	C	0.620569	0.203435	1.462839
C68	C	0.565776	0.313043	1.565267
C69	C	0.943458	-0.442476	0.859241
C70	C	0.998250	-0.552085	0.756813
C71	C	0.967826	-0.111210	0.840353
C72	C	1.030889	-0.108389	0.731515
C73	C	0.967826	-0.464556	1.193700
C74	C	1.030890	-0.581658	1.204785
C75	C	0.494004	-0.192363	1.580056
C76	C	0.434756	-0.195038	1.682312
C77	C	0.414638	-0.135994	1.795077
C78	C	0.453778	-0.074282	1.805584
C79	C	0.513028	-0.071615	1.703329
C80	C	0.513039	0.457995	1.173711
C81	C	0.453794	0.568034	1.163291
C82	C	0.414644	0.562692	1.096462
C83	C	0.434746	0.447302	1.040039
C84	C	0.493994	0.337265	1.050453
C85	C	0.540046	0.295518	1.682378
C86	C	0.488571	0.398495	1.778631
C87	C	0.462824	0.518997	1.757771
C88	C	0.488560	0.536520	1.640649
C89	C	0.540038	0.433544	1.544398
C90	C	1.023989	-0.534560	0.639703
C91	C	1.075484	-0.637538	0.543451
C92	C	1.101235	-0.758040	0.564311
C93	C	1.075495	-0.775563	0.681433
C94	C	1.024005	-0.672586	0.777683
C95	C	1.070029	-0.046690	0.742026
C96	C	1.129293	-0.044045	0.639772
C97	C	1.149413	-0.103093	0.527008
C98	C	1.110270	-0.164800	0.516500
C99	C	1.051011	-0.167452	0.618753
C100	C	1.070023	-0.576276	1.271623
C101	C	1.129271	-0.686296	1.282062
C102	C	1.149389	-0.801697	1.225654
C103	C	1.110249	-0.807076	1.158813
C104	C	1.050998	-0.697057	1.148383
H105	H	0.494268	-0.225865	1.267361
C106	C	0.391705	-0.262915	1.670726
N107	N	0.359279	-0.314036	1.661996
C108	C	0.995688	-0.691884	0.906503
N109	N	0.974360	-0.706429	1.003529
C110	C	1.157868	-0.871306	0.458419
N111	N	1.200520	-0.956612	0.378656
C112	C	0.363095	0.052849	0.988688
N113	N	0.335331	0.111836	0.929694
C114	C	0.568333	0.452843	1.415577
N115	N	0.589645	0.467389	1.318549
C116	C	1.103820	-0.908126	0.704359
N117	N	1.125150	-1.007975	0.721624
H118	H	0.876872	0.313778	1.087526
C119	C	0.898704	-0.225255	0.605976
N120	N	0.962013	-0.282619	0.603694
H121	H	1.096433	-0.623246	0.448093
H122	H	1.197637	-0.891272	1.234156
C123	C	0.460223	0.669084	1.617722
N124	N	0.438872	0.768934	1.600456
C125	C	0.431686	0.694950	1.225379
N126	N	0.415034	0.790540	1.272148
H127	H	0.687154	-0.033579	0.715311
C128	C	0.431633	-0.009328	1.929636
N129	N	0.414947	0.039604	2.023074
C130	C	0.060172	-0.282649	1.324168
N131	N	0.032399	-0.337993	1.379521
H132	H	0.510382	-0.240459	1.488248
H133	H	0.467622	0.384205	1.873990
C134	C	1.214598	-0.100158	0.414536
N135	N	1.263694	-0.097939	0.329825
H136	H	1.126661	-0.212875	0.424673
H137	H	1.126639	-0.901050	1.112889
C138	C	0.349453	-0.138929	1.907549
N139	N	0.300352	-0.141138	1.992258
C140	C	0.556062	-0.003710	1.714909
N141	N	0.588471	0.047441	1.723639
H142	H	0.402862	0.442971	0.985627
H143	H	0.544911	0.462368	1.228129
C144	C	0.406190	0.632262	1.863663
N145	N	0.363529	0.717570	1.943425
H146	H	1.019145	-0.217690	0.610178
H147	H	1.003024	-0.436449	0.622694
H148	H	0.069760	-0.013181	1.054707
C149	C	1.172319	-0.680351	1.355585
N150	N	1.204741	-0.675869	1.410962
C151	C	1.047913	0.018266	0.866058
N152	N	1.031264	0.067187	0.959477
H153	H	0.366402	0.652300	1.087992
H154	H	1.053653	-0.482321	1.317559
C155	C	0.516085	0.210352	0.988400
N156	N	0.532719	0.114762	0.941660
C157	C	1.172333	0.023851	0.651356
N158	N	1.204748	0.074994	0.660085
H159	H	0.561001	0.197408	1.699385
H160	H	1.019141	-0.701456	1.093951
H161	H	0.191354	-0.271539	1.313046
C162	C	0.363111	-0.237000	1.278455
N163	N	0.335365	-0.292391	1.333774
H164	H	0.191341	-0.021137	1.062698
H165	H	0.494271	0.024528	1.017004
H166	H	0.293370	-0.209205	1.250749
H167	H	0.270638	-0.029812	1.071346
H168	H	0.687159	0.447182	1.234559
