data_functionalizedCrystal
_audit_creation_method	'MofGen! by Chris Wilmer'
_symmetry_space_group_name_H-M	'P1'
_symmetry_Int_Tables_number	1
_symmetry_cell_setting	triclinic
loop_
_symmetry_equiv_pos_as_xyz
  x,y,z
_cell_length_a	18.627314
_cell_length_b	18.627226
_cell_length_c	18.627242
_cell_angle_alpha	119.997456
_cell_angle_beta	60.001657
_cell_angle_gamma	119.999958
loop_
_atom_site_label
_atom_site_type_symbol
_atom_site_fract_x
_atom_site_fract_y
_atom_site_fract_z
O1	O	-0.492482	0.611883	-0.021357
O2	O	-0.388085	0.507487	0.021253
O3	O	-0.388086	0.507486	-0.125747
O4	O	-0.492481	0.611884	0.125643
O5	O	-0.507489	0.388084	-0.125743
O6	O	-0.507488	0.388086	0.021257
O7	O	-0.611885	0.492482	-0.021353
Zn8	Zn	-0.578644	0.421326	-0.000048
Zn9	Zn	-0.421326	0.578642	-0.000052
O10	O	-0.611884	0.492483	0.125647
C11	C	-0.612979	0.742981	-0.031065
C12	C	-0.568677	0.837677	-0.024973
C13	C	-0.699378	0.699379	-0.031673
C14	C	-0.612983	0.612983	-0.031057
C15	C	-0.568684	0.568683	-0.024956
C16	C	-0.699381	0.569578	-0.031664
C17	C	-0.742981	0.612982	-0.031061
C18	C	-0.837678	0.568681	-0.024965
C19	C	-0.569577	0.699380	-0.031668
O20	O	-0.874281	0.492480	-0.021363
O21	O	-1.125679	0.388079	0.021235
O22	O	-0.978682	0.388080	-0.125760
O23	O	-1.021277	0.492479	0.125632
O24	O	-0.978679	0.507480	-0.125768
O25	O	-1.125676	0.507479	0.021227
O26	O	-0.874278	0.611880	-0.021370
Zn27	Zn	-0.999977	0.578636	-0.000073
Zn28	Zn	-0.999980	0.421322	-0.000063
O29	O	-1.021275	0.611879	0.125624
C30	C	-0.968991	0.256976	-0.387051
C31	C	-0.975089	0.162281	-0.431344
C32	C	-0.968382	0.300579	-0.300654
C33	C	-0.968988	0.386974	-0.387061
C34	C	-0.975084	0.431271	-0.431366
C35	C	-0.968379	0.430379	-0.300665
C36	C	-0.968987	0.386977	-0.257059
C37	C	-0.975082	0.431278	-0.162365
C38	C	-0.968383	0.300576	-0.430459
C39	C	-0.256977	0.386978	0.030932
C40	C	-0.162279	0.431278	0.024831
C41	C	-0.300578	0.300579	0.031538
C42	C	-0.386981	0.386981	0.030942
C43	C	-0.431284	0.431284	0.024851
C44	C	-0.430385	0.300582	0.031548
C45	C	-0.386979	0.256978	0.030935
C46	C	-0.431278	0.162281	0.024837
C47	C	-0.300581	0.430384	0.031545
O48	O	-0.507484	1.125681	0.021246
O49	O	-0.611879	0.874280	-0.021369
O50	O	-0.611871	1.021267	0.125633
O51	O	-0.507491	0.978694	-0.125756
O52	O	-0.492464	1.021263	0.125618
O53	O	-0.492472	0.874276	-0.021384
O54	O	-0.388076	1.125677	0.021231
Zn55	Zn	-0.421315	0.999976	-0.000079
Zn56	Zn	-0.578640	0.999981	-0.000059
O57	O	-0.388084	0.978690	-0.125771
O58	O	-1.021281	0.492477	-0.611968
O59	O	-0.978684	0.388073	-0.507567
O60	O	-1.125681	0.388075	-0.507569
O61	O	-0.874284	0.492475	-0.611967
O62	O	-1.125678	0.507473	-0.388172
O63	O	-0.978680	0.507471	-0.388170
O64	O	-1.021278	0.611875	-0.492571
Zn65	Zn	-0.999978	0.578630	-0.421414
Zn66	Zn	-0.999983	0.421318	-0.578725
O67	O	-0.874280	0.611873	-0.492570
O68	O	-0.978689	0.125679	-0.388142
O69	O	-1.021293	-0.125717	-0.492529
O70	O	-0.874293	0.021282	-0.492533
O71	O	-1.125689	-0.021319	-0.388139
O72	O	-0.874293	0.021282	-0.611935
O73	O	-1.021294	-0.125716	-0.611931
O74	O	-0.978689	0.125680	-0.507544
Zn75	Zn	-0.999991	-0.000018	-0.578695
Zn76	Zn	-0.999991	-0.000019	-0.421378
O77	O	-1.125689	-0.021319	-0.507541
C78	C	-0.742984	0.612978	0.386933
C79	C	-0.837680	0.568676	0.431231
C80	C	-0.699382	0.699376	0.430335
C81	C	-0.612984	0.612982	0.256938
C82	C	-0.568684	0.568684	0.162245
C83	C	-0.569580	0.699380	0.300538
C84	C	-0.612984	0.742980	0.386932
C85	C	-0.568684	0.837676	0.431230
C86	C	-0.699382	0.569576	0.300538
C87	C	-0.386988	0.256987	-0.387032
C88	C	-0.431289	0.162291	-0.431329
C89	C	-0.300590	0.300590	-0.430435
C90	C	-0.386987	0.386985	-0.257038
C91	C	-0.431286	0.431284	-0.162345
C92	C	-0.300588	0.430391	-0.300639
C93	C	-0.256987	0.386988	-0.387034
C94	C	-0.162291	0.431289	-0.431333
C95	C	-0.430391	0.300587	-0.300637
C96	C	-1.030939	0.742990	0.386908
C97	C	-1.024838	0.837686	0.431201
C98	C	-1.031540	0.699392	0.430313
C99	C	-1.030955	0.612986	0.256919
C100	C	-1.024870	0.568682	0.162228
C101	C	-1.031556	0.569586	0.300522
C102	C	-1.030937	0.612993	0.386915
C103	C	-1.024834	0.568697	0.431216
C104	C	-1.031558	0.699385	0.300515
C105	C	-0.612951	1.030929	0.386906
C106	C	-0.568645	1.024826	0.431196
C107	C	-0.699349	1.031534	0.430314
C108	C	-0.612961	1.030946	0.256918
C109	C	-0.568667	1.024860	0.162226
C110	C	-0.699360	1.031550	0.300524
C111	C	-0.742956	1.030933	0.386919
C112	C	-0.837652	1.024833	0.431223
C113	C	-0.569552	1.031546	0.300511
O114	O	-0.388085	1.125677	0.492428
O115	O	-0.492481	0.874280	0.388033
O116	O	-0.492481	1.021277	0.388027
O117	O	-0.388085	0.978680	0.492434
O118	O	-0.611884	1.021271	0.507422
O119	O	-0.611884	0.874275	0.507429
O120	O	-0.507487	1.125671	0.611824
Zn121	Zn	-0.578643	0.999972	0.578583
Zn122	Zn	-0.421325	0.999979	0.421274
O123	O	-0.507487	0.978674	0.611830
C124	C	-0.257001	0.969024	-0.387057
C125	C	-0.162305	0.975123	-0.431362
C126	C	-0.300608	0.968423	-0.430452
C127	C	-0.386995	0.969011	-0.257056
C128	C	-0.431288	0.975097	-0.162364
C129	C	-0.430405	0.968411	-0.300649
C130	C	-0.387006	0.969028	-0.387043
C131	C	-0.431313	0.975131	-0.431333
C132	C	-0.300597	0.968407	-0.300663
H133	H	-0.734379	0.734388	-0.032652
H134	H	-1.032534	0.498598	0.265517
H135	H	-0.501374	0.265580	0.032527
O136	O	-0.254227	0.967098	-0.254304
H137	H	-0.250758	1.026372	-0.194636
H138	H	-1.032515	0.734401	0.501300
H139	H	-0.501397	0.967418	-0.265640
H140	H	-0.734346	1.032505	0.501300
H141	H	-0.967405	0.501365	-0.265666
O142	O	-0.745788	0.475575	-0.032869
H143	H	-0.700946	0.452594	-0.033149
O144	O	-0.475541	0.745769	0.254205
H145	H	-0.471654	0.749263	0.194537
H146	H	-1.032519	0.734398	0.265504
O147	O	-0.475546	0.745742	-0.032960
H148	H	-0.452553	0.813273	-0.033277
O149	O	-0.745684	0.745855	0.524341
H150	H	-0.764924	0.708945	0.566560
H151	H	-0.967405	0.265572	-0.265648
H152	H	-0.265570	0.265577	0.032518
O153	O	-0.254259	0.967138	-0.524480
H154	H	-0.194603	1.026429	-0.528334
O155	O	-0.967083	0.254217	-0.524490
H156	H	-0.966767	0.186687	-0.547478
H157	H	-0.734366	1.032533	0.265522
O158	O	-0.524423	0.254220	-0.254268
H159	H	-0.566538	0.291217	-0.235076
H160	H	-0.265589	0.265583	-0.501422
O161	O	-0.475519	1.032851	0.254133
H162	H	-0.452522	1.033162	0.298982
O163	O	-0.254207	0.524419	-0.254279
H164	H	-0.235005	0.566537	-0.291278
H165	H	-0.265574	0.501375	0.032527
O166	O	-0.745741	0.475543	0.254166
H167	H	-0.813272	0.452550	0.299019
