data_functionalizedCrystal
_audit_creation_method	'MofGen! by Chris Wilmer'
_symmetry_space_group_name_H-M	'P1'
_symmetry_Int_Tables_number	1
_symmetry_cell_setting	triclinic
loop_
_symmetry_equiv_pos_as_xyz
  x,y,z
_cell_length_a	13.032721
_cell_length_b	18.215407
_cell_length_c	18.215399
_cell_angle_alpha	90.018561
_cell_angle_beta	97.154738
_cell_angle_gamma	82.803795
loop_
_atom_site_label
_atom_site_type_symbol
_atom_site_fract_x
_atom_site_fract_y
_atom_site_fract_z
Zn1	Zn	-0.416276	-1.087860	-0.453317
Zn2	Zn	-0.166276	-0.837860	-0.203317
Zn3	Zn	0.083724	-0.587860	0.046683
Zn4	Zn	0.333724	-0.337860	0.296683
Zn5	Zn	-0.591036	-1.072146	-0.345879
Zn6	Zn	-0.341036	-0.822146	-0.095879
Zn7	Zn	-0.091036	-0.572146	0.154121
Zn8	Zn	0.158964	-0.322146	0.404121
Zn9	Zn	-0.416284	-0.964792	-0.330268
Zn10	Zn	-0.166284	-0.714792	-0.080268
Zn11	Zn	0.083716	-0.464792	0.169732
Zn12	Zn	0.333716	-0.214792	0.419732
Zn13	Zn	-0.590951	-0.949144	-0.468899
Zn14	Zn	-0.340951	-0.699144	-0.218899
Zn15	Zn	-0.090951	-0.449144	0.031101
Zn16	Zn	0.159049	-0.199144	0.281101
O17	O	-0.503637	-1.018485	-0.399591
O18	O	-0.253637	-0.768485	-0.149591
O19	O	-0.003637	-0.518485	0.100409
O20	O	0.246363	-0.268485	0.350409
O21	O	-0.439491	-1.188757	-0.439077
O22	O	-0.189491	-0.938757	-0.189077
O23	O	0.060509	-0.688757	0.060923
O24	O	0.310509	-0.438757	0.310923
O25	O	-0.567893	-1.057878	-0.240827
O26	O	-0.317893	-0.807878	0.009173
O27	O	-0.067893	-0.557878	0.259173
O28	O	0.182107	-0.307878	0.509173
O29	O	-0.270046	-0.994242	-0.333536
O30	O	-0.020046	-0.744242	-0.083536
O31	O	0.229954	-0.494242	0.166464
O32	O	0.479954	-0.244242	0.416464
O33	O	-0.567886	-1.177212	-0.360143
O34	O	-0.317886	-0.927212	-0.110143
O35	O	-0.067886	-0.677212	0.139857
O36	O	0.182114	-0.427212	0.389857
O37	O	-0.270040	-1.084660	-0.423940
O38	O	-0.020040	-0.834660	-0.173940
O39	O	0.229960	-0.584660	0.076060
O40	O	0.479960	-0.334660	0.326060
O41	O	-0.439503	-0.979005	-0.229358
O42	O	-0.189503	-0.729005	0.020642
O43	O	0.060497	-0.479005	0.270642
O44	O	0.310497	-0.229005	0.520642
O45	O	-0.439421	-0.859735	-0.348645
O46	O	-0.189421	-0.609735	-0.098645
O47	O	0.060579	-0.359735	0.151355
O48	O	0.310579	-0.109735	0.401355
O49	O	-0.567741	-0.967572	-0.569813
O50	O	-0.317741	-0.717572	-0.319813
O51	O	-0.067741	-0.467572	-0.069813
O52	O	0.182259	-0.217572	0.180187
O53	O	-0.567749	-0.848238	-0.450497
O54	O	-0.317749	-0.598238	-0.200497
O55	O	-0.067749	-0.348238	0.049503
O56	O	0.182251	-0.098238	0.299503
O57	O	-0.439408	-1.069486	-0.558365
O58	O	-0.189408	-0.819486	-0.308365
O59	O	0.060592	-0.569486	-0.058365
O60	O	0.310592	-0.319486	0.191635
O61	O	-0.737261	-1.042704	-0.375252
O62	O	-0.487261	-0.792704	-0.125252
O63	O	-0.237261	-0.542704	0.124748
O64	O	0.012739	-0.292704	0.374748
O65	O	-0.737199	-0.952335	-0.465635
O66	O	-0.487199	-0.702335	-0.215635
O67	O	-0.237199	-0.452335	0.034365
O68	O	0.012801	-0.202335	0.284365
C69	C	-0.503577	-0.827284	-0.399569
C70	C	-0.253577	-0.577284	-0.149569
C71	C	-0.003577	-0.327284	0.100431
C72	C	0.246423	-0.077284	0.350431
C73	C	-0.503577	-0.745485	-0.399579
C74	C	-0.253577	-0.495485	-0.149579
C75	C	-0.003577	-0.245485	0.100421
C76	C	0.246423	0.004515	0.350421
C77	C	-0.775148	-0.994136	-0.423845
C78	C	-0.525148	-0.744136	-0.173845
C79	C	-0.275148	-0.494136	0.076155
C80	C	-0.025148	-0.244136	0.326155
C81	C	-0.891301	-0.983787	-0.434245
C82	C	-0.641301	-0.733787	-0.184245
C83	C	-0.391301	-0.483787	0.065755
C84	C	-0.141301	-0.233787	0.315755
C85	C	-0.436873	-0.486420	-0.440768
C86	C	-0.186873	-0.236420	-0.190768
C87	C	0.063127	0.013580	0.059232
C88	C	0.313127	0.263580	0.309232
C89	C	-0.436861	-0.563280	-0.440766
C90	C	-0.186861	-0.313280	-0.190766
C91	C	0.063139	-0.063280	0.059234
C92	C	0.313139	0.186720	0.309234
C93	C	-0.570365	-0.551295	-0.358413
C94	C	-0.320365	-0.301295	-0.108413
C95	C	-0.070365	-0.051295	0.141587
C96	C	0.179635	0.198705	0.391587
C97	C	-0.570382	-0.474436	-0.358420
C98	C	-0.320382	-0.224436	-0.108420
C99	C	-0.070382	0.025564	0.141580
C100	C	0.179618	0.275564	0.391580
C101	C	-0.503629	-0.442001	-0.399596
C102	C	-0.253629	-0.192001	-0.149596
C103	C	-0.003629	0.057999	0.100404
C104	C	0.246371	0.307999	0.350404
C105	C	-0.503602	-0.595720	-0.399587
C106	C	-0.253602	-0.345720	-0.149587
C107	C	-0.003602	-0.095720	0.100413
C108	C	0.246398	0.154280	0.350413
C109	C	-0.503590	-0.679054	-0.399584
C110	C	-0.253590	-0.429054	-0.149584
C111	C	-0.003590	-0.179054	0.100416
C112	C	0.246410	0.070946	0.350416
C113	C	-0.503643	-0.358661	-0.399600
C114	C	-0.253643	-0.108661	-0.149600
C115	C	-0.003643	0.141339	0.100400
C116	C	0.246357	0.391339	0.350400
C117	C	-0.943082	-1.023926	-0.394196
C118	C	-0.693082	-0.773926	-0.144196
C119	C	-0.443082	-0.523926	0.105804
C120	C	-0.193082	-0.273926	0.355804
C121	C	-1.063133	-1.013230	-0.404944
C122	C	-0.813133	-0.763230	-0.154944
C123	C	-0.563133	-0.513230	0.095056
C124	C	-0.313133	-0.263230	0.345056
C125	C	-0.231065	-1.042949	-0.375259
C126	C	0.018935	-0.792949	-0.125259
C127	C	0.268935	-0.542949	0.124741
C128	C	0.518935	-0.292949	0.374741
C129	C	-0.114912	-1.053374	-0.364890
C130	C	0.135088	-0.803374	-0.114890
C131	C	0.385088	-0.553374	0.135110
C132	C	0.635088	-0.303374	0.385110
C133	C	-0.503565	-1.018536	-0.591537
C134	C	-0.253565	-0.768536	-0.341537
C135	C	-0.003565	-0.518536	-0.091537
C136	C	0.246435	-0.268536	0.158463
C137	C	-0.503534	-1.018558	-0.673334
C138	C	-0.253534	-0.768558	-0.423334
C139	C	-0.003534	-0.518558	-0.173334
C140	C	0.246466	-0.268558	0.076666
C141	C	-0.503680	-0.210434	-0.399609
C142	C	-0.253680	0.039566	-0.149609
C143	C	-0.003680	0.289566	0.100391
C144	C	0.246320	0.539566	0.350391
C145	C	-0.503654	-0.292235	-0.399604
C146	C	-0.253654	-0.042235	-0.149604
C147	C	-0.003654	0.207765	0.100396
C148	C	0.246346	0.457765	0.350396
C149	C	-0.436648	-1.071648	-0.855562
C150	C	-0.186648	-0.821648	-0.605562
C151	C	0.063352	-0.571648	-0.355562
C152	C	0.313352	-0.321648	-0.105562
C153	C	-0.436618	-1.071659	-0.932418
C154	C	-0.186618	-0.821659	-0.682418
C155	C	0.063382	-0.571659	-0.432418
C156	C	0.313382	-0.321659	-0.182418
C157	C	-0.570258	-0.965536	-0.944328
C158	C	-0.320258	-0.715536	-0.694328
C159	C	-0.070258	-0.465536	-0.444328
C160	C	0.179742	-0.215536	-0.194328
C161	C	-0.570282	-0.965521	-0.867473
C162	C	-0.320282	-0.715521	-0.617473
C163	C	-0.070282	-0.465521	-0.367473
C164	C	0.179718	-0.215521	-0.117473
C165	C	-0.503479	-1.018582	-0.823092
C166	C	-0.253479	-0.768582	-0.573092
C167	C	-0.003479	-0.518582	-0.323092
C168	C	0.246521	-0.268582	-0.073092
C169	C	-0.503424	-1.018607	-0.976804
C170	C	-0.253424	-0.768607	-0.726804
C171	C	-0.003424	-0.518607	-0.476804
C172	C	0.246576	-0.268607	-0.226804
C173	C	-0.503392	-1.018619	-1.060134
C174	C	-0.253392	-0.768619	-0.810134
C175	C	-0.003392	-0.518619	-0.560134
C176	C	0.246608	-0.268619	-0.310134
C177	C	-0.503510	-1.018569	-0.739756
C178	C	-0.253510	-0.768569	-0.489756
C179	C	-0.003510	-0.518569	-0.239756
C180	C	0.246490	-0.268569	0.010244
C181	C	-0.503633	-1.018483	-0.208384
C182	C	-0.253633	-0.768483	0.041616
C183	C	-0.003633	-0.518483	0.291616
C184	C	0.246367	-0.268483	0.541616
C185	C	-0.503369	-1.018630	-0.126562
C186	C	-0.253369	-0.768630	0.123438
C187	C	-0.003369	-0.518630	0.373438
C188	C	0.246631	-0.268630	0.623438
H189	H	-0.382519	-0.460014	-0.474296
H190	H	-0.132519	-0.210014	-0.224296
H191	H	0.117481	0.039986	0.025704
H192	H	0.367481	0.289986	0.275704
H193	H	-0.382250	-1.114851	-0.819429
H194	H	-0.132250	-0.864851	-0.569429
H195	H	0.117750	-0.614851	-0.319429
H196	H	0.367750	-0.364851	-0.069429
H197	H	-0.624749	-0.438268	-0.324893
H198	H	-0.374749	-0.188268	-0.074893
H199	H	-0.124749	0.061732	0.175107
H200	H	0.125251	0.311732	0.425107
H201	H	-0.898540	-1.066211	-0.351953
H202	H	-0.648540	-0.816211	-0.101953
H203	H	-0.398540	-0.566211	0.148047
H204	H	-0.148540	-0.316211	0.398047
H205	H	-0.624703	-0.922303	-0.841036
H206	H	-0.374703	-0.672303	-0.591036
H207	H	-0.124703	-0.422303	-0.341036
H208	H	0.125297	-0.172303	-0.091036
H209	H	-0.624649	-0.922337	-0.980473
H210	H	-0.374649	-0.672337	-0.730473
H211	H	-0.124649	-0.422337	-0.480473
H212	H	0.125351	-0.172337	-0.230473
H213	H	-0.382502	-0.599443	-0.474293
H214	H	-0.132502	-0.349443	-0.224293
H215	H	0.117498	-0.099443	0.025707
H216	H	0.367498	0.150557	0.275707
C217	C	-1.123303	-0.956103	-0.462019
C218	C	-0.873303	-0.706103	-0.212019
C219	C	-0.623303	-0.456103	0.037981
C220	C	-0.373303	-0.206103	0.287981
N221	N	-1.168624	-0.913075	-0.505005
N222	N	-0.918624	-0.663075	-0.255005
N223	N	-0.668624	-0.413075	-0.005005
N224	N	-0.418624	-0.163075	0.244995
H225	H	-0.624711	-0.577713	-0.324888
H226	H	-0.374711	-0.327713	-0.074888
H227	H	-0.124711	-0.077713	0.175112
H228	H	0.125289	0.172287	0.425112
C229	C	-1.054744	-1.110501	-0.307814
C230	C	-0.804744	-0.860501	-0.057814
C231	C	-0.554744	-0.610501	0.192186
C232	C	-0.304744	-0.360501	0.442186
N233	N	-1.009425	-1.153527	-0.264824
N234	N	-0.759425	-0.903527	-0.014824
N235	N	-0.509425	-0.653527	0.235176
N236	N	-0.259425	-0.403527	0.485176
H237	H	-0.382196	-1.114870	-0.958851
H238	H	-0.132196	-0.864870	-0.708851
H239	H	0.117804	-0.614870	-0.458851
H240	H	0.367804	-0.364870	-0.208851
H241	H	-0.935847	-0.941508	-0.476493
H242	H	-0.685847	-0.691508	-0.226493
H243	H	-0.435847	-0.441508	0.023507
H244	H	-0.185847	-0.191508	0.273507
