data_functionalizedCrystal
_audit_creation_method	'MofGen! by Chris Wilmer'
_symmetry_space_group_name_H-M	'P1'
_symmetry_Int_Tables_number	1
_symmetry_cell_setting	triclinic
loop_
_symmetry_equiv_pos_as_xyz
  x,y,z
_cell_length_a	14.044190
_cell_length_b	17.699083
_cell_length_c	16.176319
_cell_angle_alpha	90.002740
_cell_angle_beta	89.998355
_cell_angle_gamma	91.762604
loop_
_atom_site_label
_atom_site_type_symbol
_atom_site_fract_x
_atom_site_fract_y
_atom_site_fract_z
O1	O	0.119833	-1.012345	0.068631
O2	O	0.619833	-0.512345	0.568631
O3	O	0.135425	-0.793043	0.068661
O4	O	0.635425	-0.293043	0.568661
O5	O	-0.010348	-0.899399	0.068630
O6	O	0.489652	-0.399399	0.568630
O7	O	0.265606	-0.905988	0.068662
O8	O	0.765606	-0.405988	0.568662
O9	O	-0.010322	-0.899390	-0.068863
O10	O	0.489678	-0.399390	0.431137
O11	O	0.135452	-0.793033	-0.068832
O12	O	0.635452	-0.293033	0.431168
O13	O	0.119859	-1.012336	-0.068862
O14	O	0.619859	-0.512336	0.431138
Cu15	Cu	0.127658	-0.902684	-0.081402
Cu16	Cu	0.627658	-0.402684	0.418598
Cu17	Cu	0.127627	-0.902695	0.081200
Cu18	Cu	0.627627	-0.402695	0.581200
O19	O	0.265633	-0.905979	-0.068832
O20	O	0.765633	-0.405979	0.431168
C21	C	0.134880	-0.764802	-0.000082
C22	C	0.634880	-0.264802	0.499918
C23	C	0.133204	-0.680669	-0.000071
C24	C	0.633204	-0.180669	0.499929
C25	C	0.218770	-0.637952	-0.000062
C26	C	0.718770	-0.137952	0.499938
C27	C	0.217189	-0.558900	-0.000072
C28	C	0.717189	-0.058900	0.499928
C29	C	0.130042	-0.522565	-0.000086
C30	C	0.630042	-0.022565	0.499914
C31	C	0.044469	-0.565288	-0.000098
C32	C	0.544469	-0.065288	0.499902
C33	C	0.046051	-0.644339	-0.000094
C34	C	0.546051	-0.144339	0.499906
C35	C	0.038089	-0.246485	-0.000117
C36	C	0.538089	0.253515	0.499883
C37	C	0.036514	-0.167428	-0.000119
C38	C	0.536514	0.332572	0.499881
C39	C	0.209227	-0.161045	-0.000095
C40	C	0.709227	0.338955	0.499905
C41	C	0.210809	-0.240096	-0.000090
C42	C	0.710809	0.259904	0.499910
C43	C	0.125237	-0.282812	-0.000107
C44	C	0.625237	0.217188	0.499893
C45	C	0.126952	-0.368529	-0.000098
C46	C	0.626952	0.131471	0.499902
C47	C	0.128326	-0.436849	-0.000090
C48	C	0.628326	0.063151	0.499910
C49	C	-0.045643	-0.896512	-0.000119
C50	C	0.454357	-0.396512	0.499881
C51	C	-0.150849	-0.887914	-0.000125
C52	C	0.349151	-0.387914	0.499875
C53	C	-0.401240	-0.933175	-0.000099
C54	C	0.098760	-0.433175	0.499901
C55	C	-0.343470	-0.872207	-0.000096
C56	C	0.156530	-0.372207	0.499904
C57	C	-0.236286	-0.880949	-0.000112
C58	C	0.263714	-0.380949	0.499888
C59	C	-0.508434	-0.924434	-0.000083
C60	C	-0.008434	-0.424434	0.499917
C61	C	0.300927	-0.908866	-0.000081
C62	C	0.800927	-0.408866	0.499919
C63	C	0.406133	-0.917464	-0.000070
C64	C	0.906133	-0.417464	0.499930
C65	C	0.120405	-0.040576	-0.000116
C66	C	0.620405	0.459424	0.499884
C67	C	0.122081	-0.124710	-0.000115
C68	C	0.622081	0.375290	0.499885
N69	N	0.127679	-0.902681	-0.195767
N70	N	0.627679	-0.402681	0.304233
C71	C	0.070196	-0.852924	-0.761157
C72	C	0.570196	-0.352924	-0.261157
C73	C	0.070204	-0.852923	-0.674610
C74	C	0.570204	-0.352923	-0.174610
C75	C	0.127618	-0.902697	-0.631342
C76	C	0.627618	-0.402697	-0.131342
C77	C	0.185022	-0.952481	-0.674626
C78	C	0.685022	-0.452481	-0.174626
C79	C	0.185009	-0.952485	-0.761171
C80	C	0.685009	-0.452485	-0.261171
C81	C	0.185075	-0.952466	-0.325598
C82	C	0.685075	-0.452466	0.174402
C83	C	0.185086	-0.952457	-0.239046
C84	C	0.685086	-0.452457	0.260954
C85	C	0.070270	-0.852904	-0.239036
C86	C	0.570270	-0.352904	0.260964
C87	C	0.070257	-0.852908	-0.325582
C88	C	0.570257	-0.352908	0.174418
C89	C	0.127657	-0.902694	-0.368858
C90	C	0.627657	-0.402694	0.131142
C91	C	0.127647	-0.902696	-0.462702
C92	C	0.627647	-0.402696	0.037298
C93	C	0.127634	-0.902693	-0.537500
C94	C	0.627634	-0.402693	-0.037500
N95	N	0.127598	-0.902703	0.195565
N96	N	0.627598	-0.402703	0.695565
H97	H	-0.023626	-0.679118	-0.000102
H98	H	0.476374	-0.179118	0.499898
N99	N	0.011583	-0.802056	-0.630416
N100	N	0.511583	-0.302056	-0.130416
N101	N	-0.039656	-0.757605	-0.669058
N102	N	0.460344	-0.257605	-0.169058
H103	H	-0.081053	-0.721672	-0.637847
H104	H	0.418947	-0.221672	-0.137847
H105	H	0.023530	-0.812367	-0.203790
H106	H	0.523530	-0.312367	0.296210
H107	H	0.231843	-0.992992	-0.203820
H108	H	0.731843	-0.492992	0.296180
N109	N	-0.049311	-0.290119	-0.000136
N110	N	0.450689	0.209881	0.499864
N111	N	-0.067690	-0.334945	-0.058095
N112	N	0.432310	0.165055	0.441905
H113	H	-0.129421	-0.365765	-0.058109
H114	H	0.370579	0.134235	0.441891
H115	H	0.231751	-0.993021	-0.796407
H116	H	0.731751	-0.493021	-0.296407
N117	N	-0.044543	-0.528164	-0.000122
N118	N	0.455457	-0.028164	0.499878
N119	N	-0.045945	-0.457583	-0.000125
N120	N	0.454055	0.042417	0.499875
H121	H	-0.108812	-0.431365	-0.000139
H122	H	0.391188	0.068635	0.499861
H123	H	0.231765	-0.993012	-0.639390
H124	H	0.731765	-0.493012	-0.139390
H125	H	0.023508	-0.812374	-0.360806
H126	H	0.523508	-0.312374	0.139194
N127	N	0.304602	-0.515277	-0.000066
N128	N	0.804602	-0.015277	0.499934
N129	N	0.382406	-0.547727	-0.000050
N130	N	0.882406	-0.047727	0.499950
H131	H	0.444146	-0.516920	-0.000047
H132	H	0.944146	-0.016920	0.499953
N133	N	0.307799	-0.675051	-0.000039
N134	N	0.807799	-0.175051	0.499961
N135	N	0.384190	-0.636898	-0.000032
N136	N	0.884190	-0.136898	0.499968
H137	H	0.447071	-0.663096	-0.000019
H138	H	0.947071	-0.163096	0.499981
H139	H	0.281773	-0.269675	-0.000075
H140	H	0.781773	0.230325	0.499925
H141	H	0.278904	-0.126257	-0.000085
H142	H	0.778904	0.373743	0.499915
H143	H	-0.370201	-0.991931	-0.000115
H144	H	0.129799	-0.491931	0.499885
H145	H	0.231814	-0.993005	-0.360823
H146	H	0.731814	-0.493005	0.139177
N147	N	-0.052519	-0.130324	-0.000131
N148	N	0.447481	0.369676	0.499869
N149	N	-0.128915	-0.168470	-0.000146
N150	N	0.371085	0.331530	0.499854
H151	H	-0.191792	-0.142266	-0.000153
H152	H	0.308208	0.357734	0.499847
H153	H	-0.374510	-0.813446	-0.000083
H154	H	0.125490	-0.313446	0.499917
H155	H	0.023448	-0.812388	-0.796380
H156	H	0.523448	-0.312388	-0.296380
