data_functionalizedCrystal
_audit_creation_method	'MofGen! by Chris Wilmer'
_symmetry_space_group_name_H-M	'P1'
_symmetry_Int_Tables_number	1
_symmetry_cell_setting	triclinic
loop_
_symmetry_equiv_pos_as_xyz
  x,y,z
_cell_length_a	15.297475
_cell_length_b	16.625546
_cell_length_c	15.299448
_cell_angle_alpha	99.703243
_cell_angle_beta	110.793752
_cell_angle_gamma	80.324704
loop_
_atom_site_label
_atom_site_type_symbol
_atom_site_fract_x
_atom_site_fract_y
_atom_site_fract_z
Zn1	Zn	1.512839	-0.436013	0.771474
Zn2	Zn	1.485795	-0.590728	0.615929
Zn3	Zn	1.330387	-0.435989	0.589101
Zn4	Zn	1.357273	-0.550874	0.744545
O5	O	1.421574	-0.503401	0.680262
O6	O	1.639395	-0.473225	0.773338
O7	O	1.442610	-0.586870	0.482220
O8	O	1.354657	-0.323163	0.613335
O9	O	1.619526	-0.586893	0.659060
O10	O	1.488703	-0.323181	0.747324
O11	O	1.328433	-0.473184	0.462510
O12	O	1.203810	-0.434540	0.587223
O13	O	1.400479	-0.518969	0.878267
O14	O	1.223563	-0.518946	0.701427
O15	O	1.514773	-0.434581	0.898052
O16	O	1.468680	-0.698270	0.632948
O17	O	1.374255	-0.668990	0.727441
C18	C	1.179942	-0.472416	0.638492
C19	C	1.076574	-0.459177	0.620645
C20	C	1.421479	-0.712885	0.680208
C21	C	1.421529	-0.802511	0.680231
C22	C	0.826374	-0.598026	0.807821
C23	C	0.923492	-0.610471	0.824587
C24	C	0.961767	-0.572649	0.773603
C25	C	0.902915	-0.522379	0.705850
C26	C	0.805786	-0.509938	0.689078
C27	C	0.941180	-0.484561	0.654860
C28	C	0.882327	-0.434291	0.587107
C29	C	0.785208	-0.421852	0.570338
C30	C	0.746933	-0.459675	0.621322
C31	C	1.038309	-0.497002	0.671632
C32	C	1.017721	-0.408914	0.552889
C33	C	0.920603	-0.396469	0.536123
C34	C	1.421708	-1.130695	0.680355
C35	C	1.421655	-1.039383	0.680323
C36	C	1.421617	-0.966606	0.680292
C37	C	1.421567	-0.875288	0.680261
C38	C	1.664149	-0.534507	0.722195
C39	C	1.767520	-0.547763	0.740065
C40	C	1.463641	-0.472332	0.922850
C41	C	1.481568	-0.459092	1.026226
C42	C	1.421698	-0.293099	0.680341
C43	C	1.421750	-0.203481	0.680375
C44	C	1.379723	-0.534297	0.438628
C45	C	1.361976	-0.547333	0.335283
C46	C	1.549498	-0.408934	1.085090
C47	C	1.566333	-0.396483	1.182216
C48	C	1.515246	-0.434195	1.220488
C49	C	1.447319	-0.484359	1.161624
C50	C	1.430477	-0.496806	1.064488
C51	C	1.396225	-0.522067	1.199885
C52	C	1.328299	-0.572231	1.141021
C53	C	1.311460	-0.584676	1.043895
C54	C	1.362548	-0.546964	1.005623
C55	C	1.413067	-0.509620	1.297021
C56	C	1.294047	-0.597492	1.276418
C57	C	1.277212	-0.609942	1.179293
H58	H	1.086218	-0.537931	0.726798
H59	H	0.795199	-0.628822	0.849319
N60	N	0.721727	-0.367646	0.497252
H61	H	0.760708	-0.345573	0.467498
H62	H	0.688025	-0.320367	0.528232
N63	N	1.533417	-0.420765	1.325247
H64	H	1.554541	-0.475268	1.351586
H65	H	1.473660	-0.394739	1.337547
H66	H	1.348846	-0.557101	0.926536
N67	N	1.486333	-0.455521	1.360495
H68	H	1.536402	-0.488648	1.408237
H69	H	1.455477	-0.408152	1.394206
N70	N	1.238166	-0.638747	0.980397
H71	H	1.208350	-0.660742	1.019376
H72	H	1.268986	-0.686084	0.946613
H73	H	1.591081	-0.378230	1.053919
N74	N	0.986956	-0.664688	0.897658
H75	H	0.981599	-0.641579	0.961221
H76	H	1.054262	-0.666819	0.900467
N77	N	1.639583	-0.342369	1.245687
H78	H	1.703097	-0.365572	1.240272
H79	H	1.642421	-0.340211	1.312998
H80	H	0.667852	-0.449543	0.607676
H81	H	1.221905	-0.650786	1.131352
N82	N	1.238931	-0.638162	1.317682
H83	H	1.259907	-0.622666	1.388146
H84	H	1.250420	-0.699778	1.303191
N85	N	1.066515	-0.586070	0.791681
H86	H	1.097990	-0.623654	0.842338
H87	H	1.092838	-0.531544	0.812899
H88	H	0.872671	-0.355539	0.480958
H89	H	1.048884	-0.378117	0.511372
