data_functionalizedCrystal
_audit_creation_method	'MofGen! by Chris Wilmer'
_symmetry_space_group_name_H-M	'P1'
_symmetry_Int_Tables_number	1
_symmetry_cell_setting	triclinic
loop_
_symmetry_equiv_pos_as_xyz
  x,y,z
_cell_length_a	10.489746
_cell_length_b	10.489741
_cell_length_c	13.596369
_cell_angle_alpha	89.994306
_cell_angle_beta	89.997615
_cell_angle_gamma	84.540238
loop_
_atom_site_label
_atom_site_type_symbol
_atom_site_fract_x
_atom_site_fract_y
_atom_site_fract_z
O1	O	1.694051	0.180002	-0.081725
O2	O	1.322856	0.196888	-0.081741
O3	O	1.516900	0.002847	-0.081727
O4	O	1.500007	0.374042	-0.081739
O5	O	1.516881	0.002836	0.081856
O6	O	1.322837	0.196877	0.081842
O7	O	1.694032	0.179991	0.081858
Zn8	Zn	1.508431	0.188432	0.107822
Zn9	Zn	1.508457	0.188446	-0.107705
O10	O	1.499988	0.374032	0.081844
C11	C	1.275315	0.195606	0.000048
C12	C	1.133686	0.191786	0.000042
C13	C	1.515614	-0.044690	0.000064
C14	C	1.511797	-0.186320	0.000062
C15	C	0.980828	0.066062	0.000060
C16	C	1.058212	0.128914	0.080710
C17	C	1.058187	0.128953	-0.080570
C18	C	0.958721	0.247895	0.080783
C19	C	0.958690	0.247918	-0.080569
C20	C	1.036025	0.310856	0.000100
C21	C	1.388333	-0.254462	0.000050
C22	C	1.446647	-0.346589	0.080707
C23	C	1.446695	-0.346553	-0.080573
C24	C	1.570162	-0.276581	0.080786
C25	C	1.570193	-0.276535	-0.080566
C26	C	1.628597	-0.368635	0.000111
C27	C	1.741573	0.181273	0.000067
C28	C	1.883202	0.185093	0.000066
C29	C	1.501273	0.421569	0.000051
C30	C	1.505091	0.563198	0.000046
N31	N	1.508423	0.188422	0.254914
N32	N	1.508475	0.188446	-0.254797
C33	C	1.508455	0.188448	0.656205
C34	C	1.508442	0.188445	0.544554
C35	C	1.508440	0.188436	0.455563
C36	C	1.508426	0.188431	0.343905
H37	H	0.956107	-0.037439	0.000145
O38	O	1.267173	-0.195374	0.000005
C39	C	1.201635	-0.232541	-0.084244
H40	H	1.248372	-0.328340	-0.112064
H41	H	1.097334	-0.242389	-0.064725
H42	H	1.206201	-0.156951	-0.144067
O43	O	1.384527	-0.383691	0.162122
C44	C	1.468278	-0.467850	0.218348
H45	H	1.571576	-0.451384	0.200332
H46	H	1.449600	-0.449197	0.299925
H47	H	1.451379	-0.571020	0.200256
O48	O	1.632542	-0.239676	0.162128
C49	C	1.740214	-0.177894	0.133355
H50	H	1.725237	-0.138915	0.055518
H51	H	1.753260	-0.095539	0.185980
H52	H	1.829209	-0.249265	0.135299
O53	O	0.907007	0.307811	-0.161992
C54	C	1.005329	0.352463	-0.219578
H55	H	1.099985	0.294346	-0.201983
H56	H	0.982002	0.341379	-0.300840
H57	H	1.013507	0.457768	-0.202476
O58	O	1.109806	0.068999	-0.161992
C59	C	1.011681	0.022282	-0.218589
H60	H	0.916496	0.079234	-0.200689
H61	H	1.033927	0.032953	-0.300083
H62	H	1.005272	-0.083117	-0.200764
H63	H	1.730200	-0.418057	0.000160
H64	H	1.101680	0.078661	0.148899
O65	O	0.907061	0.307575	0.162301
C66	C	0.842862	0.220151	0.218126
H67	H	0.883508	0.118247	0.199839
H68	H	0.856849	0.239120	0.299791
H69	H	0.736320	0.232393	0.199890
O70	O	1.065174	0.434441	0.000318
C71	C	1.014027	0.496717	0.085454
H72	H	0.999317	0.422519	0.144626
H73	H	1.083198	0.565886	0.113598
H74	H	0.918211	0.552104	0.066983
O75	O	1.632287	-0.239517	-0.162012
C76	C	1.566893	-0.274816	-0.246890
H77	H	1.462800	-0.286042	-0.227571
H78	H	1.570723	-0.197445	-0.305418
H79	H	1.614275	-0.369499	-0.276317
O80	O	1.384382	-0.383295	-0.161999
C81	C	1.343204	-0.274474	-0.218603
H82	H	1.404861	-0.193713	-0.200700
H83	H	1.352626	-0.299152	-0.300095
H84	H	1.238829	-0.242564	-0.200787
