data_functionalizedCrystal
_audit_creation_method	'MofGen! by Chris Wilmer'
_symmetry_space_group_name_H-M	'P1'
_symmetry_Int_Tables_number	1
_symmetry_cell_setting	triclinic
loop_
_symmetry_equiv_pos_as_xyz
  x,y,z
_cell_length_a	8.497374
_cell_length_b	8.497365
_cell_length_c	18.215407
_cell_angle_alpha	89.965465
_cell_angle_beta	89.998459
_cell_angle_gamma	90.037770
loop_
_atom_site_label
_atom_site_type_symbol
_atom_site_fract_x
_atom_site_fract_y
_atom_site_fract_z
Zn1	Zn	0.627641	-0.892191	1.125300
Zn2	Zn	0.891585	-0.628456	1.125228
Zn3	Zn	0.627814	-0.628409	1.002201
Zn4	Zn	0.891375	-0.892179	1.002250
O5	O	0.759604	-0.760309	1.063745
O6	O	0.662669	-0.857231	1.228275
O7	O	0.856755	-0.407687	1.108858
O8	O	0.407029	-0.663385	1.018541
O9	O	0.856587	-0.663466	1.228222
O10	O	0.406902	-0.857185	1.108981
O11	O	0.662965	-0.407652	1.018471
O12	O	0.662761	-0.663373	0.899224
O13	O	0.856230	-1.112943	1.018623
O14	O	0.856398	-0.857164	0.899259
O15	O	0.662465	-1.112952	1.109028
O16	O	1.112319	-0.663454	1.108905
O17	O	1.112165	-0.857210	1.018554
C18	C	0.759577	-0.760263	0.872539
C19	C	0.759603	-0.760281	0.790740
C20	C	0.860589	-0.861062	0.602584
C21	C	0.860593	-0.861081	0.525725
C22	C	0.658648	-0.659590	0.525658
C23	C	0.658636	-0.659579	0.602516
C24	C	0.759615	-0.760313	0.640976
C25	C	0.759632	-0.760343	0.487260
C26	C	0.759637	-0.760364	0.403927
C27	C	0.759609	-0.760295	0.724315
C28	C	1.169484	-0.760331	1.063736
C29	C	1.348128	-0.760306	1.063755
C30	C	0.759776	-0.350429	1.063692
C31	C	0.759452	-0.171785	1.063797
C32	C	0.759632	-0.760355	1.255698
C33	C	0.759644	-0.760375	1.337497
H34	H	0.576436	-0.577574	0.494334
H35	H	0.942814	-0.943123	0.494469
H36	H	0.576401	-0.577537	0.633776
H37	H	0.942809	-0.943089	0.633896
