data_functionalizedCrystal
_audit_creation_method	'MofGen! by Chris Wilmer'
_symmetry_space_group_name_H-M	'P1'
_symmetry_Int_Tables_number	1
_symmetry_cell_setting	triclinic
loop_
_symmetry_equiv_pos_as_xyz
  x,y,z
_cell_length_a	16.109301
_cell_length_b	26.210047
_cell_length_c	16.109301
_cell_angle_alpha	90.003078
_cell_angle_beta	96.538519
_cell_angle_gamma	90.006315
loop_
_atom_site_label
_atom_site_type_symbol
_atom_site_fract_x
_atom_site_fract_y
_atom_site_fract_z
O1	O	1.103139	0.042398	-0.106855
O2	O	1.603139	0.542398	0.393145
O3	O	0.861077	0.042407	-0.120155
O4	O	1.361077	0.542407	0.379845
O5	O	0.988757	0.042397	0.007526
O6	O	1.488757	0.542397	0.507526
O7	O	0.975458	0.042408	-0.234536
O8	O	1.475458	0.542408	0.265464
O9	O	0.988733	-0.042461	0.007506
O10	O	1.488733	0.457539	0.507506
O11	O	0.861052	-0.042451	-0.120174
O12	O	1.361052	0.457549	0.379826
O13	O	1.103114	-0.042460	-0.106875
O14	O	1.603114	0.457540	0.393125
Cu15	Cu	0.982081	-0.050204	-0.113527
Cu16	Cu	1.482081	0.449796	0.386473
Cu17	Cu	0.982110	0.050151	-0.113503
Cu18	Cu	1.482110	0.550151	0.386497
O19	O	0.975433	-0.042450	-0.234556
O20	O	1.475433	0.457550	0.265444
C21	C	0.830090	-0.000021	-0.119626
C22	C	1.330090	0.499979	0.380374
C23	C	0.737794	-0.000018	-0.118011
C24	C	1.237794	0.499982	0.381989
N25	N	0.982066	-0.120788	-0.113543
N26	N	1.482066	0.379212	0.386457
C27	C	0.515522	-0.000021	-0.190018
C28	C	1.015522	0.499979	0.309982
C29	C	0.428801	-0.000024	-0.188494
C30	C	0.928801	0.499976	0.311506
C31	C	0.448676	-0.000029	-0.037006
C32	C	0.948676	0.499971	0.462994
C33	C	0.535394	-0.000029	-0.038530
C34	C	1.035394	0.499971	0.461470
C35	C	0.568815	-0.000023	-0.115039
C36	C	1.068815	0.499977	0.384961
C37	C	0.395376	-0.000026	-0.111990
C38	C	0.895376	0.499974	0.388010
C39	C	0.301350	-0.000029	-0.110337
C40	C	0.801350	0.499971	0.389663
C41	C	0.662847	-0.000020	-0.116693
C42	C	1.162847	0.499980	0.383307
C43	C	1.038641	-0.473306	-0.056979
C44	C	1.538641	0.026694	0.443021
C45	C	1.038659	-0.686965	-0.056967
C46	C	1.538659	-0.186965	0.443033
O47	O	1.086729	-0.714590	-0.008878
O48	O	1.586729	-0.214590	0.491122
N49	N	0.982114	-0.713682	-0.113485
N50	N	1.482114	-0.213682	0.386515
C51	C	0.925557	-0.686981	-0.170006
C52	C	1.425557	-0.186981	0.329994
O53	O	0.877457	-0.714608	-0.218071
O54	O	1.377457	-0.214608	0.281929
C55	C	0.925535	-0.473323	-0.170012
C56	C	1.425535	0.026677	0.329988
C57	C	0.982090	-0.446609	-0.113497
C58	C	1.482090	0.053391	0.386503
C59	C	1.095190	-0.446592	-0.000467
C60	C	1.595190	0.053408	0.499533
C61	C	1.095188	-0.393180	-0.000474
C62	C	1.595188	0.106820	0.499526
C63	C	1.038637	-0.366483	-0.056992
C64	C	1.538637	0.133517	0.443008
C65	C	0.982088	-0.393197	-0.113503
C66	C	1.482088	0.106803	0.386497
C67	C	0.868975	-0.446623	-0.226529
C68	C	1.368975	0.053377	0.273471
C69	C	0.868973	-0.393205	-0.226524
C70	C	1.368973	0.106795	0.273476
C71	C	0.925527	-0.366491	-0.170008
C72	C	1.425527	0.133509	0.329992
C73	C	0.925534	-0.313089	-0.170028
C74	C	1.425534	0.186911	0.329972
N75	N	0.982079	-0.286372	-0.113510
N76	N	1.482079	0.213628	0.386490
C77	C	1.038631	-0.313069	-0.056992
C78	C	1.538631	0.186931	0.443008
C79	C	0.925573	-0.799154	-0.169999
C80	C	1.425573	-0.299154	0.330001
C81	C	0.925580	-0.852568	-0.169998
C82	C	1.425580	-0.352568	0.330002
C83	C	1.038681	-0.852548	-0.056959
C84	C	1.538681	-0.352548	0.443041
C85	C	1.038678	-0.799133	-0.056964
C86	C	1.538678	-0.299133	0.443036
C87	C	0.982119	-0.772437	-0.113482
C88	C	1.482119	-0.272437	0.386518
C89	C	1.038623	-0.200901	-0.057011
C90	C	1.538623	0.299099	0.442989
C91	C	1.038618	-0.147485	-0.057025
C92	C	1.538618	0.352515	0.442975
C93	C	0.925513	-0.147509	-0.170061
C94	C	1.425513	0.352491	0.329939
C95	C	0.925521	-0.200921	-0.170050
C96	C	1.425521	0.299079	0.329950
C97	C	0.982079	-0.227615	-0.113518
C98	C	1.482079	0.272385	0.386482
O99	O	0.877483	-0.285430	-0.218085
O100	O	1.377483	0.214570	0.281915
O101	O	1.086712	-0.285433	-0.008922
O102	O	1.586712	0.214567	0.491078
C103	C	1.038643	-0.526717	-0.056972
C104	C	1.538643	-0.026717	0.443028
C105	C	0.982094	-0.553432	-0.113484
C106	C	1.482094	-0.053432	0.386516
C107	C	0.925543	-0.526735	-0.170002
C108	C	1.425543	-0.026735	0.329998
C109	C	0.982100	-0.606846	-0.113483
C110	C	1.482100	-0.106846	0.386517
C111	C	1.038652	-0.633543	-0.056965
C112	C	1.538652	-0.133543	0.443035
C113	C	1.095197	-0.606826	-0.000448
C114	C	1.595197	-0.106826	0.499552
C115	C	1.095195	-0.553415	-0.000454
C116	C	1.595195	-0.053415	0.499546
C117	C	0.868998	-0.553452	-0.226519
C118	C	1.368998	-0.053452	0.273481
C119	C	0.869005	-0.606863	-0.226509
C120	C	1.369005	-0.106863	0.273491
C121	C	0.925556	-0.633560	-0.169991
C122	C	1.425556	-0.133560	0.330009
C123	C	1.134101	-0.000031	-0.107404
C124	C	1.634101	0.499969	0.392596
C125	C	1.226397	-0.000030	-0.109019
C126	C	1.726397	0.499970	0.390981
C127	C	0.988206	-0.000032	0.038491
C128	C	1.488206	0.499968	0.538491
C129	C	0.986591	-0.000033	0.130786
C130	C	1.486591	0.499967	0.630786
N131	N	0.982131	0.120735	-0.113480
N132	N	1.482131	0.620735	0.386520
C133	C	0.975984	-0.000020	-0.265521
C134	C	1.475984	0.499980	0.234479
C135	C	0.977600	-0.000016	-0.357816
C136	C	1.477600	0.499984	0.142184
C137	C	1.058599	-0.000027	0.353059
C138	C	1.558599	0.499973	0.853059
C139	C	1.057075	-0.000023	0.439779
C140	C	1.557075	0.499977	0.939779
C141	C	0.905586	-0.000020	0.419905
C142	C	1.405586	0.499980	0.919905
C143	C	0.907111	-0.000020	0.333186
C144	C	1.407111	0.499980	0.833186
C145	C	0.983620	-0.000027	0.299766
C146	C	1.483620	0.499973	0.799766
C147	C	0.980571	-0.000022	0.473205
C148	C	1.480571	0.499978	0.973205
C149	C	0.978918	-0.000017	0.567231
C150	C	1.478918	0.499983	1.067231
C151	C	0.985273	-0.000030	0.205734
C152	C	1.485273	0.499970	0.705734
H153	H	0.542730	-0.000020	-0.252317
H154	H	1.042730	0.499980	0.247683
Cl155	Cl	0.809409	-0.000012	0.461926
Cl156	Cl	1.309409	0.499988	0.961926
H157	H	0.385413	-0.000024	-0.249550
H158	H	0.885413	0.499976	0.250450
Cl159	Cl	1.109776	-0.765555	0.014088
Cl160	Cl	1.609776	-0.265555	0.514088
H161	H	0.421454	-0.000037	0.025285
H162	H	0.921454	0.499963	0.525285
Cl163	Cl	0.602397	-0.000036	0.055737
Cl164	Cl	1.102397	0.499964	0.555737
H165	H	0.879537	-0.874315	-0.216027
H166	H	1.379537	-0.374315	0.283973
Cl167	Cl	1.109721	-0.113904	0.014027
Cl168	Cl	1.609721	0.386096	0.514027
H169	H	0.846050	-0.000018	0.289792
H170	H	1.346050	0.499982	0.789792
H171	H	0.822953	-0.628610	-0.272538
H172	H	1.322953	-0.128610	0.227462
H173	H	1.084676	-0.222630	-0.010976
H174	H	1.584676	0.277370	0.489024
H175	H	1.141237	-0.371433	0.045548
H176	H	1.641237	0.128567	0.545548
Cl177	Cl	1.166293	-0.480145	0.070593
Cl178	Cl	1.666293	0.019855	0.570593
H179	H	0.879472	-0.125764	-0.216080
H180	H	1.379472	0.374236	0.283920
Cl181	Cl	1.109772	-0.886121	0.014093
Cl182	Cl	1.609772	-0.386121	0.514093
H183	H	0.879514	-0.777422	-0.216024
H184	H	1.379514	-0.277422	0.283976
Cl185	Cl	0.797872	-0.480196	-0.297578
Cl186	Cl	1.297872	0.019804	0.202422
H187	H	0.822912	-0.371472	-0.272546
H188	H	1.322912	0.128528	0.227454
Cl189	Cl	0.854430	-0.234503	-0.241110
Cl190	Cl	1.354430	0.265497	0.258890
Cl191	Cl	1.151339	-0.000023	0.506773
Cl192	Cl	1.651339	0.499977	1.006773
H193	H	1.141246	-0.531668	0.045566
H194	H	1.641246	-0.031668	0.545566
Cl195	Cl	1.166291	-0.640398	0.070601
Cl196	Cl	1.666291	-0.140398	0.570601
Cl197	Cl	0.797899	-0.519896	-0.297578
Cl198	Cl	1.297899	-0.019896	0.202422
H199	H	1.120897	-0.000031	0.325851
H200	H	1.620897	0.499969	0.825851
