data_functionalizedCrystal
_audit_creation_method	'MofGen! by Chris Wilmer'
_symmetry_space_group_name_H-M	'P1'
_symmetry_Int_Tables_number	1
_symmetry_cell_setting	triclinic
loop_
_symmetry_equiv_pos_as_xyz
  x,y,z
_cell_length_a	16.109301
_cell_length_b	15.186229
_cell_length_c	16.109301
_cell_angle_alpha	89.994833
_cell_angle_beta	83.461481
_cell_angle_gamma	89.996650
loop_
_atom_site_label
_atom_site_type_symbol
_atom_site_fract_x
_atom_site_fract_y
_atom_site_fract_z
O1	O	1.103131	-0.073231	0.106866
O2	O	0.861069	-0.073233	0.120165
O3	O	0.988749	-0.073223	-0.007515
O4	O	0.975450	-0.073241	0.234547
O5	O	0.988741	0.073234	-0.007517
O6	O	0.861060	0.073224	0.120164
O7	O	1.103122	0.073226	0.106864
Zn8	Zn	0.982090	0.096478	0.113514
Zn9	Zn	0.982101	-0.096485	0.113516
O10	O	0.975441	0.073216	0.234545
C11	C	0.830090	-0.000005	0.119626
C12	C	0.737794	-0.000005	0.118011
C13	C	0.988206	0.000006	-0.038491
C14	C	0.986591	0.000007	-0.130786
N15	N	0.982088	0.228171	0.113511
C16	C	1.134101	-0.000004	0.107404
C17	C	1.226397	-0.000009	0.109019
C18	C	1.448669	0.000000	0.037011
C19	C	1.535389	0.000003	0.038535
C20	C	1.515515	-0.000012	0.190024
C21	C	1.428796	-0.000009	0.188499
C22	C	1.395376	-0.000007	0.111990
C23	C	1.568815	-0.000008	0.115039
C24	C	1.662841	-0.000004	0.116692
C25	C	1.301344	-0.000009	0.110337
N26	N	0.982109	-0.228178	0.113512
C27	C	1.038644	0.453898	0.056994
C28	C	1.038647	0.546088	0.056992
C29	C	0.925547	0.546088	0.170032
C30	C	0.925541	0.453900	0.170030
C31	C	0.982094	0.407808	0.113511
C32	C	0.982103	0.592185	0.113512
C33	C	0.982105	0.692141	0.113510
C34	C	0.982091	0.307845	0.113512
C35	C	1.058599	-0.000006	-0.353059
C36	C	1.057075	-0.000013	-0.439779
C37	C	0.905586	-0.000011	-0.419905
C38	C	0.907111	-0.000010	-0.333186
C39	C	0.983620	-0.000003	-0.299766
C40	C	0.980571	-0.000012	-0.473205
C41	C	0.978918	-0.000019	-0.567231
C42	C	0.985273	0.000003	-0.205734
C43	C	0.975984	-0.000015	0.265521
C44	C	0.977600	-0.000022	0.357816
H45	H	1.578778	0.000011	-0.022520
C46	C	1.370789	0.000023	0.269821
C47	C	1.287693	0.000051	0.252107
C48	C	1.234235	0.000095	0.326995
H49	H	1.380809	-0.051041	0.301251
H50	H	1.380866	0.051112	0.301201
H51	H	1.277620	-0.051032	0.220740
H52	H	1.277647	0.051111	0.220689
H53	H	1.244311	0.051184	0.358375
H54	H	1.244262	-0.050970	0.358420
H55	H	1.177848	0.000123	0.314987
H56	H	0.843295	-0.000015	-0.447127
H57	H	0.846050	-0.000011	-0.289792
C58	C	1.138572	0.000031	-0.497502
C59	C	1.205896	0.000059	-0.449669
C60	C	1.280987	0.000111	-0.502814
H61	H	1.141249	-0.051029	-0.531757
H62	H	1.141169	0.051123	-0.531739
H63	H	1.203301	-0.051027	-0.415447
H64	H	1.203247	0.051116	-0.415416
H65	H	1.283584	0.051203	-0.537051
H66	H	1.283656	-0.050951	-0.537066
H67	H	1.326676	0.000138	-0.470367
C68	C	1.412544	0.000055	-0.046137
C69	C	1.477781	0.000086	-0.111474
C70	C	1.444538	0.000150	-0.188083
H71	H	1.379143	-0.051003	-0.050003
H72	H	1.379150	0.051150	-0.049924
H73	H	1.511161	-0.051004	-0.107689
H74	H	1.511188	0.051140	-0.107635
H75	H	1.411144	0.051245	-0.191870
H76	H	1.411137	-0.050908	-0.191941
H77	H	1.488796	0.000180	-0.232423
C78	C	1.551964	-0.000065	0.273003
C79	C	1.639315	-0.000091	0.258293
C80	C	1.672918	-0.000153	0.334714
H81	H	1.533760	0.050991	0.303939
H82	H	1.533716	-0.051161	0.303882
H83	H	1.657555	0.051000	0.227427
H84	H	1.657542	-0.051144	0.227369
H85	H	1.654670	-0.051249	0.365593
H86	H	1.654708	0.050905	0.365644
H87	H	1.732189	-0.000178	0.324744
C88	C	1.099941	0.403924	-0.004526
C89	C	1.086444	0.426373	-0.086216
C90	C	1.142886	0.380359	-0.142922
H91	H	1.155461	0.418994	0.004398
H92	H	1.091852	0.342405	0.003489
H93	H	1.094540	0.487878	-0.094228
H94	H	1.030935	0.411301	-0.095167
H95	H	1.134797	0.318841	-0.134907
H96	H	1.198403	0.395433	-0.133990
H97	H	1.133731	0.395578	-0.198355
C98	C	1.099914	0.596176	-0.004465
C99	C	1.055648	0.649093	-0.055391
C100	C	1.112060	0.695236	-0.112025
H101	H	1.134535	0.632204	0.025355
H102	H	1.133579	0.555546	-0.038172
H103	H	1.021997	0.689718	-0.021688
H104	H	1.021029	0.613086	-0.085229
H105	H	1.145725	0.654607	-0.145731
H106	H	1.146678	0.731260	-0.082197
H107	H	1.082034	0.731140	-0.146589
H108	H	0.879503	0.583626	0.216049
H109	H	0.879487	0.416371	0.216053
H110	H	1.120897	-0.000002	-0.325851
