data_functionalizedCrystal
_audit_creation_method	'MofGen! by Chris Wilmer'
_symmetry_space_group_name_H-M	'P1'
_symmetry_Int_Tables_number	1
_symmetry_cell_setting	triclinic
loop_
_symmetry_equiv_pos_as_xyz
  x,y,z
_cell_length_a	16.120530
_cell_length_b	18.050589
_cell_length_c	18.050582
_cell_angle_alpha	89.981795
_cell_angle_beta	87.088397
_cell_angle_gamma	87.123928
loop_
_atom_site_label
_atom_site_type_symbol
_atom_site_fract_x
_atom_site_fract_y
_atom_site_fract_z
Zn1	Zn	1.274469	-0.353358	-0.477436
Zn2	Zn	1.607802	-0.020024	-0.144103
Zn3	Zn	1.941136	0.313309	0.189231
Zn4	Zn	1.274369	-0.477536	-0.353251
Zn5	Zn	1.607702	-0.144203	-0.019918
Zn6	Zn	1.941035	0.189130	0.313416
Zn7	Zn	1.135065	-0.347063	-0.346971
Zn8	Zn	1.468398	-0.013730	-0.013637
Zn9	Zn	1.801731	0.319603	0.319696
Zn10	Zn	1.135006	-0.471202	-0.471112
Zn11	Zn	1.468340	-0.137868	-0.137778
Zn12	Zn	1.801673	0.195465	0.195555
O13	O	1.204727	-0.412290	-0.412192
O14	O	1.538060	-0.078956	-0.078859
O15	O	1.871394	0.254377	0.254474
O16	O	1.391120	-0.375115	-0.466238
O17	O	1.724454	-0.041782	-0.132904
O18	O	2.057787	0.291551	0.200429
O19	O	1.255872	-0.460246	-0.248492
O20	O	1.589205	-0.126912	0.084841
O21	O	1.922539	0.206421	0.418174
O22	O	1.153623	-0.243977	-0.364295
O23	O	1.486957	0.089357	-0.030962
O24	O	1.820290	0.422690	0.302371
O25	O	1.391047	-0.466349	-0.374999
O26	O	1.724380	-0.133016	-0.041666
O27	O	2.057713	0.200318	0.291667
O28	O	1.256043	-0.248601	-0.460148
O29	O	1.589376	0.084732	-0.126815
O30	O	1.922710	0.418066	0.206519
O31	O	1.153526	-0.364388	-0.243878
O32	O	1.486859	-0.031054	0.089455
O33	O	1.820193	0.302279	0.422788
O34	O	1.018392	-0.358245	-0.358163
O35	O	1.351726	-0.024912	-0.024830
O36	O	1.685059	0.308422	0.308504
O37	O	1.153524	-0.455552	-0.575876
O38	O	1.486857	-0.122219	-0.242543
O39	O	1.820191	0.211114	0.090791
O40	O	1.018349	-0.449449	-0.449369
O41	O	1.351683	-0.116116	-0.116036
O42	O	1.685016	0.217218	0.217298
O43	O	1.255986	-0.368973	-0.580523
O44	O	1.589320	-0.035640	-0.247189
O45	O	1.922653	0.297694	0.086144
O46	O	1.255816	-0.580618	-0.368867
O47	O	1.589149	-0.247284	-0.035534
O48	O	1.922482	0.086049	0.297800
O49	O	1.153427	-0.575964	-0.455459
O50	O	1.486760	-0.242630	-0.122126
O51	O	1.820093	0.090703	0.211208
C52	C	0.988121	-0.402477	-0.402399
C53	C	1.321454	-0.069144	-0.069065
C54	C	1.654788	0.264189	0.264268
C55	C	0.895456	-0.398297	-0.398227
C56	C	1.228789	-0.064964	-0.064893
C57	C	1.562122	0.268369	0.268440
C58	C	1.204626	-0.605237	-0.412175
C59	C	1.537960	-0.271904	-0.078842
C60	C	1.871293	0.061429	0.254491
C61	C	1.204660	-0.687785	-0.412197
C62	C	1.537993	-0.354451	-0.078863
C63	C	1.871326	-0.021118	0.254470
C64	C	0.725795	-0.390648	-0.390616
C65	C	1.059129	-0.057315	-0.057282
C66	C	1.392462	0.276018	0.276051
C67	C	0.684499	-0.433986	-0.433823
C68	C	1.017833	-0.100652	-0.100490
C69	C	1.351166	0.232681	0.232844
C70	C	0.590094	-0.429730	-0.429588
C71	C	0.923428	-0.096396	-0.096255
C72	C	1.256761	0.236937	0.237078
C73	C	0.820209	-0.394903	-0.394849
C74	C	1.153542	-0.061570	-0.061516
C75	C	1.486875	0.271763	0.271817
C76	C	1.149035	-0.884734	-0.459270
C77	C	1.482369	-0.551400	-0.125937
C78	C	1.815702	-0.218067	0.207396
C79	C	1.128719	-0.933249	-0.390586
C80	C	1.462052	-0.599915	-0.057253
C81	C	1.795385	-0.266582	0.276080
C82	C	1.204742	-0.838919	-0.412210
C83	C	1.538075	-0.505585	-0.078877
C84	C	1.871408	-0.172252	0.254457
C85	C	1.225099	-0.937487	-0.480903
C86	C	1.558432	-0.604154	-0.147570
C87	C	1.891766	-0.270820	0.185763
C88	C	1.204819	-0.984907	-0.412229
C89	C	1.538152	-0.651574	-0.078895
C90	C	1.871486	-0.318240	0.254438
C91	C	1.184385	-0.886344	-0.343488
C92	C	1.517718	-0.553011	-0.010155
C93	C	1.851052	-0.219678	0.323178
C94	C	1.280801	-0.890580	-0.433853
C95	C	1.614134	-0.557247	-0.100519
C96	C	1.947467	-0.223914	0.232814
C97	C	1.260513	-0.939074	-0.365123
C98	C	1.593846	-0.605741	-0.031790
C99	C	1.927180	-0.272407	0.301543
C100	C	1.204695	-0.754818	-0.412200
C101	C	1.538028	-0.421485	-0.078867
C102	C	1.871361	-0.088152	0.254467
C103	C	1.204866	-1.069006	-0.412231
C104	C	1.538199	-0.735672	-0.078898
C105	C	1.871533	-0.402339	0.254436
C106	C	1.422179	-0.422141	-0.422025
C107	C	1.755513	-0.088808	-0.088691
C108	C	2.088846	0.244526	0.244642
C109	C	1.514844	-0.426339	-0.426215
C110	C	1.848178	-0.093006	-0.092881
C111	C	2.181511	0.240328	0.240452
C112	C	1.204760	-0.412258	-0.605899
C113	C	1.538093	-0.078925	-0.272566
C114	C	1.871426	0.254408	0.060767
C115	C	1.204774	-0.412245	-0.688446
C116	C	1.538107	-0.078911	-0.355113
C117	C	1.871440	0.254422	-0.021779
C118	C	1.204851	-0.218590	-0.412227
C119	C	1.538184	0.114744	-0.078893
C120	C	1.871518	0.448077	0.254440
C121	C	1.204904	-0.136046	-0.412241
C122	C	1.538237	0.197287	-0.078908
C123	C	1.871570	0.530620	0.254426
C124	C	1.149097	-0.459261	-0.885372
C125	C	1.482431	-0.125928	-0.552039
C126	C	1.815764	0.207406	-0.218705
C127	C	1.225159	-0.480855	-0.938196
C128	C	1.558492	-0.147522	-0.604863
C129	C	1.891825	0.185812	-0.271530
C130	C	1.204815	-0.412190	-0.839578
C131	C	1.538148	-0.078857	-0.506245
C132	C	1.871482	0.254477	-0.172912
C133	C	1.128795	-0.390577	-0.933837
C134	C	1.462129	-0.057244	-0.600504
C135	C	1.795462	0.276090	-0.267171
C136	C	1.204848	-0.412138	-0.985565
C137	C	1.538181	-0.078805	-0.652232
C138	C	1.871515	0.254529	-0.318898
C139	C	1.280916	-0.433821	-0.891317
C140	C	1.614249	-0.100488	-0.557984
C141	C	1.947583	0.232845	-0.224651
C142	C	1.184501	-0.343510	-0.886952
C143	C	1.517835	-0.010176	-0.553618
C144	C	1.851168	0.323157	-0.220285
C145	C	1.260615	-0.365080	-0.939756
C146	C	1.593949	-0.031747	-0.606423
C147	C	1.927282	0.301586	-0.273090
C148	C	1.204795	-0.412222	-0.755479
C149	C	1.538128	-0.078888	-0.422146
C150	C	1.871461	0.254445	-0.088812
C151	C	1.204877	-0.412107	-1.069663
C152	C	1.538210	-0.078773	-0.736329
C153	C	1.871543	0.254560	-0.402996
C154	C	1.204743	-0.412270	-0.219241
C155	C	1.538076	-0.078936	0.114092
C156	C	1.871409	0.254397	0.447426
C157	C	1.204890	-0.412081	-0.136702
C158	C	1.538224	-0.078748	0.196631
C159	C	1.871557	0.254586	0.529964
H160	H	0.720045	-0.474283	-0.473995
H161	H	1.053378	-0.140949	-0.140662
H162	H	1.386711	0.192384	0.192671
H163	H	0.690252	-0.350354	-0.350447
H164	H	1.023586	-0.017021	-0.017114
H165	H	1.356919	0.316313	0.316220
H166	H	1.101857	-0.860953	-0.499005
H167	H	1.435190	-0.527619	-0.165672
H168	H	1.768524	-0.194286	0.167661
Br169	Br	1.021569	-0.964673	-0.360078
Br170	Br	1.354902	-0.631339	-0.026745
Br171	Br	1.688236	-0.298006	0.306589
H172	H	1.167123	-0.863997	-0.285383
H173	H	1.500457	-0.530664	0.047950
H174	H	1.833790	-0.197331	0.381283
Br175	Br	1.339091	-0.978480	-0.298730
Br176	Br	1.672425	-0.645147	0.034604
Br177	Br	2.005758	-0.311814	0.367937
H178	H	1.167278	-0.285465	-0.864455
H179	H	1.500611	0.047868	-0.531121
H180	H	1.833945	0.381201	-0.197788
H181	H	1.345070	-0.871709	-0.452174
H182	H	1.678404	-0.538376	-0.118841
H183	H	2.011737	-0.205043	0.214493
Br184	Br	1.339259	-0.298700	-0.979200
Br185	Br	1.672592	0.034633	-0.645867
Br186	Br	2.005926	0.367967	-0.312533
H187	H	1.102023	-0.499124	-0.861579
H188	H	1.435356	-0.165791	-0.528245
H189	H	1.768690	0.167543	-0.194912
Br190	Br	1.253832	-0.577624	-0.975664
Br191	Br	1.587165	-0.244291	-0.642331
Br192	Br	1.920499	0.089043	-0.308997
H193	H	1.345238	-0.452145	-0.872618
H194	H	1.678571	-0.118812	-0.539285
H195	H	2.011904	0.214521	-0.205951
H196	H	1.064493	-0.372319	-0.952629
H197	H	1.397826	-0.038986	-0.619296
H198	H	1.731159	0.294348	-0.285962
Br199	Br	1.253744	-0.974884	-0.577714
Br200	Br	1.587078	-0.641550	-0.244381
Br201	Br	1.920411	-0.308217	0.088952
