data_functionalizedCrystal
_audit_creation_method	'MofGen! by Chris Wilmer'
_symmetry_space_group_name_H-M	'P1'
_symmetry_Int_Tables_number	1
_symmetry_cell_setting	triclinic
loop_
_symmetry_equiv_pos_as_xyz
  x,y,z
_cell_length_a	17.038272
_cell_length_b	10.540539
_cell_length_c	9.616153
_cell_angle_alpha	89.995174
_cell_angle_beta	90.002312
_cell_angle_gamma	92.181476
loop_
_atom_site_label
_atom_site_type_symbol
_atom_site_fract_x
_atom_site_fract_y
_atom_site_fract_z
O1	O	0.110247	-1.696176	0.115581
O2	O	0.120634	-1.327732	0.115599
O3	O	0.001613	-1.509764	0.115579
O4	O	0.229269	-1.514144	0.115601
O5	O	0.001615	-1.509738	-0.115712
O6	O	0.120637	-1.327705	-0.115693
O7	O	0.110249	-1.696149	-0.115710
Zn8	Zn	0.115443	-1.511923	-0.152424
Zn9	Zn	0.115440	-1.511958	0.152313
O10	O	0.229271	-1.514117	-0.115690
C11	C	-0.027537	-1.505768	-0.000066
C12	C	-0.114398	-1.493883	-0.000065
C13	C	0.119857	-1.280343	-0.000045
C14	C	0.117526	-1.139177	-0.000039
N15	N	0.115445	-1.511909	-0.360398
C16	C	-0.163886	-1.602994	-0.000072
C17	C	-0.245501	-1.591820	-0.000058
C18	C	-0.277626	-1.471534	-0.000048
C19	C	-0.228133	-1.362416	-0.000037
C20	C	-0.146519	-1.373591	-0.000041
C21	C	-0.523611	-1.432055	-0.000027
C22	C	-0.605231	-1.420888	-0.000027
C23	C	-0.622593	-1.650293	-0.000046
C24	C	-0.540977	-1.661457	-0.000058
C25	C	-0.491491	-1.552339	-0.000040
C26	C	-0.361050	-1.460110	-0.000038
C27	C	-0.408069	-1.563764	-0.000040
C28	C	0.258421	-1.518114	-0.000042
C29	C	0.345282	-1.529998	-0.000034
C30	C	0.111027	-1.743538	-0.000063
C31	C	0.113358	-1.884704	-0.000061
C32	C	0.028219	-0.947420	-0.000587
C33	C	0.030581	-1.094259	-0.000051
C34	C	0.159366	-1.081423	0.132039
C35	C	0.156399	-0.934602	0.132135
C36	C	0.158170	-0.934248	-0.130886
C37	C	0.158971	-1.081305	-0.132618
C38	C	0.178900	-1.414198	-0.580758
C39	C	0.179138	-1.414448	-0.419590
C40	C	0.134015	-1.646364	-0.418852
C41	C	0.134465	-1.645842	-0.580070
C42	C	0.033212	-1.476466	-0.580316
C43	C	0.033745	-1.473469	-0.419089
N44	N	0.115432	-1.511982	0.360287
H45	H	-0.137736	-1.700943	-0.000089
F46	F	-0.012580	-1.144782	0.124103
F47	F	-0.639419	-1.292858	-0.000023
H48	H	-0.387215	-1.362173	-0.000033
F49	F	0.015345	-1.344131	-0.369158
H50	H	-0.006128	-0.915620	-0.095308
F51	F	-0.028534	-1.569535	-0.630146
H52	H	-0.015754	-1.539379	-0.378802
H53	H	-0.483328	-1.343202	-0.000013
H54	H	0.015538	-1.380080	-0.621051
H55	H	-0.514827	-1.759406	-0.000067
F56	F	-0.093851	-1.257461	-0.000030
F57	F	-0.298166	-1.707951	-0.000068
F58	F	0.240254	-0.880178	-0.132046
F59	F	0.075243	-1.744216	-0.368740
F60	F	0.115976	-0.893969	0.261172
H61	H	-0.662893	-1.739130	-0.000058
H62	H	-0.005985	-0.914033	0.093600
H63	H	0.222359	-1.111443	-0.140586
F64	F	-0.262325	-1.234398	-0.000010
H65	H	-0.381909	-1.661700	-0.000017
H66	H	0.218928	-0.892466	0.138136
F67	F	-0.012450	-1.145934	-0.123803
H68	H	0.090100	-1.721346	-0.619066
H69	H	0.223216	-1.109732	0.136959
F70	F	0.121375	-1.133556	0.260513
H71	H	0.130034	-0.900066	-0.231000
F72	F	0.118956	-1.130971	-0.260332
H73	H	0.167964	-1.314789	-0.380072
F74	F	0.164511	-1.283546	-0.631455
H75	H	0.239555	-1.437523	-0.621252
F76	F	0.258877	-1.445240	-0.369151
H77	H	0.194450	-1.675792	-0.617653
H78	H	0.193323	-1.676794	-0.378457
