data_functionalizedCrystal
_audit_creation_method	'MofGen! by Chris Wilmer'
_symmetry_space_group_name_H-M	'P1'
_symmetry_Int_Tables_number	1
_symmetry_cell_setting	triclinic
loop_
_symmetry_equiv_pos_as_xyz
  x,y,z
_cell_length_a	17.699083
_cell_length_b	14.044190
_cell_length_c	16.776229
_cell_angle_alpha	89.988781
_cell_angle_beta	89.998886
_cell_angle_gamma	88.237396
loop_
_atom_site_label
_atom_site_type_symbol
_atom_site_fract_x
_atom_site_fract_y
_atom_site_fract_z
O1	O	1.012348	0.119850	-0.066185
O2	O	0.793046	0.135443	-0.066212
O3	O	0.899403	-0.010331	-0.066183
O4	O	0.905992	0.265624	-0.066213
O5	O	0.899387	-0.010339	0.066394
O6	O	0.793030	0.135434	0.066365
O7	O	1.012332	0.119841	0.066392
Zn8	Zn	0.902679	0.127636	0.087428
Zn9	Zn	0.902700	0.127648	-0.087248
O10	O	0.905976	0.265615	0.066363
C11	C	0.764802	0.134880	0.000073
C12	C	0.680669	0.133204	0.000064
C13	C	0.896512	-0.045643	0.000107
C14	C	0.887914	-0.150849	0.000113
C15	C	0.637952	0.218770	0.000054
C16	C	0.558900	0.217189	0.000065
C17	C	0.522565	0.130042	0.000079
C18	C	0.565288	0.044469	0.000090
C19	C	0.644339	0.046051	0.000086
C20	C	0.246485	0.038089	0.000111
C21	C	0.167428	0.036514	0.000113
C22	C	0.161045	0.209227	0.000090
C23	C	0.240096	0.210809	0.000085
C24	C	0.282812	0.125237	0.000101
C25	C	0.368529	0.126952	0.000091
C26	C	0.436849	0.128326	0.000083
C27	C	0.933175	-0.401240	0.000088
C28	C	0.872207	-0.343470	0.000086
C29	C	0.880949	-0.236286	0.000101
C30	C	0.924434	-0.508434	0.000072
C31	C	1.040576	0.120405	0.000105
C32	C	1.124710	0.122081	0.000110
C33	C	0.908866	0.300927	0.000071
C34	C	0.917464	0.406133	0.000060
N35	N	0.902670	0.127628	0.206639
N36	N	0.902714	0.127649	-0.206459
C37	C	0.949782	0.063106	0.248369
C38	C	0.949786	0.063105	0.331821
C39	C	0.902681	0.127631	0.373542
C40	C	0.855564	0.192157	0.331806
C41	C	0.855556	0.192152	0.248355
C42	C	0.855592	0.192175	0.668353
C43	C	0.855605	0.192177	0.751810
C44	C	0.949822	0.063128	0.751819
C45	C	0.949815	0.063123	0.668368
C46	C	0.902695	0.127645	0.626640
C47	C	0.902690	0.127644	0.536151
C48	C	0.902690	0.127638	0.464029
H49	H	0.667529	0.289735	0.000042
H50	H	0.817206	0.244692	0.365780
C51	C	0.293465	-0.056034	0.000117
H52	H	0.345749	-0.042617	0.000119
H53	H	0.281818	-0.091770	-0.046112
H54	H	0.281822	-0.091779	0.046358
H55	H	0.126257	0.278904	0.000081
C56	C	0.792825	-0.385391	0.000075
H57	H	0.755722	-0.335048	0.000072
H58	H	0.786885	-0.423510	0.046302
H59	H	0.786891	-0.423471	-0.046169
C60	C	1.012552	-0.359318	0.000115
H61	H	1.049658	-0.409657	0.000112
H62	H	1.018473	-0.321238	0.046354
H63	H	1.018497	-0.321199	-0.046116
C64	C	1.001597	-0.007876	0.202483
H65	H	1.029650	-0.046309	0.239291
H66	H	1.035397	0.026162	0.169917
H67	H	0.971703	-0.047291	0.169943
H68	H	0.817192	0.244691	0.214380
H69	H	0.817227	0.244712	0.634385
H70	H	0.988174	0.010583	0.634402
C71	C	0.280060	0.306671	0.000073
H72	H	0.243297	0.357406	0.000077
H73	H	0.310766	0.310884	-0.046159
H74	H	0.310764	0.310869	0.046311
H75	H	0.988148	0.010566	0.365797
C76	C	0.525326	-0.051394	0.000105
H77	H	0.562091	-0.102128	0.000117
H78	H	0.494620	-0.055599	-0.046126
H79	H	0.494622	-0.055604	0.046345
H80	H	0.679118	-0.023626	0.000093
H81	H	0.988188	0.010588	0.785803
C82	C	0.803786	0.263153	0.797705
H83	H	0.810547	0.253919	0.853382
H84	H	0.752585	0.252935	0.784042
H85	H	0.816271	0.326397	0.784015
C86	C	0.511914	0.311312	0.000052
H87	H	0.544875	0.363440	0.000033
H88	H	0.480946	0.314287	0.046286
H89	H	0.480942	0.314285	-0.046184
H90	H	0.137847	-0.034456	0.000126
