data_functionalizedCrystal
_audit_creation_method	'MofGen! by Chris Wilmer'
_symmetry_space_group_name_H-M	'P1'
_symmetry_Int_Tables_number	1
_symmetry_cell_setting	triclinic
loop_
_symmetry_equiv_pos_as_xyz
  x,y,z
_cell_length_a	15.624803
_cell_length_b	15.538191
_cell_length_c	17.766277
_cell_angle_alpha	89.995273
_cell_angle_beta	71.904666
_cell_angle_gamma	66.736403
loop_
_atom_site_label
_atom_site_type_symbol
_atom_site_fract_x
_atom_site_fract_y
_atom_site_fract_z
O1	O	1.156147	0.122864	-0.378243
O2	O	0.888842	0.137525	-0.305263
O3	O	1.074528	-0.006870	-0.355962
O4	O	0.970462	0.267259	-0.327543
O5	O	1.074506	-0.006878	-0.230768
O6	O	0.888821	0.137517	-0.180068
O7	O	1.156125	0.122856	-0.253048
Cu8	Cu	1.022471	0.130186	-0.205127
Cu9	Cu	1.022497	0.130195	-0.353184
O10	O	0.970440	0.267251	-0.202348
C11	C	0.855456	0.136860	-0.233553
C12	C	0.756013	0.134878	-0.206403
C13	C	0.429125	0.128327	-0.458408
C14	C	0.335691	0.126446	-0.432898
C15	C	0.335644	0.126437	-0.296409
C16	C	0.429082	0.128314	-0.321909
C17	C	0.475815	0.129260	-0.402909
C18	C	0.475772	0.129246	-0.266410
C19	C	0.569200	0.131128	-0.291908
C20	C	0.615938	0.132077	-0.372904
C21	C	0.569243	0.131141	-0.428407
C22	C	0.429035	0.128307	-0.185410
C23	C	0.475725	0.129240	-0.129911
C24	C	0.569157	0.131115	-0.155409
C25	C	0.615895	0.132063	-0.236405
C26	C	0.615852	0.132050	-0.099906
C27	C	0.709280	0.133932	-0.125403
C28	C	0.709323	0.133945	-0.261902
C29	C	1.085405	-0.041956	-0.296340
C30	C	1.117837	-0.146489	-0.305202
C31	C	0.795634	-0.434681	-0.217218
C32	C	0.826132	-0.532909	-0.225543
C33	C	0.997673	-0.555138	-0.272378
C34	C	0.967190	-0.456910	-0.264060
C35	C	0.866169	-0.396689	-0.236479
C36	C	1.037724	-0.418918	-0.283322
C37	C	1.007243	-0.320699	-0.275001
C38	C	0.906227	-0.260472	-0.247419
C39	C	0.835688	-0.298470	-0.228159
C40	C	1.138744	-0.479141	-0.310897
C41	C	1.209279	-0.441149	-0.330159
C42	C	1.178799	-0.342928	-0.321844
C43	C	1.077783	-0.282701	-0.294262
C44	C	1.249338	-0.304930	-0.341104
C45	C	1.218857	-0.206711	-0.332783
C46	C	1.047302	-0.184481	-0.285941
C47	C	1.189511	0.123521	-0.324759
C48	C	1.288955	0.125504	-0.351914
C49	C	0.959563	0.302337	-0.261972
C50	C	0.927131	0.406870	-0.253115
N51	N	1.022459	0.130179	-0.100993
N52	N	1.022518	0.130194	-0.457320
C53	C	1.104690	0.066273	-0.084059
C54	C	1.104697	0.066268	-0.005259
C55	C	1.022476	0.130187	0.056603
C56	C	0.940232	0.194099	0.039662
C57	C	0.940223	0.194095	-0.039136
C58	C	0.982601	0.215929	0.192329
C59	C	0.982615	0.215934	0.271124
C60	C	1.022496	0.130198	0.299643
C61	C	1.062383	0.044454	0.249352
C62	C	1.062375	0.044450	0.170554
C63	C	1.022475	0.130198	0.142048
C64	C	1.104739	0.066282	0.402020
C65	C	1.104740	0.066276	0.480823
C66	C	0.940277	0.194114	0.525743
C67	C	0.940274	0.194112	0.446942
C68	C	1.022510	0.130197	0.385084
H69	H	0.437661	0.128473	-0.063960
O70	O	1.347492	-0.363339	-0.368000
C71	C	1.392238	-0.346126	-0.445064
H72	H	1.345725	-0.271654	-0.453987
H73	H	1.469663	-0.352936	-0.451622
H74	H	1.397509	-0.399869	-0.491899
O75	O	0.860409	0.256076	0.585907
C76	C	0.821317	0.205544	0.642160
H77	H	0.881324	0.131928	0.637579
H78	H	0.794200	0.244823	0.704977
H79	H	0.756817	0.199020	0.629413
H80	H	0.965041	-0.135445	-0.263487
O81	O	0.570569	0.131180	-0.021191
C82	C	0.631826	0.132379	0.022325
H83	H	0.684951	0.163503	-0.012175
H84	H	0.584136	0.177514	0.083072
H85	H	0.675925	0.057094	0.031266
H86	H	1.171702	0.014230	0.494610
H87	H	0.950143	0.285753	0.312065
H88	H	0.753427	-0.249433	-0.205705
O89	O	0.754605	0.135002	-0.071503
C90	C	0.771773	0.217565	-0.072106
H91	H	0.717841	0.273957	-0.096106
H92	H	0.760433	0.244932	-0.008651
H93	H	0.850926	0.200571	-0.112045
H94	H	0.881412	-0.180496	-0.240641
H95	H	0.747376	0.134712	-0.327861
H96	H	0.692010	0.133614	-0.393662
O97	O	1.095811	-0.613600	-0.299042
C98	C	1.140546	-0.596344	-0.246434
H99	H	1.081976	-0.562842	-0.185122
H100	H	1.199501	-0.665978	-0.240770
H101	H	1.176336	-0.546260	-0.270871
H102	H	0.950108	0.285750	0.169122
O103	O	0.757572	-0.569772	-0.206960
C104	C	0.697938	-0.538990	-0.255505
H105	H	0.739754	-0.518489	-0.312238
H106	H	0.679082	-0.598543	-0.272121
H107	H	0.626757	-0.475050	-0.221412
O108	O	1.168311	-0.574546	-0.319105
C109	C	1.131443	-0.601261	-0.373869
H110	H	1.115397	-0.544852	-0.414803
H111	H	1.188802	-0.671756	-0.411293
H112	H	1.060319	-0.608778	-0.339796
H113	H	0.607296	0.131908	-0.494365
H114	H	0.713373	-0.385645	-0.194764
H115	H	0.297580	0.125670	-0.230458
O116	O	0.860389	0.256312	-0.055567
C117	C	0.844512	0.349553	-0.031968
H118	H	0.916503	0.350147	-0.029974
H119	H	0.818676	0.396792	-0.076736
H120	H	0.785520	0.377117	0.029887
O121	O	1.307395	-0.499691	-0.357081
C122	C	1.330160	-0.557188	-0.428122
H123	H	1.272303	-0.521281	-0.457640
H124	H	1.406372	-0.568134	-0.470698
H125	H	1.330213	-0.628639	-0.413474
O126	O	0.474371	0.129287	-0.537117
C127	C	0.413142	0.128033	-0.580644
H128	H	0.333049	0.156471	-0.538781
H129	H	0.419469	0.174264	-0.630091
H130	H	0.437396	0.052352	-0.608256
O131	O	0.290299	0.125409	-0.486758
C132	C	0.273173	0.042824	-0.486190
H133	H	0.271454	0.015367	-0.426475
H134	H	0.199188	0.059833	-0.494884
H135	H	0.335027	-0.013506	-0.536752
H136	H	1.276294	-0.175777	-0.348467
O137	O	1.184631	0.004090	-0.144045
C138	C	1.257222	-0.052302	-0.112197
H139	H	1.220633	-0.053429	-0.046027
H140	H	1.295581	-0.127479	-0.145432
H141	H	1.314149	-0.021601	-0.119377
H142	H	1.171662	0.014226	0.008532
O143	O	1.101109	-0.038921	0.121821
C144	C	1.136337	-0.114598	0.163874
H145	H	1.096735	-0.090418	0.230866
H146	H	1.121402	-0.176022	0.145193
H147	H	1.219359	-0.138550	0.149568
O148	O	1.100961	-0.038823	0.277118
C149	C	1.026977	-0.046561	0.342927
H150	H	0.950953	0.000271	0.339950
H151	H	1.036615	-0.123270	0.341188
H152	H	1.033539	-0.022944	0.400855
O153	O	0.338192	0.126672	-0.160680
C154	C	0.270131	0.207577	-0.179503
H155	H	0.311709	0.235766	-0.230727
H156	H	0.215859	0.188062	-0.198206
H157	H	0.227787	0.264325	-0.124798
O158	O	1.184678	0.004100	0.342028
C159	C	1.257267	-0.052300	0.373875
H160	H	1.220677	-0.053432	0.440043
H161	H	1.295624	-0.127475	0.340634
H162	H	1.314197	-0.021603	0.366698
O163	O	0.860335	0.256290	0.430620
C164	C	0.787753	0.312691	0.502118
H165	H	0.824352	0.313826	0.548290
H166	H	0.749391	0.387865	0.489822
H167	H	0.730827	0.281993	0.526057
H168	H	0.873285	0.246141	0.090034
