data_functionalizedCrystal
_audit_creation_method	'MofGen! by Chris Wilmer'
_symmetry_space_group_name_H-M	'P1'
_symmetry_Int_Tables_number	1
_symmetry_cell_setting	triclinic
loop_
_symmetry_equiv_pos_as_xyz
  x,y,z
_cell_length_a	27.440280
_cell_length_b	19.851628
_cell_length_c	27.440280
_cell_angle_alpha	89.994151
_cell_angle_beta	119.995029
_cell_angle_gamma	59.995303
loop_
_atom_site_label
_atom_site_type_symbol
_atom_site_fract_x
_atom_site_fract_y
_atom_site_fract_z
Zr1	Zr	0.533342	-0.088307	-0.469565
O2	O	0.635022	-0.195887	-0.391753
O3	O	0.431675	-0.055329	-0.493410
O4	O	0.533349	-0.195870	-0.493414
O5	O	0.533339	0.055515	-0.391754
O6	O	0.533339	-0.195854	-0.573617
O7	O	0.533349	-0.055347	-0.391748
O8	O	0.351464	0.055546	-0.573608
O9	O	0.715215	-0.195886	-0.391763
O10	O	0.473481	-0.041252	-0.563444
O11	O	0.473481	0.041471	-0.503595
O12	O	0.593188	-0.123996	-0.503601
O13	O	0.593188	-0.041273	-0.443751
Zr14	Zr	0.533312	0.088529	-0.597490
Zr15	Zr	0.533327	-0.088283	-0.597479
Zr16	Zr	0.533327	0.088504	-0.469575
Zr17	Zr	0.661240	-0.088305	-0.469582
Zr18	Zr	0.405415	0.088527	-0.597473
O19	O	0.634979	0.055551	-0.573645
O20	O	0.635001	-0.195853	-0.573630
O21	O	0.635001	0.055516	-0.391768
O22	O	0.431632	0.196109	-0.675302
O23	O	0.431654	-0.055295	-0.675287
O24	O	0.431654	0.196074	-0.493424
O25	O	0.533315	-0.055293	-0.675300
O26	O	0.533306	0.196091	-0.573640
O27	O	0.533315	0.196076	-0.493437
O28	O	0.533306	0.055569	-0.675307
O29	O	0.715203	-0.195867	-0.493438
O30	O	0.351452	0.196088	-0.573617
O31	O	0.351440	0.196108	-0.675291
O32	O	0.351452	0.055566	-0.675283
O33	O	0.715203	-0.055344	-0.391771
O34	O	0.715191	-0.055325	-0.493446
O35	O	0.473466	0.124218	-0.563454
O36	O	0.473467	0.041494	-0.623304
O37	O	0.593174	-0.041250	-0.563460
O38	O	0.593174	0.041473	-0.503610
C39	C	0.373347	0.000108	-0.533507
C40	C	0.319051	0.000107	-0.533500
C41	C	0.533346	0.000080	-0.373526
C42	C	0.533352	0.000070	-0.319223
C43	C	0.533308	0.221275	-0.533540
C44	C	0.533302	0.296337	-0.533545
C45	C	-0.017691	-0.043063	-0.564785
C46	C	-0.068715	-0.043061	-0.564790
O47	O	-0.095121	-0.079759	-0.591378
N48	N	-0.094231	0.000119	-0.533549
C49	C	-0.068726	0.043305	-0.502305
O50	O	-0.095115	0.080033	-0.475733
C51	C	-0.017706	0.043307	-0.502303
C52	C	0.007812	0.000118	-0.533542
C53	C	0.007827	-0.086247	-0.596021
C54	C	0.058848	-0.086251	-0.596015
C55	C	0.084351	-0.043069	-0.564772
C56	C	0.058833	0.000115	-0.533535
C57	C	0.007795	0.086498	-0.471063
C58	C	0.058817	0.086497	-0.471065
C59	C	0.084336	0.043308	-0.502303
C60	C	0.135358	0.043293	-0.502286
N61	N	0.160874	0.000114	-0.533527
C62	C	0.135371	-0.043067	-0.564770
C63	C	-0.175871	0.043299	-0.502311
C64	C	-0.226886	0.043292	-0.502309
C65	C	-0.226873	-0.043072	-0.564795
C66	C	-0.175853	-0.043070	-0.564794
C67	C	-0.150355	0.000119	-0.533553
C68	C	0.242520	-0.043072	-0.564754
C69	C	0.293548	-0.043074	-0.564743
C70	C	0.293527	0.043294	-0.502259
C71	C	0.242506	0.043293	-0.502268
C72	C	0.217002	0.000109	-0.533519
O73	O	0.161795	0.079975	-0.475714
O74	O	0.161760	-0.079780	-0.591344
C75	C	0.693308	0.000113	-0.533548
C76	C	0.747604	0.000114	-0.533555
C77	C	0.533346	-0.221054	-0.533514
C78	C	0.533352	-0.296115	-0.533510
C79	C	0.468048	0.522797	-0.566162
C80	C	0.500669	0.545158	-0.589818
C81	C	0.533320	0.433743	-0.533533
C82	C	0.500694	0.545123	-0.509894
C83	C	0.533332	0.566475	-0.533523
C84	C	0.565942	0.455115	-0.557223
C85	C	0.565957	0.455083	-0.477267
C86	C	0.598626	0.477390	-0.500909
C87	C	0.533311	0.357281	-0.533541
C88	C	0.533346	0.642932	-0.533516
C89	C	0.470830	0.043315	-0.013763
C90	C	0.470826	0.043322	0.037255
O91	O	0.417684	0.080079	0.037076
N92	N	0.533311	0.000129	0.094010
C93	C	0.595805	-0.043067	0.099745
O94	O	0.648953	-0.079805	0.152704
C95	C	0.595808	-0.043068	0.048727
C96	C	0.533318	0.000121	-0.008027
C97	C	0.408345	0.086501	-0.070515
C98	C	0.408349	0.086494	-0.121530
C99	C	0.470838	0.043300	-0.115793
C100	C	0.533322	0.000113	-0.059042
C101	C	0.658300	-0.086258	0.054463
C102	C	0.658298	-0.086255	0.003439
C103	C	0.595808	-0.043066	-0.053315
C104	C	0.595815	-0.043089	-0.104320
N105	N	0.533329	0.000104	-0.161074
C106	C	0.470841	0.043299	-0.166811
C107	C	0.595793	-0.043060	0.206884
C108	C	0.595791	-0.043064	0.257901
C109	C	0.470812	0.043326	0.195407
C110	C	0.470815	0.043324	0.144389
C111	C	0.533308	0.000133	0.150129
C112	C	0.470854	0.043278	-0.273943
C113	C	0.470864	0.043264	-0.324960
C114	C	0.595842	-0.043122	-0.262462
C115	C	0.595833	-0.043112	-0.211450
C116	C	0.533334	0.000095	-0.217194
O117	O	0.648930	-0.079825	-0.104187
O118	O	0.417702	0.080039	-0.219772
C119	C	0.533308	0.000137	0.306472
C120	C	0.533302	0.000134	0.252169
C121	C	0.373328	0.000139	-0.693508
C122	C	0.319026	0.000148	-0.747804
C123	C	0.373328	0.221273	-0.533520
C124	C	0.319026	0.296333	-0.533517
C125	C	0.373309	0.221303	-0.693521
C126	C	0.319001	0.296374	-0.747821
C127	C	0.693345	-0.221082	-0.373534
C128	C	0.747654	-0.296153	-0.319234
C129	C	0.693326	0.000083	-0.373547
C130	C	0.747629	0.000073	-0.319251
C131	C	0.693327	-0.221051	-0.533535
C132	C	0.747629	-0.296112	-0.533538
C133	C	0.293532	-0.043047	-0.742056
C134	C	0.242516	-0.043055	-0.793068
C135	C	0.216992	0.000138	-0.849827
C136	C	0.242490	0.043335	-0.855574
C137	C	0.293509	0.043338	-0.804562
C138	C	0.293517	0.374782	-0.564762
C139	C	0.242502	0.445316	-0.564757
C140	C	0.216992	0.437399	-0.533511
C141	C	0.242505	0.358941	-0.502262
C142	C	0.293523	0.288409	-0.502264
C143	C	0.293497	0.288447	-0.804567
C144	C	0.242475	0.358977	-0.855593
C145	C	0.216955	0.437434	-0.849871
C146	C	0.242464	0.445359	-0.793119
C147	C	0.293488	0.374829	-0.742095
C148	C	0.773164	-0.288226	-0.262487
C149	C	0.824202	-0.358756	-0.211461
C150	C	0.849724	-0.437212	-0.217183
C151	C	0.824212	-0.445137	-0.273935
C152	C	0.773179	-0.374608	-0.324960
C153	C	0.773128	0.043262	-0.324999
C154	C	0.824157	0.043250	-0.273987
C155	C	0.849684	0.000054	-0.217228
C156	C	0.824183	-0.043140	-0.211481
C157	C	0.773157	-0.043132	-0.262492
C158	C	0.773123	-0.288168	-0.564790
C159	C	0.824139	-0.358688	-0.564804
C160	C	0.849663	-0.437152	-0.533562
C161	C	0.824165	-0.445094	-0.502309
C162	C	0.773146	-0.374574	-0.502298
H163	H	0.314324	-0.078246	-0.590180
C164	C	0.160864	0.514995	-0.533521
N165	N	0.118584	0.573444	-0.533534
C166	C	0.745116	-0.383341	-0.387380
N167	N	0.723979	-0.389926	-0.434394
C168	C	0.402073	0.090847	0.189106
N169	N	0.350302	0.126639	0.184363
H170	H	0.844955	-0.508988	-0.476872
C171	C	0.214418	0.350241	-0.918015
N172	N	0.193286	0.343659	-0.965029
C173	C	0.321603	-0.090572	-0.679625
N174	N	0.342747	-0.126376	-0.632603
H175	H	0.175407	0.494856	-0.891424
C176	C	0.664574	-0.090625	-0.149018
N177	N	0.716352	-0.126405	-0.101997
C178	C	0.852254	-0.350020	-0.149040
N179	N	0.873382	-0.343437	-0.102025
C180	C	0.321569	0.202116	-0.467897
N181	N	0.342690	0.137122	-0.442012
H182	H	0.221727	0.352507	-0.476822
H183	H	0.314247	0.381295	-0.695891
C184	C	0.905787	-0.514718	-0.533578
N185	N	0.948060	-0.573138	-0.533591
C186	C	0.214378	0.531669	-0.786835
N187	N	0.193219	0.596679	-0.782104
H188	H	0.752348	0.078442	-0.371211
H189	H	0.845000	-0.509025	-0.278587
H190	H	0.752395	-0.381053	-0.476846
H191	H	0.221759	-0.078235	-0.590203
C192	C	0.086905	-0.133753	-0.630387
N193	N	0.108031	-0.169530	-0.656280
H194	H	0.844912	0.078426	-0.278678
H195	H	0.221735	0.509193	-0.590205
C196	C	-0.020210	-0.133767	-0.630385
N197	N	-0.041317	-0.169570	-0.656264
C198	C	0.905810	0.000058	-0.161119
N199	N	0.948083	0.000067	-0.118860
C200	C	0.745103	-0.201930	-0.256179
N201	N	0.723974	-0.136934	-0.251422
H202	H	0.844974	-0.078309	-0.165261
C203	C	0.905857	-0.514789	-0.161048
N204	N	0.948133	-0.573217	-0.118766
C205	C	0.745051	-0.201865	-0.599165
N206	N	0.723907	-0.136863	-0.625062
H207	H	0.314259	0.078518	-0.809251
C208	C	0.321573	0.383511	-0.599134
N209	N	0.342704	0.390093	-0.625021
C210	C	0.393495	0.547705	-0.603491
N211	N	0.337346	0.566456	-0.631610
H212	H	0.473079	0.583972	-0.637399
H213	H	0.752398	-0.078299	-0.257804
H214	H	-0.155079	-0.078238	-0.590231
C215	C	0.852181	-0.349934	-0.599183
N216	N	0.873302	-0.343337	-0.625077
H217	H	0.175449	0.000131	-0.891359
C218	C	-0.254963	0.090821	-0.467957
N219	N	-0.276119	0.126635	-0.442092
C220	C	-0.147826	0.090813	-0.467940
N221	N	-0.126708	0.126603	-0.442055
H222	H	-0.247648	-0.078232	-0.590236
H223	H	0.079576	0.121667	-0.445623
C224	C	-0.020310	0.134073	-0.436743
N225	N	-0.041495	0.169933	-0.410909
H226	H	0.221736	0.078450	-0.476823
H227	H	0.314268	0.224571	-0.809237
H228	H	0.593505	0.416420	-0.577266
C229	C	0.673245	0.452256	-0.463637
N230	N	0.729447	0.433327	-0.435567
H231	H	0.314303	0.078448	-0.476820
C232	C	0.463416	0.597536	-0.482886
N233	N	0.435334	0.637014	-0.462548
C234	C	0.603195	0.402645	-0.413003
N235	N	0.631236	0.363150	-0.364599
H236	H	0.419975	0.078436	-0.371172
H237	H	0.357464	0.121659	-0.167737
C238	C	0.339597	0.134014	-0.076839
N239	N	0.287811	0.169795	-0.081608
C240	C	0.402101	0.090801	-0.280272
N241	N	0.350317	0.126589	-0.285038
H242	H	0.419931	0.078500	0.098181
H243	H	0.646676	-0.078244	0.304109
H244	H	0.646686	-0.078236	0.211565
C245	C	0.727047	-0.133774	0.009760
N246	N	0.778829	-0.169568	0.014521
C247	C	0.214471	-0.090568	-0.786733
N248	N	0.193348	-0.126353	-0.781959
C249	C	0.727045	-0.133767	0.116884
N250	N	0.778828	-0.169553	0.163901
H251	H	0.646719	-0.078293	-0.257801
C252	C	0.214401	0.090852	-0.918015
N253	N	0.193238	0.126646	-0.965047
