data_functionalizedCrystal
_audit_creation_method	'MofGen! by Chris Wilmer'
_symmetry_space_group_name_H-M	'P1'
_symmetry_Int_Tables_number	1
_symmetry_cell_setting	triclinic
loop_
_symmetry_equiv_pos_as_xyz
  x,y,z
_cell_length_a	21.395364
_cell_length_b	21.395361
_cell_length_c	21.395355
_cell_angle_alpha	90.021511
_cell_angle_beta	90.025600
_cell_angle_gamma	90.028209
loop_
_atom_site_label
_atom_site_type_symbol
_atom_site_fract_x
_atom_site_fract_y
_atom_site_fract_z
Zn1	Zn	-0.957859	0.249553	-0.354266
Zn2	Zn	-0.707859	0.499553	-0.104266
Zn3	Zn	-0.457859	0.749553	0.145734
Zn4	Zn	-0.207859	0.999553	0.395734
Zn5	Zn	-0.957762	0.354313	-0.249483
Zn6	Zn	-0.707762	0.604313	0.000517
Zn7	Zn	-0.457762	0.854313	0.250517
Zn8	Zn	-0.207762	1.104313	0.500517
Zn9	Zn	-0.853074	0.249548	-0.249501
Zn10	Zn	-0.603074	0.499548	0.000499
Zn11	Zn	-0.353074	0.749548	0.250499
Zn12	Zn	-0.103074	0.999548	0.500499
Zn13	Zn	-0.853043	0.354292	-0.354221
Zn14	Zn	-0.603043	0.604292	-0.104221
Zn15	Zn	-0.353043	0.854292	0.145779
Zn16	Zn	-0.103043	1.104292	0.395779
O17	O	-0.905434	0.301926	-0.301868
O18	O	-0.655434	0.551926	-0.051868
O19	O	-0.405434	0.801926	0.198132
O20	O	-0.155434	1.051926	0.448132
O21	O	-1.045524	0.263460	-0.340377
O22	O	-0.795524	0.513460	-0.090377
O23	O	-0.545524	0.763460	0.159623
O24	O	-0.295524	1.013460	0.409623
O25	O	-0.943847	0.340422	-0.161807
O26	O	-0.693847	0.590422	0.088193
O27	O	-0.443847	0.840422	0.338193
O28	O	-0.193847	1.090422	0.588193
O29	O	-0.867028	0.161871	-0.263424
O30	O	-0.617028	0.411871	-0.013424
O31	O	-0.367028	0.661871	0.236576
O32	O	-0.117028	0.911871	0.486576
O33	O	-1.045452	0.340427	-0.263394
O34	O	-0.795452	0.590427	-0.013394
O35	O	-0.545452	0.840427	0.236606
O36	O	-0.295452	1.090427	0.486606
O37	O	-0.944013	0.161874	-0.340395
O38	O	-0.694013	0.411874	-0.090395
O39	O	-0.444013	0.661874	0.159605
O40	O	-0.194013	0.911874	0.409605
O41	O	-0.866933	0.263452	-0.161820
O42	O	-0.616933	0.513452	0.088180
O43	O	-0.366933	0.763452	0.338180
O44	O	-0.116933	1.013452	0.588180
O45	O	-0.765392	0.263432	-0.263381
O46	O	-0.515392	0.513432	-0.013381
O47	O	-0.265392	0.763432	0.236619
O48	O	-0.015392	1.013432	0.486619
O49	O	-0.866975	0.340391	-0.441905
O50	O	-0.616975	0.590391	-0.191905
O51	O	-0.366975	0.840391	0.058095
O52	O	-0.116975	1.090391	0.308095
O53	O	-0.765369	0.340387	-0.340319
O54	O	-0.515369	0.590387	-0.090319
O55	O	-0.265369	0.840387	0.159681
O56	O	-0.015369	1.090387	0.409681
O57	O	-0.943983	0.263440	-0.441938
O58	O	-0.693983	0.513440	-0.191938
O59	O	-0.443983	0.763440	0.058062
O60	O	-0.193983	1.013440	0.308062
O61	O	-0.943817	0.441988	-0.263351
O62	O	-0.693817	0.691988	-0.013351
O63	O	-0.443817	0.941988	0.236649
O64	O	-0.193817	1.191988	0.486649
O65	O	-0.866881	0.441973	-0.340301
O66	O	-0.616881	0.691973	-0.090301
O67	O	-0.366881	0.941973	0.159699
O68	O	-0.116881	1.191973	0.409699
C69	C	-0.742647	0.301907	-0.301847
C70	C	-0.492647	0.551907	-0.051847
C71	C	-0.242647	0.801907	0.198153
C72	C	0.007353	1.051907	0.448153
C73	C	-0.673006	0.301914	-0.301853
C74	C	-0.423006	0.551914	-0.051853
C75	C	-0.173006	0.801914	0.198147
C76	C	0.076994	1.051914	0.448147
C77	C	-0.171214	0.342060	-0.341879
C78	C	0.078786	0.592060	-0.091879
C79	C	0.328786	0.842060	0.158121
C80	C	0.578786	1.092060	0.408121
C81	C	-0.236649	0.342061	-0.341874
C82	C	0.013351	0.592061	-0.091874
C83	C	0.263351	0.842061	0.158126
C84	C	0.513351	1.092061	0.408126
C85	C	-0.269367	0.301931	-0.301878
C86	C	-0.019367	0.551931	-0.051878
C87	C	0.230633	0.801931	0.198122
C88	C	0.480633	1.051931	0.448122
C89	C	-0.236644	0.261809	-0.261873
C90	C	0.013356	0.511809	-0.011873
C91	C	0.263356	0.761809	0.238127
C92	C	0.513356	1.011809	0.488127
C93	C	-0.171210	0.261813	-0.261876
C94	C	0.078790	0.511813	-0.011876
C95	C	0.328790	0.761813	0.238124
C96	C	0.578790	1.011813	0.488124
C97	C	-0.373056	0.245467	-0.297031
C98	C	-0.123056	0.495467	-0.047031
C99	C	0.126944	0.745467	0.202969
C100	C	0.376944	0.995467	0.452969
C101	C	-0.438489	0.245462	-0.297033
C102	C	-0.188489	0.495462	-0.047033
C103	C	0.061511	0.745462	0.202967
C104	C	0.311511	0.995462	0.452967
C105	C	-0.471188	0.301917	-0.301867
C106	C	-0.221188	0.551917	-0.051867
C107	C	0.028812	0.801917	0.198133
C108	C	0.278812	1.051917	0.448133
C109	C	-0.438446	0.358380	-0.306712
C110	C	-0.188446	0.608380	-0.056712
C111	C	0.061554	0.858380	0.193288
C112	C	0.311554	1.108380	0.443288
C113	C	-0.373012	0.358385	-0.306714
C114	C	-0.123012	0.608385	-0.056714
C115	C	0.126988	0.858385	0.193286
C116	C	0.376988	1.108385	0.443286
C117	C	-0.340320	0.301922	-0.301871
C118	C	-0.090320	0.551922	-0.051871
C119	C	0.159680	0.801922	0.198129
C120	C	0.409680	1.051922	0.448129
C121	C	-0.574856	0.342041	-0.341860
C122	C	-0.324856	0.592041	-0.091860
C123	C	-0.074856	0.842041	0.158140
C124	C	0.175144	1.092041	0.408140
C125	C	-0.640292	0.342044	-0.341850
C126	C	-0.390292	0.592044	-0.091850
C127	C	-0.140292	0.842044	0.158150
C128	C	0.109708	1.092044	0.408150
C129	C	-0.640286	0.261786	-0.261853
C130	C	-0.390286	0.511786	-0.011853
C131	C	-0.140286	0.761786	0.238147
C132	C	0.109714	1.011786	0.488147
C133	C	-0.574850	0.261790	-0.261860
C134	C	-0.324850	0.511790	-0.011860
C135	C	-0.074850	0.761790	0.238140
C136	C	0.175150	1.011790	0.488140
C137	C	-0.542139	0.301916	-0.301867
C138	C	-0.292139	0.551916	-0.051867
C139	C	-0.042139	0.801916	0.198133
C140	C	0.207861	1.051916	0.448133
C141	C	-0.905486	0.301914	-0.465291
C142	C	-0.655486	0.551914	-0.215291
C143	C	-0.405486	0.801914	0.034709
C144	C	-0.155486	1.051914	0.284709
C145	C	-0.905509	0.301908	-0.534932
C146	C	-0.655509	0.551908	-0.284932
C147	C	-0.405509	0.801908	-0.034932
C148	C	-0.155509	1.051908	0.215068
C149	C	-0.905352	0.464714	-0.301833
C150	C	-0.655352	0.714714	-0.051833
C151	C	-0.405352	0.964714	0.198167
C152	C	-0.155352	1.214714	0.448167
C153	C	-0.905374	0.534355	-0.301839
C154	C	-0.655374	0.784355	-0.051839
C155	C	-0.405374	1.034355	0.198161
C156	C	-0.155374	1.284355	0.448161
C157	C	-0.068858	0.301942	-0.301885
C158	C	0.181142	0.551942	-0.051885
C159	C	0.431142	0.801942	0.198115
C160	C	0.681142	1.051942	0.448115
C161	C	-0.138499	0.301940	-0.301882
C162	C	0.111501	0.551940	-0.051882
C163	C	0.361501	0.801940	0.198118
C164	C	0.611501	1.051940	0.448118
C165	C	-0.905535	0.138503	-0.301916
C166	C	-0.655535	0.388503	-0.051916
C167	C	-0.405535	0.638503	0.198084
C168	C	-0.155535	0.888503	0.448084
C169	C	-0.905577	0.068862	-0.301937
C170	C	-0.655577	0.318862	-0.051937
C171	C	-0.405577	0.568862	0.198063
C172	C	-0.155577	0.818862	0.448063
C173	C	-0.945470	0.567056	-0.261812
C174	C	-0.695470	0.817056	-0.011812
C175	C	-0.445470	1.067056	0.238188
C176	C	-0.195470	1.317056	0.488188
C177	C	-0.945499	0.632491	-0.261826
C178	C	-0.695499	0.882491	-0.011826
C179	C	-0.445499	1.132491	0.238174
C180	C	-0.195499	1.382491	0.488174
C181	C	-0.905421	0.665224	-0.301860
C182	C	-0.655421	0.915224	-0.051860
C183	C	-0.405421	1.165224	0.198140
C184	C	-0.155421	1.415224	0.448140
C185	C	-0.865322	0.632516	-0.341895
C186	C	-0.615322	0.882516	-0.091895
C187	C	-0.365322	1.132516	0.158105
C188	C	-0.115322	1.382516	0.408105
C189	C	-0.865298	0.567081	-0.341885
C190	C	-0.615298	0.817081	-0.091885
C191	C	-0.365298	1.067081	0.158115
C192	C	-0.115298	1.317081	0.408115
C193	C	-0.849006	0.768936	-0.306769
C194	C	-0.599006	1.018936	-0.056769
C195	C	-0.349006	1.268936	0.193231
C196	C	-0.099006	1.518936	0.443231
C197	C	-0.849029	0.834369	-0.306776
C198	C	-0.599029	1.084369	-0.056776
C199	C	-0.349029	1.334369	0.193224
C200	C	-0.099029	1.584369	0.443224
C201	C	-0.905494	0.867044	-0.301897
C202	C	-0.655494	1.117044	-0.051897
C203	C	-0.405494	1.367044	0.198103
C204	C	-0.155494	1.617044	0.448103
C205	C	-0.961938	0.834278	-0.296999
C206	C	-0.711938	1.084278	-0.046999
C207	C	-0.461938	1.334278	0.203001
C208	C	-0.211938	1.584278	0.453001
C209	C	-0.961915	0.768844	-0.296988
C210	C	-0.711915	1.018844	-0.046988
C211	C	-0.461915	1.268844	0.203012
C212	C	-0.211915	1.518844	0.453012
C213	C	-0.905442	0.736176	-0.301877
C214	C	-0.655442	0.986176	-0.051877
C215	C	-0.405442	1.236176	0.198123
C216	C	-0.155442	1.486176	0.448123
C217	C	-0.945625	0.970697	-0.261883
C218	C	-0.695625	1.220697	-0.011883
C219	C	-0.445625	1.470697	0.238117
C220	C	-0.195625	1.720697	0.488117
C221	C	-0.945655	1.036134	-0.261901
C222	C	-0.695655	1.286134	-0.011901
C223	C	-0.445655	1.536134	0.238099
C224	C	-0.195655	1.786134	0.488099
C225	C	-0.865472	1.036157	-0.341968
C226	C	-0.615472	1.286157	-0.091968
C227	C	-0.365472	1.536157	0.158032
C228	C	-0.115472	1.786157	0.408032
C229	C	-0.865448	0.970722	-0.341953
C230	C	-0.615448	1.220722	-0.091953
C231	C	-0.365448	1.470722	0.158047
C232	C	-0.115448	1.720722	0.408047
C233	C	-0.905523	0.937996	-0.301907
C234	C	-0.655523	1.187996	-0.051907
C235	C	-0.405523	1.437996	0.198093
C236	C	-0.155523	1.687996	0.448093
C237	C	-0.945605	0.261838	-0.567664
C238	C	-0.695605	0.511838	-0.317664
C239	C	-0.445605	0.761838	-0.067664
C240	C	-0.195605	1.011838	0.182336
C241	C	-0.945604	0.261811	-0.633099
C242	C	-0.695604	0.511811	-0.383099
C243	C	-0.445604	0.761811	-0.133099
C244	C	-0.195604	1.011811	0.116901
C245	C	-0.905513	0.301866	-0.665801
C246	C	-0.655513	0.551866	-0.415801
C247	C	-0.405513	0.801866	-0.165801
C248	C	-0.155513	1.051866	0.084199
C249	C	-0.865409	0.341939	-0.633062
C250	C	-0.615409	0.591939	-0.383062
C251	C	-0.365409	0.841939	-0.133062
C252	C	-0.115409	1.091939	0.116938
C253	C	-0.865407	0.341960	-0.567627
C254	C	-0.615407	0.591960	-0.317627
C255	C	-0.365407	0.841960	-0.067627
C256	C	-0.115407	1.091960	0.182373
C257	C	-0.900538	0.358281	-0.769463
C258	C	-0.650538	0.608281	-0.519463
C259	C	-0.400538	0.858281	-0.269463
C260	C	-0.150538	1.108281	-0.019463
C261	C	-0.900544	0.358261	-0.834896
C262	C	-0.650544	0.608261	-0.584896
C263	C	-0.400544	0.858261	-0.334896
C264	C	-0.150544	1.108261	-0.084896
C265	C	-0.905517	0.301800	-0.867622
C266	C	-0.655517	0.551800	-0.617622
C267	C	-0.405517	0.801800	-0.367622
C268	C	-0.155517	1.051800	-0.117622
C269	C	-0.910497	0.245357	-0.834906
C270	C	-0.660497	0.495357	-0.584906
C271	C	-0.410497	0.745357	-0.334906
C272	C	-0.160497	0.995357	-0.084906
C273	C	-0.910494	0.245378	-0.769472
C274	C	-0.660494	0.495378	-0.519472
C275	C	-0.410494	0.745378	-0.269472
C276	C	-0.160494	0.995378	-0.019472
C277	C	-0.905511	0.301847	-0.736753
C278	C	-0.655511	0.551847	-0.486753
C279	C	-0.405511	0.801847	-0.236753
C280	C	-0.155511	1.051847	0.013247
C281	C	-0.945615	0.261697	-0.971305
C282	C	-0.695615	0.511697	-0.721305
C283	C	-0.445615	0.761697	-0.471305
C284	C	-0.195615	1.011697	-0.221305
C285	C	-0.945610	0.261669	-1.036742
C286	C	-0.695610	0.511669	-0.786742
C287	C	-0.445610	0.761669	-0.536742
C288	C	-0.195610	1.011669	-0.286742
C289	C	-0.865418	0.341802	-1.036703
C290	C	-0.615418	0.591802	-0.786703
C291	C	-0.365418	0.841802	-0.536703
C292	C	-0.115418	1.091802	-0.286703
C293	C	-0.865420	0.341824	-0.971268
C294	C	-0.615420	0.591824	-0.721268
C295	C	-0.365420	0.841824	-0.471268
C296	C	-0.115420	1.091824	-0.221268
C297	C	-0.905522	0.301773	-0.938573
C298	C	-0.655522	0.551773	-0.688573
C299	C	-0.405522	0.801773	-0.438573
C300	C	-0.155522	1.051773	-0.188573
C301	C	-0.905419	0.301894	-0.139080
C302	C	-0.655419	0.551894	0.110920
C303	C	-0.405419	0.801894	0.360920
C304	C	-0.155419	1.051894	0.610920
C305	C	-0.905518	0.301723	-0.069439
C306	C	-0.655518	0.551723	0.180561
C307	C	-0.405518	0.801723	0.430561
C308	C	-0.155518	1.051723	0.680561
H309	H	-0.465143	0.199486	-0.293095
H310	H	-0.215143	0.449486	-0.043095
H311	H	0.034857	0.699486	0.206905
H312	H	0.284857	0.949486	0.456905
H313	H	-0.978254	0.229178	-0.659754
H314	H	-0.728254	0.479178	-0.409754
H315	H	-0.478254	0.729178	-0.159754
H316	H	-0.228254	0.979178	0.090246
H317	H	-0.263291	0.374731	-0.374446
H318	H	-0.013291	0.624731	-0.124446
H319	H	0.236709	0.874731	0.125554
H320	H	0.486709	1.124731	0.375554
F321	F	-0.988176	0.667300	-0.219221
F322	F	-0.738176	0.917300	0.030779
F323	F	-0.488176	1.167300	0.280779
F324	F	-0.238176	1.417300	0.530779
H325	H	-0.832766	0.374549	-0.659691
H326	H	-0.582766	0.624549	-0.409691
H327	H	-0.332766	0.874549	-0.159691
H328	H	-0.082766	1.124549	0.090309
H329	H	-0.896320	0.404246	-0.742824
H330	H	-0.646320	0.654246	-0.492824
H331	H	-0.396320	0.904246	-0.242824
H332	H	-0.146320	1.154246	0.007176
F333	F	-0.988282	0.219209	-0.532871
F334	F	-0.738282	0.469209	-0.282871
F335	F	-0.488282	0.719209	-0.032871
F336	F	-0.238282	0.969209	0.217129
F337	F	-0.988291	0.219068	-0.936507
F338	F	-0.738291	0.469068	-0.686507
F339	F	-0.488291	0.719068	-0.436507
F340	F	-0.238291	0.969068	-0.186507
H341	H	-0.978260	0.229035	-1.063391
H342	H	-0.728260	0.479035	-0.813391
H343	H	-0.478260	0.729035	-0.563391
H344	H	-0.228260	0.979035	-0.313391
H345	H	-0.803068	0.861042	-0.310758
H346	H	-0.553068	1.111042	-0.060758
H347	H	-0.303068	1.361042	0.189242
H348	H	-0.053068	1.611042	0.439242
F349	F	-0.988275	0.935866	-0.219263
F350	F	-0.738275	1.185866	0.030737
F351	F	-0.488275	1.435866	0.280737
F352	F	-0.238275	1.685866	0.530737
H353	H	-0.832770	0.374409	-1.063328
H354	H	-0.582770	0.624409	-0.813328
H355	H	-0.332770	0.874409	-0.563328
H356	H	-0.082770	1.124409	-0.313328
F357	F	-0.822769	0.935918	-0.384553
F358	F	-0.572769	1.185918	-0.134553
F359	F	-0.322769	1.435918	0.115447
F360	F	-0.072769	1.685918	0.365447
H361	H	-0.978310	1.062757	-0.229308
H362	H	-0.728310	1.312757	0.020692
H363	H	-0.478310	1.562757	0.270692
H364	H	-0.228310	1.812757	0.520692
F365	F	-0.271466	0.219102	-0.219305
F366	F	-0.021466	0.469102	0.030695
F367	F	0.228534	0.719102	0.280695
F368	F	0.478534	0.969102	0.530695
F369	F	-0.822821	1.070989	-0.384580
F370	F	-0.572821	1.320989	-0.134580
F371	F	-0.322821	1.570989	0.115420
F372	F	-0.072821	1.820989	0.365420
H373	H	-0.666924	0.229114	-0.229286
H374	H	-0.416924	0.479114	0.020714
H375	H	-0.166924	0.729114	0.270714
H376	H	0.083076	0.979114	0.520714
H377	H	-0.803022	0.742339	-0.310744
H378	H	-0.553022	0.992339	-0.060744
H379	H	-0.303022	1.242339	0.189256
H380	H	-0.053022	1.492339	0.439256
H381	H	-0.548221	0.374716	-0.374435
H382	H	-0.298221	0.624716	-0.124435
H383	H	-0.048221	0.874716	0.125565
H384	H	0.201779	1.124716	0.375565
F385	F	-0.136404	0.384769	-0.384455
F386	F	0.113596	0.634769	-0.134455
F387	F	0.363596	0.884769	0.115545
F388	F	0.613596	1.134769	0.365545
F389	F	-0.540031	0.219084	-0.219293
F390	F	-0.290031	0.469084	0.030707
F391	F	-0.040031	0.719084	0.280707
F392	F	0.209969	0.969084	0.530707
H393	H	-0.144574	0.229141	-0.229305
H394	H	0.105426	0.479141	0.020695
H395	H	0.355426	0.729141	0.270695
H396	H	0.605426	0.979141	0.520695
F397	F	-0.675110	0.384751	-0.384419
F398	F	-0.425110	0.634751	-0.134419
F399	F	-0.175110	0.884751	0.115581
F400	F	0.074890	1.134751	0.365581
H401	H	-0.832773	0.374458	-0.944618
H402	H	-0.582773	0.624458	-0.694618
H403	H	-0.332773	0.874458	-0.444618
H404	H	-0.082773	1.124458	-0.194618
H405	H	-0.346438	0.199492	-0.293084
H406	H	-0.096438	0.449492	-0.043084
H407	H	0.153562	0.699492	0.206916
H408	H	0.403562	0.949492	0.456916
H409	H	-0.978103	0.540412	-0.229206
H410	H	-0.728103	0.790412	0.020794
H411	H	-0.478103	1.040412	0.270794
H412	H	-0.228103	1.290412	0.520794
F413	F	-0.822670	0.667353	-0.384505
F414	F	-0.572670	0.917353	-0.134505
F415	F	-0.322670	1.167353	0.115495
F416	F	-0.072670	1.417353	0.365495
F417	F	-0.822620	0.532278	-0.384489
F418	F	-0.572620	0.782278	-0.134489
F419	F	-0.322620	1.032278	0.115511
F420	F	-0.072620	1.282278	0.365511
H421	H	-0.914547	0.199421	-0.742837
H422	H	-0.664547	0.449421	-0.492837
H423	H	-0.414547	0.699421	-0.242837
H424	H	-0.164547	0.949421	0.007163
H425	H	-0.832753	0.374589	-0.540978
H426	H	-0.582753	0.624589	-0.290978
H427	H	-0.332753	0.874589	-0.040978
H428	H	-0.082753	1.124589	0.209022
F429	F	-0.895250	0.418331	-0.869709
F430	F	-0.645250	0.668331	-0.619709
F431	F	-0.395250	0.918331	-0.369709
F432	F	-0.145250	1.168331	-0.119709
F433	F	-0.915792	0.185262	-0.869729
F434	F	-0.665792	0.435262	-0.619729
F435	F	-0.415792	0.685262	-0.369729
F436	F	-0.165792	0.935262	-0.119729
H437	H	-0.346356	0.404359	-0.310658
H438	H	-0.096356	0.654359	-0.060658
H439	H	0.153644	0.904359	0.189342
H440	H	0.403644	1.154359	0.439342
F441	F	-0.473241	0.418470	-0.311856
F442	F	-0.223241	0.668470	-0.061856
F443	F	0.026759	0.918470	0.188144
F444	F	0.276759	1.168470	0.438144
H445	H	-1.007918	0.860881	-0.293027
H446	H	-0.757918	1.110881	-0.043027
H447	H	-0.507918	1.360881	0.206973
H448	H	-0.257918	1.610881	0.456973
F449	F	-1.021985	0.733975	-0.291780
F450	F	-0.771985	0.983975	-0.041780
F451	F	-0.521985	1.233975	0.208220
F452	F	-0.271985	1.483975	0.458220
