data_functionalizedCrystal
_audit_creation_method	'MofGen! by Chris Wilmer'
_symmetry_space_group_name_H-M	'P1'
_symmetry_Int_Tables_number	1
_symmetry_cell_setting	triclinic
loop_
_symmetry_equiv_pos_as_xyz
  x,y,z
_cell_length_a	12.837943
_cell_length_b	10.723024
_cell_length_c	9.798715
_cell_angle_alpha	90.002215
_cell_angle_beta	89.997614
_cell_angle_gamma	90.351595
loop_
_atom_site_label
_atom_site_type_symbol
_atom_site_fract_x
_atom_site_fract_y
_atom_site_fract_z
O1	O	1.377761	-0.324662	-0.113460
O2	O	1.075842	-0.308624	-0.113468
O3	O	1.233766	-0.135823	-0.113459
O4	O	1.219837	-0.497463	-0.113469
O5	O	1.233755	-0.135821	0.113523
O6	O	1.075831	-0.308622	0.113514
O7	O	1.377750	-0.324660	0.113522
Zn8	Zn	1.226789	-0.316640	0.149556
Zn9	Zn	1.226803	-0.316644	-0.149503
O10	O	1.219826	-0.497460	0.113513
C11	C	1.037177	-0.303205	0.000022
C12	C	0.921985	-0.287047	0.000018
N13	N	1.226786	-0.316638	0.353656
C14	C	1.232747	-0.089212	0.000030
C15	C	1.229714	0.049671	0.000026
C16	C	0.682408	-0.481303	0.000032
C17	C	0.574174	-0.466126	0.000030
C18	C	0.597282	-0.241518	0.000022
C19	C	0.705515	-0.256694	0.000024
C20	C	0.748074	-0.376591	0.000027
C21	C	0.856310	-0.391766	0.000019
C22	C	0.879415	-0.167159	0.000021
C23	C	0.771182	-0.151982	0.000019
C24	C	1.416415	-0.330079	0.000029
C25	C	1.531607	-0.346237	0.000023
C26	C	1.220845	-0.544071	0.000020
C27	C	1.223878	-0.682955	0.000016
C28	C	1.318080	0.115056	0.000026
C29	C	1.314948	0.258600	0.000021
N30	N	1.226814	-0.316637	-0.353602
C31	C	1.293258	-0.243929	0.578592
C32	C	1.293244	-0.243928	0.421429
H33	H	0.890959	-0.489392	0.000024
H34	H	1.390596	0.314817	0.000028
F35	F	1.124992	0.243578	0.000025
H36	H	1.350127	-0.181675	0.363119
F37	F	0.551969	-0.113926	0.000035
F38	F	0.727705	-0.608903	0.000019
F39	F	1.127795	0.115398	0.000010
H40	H	1.350159	-0.181684	0.636889
H41	H	0.520712	-0.551394	0.000038
H42	H	1.169893	-0.378885	0.411957
H43	H	0.736515	-0.054366	0.000032
H44	H	0.932893	-0.081895	0.000008
F45	F	1.419999	0.049330	0.000021
F46	F	1.152448	-0.398010	0.570202
