data_functionalizedCrystal
_audit_creation_method	'MofGen! by Chris Wilmer'
_symmetry_space_group_name_H-M	'P1'
_symmetry_Int_Tables_number	1
_symmetry_cell_setting	triclinic
loop_
_symmetry_equiv_pos_as_xyz
  x,y,z
_cell_length_a	15.995350
_cell_length_b	27.732048
_cell_length_c	14.472310
_cell_angle_alpha	89.993924
_cell_angle_beta	89.990621
_cell_angle_gamma	83.067515
loop_
_atom_site_label
_atom_site_type_symbol
_atom_site_fract_x
_atom_site_fract_y
_atom_site_fract_z
O1	O	1.110190	0.062301	-0.076773
O2	O	0.866316	0.069995	-0.076793
O3	O	0.995827	-0.004216	-0.076765
O4	O	0.980679	0.136512	-0.076801
O5	O	0.995794	-0.004212	0.076917
O6	O	0.866282	0.069999	0.076889
O7	O	1.110157	0.062306	0.076909
Cu8	Cu	0.988217	0.066153	0.090931
Cu9	Cu	0.988256	0.066148	-0.090815
O10	O	0.980646	0.136517	0.076881
C11	C	0.835108	0.069679	0.000045
C12	C	0.742170	0.068726	0.000038
C13	C	0.404467	0.065301	0.000059
C14	C	0.452585	0.012449	0.000415
C15	C	0.549263	0.013403	0.000062
C16	C	0.572006	0.067000	0.000049
C17	C	0.530600	0.093065	-0.087714
C18	C	0.433982	0.091738	-0.087781
C19	C	0.433591	0.092835	0.086984
C20	C	0.530536	0.092822	0.088138
C21	C	0.666691	0.067962	0.000041
C22	C	0.309782	0.064340	0.000061
C23	C	0.995493	-0.022222	0.000079
C24	C	0.994535	-0.075881	0.000086
C25	C	1.065040	-0.414392	0.000045
C26	C	1.061487	-0.616067	0.000031
O27	O	1.125959	-0.647045	-0.000004
N28	N	0.984692	-0.635522	0.000026
C29	C	0.908780	-0.604555	0.000018
O30	O	0.843380	-0.625730	0.000003
C31	C	0.912334	-0.402881	0.000024
C32	C	0.989134	-0.383429	0.000039
C33	C	1.141834	-0.394940	0.000058
C34	C	1.142721	-0.344524	0.000067
C35	C	1.066815	-0.313561	0.000061
C36	C	0.990021	-0.333013	0.000047
C37	C	0.836422	-0.371914	0.000009
C38	C	0.837317	-0.321493	0.000009
C39	C	0.914117	-0.302041	0.000023
C40	C	0.915002	-0.251634	0.000050
N41	N	0.991797	-0.232179	0.000056
C42	C	1.067703	-0.263142	0.000061
C43	C	0.906920	-0.710437	0.000016
C44	C	0.906031	-0.760855	0.000016
C45	C	1.058739	-0.772364	0.000028
C46	C	1.059627	-0.721945	0.000035
C47	C	0.983715	-0.690982	0.000021
C48	C	1.069561	-0.157265	0.000080
C49	C	1.070442	-0.106844	0.000092
C50	C	0.917734	-0.095340	0.000075
C51	C	0.916853	-0.145756	0.000067
C52	C	0.992773	-0.176718	0.000067
O53	O	0.850565	-0.220628	0.000075
O54	O	1.133094	-0.241958	0.000055
C55	C	1.064153	-0.464808	0.000036
C56	C	0.987359	-0.484260	0.000022
C57	C	0.911452	-0.453297	0.000017
C58	C	0.986470	-0.534679	0.000022
C59	C	1.062377	-0.565642	0.000028
C60	C	1.139172	-0.546187	0.000033
C61	C	1.140059	-0.495771	0.000042
C62	C	0.834657	-0.472752	0.000011
C63	C	0.833776	-0.523168	0.000004
C64	C	0.909683	-0.554132	0.000010
C65	C	1.141364	0.062621	0.000068
C66	C	1.234302	0.063575	0.000069
C67	C	0.980980	0.154523	0.000035
C68	C	0.981938	0.208182	0.000022
N69	N	0.988195	0.066156	0.218762
N70	N	0.988284	0.066141	-0.218646
C71	C	0.988255	0.066146	0.592853
C72	C	0.918727	0.105721	0.553672
C73	C	0.918884	0.105866	0.446584
C74	C	0.988225	0.066151	0.407262
C75	C	1.075447	0.077167	0.446103
C76	C	1.075055	0.077448	0.553225
C77	C	0.971342	0.015437	0.553394
C78	C	0.969334	0.015775	0.446267
C79	C	0.988213	0.066153	0.302374
C80	C	0.988272	0.066145	0.697742
H81	H	1.132984	-0.091010	0.000106
H82	H	0.544216	0.132441	-0.090987
H83	H	1.205260	-0.328691	0.000075
H84	H	0.929307	0.143140	0.580573
H85	H	0.433277	-0.008581	-0.062166
H86	H	0.854029	0.099303	0.420325
H87	H	1.128394	0.049108	0.420631
C88	C	0.409593	0.066051	-0.176391
C89	C	0.477997	0.046888	-0.246600
C90	C	0.453613	0.021201	-0.335211
C91	C	0.360826	0.014676	-0.353614
C92	C	0.292416	0.033840	-0.283403
C93	C	0.316799	0.059528	-0.194792
H94	H	0.546689	0.051717	-0.232979
H95	H	0.504255	0.007014	-0.387186
H96	H	0.342775	-0.004339	-0.419209
H97	H	0.223723	0.029011	-0.297024
H98	H	0.266157	0.073714	-0.142817
C99	C	0.830811	0.096976	0.588425
C100	C	0.821074	0.053795	0.652816
C101	C	0.733151	0.045033	0.687536
C102	C	0.654966	0.079451	0.657864
C103	C	0.664701	0.122635	0.593469
C104	C	0.752624	0.131397	0.558750
H105	H	0.878953	0.028314	0.674784
H106	H	0.725944	0.013066	0.735205
H107	H	0.589880	0.072965	0.683565
H108	H	0.606821	0.148116	0.571501
H109	H	0.759830	0.163364	0.511080
H110	H	0.558085	0.073794	0.153064
C111	C	1.153073	-0.191318	0.000085
C112	C	1.173498	-0.227556	-0.079717
C113	C	1.257009	-0.261608	-0.079704
C114	C	1.320095	-0.259423	0.000112
C115	C	1.299671	-0.223183	0.079921
C116	C	1.216160	-0.189131	0.079908
H117	H	1.126797	-0.229175	-0.138807
H118	H	1.272127	-0.288435	-0.138784
H119	H	1.381915	-0.284630	0.000122
H120	H	1.346373	-0.221564	0.139011
H121	H	1.201042	-0.162305	0.138988
H122	H	0.577401	-0.007228	-0.062950
H123	H	0.401232	0.130540	-0.091773
H124	H	1.203650	-0.420146	0.000060
C125	C	0.751942	-0.393306	-0.000005
C126	C	0.730345	-0.426379	-0.079810
C127	C	0.645862	-0.447771	-0.079822
C128	C	0.582975	-0.436089	-0.000028
C129	C	0.604570	-0.403014	0.079784
C130	C	0.689054	-0.381622	0.079796
H131	H	0.776899	-0.435028	-0.138884
H132	H	0.629876	-0.472256	-0.138904
H133	H	0.520435	-0.451925	-0.000036
H134	H	0.558016	-0.394365	0.138858
H135	H	0.705040	-0.357138	0.138878
H136	H	0.929617	0.143496	0.420941
H137	H	1.090059	0.114429	0.578192
H138	H	1.128374	0.049759	0.579142
C139	C	1.096227	0.126558	0.409847
C140	C	1.034211	0.156931	0.345049
C141	C	1.054986	0.206324	0.308796
C142	C	1.137777	0.225342	0.337340
C143	C	1.199799	0.194968	0.402141
C144	C	1.179024	0.145576	0.438395
H145	H	0.972918	0.142853	0.323916
H146	H	1.009072	0.228809	0.260825
H147	H	1.153156	0.261906	0.310503
H148	H	1.261092	0.209047	0.423275
H149	H	1.224938	0.123091	0.486365
C150	C	1.144107	-0.700550	0.000043
C151	C	1.206957	-0.712237	0.079851
C152	C	1.291441	-0.690845	0.079857
C153	C	1.313075	-0.657767	0.000055
C154	C	1.250223	-0.646078	-0.079760
C155	C	1.165739	-0.667469	-0.079766
H156	H	1.190943	-0.736725	0.138931
H157	H	1.337968	-0.699498	0.138942
H158	H	1.375615	-0.641931	0.000059
H159	H	1.266237	-0.621590	-0.138840
H160	H	1.119213	-0.658817	-0.138850
H161	H	1.200977	-0.571406	0.000042
C162	C	0.887315	0.001134	0.589919
C163	C	0.886174	-0.045751	0.646687
C164	C	0.802143	-0.060047	0.683211
C165	C	0.719251	-0.027458	0.662967
C166	C	0.720388	0.019430	0.606195
C167	C	0.804420	0.033727	0.569671
H168	H	0.947538	-0.069878	0.661676
H169	H	0.801301	-0.094757	0.725237
H170	H	0.657046	-0.038041	0.690004
H171	H	0.659024	0.043557	0.591207
H172	H	0.805261	0.068437	0.527645
H173	H	0.905176	0.007416	0.420881
H174	H	0.545395	0.131907	0.093429
C175	C	1.033368	-0.025878	0.410117
C176	C	1.104251	-0.014828	0.344255
C177	C	1.168293	-0.056480	0.308106
C178	C	1.161452	-0.109181	0.337819
C179	C	1.090566	-0.120234	0.403684
C180	C	1.026524	-0.078582	0.439833
H181	H	1.109318	0.024187	0.322257
H182	H	1.220768	-0.048298	0.259348
H183	H	1.208860	-0.140015	0.311059
H184	H	1.085499	-0.159249	0.425682
H185	H	0.974049	-0.086763	0.488590
C186	C	1.142238	-0.806429	0.000028
C187	C	1.162612	-0.842681	0.079825
C188	C	1.246106	-0.876748	0.079817
C189	C	1.309228	-0.874563	0.000011
C190	C	1.288856	-0.838310	-0.079792
C191	C	1.205361	-0.804243	-0.079784
H192	H	1.115884	-0.844300	0.138908
H193	H	1.261187	-0.903586	0.138893
H194	H	1.371035	-0.899782	0.000005
H195	H	1.335583	-0.836691	-0.138874
H196	H	1.190281	-0.777406	-0.138860
C197	C	0.821549	-0.782248	0.000011
C198	C	0.758663	-0.770565	0.079806
C199	C	0.674178	-0.791955	0.079795
C200	C	0.652578	-0.825028	-0.000011
C201	C	0.715466	-0.836712	-0.079812
C202	C	0.799951	-0.815322	-0.079801
H203	H	0.774651	-0.746081	0.138888
H204	H	0.627625	-0.783305	0.138869
H205	H	0.590037	-0.840862	-0.000019
H206	H	0.699478	-0.861196	-0.138894
H207	H	0.846504	-0.823972	-0.138875
C208	C	0.823408	-0.676382	0.000014
C209	C	0.760307	-0.678569	-0.079786
C210	C	0.676795	-0.644518	-0.079782
C211	C	0.656384	-0.608280	0.000024
C212	C	0.719487	-0.606092	0.079830
C213	C	0.803000	-0.640143	0.079825
H214	H	0.775414	-0.705396	-0.138869
H215	H	0.630082	-0.646138	-0.138860
H216	H	0.594563	-0.583073	0.000027
H217	H	0.704380	-0.579265	0.138912
H218	H	0.849713	-0.638523	0.138904
C219	C	1.224541	-0.474378	0.000050
C220	C	1.246175	-0.441297	-0.079749
C221	C	1.330661	-0.419908	-0.079743
C222	C	1.393513	-0.431599	0.000063
C223	C	1.371880	-0.464682	0.079868
C224	C	1.287394	-0.486071	0.079861
H225	H	1.199647	-0.432641	-0.138831
H226	H	1.346675	-0.395418	-0.138820
H227	H	1.456055	-0.415766	0.000067
H228	H	1.418408	-0.473338	0.138950
H229	H	1.271381	-0.510561	0.138939
C230	C	0.588012	-0.014282	0.085047
C231	C	0.637226	0.012072	0.156798
C232	C	0.675969	-0.015617	0.241784
C233	C	0.665498	-0.069660	0.255019
C234	C	0.616282	-0.096016	0.183265
C235	C	0.577539	-0.068327	0.098279
H236	H	0.644979	0.052080	0.147003
H237	H	0.712402	0.003894	0.294901
H238	H	0.694177	-0.090157	0.317930
H239	H	0.608528	-0.136024	0.193060
H240	H	0.541106	-0.087838	0.045163
H241	H	0.559223	0.074958	-0.153020
H242	H	1.022053	-0.014014	0.578732
H243	H	0.413265	0.075558	0.153506
C244	C	0.427900	-0.016090	0.085435
C245	C	0.443825	0.002513	0.183358
C246	C	0.419129	-0.026027	0.268379
C247	C	0.378508	-0.073170	0.255478
C248	C	0.362580	-0.091775	0.157552
C249	C	0.387276	-0.063236	0.072530
H250	H	0.473898	0.037413	0.192911
H251	H	0.430920	-0.012254	0.340871
H252	H	0.360226	-0.094297	0.318416
H253	H	0.332508	-0.126675	0.147998
H254	H	0.375486	-0.077009	0.000038
C255	C	0.753811	-0.287434	-0.000003
C256	C	0.690720	-0.289615	-0.079816
C257	C	0.607215	-0.255557	-0.079825
C258	C	0.586801	-0.219318	-0.000022
C259	C	0.649894	-0.217136	0.079797
C260	C	0.733399	-0.251194	0.079806
H261	H	0.705830	-0.316443	-0.138896
H262	H	0.560510	-0.257173	-0.138912
H263	H	0.524986	-0.194107	-0.000029
H264	H	0.634784	-0.190308	0.138877
H265	H	0.780104	-0.249578	0.138893
C266	C	0.834241	-0.061273	0.000064
C267	C	0.813888	-0.025025	-0.079743
C268	C	0.730395	0.009043	-0.079762
C269	C	0.667256	0.006864	0.000027
C270	C	0.687607	-0.029385	0.079841
C271	C	0.771100	-0.063454	0.079860
H272	H	0.860629	-0.023411	-0.138814
H273	H	0.715330	0.035878	-0.138846
H274	H	0.605449	0.032084	0.000014
H275	H	0.640866	-0.031000	0.138911
H276	H	0.786165	-0.090288	0.138944
H277	H	0.401325	0.131802	0.087568
H278	H	0.854317	-0.161595	0.000081
H279	H	0.771232	-0.539001	-0.000000
H280	H	0.772844	-0.447546	0.000005
