data_functionalizedCrystal
_audit_creation_method	'MofGen! by Chris Wilmer'
_symmetry_space_group_name_H-M	'P1'
_symmetry_Int_Tables_number	1
_symmetry_cell_setting	triclinic
loop_
_symmetry_equiv_pos_as_xyz
  x,y,z
_cell_length_a	14.971482
_cell_length_b	10.654551
_cell_length_c	13.448316
_cell_angle_alpha	89.996249
_cell_angle_beta	89.993798
_cell_angle_gamma	84.048985
loop_
_atom_site_label
_atom_site_type_symbol
_atom_site_fract_x
_atom_site_fract_y
_atom_site_fract_z
O1	O	1.187840	0.163637	-0.082673
O2	O	0.927546	0.183240	-0.082677
O3	O	1.063678	-0.009365	-0.082675
O4	O	1.051709	0.356242	-0.082674
O5	O	1.063660	-0.009377	0.082709
O6	O	0.927529	0.183228	0.082707
O7	O	1.187823	0.163625	0.082711
Cu8	Cu	1.057675	0.173426	0.097810
Cu9	Cu	1.057695	0.173440	-0.097776
O10	O	1.051692	0.356230	0.082710
C11	C	0.894208	0.182358	0.000015
C12	C	0.794897	0.179734	0.000013
C13	C	0.748236	0.178491	0.090165
C14	C	0.654924	0.176005	0.090166
C15	C	0.608274	0.174770	0.000014
C16	C	0.654941	0.176009	-0.090145
C17	C	0.748252	0.178486	-0.090145
C18	C	0.460451	0.170849	-0.090138
C19	C	0.367134	0.168374	-0.090139
C20	C	0.367123	0.168367	0.090172
C21	C	0.460434	0.170845	0.090172
C22	C	0.507095	0.172086	0.000013
C23	C	1.062790	-0.056159	0.000015
C24	C	1.060160	-0.195574	0.000008
C25	C	1.058936	-0.261067	-0.090141
C26	C	1.056457	-0.392060	-0.090137
C27	C	1.056431	-0.392059	0.090174
C28	C	1.058903	-0.261066	0.090168
C29	C	1.058955	-0.261069	-0.194242
C30	C	1.056476	-0.392063	-0.194238
C31	C	1.221161	0.164507	0.000018
C32	C	1.320473	0.167131	0.000013
C33	C	1.052580	0.403025	0.000018
C34	C	1.055209	0.542439	0.000018
N35	N	1.057667	0.173415	0.235374
N36	N	1.057710	0.173440	-0.235340
C37	C	1.117965	0.088164	0.287415
C38	C	1.117970	0.088163	0.391519
C39	C	1.057681	0.173420	0.443579
C40	C	0.997377	0.258674	0.391531
C41	C	0.997368	0.258668	0.287429
C42	C	0.997402	0.258683	0.608511
C43	C	0.997412	0.258691	0.712619
C44	C	1.118004	0.088178	0.712600
C45	C	1.117995	0.088172	0.608499
C46	C	1.057692	0.173428	0.556458
H47	H	0.498440	0.171860	-0.163556
H48	H	1.167062	0.018744	0.245035
H49	H	0.498413	0.171858	0.163582
H50	H	1.167091	0.018756	0.566111
H51	H	0.991245	-0.420927	-0.226549
O52	O	1.060225	-0.190432	0.187404
H53	H	0.998890	-0.204480	0.230632
O54	O	1.138364	-0.454277	-0.247158
H55	H	1.180424	-0.380851	-0.273061
H56	H	1.167069	0.018745	0.433890
O57	O	1.183043	-0.003790	0.768721
H58	H	1.172914	0.010521	0.849855
O59	O	0.798543	0.179830	0.187405
H60	H	0.871267	0.181775	0.172263
O61	O	0.604637	0.174672	-0.187387
H62	H	0.554686	0.259080	-0.191710
O63	O	1.145363	-0.222813	-0.237038
H64	H	1.202911	-0.265544	-0.192197
H65	H	1.055406	-0.445398	0.163579
O66	O	0.932370	0.350617	0.768777
H67	H	0.890421	0.409880	0.715102
O68	O	0.798591	0.179824	-0.187376
H69	H	0.773252	0.264884	-0.230608
O70	O	0.932367	0.350641	0.552374
H71	H	0.890453	0.409939	0.606062
O72	O	0.977083	-0.198862	-0.247177
H73	H	0.935033	-0.272291	-0.273081
O74	O	0.604592	0.174678	0.187400
H75	H	0.652706	0.175973	0.250087
H76	H	0.948284	0.328088	0.433924
H77	H	0.948266	0.328086	0.245058
H78	H	0.329153	0.167370	-0.163548
O79	O	0.316800	0.167075	0.187420
H80	H	0.244078	0.165149	0.172278
