data_functionalizedCrystal
_audit_creation_method	'MofGen! by Chris Wilmer'
_symmetry_space_group_name_H-M	'P1'
_symmetry_Int_Tables_number	1
_symmetry_cell_setting	triclinic
loop_
_symmetry_equiv_pos_as_xyz
  x,y,z
_cell_length_a	17.699083
_cell_length_b	17.699083
_cell_length_c	16.176319
_cell_angle_alpha	89.992304
_cell_angle_beta	89.998611
_cell_angle_gamma	83.283015
loop_
_atom_site_label
_atom_site_type_symbol
_atom_site_fract_x
_atom_site_fract_y
_atom_site_fract_z
O1	O	1.004079	0.095713	-0.068632
O2	O	1.504079	0.595713	0.431368
O3	O	0.783700	0.108166	-0.068660
O4	O	1.283700	0.608166	0.431340
O5	O	0.900116	-0.008250	-0.068638
O6	O	1.400116	0.491750	0.431362
O7	O	0.887663	0.212129	-0.068654
O8	O	1.387663	0.712129	0.431346
O9	O	0.900100	-0.008257	0.068855
O10	O	1.400100	0.491743	0.568855
O11	O	0.783684	0.108158	0.068834
O12	O	1.283684	0.608158	0.568834
O13	O	1.004063	0.095706	0.068861
O14	O	1.504063	0.595706	0.568861
Cu15	Cu	0.893872	0.101931	0.081401
Cu16	Cu	1.393872	0.601931	0.581401
Cu17	Cu	0.893891	0.101940	-0.081200
Cu18	Cu	1.393891	0.601940	0.418800
O19	O	0.887647	0.212121	0.068839
O20	O	1.387647	0.712121	0.568839
C21	C	0.755495	0.107716	0.000084
C22	C	1.255495	0.607716	0.500084
C23	C	0.671477	0.106377	0.000073
C24	C	1.171477	0.606377	0.500073
C25	C	0.622856	0.174710	0.000069
C26	C	1.122856	0.674710	0.500069
C27	C	0.543913	0.173448	0.000079
C28	C	1.043913	0.673448	0.500079
C29	C	0.513592	0.103852	0.000089
C30	C	1.013592	0.603852	0.500089
C31	C	0.562219	0.035513	0.000096
C32	C	1.062219	0.535513	0.500096
C33	C	0.641161	0.036776	0.000091
C34	C	1.141161	0.536776	0.500091
C35	C	0.243856	0.030418	0.000117
C36	C	0.743856	0.530418	0.500117
C37	C	0.164908	0.029160	0.000120
C38	C	0.664908	0.529160	0.500120
C39	C	0.146608	0.167090	0.000105
C40	C	0.646608	0.667090	0.500105
C41	C	0.225550	0.168353	0.000100
C42	C	0.725550	0.668353	0.500100
C43	C	0.274170	0.100015	0.000112
C44	C	0.774170	0.600015	0.500112
C45	C	0.359769	0.101384	0.000102
C46	C	0.859769	0.601384	0.500102
C47	C	0.427995	0.102481	0.000093
C48	C	0.927995	0.602481	0.500093
C49	C	0.899662	-0.036451	0.000109
C50	C	1.399662	0.463549	0.500109
C51	C	0.898323	-0.120469	0.000109
C52	C	1.398323	0.379531	0.500109
C53	C	0.966656	-0.169090	0.000119
C54	C	1.466656	0.330910	0.500119
C55	C	0.965394	-0.248033	0.000111
C56	C	1.465394	0.251967	0.500111
C57	C	0.895798	-0.278354	0.000100
C58	C	1.395798	0.221646	0.500100
C59	C	0.827459	-0.229727	0.000088
C60	C	1.327459	0.270273	0.500088
C61	C	0.828722	-0.150785	0.000089
C62	C	1.328722	0.349215	0.500089
C63	C	0.822364	-0.548090	0.000080
C64	C	1.322364	-0.048090	0.500080
C65	C	0.821106	-0.627038	0.000081
C66	C	1.321106	-0.127038	0.500081
C67	C	0.959036	-0.645338	0.000102
C68	C	1.459036	-0.145338	0.500102
C69	C	0.960299	-0.566396	0.000104
C70	C	1.460299	-0.066396	0.500104
C71	C	0.891961	-0.517776	0.000087
C72	C	1.391961	-0.017776	0.500087
C73	C	0.893330	-0.432177	0.000094
C74	C	1.393330	0.067823	0.500094
C75	C	0.894427	-0.363951	0.000099
C76	C	1.394427	0.136049	0.500099
C77	C	1.032268	0.096156	0.000116
C78	C	1.532268	0.596156	0.500116
C79	C	1.116286	0.097494	0.000121
C80	C	1.616286	0.597494	0.500121
C81	C	0.888102	0.240322	0.000091
C82	C	1.388102	0.740322	0.500091
C83	C	0.889440	0.324340	0.000085
C84	C	1.389440	0.824340	0.500085
N85	N	0.893864	0.101925	0.195767
N86	N	1.393864	0.601925	0.695767
N87	N	0.893905	0.101941	-0.195565
N88	N	1.393905	0.601941	0.304435
C89	C	0.945429	0.050397	0.239040
C90	C	1.445429	0.550397	0.739040
C91	C	0.945432	0.050396	0.325588
C92	C	1.445432	0.550396	0.825588
C93	C	0.893875	0.101927	0.368859
C94	C	1.393875	0.601927	0.868859
C95	C	0.842305	0.153457	0.325579
C96	C	1.342305	0.653457	0.825579
C97	C	0.842299	0.153454	0.239034
C98	C	1.342299	0.653454	0.739034
C99	C	0.842331	0.153472	0.674608
C100	C	1.342331	0.653472	1.174608
C101	C	0.842344	0.153473	0.761159
C102	C	1.342344	0.653473	1.261159
C103	C	0.945465	0.050414	0.761161
C104	C	1.445465	0.550414	1.261161
C105	C	0.945458	0.050410	0.674616
C106	C	1.445458	0.550410	1.174616
C107	C	0.893886	0.101937	0.631344
C108	C	1.393886	0.601937	1.131344
C109	C	0.893882	0.101937	0.537499
C110	C	1.393882	0.601937	1.037499
C111	C	0.893883	0.101932	0.462702
C112	C	1.393883	0.601932	0.962702
H113	H	0.250232	0.225025	0.000089
H114	H	0.750232	0.725025	0.500089
H115	H	0.800323	0.195413	0.360816
H116	H	1.300323	0.695413	0.860816
H117	H	1.016971	-0.541714	0.000117
H118	H	1.516971	-0.041714	0.500117
O119	O	0.291113	-0.035941	0.000264
O120	O	0.791113	0.464059	0.500264
C121	C	0.337340	-0.039339	0.071460
C122	C	0.837340	0.460661	0.571460
H123	H	0.308359	-0.000589	0.121232
H124	H	0.808359	0.499411	0.621232
H125	H	0.346332	-0.100324	0.095362
H126	H	0.846332	0.399676	0.595362
H127	H	0.394709	-0.019852	0.055356
H128	H	0.894709	0.480148	0.555356
O129	O	0.995569	0.000279	0.632711
O130	O	1.495569	0.500279	1.132711
C131	C	1.041095	-0.045190	0.689465
C132	C	1.541095	0.454810	1.189465
H133	H	1.010075	-0.046004	0.751163
H134	H	1.510075	0.453996	1.251163
H135	H	1.052751	-0.105650	0.664469
H136	H	1.552751	0.394350	1.164469
H137	H	1.097272	-0.020686	0.698655
H138	H	1.597272	0.479314	1.198655
O139	O	0.792180	0.203557	0.803067
O140	O	1.292180	0.703557	1.303067
C141	C	0.746669	0.249047	0.746316
C142	C	1.246669	0.749047	1.246316
H143	H	0.745868	0.218016	0.684629
H144	H	1.245868	0.718016	1.184629
H145	H	0.686210	0.260661	0.771333
H146	H	1.186210	0.760661	1.271333
H147	H	0.771127	0.305246	0.737098
H148	H	1.271127	0.805246	1.237098
H149	H	0.987456	0.008455	0.796403
H150	H	1.487456	0.508455	1.296403
O151	O	0.792348	0.203566	0.632494
O152	O	1.292348	0.703566	1.132494
C153	C	0.832790	0.250220	0.582438
C154	C	1.332790	0.750220	1.082438
H155	H	0.892063	0.219994	0.569460
H156	H	1.392063	0.719994	1.069460
H157	H	0.801169	0.262245	0.521585
H158	H	1.301169	0.762245	1.021585
H159	H	0.837840	0.306147	0.615789
H160	H	1.337840	0.806147	1.115789
O161	O	0.995555	0.000451	0.367719
O162	O	1.495555	0.500451	0.867719
C163	C	1.042177	0.040935	0.417752
C164	C	1.542177	0.540935	0.917752
H165	H	1.011917	0.100198	0.430706
H166	H	1.511917	0.600198	0.930706
H167	H	1.054214	0.009334	0.478618
H168	H	1.554214	0.509334	0.978618
H169	H	1.098100	0.046011	0.384394
H170	H	1.598100	0.546011	0.884394
H171	H	0.537526	-0.021154	0.000116
H172	H	1.037526	0.478846	0.500116
O173	O	0.099485	0.233546	0.000066
O174	O	0.599485	0.733546	0.500066
C175	C	0.143176	0.295242	0.000072
C176	C	0.643176	0.795242	0.500072
H177	H	0.202130	0.275921	-0.025960
H178	H	0.702130	0.775921	0.474040
H179	H	0.113967	0.343113	-0.039851
H180	H	0.613967	0.843113	0.460149
H181	H	0.148762	0.316582	0.066031
H182	H	0.648762	0.816582	0.566031
H183	H	0.987416	0.008438	0.203814
H184	H	1.487416	0.508438	0.703814
H185	H	0.766718	-0.508512	0.000067
H186	H	1.266718	-0.008512	0.500067
H187	H	0.140225	-0.027517	0.000128
H188	H	0.640225	0.472483	0.500128
H189	H	0.773078	-0.111198	0.000081
H190	H	1.273078	0.388802	0.500081
H191	H	0.680748	-0.018868	0.000095
H192	H	1.180748	0.481132	0.500095
H193	H	1.023330	-0.144409	0.000133
H194	H	1.523330	0.355591	0.500133
O195	O	1.031825	-0.295183	0.000014
O196	O	1.531825	0.204817	0.500014
C197	C	1.074093	-0.281460	-0.071194
C198	C	1.574093	0.218540	0.428806
H199	H	1.055399	-0.221538	-0.094936
H200	H	1.555399	0.278462	0.405064
H201	H	1.137225	-0.287128	-0.055165
H202	H	1.637225	0.212872	0.444835
H203	H	1.063836	-0.324615	-0.121062
H204	H	1.563836	0.175385	0.378938
O205	O	0.652181	0.242384	0.000095
O206	O	1.152181	0.742384	0.500095
C207	C	0.592334	0.302425	0.000074
C208	C	1.092334	0.802425	0.500074
H209	H	0.538747	0.281304	0.026109
H210	H	1.038747	0.781304	0.526109
H211	H	0.608742	0.351023	0.039986
H212	H	1.108742	0.851023	0.539986
H213	H	0.581121	0.323500	-0.065890
H214	H	1.081121	0.823500	0.434110
O215	O	0.496609	0.239779	-0.000043
O216	O	0.996609	0.739779	0.499957
C217	C	0.450410	0.243183	-0.071261
C218	C	0.950410	0.743183	0.428739
H219	H	0.446524	0.183114	-0.094986
H220	H	0.946524	0.683114	0.405014
H221	H	0.391026	0.271491	-0.055249
H222	H	0.891026	0.771491	0.444751
H223	H	0.476320	0.277697	-0.121134
H224	H	0.976320	0.777697	0.378866
H225	H	1.014680	-0.684934	0.000111
H226	H	1.514680	-0.184934	0.500111
H227	H	0.800309	0.195412	0.203801
H228	H	1.300309	0.695412	0.703801
O229	O	0.753430	-0.656366	0.000027
O230	O	1.253430	-0.156366	0.500027
C231	C	0.693382	-0.596526	0.000031
C232	C	1.193382	-0.096526	0.500031
H233	H	0.714502	-0.542932	-0.025995
H234	H	1.214502	-0.042932	0.474005
H235	H	0.644794	-0.612934	-0.039900
H236	H	1.144794	-0.112934	0.460100
H237	H	0.672295	-0.585323	0.065987
H238	H	1.172295	-0.085323	0.565987
O239	O	0.759918	-0.259304	0.000113
O240	O	1.259918	0.240696	0.500113
C241	C	0.773455	-0.339406	0.000096
C242	C	1.273455	0.160594	0.500096
H243	H	0.832550	-0.358057	0.026134
H244	H	1.332550	0.141943	0.526134
H245	H	0.728924	-0.363566	0.040009
H246	H	1.228924	0.136434	0.540009
H247	H	0.769835	-0.361368	-0.065866
H248	H	1.269835	0.138632	0.434134
