data_functionalizedCrystal
_audit_creation_method	'MofGen! by Chris Wilmer'
_symmetry_space_group_name_H-M	'P1'
_symmetry_Int_Tables_number	1
_symmetry_cell_setting	triclinic
loop_
_symmetry_equiv_pos_as_xyz
  x,y,z
_cell_length_a	34.408637
_cell_length_b	34.407814
_cell_length_c	34.404193
_cell_angle_alpha	60.004510
_cell_angle_beta	60.009006
_cell_angle_gamma	59.994604
loop_
_atom_site_label
_atom_site_type_symbol
_atom_site_fract_x
_atom_site_fract_y
_atom_site_fract_z
O1	O	0.053973	-0.567860	0.474801
O2	O	0.020377	-0.442124	0.382567
O3	O	0.100004	-0.521670	0.382483
O4	O	-0.025653	-0.488314	0.474886
O5	O	0.126426	-0.495253	0.408816
O6	O	0.046800	-0.415707	0.408900
O7	O	0.080396	-0.541443	0.501134
Zn8	Zn	0.067793	-0.474381	0.459198
Zn9	Zn	0.032980	-0.509186	0.424503
O10	O	0.000769	-0.461897	0.501219
N11	N	0.091552	-0.450631	0.482879
N12	N	0.009225	-0.532940	0.400823
C13	C	0.142848	-0.268847	0.534081
C14	C	0.142979	-0.399386	0.664559
C15	C	0.142862	-0.399365	0.534081
C16	C	0.273409	-0.399338	0.533986
C17	C	0.157225	-0.311914	0.548422
C18	C	0.157300	-0.385019	0.621491
C19	C	0.230339	-0.384991	0.548370
C20	C	0.157235	-0.385007	0.548422
C21	C	0.124548	-0.214028	0.515827
C22	C	0.124571	-0.417639	0.515827
C23	C	0.175526	-0.366733	0.566676
C24	C	0.353121	-0.385580	0.491988
C25	C	0.402952	-0.402180	0.475348
C26	C	0.402981	-0.482812	0.506096
C27	C	0.353151	-0.466211	0.522737
C28	C	0.136544	-0.189099	0.466839
C29	C	0.119905	-0.139265	0.450247
C30	C	0.079280	-0.139291	0.531632
C31	C	0.095918	-0.189125	0.548224
C32	C	0.075577	-0.405615	0.527900
C33	C	0.058953	-0.422228	0.511301
C34	C	0.140315	-0.462889	0.470566
C35	C	0.156941	-0.446276	0.487159
C36	C	0.075772	-0.405653	0.744326
C37	C	0.059206	-0.422280	0.794159
C38	C	0.140607	-0.462951	0.794094
C39	C	0.157172	-0.446325	0.744260
C40	C	0.124753	-0.417674	0.719377
C41	C	0.328223	-0.417595	0.515681
C42	C	-0.172390	-0.583988	0.349141
C43	C	-0.041751	-0.584138	0.218783
C44	C	-0.041941	-0.584130	0.349402
C45	C	-0.041957	-0.714607	0.349338
C46	C	-0.129326	-0.598388	0.334853
C47	C	-0.056165	-0.598473	0.261852
C48	C	-0.056282	-0.671535	0.334962
C49	C	-0.056272	-0.598469	0.334999
C50	C	-0.227205	-0.565659	0.367327
C51	C	-0.023703	-0.565882	0.367734
C52	C	-0.074511	-0.616717	0.316667
C53	C	-0.055754	-0.794298	0.391257
C54	C	-0.039181	-0.844132	0.407888
C55	C	0.041447	-0.844215	0.377269
C56	C	0.024873	-0.794381	0.360637
C57	C	-0.252183	-0.577666	0.416302
C58	C	-0.302014	-0.561001	0.432833
C59	C	-0.301886	-0.520329	0.351410
C60	C	-0.252055	-0.536994	0.334880
C61	C	-0.035709	-0.516892	0.355682
C62	C	-0.019129	-0.500308	0.372353
C63	C	0.021465	-0.581700	0.413115
C64	C	0.004884	-0.598286	0.396450
C65	C	-0.035389	-0.516907	0.139026
C66	C	-0.018707	-0.500324	0.089193
C67	C	0.021949	-0.581721	0.089240
C68	C	0.005268	-0.598303	0.139074
C69	C	-0.023402	-0.565894	0.163965
C70	C	-0.023728	-0.769425	0.367633
N71	N	0.427173	-0.450553	0.482630
O72	O	0.589997	-0.458460	0.365361
O73	O	0.590185	-0.550997	0.490963
O74	O	0.590104	-0.550786	0.411309
O75	O	0.590077	-0.458671	0.445016
O76	O	0.510940	-0.524462	0.437777
O77	O	0.511020	-0.524674	0.517432
O78	O	0.510832	-0.432136	0.391830
Zn79	Zn	0.498357	-0.474225	0.458833
Zn80	Zn	0.602660	-0.508908	0.423960
O81	O	0.510913	-0.432348	0.471484
N82	N	0.673844	-0.532580	0.400158
N83	N	0.091520	-0.115070	0.482873
O84	O	-0.025663	0.047841	0.474857
O85	O	0.099940	0.047877	0.382299
O86	O	0.020247	0.047844	0.382560
O87	O	0.054030	0.047874	0.474596
O88	O	0.046674	-0.031326	0.408942
O89	O	0.126367	-0.031293	0.408680
O90	O	0.000764	-0.031329	0.501238
Zn91	Zn	0.067761	-0.043881	0.459148
Zn92	Zn	0.032943	0.060429	0.424389
O93	O	0.080457	-0.031296	0.500977
N94	N	0.009178	0.131618	0.400665
N95	N	0.091852	-0.450680	0.818332
O96	O	0.083862	-0.567845	0.981235
O97	O	-0.008657	-0.442198	0.981276
O98	O	-0.008441	-0.521875	0.981252
O99	O	0.083646	-0.488168	0.981258
O100	O	0.017919	-0.495468	0.902085
O101	O	0.017703	-0.415791	0.902109
O102	O	0.110222	-0.541438	0.902067
Zn103	Zn	0.068148	-0.474422	0.889518
Zn104	Zn	0.033417	-0.509214	0.993825
O105	O	0.110006	-0.461761	0.902091
N106	N	0.009712	-0.532961	1.065011
C107	C	0.030439	-0.413071	0.383027
C108	C	0.129046	-0.511580	0.382922
C109	C	0.070334	-0.570496	0.500675
C110	C	-0.028274	-0.471987	0.500780
C111	C	0.550625	-0.550579	0.520021
C112	C	0.550527	-0.550317	0.421379
C113	C	0.550389	-0.432554	0.362773
C114	C	0.550491	-0.432816	0.461414
C115	C	0.128944	0.008394	0.382712
C116	C	0.030287	0.008256	0.383068
C117	C	-0.028273	0.008252	0.500793
C118	C	0.070417	0.008292	0.500470
C119	C	-0.008218	-0.413165	0.941698
C120	C	-0.007945	-0.511830	0.941653
C121	C	0.109783	-0.570471	0.941646
C122	C	0.109516	-0.471800	0.941673
H123	H	0.049370	-0.382321	0.724071
H124	H	0.086148	-0.209418	0.588113
H125	H	0.023260	-0.376951	0.354059
C126	C	0.177800	-0.521178	0.343720
C127	C	0.216996	-0.569949	0.353301
C128	C	0.265750	-0.579547	0.314100
C129	C	0.275308	-0.540374	0.265316
C130	C	0.236111	-0.491600	0.255733
C131	C	0.187357	-0.482002	0.294934
H132	H	0.209921	-0.598950	0.389416
H133	H	0.294766	-0.615653	0.321194
H134	H	0.311399	-0.547479	0.236297
H135	H	0.243186	-0.462599	0.219618
H136	H	0.158341	-0.445896	0.287840
H137	H	0.138447	-0.464586	0.941669
H138	H	0.023050	0.008252	0.354152
C139	C	0.047790	-0.111896	0.567269
C140	C	0.066898	-0.118748	0.603092
C141	C	0.035407	-0.091355	0.638731
C142	C	-0.015191	-0.057111	0.638545
C143	C	-0.034301	-0.050257	0.602720
C144	C	-0.002811	-0.077650	0.567082
H145	H	0.104356	-0.144099	0.603231
H146	H	0.049554	-0.096429	0.665250
H147	H	-0.038502	-0.036833	0.664927
H148	H	-0.071760	-0.024906	0.602582
H149	H	-0.016958	-0.072577	0.540562
C150	C	0.550477	-0.393722	0.471153
C151	C	0.509394	-0.375151	0.511735
C152	C	0.509381	-0.336056	0.521474
C153	C	0.550450	-0.315533	0.490632
C154	C	0.591536	-0.334103	0.450047
C155	C	0.591550	-0.373198	0.440308
H156	H	0.478990	-0.390344	0.534569
H157	H	0.478966	-0.322309	0.551518
H158	H	0.550440	-0.286592	0.497841
H159	H	0.621941	-0.318910	0.427213
H160	H	0.621965	-0.386945	0.410265
C161	C	0.177571	0.008708	0.343356
C162	C	0.216766	0.008876	0.352788
C163	C	0.265393	0.009190	0.313432
C164	C	0.274826	0.009335	0.264644
C165	C	0.235630	0.009167	0.255209
C166	C	0.187002	0.008853	0.294565
H167	H	0.209785	0.008768	0.388906
H168	H	0.294409	0.009314	0.320416
H169	H	0.310823	0.009568	0.235510
H170	H	0.242611	0.009275	0.219091
H171	H	0.157987	0.008729	0.287581
H172	H	0.077514	-0.606615	0.529644
C173	C	-0.077002	0.008240	0.540049
C174	C	-0.095085	-0.032882	0.558822
C175	C	-0.143814	-0.032894	0.598078
C176	C	-0.174459	0.008216	0.618561
C177	C	-0.156377	0.049342	0.599788
C178	C	-0.107648	0.049354	0.560532
H179	H	-0.072398	-0.063318	0.543659
H180	H	-0.157199	-0.063338	0.611975
H181	H	-0.210531	0.008208	0.647621
H182	H	-0.179063	0.079777	0.614951
H183	H	-0.094262	0.079798	0.546636
C184	C	0.550312	-0.393302	0.314043
C185	C	0.550269	-0.344539	0.304535
C186	C	0.550191	-0.305287	0.255805
C187	C	0.550157	-0.314799	0.216585
C188	C	0.550200	-0.363565	0.226093
C189	C	0.550277	-0.402817	0.274822
H190	H	0.550294	-0.337495	0.333569
H191	H	0.550159	-0.269187	0.248767
H192	H	0.550099	-0.285743	0.180513
H193	H	0.550174	-0.370609	0.197059
H194	H	0.550309	-0.438917	0.281860
H195	H	-0.037264	-0.377079	0.941710
C196	C	-0.077029	-0.462390	0.539980
C197	C	-0.116225	-0.413620	0.530398
C198	C	-0.164980	-0.404023	0.569599
C199	C	-0.174539	-0.443196	0.618382
C200	C	-0.135341	-0.491970	0.627966
C201	C	-0.086586	-0.501567	0.588765
H202	H	-0.109150	-0.384619	0.494284
H203	H	-0.193997	-0.367917	0.562504
H204	H	-0.210630	-0.436092	0.647400
H205	H	-0.142416	-0.520971	0.664080
H206	H	-0.057570	-0.537673	0.595860
C207	C	0.080188	0.008299	0.539536
C208	C	0.129011	0.008316	0.529765
C209	C	0.138781	0.008324	0.568831
C210	C	0.099729	0.008315	0.617667
C211	C	0.050903	0.008298	0.627439
C212	C	0.041132	0.008290	0.588374
H213	H	0.157923	0.008323	0.493612
H214	H	0.174926	0.008337	0.561596
H215	H	0.106962	0.008321	0.646586
H216	H	0.021991	0.008291	0.663593
H217	H	0.004988	0.008278	0.595608
H218	H	-0.036863	-0.519031	0.941619
C219	C	0.149026	-0.619218	0.941629
C220	C	0.139518	-0.658449	0.941618
C221	C	0.178761	-0.707197	0.941601
C222	C	0.227511	-0.716714	0.941596
C223	C	0.237021	-0.677483	0.941608
C224	C	0.197779	-0.628735	0.941624
H225	H	0.103428	-0.651404	0.941622
H226	H	0.171721	-0.736238	0.941593
H227	H	0.256561	-0.752800	0.941584
H228	H	0.273111	-0.684527	0.941604
H229	H	0.204819	-0.599693	0.941632
H230	H	0.019320	-0.412483	0.814467
C231	C	0.550695	-0.589828	0.568753
C232	C	0.550726	-0.580314	0.607974
C233	C	0.550796	-0.619563	0.656706
C234	C	0.550835	-0.668326	0.666216
C235	C	0.550804	-0.677841	0.626994
C236	C	0.550735	-0.638592	0.578262
H237	H	0.550697	-0.544215	0.600935
H238	H	0.550818	-0.612519	0.685741
H239	H	0.550887	-0.697380	0.702290
H240	H	0.550834	-0.713940	0.634033
H241	H	0.550712	-0.645637	0.549227
C242	C	0.550542	-0.589412	0.411639
C243	C	0.550486	-0.579666	0.362834
C244	C	0.550500	-0.618761	0.353095
C245	C	0.550572	-0.667602	0.392160
C246	C	0.550628	-0.677351	0.440968
C247	C	0.550613	-0.638256	0.450707
H248	H	0.550433	-0.543508	0.333913
H249	H	0.550459	-0.611544	0.316963
H250	H	0.550583	-0.696543	0.384950
H251	H	0.550681	-0.713509	0.469889
H252	H	0.550655	-0.645473	0.486839
H253	H	0.167007	-0.486271	0.814352
H254	H	0.049217	-0.382297	0.551240
C255	C	0.211055	-0.459548	0.716818
C256	C	0.246712	-0.491056	0.744190
C257	C	0.300594	-0.504279	0.716749
C258	C	0.318819	-0.485993	0.661936
C259	C	0.283162	-0.454483	0.634561
C260	C	0.229280	-0.441260	0.662002
H261	H	0.233221	-0.504594	0.784769
H262	H	0.326990	-0.527604	0.737014
H263	H	0.358706	-0.495781	0.641622
H264	H	0.296653	-0.440945	0.593982
H265	H	0.202884	-0.417934	0.641736
H266	H	0.166679	-0.486211	0.447227
C267	C	0.005059	-0.409006	0.524577
C268	C	-0.026184	-0.423532	0.577218
C269	C	-0.080077	-0.410311	0.590492
C270	C	-0.102726	-0.382565	0.551125
C271	C	-0.071483	-0.368038	0.498481
C272	C	-0.017590	-0.381259	0.485206
H273	H	-0.009418	-0.444072	0.606362
H274	H	-0.103205	-0.421065	0.629463
H275	H	-0.142621	-0.372778	0.560952
H276	H	-0.088249	-0.347497	0.469336
H277	H	0.005539	-0.370505	0.446235
C278	C	0.018453	-0.652193	0.166507
C279	C	0.046128	-0.674827	0.200839
C280	C	0.059312	-0.728716	0.228270
C281	C	0.044822	-0.759971	0.221370
C282	C	0.017146	-0.737338	0.187036
C283	C	0.003962	-0.683449	0.159605
H284	H	0.056856	-0.651689	0.205948
H285	H	0.079800	-0.745470	0.253686
H286	H	0.054582	-0.799863	0.241676
H287	H	0.006418	-0.760475	0.181927
H288	H	-0.016526	-0.666694	0.134189
C289	C	0.210836	-0.459502	0.473882
C290	C	0.246441	-0.491002	0.442350
C291	C	0.300336	-0.504230	0.429073
C292	C	0.318625	-0.485957	0.447328
C293	C	0.283019	-0.454455	0.478861
C294	C	0.229124	-0.441228	0.492139
H295	H	0.232903	-0.504530	0.428835
H296	H	0.326694	-0.527550	0.405730
H297	H	0.358521	-0.495749	0.437499
H298	H	0.296557	-0.440927	0.492376
H299	H	0.202766	-0.417908	0.515482
H300	H	0.423275	-0.522397	0.511838
C301	C	0.325768	-0.501433	0.548797
C302	C	0.291548	-0.506380	0.600343
C303	C	0.264166	-0.541606	0.626402
C304	C	0.271005	-0.571883	0.600916
C305	C	0.305226	-0.566936	0.549368
C306	C	0.332608	-0.531711	0.523309
H307	H	0.286484	-0.483967	0.619212
H308	H	0.238833	-0.545267	0.664562
H309	H	0.250735	-0.597959	0.620207
H310	H	0.310290	-0.589350	0.530499
H311	H	0.357941	-0.528049	0.485149
C312	C	0.430344	-0.366963	0.449282
C313	C	0.464631	-0.372549	0.469486
C314	C	0.492023	-0.337332	0.443417
C315	C	0.485129	-0.296530	0.397144
C316	C	0.450841	-0.290942	0.376938
C317	C	0.423448	-0.326159	0.403007
H318	H	0.469735	-0.402754	0.503742
H319	H	0.517406	-0.341469	0.458375
H320	H	0.505407	-0.270461	0.377847
H321	H	0.445736	-0.260737	0.342682
H322	H	0.398066	-0.322022	0.388049
C323	C	0.325698	-0.332101	0.484229
C324	C	0.332509	-0.295861	0.433382
C325	C	0.305088	-0.242383	0.425621
C326	C	0.270856	-0.225144	0.468707
C327	C	0.264043	-0.261384	0.519557
C328	C	0.291464	-0.314863	0.527319
H329	H	0.357851	-0.308622	0.401484
H330	H	0.310132	-0.215555	0.387977
H331	H	0.250557	-0.185556	0.462962
H332	H	0.238700	-0.248624	0.551456
H333	H	0.286420	-0.341690	0.564962
C334	C	0.168035	-0.216490	0.431201
C335	C	0.216075	-0.209616	0.395319
C336	C	0.247566	-0.237009	0.359681
C337	C	0.231017	-0.271277	0.359925
C338	C	0.182974	-0.278153	0.395809
C339	C	0.151483	-0.250760	0.431446
H340	H	0.228328	-0.184248	0.395137
H341	H	0.283131	-0.231919	0.333118
H342	H	0.254329	-0.291555	0.333544
H343	H	0.170721	-0.303521	0.395990
H344	H	0.115918	-0.255850	0.458009
C345	C	0.133100	-0.111838	0.396359
C346	C	0.185717	-0.118666	0.365045
C347	C	0.198911	-0.091241	0.311156
C348	C	0.159487	-0.056988	0.288581
C349	C	0.106867	-0.050158	0.319895
C350	C	0.093673	-0.077584	0.373784
H351	H	0.214903	-0.144024	0.381756
H352	H	0.237864	-0.096297	0.287976
H353	H	0.169254	-0.036686	0.248690
H354	H	0.077680	-0.024801	0.303184
H355	H	0.054719	-0.072528	0.396965
C356	C	-0.031903	-0.446435	0.061763
C357	C	0.007518	-0.423871	0.027568
C358	C	-0.005676	-0.369981	0.000138
C359	C	-0.058290	-0.338656	0.006904
C360	C	-0.097715	-0.361220	0.041101
C361	C	-0.084521	-0.415109	0.068530
H362	H	0.046470	-0.447060	0.022558
H363	H	0.023509	-0.353278	-0.025176
H364	H	-0.068057	-0.298764	-0.013401
H365	H	-0.136666	-0.338031	0.046111
H366	H	-0.113706	-0.431813	0.093845
C367	C	-0.066928	-0.481255	0.166404
C368	C	-0.080113	-0.427369	0.138969
C369	C	-0.111650	-0.391718	0.166347
C370	C	-0.130001	-0.409953	0.221161
C371	C	-0.116815	-0.463842	0.248598
C372	C	-0.085279	-0.499493	0.221220
H373	H	-0.066529	-0.413868	0.098390
H374	H	-0.121410	-0.351826	0.146036
H375	H	-0.153346	-0.383562	0.241428
H376	H	-0.130400	-0.477343	0.289177
H377	H	-0.075519	-0.539385	0.241531
H378	H	0.045284	-0.608113	0.068976
H379	H	-0.058984	-0.490504	0.332300
H380	H	-0.028907	-0.460416	0.362542
H381	H	0.014660	-0.638178	0.406265
C382	C	0.052914	-0.617348	0.444700
C383	C	0.100979	-0.653240	0.425696
C384	C	0.132427	-0.688885	0.457281
C385	C	0.115810	-0.688638	0.507871
C386	C	0.067743	-0.652745	0.526878
C387	C	0.036295	-0.617100	0.495293
H388	H	0.113283	-0.653424	0.388244
H389	H	0.168010	-0.715456	0.443211
H390	H	0.139090	-0.715025	0.531253
H391	H	0.055440	-0.652561	0.564330
H392	H	0.000712	-0.590529	0.509363
H393	H	0.081021	-0.864532	0.371574
C394	C	0.060105	-0.767022	0.334648
C395	C	0.113564	-0.794479	0.326957
C396	C	0.148798	-0.767120	0.300968
C397	C	0.130574	-0.712304	0.282670
C398	C	0.077112	-0.684845	0.290361
C399	C	0.041878	-0.712204	0.316350
H400	H	0.127058	-0.835059	0.340503
H401	H	0.188374	-0.787448	0.295275
H402	H	0.156656	-0.692052	0.263431
H403	H	0.063618	-0.644264	0.276815
H404	H	0.002302	-0.691876	0.322043
H405	H	-0.095331	-0.773979	0.396956
C406	C	-0.074413	-0.871495	0.433879
C407	C	-0.115253	-0.864601	0.480128
C408	C	-0.150485	-0.891964	0.506123
C409	C	-0.144876	-0.926221	0.485870
C410	C	-0.104033	-0.933117	0.439619
C411	C	-0.068802	-0.905754	0.413624
H412	H	-0.119407	-0.839240	0.495123
H413	H	-0.180719	-0.886859	0.540361
H414	H	-0.170956	-0.946477	0.505113
H415	H	-0.099879	-0.958478	0.424624
H416	H	-0.038568	-0.910859	0.379386
H417	H	-0.231954	-0.601008	0.442726
H418	H	-0.322352	-0.570775	0.472713
C419	C	-0.329222	-0.488800	0.315718
C420	C	-0.322325	-0.507874	0.279847
C421	C	-0.349659	-0.476343	0.244153
C422	C	-0.383890	-0.425738	0.244332
C423	C	-0.390788	-0.406662	0.280205
C424	C	-0.363454	-0.438193	0.315898
H425	H	-0.296984	-0.545337	0.279713
H426	H	-0.344553	-0.490465	0.217598
H427	H	-0.404125	-0.402397	0.217910
H428	H	-0.416129	-0.369199	0.280338
H429	H	-0.368561	-0.424071	0.342453
H430	H	-0.231721	-0.527215	0.295000
