data_functionalizedCrystal
_audit_creation_method	'MofGen! by Chris Wilmer'
_symmetry_space_group_name_H-M	'P1'
_symmetry_Int_Tables_number	1
_symmetry_cell_setting	triclinic
loop_
_symmetry_equiv_pos_as_xyz
  x,y,z
_cell_length_a	11.169417
_cell_length_b	11.169416
_cell_length_c	11.169409
_cell_angle_alpha	90.028030
_cell_angle_beta	89.981053
_cell_angle_gamma	89.984328
loop_
_atom_site_label
_atom_site_type_symbol
_atom_site_fract_x
_atom_site_fract_y
_atom_site_fract_z
Zn1	Zn	1.834939	0.477627	-0.678551
Zn2	Zn	1.834819	0.678368	-0.477883
Zn3	Zn	1.634225	0.477706	-0.477888
Zn4	Zn	1.634223	0.678276	-0.678531
O5	O	1.734552	0.577994	-0.578213
O6	O	2.002873	0.504261	-0.651938
O7	O	1.808161	0.651821	-0.309933
O8	O	1.660902	0.309746	-0.504517
O9	O	2.002785	0.651744	-0.504508
O10	O	1.808365	0.309688	-0.651943
O11	O	1.660785	0.504396	-0.309937
O12	O	1.466275	0.504307	-0.504498
O13	O	1.660898	0.651588	-0.846483
O14	O	1.466274	0.651665	-0.651909
O15	O	1.808363	0.504172	-0.846498
O16	O	1.808158	0.846305	-0.504488
O17	O	1.660781	0.846238	-0.651903
C18	C	1.422727	0.577985	-0.578202
C19	C	1.289327	0.578010	-0.578226
C20	C	1.734489	0.889819	-0.578219
C21	C	1.734572	1.023219	-0.578262
C22	C	1.734644	0.577861	-0.891256
C23	C	1.734683	0.577804	-1.024656
C24	C	2.047594	0.578004	-0.578224
C25	C	2.180994	0.578008	-0.578229
C26	C	1.734635	1.264952	-0.578245
C27	C	1.734640	1.131552	-0.578291
C28	C	1.734529	0.578040	-0.266388
C29	C	1.734722	0.577759	-0.132989
