data_functionalizedCrystal
_audit_creation_method	'MofGen! by Chris Wilmer'
_symmetry_space_group_name_H-M	'P1'
_symmetry_Int_Tables_number	1
_symmetry_cell_setting	triclinic
loop_
_symmetry_equiv_pos_as_xyz
  x,y,z
_cell_length_a	12.759401
_cell_length_b	25.639239
_cell_length_c	12.759393
_cell_angle_alpha	90.037052
_cell_angle_beta	90.018496
_cell_angle_gamma	90.038847
loop_
_atom_site_label
_atom_site_type_symbol
_atom_site_fract_x
_atom_site_fract_y
_atom_site_fract_z
Zn1	Zn	1.606080	-0.208118	0.593941
Zn2	Zn	2.106080	0.291882	1.093941
Zn3	Zn	1.605901	-0.295564	0.418245
Zn4	Zn	2.105901	0.204436	0.918245
Zn5	Zn	1.430382	-0.208145	0.418281
Zn6	Zn	1.930382	0.291855	0.918281
Zn7	Zn	1.430297	-0.295524	0.593886
Zn8	Zn	1.930297	0.204476	1.093886
O9	O	1.518165	-0.251838	0.506088
O10	O	2.018165	0.248162	1.006088
O11	O	1.753078	-0.219723	0.570643
O12	O	2.253078	0.280277	1.070643
O13	O	1.582579	-0.283996	0.271228
O14	O	2.082579	0.216004	0.771228
O15	O	1.453799	-0.134976	0.441621
O16	O	1.953799	0.365024	0.941621
O17	O	1.752946	-0.283970	0.441559
O18	O	2.252946	0.216030	0.941559
O19	O	1.582884	-0.134956	0.570678
O20	O	2.082884	0.365044	1.070678
O21	O	1.453626	-0.219770	0.271255
O22	O	1.953626	0.280230	0.771255
O23	O	1.283350	-0.219731	0.441567
O24	O	1.783350	0.280269	0.941567
O25	O	1.453655	-0.283901	0.740914
O26	O	1.953655	0.216099	1.240914
O27	O	1.283288	-0.283928	0.570584
O28	O	1.783288	0.216072	1.070584
O29	O	1.582802	-0.219684	0.740955
O30	O	2.082802	0.280316	1.240955
O31	O	1.582496	-0.368724	0.441505
O32	O	2.082496	0.131276	0.941505
O33	O	1.453481	-0.368695	0.570549
O34	O	1.953481	0.131305	1.070549
C35	C	1.245198	-0.251828	0.506074
C36	C	1.745198	0.248172	1.006074
C37	C	1.128421	-0.251837	0.506093
C38	C	1.628421	0.248163	1.006093
C39	C	1.073554	-0.285318	0.573160
C40	C	1.573554	0.214682	1.073160
C41	C	0.963830	-0.285324	0.573172
C42	C	1.463830	0.214676	1.073172
C43	C	0.963850	-0.218368	0.439039
C44	C	1.463850	0.281632	0.939039
C45	C	1.073572	-0.218359	0.439033
C46	C	1.573572	0.281641	0.939033
C47	C	1.128404	-0.318796	0.640220
C48	C	1.628404	0.181204	1.140220
C49	C	1.073536	-0.352280	0.707292
C50	C	1.573536	0.147720	1.207292
C51	C	0.963812	-0.352286	0.707303
C52	C	1.463812	0.147714	1.207303
C53	C	0.908955	-0.318809	0.640242
C54	C	1.408955	0.181191	1.140242
C55	C	1.517989	-0.387680	0.506040
C56	C	2.017989	0.112320	1.006040
C57	C	1.518009	-0.445795	0.506055
C58	C	2.018009	0.054205	1.006055
C59	C	1.585519	-0.806160	0.439010
C60	C	2.085519	-0.306160	0.939010
C61	C	1.585560	-0.860765	0.439024
C62	C	2.085560	-0.360765	0.939024
O63	O	1.642775	-0.889004	0.381967
O64	O	2.142775	-0.389004	0.881967
N65	N	1.518350	-0.888077	0.506158
N66	N	2.018350	-0.388077	1.006158
C67	C	1.451103	-0.860782	0.573289
C68	C	1.951103	-0.360782	1.073289
O69	O	1.393940	-0.889027	0.630394
O70	O	1.893940	-0.389027	1.130394
C71	C	1.451068	-0.806179	0.573280
C72	C	1.951068	-0.306179	1.073280
C73	C	1.518275	-0.778869	0.506134
C74	C	2.018275	-0.278869	1.006134
C75	C	1.652721	-0.778851	0.371870
C76	C	2.152721	-0.278851	0.871870
C77	C	1.652678	-0.724250	0.371855
C78	C	2.152678	-0.224250	0.871855
C79	C	1.585434	-0.696959	0.438980
C80	C	2.085434	-0.196959	0.938980
C81	C	1.518232	-0.724269	0.506119
C82	C	2.018232	-0.224269	1.006119
C83	C	1.383827	-0.778885	0.640416
C84	C	1.883827	-0.278885	1.140416
C85	C	1.383799	-0.724278	0.640401
C86	C	1.883799	-0.224278	1.140401
C87	C	1.451005	-0.696968	0.573256
C88	C	1.951005	-0.196968	1.073256
C89	C	1.450946	-0.642377	0.573228
C90	C	1.950946	-0.142377	1.073228
N91	N	1.518155	-0.615065	0.506094
N92	N	2.018155	-0.115065	1.006094
C93	C	1.585399	-0.642356	0.438970
C94	C	2.085399	-0.142356	0.938970
C95	C	1.451182	-0.975453	0.573306
C96	C	1.951182	-0.475453	1.073306
C97	C	1.451210	-1.030055	0.573311
C98	C	1.951210	-0.530055	1.073311
C99	C	1.585669	-1.030034	0.439046
C100	C	2.085669	-0.530034	0.939046
C101	C	1.585634	-0.975430	0.439037
C102	C	2.085634	-0.475430	0.939037
C103	C	1.518391	-0.948140	0.506172
C104	C	2.018391	-0.448140	1.006172
C105	C	1.585305	-0.527691	0.438943
C106	C	2.085305	-0.027691	0.938943
C107	C	1.585253	-0.473086	0.438930
C108	C	2.085253	0.026914	0.938930
C109	C	1.450799	-0.473111	0.573198
C110	C	1.950799	0.026889	1.073198
C111	C	1.450846	-0.527712	0.573207
C112	C	1.950846	-0.027712	1.073207
C113	C	1.518108	-0.555000	0.506076
C114	C	2.018108	-0.055000	1.006076
O115	O	1.393762	-0.614103	0.630258
O116	O	1.893762	-0.114103	1.130258
O117	O	1.642562	-0.614104	0.381885
O118	O	2.142562	-0.114104	0.881885
C119	C	1.792198	-0.251848	0.506103
C120	C	2.292198	0.248152	1.006103
C121	C	1.908975	-0.251852	0.506109
C122	C	2.408975	0.248148	1.006109
C123	C	1.518239	-0.251785	0.780122
C124	C	2.018239	0.248215	1.280122
C125	C	1.518270	-0.251763	0.896898
C126	C	2.018270	0.248237	1.396898
C127	C	1.518371	-0.115465	0.506159
C128	C	2.018371	0.384535	1.006159
C129	C	1.518459	-0.057351	0.506190
C130	C	2.018459	0.442649	1.006190
C131	C	1.518152	-0.251853	0.233121
C132	C	2.018152	0.248147	0.733121
C133	C	1.518325	-0.251728	0.116345
C134	C	2.018325	0.248272	0.616345
C135	C	1.585526	-0.218322	0.951783
C136	C	2.085526	0.281678	1.451783
C137	C	1.585551	-0.218303	1.061507
C138	C	2.085551	0.281697	1.561507
C139	C	1.451061	-0.285170	1.061452
C140	C	1.951061	0.214830	1.561452
C141	C	1.451032	-0.285186	0.951730
C142	C	1.951032	0.214814	1.451730
C143	C	1.652765	-0.184898	0.896952
C144	C	2.152765	0.315102	1.396952
C145	C	1.720027	-0.151455	0.951837
C146	C	2.220027	0.348545	1.451837
C147	C	1.720052	-0.151436	1.061561
C148	C	2.220052	0.348564	1.561561
C149	C	1.652815	-0.184860	1.116400
C150	C	2.152815	0.315140	1.616400
H151	H	1.118246	-0.191092	0.384429
H152	H	1.618246	0.308908	0.884429
C153	C	1.377052	-0.321976	0.891353
C154	C	1.877052	0.178024	1.391353
N155	N	1.321328	-0.349687	0.845877
N156	N	1.821328	0.150313	1.345877
H157	H	1.217746	-0.318795	0.640216
H158	H	1.717746	0.181205	1.140216
C159	C	1.726603	-0.694217	0.297981
C160	C	2.226603	-0.194217	0.797981
N161	N	1.782284	-0.671599	0.242331
N162	N	2.282284	-0.171599	0.742331
C163	C	1.377107	-0.321935	1.121780
C164	C	1.877107	0.178065	1.621780
N165	N	1.321404	-0.349628	1.167218
N166	N	1.821404	0.150372	1.667218
C167	C	1.659648	-1.060064	0.365216
C168	C	2.159648	-0.560064	0.865216
N169	N	1.715366	-1.082685	0.309612
N170	N	2.215366	-0.582685	0.809612
H171	H	1.118208	-0.379532	0.761897
H172	H	1.618208	0.120468	1.261897
H173	H	1.396125	-0.549949	0.627886
H174	H	1.896125	-0.049949	1.127886
H175	H	1.640360	-0.953198	0.384362
H176	H	2.140360	-0.453198	0.884362
C177	C	0.903462	-0.389121	0.781080
C178	C	1.403462	0.110879	1.281080
N179	N	0.858008	-0.416869	0.836644
N180	N	1.358008	0.083131	1.336644
C181	C	1.377268	-1.060089	0.647166
C182	C	1.877268	-0.560089	1.147166
N183	N	1.321576	-1.082709	0.702801
N184	N	1.821576	-0.582709	1.202801
C185	C	1.376838	-0.443081	0.647035
C186	C	1.876838	0.056919	1.147035
N187	N	1.321137	-0.420460	0.702657
N188	N	1.821137	0.079540	1.202657
C189	C	1.652740	-0.184914	0.776253
C190	C	2.152740	0.315086	1.276253
N191	N	1.652720	-0.184926	0.685343
N192	N	2.152720	0.315074	1.185343
C193	C	0.788255	-0.318818	0.640260
C194	C	1.288255	0.181182	1.140260
N195	N	0.697345	-0.318827	0.640269
N196	N	1.197345	0.181173	1.140269
H197	H	1.640078	-0.549903	0.384280
H198	H	2.140078	-0.049903	0.884280
H199	H	1.396416	-0.953236	0.627972
H200	H	1.896416	-0.453236	1.127972
C201	C	1.652841	-0.184835	1.237100
C202	C	2.152841	0.315165	1.737100
N203	N	1.652865	-0.184817	1.328011
N204	N	2.152865	0.315183	1.828011
H205	H	1.774813	-0.124201	1.106245
H206	H	2.274813	0.375799	1.606245
H207	H	1.639981	-0.450852	0.384249
H208	H	2.139981	0.049148	0.884249
C209	C	0.903503	-0.181548	0.365271
C210	C	1.403503	0.318452	0.865271
N211	N	0.858050	-0.153817	0.309704
N212	N	1.358050	0.346183	0.809704
C213	C	1.793979	-0.114687	0.891512
C214	C	2.293979	0.385313	1.391512
N215	N	1.849681	-0.086993	0.846076
N216	N	2.349681	0.413007	1.346076
C217	C	1.726696	-0.808862	0.298016
C218	C	2.226696	-0.308862	0.798016
N219	N	1.782411	-0.831463	0.242377
N220	N	2.282411	-0.331463	0.742377
H221	H	1.329043	-0.702061	0.695074
H222	H	1.829043	-0.202061	1.195074
C223	C	1.309896	-0.808913	0.714286
C224	C	1.809896	-0.308913	1.214286
N225	N	1.254209	-0.831529	0.769931
N226	N	1.754209	-0.331529	1.269931
