data_functionalizedCrystal
_audit_creation_method	'MofGen! by Chris Wilmer'
_symmetry_space_group_name_H-M	'P1'
_symmetry_Int_Tables_number	1
_symmetry_cell_setting	triclinic
loop_
_symmetry_equiv_pos_as_xyz
  x,y,z
_cell_length_a	12.759401
_cell_length_b	12.827892
_cell_length_c	12.759393
_cell_angle_alpha	89.970028
_cell_angle_beta	89.980198
_cell_angle_gamma	90.014477
loop_
_atom_site_label
_atom_site_type_symbol
_atom_site_fract_x
_atom_site_fract_y
_atom_site_fract_z
Zn1	Zn	1.606261	-0.416008	-0.593992
Zn2	Zn	2.106261	0.083992	-0.093992
Zn3	Zn	1.606150	-0.590785	-0.418314
Zn4	Zn	2.106150	-0.090785	0.081686
Zn5	Zn	1.430560	-0.416056	-0.418331
Zn6	Zn	1.930560	0.083944	0.081669
Zn7	Zn	1.430550	-0.590705	-0.593954
Zn8	Zn	1.930550	-0.090705	-0.093954
O9	O	1.518380	-0.503389	-0.506148
O10	O	2.018380	-0.003389	-0.006148
O11	O	1.753268	-0.439206	-0.570697
O12	O	2.253268	0.060794	-0.070697
O13	O	1.582816	-0.567661	-0.271295
O14	O	2.082816	-0.067661	0.228705
O15	O	1.453918	-0.269814	-0.441655
O16	O	1.953918	0.230186	0.058345
O17	O	1.753186	-0.567614	-0.441627
O18	O	2.253186	-0.067614	0.058373
O19	O	1.583005	-0.269778	-0.570713
O20	O	2.083005	0.230222	-0.070713
O21	O	1.453810	-0.439288	-0.271307
O22	O	1.953810	0.060712	0.228693
O23	O	1.283538	-0.439210	-0.441619
O24	O	1.783538	0.060790	0.058381
O25	O	1.453900	-0.567477	-0.740981
O26	O	1.953900	-0.067477	-0.240981
O27	O	1.283530	-0.567524	-0.570649
O28	O	1.783530	-0.067524	-0.070649
O29	O	1.582995	-0.439128	-0.741008
O30	O	2.082995	0.060872	-0.241008
O31	O	1.582806	-0.737011	-0.441590
O32	O	2.082806	-0.237011	0.058410
O33	O	1.453793	-0.736952	-0.570633
O34	O	1.953793	-0.236952	-0.070633
C35	C	1.245413	-0.503364	-0.506132
C36	C	1.745413	-0.003364	-0.006132
C37	C	1.128636	-0.503379	-0.506151
C38	C	1.628636	-0.003379	-0.006151
C39	C	0.964080	-0.436662	-0.573468
C40	C	1.464080	0.063338	-0.073468
C41	C	1.073804	-0.436641	-0.573461
C42	C	1.573804	0.063359	-0.073461
C43	C	1.073739	-0.570149	-0.438850
C44	C	1.573739	-0.070149	0.061150
C45	C	0.964016	-0.570174	-0.438863
C46	C	1.464016	-0.070174	0.061137
C47	C	1.518315	-0.774899	-0.506128
C48	C	2.018315	-0.274899	-0.006128
C49	C	1.518383	-0.891052	-0.506155
C50	C	2.018383	-0.391052	-0.006155
C51	C	1.582231	-0.942735	-0.570074
C52	C	2.082231	-0.442735	-0.070074
C53	C	1.582302	-1.062786	-0.570103
C54	C	2.082302	-0.562786	-0.070103
C55	C	1.792414	-0.503414	-0.506164
C56	C	2.292414	-0.003414	-0.006164
C57	C	1.909190	-0.503425	-0.506171
C58	C	2.409190	-0.003425	-0.006171
C59	C	1.518459	-0.503288	-0.780181
C60	C	2.018459	-0.003288	-0.280181
C61	C	1.518492	-0.503246	-0.896958
C62	C	2.018492	-0.003246	-0.396958
C63	C	1.518475	-0.230818	-0.506190
C64	C	2.018475	0.269182	-0.006190
C65	C	1.518515	-0.114665	-0.506208
C66	C	2.018515	0.385335	-0.006208
C67	C	1.585717	-0.436403	-0.951836
C68	C	2.085717	0.063597	-0.451836
C69	C	1.585735	-0.436358	-1.061560
C70	C	2.085735	0.063642	-0.561560
C71	C	1.451301	-0.570006	-1.061519
C72	C	1.951301	-0.070006	-0.561519
C73	C	1.451278	-0.570045	-0.951796
C74	C	1.951278	-0.070045	-0.451796
C75	C	1.518362	-0.503413	-0.233180
C76	C	2.018362	-0.003413	0.266820
C77	C	1.518533	-0.503161	-0.116404
C78	C	2.018533	-0.003161	0.383596
H79	H	1.118391	-0.624492	-0.384048
H80	H	1.618391	-0.124492	0.115952
H81	H	1.463768	-0.935680	-0.451458
H82	H	1.963768	-0.435680	0.048542
H83	H	1.463853	-1.070226	-0.451478
H84	H	1.963853	-0.570226	0.048522
C85	C	1.645446	-0.376938	-1.229772
C86	C	2.145446	0.123062	-0.729772
C87	C	1.659624	-0.362879	-1.121883
C88	C	2.159624	0.137121	-0.621883
H89	H	1.691058	-0.331564	-1.267010
H90	H	2.191058	0.168436	-0.767010
H91	H	1.660806	-0.447136	-1.247745
H92	H	2.160806	0.052864	-0.747745
H93	H	1.574859	-0.361631	-1.247729
H94	H	2.074859	0.138369	-0.747729
H95	H	1.730209	-0.378193	-1.103925
H96	H	2.230209	0.121807	-0.603925
H97	H	1.644272	-0.292665	-1.103903
H98	H	2.144272	0.207335	-0.603903
C99	C	1.718590	-0.304285	-0.962902
C100	C	2.218590	0.195715	-0.462902
C101	C	1.659587	-0.362968	-0.891557
C102	C	2.159587	0.137032	-0.391557
H103	H	1.764188	-0.258942	-0.925688
H104	H	2.264188	0.241058	-0.425688
H105	H	1.758770	-0.349803	-1.005692
H106	H	2.258770	0.150197	-0.505692
H107	H	1.672824	-0.264298	-1.005701
H108	H	2.172824	0.235702	-0.505701
H109	H	1.705353	-0.402961	-0.848763
H110	H	2.205353	0.097039	-0.348763
H111	H	1.619404	-0.317444	-0.848748
H112	H	2.119404	0.182556	-0.348748
C113	C	1.391648	-0.629295	-1.229698
C114	C	1.891648	-0.129295	-0.729698
C115	C	1.377430	-0.643439	-1.121801
C116	C	1.877430	-0.143439	-0.621801
H117	H	1.346047	-0.674637	-1.266909
H118	H	1.846047	-0.174637	-0.766909
H119	H	1.376299	-0.559083	-1.247684
H120	H	1.876299	-0.059083	-0.747684
H121	H	1.462240	-0.644593	-1.247674
H122	H	1.962240	-0.144593	-0.747674
H123	H	1.306839	-0.628134	-1.103823
H124	H	1.806839	-0.128134	-0.603823
H125	H	1.392771	-0.713668	-1.103807
H126	H	1.892771	-0.213668	-0.603807
H127	H	0.919444	-0.382310	-0.628274
H128	H	1.419444	0.117690	-0.128274
C129	C	1.760053	-0.908742	-0.621384
C130	C	2.260053	-0.408742	-0.121384
C131	C	1.655953	-0.882507	-0.643933
C132	C	2.155953	-0.382507	-0.143933
H133	H	1.805564	-0.871567	-0.666990
H134	H	2.305564	-0.371567	-0.166990
H135	H	1.775436	-0.890935	-0.550798
H136	H	2.275436	-0.390935	-0.050798
H137	H	1.769759	-0.981519	-0.631089
H138	H	2.269759	-0.481519	-0.131089
H139	H	1.646245	-0.809731	-0.634221
H140	H	2.146245	-0.309731	-0.134221
H141	H	1.640565	-0.900307	-0.714536
H142	H	2.140565	-0.400307	-0.214536
H143	H	1.396529	-0.624475	-0.907113
H144	H	1.896529	-0.124475	-0.407113
H145	H	0.919324	-0.624546	-0.384060
H146	H	1.419324	-0.124546	0.115940
C147	C	1.062841	-0.304669	-0.706507
C148	C	1.562841	0.195331	-0.206507
C149	C	1.134139	-0.363249	-0.647432
C150	C	1.634139	0.136751	-0.147432
H151	H	1.100091	-0.259354	-0.752171
H152	H	1.600091	0.240646	-0.252171
H153	H	1.020064	-0.350254	-0.746620
H154	H	1.520064	0.149746	-0.246620
H155	H	1.020025	-0.264656	-0.660790
H156	H	1.520025	0.235344	-0.160790
H157	H	1.176951	-0.403267	-0.693149
H158	H	1.676951	0.096733	-0.193149
H159	H	1.176935	-0.317658	-0.607316
H160	H	1.676935	0.182342	-0.107316
C161	C	1.596777	-1.185534	-0.711356
C162	C	2.096777	-0.685534	-0.211356
C163	C	1.656096	-1.122780	-0.643986
C164	C	2.156096	-0.622780	-0.143986
H165	H	1.642337	-1.222568	-0.756973
H166	H	2.142337	-0.722568	-0.256973
H167	H	1.556780	-1.233638	-0.671270
H168	H	2.056780	-0.733638	-0.171270
H169	H	1.550997	-1.142950	-0.751527
H170	H	2.050997	-0.642950	-0.251527
H171	H	1.701871	-1.165365	-0.603809
H172	H	2.201871	-0.665365	-0.103809
H173	H	1.696112	-1.074671	-0.684077
H174	H	2.196112	-0.574671	-0.184077
