data_functionalizedCrystal
_audit_creation_method	'MofGen! by Chris Wilmer'
_symmetry_space_group_name_H-M	'P1'
_symmetry_Int_Tables_number	1
_symmetry_cell_setting	triclinic
loop_
_symmetry_equiv_pos_as_xyz
  x,y,z
_cell_length_a	17.699097
_cell_length_b	17.699083
_cell_length_c	9.130313
_cell_angle_alpha	90.003710
_cell_angle_beta	90.008334
_cell_angle_gamma	83.285722
loop_
_atom_site_label
_atom_site_type_symbol
_atom_site_fract_x
_atom_site_fract_y
_atom_site_fract_z
O1	O	1.004070	0.095757	0.121924
O2	O	0.783693	0.108199	0.121900
O3	O	0.900108	-0.008211	0.121900
O4	O	0.887655	0.212167	0.121924
O5	O	0.900097	-0.008210	-0.121699
O6	O	0.783682	0.108200	-0.121698
O7	O	1.004059	0.095758	-0.121675
Cu8	Cu	0.893869	0.101979	-0.143929
Cu9	Cu	0.893883	0.101978	0.144155
O10	O	0.887644	0.212167	-0.121674
C11	C	0.755491	0.107752	0.000098
C12	C	0.671473	0.106409	0.000089
C13	C	0.155761	0.098179	0.132933
C14	C	0.234705	0.099436	0.132925
C15	C	0.274165	0.100065	0.000134
C16	C	0.234678	0.099431	-0.132659
C17	C	0.155736	0.098169	-0.132651
C18	C	0.553042	0.104518	-0.132697
C19	C	0.631989	0.105783	-0.132696
C20	C	0.632011	0.105785	0.132879
C21	C	0.553069	0.104523	0.132887
C22	C	0.513589	0.103885	0.000095
C23	C	0.427989	0.102521	0.000105
C24	C	0.359763	0.101434	0.000123
C25	C	0.899656	-0.036408	0.000100
C26	C	0.898317	-0.120426	0.000099
C27	C	0.966650	-0.169044	0.000105
C28	C	0.965388	-0.247987	0.000117
C29	C	0.895792	-0.278311	0.000115
C30	C	0.827454	-0.229687	0.000114
C31	C	0.828717	-0.150745	0.000112
C32	C	0.822359	-0.548050	0.000125
C33	C	0.821101	-0.626998	0.000123
C34	C	0.959030	-0.645292	0.000131
C35	C	0.960293	-0.566350	0.000129
C36	C	0.891955	-0.517733	0.000136
C37	C	0.893325	-0.432134	0.000125
C38	C	0.894422	-0.363909	0.000115
C39	C	1.032261	0.096205	0.000131
C40	C	1.116279	0.097547	0.000150
C41	C	0.888096	0.240364	0.000128
C42	C	0.889435	0.324382	0.000139
N43	N	0.893866	0.101979	-0.346552
C44	C	0.842311	0.153502	-0.423241
C45	C	0.842325	0.153501	-0.576578
C46	C	0.945453	0.050445	-0.576523
C47	C	0.945441	0.050451	-0.423189
C48	C	0.782769	0.212999	-0.423274
C49	C	0.782783	0.212997	-0.576611
N50	N	0.893892	0.101972	0.346777
H51	H	0.520944	0.104014	0.241020
C52	C	0.753545	-0.097266	0.000102
N53	N	0.696923	-0.056985	0.000099
H54	H	0.800599	0.267779	-0.624155
H55	H	0.724756	0.200640	-0.618260
C56	C	0.747185	-0.494582	0.000141
N57	N	0.690560	-0.454306	0.000157
C58	C	0.112362	0.097485	0.279017
N59	N	0.079677	0.096959	0.389052
C60	C	0.708783	0.188882	-0.359057
N61	N	0.653056	0.170716	-0.310688
C62	C	0.278133	0.100121	0.278997
N63	N	0.310843	0.100632	0.389026
C64	C	0.799399	0.291414	-0.367042
N65	N	0.811928	0.350474	-0.324688
H66	H	0.664165	0.106301	0.241005
H67	H	1.016965	-0.541665	0.000124
H68	H	0.664115	0.106295	-0.240837
H69	H	0.987444	0.008494	-0.638937
C70	C	0.509621	0.103840	-0.278773
N71	N	0.476913	0.103336	-0.388804
H72	H	0.770787	-0.254383	0.000121
H73	H	0.123589	0.097663	-0.240776
C74	C	0.278082	0.100156	-0.278732
N75	N	0.310772	0.100716	-0.388757
H76	H	0.987428	0.008503	-0.360750
C77	C	1.040560	-0.301464	0.000099
N78	N	1.097183	-0.341742	0.000079
H79	H	1.014674	-0.684886	0.000133
H80	H	1.023323	-0.144360	0.000098
C81	C	0.744536	-0.660352	0.000132
N82	N	0.686871	-0.685475	0.000140
