data_functionalizedCrystal
_audit_creation_method	'MofGen! by Chris Wilmer'
_symmetry_space_group_name_H-M	'P1'
_symmetry_Int_Tables_number	1
_symmetry_cell_setting	triclinic
loop_
_symmetry_equiv_pos_as_xyz
  x,y,z
_cell_length_a	10.654550
_cell_length_b	19.288865
_cell_length_c	9.130313
_cell_angle_alpha	89.990258
_cell_angle_beta	89.999724
_cell_angle_gamma	83.810589
loop_
_atom_site_label
_atom_site_type_symbol
_atom_site_fract_x
_atom_site_fract_y
_atom_site_fract_z
O1	O	1.665751	0.097555	-0.121709
O2	O	1.300074	0.106849	-0.121738
O3	O	1.493479	0.001141	-0.121693
O4	O	1.472346	0.203263	-0.121753
O5	O	1.493466	0.001138	0.121905
O6	O	1.300061	0.106846	0.121861
O7	O	1.665738	0.097552	0.121890
Cu8	Cu	1.482898	0.102198	0.144118
Cu9	Cu	1.482914	0.102202	-0.143966
O10	O	1.472333	0.203260	0.121846
C11	C	1.253284	0.106165	0.000059
C12	C	1.113884	0.104123	0.000049
C13	C	1.033066	0.166363	0.000035
C14	C	0.902087	0.164440	0.000061
C15	C	0.932756	0.038033	0.000109
C16	C	1.063733	0.039956	0.000094
C17	C	1.492792	-0.024742	0.000110
C18	C	1.490751	-0.101859	0.000123
C19	C	1.604232	-0.145812	0.000139
C20	C	1.602315	-0.218272	0.000116
C21	C	1.486909	-0.246775	0.000106
C22	C	1.373413	-0.202812	0.000081
C23	C	1.375334	-0.130354	0.000090
C24	C	1.396183	-0.355657	0.085426
C25	C	1.394266	-0.428114	0.085426
C26	C	1.480980	-0.470259	0.000073
C27	C	1.569631	-0.439940	-0.085263
C28	C	1.571552	-0.367482	-0.085254
C29	C	1.484814	-0.325343	0.000095
C30	C	1.592390	-0.592782	0.000061
C31	C	1.590467	-0.665243	0.000029
C32	C	1.361562	-0.649781	0.000009
C33	C	1.363488	-0.577322	0.000027
C34	C	1.478905	-0.548827	0.000060
C35	C	1.712528	0.098236	0.000090
C36	C	1.851928	0.100277	0.000091
C37	C	1.473020	0.229142	0.000039
C38	C	1.475061	0.306259	0.000016
N39	N	1.482896	0.102195	0.346741
N40	N	1.482925	0.102200	-0.346588
C41	C	1.568565	0.055408	0.423412
C42	C	1.568577	0.055408	0.576749
C43	C	1.397248	0.148990	0.576729
C44	C	1.397231	0.148986	0.423395
H45	H	1.698214	-0.122616	0.000161
O46	O	1.651816	0.009887	0.349175
C47	C	1.821795	-0.082909	0.365386
C48	C	1.727563	-0.031402	0.449635
H49	H	1.883078	-0.116294	0.446571
H50	H	1.767838	-0.117936	0.293665
H51	H	1.884290	-0.052588	0.293534
H52	H	1.665043	-0.061666	0.521566
H53	H	1.781598	0.003625	0.521263
O54	O	1.313870	0.194371	0.651133
C55	C	1.095295	0.233970	0.698007
C56	C	1.189581	0.182524	0.613683
H57	H	0.994787	0.224420	0.667736
H58	H	1.109916	0.225936	0.820786
H59	H	1.111393	0.289681	0.667847
H60	H	1.173540	0.126793	0.643719
H61	H	1.174937	0.190619	0.490924
O62	O	0.884182	-0.024337	-0.000059
C63	C	0.870248	-0.132944	-0.126275
C64	C	0.925361	-0.062340	-0.126241
H65	H	0.903498	-0.163683	-0.228297
H66	H	0.903601	-0.163783	-0.024392
H67	H	0.762754	-0.123610	-0.126201
H68	H	1.032856	-0.071610	-0.126366
H69	H	0.891909	-0.031523	-0.228115
H70	H	1.638334	0.017308	0.639171
O71	O	1.314133	0.194536	0.348975
C72	C	1.239794	0.314928	0.302069
C73	C	1.333989	0.263425	0.386413
H74	H	1.255797	0.370636	0.332329
H75	H	1.254491	0.306947	0.179292
H76	H	1.139285	0.305323	0.332221
H77	H	1.434535	0.272999	0.356384
H78	H	1.319182	0.271418	0.509169
H79	H	1.073895	0.218611	0.000009
O80	O	0.823759	0.224965	-0.000023
C81	C	0.807171	0.350546	0.000007
C82	C	0.896019	0.282051	0.000065
H83	H	0.865557	0.396718	0.000109
H84	H	0.745096	0.352853	-0.101953
H85	H	0.745071	0.352770	0.101938
H86	H	0.958199	0.279782	-0.101797
H87	H	0.958009	0.279773	0.102093
O88	O	1.712671	-0.260878	0.000201
C89	C	1.939912	-0.268572	0.000161
C90	C	1.815030	-0.220244	0.000098
H91	H	2.022702	-0.235739	0.000046
H92	H	1.944804	-0.302877	0.102129
H93	H	1.944676	-0.302887	-0.101762
H94	H	1.810183	-0.185885	0.101951
H95	H	1.810190	-0.185986	-0.101938
H96	H	1.129539	-0.010730	0.000109
O97	O	1.657699	-0.338138	-0.168287
C98	C	1.831473	-0.357507	-0.337537
C99	C	1.733965	-0.390828	-0.243590
H100	H	1.893176	-0.400092	-0.398420
H101	H	1.780327	-0.320081	-0.419979
H102	H	1.893160	-0.327677	-0.263666
H103	H	1.672249	-0.420694	-0.317345
H104	H	1.785189	-0.428216	-0.161136
H105	H	1.686369	-0.569580	0.000081
O106	O	1.653701	-0.480887	-0.168365
C107	C	1.683391	-0.564846	-0.364084
C108	C	1.588048	-0.518493	-0.270108
H109	H	1.630348	-0.595273	-0.446345
H110	H	1.747058	-0.530757	-0.425178
H111	H	1.743362	-0.602861	-0.290215
H112	H	1.527992	-0.480471	-0.343872
H113	H	1.524468	-0.552624	-0.209000
H114	H	1.322076	-0.452794	0.154903
H115	H	1.682881	-0.701029	0.000034
O116	O	1.253283	-0.534594	-0.000232
C117	C	1.122647	-0.443774	-0.126391
C118	C	1.247493	-0.492134	-0.126290
H119	H	1.117937	-0.409422	-0.228282
H120	H	1.039784	-0.476556	-0.126496
H121	H	1.117833	-0.409507	-0.024395
H122	H	1.252430	-0.526410	-0.228268
H123	H	1.330297	-0.459309	-0.126108
O124	O	1.311882	-0.314824	0.168470
C125	C	1.137684	-0.310739	0.337689
C126	C	1.233102	-0.357063	0.243752
H127	H	1.073948	-0.344869	0.398555
H128	H	1.190609	-0.280354	0.420147
H129	H	1.077797	-0.272687	0.263815
H130	H	1.293014	-0.395155	0.317510
H131	H	1.180100	-0.387399	0.161282
H132	H	1.267597	-0.672988	-0.000006
H133	H	1.282921	-0.094566	0.000077
O134	O	1.261387	-0.230579	-0.000121
C135	C	1.126354	-0.303370	-0.126388
C136	C	1.253283	-0.271985	-0.126314
H137	H	1.119749	-0.336842	-0.228419
H138	H	1.119704	-0.336961	-0.024514
H139	H	1.045592	-0.259494	-0.126326
H140	H	1.334118	-0.315816	-0.126427
H141	H	1.259823	-0.238376	-0.228179
