data_functionalizedCrystal
_audit_creation_method	'MofGen! by Chris Wilmer'
_symmetry_space_group_name_H-M	'P1'
_symmetry_Int_Tables_number	1
_symmetry_cell_setting	triclinic
loop_
_symmetry_equiv_pos_as_xyz
  x,y,z
_cell_length_a	17.699083
_cell_length_b	19.188930
_cell_length_c	16.776229
_cell_angle_alpha	89.988225
_cell_angle_beta	89.998886
_cell_angle_gamma	83.213899
loop_
_atom_site_label
_atom_site_type_symbol
_atom_site_fract_x
_atom_site_fract_y
_atom_site_fract_z
O1	O	1.003962	0.088294	-0.066185
O2	O	1.337296	0.421628	0.267148
O3	O	1.670629	0.754961	0.600481
O4	O	0.783569	0.099782	-0.066213
O5	O	1.116902	0.433115	0.267121
O6	O	1.450235	0.766448	0.600454
O7	O	0.900126	-0.007611	-0.066183
O8	O	1.233459	0.325723	0.267151
O9	O	1.566792	0.659056	0.600484
O10	O	0.887405	0.195686	-0.066215
O11	O	1.220739	0.529020	0.267118
O12	O	1.554072	0.862353	0.600451
O13	O	0.900110	-0.007617	0.066394
O14	O	1.233443	0.325716	0.399727
O15	O	1.566777	0.659050	0.733060
O16	O	0.783553	0.099775	0.066364
O17	O	1.116887	0.433108	0.399697
O18	O	1.450220	0.766442	0.733030
O19	O	1.003947	0.088288	0.066391
O20	O	1.337280	0.421621	0.399724
O21	O	1.670613	0.754954	0.733058
Zn22	Zn	0.893748	0.094030	0.087427
Zn23	Zn	1.227081	0.427364	0.420760
Zn24	Zn	1.560414	0.760697	0.754093
Zn25	Zn	0.893768	0.094039	-0.087249
Zn26	Zn	1.227101	0.427372	0.246085
Zn27	Zn	1.560435	0.760706	0.579418
O28	O	0.887390	0.195680	0.066361
O29	O	1.220723	0.529013	0.399694
O30	O	1.554057	0.862347	0.733028
C31	C	0.755365	0.099367	0.000072
C32	C	1.088698	0.432700	0.333406
C33	C	1.422031	0.766033	0.666739
C34	C	0.671348	0.098132	0.000062
C35	C	1.004681	0.431465	0.333396
C36	C	1.338015	0.764799	0.666729
C37	C	0.899706	-0.033625	0.000108
C38	C	1.233039	0.299708	0.333441
C39	C	1.566373	0.633041	0.666774
C40	C	0.898469	-0.111131	0.000114
C41	C	1.231803	0.222202	0.333448
C42	C	1.565136	0.555535	0.666781
C43	C	0.622644	0.161169	0.000053
C44	C	0.955977	0.494502	0.333386
C45	C	1.289311	0.827835	0.666719
C46	C	0.543702	0.160004	0.000063
C47	C	0.877036	0.493338	0.333396
C48	C	1.210369	0.826671	0.666730
C49	C	0.513466	0.095802	0.000078
C50	C	0.846799	0.429136	0.333411
C51	C	1.180133	0.762469	0.666744
C52	C	0.562176	0.032761	0.000090
C53	C	0.895510	0.366094	0.333423
C54	C	1.228843	0.699427	0.666757
C55	C	0.641117	0.033926	0.000085
C56	C	0.974450	0.367259	0.333419
C57	C	1.307783	0.700592	0.666752
C58	C	0.243819	0.028060	0.000111
C59	C	0.577153	0.361394	0.333444
C60	C	0.910486	0.694727	0.666777
C61	C	0.164873	0.026900	0.000113
C62	C	0.498206	0.360233	0.333446
C63	C	0.831540	0.693567	0.666780
C64	C	0.146405	0.154139	0.000088
C65	C	0.479739	0.487472	0.333422
C66	C	0.813072	0.820806	0.666755
C67	C	0.225345	0.155304	0.000084
C68	C	0.558679	0.488637	0.333417
C69	C	0.892012	0.821971	0.666750
C70	C	0.274049	0.092263	0.000100
C71	C	0.607382	0.425596	0.333433
C72	C	0.940715	0.758929	0.666767
C73	C	0.359646	0.093526	0.000090
C74	C	0.692980	0.426859	0.333423
C75	C	1.026313	0.760193	0.666757
C76	C	0.427870	0.094538	0.000082
C77	C	0.761203	0.427872	0.333415
C78	C	1.094537	0.761205	0.666749
C79	C	0.966861	-0.155978	0.000127
C80	C	1.300194	0.177355	0.333460
C81	C	1.633528	0.510688	0.666793
C82	C	0.965699	-0.228804	0.000114
C83	C	1.299033	0.104530	0.333447
C84	C	1.632366	0.437863	0.666780
C85	C	0.896142	-0.256778	0.000105
C86	C	1.229475	0.076555	0.333438
C87	C	1.562809	0.409889	0.666771
C88	C	0.827741	-0.211921	0.000088
C89	C	1.161075	0.121412	0.333421
C90	C	1.494408	0.454746	0.666754
C91	C	0.828905	-0.139098	0.000093
C92	C	1.162238	0.194236	0.333426
C93	C	1.495572	0.527569	0.666759
N94	N	0.842969	-0.364845	0.045216
N95	N	1.176302	-0.031512	0.378550
N96	N	1.509635	0.301822	0.711883
N97	N	0.841868	-0.434025	0.045213
N98	N	1.175201	-0.100691	0.378547
N99	N	1.508534	0.232642	0.711880
C100	C	0.892632	-0.476191	0.000088
C101	C	1.225965	-0.142857	0.333421
C102	C	1.559299	0.190476	0.666755
N103	N	0.944550	-0.446565	-0.045024
N104	N	1.277883	-0.113231	0.288309
N105	N	1.611217	0.220102	0.621642
N106	N	0.945653	-0.377379	-0.045018
N107	N	1.278986	-0.044046	0.288316
N108	N	1.612320	0.289288	0.621649
C109	C	0.894873	-0.335742	0.000099
C110	C	1.228206	-0.002409	0.333432
C111	C	1.561539	0.330925	0.666765
C112	C	0.959769	-0.600004	0.000085
C113	C	1.293102	-0.266671	0.333419
C114	C	1.626435	0.066663	0.666752
C115	C	0.958604	-0.672830	0.000067
C116	C	1.291937	-0.339497	0.333401
C117	C	1.625271	-0.006163	0.666734
C118	C	0.820644	-0.655946	0.000049
C119	C	1.153977	-0.322612	0.333383
C120	C	1.487311	0.010721	0.666716
C121	C	0.821811	-0.583121	0.000059
C122	C	1.155144	-0.249788	0.333393
C123	C	1.488477	0.083545	0.666726
C124	C	0.891375	-0.555155	0.000081
C125	C	1.224708	-0.221822	0.333414
C126	C	1.558042	0.111512	0.666748
C127	C	1.032151	0.088703	0.000104
C128	C	1.365484	0.422036	0.333438
C129	C	1.698818	0.755369	0.666771
C130	C	1.116167	0.089938	0.000109
C131	C	1.449501	0.423271	0.333442
C132	C	1.782834	0.756604	0.666775
C133	C	0.887810	0.221695	0.000069
C134	C	1.221143	0.555028	0.333402
C135	C	1.554476	0.888361	0.666735
C136	C	0.889046	0.299201	0.000057
C137	C	1.222379	0.632534	0.333390
C138	C	1.555713	0.965867	0.666723
N139	N	0.893739	0.094024	0.206638
N140	N	1.227073	0.427357	0.539971
N141	N	1.560406	0.760691	0.873305
N142	N	0.893782	0.094040	-0.206460
N143	N	1.227116	0.427373	0.126874
N144	N	1.560449	0.760706	0.460207
C145	C	0.945366	0.046490	0.248368
C146	C	1.278700	0.379824	0.581702
C147	C	1.612033	0.713157	0.915035
C148	C	0.945370	0.046490	0.331821
C149	C	1.278704	0.379823	0.665154
C150	C	1.612037	0.713156	0.998487
C151	C	0.893751	0.094027	0.373541
C152	C	1.227084	0.427360	0.706874
C153	C	1.560417	0.760693	1.040208
C154	C	0.842118	0.141563	0.331805
C155	C	1.175452	0.474896	0.665138
C156	C	1.508785	0.808229	0.998471
C157	C	0.842111	0.141559	0.248354
C158	C	1.175444	0.474893	0.581687
C159	C	1.508778	0.808226	0.915021
C160	C	0.842146	0.141576	0.668352
C161	C	1.175479	0.474910	1.001685
C162	C	1.508812	0.808243	1.335019
C163	C	0.842158	0.141578	0.751808
C164	C	1.175492	0.474911	1.085142
C165	C	1.508825	0.808244	1.418475
C166	C	0.945405	0.046507	0.751818
C167	C	1.278738	0.379840	1.085152
C168	C	1.612072	0.713173	1.418485
C169	C	0.945398	0.046503	0.668368
C170	C	1.278731	0.379837	1.001701
C171	C	1.612064	0.713170	1.335034
C172	C	0.893763	0.094037	0.626639
C173	C	1.227096	0.427370	0.959972
C174	C	1.560430	0.760703	1.293305
C175	C	0.893758	0.094036	0.536150
C176	C	1.227091	0.427369	0.869484
C177	C	1.560425	0.760702	1.202817
C178	C	0.893759	0.094031	0.464028
C179	C	1.227092	0.427365	0.797361
C180	C	1.560425	0.760698	1.130694
H181	H	0.647256	0.213450	0.000040
H182	H	0.980589	0.546783	0.333373
H183	H	1.313922	0.880116	0.666707
O184	O	0.093872	0.222136	0.000089
O185	O	0.427205	0.555469	0.333422
O186	O	0.760539	0.888802	0.666756
H187	H	0.057454	0.224651	-0.053939
H188	H	0.390787	0.557984	0.279395
H189	H	0.724121	0.891317	0.612728
O190	O	1.039467	-0.277188	0.000141
O191	O	1.372801	0.056146	0.333475
O192	O	1.706134	0.389479	0.666808
H193	H	1.072788	-0.267251	-0.053880
H194	H	1.406122	0.066082	0.279453
H195	H	1.739455	0.399416	0.612787
H196	H	0.771107	-0.234702	0.000079
H197	H	1.104441	0.098631	0.333412
H198	H	1.437774	0.431964	0.666745
O199	O	0.693653	-0.034063	0.000093
O200	O	1.026987	0.299270	0.333427
O201	O	1.360320	0.632603	0.666760
H202	H	0.659368	-0.078903	0.000097
H203	H	0.992701	0.254430	0.333431
H204	H	1.326034	0.587763	0.666764
O205	O	0.755133	-0.090726	0.000090
O206	O	1.088466	0.242608	0.333424
O207	O	1.421799	0.575941	0.666757
H208	H	0.752364	-0.057132	-0.053944
H209	H	1.085697	0.276202	0.279389
H210	H	1.419030	0.609535	0.612723
H211	H	0.987404	0.007783	0.214405
H212	H	1.320737	0.341116	0.547738
H213	H	1.654071	0.674450	0.881072
O214	O	1.041891	-0.125819	0.000144
O215	O	1.375224	0.207515	0.333477
O216	O	1.708558	0.540848	0.666811
H217	H	1.031213	-0.067645	0.000151
H218	H	1.364547	0.265689	0.333485
H219	H	1.697880	0.599022	0.666818
H220	H	0.537552	-0.019514	0.000113
H221	H	0.870885	0.313819	0.333447
H222	H	1.204218	0.647153	0.666780
H223	H	1.016412	-0.577233	0.000099
H224	H	1.349745	-0.243899	0.333433
H225	H	1.683079	0.089434	0.666766
H226	H	1.014299	-0.709345	0.000073
H227	H	1.347633	-0.376011	0.333406
H228	H	1.680966	-0.042678	0.666740
H229	H	0.764009	-0.678722	0.000038
H230	H	1.097342	-0.345388	0.333371
H231	H	1.430676	-0.012055	0.666705
H232	H	0.766119	-0.546605	0.000054
H233	H	1.099452	-0.213272	0.333387
H234	H	1.432785	0.120061	0.666720
H235	H	0.504050	0.211335	0.000054
H236	H	0.837383	0.544669	0.333387
H237	H	1.170717	0.878002	0.666721
O238	O	1.001067	-0.004766	0.376833
O239	O	1.334400	0.328567	0.710166
O240	O	1.667734	0.661901	1.043500
H241	H	1.036971	-0.037811	0.333802
H242	H	1.370304	0.295522	0.667136
H243	H	1.703638	0.628855	1.000469
O244	O	1.001068	-0.004772	0.623367
O245	O	1.334402	0.328562	0.956700
O246	O	1.667735	0.661895	1.290034
H247	H	1.036964	-0.037832	0.666406
H248	H	1.370297	0.295502	0.999739
H249	H	1.703631	0.628835	1.333072
H250	H	0.800104	0.180281	0.634383
H251	H	1.133437	0.513614	0.967716
H252	H	1.466771	0.846948	1.301049
O253	O	1.001094	-0.004771	0.796824
O254	O	1.334427	0.328562	1.130158
O255	O	1.667760	0.661895	1.463491
H256	H	0.992424	0.003208	0.861862
H257	H	1.325757	0.336542	1.195195
H258	H	1.659090	0.669875	1.528529
H259	H	0.800120	0.180289	0.785776
H260	H	1.133454	0.513623	1.119109
H261	H	1.466787	0.846956	1.452442
O262	O	0.786443	0.192840	0.376797
O263	O	1.119776	0.526173	0.710130
O264	O	1.453110	0.859507	1.043464
H265	H	0.795127	0.184864	0.441837
H266	H	1.128460	0.518197	0.775170
H267	H	1.461793	0.851531	1.108503
O268	O	0.132256	-0.042349	0.000142
O269	O	0.465590	0.290984	0.333476
O270	O	0.798923	0.624317	0.666809
H271	H	0.179384	-0.085991	0.000164
H272	H	0.512717	0.247342	0.333497
H273	H	0.846051	0.580676	0.666831
O274	O	0.786432	0.192831	0.203338
O275	O	1.119765	0.526164	0.536672
O276	O	1.453099	0.859497	0.870005
H277	H	0.750543	0.225892	0.246367
H278	H	1.083877	0.559226	0.579700
H279	H	1.417210	0.892559	0.913034
H280	H	0.249959	0.207584	0.000068
H281	H	0.583292	0.540917	0.333401
H282	H	0.916626	0.874251	0.666735
H283	H	0.283465	-0.023272	0.000125
H284	H	0.616798	0.310061	0.333458
H285	H	0.950131	0.643394	0.666791
