data_functionalizedCrystal
_audit_creation_method	'MofGen! by Chris Wilmer'
_symmetry_space_group_name_H-M	'P1'
_symmetry_Int_Tables_number	1
_symmetry_cell_setting	triclinic
loop_
_symmetry_equiv_pos_as_xyz
  x,y,z
_cell_length_a	16.120530
_cell_length_b	16.120484
_cell_length_c	11.169409
_cell_angle_alpha	92.860730
_cell_angle_beta	87.079404
_cell_angle_gamma	90.167327
loop_
_atom_site_label
_atom_site_type_symbol
_atom_site_fract_x
_atom_site_fract_y
_atom_site_fract_z
Zn1	Zn	1.254510	-0.395526	-0.798922
Zn2	Zn	1.247345	-0.534605	-0.607843
Zn3	Zn	1.115440	-0.388515	-0.587593
Zn4	Zn	1.108362	-0.527479	-0.797823
O5	O	1.181414	-0.461531	-0.698045
O6	O	1.369926	-0.419892	-0.782509
O7	O	1.229811	-0.515274	-0.437208
O8	O	1.139849	-0.273082	-0.607612
O9	O	1.364661	-0.522073	-0.642124
O10	O	1.242023	-0.278234	-0.762873
O11	O	1.132901	-0.407942	-0.422331
O12	O	0.998135	-0.401032	-0.606547
O13	O	1.127786	-0.509928	-0.965918
O14	O	0.992935	-0.503129	-0.761002
O15	O	1.235160	-0.412982	-0.966725
O16	O	1.222948	-0.650022	-0.641059
O17	O	1.120838	-0.644787	-0.780637
C18	C	0.965363	-0.450547	-0.681459
C19	C	0.872934	-0.445868	-0.674393
C20	C	1.170370	-0.677577	-0.712954
C21	C	1.165721	-0.770006	-0.719378
C22	C	0.703707	-0.437305	-0.661501
C23	C	0.659960	-0.485818	-0.734682
C24	C	0.565796	-0.481054	-0.727509
C25	C	0.797879	-0.442069	-0.668672
C26	C	1.157238	-0.939236	-0.731132
C27	C	1.205740	-0.982993	-0.664990
C28	C	1.201020	-1.077159	-0.671530
C29	C	1.161957	-0.845062	-0.724593
C30	C	1.398310	-0.472559	-0.714698
C31	C	1.490737	-0.477259	-0.721794
C32	C	1.181483	-0.461442	-1.011086
C33	C	1.181512	-0.461404	-1.144486
C34	C	1.192525	-0.244643	-0.683106
C35	C	1.197260	-0.152218	-0.676740
C36	C	1.181397	-0.461563	-0.386222
C37	C	1.181541	-0.461374	-0.252819
H38	H	0.670442	-0.392198	-0.593467
C39	C	0.704893	-0.546771	-0.826590
C40	C	0.800424	-0.551517	-0.833719
C41	C	0.845362	-0.612471	-0.925618
C42	C	0.794768	-0.668678	-1.010388
C43	C	0.699232	-0.663933	-1.003261
C44	C	0.654295	-0.602980	-0.911362
H45	H	0.837881	-0.509908	-0.770965
H46	H	0.916084	-0.615983	-0.930893
H47	H	0.828034	-0.713799	-1.078417
H48	H	0.661776	-0.705542	-1.066016
H49	H	0.583573	-0.599468	-0.906087
C50	C	1.266619	-0.938072	-0.581840
C51	C	1.233537	-0.876602	-0.480747
C52	C	1.294409	-0.831677	-0.397594
C53	C	1.388363	-0.848224	-0.415535
C54	C	1.421450	-0.909697	-0.516633
C55	C	1.360578	-0.954622	-0.599786
H56	H	1.163982	-0.864350	-0.467462
H57	H	1.269916	-0.786170	-0.322755
H58	H	1.433425	-0.814968	-0.353980
H59	H	1.491005	-0.921948	-0.529918
H60	H	1.385071	-1.000128	-0.674625
H61	H	1.112173	-0.972493	-0.792663
