data_functionalizedCrystal
_audit_creation_method	'MofGen! by Chris Wilmer'
_symmetry_space_group_name_H-M	'P1'
_symmetry_Int_Tables_number	1
_symmetry_cell_setting	triclinic
loop_
_symmetry_equiv_pos_as_xyz
  x,y,z
_cell_length_a	6.817900
_cell_length_b	12.840946
_cell_length_c	17.078472
_cell_angle_alpha	81.678392
_cell_angle_beta	79.875873
_cell_angle_gamma	88.344365
loop_
_atom_site_label
_atom_site_type_symbol
_atom_site_fract_x
_atom_site_fract_y
_atom_site_fract_z
V1	V	-3.878761	0.281212	0.111647
O2	O	-3.888919	0.320377	-0.003430
O3	O	-3.812220	0.236473	0.219516
O4	O	-3.774512	0.423392	0.110779
O5	O	-3.926889	0.132164	0.106060
V6	V	-4.371976	0.268586	0.097782
O7	O	-4.118759	0.308908	0.142061
O8	O	-4.582176	0.240890	0.067369
O9	O	-4.215310	0.313325	-0.010087
O10	O	-4.479214	0.229421	0.212859
O11	O	-4.441245	0.417634	0.103369
O12	O	-4.253018	0.126406	0.098650
C13	C	-3.654615	0.220989	0.245786
C14	C	-3.681125	0.185357	0.333976
C15	C	-3.872934	0.172229	0.379466
C16	C	-3.897871	0.138764	0.462332
C17	C	-3.730996	0.118421	0.499706
C18	C	-3.539172	0.131553	0.454210
C19	C	-3.514237	0.165025	0.371346
C20	C	-3.606527	0.459423	0.107077
C21	C	-3.602379	0.577554	0.107079
C22	C	-4.067368	-0.027765	0.102383
C23	C	-4.084372	0.090370	0.102366
V24	V	-3.861728	0.767371	0.111670
O25	O	-3.899249	0.920776	0.106093
O26	O	-3.767615	0.620532	0.110792
O27	O	-3.793650	0.766260	0.219539
O28	O	-3.873033	0.774039	-0.003407
V29	V	-4.352998	0.810278	0.097812
O30	O	-4.103661	0.739857	0.142084
O31	O	-4.560469	0.860476	0.067403
O32	O	-4.224298	0.945870	0.098687
O33	O	-4.432667	0.662788	0.103390
O34	O	-4.458883	0.809525	0.212891
O35	O	-4.198263	0.800142	-0.010060
C36	C	-4.036258	0.328805	-0.036352
C37	C	-3.988983	0.364443	-0.124541
C38	C	-3.635597	0.763443	0.245804
C39	C	-3.660773	0.765676	0.333993
C40	C	-4.020251	0.785994	-0.036332
C41	C	-3.974350	0.782725	-0.124524
C42	C	-3.851932	0.770564	0.379499
C43	C	-3.875576	0.772668	0.462361
C44	C	-3.708059	0.769877	0.499718
C45	C	-3.516884	0.764992	0.454207
C46	C	-3.493243	0.762895	0.371345
C47	C	-3.759534	0.775743	0.747102
C48	C	-3.783192	0.777837	0.829971
C49	C	-4.141882	0.785515	0.838119
C50	C	-4.118224	0.783411	0.755256
C51	C	-3.927052	0.778532	0.709751
N52	N	-3.732222	0.772024	0.584418
N53	N	-3.902891	0.776392	0.625052
C54	C	-4.142161	0.377574	-0.170031
C55	C	-4.097766	0.411043	-0.252897
C56	C	-3.900193	0.431389	-0.290270
C57	C	-3.747004	0.418254	-0.244775
C58	C	-3.791399	0.384777	-0.161912
H59	H	-3.403312	0.114985	0.484652
C60	C	-3.529691	0.440650	-0.285892
H61	H	-3.525215	0.462480	-0.341754
H62	H	-3.452141	0.378543	-0.278252
H63	H	-3.477662	0.494771	-0.263042
H64	H	-3.358042	0.175705	0.334313
H65	H	-4.008834	0.188782	0.349047
H66	H	-4.031234	0.776650	0.499408
C67	C	-3.851386	0.468221	-0.381418
H68	H	-3.970925	0.473135	-0.403150
H69	H	-3.763839	0.419022	-0.406273
H70	H	-3.789320	0.535249	-0.391059
C71	C	-4.359493	0.355193	-0.128933
H72	H	-4.364024	0.333382	-0.073065
H73	H	-4.411527	0.301086	-0.151787
H74	H	-4.437008	0.417318	-0.136585
C75	C	-4.036207	0.773630	0.338413
H76	H	-4.153439	0.776851	0.377384
H77	H	-4.038904	0.711988	0.313859
H78	H	-4.029979	0.833963	0.298658
H79	H	-4.054077	0.128074	0.499364
H80	H	-3.751327	0.091166	0.567180
H81	H	-3.666655	0.374098	-0.124878
C82	C	-4.302494	0.786505	0.714166
H83	H	-4.419730	0.789731	0.753134
H84	H	-4.305207	0.724870	0.689605
H85	H	-4.296239	0.846843	0.674415
C86	C	-4.352157	0.790892	0.888171
H87	H	-4.448535	0.792247	0.854055
H88	H	-4.364375	0.852852	0.913066
H89	H	-4.373301	0.730877	0.928265
H90	H	-3.646767	0.775580	0.860382
H91	H	-3.603875	0.771762	0.710063
C92	C	-3.332619	0.761920	0.495298
H93	H	-3.374074	0.763857	0.551166
H94	H	-3.250588	0.820980	0.472445
H95	H	-3.259525	0.699006	0.487642
C96	C	-3.282973	0.757517	0.321286
H97	H	-3.292882	0.756679	0.266585
H98	H	-3.217612	0.695301	0.340788
H99	H	-3.208706	0.817276	0.325591
H100	H	-4.222524	0.421735	-0.289928
