data_functionalizedCrystal
_audit_creation_method	'MofGen! by Chris Wilmer'
_symmetry_space_group_name_H-M	'P1'
_symmetry_Int_Tables_number	1
_symmetry_cell_setting	triclinic
loop_
_symmetry_equiv_pos_as_xyz
  x,y,z
_cell_length_a	25.639239
_cell_length_b	19.077142
_cell_length_c	19.076919
_cell_angle_alpha	90.074357
_cell_angle_beta	87.731593
_cell_angle_gamma	92.265911
loop_
_atom_site_label
_atom_site_type_symbol
_atom_site_fract_x
_atom_site_fract_y
_atom_site_fract_z
Zn1	Zn	-0.252951	-1.058185	0.440433
Zn2	Zn	0.247049	-0.558185	0.940433
Zn3	Zn	-0.337016	-1.062797	0.322920
Zn4	Zn	0.162984	-0.562797	0.822920
Zn5	Zn	-0.245946	-0.945405	0.318223
Zn6	Zn	0.254054	-0.445405	0.818223
Zn7	Zn	-0.336700	-0.940619	0.435668
Zn8	Zn	0.163300	-0.440619	0.935668
O9	O	-0.293153	-1.001752	0.379311
O10	O	0.206847	-0.501752	0.879311
O11	O	-0.267167	-1.157128	0.428804
O12	O	0.232833	-0.657128	0.928804
O13	O	-0.322137	-1.051158	0.223966
O14	O	0.177863	-0.551158	0.723966
O15	O	-0.173713	-0.960439	0.334463
O16	O	0.326287	-0.460439	0.834463
O17	O	-0.328929	-1.160516	0.342468
O18	O	0.171071	-0.660516	0.842468
O19	O	-0.178860	-1.043298	0.424250
O20	O	0.321140	-0.543298	0.924250
O21	O	-0.255228	-0.964911	0.220515
O22	O	0.244772	-0.464911	0.720515
O23	O	-0.254920	-0.846440	0.329843
O24	O	0.245080	-0.346440	0.829843
O25	O	-0.328390	-0.952281	0.534631
O26	O	0.171610	-0.452281	1.034631
O27	O	-0.321597	-0.842923	0.416129
O28	O	0.178403	-0.342923	0.916129
O29	O	-0.266860	-1.038657	0.538132
O30	O	0.233140	-0.538657	1.038132
O31	O	-0.410137	-1.046517	0.337847
O32	O	0.089863	-0.546517	0.837847
O33	O	-0.409904	-0.956753	0.420683
O34	O	0.090096	-0.456753	0.920683
C35	C	-0.287464	-0.819186	0.371960
C36	C	0.212536	-0.319186	0.871960
C37	C	-0.285044	-0.741082	0.368832
C38	C	0.214956	-0.241082	0.868832
C39	C	-0.318670	-0.702580	0.412216
C40	C	0.181330	-0.202580	0.912216
C41	C	-0.316388	-0.629193	0.409280
C42	C	0.183612	-0.129193	0.909280
C43	C	-0.280483	-0.594311	0.362956
C44	C	0.219517	-0.094311	0.862956
C45	C	-0.246854	-0.632819	0.319570
C46	C	0.253146	-0.132819	0.819570
C47	C	-0.249133	-0.706204	0.322510
C48	C	0.250867	-0.206204	0.822510
C49	C	-0.269937	-0.375027	0.349357
C50	C	0.230063	0.124973	0.849357
C51	C	-0.267661	-0.301637	0.346419
C52	C	0.232339	0.198363	0.846419
C53	C	-0.337195	-0.298017	0.436130
C54	C	0.162805	0.201983	0.936130
C55	C	-0.339473	-0.371403	0.439063
C56	C	0.160527	0.128597	0.939063
C57	C	-0.305842	-0.409905	0.395680
C58	C	0.194158	0.090095	0.895680
N59	N	-0.278152	-0.519298	0.359952
N60	N	0.221848	-0.019298	0.859952
N61	N	-0.308172	-0.484916	0.398687
N62	N	0.191828	0.015084	0.898687
C63	C	-0.428991	-1.001635	0.379274
C64	C	0.071009	-0.501635	0.879274
C65	C	-0.487106	-1.001648	0.379284
C66	C	0.012894	-0.501648	0.879284
C67	C	-0.847588	-1.048606	0.336260
C68	C	-0.347588	-0.548606	0.836260
C69	C	-0.902193	-1.048633	0.336270
C70	C	-0.402193	-0.548633	0.836270
O71	O	-0.930525	-1.088437	0.299649
O72	O	-0.430525	-0.588437	0.799649
N73	N	-0.929398	-1.001873	0.379362
N74	N	-0.429398	-0.501873	0.879362
C75	C	-0.901994	-0.955089	0.422452
C76	C	-0.401994	-0.455089	0.922452
O77	O	-0.930148	-0.915319	0.459107
O78	O	-0.430148	-0.415319	0.959107
C79	C	-0.847390	-0.955066	0.422445
C80	C	-0.347390	-0.455066	0.922445
C81	C	-0.820188	-1.001824	0.379345
C82	C	-0.320188	-0.501824	0.879345
C83	C	-0.820385	-1.095360	0.293163
C84	C	-0.320385	-0.595360	0.793163
C85	C	-0.765784	-1.095332	0.293152
C86	C	-0.265784	-0.595332	0.793152
C87	C	-0.738384	-1.048550	0.336237
C88	C	-0.238384	-0.548550	0.836237
C89	C	-0.765586	-1.001796	0.379333
C90	C	-0.265586	-0.501796	0.879333
C91	C	-0.819988	-0.908286	0.465538
C92	C	-0.319988	-0.408286	0.965538
C93	C	-0.765380	-0.908267	0.465528
C94	C	-0.265380	-0.408267	0.965528
C95	C	-0.738178	-0.955025	0.422427
C96	C	-0.238178	-0.455025	0.922427
C97	C	-0.683585	-0.954986	0.422407
C98	C	-0.183585	-0.454986	0.922407
N99	N	-0.656380	-1.001745	0.379315
N100	N	-0.156380	-0.501745	0.879315
C101	C	-0.683780	-1.048527	0.336230
C102	C	-0.183780	-0.548527	0.836230
C103	C	-1.016667	-0.955141	0.422465
C104	C	-0.516667	-0.455141	0.922465
C105	C	-1.071270	-0.955160	0.422470
C106	C	-0.571270	-0.455160	0.922470
C107	C	-1.071465	-1.048705	0.336288
C108	C	-0.571465	-0.548705	0.836288
C109	C	-1.016861	-1.048682	0.336281
C110	C	-0.516861	-0.548682	0.836281
C111	C	-0.989462	-1.001901	0.379373
C112	C	-0.489462	-0.501901	0.879373
C113	C	-0.569112	-1.048464	0.336209
C114	C	-0.069112	-0.548464	0.836209
C115	C	-0.514506	-1.048430	0.336199
C116	C	-0.014506	-0.548430	0.836199
C117	C	-0.514316	-0.954888	0.422383
C118	C	-0.014316	-0.454888	0.922383
C119	C	-0.568918	-0.954920	0.422390
C120	C	-0.068918	-0.454920	0.922390
C121	C	-0.596315	-1.001713	0.379301
C122	C	-0.096315	-0.501713	0.879301
O123	O	-0.655218	-0.915204	0.459012
O124	O	-0.155218	-0.415204	0.959012
O125	O	-0.655620	-1.088296	0.299588
O126	O	-0.155620	-0.588296	0.799588
C127	C	-0.156786	-1.001888	0.379364
C128	C	0.343214	-0.501888	0.879364
C129	C	-0.098674	-1.001946	0.379387
C130	C	0.401326	-0.501946	0.879387
C131	C	-0.298371	-0.994421	0.562590
C132	C	0.201629	-0.494421	1.062590
C133	C	-0.300594	-0.991296	0.640693
C134	C	0.199406	-0.491296	1.140693
C135	C	-0.298862	-0.185031	0.386683
C136	C	0.201138	0.314969	0.886683
C137	C	-0.301287	-0.263135	0.389803
C138	C	0.198713	0.236865	0.889803
C139	C	-0.287920	-1.009095	0.196746
C140	C	0.212080	-0.509095	0.696746
C141	C	-0.285553	-1.012355	0.118649
C142	C	0.214447	-0.512355	0.618649
C143	C	-0.269605	-1.034797	0.679210
C144	C	0.230395	-0.534797	1.179210
C145	C	-0.271692	-1.031853	0.752595
C146	C	0.228308	-0.531853	1.252595
C147	C	-0.304771	-0.985412	0.787463
C148	C	0.195229	-0.485412	1.287463
C149	C	-0.335761	-0.941906	0.748941
C150	C	0.164239	-0.441906	1.248941
C151	C	-0.333671	-0.944847	0.675557
C152	C	0.166329	-0.444847	1.175557
C153	C	-0.314454	-0.971790	1.006743
C154	C	0.185546	-0.471790	1.506743
C155	C	-0.316543	-0.968854	1.080133
C156	C	0.183457	-0.468854	1.580133
C157	C	-0.252472	-1.058801	1.083782
C158	C	0.247528	-0.558801	1.583782
C159	C	-0.250388	-1.061741	1.010396
C160	C	0.249612	-0.561741	1.510396
C161	C	-0.281376	-1.018233	0.971880
C162	C	0.218624	-0.518233	1.471880
N163	N	-0.306906	-0.982403	0.862475
N164	N	0.193094	-0.482403	1.362475
N165	N	-0.279238	-1.021238	0.896870
N166	N	0.220762	-0.521238	1.396870
H167	H	-0.217617	-0.604412	0.281854
H168	H	0.282383	-0.104412	0.781854
C169	C	-1.100822	-0.904308	0.469139
C170	C	-0.600822	-0.404308	0.969139
C171	C	-1.129674	-0.860895	0.427514
C172	C	-0.629674	-0.360895	0.927514
C173	C	-1.156896	-0.814037	0.470486
C174	C	-0.656896	-0.314037	0.970486
H175	H	-1.123841	-0.929864	0.500876
H176	H	-0.623841	-0.429864	1.000876
H177	H	-1.076694	-0.876404	0.494782
H178	H	-0.576694	-0.376404	0.994782
H179	H	-1.153799	-0.888796	0.401883
H180	H	-0.653799	-0.388796	0.901883
H181	H	-1.106668	-0.835324	0.395778
H182	H	-0.606668	-0.335324	0.895778
H183	H	-1.132768	-0.786133	0.496128
H184	H	-0.632768	-0.286133	0.996128
H185	H	-1.179912	-0.839599	0.502221
H186	H	-0.679912	-0.339599	1.002221
H187	H	-1.176471	-0.784572	0.442249
H188	H	-0.676471	-0.284572	0.942249
H189	H	-0.368712	-0.399799	0.476784
H190	H	0.131288	0.100201	0.976784
C191	C	-0.348187	-0.924630	0.964981
C192	C	0.151813	-0.424630	1.464981
C193	C	-0.400902	-0.939166	0.983413
C194	C	0.099098	-0.439166	1.483413
C195	C	-0.431992	-0.895734	0.944950
C196	C	0.068008	-0.395734	1.444950
H197	H	-0.339466	-0.876924	0.975089
H198	H	0.160534	-0.376924	1.475089
H199	H	-0.342243	-0.933024	0.916273
H200	H	0.157757	-0.433024	1.416273
H201	H	-0.406843	-0.930766	1.032110
H202	H	0.093157	-0.430766	1.532110
H203	H	-0.409639	-0.986863	0.973303
H204	H	0.090361	-0.486863	1.473303
H205	H	-0.426048	-0.904128	0.896242
H206	H	0.073952	-0.404128	1.396242
H207	H	-0.423267	-0.848031	0.955061
H208	H	0.076733	-0.348031	1.455061
H209	H	-0.467763	-0.905595	0.957447
H210	H	0.032237	-0.405595	1.457447
H211	H	-0.491998	-0.916797	0.457460
H212	H	0.008002	-0.416797	0.957460
C213	C	-0.735565	-0.857436	0.512200
C214	C	-0.235565	-0.357436	1.012200
C215	C	-0.701719	-0.814013	0.470566
C216	C	-0.201719	-0.314013	0.970566
C217	C	-0.674242	-0.767185	0.513535
C218	C	-0.174242	-0.267185	1.013535
H219	H	-0.759528	-0.829529	0.537880
H220	H	-0.259528	-0.329529	1.037880
H221	H	-0.715910	-0.883036	0.543905
H222	H	-0.215910	-0.383036	1.043905
H223	H	-0.721372	-0.788415	0.438874
H224	H	-0.221372	-0.288415	0.938874
H225	H	-0.677745	-0.841901	0.444887
H226	H	-0.177745	-0.341901	0.944887
H227	H	-0.654588	-0.792785	0.545240
H228	H	-0.154588	-0.292785	1.045240
H229	H	-0.698209	-0.739283	0.539213
H230	H	-0.198209	-0.239283	1.039213
H231	H	-0.651271	-0.737722	0.485294
H232	H	-0.151271	-0.237722	0.985294
H233	H	-0.994362	-0.917041	0.457554
H234	H	-0.494362	-0.417041	0.957554
H235	H	-0.743639	-1.133408	0.258058
H236	H	-0.243639	-0.633408	0.758058
C237	C	-1.101136	-1.099642	0.289561
C238	C	-0.601136	-0.599642	0.789561
C239	C	-1.090362	-1.168516	0.307733
C240	C	-0.590362	-0.668516	0.807733
C241	C	-1.117673	-1.215465	0.264702
C242	C	-0.617673	-0.715465	0.764702
H243	H	-1.137566	-1.093082	0.295686
H244	H	-0.637566	-0.593082	0.795686
H245	H	-1.090532	-1.091336	0.241915
H246	H	-0.590532	-0.591336	0.741915
H247	H	-1.100970	-1.176819	0.355368
H248	H	-0.600970	-0.676819	0.855368
H249	H	-1.053938	-1.175099	0.301605
H250	H	-0.553938	-0.675099	0.801605
H251	H	-1.107068	-1.207159	0.217055
H252	H	-0.607068	-0.707159	0.717055
H253	H	-1.154101	-1.208899	0.270830
H254	H	-0.654101	-0.708899	0.770830
H255	H	-1.110363	-1.262201	0.277021
H256	H	-0.610363	-0.762201	0.777021
C257	C	-0.849420	-0.857492	0.512414
C258	C	-0.349420	-0.357492	1.012414
C259	C	-0.813727	-0.816540	0.550155
C260	C	-0.313727	-0.316540	1.050155
C261	C	-0.840820	-0.769745	0.593354
C262	C	-0.340820	-0.269745	1.093354
H263	H	-0.869037	-0.827910	0.484366
H264	H	-0.369037	-0.327910	0.984366
H265	H	-0.872387	-0.883115	0.544176
H266	H	-0.372387	-0.383115	1.044176
H267	H	-0.790769	-0.790919	0.518397
H268	H	-0.290769	-0.290919	1.018397
H269	H	-0.794108	-0.846102	0.578216
H270	H	-0.294108	-0.346102	1.078216
H271	H	-0.863787	-0.795368	0.625116
H272	H	-0.363787	-0.295368	1.125116
H273	H	-0.860436	-0.740169	0.565301
H274	H	-0.360436	-0.240169	1.065301
H275	H	-0.816607	-0.741958	0.618971
H276	H	-0.316607	-0.241958	1.118971
H277	H	-0.347909	-0.730975	0.449936
H278	H	0.152091	-0.230975	0.949936
C279	C	-0.367413	-0.897713	0.633772
C280	C	0.132587	-0.397713	1.133772
C281	C	-0.420127	-0.912265	0.652205
C282	C	0.079873	-0.412265	1.152205
C283	C	-0.451225	-0.868866	0.613719
C284	C	0.048775	-0.368866	1.113719
H285	H	-0.358705	-0.849999	0.643860
H286	H	0.141295	-0.349999	1.143860
H287	H	-0.361464	-0.906126	0.585068
H288	H	0.138536	-0.406126	1.085068
H289	H	-0.426072	-0.903847	0.700897
H290	H	0.073928	-0.403847	1.200897
H291	H	-0.428851	-0.959971	0.642115
H292	H	0.071149	-0.459971	1.142115
H293	H	-0.445277	-0.877279	0.565015
H294	H	0.054723	-0.377279	1.065015
H295	H	-0.442513	-0.821155	0.623810
H296	H	0.057487	-0.321155	1.123810
H297	H	-0.486995	-0.878739	0.626216
H298	H	0.013005	-0.378739	1.126216
H299	H	-0.591413	-1.086570	0.301123
H300	H	-0.091413	-0.586570	0.801123
H301	H	-0.591067	-0.916848	0.457489
H302	H	-0.091067	-0.416848	0.957489
C303	C	-0.237973	-1.078963	0.794439
C304	C	0.262027	-0.578963	1.294439
C305	C	-0.204409	-1.037518	0.834955
C306	C	0.295591	-0.537518	1.334955
C307	C	-0.173329	-1.080890	0.873501
C308	C	0.326671	-0.580890	1.373501
H309	H	-0.259677	-1.108427	0.824357
H310	H	0.240323	-0.608427	1.324357
H311	H	-0.217945	-1.107027	0.763180
H312	H	0.282055	-0.607027	1.263180
H313	H	-0.224435	-1.009466	0.866212
H314	H	0.275565	-0.509466	1.366212
H315	H	-0.182694	-1.008056	0.805055
H316	H	0.317306	-0.508056	1.305055
H317	H	-0.153301	-1.108955	0.842241
H318	H	0.346699	-0.608955	1.342241
H319	H	-0.195037	-1.110352	0.903414
H320	H	0.304963	-0.610352	1.403414
H321	H	-0.150549	-1.052776	0.900990
H322	H	0.349451	-0.552776	1.400990
H323	H	-0.343771	-0.597847	0.444608
H324	H	0.156229	-0.097847	0.944608
C325	C	-0.218846	-1.105949	1.125723
C326	C	0.281154	-0.605949	1.625723
C327	C	-0.227744	-1.093423	1.197452
C328	C	0.272256	-0.593423	1.697452
C329	C	-0.196769	-1.136835	1.236108
C330	C	0.303231	-0.636835	1.736108
H331	H	-0.227595	-1.153661	1.115683
H332	H	0.272405	-0.653661	1.615683
H333	H	-0.183045	-1.096170	1.113334
H334	H	0.316955	-0.596170	1.613334
H335	H	-0.263537	-1.103206	1.209836
H336	H	0.236463	-0.603206	1.709836
H337	H	-0.218992	-1.045719	1.207512
H338	H	0.281008	-0.545719	1.707512
H339	H	-0.160968	-1.127057	1.223719
H340	H	0.339032	-0.627057	1.723719
H341	H	-0.205520	-1.184545	1.226063
H342	H	0.294480	-0.684545	1.726063
H343	H	-0.202798	-1.128338	1.284780
H344	H	0.297202	-0.628338	1.784780
C345	C	-0.373642	-0.256089	0.483204
C346	C	0.126358	0.243911	0.983204
C347	C	-0.363954	-0.184355	0.470731
C348	C	0.136046	0.315645	0.970731
C349	C	-0.397514	-0.145710	0.514092
C350	C	0.102486	0.354290	1.014092
H351	H	-0.408857	-0.268413	0.473358
H352	H	0.091143	0.231587	0.973358
H353	H	-0.367755	-0.266203	0.530930
H354	H	0.132245	0.233797	1.030930
H355	H	-0.369845	-0.174245	0.423015
H356	H	0.130155	0.325755	0.923015
H357	H	-0.328745	-0.172010	0.480580
H358	H	0.171255	0.327990	0.980580
H359	H	-0.391627	-0.155824	0.561819
H360	H	0.108373	0.344176	1.061819
H361	H	-0.432727	-0.158039	0.504243
H362	H	0.067273	0.341961	1.004243
H363	H	-0.390942	-0.097034	0.505640
H364	H	0.109058	0.402966	1.005640
H365	H	-0.238417	-0.273238	0.308700
H366	H	0.261583	0.226762	0.808700
H367	H	-0.842688	-1.133460	0.258078
H368	H	-0.342688	-0.633460	0.758078
H369	H	-0.221749	-0.737552	0.287185
H370	H	0.278251	-0.237552	0.787185
C371	C	-0.233397	-0.416699	0.302174
C372	C	0.266603	0.083301	0.802174
C373	C	-0.201477	-0.370441	0.260965
C374	C	0.298523	0.129559	0.760965
C375	C	-0.167812	-0.408807	0.217485
C376	C	0.332188	0.091193	0.717485
H377	H	-0.212255	-0.444275	0.330182
H378	H	0.287745	0.055725	0.830182
H379	H	-0.253360	-0.446520	0.272614
H380	H	0.246640	0.053480	0.772614
H381	H	-0.181515	-0.340632	0.290522
H382	H	0.318485	0.159368	0.790522
H383	H	-0.222605	-0.342864	0.232943
H384	H	0.277395	0.157136	0.732943
H385	H	-0.187775	-0.438628	0.187926
H386	H	0.312225	0.061372	0.687926
H387	H	-0.146673	-0.436382	0.245499
H388	H	0.353327	0.063618	0.745499
H389	H	-0.146153	-0.377427	0.189515
H390	H	0.353847	0.122573	0.689515
C391	C	-0.233637	-1.085243	0.641484
C392	C	0.266363	-0.585243	1.141484
C393	C	-0.206934	-1.122694	0.690926
C394	C	0.293066	-0.622694	1.190926
C395	C	-0.173789	-1.169164	0.656202
C396	C	0.326211	-0.669164	1.156202
H397	H	-0.253718	-1.117050	0.614084
H398	H	0.246282	-0.617050	1.114084
H399	H	-0.209177	-1.059548	0.611798
H400	H	0.290823	-0.559548	1.111798
H401	H	-0.231391	-1.148388	0.720600
H402	H	0.268609	-0.648388	1.220600
H403	H	-0.186843	-1.090906	0.718329
H404	H	0.313157	-0.590906	1.218329
H405	H	-0.149329	-1.143468	0.626515
H406	H	0.350671	-0.643468	1.126515
H407	H	-0.193874	-1.200966	0.628802
H408	H	0.306126	-0.700966	1.128802
H409	H	-0.155663	-1.194575	0.689742
H410	H	0.344337	-0.694575	1.189742
H411	H	-0.492359	-1.086506	0.301099
H412	H	0.007641	-0.586506	0.801099
H413	H	-0.994716	-1.086757	0.301185
H414	H	-0.494716	-0.586757	0.801185
H415	H	-0.223453	-1.099561	0.982012
H416	H	0.276547	-0.599561	1.482012
H417	H	-0.343481	-0.931033	1.108520
H418	H	0.156519	-0.431033	1.608520
C419	C	-0.371607	-0.891366	0.786753
C420	C	0.128393	-0.391366	1.286753
C421	C	-0.357539	-0.822568	0.766117
C422	C	0.142461	-0.322568	1.266117
C423	C	-0.390546	-0.775992	0.800939
C424	C	0.109454	-0.275992	1.300939
H425	H	-0.406730	-0.902002	0.775151
H426	H	0.093270	-0.402002	1.275151
H427	H	-0.368410	-0.895797	0.835979
H428	H	0.131590	-0.395797	1.335979
H429	H	-0.360741	-0.818140	0.716901
H430	H	0.139259	-0.318140	1.216901
H431	H	-0.322422	-0.811910	0.777720
H432	H	0.177578	-0.311910	1.277720
H433	H	-0.387349	-0.780423	0.850166
H434	H	0.112651	-0.280423	1.350166
H435	H	-0.425667	-0.786635	0.789334
H436	H	0.074333	-0.286635	1.289334
H437	H	-0.381002	-0.729307	0.786947
H438	H	0.118998	-0.229307	1.286947
