data_functionalizedCrystal
_audit_creation_method	'MofGen! by Chris Wilmer'
_symmetry_space_group_name_H-M	'P1'
_symmetry_Int_Tables_number	1
_symmetry_cell_setting	triclinic
loop_
_symmetry_equiv_pos_as_xyz
  x,y,z
_cell_length_a	13.101039
_cell_length_b	8.559649
_cell_length_c	8.559649
_cell_angle_alpha	69.778664
_cell_angle_beta	92.890696
_cell_angle_gamma	87.117232
loop_
_atom_site_label
_atom_site_type_symbol
_atom_site_fract_x
_atom_site_fract_y
_atom_site_fract_z
O1	O	0.085199	-2.136903	0.065082
O2	O	0.085203	-1.661418	-0.018699
O3	O	0.085199	-1.941051	0.260934
O4	O	0.085202	-1.857270	-0.214551
O5	O	-0.085230	-1.920984	0.240841
O6	O	-0.085227	-1.641351	-0.038792
O7	O	-0.085231	-2.116836	0.044989
Zn8	Zn	-0.112288	-1.875908	-0.000091
Zn9	Zn	0.112260	-1.902347	0.026382
O10	O	-0.085228	-1.837203	-0.234643
C11	C	-0.000012	-1.591076	-0.035094
C12	C	-0.000010	-1.411377	-0.053993
N13	N	-0.265537	-1.857876	-0.018156
C14	C	-0.000014	-1.937367	0.311197
C15	C	-0.000008	-1.956267	0.490897
C16	C	-0.474579	-1.833340	-0.042749
C17	C	-0.525456	-1.944922	0.069048
C18	C	-0.641774	-1.931271	0.055364
C19	C	-0.358250	-1.846990	-0.029068
N20	N	0.265508	-1.920393	0.044461
C21	C	-0.000014	-2.187178	0.061385
C22	C	-0.000009	-2.366878	0.080285
C23	C	-0.000012	-1.840888	-0.284906
C24	C	-0.000011	-1.821989	-0.464605
H25	H	-0.481655	-2.050704	0.175036
H26	H	-0.000013	-1.692569	0.436017
H27	H	-0.518375	-1.727568	-0.148732
H28	H	-0.000005	-1.466257	0.209705
Br29	Br	0.000006	-1.245738	-0.269719
H30	H	-0.000017	-2.085694	0.590284
