data_functionalizedCrystal
_audit_creation_method	'MofGen! by Chris Wilmer'
_symmetry_space_group_name_H-M	'P1'
_symmetry_Int_Tables_number	1
_symmetry_cell_setting	triclinic
loop_
_symmetry_equiv_pos_as_xyz
  x,y,z
_cell_length_a	12.811438
_cell_length_b	12.811434
_cell_length_c	9.798715
_cell_angle_alpha	95.430688
_cell_angle_beta	84.564853
_cell_angle_gamma	84.558968
loop_
_atom_site_label
_atom_site_type_symbol
_atom_site_fract_x
_atom_site_fract_y
_atom_site_fract_z
O1	O	1.393291	0.141373	-0.268418
O2	O	1.087773	0.156745	-0.228707
O3	O	1.248221	-0.003699	-0.268418
O4	O	1.232842	0.301817	-0.228707
O5	O	1.248209	-0.003700	-0.041435
O6	O	1.087761	0.156745	-0.001724
O7	O	1.393279	0.141372	-0.041434
Zn8	Zn	1.240518	0.149058	0.014459
Zn9	Zn	1.240534	0.149059	-0.284601
O10	O	1.232830	0.301816	-0.001723
C11	C	1.048659	0.155883	-0.110483
C12	C	0.932130	0.153304	-0.096381
C13	C	0.767880	0.149668	0.047215
C14	C	0.877370	0.152093	0.033972
C15	C	0.877391	0.152094	-0.213499
C16	C	0.767902	0.149670	-0.200256
C17	C	0.713150	0.148455	-0.069895
C18	C	0.603660	0.146023	-0.056654
C19	C	0.603682	0.146032	-0.304123
C20	C	0.713172	0.148457	-0.317366
C21	C	1.247354	-0.042807	-0.159663
C22	C	1.244777	-0.159336	-0.173773
C23	C	1.241146	-0.323577	-0.317369
C24	C	1.243572	-0.214088	-0.304126
C25	C	1.243559	-0.214080	-0.056655
C26	C	1.241134	-0.323569	-0.069898
C27	C	1.239925	-0.378313	-0.200258
C28	C	1.237492	-0.487803	-0.213499
C29	C	1.237487	-0.487793	0.033970
C30	C	1.239913	-0.378305	0.047212
C31	C	1.432392	0.142234	-0.159662
C32	C	1.548922	0.144813	-0.173772
C33	C	1.233697	0.340924	-0.110482
C34	C	1.236274	0.457453	-0.096381
N35	N	1.240515	0.149057	0.218559
N36	N	1.240545	0.149052	-0.488703
C37	C	1.307884	0.081396	0.269626
C38	C	1.307900	0.081392	0.426786
H39	H	0.921927	0.153084	0.129335
O40	O	0.930689	0.153424	-0.340024
C41	C	0.982500	0.245641	-0.342417
H42	H	0.995044	0.276270	-0.232743
H43	H	0.932264	0.308283	-0.389516
C44	C	1.074606	0.182758	-0.564263
C45	C	1.090021	0.220373	-0.429560
H46	H	1.140928	0.167174	-0.618021
H47	H	1.039697	0.120632	-0.562654
H48	H	1.032740	0.234966	-0.603493
H49	H	1.131875	0.168160	-0.390326
H50	H	1.124939	0.282490	-0.431164
H51	H	0.757765	0.149449	-0.423502
O52	O	0.550605	0.144708	0.070026
C53	C	0.588829	0.054495	0.129395
H54	H	0.672160	0.025984	0.080375
H55	H	0.535256	-0.010449	0.110838
C56	C	0.488039	0.117209	0.345739
C57	C	0.590391	0.082197	0.285540
H58	H	0.488998	0.134295	0.442058
H59	H	0.462283	0.177986	0.305741
H60	H	0.443406	0.063084	0.330262
H61	H	0.635019	0.136327	0.301004
H62	H	0.616155	0.021430	0.325546
O63	O	1.236135	-0.541047	0.147673
C64	C	1.143907	-0.592840	0.160078
H65	H	1.113303	-0.605428	0.054872
H66	H	1.081255	-0.542567	0.235071
C67	C	1.206725	-0.684860	0.343661
C68	C	1.169141	-0.700329	0.214442
H69	H	1.222287	-0.751162	0.377200
H70	H	1.268859	-0.649963	0.335307
H71	H	1.154509	-0.642962	0.406138
H72	H	1.221361	-0.742214	0.151963
H73	H	1.107015	-0.735235	0.222786
H74	H	0.559109	0.145048	-0.399482
O75	O	1.239979	-0.376600	-0.444096
C76	C	1.241522	-0.304802	-0.544616
H77	H	1.276476	-0.230967	-0.503563
H78	H	1.157663	-0.282489	-0.569462
C79	C	1.266337	-0.446938	-0.726735
C80	C	1.309277	-0.356256	-0.676317
H81	H	1.308127	-0.478677	-0.807977
H82	H	1.265294	-0.495310	-0.659013
H83	H	1.196456	-0.428330	-0.747429
H84	H	1.379151	-0.374866	-0.655608
H85	H	1.310333	-0.307888	-0.744039
H86	H	1.236501	-0.532373	-0.319644
H87	H	0.723300	0.148686	0.153361
O88	O	1.376665	0.012135	0.479081
C89	C	1.358860	-0.091799	0.433637
H90	H	1.318459	-0.091829	0.334862
H91	H	1.306316	-0.124298	0.516521
C92	C	1.514588	-0.161350	0.526783
C93	C	1.464974	-0.161388	0.405458
H94	H	1.580042	-0.204278	0.509407
H95	H	1.526582	-0.091328	0.557405
H96	H	1.470790	-0.188430	0.595841
H97	H	1.508766	-0.134296	0.336409
H98	H	1.452989	-0.231407	0.374825
H99	H	1.244554	-0.169490	0.049477
H100	H	1.244567	-0.169526	-0.399489
H101	H	1.182868	0.206986	0.467327
H102	H	1.240901	-0.333718	0.153348
H103	H	1.365545	0.023466	0.196999
H104	H	1.182846	0.206979	0.291188
