data_functionalizedCrystal
_audit_creation_method	'MofGen! by Chris Wilmer'
_symmetry_space_group_name_H-M	'P1'
_symmetry_Int_Tables_number	1
_symmetry_cell_setting	triclinic
loop_
_symmetry_equiv_pos_as_xyz
  x,y,z
_cell_length_a	10.685194
_cell_length_b	12.827893
_cell_length_c	12.827885
_cell_angle_alpha	90.021189
_cell_angle_beta	85.597438
_cell_angle_gamma	85.624769
loop_
_atom_site_label
_atom_site_type_symbol
_atom_site_fract_x
_atom_site_fract_y
_atom_site_fract_z
Zn1	Zn	-0.502409	-1.565833	-0.558978
Zn2	Zn	-0.713475	-1.552351	-0.370829
Zn3	Zn	-0.502464	-1.391070	-0.384243
Zn4	Zn	-0.713374	-1.377690	-0.545530
O5	O	-0.607930	-1.471736	-0.464895
O6	O	-0.530426	-1.710279	-0.534034
O7	O	-0.685549	-1.530914	-0.226368
O8	O	-0.325859	-1.425495	-0.418664
O9	O	-0.685496	-1.700374	-0.395801
O10	O	-0.325818	-1.553892	-0.547041
O11	O	-0.530521	-1.412422	-0.236223
O12	O	-0.530423	-1.243060	-0.405624
O13	O	-0.685323	-1.402690	-0.693554
O14	O	-0.685377	-1.233230	-0.524121
O15	O	-0.530328	-1.540918	-0.703434
O16	O	-0.890060	-1.517940	-0.382762
O17	O	-0.889986	-1.389617	-0.511114
C18	C	-0.607896	-1.200228	-0.464869
C19	C	-0.607912	-1.084074	-0.464881
C20	C	-0.531132	-1.037133	-0.406362
C21	C	-0.531146	-0.917081	-0.406373
C22	C	-0.935813	-1.450892	-0.444046
C23	C	-1.076082	-1.442070	-0.435161
C24	C	-0.278768	-1.492690	-0.485849
C25	C	-0.138498	-1.501619	-0.494778
C26	C	-0.607808	-1.471816	-0.737473
C27	C	-0.607756	-1.471850	-0.853629
C28	C	-0.607956	-0.744304	-0.464914
C29	C	-0.607940	-0.860459	-0.464902
C30	C	-0.530992	-1.540290	-1.030352
C31	C	-0.531045	-1.540257	-0.910298
C32	C	-0.607961	-1.471722	-0.193383
C33	C	-0.607658	-1.471913	-0.077250
H34	H	-0.465407	-0.876695	-0.356278
H35	H	-0.673387	-1.413300	-0.893973
C36	C	-0.442258	-1.619406	-1.096178
N37	N	-0.375415	-1.678995	-1.145756
H38	H	-1.129961	-1.384326	-0.377324
H39	H	-1.084627	-1.559352	-0.552620
H40	H	-0.673660	-1.035385	-0.514985
C41	C	-0.442369	-1.619344	-0.855791
N42	N	-0.375576	-1.678916	-0.814734
C43	C	-0.696384	-1.392791	-1.011425
N44	N	-0.763213	-1.333192	-0.961847
C45	C	-0.442300	-1.102905	-0.338674
N46	N	-0.375384	-1.152444	-0.287695
C47	C	-0.696752	-0.915009	-0.532589
N48	N	-0.763648	-0.956105	-0.583569
