data_functionalizedCrystal
_audit_creation_method	'MofGen! by Chris Wilmer'
_symmetry_space_group_name_H-M	'P1'
_symmetry_Int_Tables_number	1
_symmetry_cell_setting	triclinic
loop_
_symmetry_equiv_pos_as_xyz
  x,y,z
_cell_length_a	9.065218
_cell_length_b	26.210047
_cell_length_c	9.065218
_cell_angle_alpha	89.993912
_cell_angle_beta	94.984081
_cell_angle_gamma	89.988669
loop_
_atom_site_label
_atom_site_type_symbol
_atom_site_fract_x
_atom_site_fract_y
_atom_site_fract_z
O1	O	-1.960413	0.042453	0.216337
O2	O	-1.531128	0.042448	0.234083
O3	O	-1.754644	0.042449	0.010568
O4	O	-1.736898	0.042452	0.439853
O5	O	-1.754601	-0.042409	0.010602
O6	O	-1.531085	-0.042410	0.234118
O7	O	-1.960370	-0.042405	0.216372
Cu8	Cu	-1.745724	-0.050155	0.225248
Cu9	Cu	-1.745775	0.050199	0.225207
O10	O	-1.736854	-0.042406	0.439887
C11	C	-1.476120	0.000019	0.232395
C12	C	-1.312277	0.000017	0.227295
N13	N	-1.745698	-0.120739	0.225276
C14	C	-1.844738	-0.473253	0.126257
C15	C	-1.844770	-0.686912	0.126237
O16	O	-1.928920	-0.714533	0.042053
N17	N	-1.745782	-0.713633	0.225175
C18	C	-1.646773	-0.686937	0.324118
O19	O	-1.562568	-0.714568	0.408260
C20	C	-1.646735	-0.473279	0.324130
C21	C	-1.745739	-0.446560	0.225196
C22	C	-1.943733	-0.446534	0.027330
C23	C	-1.943729	-0.393122	0.027341
C24	C	-1.844730	-0.366430	0.126280
C25	C	-1.745735	-0.393149	0.225207
C26	C	-1.547719	-0.446584	0.423065
C27	C	-1.547716	-0.393166	0.423056
C28	C	-1.646720	-0.366447	0.324122
C29	C	-1.646733	-0.313045	0.324157
N30	N	-1.745721	-0.286323	0.225219
C31	C	-1.844719	-0.313016	0.126281
C32	C	-1.646802	-0.799110	0.324107
C33	C	-1.646813	-0.852525	0.324106
C34	C	-1.844808	-0.852495	0.126222
C35	C	-1.844803	-0.799080	0.126232
C36	C	-1.745790	-0.772389	0.225169
C37	C	-1.844705	-0.200848	0.126313
C38	C	-1.844697	-0.147432	0.126337
C39	C	-1.646697	-0.147466	0.324215
C40	C	-1.646710	-0.200877	0.324197
C41	C	-1.745719	-0.227567	0.225233
O42	O	-1.562616	-0.285391	0.408286
O43	O	-1.928889	-0.285376	0.042129
C44	C	-1.844741	-0.526664	0.126245
C45	C	-1.745746	-0.553383	0.225173
C46	C	-1.646747	-0.526691	0.324111
C47	C	-1.745757	-0.606798	0.225172
C48	C	-1.844756	-0.633490	0.126233
C49	C	-1.943743	-0.606768	0.027295
C50	C	-1.943740	-0.553357	0.027307
C51	C	-1.547760	-0.553413	0.423049
C52	C	-1.547773	-0.606824	0.423031
C53	C	-1.646771	-0.633517	0.324092
C54	C	-1.015378	0.000023	0.218060
C55	C	-1.179221	0.000019	0.223159
C56	C	-1.752917	0.000021	-0.044402
C57	C	-1.747817	0.000023	-0.208244
N58	N	-1.745812	0.120783	0.225167
C59	C	-1.738581	0.000024	0.494856
C60	C	-1.743681	0.000025	0.658699
H61	H	-1.925323	-0.125679	0.045773
H62	H	-1.566097	-0.125724	0.404774
F63	F	-2.049113	-0.524927	-0.077994
H64	H	-2.024358	-0.628510	-0.053260
F65	F	-1.950083	-0.229245	0.020985
F66	F	-1.442325	-0.364763	0.528360
F67	F	-2.049095	-0.364691	-0.077964
H68	H	-1.566210	-0.874275	0.404683
F69	F	-1.442344	-0.475011	0.528362
H70	H	-2.024349	-0.468262	-0.053245
H71	H	-1.566171	-0.777382	0.404677
F72	F	-1.442387	-0.525011	0.528358
H73	H	-1.566106	-0.222632	0.404772
F74	F	-1.950174	-0.770649	0.020932
F75	F	-1.950170	-0.880913	0.020925
F76	F	-1.442399	-0.635255	0.528345
