data_functionalizedCrystal
_audit_creation_method	'MofGen! by Chris Wilmer'
_symmetry_space_group_name_H-M	'P1'
_symmetry_Int_Tables_number	1
_symmetry_cell_setting	triclinic
loop_
_symmetry_equiv_pos_as_xyz
  x,y,z
_cell_length_a	14.044220
_cell_length_b	12.784905
_cell_length_c	11.892095
_cell_angle_alpha	86.511728
_cell_angle_beta	94.243827
_cell_angle_gamma	83.148098
loop_
_atom_site_label
_atom_site_type_symbol
_atom_site_fract_x
_atom_site_fract_y
_atom_site_fract_z
O1	O	-0.000676	1.417047	-0.094010
O2	O	0.499324	1.917047	0.405990
O3	O	0.039602	1.111411	-0.094012
O4	O	0.539602	1.611411	0.405988
O5	O	-0.118143	1.259641	-0.094000
O6	O	0.381857	1.759641	0.406000
O7	O	0.157069	1.268818	-0.094022
O8	O	0.657069	1.768818	0.405978
O9	O	-0.105009	1.247280	0.094007
O10	O	0.394991	1.747280	0.594007
O11	O	0.052736	1.099051	0.093995
O12	O	0.552736	1.599051	0.593995
O13	O	0.012458	1.404686	0.093997
O14	O	0.512458	1.904686	0.593997
Zn15	Zn	0.034682	1.249906	0.123846
Zn16	Zn	0.534682	1.749906	0.623846
Zn17	Zn	0.017378	1.266192	-0.123861
Zn18	Zn	0.517378	1.766192	0.376139
O19	O	0.170203	1.256457	0.093984
O20	O	0.670203	1.756457	0.593984
C21	C	0.048789	1.065880	-0.000009
C22	C	0.548789	1.565880	0.499991
C23	C	0.056583	0.948625	-0.000009
C24	C	0.556583	1.448625	0.499991
C25	C	-0.146559	1.249444	0.000004
C26	C	0.353441	1.749444	0.500004
C27	C	-0.250798	1.237464	0.000005
C28	C	0.249202	1.737464	0.500005
C29	C	-0.102219	0.737185	-0.000016
C30	C	0.397781	1.237185	0.499984
C31	C	-0.094900	0.627014	-0.000017
C32	C	0.405100	1.127014	0.499983
C33	C	0.078539	0.618111	-0.000018
C34	C	0.578539	1.118111	0.499982
C35	C	0.071220	0.728282	-0.000018
C36	C	0.571220	1.228282	0.499982
C37	C	-0.019162	0.787815	-0.000015
C38	C	0.480838	1.287815	0.499985
C39	C	-0.026480	0.897988	-0.000007
C40	C	0.473520	1.397988	0.499993
C41	C	0.146958	0.889083	-0.000016
C42	C	0.646958	1.389083	0.499984
C43	C	0.154277	0.778912	-0.000017
C44	C	0.654277	1.278912	0.499983
C45	C	-0.441655	1.215564	-0.000011
C46	C	0.058345	1.715564	0.499989
C47	C	-0.506291	1.300530	-0.000014
C48	C	-0.006291	1.800530	0.499986
C49	C	-0.612491	1.288344	-0.000023
C50	C	-0.112491	1.788344	0.499977
C51	C	-0.335445	1.227748	-0.000002
C52	C	0.164555	1.727748	0.499998
C53	C	0.198619	1.266654	-0.000022
C54	C	0.698619	1.766654	0.499978
C55	C	0.302857	1.278634	-0.000030
C56	C	0.802857	1.778634	0.499970
C57	C	0.003271	1.450218	-0.000009
C58	C	0.503271	1.950218	0.499991
C59	C	-0.004524	1.567473	-0.000016
C60	C	0.495476	2.067473	0.499984
N61	N	0.046491	1.238799	0.292899
N62	N	0.546491	1.738799	0.792899
N63	N	0.005561	1.277307	-0.292914
N64	N	0.505561	1.777307	0.207086
C65	C	-0.076663	1.354590	0.529556
C66	C	0.423337	1.854590	1.029556
C67	C	-0.068403	1.346834	0.647897
C68	C	0.431597	1.846834	1.147897
C69	C	0.071267	1.215528	0.647925
C70	C	0.571267	1.715528	1.147925
C71	C	0.063007	1.223283	0.529584
C72	C	0.563007	1.723283	1.029584
C73	C	-0.010960	1.292818	0.470403
C74	C	0.489040	1.792818	0.970403
C75	C	-0.019216	1.300578	0.352060
C76	C	0.480784	1.800578	0.852060
C77	C	0.120450	1.169266	0.352089
C78	C	0.620450	1.669266	0.852089
C79	C	0.128710	1.161511	0.470431
C80	C	0.628710	1.661511	0.970431
H81	H	-0.175811	0.785658	-0.000007
H82	H	0.324189	1.285658	0.499993
H83	H	-0.481875	1.382430	-0.000089
H84	H	0.018125	1.882430	0.499911
O85	O	0.151023	1.140516	0.711771
O86	O	0.651023	1.640516	1.211771
H87	H	0.195319	1.098850	0.650760
H88	H	0.695319	1.598850	1.150760
H89	H	0.227863	0.730425	-0.000024
H90	H	0.727863	1.230425	0.499976
H91	H	0.214590	0.930317	-0.000010
H92	H	0.714590	1.430317	0.499990
O93	O	-0.099012	1.375548	0.288231
O94	O	0.400988	1.875548	0.788231
H95	H	-0.093722	1.370564	0.196002
H96	H	0.406278	1.870564	0.696002
O97	O	-0.139261	1.413475	0.711695
O98	O	0.360739	1.913475	1.211695
H99	H	-0.213069	1.394585	0.688983
H100	H	0.286931	1.894585	1.188983
O101	O	-0.473990	1.107086	0.000006
O102	O	0.026010	1.607086	0.500006
H103	H	-0.553540	1.114418	0.000015
H104	H	-0.053540	1.614418	0.500015
H105	H	-0.136884	1.411215	0.481371
H106	H	0.363116	1.911215	0.981371
H107	H	0.188931	1.104894	0.518629
H108	H	0.688931	1.604894	1.018629
O109	O	-0.184483	0.572405	-0.000001
O110	O	0.315517	1.072405	0.499999
H111	H	-0.232828	0.600727	-0.076622
H112	H	0.267172	1.100727	0.423378
O113	O	-0.123957	0.962206	-0.000007
O114	O	0.376043	1.462206	0.499993
H115	H	-0.180482	0.908487	-0.000020
H116	H	0.319518	1.408487	0.499980
O117	O	0.176017	0.553893	-0.000012
O118	O	0.676017	1.053893	0.499988
H119	H	0.167148	0.468778	-0.000004
H120	H	0.667148	0.968778	0.499996
H121	H	0.173952	1.118970	0.303914
H122	H	0.673952	1.618970	0.803914
