data_functionalizedCrystal
_audit_creation_method	'MofGen! by Chris Wilmer'
_symmetry_space_group_name_H-M	'P1'
_symmetry_Int_Tables_number	1
_symmetry_cell_setting	triclinic
loop_
_symmetry_equiv_pos_as_xyz
  x,y,z
_cell_length_a	6.817900
_cell_length_b	16.305681
_cell_length_c	16.305550
_cell_angle_alpha	95.371254
_cell_angle_beta	103.455250
_cell_angle_gamma	103.457389
loop_
_atom_site_label
_atom_site_type_symbol
_atom_site_fract_x
_atom_site_fract_y
_atom_site_fract_z
V1	V	-4.026191	-0.117429	-0.263322
O2	O	-4.013843	0.004910	-0.258012
O3	O	-3.977589	-0.232137	-0.261807
O4	O	-3.977598	-0.115944	-0.378035
O5	O	-4.013834	-0.112087	-0.140979
V6	V	-4.509870	-0.102758	-0.248654
O7	O	-4.287107	-0.149611	-0.295497
O8	O	-4.699152	-0.070575	-0.216479
O9	O	-4.335266	0.011951	-0.250169
O10	O	-4.639615	-0.225097	-0.253964
O11	O	-4.639624	-0.108100	-0.370997
O12	O	-4.335257	-0.104243	-0.133941
C13	C	-3.822547	-0.260091	-0.257726
C14	C	-3.864094	-0.353868	-0.257252
C15	C	-3.822557	-0.111874	-0.405986
C16	C	-3.864109	-0.111419	-0.499767
C17	C	-3.940236	-0.525570	-0.256406
C18	C	-3.736017	-0.556086	-0.251127
C19	C	-3.779332	-0.653679	-0.250964
C20	C	-4.015199	-0.694622	-0.255573
C21	C	-4.151340	-0.674609	-0.339102
C22	C	-4.106672	-0.577011	-0.339618
C23	C	-4.026207	-0.551426	-0.178454
C24	C	-4.064811	-0.648742	-0.176814
C25	C	-4.057579	-0.790163	-0.255105
C26	C	-3.897866	-0.430030	-0.256880
C27	C	-4.015197	-0.109656	-0.840508
C28	C	-3.779151	-0.104421	-0.799567
C29	C	-3.735957	-0.105244	-0.702074
C30	C	-3.940239	-0.110530	-0.671462
C31	C	-4.107233	-0.193843	-0.722295
C32	C	-4.149097	-0.193372	-0.819843
C33	C	-4.069988	-0.032242	-0.794473
C34	C	-4.022059	-0.031583	-0.696629
C35	C	-3.897889	-0.111027	-0.575926
C36	C	-4.057556	-0.109164	-0.936046
C37	C	-4.153650	0.039900	-0.254247
C38	C	-4.091341	0.133676	-0.254727
C39	C	-4.153640	-0.108316	-0.105985
C40	C	-4.091326	-0.108767	-0.012203
H41	H	-3.673706	-0.666410	-0.190933
H42	H	-3.608708	-0.521391	-0.191292
H43	H	-3.669674	-0.538725	-0.307126
C44	C	-4.385897	-0.711684	-0.347768
N45	N	-4.562566	-0.739607	-0.354293
C46	C	-3.565068	-0.024327	-0.654557
N47	N	-3.436335	0.036618	-0.618771
C48	C	-3.946540	0.053039	-0.812318
N49	N	-3.853538	0.117270	-0.825758
C50	C	-4.031237	-0.556790	-0.419261
N51	N	-3.974410	-0.541564	-0.479248
H52	H	-3.734102	-0.684236	-0.307122
C53	C	-4.106399	-0.718142	-0.418124
N54	N	-4.072534	-0.750927	-0.477642
C55	C	-4.314136	-0.203145	-0.696766
N56	N	-4.469973	-0.210150	-0.677535
H57	H	-4.259459	-0.557744	-0.346915
C58	C	-3.872701	-0.502806	-0.093630
N59	N	-3.757061	-0.466186	-0.029744
H60	H	-4.322930	-0.200679	-0.847853
C61	C	-3.928498	-0.664658	-0.093386
N62	N	-3.825827	-0.676652	-0.030548
C63	C	-3.635774	-0.023195	-0.816208
N64	N	-3.527775	0.037957	-0.828797
H65	H	-4.233541	-0.676086	-0.175295
C66	C	-4.100209	-0.272539	-0.861084
N67	N	-4.063372	-0.332167	-0.892142
H68	H	-4.177665	-0.532034	-0.181547
H69	H	-3.734035	-0.160039	-0.831216
H70	H	-4.051772	-0.252463	-0.705627
C71	C	-3.858567	0.051670	-0.649983
N72	N	-3.735421	0.114375	-0.614842
C73	C	-4.220887	-0.030119	-0.667687
N74	N	-4.370605	-0.029003	-0.645858
C75	C	-4.302431	-0.036416	-0.830717
N76	N	-4.477505	-0.039565	-0.858022
H77	H	-3.669505	-0.161503	-0.685919
