data_functionalizedCrystal
_audit_creation_method	'MofGen! by Chris Wilmer'
_symmetry_space_group_name_H-M	'P1'
_symmetry_Int_Tables_number	1
_symmetry_cell_setting	triclinic
loop_
_symmetry_equiv_pos_as_xyz
  x,y,z
_cell_length_a	10.654559
_cell_length_b	27.732048
_cell_length_c	9.130313
_cell_angle_alpha	89.993840
_cell_angle_beta	89.999532
_cell_angle_gamma	83.565670
loop_
_atom_site_label
_atom_site_type_symbol
_atom_site_fract_x
_atom_site_fract_y
_atom_site_fract_z
O1	O	1.664973	0.067905	-0.121825
O2	O	1.299224	0.074368	-0.121828
O3	O	1.493458	0.000811	-0.121799
O4	O	1.470739	0.141462	-0.121854
O5	O	1.493455	0.000813	0.121800
O6	O	1.299222	0.074370	0.121771
O7	O	1.664970	0.067907	0.121774
Cu8	Cu	1.482096	0.071139	0.144015
Cu9	Cu	1.482099	0.071136	-0.144069
O10	O	1.470737	0.141464	0.121744
C11	C	1.252445	0.073894	-0.000028
C12	C	1.113062	0.072471	-0.000028
C13	C	1.063399	0.027824	-0.000007
C14	C	0.932433	0.026491	-0.000017
C15	C	0.900803	0.114454	-0.000065
C16	C	1.031767	0.115787	-0.000065
C17	C	1.144694	-0.015492	0.000030
C18	C	1.095033	-0.060142	0.000053
C19	C	0.964066	-0.061476	0.000042
C20	C	0.882762	-0.018159	0.000009
C21	C	1.492980	-0.017198	0.000005
C22	C	1.491544	-0.070862	0.000017
C23	C	1.597283	-0.409017	-0.000057
C24	C	1.591955	-0.610710	-0.000078
O25	O	1.688645	-0.641362	-0.000141
N26	N	1.476782	-0.630553	-0.000077
C27	C	1.362933	-0.599968	-0.000081
O28	O	1.264850	-0.621474	-0.000097
C29	C	1.368263	-0.398277	-0.000071
C30	C	1.483443	-0.378437	-0.000057
C31	C	1.712453	-0.389177	-0.000045
C32	C	1.713784	-0.338757	-0.000032
C33	C	1.599944	-0.308177	-0.000031
C34	C	1.484773	-0.328017	-0.000044
C35	C	1.254415	-0.367693	-0.000086
C36	C	1.255758	-0.317268	-0.000087
C37	C	1.370938	-0.297428	-0.000073
C38	C	1.372264	-0.247016	-0.000031
N39	N	1.487437	-0.227174	-0.000031
C40	C	1.601277	-0.257754	-0.000031
C41	C	1.360143	-0.705860	-0.000084
C42	C	1.358811	-0.756283	-0.000084
C43	C	1.587833	-0.767021	-0.000083
C44	C	1.589164	-0.716597	-0.000072
C45	C	1.475316	-0.686018	-0.000084
C46	C	1.604063	-0.151868	-0.000003
C47	C	1.605384	-0.101442	0.000017
C48	C	1.376362	-0.090709	0.000008
C49	C	1.375041	-0.141129	-0.000003
C50	C	1.488902	-0.171708	-0.000014
O51	O	1.275625	-0.216335	0.000016
O52	O	1.699346	-0.236240	-0.000049
C53	C	1.595952	-0.459438	-0.000071
C54	C	1.480781	-0.479278	-0.000083
C55	C	1.366941	-0.448697	-0.000083
C56	C	1.479448	-0.529700	-0.000083
C57	C	1.593288	-0.560281	-0.000084
C58	C	1.708461	-0.540438	-0.000084
C59	C	1.709792	-0.490018	-0.000071
C60	C	1.251769	-0.468540	-0.000082
C61	C	1.250447	-0.518961	-0.000094
C62	C	1.364287	-0.549541	-0.000094
C63	C	1.711749	0.068381	-0.000029
C64	C	1.851132	0.069804	-0.000039
C65	C	1.471215	0.159473	-0.000062
C66	C	1.472651	0.213137	-0.000084
N67	N	1.482103	0.071140	0.346637
N68	N	1.482101	0.071131	-0.346692
C69	C	1.568131	0.038580	0.423302
C70	C	1.568128	0.038574	0.576639
C71	C	1.396064	0.103693	0.576633
C72	C	1.396062	0.103696	0.423299
C73	C	1.654171	0.006024	0.346641
C74	C	1.740208	-0.026538	0.423306
C75	C	1.740204	-0.026544	0.576643
C76	C	1.654165	0.006013	0.653315
H77	H	1.699181	-0.085292	0.000032
H78	H	1.156647	-0.535109	-0.000093
H79	H	1.265020	-0.772431	-0.000070
Br80	Br	1.758589	-0.193360	-0.000018
Br81	Br	1.279306	0.147874	0.680685
Br82	Br	0.705021	-0.019971	-0.000023
Br83	Br	0.896670	-0.122071	0.000040
H84	H	0.834595	0.149720	-0.000089
Br85	Br	1.856950	-0.070739	0.680689
Br86	Br	1.205368	-0.118925	0.000075
Br87	Br	1.279299	0.147883	0.319249
H88	H	1.810251	-0.053047	0.360872
H89	H	1.072202	0.152142	-0.000069
H90	H	1.807575	-0.322609	-0.000026
Br91	Br	1.866972	-0.430671	-0.000046
H92	H	1.682954	-0.700448	-0.000062
Br93	Br	1.654152	0.005997	0.861417
Br94	Br	1.742329	-0.808532	-0.000087
Br95	Br	1.098090	-0.394605	-0.000111
Br96	Br	1.322434	-0.013684	0.000012
Br97	Br	1.205620	-0.664365	-0.000103
Br98	Br	1.218725	-0.168055	0.000011
Br99	Br	1.221873	-0.049197	0.000009
Br100	Br	1.101241	-0.275769	-0.000110
H101	H	1.803583	-0.473870	-0.000060
Br102	Br	1.654187	0.006034	0.138542
H103	H	1.801153	-0.565346	-0.000078
H104	H	1.159064	-0.443646	-0.000085
