data_functionalizedCrystal
_audit_creation_method	'MofGen! by Chris Wilmer'
_symmetry_space_group_name_H-M	'P1'
_symmetry_Int_Tables_number	1
_symmetry_cell_setting	triclinic
loop_
_symmetry_equiv_pos_as_xyz
  x,y,z
_cell_length_a	10.654550
_cell_length_b	9.798715
_cell_length_c	10.654551
_cell_angle_alpha	90.001381
_cell_angle_beta	84.485180
_cell_angle_gamma	90.000450
loop_
_atom_site_label
_atom_site_type_symbol
_atom_site_fract_x
_atom_site_fract_y
_atom_site_fract_z
O1	O	1.667841	0.113383	0.176396
O2	O	1.302362	0.113408	0.193202
O3	O	1.493504	0.113392	0.002060
O4	O	1.476699	0.113399	0.367538
O5	O	1.493489	-0.113590	0.002060
O6	O	1.302348	-0.113574	0.193202
O7	O	1.667826	-0.113599	0.176396
Zn8	Zn	1.485085	-0.149625	0.184799
Zn9	Zn	1.485104	0.149434	0.184799
O10	O	1.476685	-0.113583	0.367538
C11	C	1.255557	-0.000080	0.191968
C12	C	1.116114	-0.000071	0.188276
C13	C	1.036629	-0.000072	0.300818
C14	C	0.905608	-0.000096	0.297341
C15	C	0.933570	-0.000111	0.068772
C16	C	1.064589	-0.000097	0.072249
N17	N	1.485081	-0.353725	0.184797
C18	C	1.565336	-0.421508	0.104188
C19	C	1.565356	-0.578671	0.104184
C20	C	1.714632	-0.000108	0.177630
C21	C	1.854075	-0.000108	0.181322
C22	C	1.492262	-0.000097	-0.044738
C23	C	1.488570	-0.000090	-0.184181
N24	N	1.485117	0.353534	0.184791
C25	C	1.486845	0.123639	-0.249685
C26	C	1.483365	0.123641	-0.380705
C27	C	1.483341	-0.123828	-0.380708
C28	C	1.486812	-0.123828	-0.249689
C29	C	1.477926	-0.000091	0.414336
C30	C	1.481619	-0.000089	0.553779
H31	H	0.891602	-0.000140	-0.025693
O32	O	1.403070	-0.423438	0.266956
C33	C	1.324860	-0.506076	0.199134
H34	H	1.373788	-0.527333	0.101190
H35	H	1.305689	-0.606617	0.251318
H36	H	1.231864	-0.451104	0.190053
O37	O	1.488480	0.243955	-0.186236
C38	C	1.486241	0.353160	-0.272157
H39	H	1.444073	0.316886	-0.360698
H40	H	1.426382	0.439702	-0.226859
H41	H	1.586452	0.391199	-0.298391
O42	O	1.481469	0.243796	-0.444365
C43	C	1.370896	0.251203	-0.506895
H44	H	1.296044	0.180998	-0.458129
H45	H	1.334424	0.360642	-0.503921
H46	H	1.392805	0.217959	-0.609195
H47	H	1.634027	-0.363191	0.035174
H48	H	1.481911	-0.224570	-0.434060
O49	O	1.141937	0.000091	-0.036997
C50	C	1.218530	0.117671	-0.041838
H51	H	1.226011	0.156870	0.057907
H52	H	1.316583	0.091238	-0.087755
H53	H	1.174933	0.199980	-0.099580
H54	H	1.488209	-0.224589	-0.196353
H55	H	1.416409	-0.588184	0.253812
O56	O	1.086475	-0.000119	0.413628
C57	C	0.988217	-0.000094	0.512213
H58	H	0.898926	-0.043077	0.476228
H59	H	1.016298	-0.065987	0.593147
H60	H	0.969973	0.108800	0.546983
O61	O	0.828270	0.000092	0.406581
C62	C	0.751657	0.117656	0.411416
H63	H	0.744159	0.156833	0.311668
H64	H	0.653612	0.091211	0.457345
H65	H	0.795247	0.199988	0.469143
H66	H	1.634071	-0.636962	0.035176
