data_functionalizedCrystal
_audit_creation_method	'MofGen! by Chris Wilmer'
_symmetry_space_group_name_H-M	'P1'
_symmetry_Int_Tables_number	1
_symmetry_cell_setting	triclinic
loop_
_symmetry_equiv_pos_as_xyz
  x,y,z
_cell_length_a	10.967926
_cell_length_b	10.654545
_cell_length_c	9.482900
_cell_angle_alpha	99.427550
_cell_angle_beta	92.549900
_cell_angle_gamma	84.600222
loop_
_atom_site_label
_atom_site_type_symbol
_atom_site_fract_x
_atom_site_fract_y
_atom_site_fract_z
O1	O	1.612052	0.221772	0.282987
O2	O	1.262862	0.224527	0.195500
O3	O	1.445484	0.040734	0.241256
O4	O	1.429429	0.405566	0.237231
O5	O	1.408391	0.078224	0.473755
O6	O	1.225768	0.262017	0.427999
O7	O	1.574958	0.259262	0.515485
Cu8	Cu	1.396976	0.264063	0.492971
Cu9	Cu	1.440844	0.219727	0.218014
O10	O	1.392336	0.443056	0.469730
C11	C	1.199602	0.240239	0.300547
C12	C	1.066374	0.231186	0.267168
C13	C	0.987760	0.246571	0.372728
C14	C	0.850061	0.237214	0.338231
C15	C	1.425759	0.012633	0.357207
C16	C	1.422232	-0.126954	0.356315
C17	C	1.462687	-0.167834	0.102841
C18	C	1.481262	-0.253851	-0.024309
C19	C	1.477947	-0.385003	-0.025141
C20	C	1.456053	-0.430139	0.101190
C21	C	1.437478	-0.344123	0.228340
C22	C	1.440798	-0.212970	0.229159
C23	C	1.397015	-0.303242	0.481809
C24	C	1.400338	-0.172090	0.482646
C25	C	1.375121	-0.348378	0.608140
C26	C	1.356555	-0.262362	0.735296
C27	C	1.359871	-0.131203	0.736123
C28	C	1.381763	-0.086073	0.609796
C29	C	1.638218	0.243550	0.410435
C30	C	1.771448	0.252602	0.443806
C31	C	1.412062	0.471156	0.353776
C32	C	1.415590	0.610741	0.354658
N33	N	1.366131	0.295246	0.686363
N34	N	1.471698	0.188534	0.024625
C35	C	1.431737	0.228917	0.775000
C36	C	1.406082	0.254873	0.935990
H37	H	1.022400	0.266662	0.488640
H38	H	1.465402	-0.061046	0.103509
H39	H	0.815428	0.217112	0.222311
H40	H	0.806080	0.272697	0.559726
H41	H	1.031735	0.211085	0.151256
Cl42	Cl	1.329019	-0.319112	0.894090
Cl43	Cl	1.501288	-0.493141	-0.184991
H44	H	1.499086	-0.217086	-0.127166
H45	H	1.453341	-0.536931	0.100497
H46	H	1.372417	-0.455171	0.607452
Cl47	Cl	1.250078	0.412584	0.753201
H48	H	1.344727	-0.061172	0.839660
Cl49	Cl	1.547510	0.111279	0.708093
Cl50	Cl	1.385941	0.078802	0.610827
H51	H	1.330912	0.330875	0.979280
H52	H	1.546860	0.112522	0.981332
