data_functionalizedCrystal
_audit_creation_method	'MofGen! by Chris Wilmer'
_symmetry_space_group_name_H-M	'P1'
_symmetry_Int_Tables_number	1
_symmetry_cell_setting	triclinic
loop_
_symmetry_equiv_pos_as_xyz
  x,y,z
_cell_length_a	6.817900
_cell_length_b	11.353959
_cell_length_c	19.453030
_cell_angle_alpha	106.015894
_cell_angle_beta	101.707737
_cell_angle_gamma	107.526623
loop_
_atom_site_label
_atom_site_type_symbol
_atom_site_fract_x
_atom_site_fract_y
_atom_site_fract_z
V1	V	-4.045485	-0.182404	-0.241307
O2	O	-3.993163	0.007364	-0.213929
O3	O	-4.034844	-0.360329	-0.261569
O4	O	-3.987928	-0.180213	-0.336551
O5	O	-4.040404	-0.173999	-0.138427
V6	V	-4.525407	-0.159633	-0.226339
O7	O	-4.314643	-0.232354	-0.274138
O8	O	-4.706447	-0.109683	-0.193508
O9	O	-4.312842	0.018291	-0.206077
O10	O	-4.695127	-0.349401	-0.253717
O11	O	-4.647886	-0.168039	-0.329218
O12	O	-4.359758	-0.161824	-0.131094
C13	C	-3.889327	-0.403684	-0.263416
C14	C	-3.961852	-0.549143	-0.280618
C15	C	-3.957658	-0.595856	-0.224940
C16	C	-4.032616	-0.746195	-0.242717
C17	C	-3.829479	-0.173927	-0.359063
C18	C	-3.863953	-0.173313	-0.437070
C19	C	-3.944828	-0.292918	-0.498403
C20	C	-3.977246	-0.292355	-0.571702
C21	C	-3.928745	-0.172179	-0.583664
C22	C	-3.847869	-0.052559	-0.522319
C23	C	-3.815473	-0.053126	-0.449022
N24	N	-3.817073	-0.077956	-0.677634
N25	N	-3.847848	-0.077426	-0.747265
C26	C	-4.026352	-0.170463	-0.804501
N27	N	-4.172904	-0.264071	-0.789480
N28	N	-4.142120	-0.264605	-0.719844
C29	C	-3.963867	-0.171551	-0.663139
C30	C	-4.142386	-0.289466	-0.945315
C31	C	-4.174815	-0.288899	-1.018615
C32	C	-4.045415	-0.049098	-0.969229
C33	C	-4.013008	-0.049670	-0.895932
C34	C	-4.061488	-0.169857	-0.883980
C35	C	-4.121703	0.061640	-0.204229
C36	C	-4.028416	0.207098	-0.187032
C37	C	-4.181550	-0.168114	-0.108580
C38	C	-4.126313	-0.168722	-0.030571
H39	H	-4.020943	-0.620452	-0.341447
C40	C	-3.872919	-0.491513	-0.513890
C41	C	-3.998467	-0.425090	-0.485333
H42	H	-3.906146	-0.573131	-0.505842
H43	H	-3.723829	-0.438290	-0.488891
H44	H	-3.903670	-0.508184	-0.566308
H45	H	-3.967704	-0.408410	-0.432913
H46	H	-4.147591	-0.478324	-0.510330
H47	H	-3.808386	0.045290	-0.532062
C48	C	-3.690821	0.183961	-0.407571
C49	C	-3.726548	0.078355	-0.381598
H50	H	-3.635905	0.265131	-0.365943
H51	H	-3.823328	0.175006	-0.439982
H52	H	-3.588968	0.183378	-0.434392
H53	H	-3.828413	0.078932	-0.354782
H54	H	-3.594022	0.087313	-0.349175
H55	H	-4.181864	-0.387330	-0.935584
C56	C	-3.889834	-0.566353	-0.103189
C57	C	-3.948656	-0.696657	-0.104907
H58	H	-3.840583	-0.506938	-0.052489
H59	H	-4.011702	-0.556147	-0.130713
H60	H	-3.777293	-0.547600	-0.125190
H61	H	-4.061208	-0.715414	-0.082911
H62	H	-3.826774	-0.706868	-0.077372
C63	C	-4.459070	-0.433572	-1.133813
C64	C	-4.263731	-0.420383	-1.086036
H65	H	-4.513967	-0.514750	-1.175434
H66	H	-4.434828	-0.361929	-1.151426
H67	H	-4.560904	-0.433003	-1.106983
H68	H	-4.161891	-0.420942	-1.112865
H69	H	-4.287963	-0.492044	-1.068424
H70	H	-4.005936	0.048751	-0.978967
C71	C	-4.292026	-0.827372	-0.365407
C72	C	-4.112382	-0.842445	-0.324841
H73	H	-4.341276	-0.886800	-0.416104
H74	H	-4.252102	-0.738979	-0.364235
H75	H	-4.404549	-0.846138	-0.343400
H76	H	-3.999853	-0.823670	-0.346846
H77	H	-4.152299	-0.930859	-0.326018
H78	H	-4.043099	-0.389755	-0.621649
C79	C	-4.065483	0.148366	-0.835411
C80	C	-3.924081	0.081812	-0.828512
H81	H	-4.010575	0.229546	-0.793791
H82	H	-4.203914	0.094822	-0.836338
H83	H	-4.077824	0.165887	-0.880780
H84	H	-3.911752	0.064283	-0.783145
H85	H	-3.785612	0.135368	-0.827577
H86	H	-3.898586	-0.524548	-0.164112
