data_functionalizedCrystal
_audit_creation_method	'MofGen! by Chris Wilmer'
_symmetry_space_group_name_H-M	'P1'
_symmetry_Int_Tables_number	1
_symmetry_cell_setting	triclinic
loop_
_symmetry_equiv_pos_as_xyz
  x,y,z
_cell_length_a	19.077105
_cell_length_b	19.077068
_cell_length_c	19.076919
_cell_angle_alpha	94.470751
_cell_angle_beta	90.076224
_cell_angle_gamma	90.115316
loop_
_atom_site_label
_atom_site_type_symbol
_atom_site_fract_x
_atom_site_fract_y
_atom_site_fract_z
Zn1	Zn	1.044048	-0.340450	-0.453500
Zn2	Zn	1.043962	-0.453600	-0.340340
Zn3	Zn	0.931660	-0.331023	-0.330931
Zn4	Zn	0.921801	-0.453176	-0.453077
O5	O	0.985368	-0.394562	-0.394462
O6	O	1.142196	-0.359583	-0.442604
O7	O	1.033154	-0.433572	-0.240616
O8	O	0.950731	-0.233799	-0.343429
O9	O	1.142133	-0.442714	-0.359466
O10	O	1.033302	-0.240725	-0.433479
O11	O	0.950647	-0.343516	-0.233703
O12	O	0.832193	-0.343104	-0.343019
O13	O	0.933928	-0.441990	-0.551609
O14	O	0.824949	-0.432849	-0.432759
O15	O	1.023742	-0.359171	-0.551919
O16	O	1.023594	-0.552019	-0.359056
O17	O	0.933844	-0.551707	-0.441883
C18	C	0.803119	-0.386908	-0.386822
C19	C	0.725151	-0.383651	-0.383571
C20	C	0.684769	-0.428912	-0.428699
C21	C	0.611510	-0.425842	-0.425647
C22	C	0.578634	-0.377515	-0.377464
C23	C	0.619022	-0.332250	-0.332335
C24	C	0.692280	-0.335317	-0.335390
C25	C	0.359940	-0.363323	-0.363326
C26	C	0.286677	-0.360262	-0.360273
C27	C	0.279170	-0.453853	-0.453586
C28	C	0.352429	-0.456918	-0.456635
C29	C	0.392810	-0.411651	-0.411508
N30	N	0.503752	-0.374378	-0.374342
N31	N	0.467691	-0.414785	-0.414634
C32	C	0.977658	-0.577398	-0.401461
C33	C	0.974423	-0.655619	-0.404482
C34	C	1.019665	-0.692509	-0.362816
C35	C	1.016626	-0.766007	-0.365661
C36	C	0.968342	-0.802612	-0.410169
C37	C	0.923098	-0.765717	-0.451839
C38	C	0.926141	-0.692221	-0.448997
C39	C	0.954231	-1.022406	-0.423292
C40	C	0.951190	-1.095907	-0.426130
C41	C	1.044720	-1.096192	-0.339952
C42	C	1.047755	-1.022695	-0.337111
C43	C	1.002514	-0.985806	-0.378784
N44	N	0.965233	-0.877738	-0.413077
N45	N	1.005627	-0.910681	-0.375880
C46	C	1.168328	-0.402247	-0.402132
C47	C	1.246295	-0.405522	-0.405400
C48	C	0.977745	-0.401585	-0.578012
C49	C	0.974497	-0.404578	-0.656230
C50	C	0.993126	-0.211015	-0.387451
C51	C	0.996432	-0.132798	-0.384464
C52	C	1.019730	-0.362866	-0.693140
C53	C	1.016669	-0.365675	-0.766634
C54	C	0.968378	-0.410200	-0.803216
C55	C	0.923140	-0.451913	-0.766301
C56	C	0.926198	-0.449100	-0.692809
C57	C	0.954216	-0.423233	-1.022998
C58	C	0.951163	-0.426044	-1.096496
C59	C	1.044691	-0.339805	-1.096823
C60	C	1.047748	-0.337000	-1.023329
C61	C	1.002507	-0.378710	-0.986421
N62	N	0.965250	-0.413073	-0.878339
N63	N	1.005632	-0.375832	-0.911299
C64	C	0.993003	-0.387518	-0.211626
C65	C	0.996396	-0.384333	-0.133406
H66	H	0.592249	-0.292898	-0.293106
H67	H	1.059056	-0.326612	-0.663360
O68	O	1.088559	-0.299310	-1.132784
C69	C	1.125327	-0.265447	-1.246150
C70	C	1.075596	-0.311339	-1.205513
H71	H	1.114875	-0.275167	-1.304959
H72	H	1.116004	-0.207621	-1.229066
H73	H	1.181962	-0.279616	-1.234504
H74	H	1.018943	-0.297232	-1.217139
H75	H	1.084981	-0.369153	-1.222602
O76	O	1.088770	-1.131952	-0.299514
C77	C	1.208608	-1.158079	-0.271358
C78	C	1.158795	-1.117532	-0.317187
H79	H	1.265233	-1.146447	-0.285639
H80	H	1.199351	-1.140965	-0.213522
H81	H	1.198110	-1.216892	-0.281017
H82	H	1.169263	-1.058712	-0.307589
H83	H	1.168062	-1.134705	-0.375007
H84	H	0.578633	-0.462699	-0.462394
O85	O	0.399127	-0.319422	-0.319390
C86	C	0.427889	-0.281394	-0.199361
C87	C	0.383478	-0.331168	-0.249041
H88	H	0.415242	-0.290863	-0.142474
H89	H	0.485908	-0.291877	-0.209755
H90	H	0.415358	-0.224553	-0.209080
H91	H	0.395948	-0.388027	-0.239351
H92	H	0.325472	-0.320624	-0.238636
O93	O	0.904186	-0.469312	-1.131923
C94	C	0.811767	-0.554581	-1.123850
C95	C	0.864917	-0.505601	-1.083640
H96	H	0.780014	-0.583945	-1.084832
H97	H	0.774981	-0.522079	-1.155468
H98	H	0.840999	-0.594019	-1.161030
H99	H	0.835744	-0.466155	-1.046424
H100	H	0.901702	-0.538149	-1.052069
H101	H	0.889301	-0.662185	-0.482927
O102	O	0.876134	-0.495084	-0.801796
C103	C	0.754439	-0.525121	-0.820544
C104	C	0.807596	-0.476167	-0.780313
H105	H	0.699015	-0.509854	-0.803179
H106	H	0.759962	-0.519966	-0.879418
H107	H	0.764996	-0.581825	-0.808784
H108	H	0.797072	-0.419443	-0.792014
H109	H	0.802061	-0.481383	-0.721450
H110	H	0.379191	-0.496273	-0.495869
O111	O	0.239838	-0.497747	-0.497395
C112	C	0.123654	-0.534531	-0.534021
C113	C	0.168111	-0.484770	-0.484374
H114	H	0.065654	-0.524067	-0.523501
H115	H	0.136178	-0.525032	-0.590929
H116	H	0.136225	-0.591377	-0.524353
H117	H	0.155565	-0.427906	-0.493979
H118	H	0.155580	-0.494330	-0.427483
H119	H	0.911879	-1.125710	-0.462386
O120	O	0.910369	-0.463789	-0.987087
C121	C	0.900343	-0.555267	-0.907391
C122	C	0.950085	-0.509367	-0.948008
H123	H	0.932434	-0.592138	-0.875797
H124	H	0.866467	-0.520141	-0.870168
H125	H	0.865297	-0.587535	-0.946184
H126	H	0.985175	-0.477092	-0.909267
H127	H	0.983913	-0.544531	-0.985241
O128	O	0.731585	-0.291453	-0.291524
C129	C	0.818599	-0.281666	-0.199585
C130	C	0.774140	-0.331424	-0.249233
H131	H	0.853004	-0.313962	-0.165369
H132	H	0.853155	-0.247607	-0.231943
H133	H	0.782508	-0.246583	-0.164651
H134	H	0.810178	-0.366551	-0.284177
H135	H	0.739577	-0.365435	-0.216832
O136	O	1.060683	-0.325136	-0.802381
C137	C	1.153750	-0.239278	-0.794948
C138	C	1.103955	-0.285165	-0.754378
H139	H	1.188738	-0.206939	-0.756155
H140	H	1.187677	-0.274413	-0.832111
H141	H	1.121659	-0.202472	-0.826616
H142	H	1.135990	-0.321976	-0.722670
H143	H	1.070026	-0.249988	-0.717257
H144	H	0.889357	-0.483058	-0.662757
O145	O	1.066630	-0.657064	-0.319563
C146	C	1.159048	-0.665110	-0.234356
C147	C	1.105903	-0.705337	-0.283321
H148	H	1.190805	-0.704120	-0.205031
H149	H	1.195832	-0.633450	-0.266866
H150	H	1.129812	-0.627969	-0.194885
H151	H	1.135081	-0.742514	-0.322802
H152	H	1.069121	-0.736951	-0.250767
O153	O	1.094693	-0.987063	-0.293975
C154	C	1.193253	-0.907647	-0.285351
C155	C	1.140132	-0.947950	-0.334282
H156	H	1.230014	-0.876026	-0.317921
H157	H	1.164066	-0.870478	-0.245864
H158	H	1.225038	-0.946647	-0.256040
H159	H	1.108332	-0.909002	-0.363640
H160	H	1.169361	-0.985130	-0.373725
O161	O	0.716589	-0.475877	-0.475567
C162	C	0.701402	-0.568406	-0.567775
C163	C	0.665279	-0.515242	-0.514738
H164	H	0.659935	-0.600257	-0.599448
H165	H	0.735513	-0.539035	-0.604868
H166	H	0.735510	-0.605321	-0.538234
H167	H	0.631136	-0.478313	-0.544220
H168	H	0.631211	-0.544659	-0.477647
H169	H	1.053467	-0.796040	-0.331732
O170	O	0.910204	-0.986685	-0.463785
C171	C	0.817126	-0.994166	-0.549573
C172	C	0.866941	-1.034711	-0.503744
H173	H	0.782145	-1.032978	-0.581902
H174	H	0.783193	-0.957049	-0.514396
H175	H	0.849201	-0.962449	-0.586387
H176	H	0.834921	-1.066467	-0.466923
H177	H	0.900876	-1.071785	-0.538963
H178	H	0.883787	-0.795527	-0.488082
H179	H	1.087073	-0.300745	-0.993549
H180	H	0.259912	-0.320900	-0.321040
