data_functionalizedCrystal
_audit_creation_method	'MofGen! by Chris Wilmer'
_symmetry_space_group_name_H-M	'P1'
_symmetry_Int_Tables_number	1
_symmetry_cell_setting	triclinic
loop_
_symmetry_equiv_pos_as_xyz
  x,y,z
_cell_length_a	16.625545
_cell_length_b	16.625548
_cell_length_c	16.625539
_cell_angle_alpha	90.017055
_cell_angle_beta	89.973757
_cell_angle_gamma	89.973374
loop_
_atom_site_label
_atom_site_type_symbol
_atom_site_fract_x
_atom_site_fract_y
_atom_site_fract_z
Zn1	Zn	-0.320992	-1.232635	-0.455910
Zn2	Zn	-0.455831	-1.232539	-0.321078
Zn3	Zn	-0.321018	-1.097805	-0.321091
Zn4	Zn	-0.455789	-1.097760	-0.455868
O5	O	-0.388408	-1.165185	-0.388487
O6	O	-0.338885	-1.345455	-0.438037
O7	O	-0.437976	-1.214645	-0.208247
O8	O	-0.208182	-1.115750	-0.338998
O9	O	-0.437951	-1.345384	-0.338976
O10	O	-0.208163	-1.214809	-0.438049
O11	O	-0.338930	-1.115657	-0.208257
O12	O	-0.338889	-0.984967	-0.338957
O13	O	-0.437879	-1.115673	-0.568706
O14	O	-0.437905	-0.984934	-0.437977
O15	O	-0.338845	-1.214765	-0.568737
O16	O	-0.568658	-1.214602	-0.338935
O17	O	-0.568627	-1.115580	-0.437965
C18	C	-0.388396	-0.955694	-0.388464
C19	C	-0.388410	-0.866073	-0.388474
C20	C	-0.388354	-1.165225	-0.598796
C21	C	-0.388332	-1.165241	-0.688417
C22	C	-0.597898	-1.165097	-0.388461
C23	C	-0.687520	-1.165134	-0.388478
C24	C	-0.760302	-1.165165	-0.388494
C25	C	-0.851610	-1.165212	-0.388511
C26	C	-0.924387	-1.165254	-0.388522
C27	C	-1.015701	-1.165300	-0.388538
C28	C	-0.178099	-1.165295	-0.388530
C29	C	-0.088477	-1.165342	-0.388548
C30	C	-0.388420	-1.375494	-0.388510
C31	C	-0.388425	-1.465115	-0.388520
C32	C	-0.388416	-0.537897	-0.388508
C33	C	-0.388412	-0.629206	-0.388496
C34	C	-0.388414	-0.701982	-0.388490
C35	C	-0.388409	-0.793297	-0.388480
C36	C	-0.388314	-1.165255	-0.761200
C37	C	-0.388284	-1.165273	-0.852508
C38	C	-0.388255	-1.165292	-0.925285
C39	C	-0.388226	-1.165312	-1.016599
C40	C	-0.388402	-1.165192	-0.178996
C41	C	-0.388198	-1.165331	-0.089375
