data_functionalizedCrystal
_audit_creation_method	'MofGen! by Chris Wilmer'
_symmetry_space_group_name_H-M	'P1'
_symmetry_Int_Tables_number	1
_symmetry_cell_setting	triclinic
loop_
_symmetry_equiv_pos_as_xyz
  x,y,z
_cell_length_a	24.447405
_cell_length_b	24.446649
_cell_length_c	24.443239
_cell_angle_alpha	60.006064
_cell_angle_beta	60.011844
_cell_angle_gamma	59.992812
loop_
_atom_site_label
_atom_site_type_symbol
_atom_site_fract_x
_atom_site_fract_y
_atom_site_fract_z
O1	O	0.075907	-0.799232	0.668277
O2	O	0.575907	-0.299232	1.168277
O3	O	0.028634	-0.622262	0.538455
O4	O	0.528634	-0.122262	1.038455
O5	O	0.140702	-0.734230	0.538349
O6	O	0.640702	-0.234230	1.038349
O7	O	-0.036160	-0.687265	0.668384
O8	O	0.463840	-0.187265	1.168384
O9	O	0.177886	-0.697056	0.575424
O10	O	0.677886	-0.197056	1.075424
O11	O	0.065818	-0.585088	0.575530
O12	O	0.565818	-0.085088	1.075530
O13	O	0.113091	-0.762059	0.705353
O14	O	0.613091	-0.262059	1.205353
Cu15	Cu	0.092850	-0.670179	0.643827
Cu16	Cu	0.592850	-0.170179	1.143827
Cu17	Cu	0.048876	-0.714142	0.599981
Cu18	Cu	0.548876	-0.214142	1.099981
O19	O	0.001024	-0.650091	0.705459
O20	O	0.501024	-0.150091	1.205459
N21	N	0.123780	-0.639263	0.674669
N22	N	0.623780	-0.139263	1.174669
N23	N	0.017951	-0.745064	0.569139
N24	N	0.517951	-0.245064	1.069139
C25	C	0.170236	-0.489965	0.721065
C26	C	0.670236	0.010035	1.221065
C27	C	0.170249	-0.592837	0.721058
C28	C	0.670249	-0.092837	1.221058
C29	C	0.195989	-0.567121	0.746758
C30	C	0.695989	-0.067121	1.246758
C31	C	0.308182	-0.547773	0.687664
C32	C	0.808182	-0.047773	1.187664
C33	C	0.378316	-0.571143	0.664253
C34	C	0.878316	-0.071143	1.164253
C35	C	0.378353	-0.684626	0.707525
C36	C	0.878353	-0.184626	1.207525
C37	C	0.308220	-0.661254	0.730938
C38	C	0.808220	-0.161254	1.230938
C39	C	0.187125	-0.454882	0.652117
C40	C	0.687125	0.045118	1.152117
C41	C	0.163710	-0.384741	0.628763
C42	C	0.663710	0.115259	1.128763
C43	C	0.106523	-0.384772	0.743308
C44	C	0.606523	0.115228	1.243308
C45	C	0.129938	-0.454913	0.766662
C46	C	0.629938	0.045087	1.266662
C47	C	0.101291	-0.575906	0.738041
C48	C	0.601291	-0.075906	1.238041
C49	C	0.077897	-0.599283	0.714670
C50	C	0.577897	-0.099283	1.214670
C51	C	0.192412	-0.656523	0.657348
C52	C	0.692412	-0.156523	1.157348
C53	C	0.215809	-0.633146	0.680711
C54	C	0.715809	-0.133146	1.180711
C55	C	0.101393	-0.575928	0.859014
C56	C	0.601393	-0.075928	1.359014
C57	C	0.078071	-0.599328	0.929152
C58	C	0.578071	-0.099328	1.429152
C59	C	0.192636	-0.656582	0.929078
C60	C	0.692636	-0.156582	1.429078
C61	C	0.215955	-0.633184	0.858938
C62	C	0.715955	-0.133184	1.358938
C63	C	0.170332	-0.592855	0.823908
C64	C	0.670332	-0.092855	1.323908
C65	C	0.273137	-0.592827	0.721004
C66	C	0.773137	-0.092827	1.221004
C67	C	-0.131205	-0.791294	0.522327
C68	C	0.368795	-0.291294	1.022327
C69	C	-0.028388	-0.791420	0.522551
C70	C	0.471612	-0.291420	1.022551
C71	C	-0.054056	-0.817099	0.496741
C72	C	0.445944	-0.317099	0.996741
C73	C	-0.073479	-0.929255	0.555734
C74	C	0.426521	-0.429255	1.055734
C75	C	-0.050156	-0.999396	0.579142
C76	C	0.449844	-0.499396	1.079142
C77	C	0.063326	-0.999525	0.536064
C78	C	0.563326	-0.499525	1.036064
C79	C	0.040001	-0.929386	0.512654
C80	C	0.540001	-0.429386	1.012654
C81	C	-0.166365	-0.808188	0.591256
C82	C	0.333635	-0.308188	1.091256
C83	C	-0.236499	-0.784726	0.614512
C84	C	0.263501	-0.284726	1.114512
C85	C	-0.236309	-0.727482	0.499907
C86	C	0.263691	-0.227482	0.999907
C87	C	-0.166175	-0.750944	0.476651
C88	C	0.333825	-0.250944	0.976651
C89	C	-0.045285	-0.722468	0.505590
C90	C	0.454715	-0.222468	1.005590
C91	C	-0.021951	-0.699130	0.529061
C92	C	0.478049	-0.199130	1.029061
C93	C	0.035176	-0.813691	0.586439
C94	C	0.535176	-0.313691	1.086439
C95	C	0.011842	-0.837031	0.562976
C96	C	0.511842	-0.337031	1.062976
C97	C	-0.045097	-0.722476	0.384488
C98	C	0.454903	-0.222476	0.884488
C99	C	-0.021613	-0.699140	0.314350
C100	C	0.478387	-0.199140	0.814350
C101	C	0.035607	-0.813706	0.314419
C102	C	0.535607	-0.313706	0.814419
C103	C	0.012124	-0.837041	0.384558
C104	C	0.512124	-0.337041	0.884558
C105	C	-0.028229	-0.791425	0.419591
C106	C	0.471771	-0.291425	0.919591
C107	C	-0.028402	-0.894253	0.522492
C108	C	0.471598	-0.394253	1.022492
N109	N	0.412405	-0.639229	0.674505
N110	N	0.912405	-0.139229	1.174505
O111	O	0.626552	-0.645384	0.514503
O112	O	1.126552	-0.145384	1.014503
O113	O	0.626802	-0.775625	0.691288
O114	O	1.126802	-0.275625	1.191288
O115	O	0.626698	-0.775326	0.579168
O116	O	1.126698	-0.275326	1.079168
O117	O	0.626656	-0.645683	0.626623
O118	O	1.126656	-0.145683	1.126623
O119	O	0.515277	-0.738265	0.616407
O120	O	1.015277	-0.238265	1.116407
O121	O	0.515382	-0.738564	0.728527
O122	O	1.015382	-0.238564	1.228527
O123	O	0.515131	-0.608323	0.551742
O124	O	1.015131	-0.108323	1.051742
Cu125	Cu	0.505083	-0.670059	0.643535
Cu126	Cu	1.005083	-0.170059	1.143535
Cu127	Cu	0.636850	-0.713889	0.599495
Cu128	Cu	1.136850	-0.213889	1.099495
O129	O	0.515236	-0.608622	0.663862
O130	O	1.015236	-0.108622	1.163862
N131	N	0.729529	-0.744719	0.568518
N132	N	1.229529	-0.244719	1.068518
N133	N	0.123755	-0.350686	0.674680
N134	N	0.623755	0.149314	1.174680
O135	O	-0.036153	-0.136410	0.668391
O136	O	0.463847	0.363590	1.168391
O137	O	0.140633	-0.136380	0.538141
O138	O	0.640633	0.363620	1.038141
O139	O	0.028472	-0.136412	0.538488
O140	O	0.528472	0.363588	1.038488
O141	O	0.076007	-0.136377	0.668044
O142	O	0.576007	0.363623	1.168044
O143	O	0.065663	-0.247842	0.575621
O144	O	0.565663	0.252158	1.075621
O145	O	0.177823	-0.247810	0.575274
O146	O	0.677823	0.252190	1.075274
O147	O	0.001037	-0.247840	0.705524
O148	O	0.501037	0.252160	1.205524
Cu149	Cu	0.092826	-0.258000	0.643789
Cu150	Cu	0.592826	0.242000	1.143789
Cu151	Cu	0.048844	-0.126220	0.599875
Cu152	Cu	0.548844	0.373780	1.099875
O153	O	0.113198	-0.247808	0.705177
O154	O	0.613198	0.252192	1.205177
N155	N	0.017907	-0.033534	0.568986
N156	N	0.517907	0.466466	1.068986
N157	N	0.124013	-0.639306	0.963182
N158	N	0.624013	-0.139306	1.463182
O159	O	0.117754	-0.799195	1.177439
O160	O	0.617754	-0.299195	1.677439
O161	O	-0.012458	-0.622342	1.177485
O162	O	0.487542	-0.122342	1.677485
O163	O	-0.012155	-0.734480	1.177444
O164	O	0.487845	-0.234480	1.677444
O165	O	0.117450	-0.687057	1.177480
O166	O	0.617450	-0.187057	1.677480
O167	O	0.024954	-0.697317	1.066020
O168	O	0.524954	-0.197317	1.566020
O169	O	0.024650	-0.585179	1.066061
O170	O	0.524650	-0.085179	1.566061
O171	O	0.154862	-0.762032	1.066014
O172	O	0.654862	-0.262032	1.566014
Cu173	Cu	0.093145	-0.670212	1.055863
Cu174	Cu	0.593145	-0.170212	1.555863
Cu175	Cu	0.049259	-0.714162	1.187636
Cu176	Cu	0.549259	-0.214162	1.687636
O177	O	0.154559	-0.649894	1.066055
O178	O	0.654559	-0.149894	1.566055
N179	N	0.018389	-0.745075	1.280318
N180	N	0.518389	-0.245075	1.780318
C181	C	0.042795	-0.581375	0.539107
C182	C	0.542795	-0.081375	1.039107
C183	C	0.181576	-0.720034	0.538975
C184	C	0.681576	-0.220034	1.038975
C185	C	0.098930	-0.802946	0.704700
C186	C	0.598930	-0.302946	1.204700
C187	C	-0.039851	-0.664287	0.704832
C188	C	0.460149	-0.164287	1.204832
C189	C	0.571122	-0.775030	0.732180
C190	C	1.071122	-0.275030	1.232180
C191	C	0.570995	-0.774660	0.593332
C192	C	1.070995	-0.274660	1.093332
C193	C	0.570808	-0.608917	0.510851
C194	C	1.070808	-0.108917	1.010851
C195	C	0.570939	-0.609288	0.649698
C196	C	1.070939	-0.109288	1.149698
C197	C	0.181453	-0.191954	0.538725
C198	C	0.681453	0.308046	1.038725
C199	C	0.042602	-0.192131	0.539201
C200	C	0.542602	0.307869	1.039201
C201	C	-0.039829	-0.192128	0.704893
C202	C	0.460171	0.307872	1.204893
C203	C	0.099069	-0.192090	0.704464
C204	C	0.599069	0.307910	1.204464
C205	C	-0.011836	-0.581480	1.121779
C206	C	0.488164	-0.081480	1.621779
C207	C	-0.011453	-0.720342	1.121706
C208	C	0.488547	-0.220342	1.621706
C209	C	0.154240	-0.802894	1.121720
C210	C	0.654240	-0.302894	1.621720
C211	C	0.153865	-0.664024	1.121769
C212	C	0.653865	-0.164024	1.621769
H213	H	0.064236	-0.543084	0.830495
H214	H	0.564236	-0.043084	1.330495
H215	H	0.109248	-0.192079	0.745165
H216	H	0.609248	0.307921	1.245165
O217	O	0.202426	-0.651995	1.121889
O218	O	0.702426	-0.151995	1.621889
C219	C	0.220491	-0.697940	1.179579
C220	C	0.720491	-0.197940	1.679579
H221	H	0.177582	-0.717579	1.219913
H222	H	0.677582	-0.217579	1.719913
H223	H	0.231353	-0.671835	1.198957
H224	H	0.731353	-0.171835	1.698957
H225	H	0.267144	-0.741557	1.166517
H226	H	0.767144	-0.241557	1.666517
O227	O	0.241954	-0.191663	0.489903
O228	O	0.741954	0.308337	0.989903
C229	C	0.292718	-0.249246	0.512524
C230	C	0.792718	0.250754	1.012524
H231	H	0.274485	-0.268704	0.569629
H232	H	0.774485	0.231296	1.069629
H233	H	0.339309	-0.236001	0.492888
H234	H	0.839309	0.263999	0.992888
H235	H	0.305410	-0.289594	0.493347
H236	H	0.805410	0.210406	0.993347
O237	O	-0.100349	-0.192165	0.753761
O238	O	0.399651	0.307835	1.253761
C239	C	-0.100301	-0.192137	0.811405
C240	C	0.399699	0.307863	1.311405
H241	H	-0.046549	-0.213221	0.810591
H242	H	0.453451	0.286779	1.310591
H243	H	-0.130061	-0.224492	0.858048
H244	H	0.369939	0.275508	1.358048
H245	H	-0.124254	-0.138676	0.812189
H246	H	0.375746	0.361324	1.312189
O247	O	0.571012	-0.560783	0.661857
O248	O	1.071012	-0.060783	1.161857
C249	C	0.628764	-0.583825	0.677556
C250	C	1.128764	-0.083825	1.177556
H251	H	0.648058	-0.640937	0.696767
H252	H	1.148058	-0.140937	1.196767
H253	H	0.615813	-0.564473	0.717872
H254	H	1.115813	-0.064473	1.217872
H255	H	0.669119	-0.564697	0.630723
H256	H	1.169119	-0.064697	1.130723
O257	O	0.011077	-0.582786	0.963143
O258	O	0.511077	-0.082786	1.463143
C259	C	-0.024185	-0.542187	0.917180
C260	C	0.475815	-0.042187	1.417180
H261	H	0.009235	-0.516682	0.867175
H262	H	0.509235	-0.016682	1.367175
H263	H	-0.070983	-0.502507	0.937469
H264	H	0.429017	-0.002507	1.437469
H265	H	-0.039320	-0.574540	0.909731
H266	H	0.460680	-0.074540	1.409731
H267	H	0.032695	-0.530537	0.498334
H268	H	0.532695	-0.030537	0.998334
H269	H	0.177459	-0.356175	0.572617
H270	H	0.677459	0.143825	1.072617
O271	O	0.074812	-0.858110	0.280497
O272	O	0.574812	-0.358110	0.780497
C273	C	0.084644	-0.923969	0.326524
C274	C	0.584644	-0.423969	0.826524
H275	H	0.076736	-0.923830	0.376546
H276	H	0.576736	-0.423830	0.876546
H277	H	0.137834	-0.957327	0.306344
H278	H	0.637834	-0.457327	0.806344
H279	H	0.047313	-0.944006	0.333901
H280	H	0.547313	-0.444006	0.833901
H281	H	0.229790	-0.689406	0.957592
H282	H	0.729790	-0.189406	1.457592
H283	H	0.032420	-0.192135	0.498498
H284	H	0.532420	0.307865	0.998498
O285	O	0.570805	-0.560110	0.450281
O286	O	1.070805	-0.060110	0.950281
C287	C	0.628484	-0.542084	0.420581
C288	C	1.128484	-0.042084	0.920581
H289	H	0.647774	-0.555654	0.461181
H290	H	1.147774	-0.055654	0.961181
H291	H	0.615438	-0.485841	0.392552
H292	H	1.115438	0.014159	0.892552
H293	H	0.668878	-0.570181	0.383993
H294	H	1.168878	-0.070181	0.883993
H295	H	0.232372	-0.730046	0.498140
H296	H	0.732372	-0.230046	0.998140
H297	H	0.219934	-0.483420	0.614988
H298	H	0.719934	0.016580	1.114988
H299	H	-0.052716	-0.530687	1.121793
H300	H	0.447284	-0.030687	1.621793
O301	O	0.110864	-0.863596	0.753369
O302	O	0.610864	-0.363596	1.253369
C303	C	0.064910	-0.893363	0.771406
C304	C	0.564910	-0.393363	1.271406
H305	H	0.018506	-0.852787	0.757990
H306	H	0.518506	-0.352787	1.257990
H307	H	0.049887	-0.921528	0.827622
H308	H	0.549887	-0.421528	1.327622
H309	H	0.089176	-0.929844	0.743192
H310	H	0.589176	-0.429844	1.243192
O311	O	0.282949	-0.649669	0.824942
O312	O	0.782949	-0.149669	1.324942
C313	C	0.318213	-0.690291	0.870903
C314	C	0.818213	-0.190291	1.370903
H315	H	0.284794	-0.681350	0.920910
H316	H	0.784794	-0.181350	1.420910
H317	H	0.365011	-0.677139	0.850615
H318	H	0.865011	-0.177139	1.350615
H319	H	0.333348	-0.745229	0.878350
H320	H	0.833348	-0.245229	1.378350
O321	O	-0.100477	-0.652230	0.753486
O322	O	0.399523	-0.152230	1.253486
C323	C	-0.142123	-0.586404	0.729268
C324	C	0.357877	-0.086404	1.229268
H325	H	-0.109868	-0.554585	0.686237
H326	H	0.390132	-0.054585	1.186237
H327	H	-0.174211	-0.563972	0.771314
H328	H	0.325789	-0.063972	1.271314
H329	H	-0.175965	-0.587424	0.710672
H330	H	0.324035	-0.087424	1.210672
O331	O	-0.059925	-0.732521	1.121607
O332	O	0.440075	-0.232521	1.621607
C333	C	-0.035519	-0.798380	1.121585
C334	C	0.464481	-0.298380	1.621585
H335	H	0.021546	-0.816024	1.100523
H336	H	0.521546	-0.316024	1.600523
H337	H	-0.055891	-0.799322	1.089187
H338	H	0.444109	-0.299322	1.589187
H339	H	-0.052478	-0.833050	1.175024
H340	H	0.447522	-0.333050	1.675024
O341	O	0.202931	-0.863533	1.121731
O342	O	0.702931	-0.363533	1.621731
C343	C	0.178824	-0.905216	1.121692
C344	C	0.678824	-0.405216	1.621692
H345	H	0.121758	-0.887069	1.142792
H346	H	0.621758	-0.387069	1.642792
H347	H	0.199379	-0.958892	1.154026
H348	H	0.699379	-0.458892	1.654026
H349	H	0.195840	-0.903392	1.068228
H350	H	0.695840	-0.403392	1.568228
H351	H	0.064189	-0.543085	0.770891
H352	H	0.564189	-0.043085	1.270891
H353	H	0.073721	-0.356231	0.780438
H354	H	0.573721	0.143769	1.280438
H355	H	0.229515	-0.689349	0.624505
H356	H	0.729515	-0.189349	1.124505
O357	O	0.010890	-0.582806	0.731255
O358	O	0.510890	-0.082806	1.231255
C359	C	-0.024308	-0.542207	0.771867
C360	C	0.475692	-0.042207	1.271867
H361	H	0.009173	-0.551155	0.797337
H362	H	0.509173	-0.051155	1.297337
H363	H	-0.071083	-0.555375	0.811571
H364	H	0.428917	-0.055375	1.311571
H365	H	-0.039476	-0.487263	0.739535
H366	H	0.460524	0.012737	1.239535
O367	O	0.571179	-0.823877	0.792721
O368	O	1.071179	-0.323877	1.292721
C369	C	0.571236	-0.881563	0.792688
C370	C	1.071236	-0.381563	1.292688
H371	H	0.550093	-0.866718	0.753040
H372	H	1.050093	-0.366718	1.253040
H373	H	0.538950	-0.906667	0.844058
H374	H	1.038950	-0.406667	1.344058
H375	H	0.624708	-0.917950	0.780940
H376	H	1.124708	-0.417950	1.280940
O377	O	0.282816	-0.649658	0.664162
O378	O	0.782816	-0.149658	1.164162
C379	C	0.318014	-0.690224	0.623516
C380	C	0.818014	-0.190224	1.123516
H381	H	0.284580	-0.715749	0.632494
H382	H	0.784580	-0.215749	1.132494
H383	H	0.364861	-0.729887	0.636605
H384	H	0.864861	-0.229887	1.136605
H385	H	0.333063	-0.657840	0.568584
H386	H	0.833063	-0.157840	1.068584
H387	H	0.279688	-0.697946	0.758086
H388	H	0.779688	-0.197946	1.258086
H389	H	0.406920	-0.740344	0.715602
H390	H	0.906920	-0.240344	1.215602
H391	H	0.406848	-0.534453	0.637104
H392	H	0.906848	-0.034453	1.137104
O393	O	0.570895	-0.823188	0.581230
O394	O	1.070895	-0.323188	1.081230
C395	C	0.513162	-0.800136	0.565496
C396	C	1.013162	-0.300136	1.065496
H397	H	0.472820	-0.758554	0.587151
H398	H	0.972820	-0.258554	1.087151
H399	H	0.493838	-0.843306	0.587853
H400	H	0.993838	-0.343306	1.087853
H401	H	0.526145	-0.779909	0.508763
H402	H	1.026145	-0.279909	1.008763
O403	O	0.274208	-0.481285	0.677985
O404	O	0.774208	0.018715	1.177985
C405	C	0.320184	-0.446531	0.643520
C406	C	0.820184	0.053469	1.143520
H407	H	0.370198	-0.482528	0.651586
H408	H	0.870198	0.017472	1.151586
H409	H	0.299931	-0.404234	0.663382
H410	H	0.799931	0.095766	1.163382
H411	H	0.327601	-0.424729	0.587724
H412	H	0.827601	0.075271	1.087724
H413	H	0.116177	-0.483478	0.822809
H414	H	0.616177	0.016522	1.322809
H415	H	-0.035357	-0.642993	0.285778
H416	H	0.464643	-0.142993	0.785778
H417	H	-0.077958	-0.685325	0.413008
H418	H	0.422042	-0.185325	0.913008
H419	H	0.025866	-0.893188	0.413136
H420	H	0.525866	-0.393188	0.913136
O421	O	-0.084463	-0.678132	0.466428
O422	O	0.415537	-0.178132	0.966428
C423	C	-0.143297	-0.637517	0.501767
C424	C	0.356703	-0.137517	1.001767
H425	H	-0.153134	-0.664581	0.557894
H426	H	0.346866	-0.164581	1.057894
H427	H	-0.187435	-0.626860	0.489118
H428	H	0.312565	-0.126860	0.989118
H429	H	-0.136899	-0.588267	0.486867
H430	H	0.363101	-0.088267	0.986867
O431	O	-0.038265	-0.632146	0.512467
O432	O	0.461735	-0.132146	1.012467
C433	C	-0.014174	-0.603073	0.442220
C434	C	0.485826	-0.103073	0.942220
H435	H	0.029079	-0.643059	0.419676
H436	H	0.529079	-0.143059	0.919676
H437	H	0.004071	-0.561776	0.428841
H438	H	0.504071	-0.061776	0.928841
H439	H	-0.056191	-0.580873	0.421340
H440	H	0.443809	-0.080873	0.921340
H441	H	0.025599	-0.893178	0.576787
H442	H	0.525599	-0.393178	1.076787
O443	O	0.074326	-0.858064	0.625624
O444	O	0.574326	-0.358064	1.125624
C445	C	0.133176	-0.898660	0.590276
C446	C	0.633176	-0.398660	1.090276
H447	H	0.123836	-0.899335	0.549390
H448	H	0.623836	-0.399335	1.049390
H449	H	0.147901	-0.951849	0.626299
H450	H	0.647901	-0.451849	1.126299
H451	H	0.175379	-0.877625	0.566557
H452	H	0.675379	-0.377625	1.066557
O453	O	0.083867	-0.895457	0.480295
O454	O	0.583867	-0.395457	0.980295
C455	C	0.131530	-0.912634	0.422501
C456	C	0.631530	-0.412634	0.922501
H457	H	0.134817	-0.963546	0.428819
H458	H	0.634817	-0.463546	0.928819
H459	H	0.182558	-0.915091	0.414934
H460	H	0.682558	-0.415091	0.914934
H461	H	0.115757	-0.873157	0.377017
H462	H	0.615757	-0.373157	0.877017
O463	O	0.129770	-1.033733	0.526475
O464	O	0.629770	-0.533733	1.026475
C465	C	0.154112	-1.074306	0.488311
C466	C	0.654112	-0.574306	0.988311
H467	H	0.110825	-1.084756	0.493713
H468	H	0.610825	-0.584756	0.993713
H469	H	0.192849	-1.123656	0.506994
H470	H	0.692849	-0.623656	1.006994
H471	H	0.178345	-1.047315	0.433366
H472	H	0.678345	-0.547315	0.933366
H473	H	-0.129177	-0.900656	0.563750
H474	H	0.370823	-0.400656	1.063750
O475	O	-0.094033	-1.033292	0.611402
O476	O	0.405967	-0.533292	1.111402
C477	C	-0.126847	-1.016148	0.568438
C478	C	0.373153	-0.516148	1.068438
H479	H	-0.125132	-0.965272	0.528463
H480	H	0.374868	-0.465272	1.028463
H481	H	-0.181238	-1.013631	0.598718
H482	H	0.318762	-0.513631	1.098718
H483	H	-0.100708	-1.055677	0.543393
H484	H	0.399292	-0.555677	1.043393
O485	O	-0.132497	-0.847351	0.635713
O486	O	0.367503	-0.347351	1.135713
C487	C	-0.178572	-0.857238	0.701541
C488	C	0.321428	-0.357238	1.201541
H489	H	-0.228534	-0.814906	0.701329
H490	H	0.271466	-0.314906	1.201329
H491	H	-0.158368	-0.857629	0.734910
H492	H	0.341632	-0.357629	1.234910
H493	H	-0.186071	-0.907174	0.721613
H494	H	0.313929	-0.407174	1.221613
O495	O	-0.270734	-0.801162	0.681458
O496	O	0.229266	-0.301162	1.181458
C497	C	-0.311301	-0.836420	0.698309
C498	C	0.188699	-0.336420	1.198309
H499	H	-0.321722	-0.823759	0.652028
H500	H	0.178278	-0.323759	1.152028
H501	H	-0.360661	-0.821444	0.738919
H502	H	0.139339	-0.321444	1.238919
H503	H	-0.284326	-0.892568	0.717606
H504	H	0.215674	-0.392568	1.217606
H505	H	-0.137547	-0.737181	0.420520
H506	H	0.362453	-0.237181	0.920520
O507	O	-0.270179	-0.688277	0.455450
O508	O	0.229821	-0.188277	0.955450
C509	C	-0.224107	-0.678423	0.389621
C510	C	0.275893	-0.178423	0.889621
H511	H	-0.174135	-0.686316	0.389844
H512	H	0.325865	-0.186316	0.889844
H513	H	-0.244299	-0.625227	0.356272
H514	H	0.255701	-0.125227	0.856272
H515	H	-0.216632	-0.715756	0.369516
H516	H	0.283368	-0.215756	0.869516
