data_functionalizedCrystal
_audit_creation_method	'MofGen! by Chris Wilmer'
_symmetry_space_group_name_H-M	'P1'
_symmetry_Int_Tables_number	1
_symmetry_cell_setting	triclinic
loop_
_symmetry_equiv_pos_as_xyz
  x,y,z
_cell_length_a	13.339070
_cell_length_b	16.109301
_cell_length_c	14.586319
_cell_angle_alpha	90.000787
_cell_angle_beta	89.998714
_cell_angle_gamma	80.454612
loop_
_atom_site_label
_atom_site_type_symbol
_atom_site_fract_x
_atom_site_fract_y
_atom_site_fract_z
O1	O	0.130021	-1.133153	-0.076178
O2	O	0.630021	-0.633153	0.423822
O3	O	0.146201	-0.894827	-0.076192
O4	O	0.646201	-0.394827	0.423808
O5	O	-0.009144	-0.986638	-0.076184
O6	O	0.490856	-0.486638	0.423816
O7	O	0.285365	-1.041342	-0.076186
O8	O	0.785365	-0.541342	0.423814
O9	O	-0.009146	-0.986629	0.076297
O10	O	0.490854	-0.486629	0.576297
O11	O	0.146199	-0.894818	0.076289
O12	O	0.646199	-0.394818	0.576289
O13	O	0.130018	-1.133144	0.076303
O14	O	0.630018	-0.633144	0.576303
Cu15	Cu	0.138108	-1.013980	0.090219
Cu16	Cu	0.638108	-0.513980	0.590219
Cu17	Cu	0.138111	-1.013991	-0.090107
Cu18	Cu	0.638111	-0.513991	0.409893
O19	O	0.285363	-1.041333	0.076295
O20	O	0.785363	-0.541333	0.576295
C21	C	0.145545	-0.863697	0.000047
C22	C	0.645545	-0.363697	0.500047
C23	C	0.143580	-0.770947	0.000041
C24	C	0.643580	-0.270947	0.500041
C25	C	-0.046831	-0.977393	0.000055
C26	C	0.453169	-0.477393	0.500055
C27	C	-0.159124	-0.949849	0.000050
C28	C	0.340876	-0.449849	0.500050
C29	C	0.130675	-1.164275	0.000063
C30	C	0.630675	-0.664275	0.500063
C31	C	0.132640	-1.257024	0.000062
C32	C	0.632640	-0.757024	0.500062
C33	C	-0.523987	-1.164017	0.000063
C34	C	-0.023987	-0.664017	0.500063
C35	C	-0.418483	-1.189898	0.000073
C36	C	0.081517	-0.689898	0.500073
C37	C	-0.353638	-1.129888	0.000067
C38	C	0.146362	-0.629888	0.500067
C39	C	-0.394307	-1.043992	0.000051
C40	C	0.105693	-0.543992	0.500051
C41	C	-0.499822	-1.018108	0.000048
C42	C	0.000178	-0.518108	0.500048
C43	C	-0.329473	-0.983979	0.000052
C44	C	0.170527	-0.483979	0.500052
C45	C	-0.370142	-0.898083	0.000037
C46	C	0.129858	-0.398083	0.500037
C47	C	-0.475647	-0.872203	0.000033
C48	C	0.024353	-0.372203	0.500033
C49	C	-0.540492	-0.932213	0.000039
C50	C	-0.040492	-0.432213	0.500039
C51	C	-0.223958	-1.009863	0.000055
C52	C	0.276042	-0.509863	0.500055
C53	C	-0.199793	-0.863954	0.000041
C54	C	0.300207	-0.363954	0.500041
C55	C	-0.305297	-0.838073	0.000030
C56	C	0.194703	-0.338073	0.500030
C57	C	0.323050	-1.050578	0.000054
C58	C	0.823050	-0.550578	0.500054
C59	C	0.435343	-1.078122	0.000054
C60	C	0.935343	-0.578122	0.500054
N61	N	0.138106	-1.013978	0.217051
N62	N	0.638106	-0.513978	0.717051
C63	C	0.231189	-0.568905	0.000051
C64	C	0.731189	-0.068905	0.500051
C65	C	0.229335	-0.481756	0.000057
C66	C	0.729335	0.018244	0.500057
C67	C	0.045023	-0.459072	0.000055
C68	C	0.545023	0.040928	0.500055
C69	C	0.046879	-0.546219	0.000055
C70	C	0.546879	-0.046219	0.500055
C71	C	0.139965	-0.601133	0.000049
C72	C	0.639965	-0.101133	0.500049
C73	C	0.136255	-0.426838	0.000054
C74	C	0.636255	0.073162	0.500054
C75	C	0.134244	-0.332347	0.000061
C76	C	0.634244	0.167653	0.500061
C77	C	0.141976	-0.695630	0.000044
C78	C	0.641976	-0.195630	0.500044
N79	N	0.138106	-1.013998	-0.216939
N80	N	0.638106	-0.513998	0.283061
C81	C	0.069342	-1.054656	0.452061
C82	C	0.569342	-0.554656	0.952061
C83	C	0.069340	-1.054658	0.548042
C84	C	0.569340	-0.554658	1.048042
C85	C	0.206873	-0.973315	0.548044
C86	C	0.706873	-0.473315	1.048044
C87	C	0.206870	-0.973308	0.452065
C88	C	0.706870	-0.473308	0.952065
C89	C	0.138105	-1.013984	0.404075
C90	C	0.638105	-0.513984	0.904075
C91	C	0.138106	-1.013992	0.596036
C92	C	0.638106	-0.513992	1.096036
C93	C	0.138104	-1.013994	0.700103
C94	C	0.638104	-0.513994	1.200103
C95	C	0.138106	-1.013981	0.300002
C96	C	0.638106	-0.513981	0.800002
H97	H	-0.190856	-1.079800	0.000068
H98	H	0.309144	-0.579800	0.500068
H99	H	-0.027412	-0.572459	0.000056
H100	H	0.472588	-0.072459	0.500056
F101	F	-0.130785	-0.800082	0.000040
F102	F	0.369215	-0.300082	0.500040
F103	F	0.280056	-0.930013	0.400991
F104	F	0.780056	-0.430013	0.900991
H105	H	0.303619	-0.455520	0.000061
H106	H	0.803619	0.044480	0.500061
H107	H	-0.267732	-1.150966	0.000075
H108	H	0.232268	-0.650966	0.500075
F109	F	-0.375207	-1.281311	0.000075
F110	F	0.124793	-0.781311	0.500075
H111	H	-0.030764	-0.414350	0.000066
H112	H	0.469236	0.085650	0.500066
F113	F	-0.348594	-0.746657	0.000012
F114	F	0.151406	-0.246657	0.500012
F115	F	-0.003849	-1.097944	0.599108
F116	F	0.496151	-0.597944	1.099108
F117	F	-0.593004	-1.227873	0.000084
F118	F	-0.093004	-0.727873	0.500084
F119	F	-0.652784	-0.904672	-0.000058
F120	F	-0.152784	-0.404672	0.499942
F121	F	0.330259	-0.627346	0.000048
F122	F	0.830259	-0.127346	0.500048
H123	H	0.013349	-1.087775	0.412990
H124	H	0.513349	-0.587775	0.912990
F125	F	0.280055	-0.930029	0.599124
F126	F	0.780055	-0.430029	1.099124
H127	H	-0.508756	-0.802261	0.000027
H128	H	-0.008756	-0.302261	0.500027
