data_functionalizedCrystal
_audit_creation_method	'MofGen! by Chris Wilmer'
_symmetry_space_group_name_H-M	'P1'
_symmetry_Int_Tables_number	1
_symmetry_cell_setting	triclinic
loop_
_symmetry_equiv_pos_as_xyz
  x,y,z
_cell_length_a	21.295418
_cell_length_b	12.759400
_cell_length_c	21.295412
_cell_angle_alpha	90.023580
_cell_angle_beta	89.964379
_cell_angle_gamma	89.969501
loop_
_atom_site_label
_atom_site_type_symbol
_atom_site_fract_x
_atom_site_fract_y
_atom_site_fract_z
Zn1	Zn	0.962375	0.417844	-0.356267
Zn2	Zn	1.462375	0.917844	0.143733
Zn3	Zn	0.962321	0.593538	-0.251006
Zn4	Zn	1.462321	1.093538	0.248994
Zn5	Zn	0.857113	0.417922	-0.250977
Zn6	Zn	1.357113	0.917922	0.249023
Zn7	Zn	0.857096	0.593530	-0.356203
Zn8	Zn	1.357096	1.093530	0.143797
O9	O	0.909726	0.505708	-0.303613
O10	O	1.409726	1.005708	0.196387
O11	O	1.050457	0.441120	-0.342343
O12	O	1.550457	0.941120	0.157657
O13	O	0.948349	0.570278	-0.162913
O14	O	1.448349	1.070278	0.337087
O15	O	0.871105	0.270891	-0.264958
O16	O	1.371105	0.770891	0.235042
O17	O	1.050417	0.570202	-0.265009
O18	O	1.550417	1.070202	0.234991
O19	O	0.948441	0.270833	-0.342314
O20	O	1.448441	0.770833	0.157686
O21	O	0.871053	0.441254	-0.162891
O22	O	1.371053	0.941254	0.337109
O23	O	0.769021	0.441246	-0.264896
O24	O	1.269021	0.941246	0.235104
O25	O	0.871077	0.570188	-0.444301
O26	O	1.371077	1.070188	0.055699
O27	O	0.769009	0.570264	-0.342205
O28	O	1.269009	1.070264	0.157795
O29	O	0.948425	0.441112	-0.444348
O30	O	1.448425	0.941112	0.055652
O31	O	0.948333	0.740558	-0.264946
O32	O	1.448333	1.240558	0.235054
O33	O	0.871025	0.740552	-0.342234
O34	O	1.371025	1.240552	0.157766
C35	C	0.746174	0.505764	-0.303541
C36	C	1.246174	1.005764	0.196459
C37	C	0.676206	0.505812	-0.303525
C38	C	1.176206	1.005812	0.196475
C39	C	0.909689	0.778676	-0.303600
C40	C	1.409689	1.278676	0.196400
C41	C	0.909730	0.895452	-0.303615
C42	C	1.409730	1.395452	0.196385
C43	C	0.909755	0.505640	-0.467803
C44	C	1.409755	1.005640	0.032197
C45	C	0.909767	0.505612	-0.537772
C46	C	1.409767	1.005612	-0.037772
C47	C	0.643350	0.573081	-0.343719
C48	C	1.143350	1.073081	0.156281
C49	C	0.577607	0.573055	-0.343748
C50	C	1.077607	1.073055	0.156252
C51	C	0.544724	0.505772	-0.303570
C52	C	1.044724	1.005772	0.196430
C53	C	0.577588	0.438490	-0.263372
C54	C	1.077588	0.938490	0.236628
C55	C	0.643329	0.438510	-0.263350
C56	C	1.143329	0.938510	0.236650
N57	N	0.441454	0.497564	-0.248512
N58	N	0.941454	0.997564	0.251488
N59	N	0.379003	0.497551	-0.248535
N60	N	0.879003	0.997551	0.251465
C61	C	0.346649	0.505705	-0.303637
C62	C	0.846649	1.005705	0.196363
N63	N	0.379106	0.513893	-0.358715
N64	N	0.879106	1.013893	0.141285
N65	N	0.441563	0.513912	-0.358691
N66	N	0.941563	1.013912	0.141309
C67	C	0.473438	0.505742	-0.303590
C68	C	0.973438	1.005742	0.196410
C69	C	0.242507	0.572949	-0.343865
C70	C	0.742507	1.072949	0.156135
C71	C	0.176763	0.572916	-0.343895
C72	C	0.676763	1.072916	0.156105
C73	C	0.176746	0.438356	-0.263514
C74	C	0.676746	0.938356	0.236486
C75	C	0.242488	0.438384	-0.263490
C76	C	0.742488	0.938384	0.236510
C77	C	0.275365	0.505686	-0.303665
C78	C	0.775365	1.005686	0.196335
C79	C	1.073916	0.505654	-0.303686
C80	C	1.573916	1.005654	0.196314
C81	C	1.143884	0.505630	-0.303717
C82	C	1.643884	1.005630	0.196283
C83	C	0.909781	0.231675	-0.303640
C84	C	1.409781	0.731675	0.196360
C85	C	0.909804	0.114898	-0.303652
C86	C	1.409804	0.614898	0.196348
C87	C	0.950029	0.950283	-0.263416
C88	C	1.450029	1.450283	0.236584
C89	C	0.950068	1.060007	-0.263436
C90	C	1.450068	1.560007	0.236564
C91	C	0.869503	1.060060	-0.343855
C92	C	1.369503	1.560060	0.156145
C93	C	0.869468	0.950338	-0.343838
C94	C	1.369468	1.450338	0.156162
C95	C	0.990291	0.895397	-0.223193
C96	C	1.490291	1.395397	0.276807
C97	C	1.030593	0.950227	-0.182991
C98	C	1.530593	1.450227	0.317009
C99	C	1.030632	1.059951	-0.183010
C100	C	1.530632	1.559951	0.316990
C101	C	0.990369	1.114845	-0.223232
C102	C	1.490369	1.614845	0.276768
C103	C	0.950102	0.438235	-1.037255
C104	C	1.450102	0.938235	-0.537255
C105	C	0.950097	0.438261	-0.971513
C106	C	1.450097	0.938261	-0.471513
C107	C	0.909822	0.505473	-0.938611
C108	C	1.409822	1.005473	-0.438611
C109	C	0.869560	0.572683	-0.971458
C110	C	1.369560	1.072683	-0.471458
C111	C	0.869571	0.572663	-1.037199
C112	C	1.369571	1.072663	-0.537199
N113	N	0.854702	0.513582	-0.835365
N114	N	1.354702	1.013582	-0.335365
N115	N	0.854694	0.513595	-0.772913
N116	N	1.354694	1.013595	-0.272913
C117	C	0.909789	0.505538	-0.740536
C118	C	1.409789	1.005538	-0.240536
N119	N	0.964894	0.497448	-0.772970
N120	N	1.464894	0.997448	-0.272970
N121	N	0.964901	0.497430	-0.835428
N122	N	1.464901	0.997430	-0.335428
C123	C	0.909806	0.505502	-0.867326
C124	C	1.409806	1.005502	-0.367326
C125	C	0.950046	0.438365	-0.636412
C126	C	1.450046	0.938365	-0.136412
C127	C	0.950042	0.438398	-0.570669
C128	C	1.450042	0.938398	-0.070669
C129	C	0.869500	0.572815	-0.570615
C130	C	1.369500	1.072815	-0.070615
C131	C	0.869509	0.572787	-0.636357
C132	C	1.369509	1.072787	-0.136357
C133	C	0.909781	0.505557	-0.669252
C134	C	1.409781	1.005557	-0.169252
C135	C	0.909733	0.505700	-0.140062
C136	C	1.409733	1.005700	0.359938
C137	C	0.909843	0.505433	-0.070094
C138	C	1.409843	1.005433	0.429906
H139	H	0.670114	0.627882	-0.376434
H140	H	1.170114	1.127882	0.123566
H141	H	0.836723	0.627503	-0.663095
H142	H	1.336723	1.127503	-0.163095
H143	H	1.063452	1.104591	-0.150280
H144	H	1.563452	1.604591	0.349720
C145	C	0.825213	1.120441	-0.388090
C146	C	1.325213	1.620441	0.111910
H147	H	0.831002	1.193640	-0.382338
H148	H	1.331002	1.693640	0.117662
H149	H	0.834391	1.102399	-0.430395
H150	H	1.334391	1.602399	0.069605
H151	H	0.782916	1.102543	-0.378816
H152	H	1.282916	1.602543	0.121184
H153	H	0.836654	0.905695	-0.376573
H154	H	1.336654	1.405695	0.123427
C155	C	0.541458	0.646993	-0.388000
C156	C	1.041458	1.146993	0.112000
H157	H	0.570454	0.687061	-0.411932
H158	H	1.070454	1.187061	0.088068
H159	H	0.515874	0.606799	-0.415465
H160	H	1.015874	1.106799	0.084535
H161	H	0.515751	0.692730	-0.363909
H162	H	1.015751	1.192730	0.136091
C163	C	0.541419	0.364480	-0.219178
C164	C	1.041419	0.864480	0.280822
H165	H	0.497560	0.374109	-0.224944
H166	H	0.997560	0.874109	0.275056
H167	H	0.552231	0.293913	-0.228460
H168	H	1.052231	0.793913	0.271540
H169	H	0.552147	0.379772	-0.176861
H170	H	1.052147	0.879772	0.323139
C171	C	0.990415	1.235539	-0.223256
C172	C	1.490415	1.735539	0.276744
H173	H	1.020181	1.260335	-0.193553
H174	H	1.520181	1.760335	0.306447
H175	H	1.001282	1.260292	-0.263896
H176	H	1.501282	1.760292	0.236104
H177	H	0.949806	1.260448	-0.212319
H178	H	1.449806	1.760448	0.287681
H179	H	0.670081	0.383729	-0.230618
H180	H	1.170081	0.883729	0.269382
H181	H	0.982898	0.383496	-1.064034
H182	H	1.482898	0.883496	-0.564034
C183	C	0.994376	0.364328	-0.935383
C184	C	1.494376	0.864328	-0.435383
H185	H	1.018357	0.324279	-0.964390
H186	H	1.518357	0.824279	-0.464390
H187	H	1.021795	0.404500	-0.909739
H188	H	1.521795	0.904500	-0.409739
H189	H	0.970285	0.318573	-0.909738
H190	H	1.470285	0.818573	-0.409738
C191	C	0.825197	0.646749	-0.534434
C192	C	1.325197	1.146749	-0.034434
H193	H	0.801221	0.686770	-0.563410
H194	H	1.301221	1.186770	-0.063410
H195	H	0.797773	0.606580	-0.508779
H196	H	1.297773	1.106580	-0.008779
H197	H	0.849269	0.692530	-0.508795
H198	H	1.349269	1.192530	-0.008795
C199	C	0.140585	0.364340	-0.219320
C200	C	0.640585	0.864340	0.280680
H201	H	0.169572	0.324276	-0.195379
H202	H	0.669572	0.824276	0.304621
H203	H	0.114892	0.404457	-0.191860
H204	H	0.614892	0.904457	0.308140
H205	H	0.114985	0.318603	-0.243462
H206	H	0.614985	0.818603	0.256538
H207	H	0.836769	0.627409	-0.944665
H208	H	1.336769	1.127409	-0.444665
H209	H	0.982830	0.383680	-0.543933
H210	H	1.482830	0.883680	-0.043933
C211	C	1.074877	0.889849	-0.138748
C212	C	1.574877	1.389849	0.361252
H213	H	1.069078	0.816649	-0.144488
H214	H	1.569078	1.316649	0.355512
H215	H	1.117174	0.907738	-0.148011
H216	H	1.617174	1.407738	0.351989
H217	H	1.065688	0.907902	-0.096444
H218	H	1.565688	1.407902	0.403556
H219	H	0.269277	0.627745	-0.376581
H220	H	0.769277	1.127745	0.123419
C221	C	0.140621	0.646930	-0.388102
C222	C	0.640621	1.146930	0.111898
H223	H	0.169619	0.687023	-0.412017
H224	H	0.669619	1.187023	0.087983
H225	H	0.115016	0.606811	-0.415587
H226	H	0.615016	1.106811	0.084413
H227	H	0.114937	0.692639	-0.363969
H228	H	0.614937	1.192639	0.136031
C229	C	0.825285	0.646582	-1.073326
C230	C	1.325285	1.146582	-0.573326
H231	H	0.831063	0.636947	-1.117190
H232	H	1.331063	1.136947	-0.617190
H233	H	0.782990	0.631236	-1.062535
H234	H	1.282990	1.131236	-0.562535
H235	H	0.834492	0.717175	-1.062547
H236	H	1.334492	1.217175	-0.562547
C237	C	0.278632	0.364400	-0.219268
C238	C	0.778632	0.864400	0.280732
H239	H	0.249634	0.324330	-0.195338
H240	H	0.749634	0.824330	0.304662
H241	H	0.304323	0.318684	-0.243383
H242	H	0.804323	0.818684	0.256617
H243	H	0.304231	0.404550	-0.191788
H244	H	0.804231	0.904550	0.308212
C245	C	0.994350	0.364429	-0.672599
C246	C	1.494350	0.864429	-0.172599
H247	H	1.018335	0.324423	-0.643623
H248	H	1.518335	0.824423	-0.143623
H249	H	0.970285	0.318650	-0.698240
H250	H	1.470285	0.818650	-0.198240
H251	H	1.021775	0.404609	-0.698252
H252	H	1.521775	0.904609	-0.198252
C253	C	0.990253	0.774705	-0.223173
C254	C	1.490253	1.274705	0.276827
H255	H	1.020005	0.749867	-0.193464
H256	H	1.520005	1.249867	0.306536
H257	H	0.949628	0.749969	-0.212237
H258	H	1.449628	1.249969	0.287763
H259	H	1.001113	0.749819	-0.263806
H260	H	1.501113	1.249819	0.236194
