data_functionalizedCrystal
_audit_creation_method	'MofGen! by Chris Wilmer'
_symmetry_space_group_name_H-M	'P1'
_symmetry_Int_Tables_number	1
_symmetry_cell_setting	triclinic
loop_
_symmetry_equiv_pos_as_xyz
  x,y,z
_cell_length_a	10.654550
_cell_length_b	10.654551
_cell_length_c	9.130313
_cell_angle_alpha	90.001552
_cell_angle_beta	89.996220
_cell_angle_gamma	84.485132
loop_
_atom_site_label
_atom_site_type_symbol
_atom_site_fract_x
_atom_site_fract_y
_atom_site_fract_z
O1	O	1.667835	0.176393	-0.121910
O2	O	1.302356	0.193199	-0.121885
O3	O	1.493498	0.002057	-0.121899
O4	O	1.476693	0.367535	-0.121896
O5	O	1.493496	0.002062	0.121700
O6	O	1.302354	0.193204	0.121713
O7	O	1.667832	0.176398	0.121689
Cu8	Cu	1.485093	0.184802	0.143944
Cu9	Cu	1.485096	0.184796	-0.144140
O10	O	1.476691	0.367540	0.121703
C11	C	1.255557	0.191968	-0.000083
C12	C	1.116114	0.188276	-0.000074
C13	C	1.036629	0.300817	-0.000095
C14	C	0.905608	0.297341	-0.000120
C15	C	0.933570	0.068771	-0.000110
C16	C	1.064589	0.072249	-0.000074
C17	C	1.088154	0.416844	-0.000094
C18	C	1.008667	0.529395	-0.000116
C19	C	0.877647	0.525918	-0.000142
C20	C	0.826112	0.409891	-0.000145
C21	C	1.492263	-0.044739	-0.000103
C22	C	1.488570	-0.184182	-0.000112
C23	C	1.486839	-0.249696	-0.132895
C24	C	1.483359	-0.380717	-0.132888
C25	C	1.483346	-0.380697	0.132696
C26	C	1.486817	-0.249678	0.132688
C27	C	1.488592	-0.184201	-0.265696
C28	C	1.486863	-0.249716	-0.398490
C29	C	1.483382	-0.380736	-0.398483
C30	C	1.481632	-0.446241	-0.265682
C31	C	1.714632	0.177629	-0.000117
C32	C	1.854075	0.181321	-0.000135
C33	C	1.477926	0.414336	-0.000097
C34	C	1.481619	0.553779	-0.000097
N35	N	1.485100	0.184805	0.346566
N36	N	1.485098	0.184782	-0.346763
C37	C	1.569760	0.100196	0.423212
C38	C	1.569756	0.100181	0.576549
C39	C	1.400430	0.269395	0.576581
C40	C	1.400428	0.269403	0.423246
C41	C	1.654431	0.015599	0.346532
C42	C	1.739099	-0.069016	0.423178
C43	C	1.739095	-0.069031	0.576515
C44	C	1.654425	0.015569	0.653206
H45	H	1.129308	-0.019392	-0.000062
C46	C	1.232278	0.420678	-0.000057
N47	N	1.340833	0.423565	-0.000027
C48	C	1.654440	0.015605	0.177859
N49	N	1.654446	0.015611	0.050814
H50	H	0.891600	-0.025693	-0.000137
C51	C	1.832215	-0.162086	0.338816
N52	N	1.902348	-0.232193	0.275276
H53	H	1.488200	-0.196331	0.240812
C54	C	1.477803	-0.590368	-0.265682
N55	N	1.474928	-0.698924	-0.265684
H56	H	1.491429	-0.077518	-0.265716
C57	C	1.488788	-0.177657	-0.544562
N58	N	1.490240	-0.123385	-0.654587
H59	H	1.331490	0.338298	0.360841
H60	H	0.719425	0.407069	-0.000143
C61	C	1.307300	0.362449	0.660946
N62	N	1.237155	0.432541	0.724491
H63	H	1.808026	-0.137936	0.638919
C64	C	1.481518	-0.452804	-0.544556
N65	N	1.480138	-0.507085	-0.654584
C66	C	0.790215	0.649724	-0.000147
N67	N	0.724364	0.742980	-0.000154
H68	H	1.481921	-0.434042	0.240816
H69	H	1.050636	0.623860	-0.000101
H70	H	1.654420	0.015541	0.778063
