data_functionalizedCrystal
_audit_creation_method	'MofGen! by Chris Wilmer'
_symmetry_space_group_name_H-M	'P1'
_symmetry_Int_Tables_number	1
_symmetry_cell_setting	triclinic
loop_
_symmetry_equiv_pos_as_xyz
  x,y,z
_cell_length_a	19.805407
_cell_length_b	18.050589
_cell_length_c	19.805399
_cell_angle_alpha	90.022294
_cell_angle_beta	90.019573
_cell_angle_gamma	90.028221
loop_
_atom_site_label
_atom_site_type_symbol
_atom_site_fract_x
_atom_site_fract_y
_atom_site_fract_z
Zn1	Zn	1.034727	-0.295677	0.382745
Zn2	Zn	1.034638	-0.419869	0.269567
Zn3	Zn	0.921542	-0.295697	0.269569
Zn4	Zn	0.921502	-0.419829	0.382713
O5	O	0.978102	-0.357768	0.326148
O6	O	1.129432	-0.312159	0.367743
O7	O	1.019616	-0.403422	0.174850
O8	O	0.936610	-0.191770	0.284596
O9	O	1.129367	-0.403402	0.284592
O10	O	1.019767	-0.191755	0.367746
O11	O	0.936524	-0.312194	0.174852
O12	O	0.826820	-0.312156	0.284566
O13	O	0.936542	-0.403335	0.477434
O14	O	0.826791	-0.403355	0.367693
O15	O	1.019728	-0.312121	0.477457
O16	O	1.019577	-0.523788	0.284562
O17	O	0.936456	-0.523759	0.367690
C18	C	0.802246	-0.357754	0.326127
C19	C	0.727014	-0.357766	0.326133
C20	C	0.978021	-0.550720	0.326137
C21	C	0.978048	-0.633266	0.326155
C22	C	0.691673	-0.405325	0.369347
C23	C	0.620984	-0.405326	0.369357
C24	C	0.585639	-0.357771	0.326148
C25	C	0.620985	-0.310207	0.282933
C26	C	0.691673	-0.310203	0.282927
C27	C	0.335912	-0.310224	0.282955
C28	C	0.265220	-0.310233	0.282962
C29	C	0.265224	-0.405347	0.369385
C30	C	0.335911	-0.405342	0.369379
C31	C	0.371251	-0.357776	0.326166
C32	C	0.447900	-0.357774	0.326157
C33	C	0.508992	-0.357776	0.326153
C34	C	0.932891	-0.832728	0.371344
C35	C	0.916392	-0.882167	0.309581
C36	C	0.978114	-0.784396	0.326164
C37	C	0.994646	-0.882039	0.387934
C38	C	0.978177	-0.930381	0.326178
C39	C	0.961583	-0.832748	0.264368
C40	C	1.039865	-0.832616	0.342762
C41	C	1.023390	-0.882033	0.280957
C42	C	0.978076	-0.700298	0.326157
C43	C	0.978215	-1.014478	0.326178
C44	C	1.154645	-0.357783	0.326171
C45	C	1.229877	-0.357789	0.326180
C46	C	0.978140	-0.357721	0.502691
C47	C	0.978156	-0.357701	0.577923
C48	C	0.978203	-0.164062	0.326175
C49	C	0.978246	-0.081517	0.326186
C50	C	0.978103	-0.357761	0.150292
C51	C	0.978218	-0.357572	0.075061
C52	C	1.021472	-0.310204	0.613280
C53	C	1.021479	-0.310182	0.683969
C54	C	0.978173	-0.357662	0.719299
C55	C	0.934852	-0.405162	0.683937
C56	C	0.934843	-0.405180	0.613250
C57	C	0.934891	-0.405093	0.969010
C58	C	0.934905	-0.405074	1.039702
C59	C	1.021527	-0.310096	1.039729
C60	C	1.021518	-0.310113	0.969042
C61	C	0.978195	-0.357609	0.933686
C62	C	0.978187	-0.357631	0.857038
C63	C	0.978184	-0.357645	0.795946
H64	H	0.720446	-0.444052	0.404530
O65	O	0.892779	-0.451290	0.934776
C66	C	0.854544	-0.493174	0.981120
H67	H	0.882283	-0.495751	1.031507
H68	H	0.803163	-0.465955	0.988645
C69	C	0.810644	-0.569049	0.891626
C70	C	0.844717	-0.572219	0.953511
H71	H	0.804579	-0.617806	0.874596
H72	H	0.836402	-0.540829	0.860403
H73	H	0.767831	-0.546362	0.897906
H74	H	0.887533	-0.594896	0.947230
H75	H	0.818967	-0.600444	0.984733
H76	H	0.894591	-0.811078	0.409498
O77	O	0.586758	-0.451604	0.411348
C78	C	0.633112	-0.493569	0.449489
H79	H	0.683489	-0.496087	0.421758
H80	H	0.640660	-0.466460	0.500942
C81	C	0.543628	-0.569537	0.493166
C82	C	0.605500	-0.572635	0.459103
H83	H	0.526595	-0.618308	0.499099
H84	H	0.512398	-0.541263	0.467472
H85	H	0.549926	-0.546943	0.536040
H86	H	0.599200	-0.595220	0.416227
H87	H	0.636729	-0.600915	0.484790
H88	H	0.947565	-0.811186	0.212121
H89	H	1.061661	-0.903545	0.242711
O90	O	0.854086	-0.908100	0.292944
C91	C	0.806522	-0.882969	0.340686
H92	H	0.833403	-0.869055	0.389995
H93	H	0.780238	-0.831335	0.320527
C94	C	0.720743	-0.961153	0.292897
C95	C	0.753758	-0.944070	0.353462
H96	H	0.688194	-0.998841	0.300776
H97	H	0.752787	-0.978083	0.260731
H98	H	0.698846	-0.918120	0.276104
H99	H	0.775662	-0.987100	0.370249
H100	H	0.721717	-0.927149	0.385631
H101	H	1.092045	-0.810837	0.356819
O102	O	0.892801	-0.451094	1.074099
C103	C	0.849109	-0.408794	1.114977
H104	H	0.873015	-0.352513	1.125575
H105	H	0.798946	-0.400635	1.087733
C106	C	0.807487	-0.518758	1.169101
C107	C	0.836852	-0.449636	1.182122
H108	H	0.799923	-0.543952	1.210518
H109	H	0.836921	-0.547257	1.141559
H110	H	0.765688	-0.511950	1.146395
H111	H	0.878653	-0.456446	1.204819
H112	H	0.807424	-0.421139	1.209669
O113	O	0.370140	-0.451560	0.411416
C114	C	0.323787	-0.493551	0.449550
H115	H	0.273411	-0.463141	0.451944
H116	H	0.316238	-0.549920	0.424679
C117	C	0.413275	-0.541703	0.518627
C118	C	0.351404	-0.504350	0.521573
H119	H	0.430311	-0.548368	0.563054
H120	H	0.444504	-0.513416	0.492935
H121	H	0.406976	-0.588674	0.497898
H122	H	0.357705	-0.457377	0.542294
H123	H	0.320176	-0.532630	0.547271
O124	O	1.011222	-0.907783	0.450297
C125	C	0.963365	-0.882676	0.497755
H126	H	0.937572	-0.830714	0.477671
H127	H	0.923960	-0.927701	0.506575
C128	C	1.030841	-0.928443	0.589479
C129	C	0.999165	-0.864618	0.564814
H130	H	1.052922	-0.917307	0.630846
H131	H	1.063082	-0.945361	0.557506
H132	H	0.997997	-0.965958	0.596824
H133	H	1.032009	-0.827108	0.557462
H134	H	0.966930	-0.847694	0.596788
H135	H	1.056740	-0.271542	0.584520
O136	O	0.230861	-0.451441	0.411441
C137	C	0.189998	-0.409226	0.455218
H138	H	0.211326	-0.350740	0.459488
H139	H	0.136417	-0.406639	0.434301
C140	C	0.162733	-0.517445	0.520279
C141	C	0.188933	-0.445613	0.525528
H142	H	0.162073	-0.539891	0.563649
H143	H	0.190261	-0.545887	0.490785
H144	H	0.118084	-0.515279	0.502846
H145	H	0.233583	-0.447780	0.542953
H146	H	0.161412	-0.417172	0.555027
H147	H	1.056753	-0.271506	0.712754
H148	H	1.056784	-0.271452	0.940280
O149	O	0.230780	-0.264111	0.241004
C150	C	0.160812	-0.274311	0.250284
H151	H	0.151152	-0.331655	0.272369
H152	H	0.140775	-0.230313	0.286392
C153	C	0.136361	-0.196994	0.154686
C154	C	0.124496	-0.267428	0.181806
H155	H	0.113959	-0.192745	0.112446
H156	H	0.183499	-0.190119	0.148435
H157	H	0.119664	-0.160337	0.184783
H158	H	0.141200	-0.304083	0.151713
H159	H	0.077359	-0.274309	0.188050
H160	H	1.056801	-0.271419	1.068525
H161	H	0.899589	-0.443819	0.712708
O162	O	0.892752	-0.451398	0.579006
C163	C	0.854523	-0.493295	0.625345
H164	H	0.882249	-0.495848	0.675741
H165	H	0.803128	-0.466102	0.632851
C166	C	0.810684	-0.569209	0.535850
C167	C	0.844740	-0.572350	0.597746
H168	H	0.804646	-0.617973	0.518825
H169	H	0.836437	-0.540981	0.504630
H170	H	0.767858	-0.546545	0.542114
H171	H	0.887568	-0.595005	0.591480
H172	H	0.818993	-0.600583	0.628964
H173	H	0.364678	-0.271497	0.247763
H174	H	0.592202	-0.271484	0.247754
O175	O	0.725901	-0.263984	0.240881
C176	C	0.679549	-0.222001	0.202755
H177	H	0.629147	-0.252419	0.200370
H178	H	0.672065	-0.165633	0.227627
C179	C	0.769014	-0.173836	0.133661
C180	C	0.707111	-0.211199	0.130727
H181	H	0.786017	-0.167169	0.089231
H182	H	0.800244	-0.202119	0.159349
H183	H	0.762769	-0.126867	0.154391
H184	H	0.713359	-0.258170	0.110005
H185	H	0.675884	-0.182924	0.105034
