data_functionalizedCrystal
_audit_creation_method	'MofGen! by Chris Wilmer'
_symmetry_space_group_name_H-M	'P1'
_symmetry_Int_Tables_number	1
_symmetry_cell_setting	triclinic
loop_
_symmetry_equiv_pos_as_xyz
  x,y,z
_cell_length_a	19.188925
_cell_length_b	19.188924
_cell_length_c	18.266242
_cell_angle_alpha	89.991576
_cell_angle_beta	89.990012
_cell_angle_gamma	83.142256
loop_
_atom_site_label
_atom_site_type_symbol
_atom_site_fract_x
_atom_site_fract_y
_atom_site_fract_z
O1	O	0.926150	0.087151	-0.060900
O2	O	1.426150	0.587151	0.439100
O3	O	0.722837	0.098889	-0.060898
O4	O	1.222837	0.598889	0.439102
O5	O	0.830363	-0.008636	-0.060891
O6	O	1.330363	0.491364	0.439109
O7	O	0.818624	0.194676	-0.060908
O8	O	1.318624	0.694676	0.439092
O9	O	0.830345	-0.008642	0.060871
O10	O	1.330345	0.491358	0.560871
O11	O	0.722819	0.098884	0.060864
O12	O	1.222819	0.598884	0.560864
O13	O	0.926131	0.087145	0.060862
O14	O	1.426131	0.587145	0.560862
Zn15	Zn	0.824472	0.093014	0.080195
Zn16	Zn	1.324472	0.593014	0.580195
Zn17	Zn	0.824496	0.093021	-0.080232
Zn18	Zn	1.324496	0.593021	0.419768
O19	O	0.818606	0.194671	0.060854
O20	O	1.318606	0.694671	0.560854
C21	C	0.696817	0.098507	-0.000017
C22	C	1.196817	0.598507	0.499983
C23	C	0.619313	0.097368	-0.000016
C24	C	1.119313	0.597368	0.499984
C25	C	0.829975	-0.034650	-0.000009
C26	C	1.329975	0.465350	0.499991
C27	C	0.828836	-0.112155	-0.000007
C28	C	1.328836	0.387845	0.499993
C29	C	0.057541	0.152832	-0.000023
C30	C	0.557541	0.652832	0.499977
C31	C	0.130364	0.153908	-0.000027
C32	C	0.630364	0.653908	0.499973
C33	C	0.175300	0.090816	-0.000020
C34	C	0.675300	0.590816	0.499980
C35	C	0.147408	0.026642	-0.000028
C36	C	0.647408	0.526642	0.499972
C37	C	0.074586	0.025568	-0.000031
C38	C	0.574586	0.525568	0.499969
N39	N	0.295972	0.045138	0.041432
N40	N	0.795972	0.545138	0.541432
N41	N	0.365150	0.046163	0.041437
N42	N	0.865150	0.546163	0.541437
C43	C	0.394709	0.094050	-0.000012
C44	C	0.894709	0.594050	0.499988
N45	N	0.352477	0.140884	-0.041456
N46	N	0.852477	0.640884	0.458544
N47	N	0.283293	0.139861	-0.041458
N48	N	0.783293	0.639861	0.458542
C49	C	0.254264	0.091974	-0.000017
C50	C	0.754264	0.591974	0.499983
C51	C	0.501557	0.159387	-0.000013
C52	C	1.001557	0.659387	0.499987
C53	C	0.574381	0.160461	-0.000022
C54	C	1.074381	0.660461	0.499978
C55	C	0.591424	0.033193	-0.000016
C56	C	1.091424	0.533193	0.499984
C57	C	0.518600	0.032121	-0.000015
C58	C	1.018600	0.532121	0.499985
C59	C	0.473671	0.095220	-0.000010
C60	C	0.973671	0.595220	0.499990
C61	C	0.828314	-0.148551	-0.066380
C62	C	1.328314	0.351449	0.433620
C63	C	0.827234	-0.221373	-0.066385
C64	C	1.327234	0.278627	0.433615
C65	C	0.826690	-0.257799	-0.000014
C66	C	1.326690	0.242201	0.499986
C67	C	0.827208	-0.221394	0.066367
C68	C	1.327208	0.278606	0.566367
C69	C	0.828281	-0.148572	0.066371
C70	C	1.328281	0.351428	0.566371
N71	N	0.864731	-0.377465	0.049384
N72	N	1.364731	0.122535	0.549384
N73	N	0.863713	-0.446644	0.049376
N74	N	1.363713	0.053356	0.549376
C75	C	0.823456	-0.477208	-0.000021
C76	C	1.323456	0.022792	0.499979
N77	N	0.784264	-0.435982	-0.049421
N78	N	1.284264	0.064018	0.450579
N79	N	0.785285	-0.366798	-0.049415
N80	N	1.285285	0.133202	0.450585
C81	C	0.825526	-0.336763	-0.000011
C82	C	1.325526	0.163237	0.499989
C83	C	0.821763	-0.592567	-0.066405
C84	C	1.321763	-0.092567	0.433595
C85	C	0.820678	-0.665390	-0.066407
C86	C	1.320678	-0.165390	0.433593
C87	C	0.820659	-0.665410	0.066347
C88	C	1.320659	-0.165410	0.566347
C89	C	0.821736	-0.592587	0.066348
C90	C	1.321736	-0.092587	0.566348
C91	C	0.822291	-0.556170	-0.000030
C92	C	1.322291	-0.056170	0.499970
C93	C	0.952151	0.087528	-0.000021
C94	C	1.452151	0.587528	0.499979
C95	C	1.029656	0.088667	-0.000027
C96	C	1.529656	0.588667	0.499973
C97	C	0.818994	0.220684	-0.000029
C98	C	1.318994	0.720684	0.499971
C99	C	0.820133	0.298189	-0.000036
C100	C	1.320133	0.798189	0.499964
N101	N	0.824461	0.093008	0.189682
N102	N	1.324461	0.593008	0.689682
N103	N	0.824513	0.093021	-0.189719
N104	N	1.324513	0.593021	0.310281
C105	C	0.872089	0.045419	0.227994
C106	C	1.372089	0.545419	0.727994
C107	C	0.872094	0.045416	0.304639
C108	C	1.372094	0.545416	0.804639
C109	C	0.824477	0.093014	0.342969
C110	C	1.324477	0.593014	0.842969
C111	C	0.776840	0.140606	0.304647
C112	C	1.276840	0.640606	0.804647
C113	C	0.776832	0.140604	0.228004
C114	C	1.276832	0.640604	0.728004
N115	N	0.815399	0.154822	0.463296
N116	N	1.315399	0.654822	0.963296
N117	N	0.815411	0.154822	0.536104
N118	N	1.315411	0.654822	1.036104
C119	C	0.824496	0.093024	0.573891
C120	C	1.324496	0.593024	1.073891
N121	N	0.833583	0.031223	0.536120
N122	N	1.333583	0.531223	1.036120
N123	N	0.833575	0.031223	0.463305
N124	N	1.333575	0.531223	0.963305
C125	C	0.824480	0.093022	0.426076
C126	C	1.324480	0.593022	0.926076
C127	C	0.872132	0.045427	0.695311
C128	C	1.372132	0.545427	1.195311
C129	C	0.872131	0.045423	0.771957
C130	C	1.372131	0.545423	1.271957
C131	C	0.776881	0.140620	0.771964
C132	C	1.276881	0.640620	1.271964
C133	C	0.776878	0.140618	0.695319
C134	C	1.276878	0.640618	1.195319
C135	C	0.824507	0.093022	0.656997
C136	C	1.324507	0.593022	1.156997
H137	H	0.020963	0.204212	-0.000022
H138	H	0.520963	0.704212	0.499978
H139	H	0.464973	0.210766	-0.000011
H140	H	0.964973	0.710766	0.499989
C141	C	0.924510	-0.006932	0.653150
C142	C	1.424510	0.493068	1.153150
H143	H	0.917690	-0.000112	0.602016
H144	H	1.417690	0.499888	1.102016
H145	H	0.917071	-0.053510	0.665722
H146	H	1.417071	0.446490	1.165722
H147	H	0.971086	0.000536	0.665696
H148	H	1.471086	0.500536	1.165696
H149	H	0.738068	0.179360	0.335859
H150	H	1.238068	0.679360	0.835859
C151	C	0.924526	-0.006926	0.814101
C152	C	1.424526	0.493074	1.314101
H153	H	0.952893	-0.035265	0.780298
H154	H	1.452893	0.464735	1.280298
H155	H	0.899510	-0.035932	0.844013
H156	H	1.399510	0.464068	1.344013
H157	H	0.953511	0.018128	0.843986
H158	H	1.453511	0.518128	1.343986
C159	C	0.724494	0.192974	0.653173
C160	C	1.224494	0.692974	1.153173
H161	H	0.696139	0.221326	0.686976
H162	H	1.196139	0.721326	1.186976
H163	H	0.695507	0.167931	0.623286
H164	H	1.195507	0.667931	1.123286
H165	H	0.749522	0.221977	0.623264
H166	H	1.249522	0.721977	1.123264
H167	H	0.738108	0.179372	0.803171
H168	H	1.238108	0.679372	1.303171
H169	H	0.738047	0.179357	0.196809
H170	H	1.238047	0.679357	0.696809
H171	H	0.822167	-0.562954	0.120395
H172	H	1.322167	-0.062954	0.620395
H173	H	0.597083	0.212714	-0.000025
H174	H	1.097083	0.712714	0.499975
H175	H	0.910870	0.006663	0.196795
H176	H	1.410870	0.506663	0.696795
H177	H	0.183999	-0.024728	-0.000025
H178	H	0.683999	0.475272	0.499975
C179	C	0.043911	-0.045017	-0.000029
C180	C	0.543911	0.454983	0.499971
H181	H	0.081101	-0.082440	-0.000022
H182	H	0.581101	0.417560	0.499978
H183	H	0.015862	-0.048078	-0.042488
H184	H	0.515862	0.451922	0.457512
H185	H	0.015853	-0.048083	0.042439
H186	H	0.515853	0.451917	0.542439
H187	H	0.153073	0.206161	-0.000017
H188	H	0.653073	0.706161	0.499983
H189	H	0.628010	-0.018178	-0.000016
H190	H	1.128010	0.481822	0.499984
H191	H	0.820250	-0.695022	-0.120458
H192	H	1.320250	-0.195022	0.379542
C193	C	0.826688	-0.261421	-0.139398
C194	C	1.326688	0.238579	0.360602
H195	H	0.827184	-0.229304	-0.178928
H196	H	1.327184	0.270696	0.321072
H197	H	0.785573	-0.284391	-0.142178
H198	H	1.285573	0.215609	0.357822
H199	H	0.866991	-0.295269	-0.142134
H200	H	1.366991	0.204731	0.357866
C201	C	0.924487	-0.006932	0.346792
C202	C	1.424487	0.493068	0.846792
H203	H	0.952854	-0.035276	0.312991
H204	H	1.452854	0.464724	0.812991
H205	H	0.899469	-0.035934	0.376706
H206	H	1.399469	0.464066	0.876706
H207	H	0.953473	0.018123	0.376674
H208	H	1.453473	0.518123	0.876674
H209	H	0.495897	-0.020129	-0.000013
H210	H	0.995897	0.479871	0.499987
H211	H	0.828764	-0.118904	-0.120430
H212	H	1.328764	0.381096	0.379570
H213	H	0.826763	-0.251056	0.120407
H214	H	1.326763	0.248944	0.620407
C215	C	0.828861	-0.108535	0.139384
C216	C	1.328861	0.391465	0.639384
H217	H	0.828386	-0.140657	0.178913
H218	H	1.328386	0.359343	0.678913
H219	H	0.788576	-0.074674	0.142145
H220	H	1.288576	0.425326	0.642145
H221	H	0.869993	-0.085584	0.142142
H222	H	1.369993	0.414416	0.642142
C223	C	0.820054	-0.705469	0.139354
C224	C	1.320054	-0.205469	0.639354
H225	H	0.819343	-0.754053	0.129847
H226	H	1.319343	-0.254053	0.629847
H227	H	0.779519	-0.688085	0.166624
H228	H	1.279519	-0.188085	0.666624
H229	H	0.860937	-0.698993	0.166628
H230	H	1.360937	-0.198993	0.666628
H231	H	0.822210	-0.562914	-0.120453
H232	H	1.322210	-0.062914	0.379547
