data_functionalizedCrystal
_audit_creation_method	'MofGen! by Chris Wilmer'
_symmetry_space_group_name_H-M	'P1'
_symmetry_Int_Tables_number	1
_symmetry_cell_setting	triclinic
loop_
_symmetry_equiv_pos_as_xyz
  x,y,z
_cell_length_a	11.169417
_cell_length_b	18.101395
_cell_length_c	11.169409
_cell_angle_alpha	90.035674
_cell_angle_beta	90.019824
_cell_angle_gamma	90.031983
loop_
_atom_site_label
_atom_site_type_symbol
_atom_site_fract_x
_atom_site_fract_y
_atom_site_fract_z
Zn1	Zn	1.834789	-0.294752	0.678515
Zn2	Zn	1.834606	-0.418619	0.477820
Zn3	Zn	1.634075	-0.294797	0.477849
Zn4	Zn	1.634010	-0.418558	0.678465
O5	O	1.734370	-0.356682	0.578162
O6	O	2.002715	-0.311190	0.651901
O7	O	1.807956	-0.402238	0.309874
O8	O	1.660804	-0.191159	0.504501
O9	O	2.002580	-0.402194	0.504451
O10	O	1.808268	-0.191125	0.651929
O11	O	1.660626	-0.311267	0.309896
O12	O	1.466117	-0.311208	0.504453
O13	O	1.660693	-0.402091	0.846421
O14	O	1.466069	-0.402135	0.651844
O15	O	1.808205	-0.311131	0.846458
O16	O	1.807892	-0.522244	0.504403
O17	O	1.660515	-0.522199	0.651816
C18	C	1.422545	-0.356670	0.578147
C19	C	1.289145	-0.356684	0.578169
C20	C	1.734209	-0.549092	0.578127
C21	C	1.734250	-0.631406	0.578152
C22	C	1.734514	-0.930497	0.578217
C23	C	1.642003	-0.899175	0.671195
C24	C	1.641564	-0.813557	0.670904
C25	C	1.734383	-0.782115	0.578186
C26	C	1.700132	-0.813278	0.451699
C27	C	1.699535	-0.898923	0.452255
C28	C	1.861478	-0.898837	0.610612
C29	C	1.860732	-0.813186	0.613386
C30	C	1.734311	-0.698255	0.578160
C31	C	1.734583	-1.014357	0.578234
C32	C	2.047412	-0.356694	0.578178
C33	C	2.180812	-0.356699	0.578185
C34	C	1.734462	-0.356599	0.891205
C35	C	1.734501	-0.356564	1.024605
C36	C	1.734564	-0.163520	0.578224
C37	C	1.734647	-0.081206	0.578250
C38	C	1.734347	-0.356710	0.266338
C39	C	1.734541	-0.356537	0.132938
H40	H	1.663221	-0.919714	0.765288
H41	H	1.606724	-0.918969	0.424813
O42	O	1.898942	-0.924485	0.718727
C43	C	2.012865	-0.895066	0.745044
H44	H	2.059197	-0.878286	0.658290
H45	H	2.002522	-0.844571	0.805201
C46	C	2.031788	-0.974419	0.916273
C47	C	2.088698	-0.953815	0.809719
H48	H	2.078564	-1.010656	0.956172
H49	H	1.955033	-0.994238	0.898547
H50	H	2.023172	-0.932334	0.966390
H51	H	2.097299	-0.995898	0.759598
H52	H	2.165455	-0.934005	0.827439
O53	O	1.667280	-0.788503	0.782810
C54	C	1.781190	-0.814265	0.817618
H55	H	1.804442	-0.865966	0.764153
H56	H	1.850951	-0.769634	0.799651
C57	C	1.751415	-0.769357	1.017798
C58	C	1.779969	-0.832861	0.952139
H59	H	1.750666	-0.780825	1.100777
H60	H	1.674674	-0.751998	0.994347
H61	H	1.809554	-0.732170	1.002812
H62	H	1.721823	-0.870042	0.967113
H63	H	1.856701	-0.850227	0.975595
O64	O	1.776289	-0.923754	0.366747
C65	C	1.712956	-0.966968	0.282874
H66	H	1.627794	-0.989224	0.326028
H67	H	1.688471	-0.931530	0.202164
C68	C	1.896485	-1.004642	0.188983
C69	C	1.791893	-1.031983	0.241990
H70	H	1.945178	-1.044745	0.163758
H71	H	1.939155	-0.975526	0.245487
H72	H	1.876066	-0.975111	0.121731
H73	H	1.812313	-1.061506	0.309248
H74	H	1.749229	-1.061106	0.185496
H75	H	1.933304	-0.791778	0.550600
H76	H	1.765392	-0.792913	0.380534
H77	H	1.548466	-0.920764	0.650008
O78	O	1.529213	-0.789280	0.645439
C79	C	1.448858	-0.815523	0.732977
H80	H	1.487739	-0.866934	0.777206
H81	H	1.434103	-0.770939	0.803576
C82	C	1.280738	-0.771822	0.619164
C83	C	1.328488	-0.834970	0.673480
H84	H	1.206486	-0.783815	0.582466
H85	H	1.334875	-0.754139	0.560189
H86	H	1.268453	-0.734675	0.678006
H87	H	1.340787	-0.872112	0.614636
H88	H	1.274351	-0.852660	0.732444
H89	H	1.608304	-0.791896	0.423764
H90	H	1.886561	-0.792814	0.706473
O91	O	1.943569	-0.923098	0.529763
C92	C	1.886617	-0.968432	0.444270
H93	H	1.800566	-0.991852	0.483906
H94	H	1.864405	-0.934381	0.361364
C95	C	2.076341	-1.003552	0.360651
C96	C	1.970656	-1.032321	0.409336
H97	H	2.128181	-1.042960	0.339097
H98	H	2.114711	-0.973008	0.418246
H99	H	2.057815	-0.975176	0.291569
H100	H	1.989182	-1.060689	0.478425
H101	H	1.932291	-1.062872	0.351752
