data_functionalizedCrystal
_audit_creation_method	'MofGen! by Chris Wilmer'
_symmetry_space_group_name_H-M	'P1'
_symmetry_Int_Tables_number	1
_symmetry_cell_setting	triclinic
loop_
_symmetry_equiv_pos_as_xyz
  x,y,z
_cell_length_a	14.044220
_cell_length_b	14.044220
_cell_length_c	7.540329
_cell_angle_alpha	90.001925
_cell_angle_beta	89.995368
_cell_angle_gamma	93.188878
loop_
_atom_site_label
_atom_site_type_symbol
_atom_site_fract_x
_atom_site_fract_y
_atom_site_fract_z
O1	O	0.230166	1.277166	-0.147301
O2	O	0.221860	1.000494	-0.147345
O3	O	0.087677	1.134677	-0.147306
O4	O	0.364349	1.142983	-0.147340
O5	O	0.087675	1.134668	0.147659
O6	O	0.221858	1.000486	0.147620
O7	O	0.230163	1.277157	0.147664
Cu8	Cu	0.226010	1.138820	0.174575
Cu9	Cu	0.226013	1.138831	-0.174256
O10	O	0.364346	1.142974	0.147625
C11	C	0.218223	0.964868	0.000131
C12	C	0.207379	0.858725	0.000115
C13	C	0.187553	0.664388	0.000153
C14	C	0.264467	0.613258	0.000151
C15	C	0.253435	0.505122	0.000172
C16	C	0.198583	0.772534	0.000132
C17	C	0.052054	1.131037	0.000176
C18	C	-0.054088	1.120193	0.000177
C19	C	-0.248426	1.100366	0.000148
C20	C	-0.299556	1.177281	0.000155
C21	C	-0.407692	1.166249	0.000139
C22	C	-0.140280	1.111397	0.000164
C23	C	0.399969	1.146614	0.000138
C24	C	0.506112	1.157459	0.000126
C25	C	0.233800	1.312783	0.000183
C26	C	0.244645	1.418926	0.000188
N27	N	0.226008	1.138820	0.419923
N28	N	0.226009	1.138838	-0.419604
H29	H	-0.285863	1.026239	0.000132
C30	C	0.364619	0.663828	0.000126
C31	C	0.375661	0.773535	0.000104
C32	C	0.475810	0.824109	0.000078
C33	C	0.564916	0.764976	0.000075
C34	C	0.553877	0.655263	0.000097
C35	C	0.453729	0.604688	0.000123
H36	H	0.309697	0.817314	0.000106
H37	H	0.483981	0.905327	0.000062
H38	H	0.639052	0.802414	0.000056
H39	H	0.619841	0.611483	0.000095
H40	H	0.445557	0.523471	0.000139
C41	C	0.087407	0.613818	0.000156
C42	C	0.076375	0.504110	0.000162
C43	C	-0.023769	0.453527	0.000155
C44	C	-0.112881	0.512652	0.000142
C45	C	-0.101852	0.622366	0.000136
C46	C	-0.001708	0.672949	0.000143
H47	H	0.142344	0.460337	0.000171
H48	H	-0.031933	0.372309	0.000159
H49	H	-0.187014	0.475207	0.000137
H50	H	-0.167821	0.666139	0.000126
H51	H	0.006456	0.754167	0.000138
H52	H	-0.262117	1.251414	0.000048
