data_functionalizedCrystal
_audit_creation_method	'MofGen! by Chris Wilmer'
_symmetry_space_group_name_H-M	'P1'
_symmetry_Int_Tables_number	1
_symmetry_cell_setting	triclinic
loop_
_symmetry_equiv_pos_as_xyz
  x,y,z
_cell_length_a	14.519709
_cell_length_b	11.792241
_cell_length_c	12.996460
_cell_angle_alpha	89.995297
_cell_angle_beta	89.992910
_cell_angle_gamma	83.936780
loop_
_atom_site_label
_atom_site_type_symbol
_atom_site_fract_x
_atom_site_fract_y
_atom_site_fract_z
O1	O	0.126406	1.506210	-0.085549
O2	O	0.376406	1.756210	0.164451
O3	O	0.626406	2.006210	0.414451
O4	O	0.876406	2.256210	0.664451
O5	O	0.139433	1.175796	-0.085556
O6	O	0.389433	1.425796	0.164444
O7	O	0.639433	1.675796	0.414444
O8	O	0.889433	1.925796	0.664444
O9	O	-0.001287	1.349763	-0.085543
O10	O	0.248713	1.599763	0.164457
O11	O	0.498713	1.849763	0.414457
O12	O	0.748713	2.099763	0.664457
O13	O	0.267126	1.332242	-0.085562
O14	O	0.517126	1.582242	0.164438
O15	O	0.767126	1.832242	0.414438
O16	O	1.017126	2.082242	0.664438
O17	O	-0.001295	1.349745	0.085591
O18	O	0.248705	1.599745	0.335591
O19	O	0.498705	1.849745	0.585591
O20	O	0.748705	2.099745	0.835591
O21	O	0.139425	1.175778	0.085578
O22	O	0.389425	1.425778	0.335578
O23	O	0.639425	1.675778	0.585578
O24	O	0.889425	1.925778	0.835578
O25	O	0.126398	1.506191	0.085585
O26	O	0.376398	1.756191	0.335585
O27	O	0.626398	2.006191	0.585585
O28	O	0.876398	2.256191	0.835585
Cu29	Cu	0.132911	1.340983	0.101207
Cu30	Cu	0.382911	1.590983	0.351207
Cu31	Cu	0.632911	1.840983	0.601207
Cu32	Cu	0.882911	2.090983	0.851207
Cu33	Cu	0.132920	1.341005	-0.101178
Cu34	Cu	0.382920	1.591005	0.148822
Cu35	Cu	0.632920	1.841005	0.398822
Cu36	Cu	0.882920	2.091005	0.648822
O37	O	0.267118	1.332224	0.085572
O38	O	0.517118	1.582224	0.335572
O39	O	0.767118	1.832224	0.585572
O40	O	1.017118	2.082224	0.835572
C41	C	-0.035654	1.348938	0.000024
C42	C	0.214346	1.598938	0.250024
C43	C	0.464346	1.848938	0.500024
C44	C	0.714346	2.098938	0.750024
C45	C	-0.138044	1.346491	0.000025
C46	C	0.111956	1.596491	0.250025
C47	C	0.361956	1.846491	0.500025
C48	C	0.611956	2.096491	0.750025
C49	C	0.138611	1.133501	0.000010
C50	C	0.388611	1.383501	0.250010
C51	C	0.638611	1.633501	0.500010
C52	C	0.888611	1.883501	0.750010
C53	C	0.136161	1.007501	0.000008
C54	C	0.386161	1.257501	0.250008
C55	C	0.636161	1.507501	0.500008
C56	C	0.886161	1.757501	0.750008
C57	C	0.127220	1.548487	0.000017
C58	C	0.377220	1.798487	0.250017
C59	C	0.627220	2.048487	0.500017
C60	C	0.877220	2.298487	0.750017
C61	C	0.129669	1.674487	0.000012
C62	C	0.379669	1.924487	0.250012
C63	C	0.629669	2.174487	0.500012
C64	C	0.879669	2.424487	0.750012
C65	C	-0.512973	1.337483	-0.000002
C66	C	-0.262973	1.587483	0.249998
C67	C	-0.012973	1.837483	0.499998
C68	C	0.237027	2.087483	0.749998
C69	C	-0.408656	1.339984	0.000006
C70	C	-0.158656	1.589984	0.250006
C71	C	0.091344	1.839984	0.500006
C72	C	0.341344	2.089984	0.750006
C73	C	-0.325512	1.341987	0.000012
C74	C	-0.075512	1.591987	0.250012
C75	C	0.174488	1.841987	0.500012
C76	C	0.424488	2.091987	0.750012
C77	C	-0.221188	1.344489	0.000018
C78	C	0.028812	1.594489	0.250018
C79	C	0.278812	1.844489	0.500018
C80	C	0.528812	2.094489	0.750018
C81	C	0.301484	1.333050	0.000003
C82	C	0.551484	1.583050	0.250003
C83	C	0.801484	1.833050	0.500003
C84	C	1.051484	2.083050	0.750003
C85	C	0.403875	1.335497	-0.000004
C86	C	0.653875	1.585497	0.249996
C87	C	0.903875	1.835497	0.499996
C88	C	1.153875	2.085497	0.749996
N89	N	0.132903	1.340976	0.243555
N90	N	0.382903	1.590976	0.493555
N91	N	0.632903	1.840976	0.743555
N92	N	0.882903	2.090976	0.993555
C93	C	0.134173	1.905174	0.000012
C94	C	0.384173	2.155174	0.250012
C95	C	0.634173	2.405174	0.500012
C96	C	0.884173	2.655174	0.750012
C97	C	0.131671	1.776803	0.000012
C98	C	0.381671	2.026803	0.250012
C99	C	0.631671	2.276803	0.500012
C100	C	0.881671	2.526803	0.750012
N101	N	0.132920	1.341020	-0.243525
N102	N	0.382920	1.591020	0.006475
N103	N	0.632920	1.841020	0.256475
N104	N	0.882920	2.091020	0.506475
C105	C	0.132921	1.341003	0.663369
C106	C	0.382921	1.591003	0.913369
C107	C	0.632921	1.841003	1.163369
C108	C	0.882921	2.091003	1.413369
C109	C	0.132919	1.340992	0.546564
C110	C	0.382919	1.590992	0.796564
C111	C	0.632919	1.840992	1.046564
C112	C	0.882919	2.090992	1.296564
C113	C	0.132913	1.340990	0.453465
C114	C	0.382913	1.590990	0.703465
C115	C	0.632913	1.840990	0.953465
C116	C	0.882913	2.090990	1.203465
C117	C	0.132910	1.340978	0.336653
C118	C	0.382910	1.590978	0.586653
C119	C	0.632910	1.840978	0.836653
C120	C	0.882910	2.090978	1.086653
