data_functionalizedCrystal
_audit_creation_method	'MofGen! by Chris Wilmer'
_symmetry_space_group_name_H-M	'P1'
_symmetry_Int_Tables_number	1
_symmetry_cell_setting	triclinic
loop_
_symmetry_equiv_pos_as_xyz
  x,y,z
_cell_length_a	19.188930
_cell_length_b	10.723024
_cell_length_c	9.798715
_cell_angle_alpha	90.003391
_cell_angle_beta	89.991738
_cell_angle_gamma	96.193675
loop_
_atom_site_label
_atom_site_type_symbol
_atom_site_fract_x
_atom_site_fract_y
_atom_site_fract_z
O1	O	0.097922	-1.655155	-0.113499
O2	O	0.597922	-1.155155	0.386501
O3	O	0.107295	-1.291808	-0.113506
O4	O	0.607295	-0.791808	0.386494
O5	O	0.001021	-1.483967	-0.113476
O6	O	0.501021	-0.983967	0.386524
O7	O	0.204196	-1.462996	-0.113529
O8	O	0.704196	-0.962996	0.386471
O9	O	0.001021	-1.483952	0.113507
O10	O	0.501021	-0.983952	0.613507
O11	O	0.107295	-1.291793	0.113477
O12	O	0.607295	-0.791793	0.613477
O13	O	0.097922	-1.655140	0.113483
O14	O	0.597922	-1.155140	0.613483
Zn15	Zn	0.102608	-1.473465	0.149518
Zn16	Zn	0.602608	-0.973465	0.649518
Zn17	Zn	0.102609	-1.473483	-0.149541
Zn18	Zn	0.602609	-0.973483	0.350459
O19	O	0.204196	-1.462982	0.113453
O20	O	0.704196	-0.962982	0.613453
C21	C	0.106613	-1.245315	-0.000015
C22	C	0.606613	-0.745315	0.499985
C23	C	0.104572	-1.106803	-0.000016
C24	C	0.604572	-0.606803	0.499984
C25	C	-0.024995	-1.483280	0.000019
C26	C	0.475005	-0.983280	0.500019
C27	C	-0.102512	-1.481242	0.000031
C28	C	0.397488	-0.981242	0.500031
N29	N	0.102608	-1.473461	0.353618
N30	N	0.602608	-0.973461	0.853618
C31	C	-0.146704	-1.593994	0.000040
C32	C	0.353296	-1.093994	0.500040
C33	C	-0.219540	-1.592079	0.000018
C34	C	0.280460	-1.092079	0.500018
C35	C	-0.248182	-1.477405	0.000015
C36	C	0.251818	-0.977405	0.500015
C37	C	-0.203981	-1.364638	-0.000001
C38	C	0.296019	-0.864638	0.499999
C39	C	-0.131146	-1.366556	0.000007
C40	C	0.368854	-0.866556	0.500007
N41	N	-0.356756	-1.389745	0.077260
N42	N	0.143244	-0.889745	0.577260
N43	N	-0.425947	-1.387931	0.077255
N44	N	0.074053	-0.887931	0.577255
C45	C	-0.467628	-1.471618	-0.000013
C46	C	0.032372	-0.971618	0.499987
N47	N	-0.437506	-1.557208	-0.077259
N48	N	0.062494	-1.057208	0.422741
N49	N	-0.368310	-1.559026	-0.077248
N50	N	0.131690	-1.059026	0.422752
C51	C	-0.327158	-1.475312	0.000005
C52	C	0.172842	-0.975312	0.500005
C53	C	-0.590797	-1.582302	-0.000030
C54	C	-0.090797	-1.082302	0.499970
C55	C	-0.663634	-1.580382	-0.000061
C56	C	-0.163634	-1.080382	0.499939
C57	C	-0.648073	-1.352937	-0.000066
C58	C	-0.148073	-0.852937	0.499934
C59	C	-0.575238	-1.354860	-0.000049
C60	C	-0.075238	-0.854860	0.499951
C61	C	-0.546604	-1.469546	-0.000025
C62	C	-0.046604	-0.969546	0.499975
C63	C	0.230211	-1.463668	-0.000045
C64	C	0.730211	-0.963668	0.499955
C65	C	0.307729	-1.465706	-0.000066
C66	C	0.807729	-0.965706	0.499934
C67	C	0.098604	-1.701633	-0.000011
C68	C	0.598604	-1.201633	0.499989
C69	C	0.100645	-1.840145	-0.000019
C70	C	0.600645	-1.340145	0.499981
C71	C	0.164037	-1.030586	-0.000033
C72	C	0.664037	-0.530586	0.499967
C73	C	0.161930	-0.887427	-0.000034
C74	C	0.661930	-0.387427	0.499966
N75	N	0.102604	-1.473497	-0.353640
N76	N	0.602604	-0.973497	0.146360
C77	C	0.057789	-1.554147	0.421407
C78	C	0.557789	-1.054147	0.921407
C79	C	0.057787	-1.554167	0.578570
C80	C	0.557787	-1.054167	1.078570
H81	H	-0.123395	-1.687380	0.000055
H82	H	0.376605	-1.187380	0.500055
C83	C	0.033683	-1.051782	0.000002
C84	C	0.533683	-0.551782	0.500002
N85	N	-0.019712	-1.010341	0.000014
N86	N	0.480288	-0.510341	0.500014
C87	C	0.005941	-1.647432	0.342633
C88	C	0.505941	-1.147432	0.842633
N89	N	-0.033116	-1.717690	0.283302
N90	N	0.466884	-1.217690	0.783302
C91	C	-0.235488	-1.238496	0.000005
C92	C	0.264512	-0.738496	0.500005
N93	N	-0.259219	-1.143481	0.000010
N94	N	0.240781	-0.643481	0.500010
C95	C	0.005948	-1.647493	0.657323
C96	C	0.505948	-1.147493	1.157323
N97	N	-0.033100	-1.717786	0.716643
N98	N	0.466900	-1.217786	1.216643
H99	H	0.212836	-0.821937	-0.000054
H100	H	0.712836	-0.321937	0.499946
H101	H	-0.699615	-1.672202	-0.000061
H102	H	-0.199615	-1.172202	0.499939
H103	H	0.216508	-1.071319	-0.000039
H104	H	0.716508	-0.571319	0.499961
H105	H	0.049735	-0.905627	-0.000013
H106	H	0.549735	-0.405627	0.499987
C107	C	0.154444	-1.380167	0.567615
C108	C	0.654444	-0.880167	1.067615
N109	N	0.193490	-1.309870	0.508295
N110	N	0.693490	-0.809870	1.008295
H111	H	0.140974	-1.404392	0.411931
H112	H	0.640974	-0.904392	0.911931
H113	H	-0.255527	-1.683899	0.000019
H114	H	0.244473	-1.183899	0.500019
H115	H	-0.567482	-1.675686	-0.000017
H116	H	-0.067482	-1.175686	0.499983
C117	C	-0.679575	-1.226793	-0.000074
C118	C	-0.179575	-0.726793	0.499926
N119	N	-0.703305	-1.131778	-0.000083
N120	N	-0.203305	-0.631778	0.499917
C121	C	-0.082533	-1.242514	0.000001
C122	C	0.417467	-0.742514	0.500001
N123	N	-0.045917	-1.149083	0.000000
N124	N	0.454083	-0.649083	0.500000
H125	H	-0.539256	-1.263044	-0.000049
H126	H	-0.039256	-0.763044	0.499951
