data_functionalizedCrystal
_audit_creation_method	'MofGen! by Chris Wilmer'
_symmetry_space_group_name_H-M	'P1'
_symmetry_Int_Tables_number	1
_symmetry_cell_setting	triclinic
loop_
_symmetry_equiv_pos_as_xyz
  x,y,z
_cell_length_a	17.699083
_cell_length_b	7.681481
_cell_length_c	17.699083
_cell_angle_alpha	84.268690
_cell_angle_beta	96.716985
_cell_angle_gamma	84.282230
loop_
_atom_site_label
_atom_site_type_symbol
_atom_site_fract_x
_atom_site_fract_y
_atom_site_fract_z
O1	O	0.996918	0.146188	-0.102878
O2	O	1.496918	0.646188	0.397122
O3	O	0.776537	0.146246	-0.115334
O4	O	1.276537	0.646246	0.384666
O5	O	0.892955	0.146200	0.001084
O6	O	1.392955	0.646200	0.501084
O7	O	0.880500	0.146234	-0.219296
O8	O	1.380500	0.646234	0.280704
O9	O	0.907284	-0.146663	0.015446
O10	O	1.407284	0.353337	0.515446
O11	O	0.790866	-0.146617	-0.100972
O12	O	1.290866	0.353383	0.399028
O13	O	1.011247	-0.146675	-0.088517
O14	O	1.511247	0.353325	0.411483
Zn15	Zn	0.903332	-0.193144	-0.092464
Zn16	Zn	1.403332	0.306856	0.407536
Zn17	Zn	0.884452	0.192716	-0.111386
Zn18	Zn	1.384452	0.692716	0.388614
O19	O	0.894830	-0.146629	-0.204934
O20	O	1.394830	0.353371	0.295066
C21	C	0.755504	-0.000178	-0.107707
C22	C	1.255504	0.499822	0.392293
C23	C	0.671485	-0.000156	-0.106369
C24	C	1.171485	0.499844	0.393631
N25	N	0.916222	-0.456484	-0.079550
N26	N	1.416222	0.043516	0.420450
C27	C	0.622864	-0.000146	-0.174703
C28	C	1.122864	0.499854	0.325297
C29	C	0.543921	-0.000169	-0.173440
C30	C	1.043921	0.499831	0.326560
C31	C	0.513602	-0.000190	-0.103842
C32	C	1.013602	0.499810	0.396158
C33	C	0.562229	-0.000205	-0.035503
C34	C	1.062229	0.499795	0.464497
C35	C	0.641171	-0.000195	-0.036767
C36	C	1.141171	0.499805	0.463233
C37	C	0.243869	-0.000249	-0.030406
C38	C	0.743869	0.499751	0.469594
C39	C	0.164921	-0.000255	-0.029148
C40	C	0.664921	0.499745	0.470852
C41	C	0.146619	-0.000224	-0.167079
C42	C	0.646619	0.499776	0.332921
C43	C	0.225560	-0.000214	-0.168342
C44	C	0.725560	0.499786	0.331658
C45	C	0.274182	-0.000238	-0.100003
C46	C	0.774182	0.499762	0.399997
C47	C	0.359780	-0.000217	-0.101374
C48	C	0.859780	0.499783	0.398626
C49	C	0.428004	-0.000199	-0.102472
C50	C	0.928004	0.499801	0.397528
C51	C	1.032280	-0.000247	-0.096144
C52	C	1.532280	0.499753	0.403856
C53	C	1.116298	-0.000257	-0.097482
C54	C	1.616298	0.499743	0.402518
C55	C	0.899673	-0.000232	0.036462
C56	C	1.399673	0.499768	0.536462
C57	C	0.898334	-0.000232	0.120480
C58	C	1.398334	0.499768	0.620480
N59	N	0.871568	0.456055	-0.124294
N60	N	1.371568	0.956055	0.375706
C61	C	0.888111	-0.000193	-0.240312
C62	C	1.388111	0.499807	0.259688
C63	C	0.889449	-0.000181	-0.324331
C64	C	1.389449	0.499819	0.175669
C65	C	0.966669	-0.000253	0.169102
C66	C	1.466669	0.499747	0.669102
C67	C	0.965406	-0.000237	0.248045
C68	C	1.465406	0.499763	0.748045
C69	C	0.895808	-0.000213	0.278364
C70	C	1.395808	0.499787	0.778364
C71	C	0.827468	-0.000187	0.229736
C72	C	1.327468	0.499813	0.729736
C73	C	0.828731	-0.000190	0.150794
C74	C	1.328731	0.499810	0.650794
C75	C	0.822372	-0.000171	0.548098
C76	C	1.322372	0.499829	1.048098
C77	C	0.821114	-0.000173	0.627046
C78	C	1.321114	0.499827	1.127046
C79	C	0.959046	-0.000218	0.645348
C80	C	1.459046	0.499782	1.145348
C81	C	0.960310	-0.000221	0.566407
C82	C	1.460310	0.499779	1.066407
C83	C	0.891970	-0.000186	0.517785
C84	C	1.391970	0.499814	1.017785
C85	C	0.893340	-0.000200	0.432186
C86	C	1.393340	0.499800	0.932186
C87	C	0.894438	-0.000212	0.363962
C88	C	1.394438	0.499788	0.863962
H89	H	0.647543	-0.000128	-0.231378
H90	H	1.147543	0.499872	0.268622
H91	H	0.504336	-0.000159	-0.229084
H92	H	1.004336	0.499841	0.270916
H93	H	0.250242	-0.000189	-0.225016
H94	H	0.750242	0.499811	0.274984
Br95	Br	0.707159	-0.000224	0.055977
Br96	Br	1.207159	0.499776	0.555977
Br97	Br	0.795594	-0.418585	-0.200419
Br98	Br	1.295594	0.081415	0.299581
Br99	Br	0.992212	-0.581850	-0.003434
Br100	Br	1.492212	-0.081850	0.496566
Br101	Br	1.054767	-0.000252	0.525263
Br102	Br	1.554767	0.499748	1.025263
H103	H	0.283447	-0.000271	0.025241
H104	H	0.783447	0.499729	0.525241
Br105	Br	0.729624	-0.000113	0.482120
Br106	Br	1.229624	0.499887	0.982120
H107	H	1.023344	-0.000283	0.144423
H108	H	1.523344	0.499717	0.644423
H109	H	0.770800	-0.000157	0.254428
H110	H	1.270800	0.499843	0.754428
Br111	Br	1.058150	-0.000264	0.314029
Br112	Br	1.558150	0.499736	0.814029
Br113	Br	1.051796	-0.000265	0.711340
Br114	Br	1.551796	0.499735	1.211340
H115	H	0.107022	-0.000213	-0.222724
H116	H	0.607022	0.499787	0.277276
Br117	Br	0.123773	-0.000277	0.065312
Br118	Br	0.623773	0.499723	0.565312
H119	H	0.764437	-0.000157	0.651729
H120	H	1.264437	0.499843	1.151729
H121	H	0.773086	-0.000173	0.111206
H122	H	1.273086	0.499827	0.611206
H123	H	0.537538	-0.000247	0.021166
H124	H	1.037538	0.499753	0.521166
