data_functionalizedCrystal
_audit_creation_method	'MofGen! by Chris Wilmer'
_symmetry_space_group_name_H-M	'P1'
_symmetry_Int_Tables_number	1
_symmetry_cell_setting	triclinic
loop_
_symmetry_equiv_pos_as_xyz
  x,y,z
_cell_length_a	14.519709
_cell_length_b	10.540539
_cell_length_c	13.596369
_cell_angle_alpha	89.996161
_cell_angle_beta	90.000291
_cell_angle_gamma	84.102818
loop_
_atom_site_label
_atom_site_type_symbol
_atom_site_fract_x
_atom_site_fract_y
_atom_site_fract_z
O1	O	1.224765	0.166400	-0.081658
O2	O	0.956394	0.185995	-0.081688
O3	O	1.096702	-0.008572	-0.081671
O4	O	1.084457	0.360966	-0.081675
O5	O	1.096688	-0.008582	0.081912
O6	O	0.956380	0.185985	0.081895
O7	O	1.224751	0.166389	0.081924
Zn8	Zn	1.090563	0.176185	0.107882
Zn9	Zn	1.090582	0.176199	-0.107646
O10	O	1.084442	0.360956	0.081908
C11	C	0.922022	0.185077	0.000100
C12	C	0.819626	0.182340	0.000088
C13	C	0.444676	0.172265	0.000133
C14	C	0.548999	0.175063	0.000120
C15	C	0.632148	0.177303	0.000110
C16	C	0.736477	0.180101	0.000099
C17	C	1.095777	-0.055870	0.000118
C18	C	1.093029	-0.196790	0.000113
C19	C	0.987750	-0.379142	-0.000266
C20	C	0.990535	-0.232553	0.000102
C21	C	1.142346	-0.258957	0.093532
C22	C	1.138848	-0.405466	0.093610
C23	C	1.140949	-0.405994	-0.092414
C24	C	1.141893	-0.259022	-0.093649
C25	C	1.259123	0.167308	0.000135
C26	C	1.361519	0.170044	0.000140
C27	C	1.085368	0.408255	0.000116
C28	C	1.088115	0.549175	0.000115
N29	N	1.090557	0.176175	0.254974
N30	N	1.090595	0.176199	-0.254737
C31	C	1.090580	0.176200	0.656265
C32	C	1.090571	0.176198	0.544613
C33	C	1.090569	0.176189	0.455623
C34	C	1.090559	0.176184	0.343964
H35	H	0.951729	-0.189549	-0.066865
C36	C	1.238420	-0.471291	0.099365
H37	H	1.280828	-0.408456	0.101653
H38	H	1.250805	-0.523590	0.043041
H39	H	1.245060	-0.522419	0.156974
C40	C	1.244024	-0.229794	0.098246
H41	H	1.257332	-0.179318	0.043154
H42	H	1.283501	-0.307455	0.097386
H43	H	1.253962	-0.184587	0.157106
C44	C	0.937733	-0.175595	0.090706
H45	H	0.939248	-0.085705	0.091235
H46	H	0.966089	-0.211132	0.148818
H47	H	0.875275	-0.194795	0.087951
H48	H	1.214980	-0.453976	-0.093034
H49	H	1.108076	-0.216013	0.163044
H50	H	1.102389	-0.433298	0.163435
H51	H	0.947421	-0.408942	0.066343
C52	C	0.933052	-0.417225	-0.090757
H53	H	0.970929	-0.477188	-0.129116
H54	H	0.914994	-0.343623	-0.129229
H55	H	0.879489	-0.454392	-0.069749
C56	C	1.242844	-0.227343	-0.101260
H57	H	1.256576	-0.175525	-0.047110
H58	H	1.250955	-0.182834	-0.160880
H59	H	1.283287	-0.304138	-0.100462
C60	C	1.096143	-0.448144	-0.188067
H61	H	1.044789	-0.493481	-0.172463
H62	H	1.140288	-0.501821	-0.224537
H63	H	1.075685	-0.375119	-0.226201
H64	H	1.105808	-0.217791	-0.162758
