data_functionalizedCrystal
_audit_creation_method	'MofGen! by Chris Wilmer'
_symmetry_space_group_name_H-M	'P1'
_symmetry_Int_Tables_number	1
_symmetry_cell_setting	triclinic
loop_
_symmetry_equiv_pos_as_xyz
  x,y,z
_cell_length_a	9.065218
_cell_length_b	10.654562
_cell_length_c	9.730223
_cell_angle_alpha	89.996961
_cell_angle_beta	90.000469
_cell_angle_gamma	84.752995
loop_
_atom_site_label
_atom_site_type_symbol
_atom_site_fract_x
_atom_site_fract_y
_atom_site_fract_z
O1	O	0.207318	1.668646	-0.114374
O2	O	0.227042	1.303247	-0.114357
O3	O	0.002497	1.493499	-0.114363
O4	O	0.431863	1.478394	-0.114368
O5	O	0.002502	1.493497	0.114217
O6	O	0.227048	1.303245	0.114223
O7	O	0.207323	1.668644	0.114206
Zn8	Zn	0.217186	1.485944	0.150506
Zn9	Zn	0.217179	1.485947	-0.150658
O10	O	0.431869	1.478392	0.114212
C11	C	0.225593	1.256443	-0.000065
C12	C	0.221248	1.116983	-0.000058
C13	C	0.219225	1.051443	0.124530
C14	C	0.215154	0.920405	0.124507
C15	C	0.215137	0.920457	-0.124703
C16	C	0.219197	1.051494	-0.124679
C17	C	0.219241	1.051411	0.268410
C18	C	0.215170	0.920373	0.268387
C19	C	-0.052479	1.492047	-0.000075
C20	C	-0.216299	1.487706	-0.000082
C21	C	0.486845	1.479845	-0.000079
C22	C	0.650664	1.484185	-0.000082
C23	C	0.208773	1.715448	-0.000090
C24	C	0.213117	1.854908	-0.000105
N25	N	0.217191	1.485951	0.356043
N26	N	0.217163	1.485950	-0.356194
C27	C	0.117796	1.570217	0.427966
C28	C	0.117778	1.570214	0.571849
C29	C	0.316563	1.401675	0.571873
C30	C	0.316572	1.401673	0.427992
C31	C	0.003033	1.667525	0.427953
C32	C	0.003015	1.667522	0.571836
H33	H	0.326849	1.081412	0.313052
H34	H	0.397494	1.333047	0.369434
H35	H	0.213467	0.867120	-0.226165
O36	O	0.045994	1.776350	0.374468
C37	C	0.043466	1.769907	0.229767
H38	H	0.053429	1.666988	0.196142
H39	H	0.140147	1.818499	0.186112
H40	H	-0.065221	1.819023	0.190040
O41	O	0.412950	1.319640	0.641708
C42	C	0.387619	1.195048	0.606523
H43	H	0.269484	1.193104	0.566956
H44	H	0.403881	1.132208	0.701148
H45	H	0.469005	1.159084	0.523018
H46	H	-0.110375	1.645633	0.388902
O47	O	0.336894	0.865568	0.334109
C48	C	0.465718	0.896824	0.265775
H49	H	0.437518	0.923107	0.154661
H50	H	0.552641	0.812465	0.267799
H51	H	0.511167	0.980173	0.319607
H52	H	-0.104155	1.636585	0.616455
O53	O	0.032994	1.782873	0.618271
C54	C	-0.076119	1.875099	0.569868
H55	H	-0.130014	1.838839	0.473620
H56	H	-0.022621	1.964986	0.544218
H57	H	-0.163950	1.896051	0.652623
H58	H	0.117276	1.097267	0.323664
O59	O	0.220890	1.115247	-0.245666
C60	C	0.095698	1.203822	-0.253075
H61	H	0.005328	1.173231	-0.182364
H62	H	0.052910	1.209618	-0.363274
H63	H	0.127619	1.300241	-0.219581
H64	H	0.107566	0.890358	0.313034
