data_functionalizedCrystal
_audit_creation_method	'MofGen! by Chris Wilmer'
_symmetry_space_group_name_H-M	'P1'
_symmetry_Int_Tables_number	1
_symmetry_cell_setting	triclinic
loop_
_symmetry_equiv_pos_as_xyz
  x,y,z
_cell_length_a	23.532355
_cell_length_b	23.532407
_cell_length_c	12.996460
_cell_angle_alpha	89.985369
_cell_angle_beta	90.000230
_cell_angle_gamma	82.838123
loop_
_atom_site_label
_atom_site_type_symbol
_atom_site_fract_x
_atom_site_fract_y
_atom_site_fract_z
O1	O	0.755279	0.068995	-0.085446
O2	O	1.255279	0.568995	0.414554
O3	O	0.589412	0.079029	-0.085481
O4	O	1.089412	0.579029	0.414519
O5	O	0.677347	-0.008920	-0.085433
O6	O	1.177347	0.491080	0.414567
O7	O	0.667344	0.156945	-0.085493
O8	O	1.167344	0.656945	0.414507
O9	O	0.677338	-0.008925	0.085700
O10	O	1.177338	0.491075	0.585700
O11	O	0.589403	0.079024	0.085653
O12	O	1.089403	0.579024	0.585653
O13	O	0.755270	0.068990	0.085688
O14	O	1.255270	0.568990	0.585688
Cu15	Cu	0.672336	0.074007	0.101296
Cu16	Cu	1.172336	0.574007	0.601296
Cu17	Cu	0.672347	0.074013	-0.101089
Cu18	Cu	1.172347	0.574013	0.398911
O19	O	0.667335	0.156940	0.085641
O20	O	1.167335	0.656940	0.585641
C21	C	0.568191	0.078776	0.000082
C22	C	1.068191	0.578776	0.500082
C23	C	0.504972	0.078022	0.000070
C24	C	1.004972	0.578022	0.500070
C25	C	0.112953	0.073281	0.093399
C26	C	0.612953	0.573281	0.593399
C27	C	0.053554	0.072564	0.093404
C28	C	0.553554	0.572564	0.593404
O29	O	0.022831	0.072171	0.172738
O30	O	0.522831	0.572171	0.672738
N31	N	0.023850	0.072211	0.000119
N32	N	0.523850	0.572211	0.500119
C33	C	0.053550	0.072569	-0.093176
C34	C	0.553550	0.572569	0.406824
O35	O	0.022831	0.072202	-0.172521
O36	O	0.522831	0.572202	0.327479
C37	C	0.112949	0.073283	-0.093179
C38	C	0.612949	0.573283	0.406821
C39	C	0.142649	0.073641	0.000112
C40	C	0.642649	0.573641	0.500112
C41	C	0.142653	0.073640	0.186683
C42	C	0.642653	0.573640	0.686683
C43	C	0.202048	0.074358	0.186678
C44	C	0.702048	0.574358	0.686678
C45	C	0.231744	0.074718	0.093390
C46	C	0.731744	0.574718	0.593390
C47	C	0.202044	0.074360	0.000107
C48	C	0.702044	0.574360	0.500107
C49	C	0.142648	0.073637	-0.186473
C50	C	0.642648	0.573637	0.313527
C51	C	0.202051	0.074350	-0.186468
C52	C	0.702051	0.574350	0.313532
C53	C	0.231751	0.074709	-0.093177
C54	C	0.731751	0.574709	0.406823
C55	C	0.291134	0.075439	-0.093185
C56	C	0.791134	0.575439	0.406815
N57	N	0.320838	0.075792	0.000099
N58	N	0.820838	0.575792	0.500099
C59	C	0.291143	0.075432	0.093387
C60	C	0.791143	0.575432	0.593387
C61	C	-0.071191	0.071070	-0.093162
C62	C	0.428809	0.571070	0.406838
C63	C	-0.130590	0.070361	-0.093160
C64	C	0.369410	0.570361	0.406840
C65	C	-0.130582	0.070354	0.093420
C66	C	0.369418	0.570354	0.593420
C67	C	-0.071183	0.071068	0.093417
C68	C	0.428817	0.571068	0.593417
C69	C	-0.041488	0.071423	0.000123
C70	C	0.458512	0.571423	0.500123
C71	C	0.415877	0.076941	0.093370
C72	C	0.915877	0.576941	0.593370
C73	C	0.475277	0.077662	0.093357
C74	C	0.975277	0.577662	0.593357
C75	C	0.475264	0.077665	-0.093222
C76	C	0.975264	0.577665	0.406778
C77	C	0.415869	0.076947	-0.093210
C78	C	0.915869	0.576947	0.406790
C79	C	0.386177	0.076583	0.000095
C80	C	0.886177	0.576583	0.500095
O81	O	0.321895	0.075829	-0.172479
O82	O	0.821895	0.575829	0.327521
O83	O	0.321870	0.075791	0.172719
O84	O	0.821870	0.575791	0.672719
C85	C	0.677088	-0.030139	0.000139
C86	C	1.177088	0.469861	0.500139
C87	C	0.676322	-0.093356	0.000154
C88	C	1.176322	0.406644	0.500154
C89	C	0.621125	-0.359513	0.000078
C90	C	1.121125	0.140487	0.500078
C91	C	0.621837	-0.300113	0.000086
C92	C	1.121837	0.199887	0.500086
O93	O	0.578050	-0.263360	0.000044
O94	O	1.078050	0.236640	0.500044
N95	N	0.674114	-0.277496	0.000109
N96	N	1.174114	0.222504	0.500109
C97	C	0.725684	-0.314283	0.000114
C98	C	1.225684	0.185717	0.500114
O99	O	0.770216	-0.289592	0.000133
O100	O	1.270216	0.210408	0.500133
C101	C	0.724972	-0.373682	0.000098
C102	C	1.224972	0.126318	0.500098
C103	C	0.672691	-0.396295	0.000086
C104	C	1.172691	0.103705	0.500086
C105	C	0.568849	-0.382126	0.000064
C106	C	1.068849	0.117874	0.500064
C107	C	0.568137	-0.441522	0.000058
C108	C	1.068137	0.058478	0.500058
C109	C	0.619703	-0.478305	0.000066
C110	C	1.119703	0.021695	0.500066
C111	C	0.671980	-0.455691	0.000080
C112	C	1.171980	0.044309	0.500080
C113	C	0.776541	-0.410468	0.000095
C114	C	1.276541	0.089532	0.500095
C115	C	0.775824	-0.469871	0.000079
C116	C	1.275824	0.030129	0.500079
C117	C	0.723543	-0.492484	0.000067
C118	C	1.223543	0.007516	0.500067
C119	C	0.722834	-0.551870	0.000081
C120	C	1.222834	-0.051870	0.500081
N121	N	0.670556	-0.574486	0.000058
N122	N	1.170556	-0.074486	0.500058
C123	C	0.618991	-0.537704	0.000050
C124	C	1.118991	-0.037704	0.500050
C125	C	0.727175	-0.189541	0.000144
C126	C	1.227175	0.310459	0.500144
C127	C	0.727888	-0.130143	0.000167
C128	C	1.227888	0.369857	0.500167
C129	C	0.624041	-0.115977	0.000138
C130	C	1.124041	0.384023	0.500138
C131	C	0.623329	-0.175376	0.000122
C132	C	1.123329	0.324624	0.500122
C133	C	0.674898	-0.212158	0.000121
C134	C	1.174898	0.287842	0.500121
C135	C	0.617501	-0.662440	0.000038
C136	C	1.117501	-0.162440	0.500038
C137	C	0.616795	-0.721842	0.000037
C138	C	1.116795	-0.221842	0.500037
C139	C	0.720642	-0.736004	0.000060
C140	C	1.220642	-0.236004	0.500060
C141	C	0.721349	-0.676607	0.000068
C142	C	1.221349	-0.176607	0.500068
C143	C	0.669774	-0.639826	0.000053
C144	C	1.169774	-0.139826	0.500053
O145	O	0.766598	-0.588657	0.000119
O146	O	1.266598	-0.088657	0.500119
O147	O	0.574467	-0.562403	0.000018
O148	O	1.074467	-0.062403	0.500018
C149	C	0.776492	0.069244	0.000123
C150	C	1.276492	0.569244	0.500123
C151	C	0.839710	0.069998	0.000128
C152	C	1.339710	0.569998	0.500128
C153	C	0.667594	0.178158	0.000066
C154	C	1.167594	0.678158	0.500066
C155	C	0.668360	0.241375	0.000044
C156	C	1.168360	0.741375	0.500044
N157	N	0.672332	0.074003	0.243643
N158	N	1.172332	0.574003	0.743643
N159	N	0.672354	0.074012	-0.243436
N160	N	1.172354	0.574012	0.256564
C161	C	0.672346	0.074013	0.663458
C162	C	1.172346	0.574013	1.163458
C163	C	0.672340	0.074012	0.546653
C164	C	1.172340	0.574012	1.046653
C165	C	0.672339	0.074008	0.453554
C166	C	1.172339	0.574008	0.953554
C167	C	0.672333	0.074006	0.336742
C168	C	1.172333	0.574006	0.836742
H169	H	0.391708	0.076650	0.169348
H170	H	0.891708	0.576650	0.669348
C171	C	0.234712	0.074746	-0.289094
C172	C	0.734712	0.574746	0.210906
H173	H	0.208512	0.074434	-0.344647
H174	H	0.708512	0.574434	0.155353
H175	H	0.262420	0.041811	-0.292966
H176	H	0.762420	0.541811	0.207034
H177	H	0.253344	0.108247	-0.292989
H178	H	0.753344	0.608247	0.207011
H179	H	0.762625	-0.765962	0.000072
H180	H	1.262625	-0.265962	0.500072
C181	C	0.109997	0.073248	0.289308
C182	C	0.609997	0.573248	0.789308
H183	H	0.136199	0.073568	0.344854
H184	H	0.636199	0.573568	0.844854
H185	H	0.091356	0.039756	0.293219
H186	H	0.591356	0.539756	0.793219
H187	H	0.082295	0.106192	0.293176
H188	H	0.582295	0.606192	0.793176
H189	H	0.118477	0.073344	-0.262440
H190	H	0.618477	0.573344	0.237560
C191	C	0.834049	-0.385604	0.000109
C192	C	1.334049	0.114396	0.500109
H193	H	0.827097	-0.344960	0.000124
H194	H	1.327097	0.155040	0.500124
H195	H	0.855267	-0.398243	-0.059567
H196	H	1.355267	0.101757	0.440433
H197	H	0.855262	-0.398266	0.059797
H198	H	1.355262	0.101734	0.559797
H199	H	0.769172	-0.219487	0.000151
H200	H	1.269172	0.280513	0.500151
C201	C	-0.038516	0.071448	0.196035
C202	C	0.461484	0.571448	0.696035
H203	H	-0.064714	0.071126	0.251589
H204	H	0.435286	0.571126	0.751589
H205	H	-0.019872	0.104938	0.199916
H206	H	0.480128	0.604938	0.699916
H207	H	-0.010817	0.038502	0.199917
H208	H	0.489183	0.538502	0.699917
H209	H	0.817819	-0.499816	0.000073
H210	H	1.317819	0.000184	0.500073
H211	H	-0.154770	0.070060	0.169380
H212	H	0.345230	0.570060	0.669380
C213	C	0.507944	0.078049	0.195981
C214	C	1.007944	0.578049	0.695981
H215	H	0.481749	0.077725	0.251538
H216	H	0.981749	0.577725	0.751538
H217	H	0.526582	0.111543	0.199856
H218	H	1.026582	0.611543	0.699856
H219	H	0.535649	0.045107	0.199865
H220	H	1.035649	0.545107	0.699865
C221	C	0.785395	-0.105273	0.000198
C222	C	1.285395	0.394727	0.500198
H223	H	0.778440	-0.064628	0.000211
H224	H	1.278440	0.435372	0.500211
H225	H	0.806618	-0.117910	-0.059472
H226	H	1.306618	0.382090	0.440528
H227	H	0.806604	-0.117931	0.059891
H228	H	1.306604	0.382069	0.559891
H229	H	0.226225	0.074647	0.262645
H230	H	0.726225	0.574647	0.762645
C231	C	-0.163254	0.069973	-0.195779
C232	C	0.336746	0.569973	0.304221
H233	H	-0.137056	0.070287	-0.251333
H234	H	0.362944	0.570287	0.248667
H235	H	-0.190961	0.102909	-0.199674
H236	H	0.309039	0.602909	0.300326
H237	H	-0.181888	0.036473	-0.199648
H238	H	0.318112	0.536473	0.300352
C239	C	-0.038533	0.071473	-0.195792
C240	C	0.461467	0.571473	0.304208
H241	H	-0.064736	0.071166	-0.251342
H242	H	0.435264	0.571166	0.248658
H243	H	-0.010827	0.038538	-0.199673
H244	H	0.489173	0.538538	0.300327
H245	H	-0.019900	0.104973	-0.199683
H246	H	0.480100	0.604973	0.300317
H247	H	0.582053	-0.086017	0.000132
H248	H	1.082053	0.413983	0.500132
H249	H	0.391685	0.076664	-0.169174
H250	H	0.891685	0.576664	0.330826
H251	H	0.499452	0.077961	-0.169174
H252	H	0.999452	0.577961	0.330826
C253	C	0.559283	-0.746713	0.000014
C254	C	1.059283	-0.246713	0.500014
H255	H	0.528676	-0.716296	-0.000001
H256	H	1.028676	-0.216296	0.499999
H257	H	0.556839	-0.769601	0.059687
H258	H	1.056839	-0.269601	0.559687
H259	H	0.556852	-0.769578	-0.059677
H260	H	1.056852	-0.269578	0.440323
C261	C	0.560770	-0.621990	0.000030
C262	C	1.060770	-0.121990	0.500030
H263	H	0.529538	-0.643972	0.000031
H264	H	1.029538	-0.143972	0.500031
H265	H	0.558885	-0.598511	-0.059643
H266	H	1.058885	-0.098511	0.440357
H267	H	0.558885	-0.598537	0.059721
H268	H	1.058885	-0.098537	0.559721
H269	H	0.525565	-0.459928	0.000039
H270	H	1.025565	0.040072	0.500039
C271	C	0.512121	-0.341674	0.000064
C272	C	1.012121	0.158326	0.500064
H273	H	0.480890	-0.363658	0.000062
H274	H	0.980890	0.136342	0.500062
H275	H	0.510234	-0.318191	-0.059604
H276	H	1.010234	0.181809	0.440396
H277	H	0.510236	-0.318224	0.059760
H278	H	1.010236	0.181776	0.559760
H279	H	0.580757	-0.193783	0.000116
H280	H	1.080757	0.306217	0.500116
H281	H	0.763920	-0.658195	0.000093
H282	H	1.263920	-0.158195	0.500093
