data_functionalizedCrystal
_audit_creation_method	'MofGen! by Chris Wilmer'
_symmetry_space_group_name_H-M	'P1'
_symmetry_Int_Tables_number	1
_symmetry_cell_setting	triclinic
loop_
_symmetry_equiv_pos_as_xyz
  x,y,z
_cell_length_a	12.594509
_cell_length_b	19.805407
_cell_length_c	19.805405
_cell_angle_alpha	89.974605
_cell_angle_beta	89.965297
_cell_angle_gamma	90.023452
loop_
_atom_site_label
_atom_site_type_symbol
_atom_site_fract_x
_atom_site_fract_y
_atom_site_fract_z
Zn1	Zn	-0.601872	-1.034752	-0.269461
Zn2	Zn	-0.423874	-1.034662	-0.382660
Zn3	Zn	-0.423895	-0.921562	-0.269488
Zn4	Zn	-0.601797	-0.921530	-0.382611
O5	O	-0.512860	-0.978126	-0.326055
O6	O	-0.578283	-1.129456	-0.284486
O7	O	-0.274931	-1.019634	-0.367679
O8	O	-0.447544	-0.936627	-0.174768
O9	O	-0.447508	-1.129390	-0.367653
O10	O	-0.578304	-1.019788	-0.174748
O11	O	-0.274946	-0.936540	-0.284533
O12	O	-0.447471	-0.826841	-0.284486
O13	O	-0.750753	-0.936573	-0.367570
O14	O	-0.578175	-0.826817	-0.367597
O15	O	-0.750808	-1.019757	-0.284439
O16	O	-0.447436	-1.019604	-0.477370
O17	O	-0.578155	-0.936486	-0.477335
C18	C	-0.512818	-0.802270	-0.326039
C19	C	-0.512825	-0.727038	-0.326049
C20	C	-0.580771	-0.691700	-0.369389
C21	C	-0.580784	-0.621011	-0.369389
C22	C	-0.512843	-0.585663	-0.326051
C23	C	-0.444894	-0.621006	-0.282706
C24	C	-0.444888	-0.691693	-0.282703
C25	C	-0.444918	-0.335933	-0.282716
C26	C	-0.444927	-0.265241	-0.282724
C27	C	-0.580813	-0.265251	-0.369402
C28	C	-0.580807	-0.335938	-0.369399
C29	C	-0.512863	-0.371275	-0.326052
C30	C	-0.512852	-0.447924	-0.326051
C31	C	-0.512848	-0.509015	-0.326055
C32	C	-0.790481	-0.978172	-0.325996
C33	C	-0.908786	-0.978191	-0.325971
C34	C	-0.978009	-0.932961	-0.371160
C35	C	-1.048800	-0.994719	-0.387699
C36	C	-1.048794	-0.916482	-0.309391
C37	C	-0.978019	-1.039980	-0.342542
C38	C	-0.978007	-0.961702	-0.264206
C39	C	-1.048766	-1.023502	-0.280721
C40	C	-0.236319	-0.978120	-0.326065
C41	C	-0.118014	-0.978232	-0.325900
C42	C	-0.512808	-0.978050	-0.501911
C43	C	-0.512822	-0.978079	-0.577143
C44	C	-0.512892	-0.154669	-0.326067
C45	C	-0.512879	-0.229901	-0.326061
C46	C	-0.444827	-1.021401	-0.612484
C47	C	-0.444851	-1.021429	-0.683172
C48	C	-0.512864	-0.978133	-0.718519
C49	C	-0.580866	-0.934810	-0.683174
C50	C	-0.580847	-0.934785	-0.612486
C51	C	-0.580945	-0.934910	-0.968247
C52	C	-0.580956	-0.934936	-1.038939
C53	C	-0.444949	-1.021554	-1.038932
C54	C	-0.444930	-1.021529	-0.968245
C55	C	-0.512935	-0.978209	-0.932906
C56	C	-0.512910	-0.978179	-0.856258
C57	C	-0.512884	-0.978159	-0.795166
C58	C	-0.512935	-0.978221	-0.149513
C59	C	-0.512967	-0.978262	-0.074281
H60	H	-0.389602	-0.236462	-0.247429
H61	H	-0.389579	-1.056830	-1.067714
C62	C	-0.655638	-0.887129	-0.573608
C63	C	-0.646838	-0.810189	-0.583390
C64	C	-0.721634	-0.762534	-0.544512
C65	C	-0.805231	-0.791818	-0.495853
C66	C	-0.814034	-0.868761	-0.486070
C67	C	-0.739238	-0.916416	-0.524948
H68	H	-0.584951	-0.788508	-0.619412
H69	H	-0.715116	-0.705576	-0.551755
H70	H	-0.860599	-0.756541	-0.467074
H71	H	-0.875921	-0.890442	-0.450048
H72	H	-0.745756	-0.973375	-0.517705
C73	C	-1.090825	-1.013589	-0.458218
C74	C	-1.062905	-0.969318	-0.519657
C75	C	-1.104928	-0.988182	-0.590177
C76	C	-1.174870	-1.051318	-0.599258
C77	C	-1.202793	-1.095594	-0.537817
C78	C	-1.160771	-1.076729	-0.467297
H79	H	-1.011127	-0.922577	-0.512936
H80	H	-1.084256	-0.955406	-0.635659
H81	H	-1.205977	-1.065283	-0.651461
H82	H	-1.254572	-1.142334	-0.544538
H83	H	-1.181442	-1.109506	-0.421815
H84	H	-0.947061	-1.092199	-0.356595
H85	H	-0.636248	-0.899560	-0.711959
C86	C	-0.655525	-0.582139	-0.417065
C87	C	-0.730252	-0.621019	-0.464739
C88	C	-0.805000	-0.582147	-0.512415
C89	C	-0.805020	-0.504394	-0.512418
C90	C	-0.730290	-0.465509	-0.464742
C91	C	-0.655542	-0.504381	-0.417066
H92	H	-0.730240	-0.678581	-0.464739
H93	H	-0.860319	-0.610933	-0.547708
H94	H	-0.860352	-0.475619	-0.547711
H95	H	-0.730302	-0.407948	-0.464742
H96	H	-0.600223	-0.475595	-0.381773
C97	C	-1.090499	-1.075254	-0.229060
C98	C	-1.062313	-1.150516	-0.236708
C99	C	-1.104056	-1.202270	-0.185054
C100	C	-1.173985	-1.178763	-0.125754
C101	C	-1.202175	-1.103497	-0.118104
C102	C	-1.160432	-1.051743	-0.169757
H103	H	-1.010544	-1.167921	-0.280608
H104	H	-1.083188	-1.257987	-0.190718
H105	H	-1.204886	-1.217075	-0.087517
H106	H	-1.253944	-1.086092	-0.074204
H107	H	-1.181300	-0.996026	-0.164094
H108	H	-0.946887	-0.947715	-0.212017
C109	C	-0.370150	-0.374798	-0.235055
C110	C	-0.295396	-0.335914	-0.187401
C111	C	-0.220611	-0.374782	-0.139745
C112	C	-0.220581	-0.452535	-0.139743
C113	C	-0.295337	-0.491424	-0.187399
C114	C	-0.370122	-0.452556	-0.235055
H115	H	-0.295416	-0.278352	-0.187401
H116	H	-0.165272	-0.345994	-0.104467
H117	H	-0.165221	-0.481308	-0.104466
H118	H	-0.295317	-0.548986	-0.187399
H119	H	-0.425462	-0.481344	-0.270333
C120	C	-1.090789	-0.845960	-0.290479
C121	C	-1.062846	-0.784507	-0.334724
C122	C	-1.104835	-0.713984	-0.315818
C123	C	-1.174768	-0.704913	-0.252666
C124	C	-1.202715	-0.766367	-0.208417
C125	C	-1.160726	-0.836891	-0.227323
H126	H	-1.011074	-0.791220	-0.381476
H127	H	-1.084147	-0.668491	-0.348574
H128	H	-1.205851	-0.652707	-0.238670
H129	H	-1.254487	-0.759654	-0.161664
H130	H	-1.181415	-0.882383	-0.194566
C131	C	-0.370062	-1.069088	-0.722046
C132	C	-0.295249	-1.116713	-0.683167
C133	C	-0.220462	-1.164378	-0.722041
C134	C	-0.220489	-1.164417	-0.799794
C135	C	-0.295306	-1.116790	-0.838678
C136	C	-0.370092	-1.069126	-0.799804
H137	H	-0.295226	-1.116685	-0.625606
H138	H	-0.165078	-1.199634	-0.693257
H139	H	-0.165128	-1.199701	-0.828571
H140	H	-0.295328	-1.116818	-0.896239
H141	H	-0.425476	-1.033869	-0.828588
H142	H	-0.389581	-0.592220	-0.247417
H143	H	-0.389438	-1.056655	-0.583709
H144	H	-0.636127	-0.364715	-0.404691
H145	H	-0.636093	-0.720475	-0.404682
C146	C	-0.655783	-0.887311	-1.077822
C147	C	-0.730590	-0.839662	-1.038953
C148	C	-0.805411	-0.792040	-1.077837
C149	C	-0.805424	-0.792066	-1.155590
C150	C	-0.730613	-0.839717	-1.194463
C151	C	-0.655792	-0.887340	-1.155580
H152	H	-0.730584	-0.839641	-0.981392
H153	H	-0.860791	-0.756766	-1.049059
H154	H	-0.860810	-0.756813	-1.184374
H155	H	-0.730620	-0.839738	-1.252025
H156	H	-0.600413	-0.922614	-1.184357
H157	H	-0.636315	-0.899635	-0.939479
C158	C	-0.655565	-0.226378	-0.417080
C159	C	-0.655586	-0.148625	-0.417085
C160	C	-0.730334	-0.109755	-0.464763
C161	C	-0.805060	-0.148638	-0.512436
C162	C	-0.805042	-0.226395	-0.512433
C163	C	-0.730295	-0.265265	-0.464754
H164	H	-0.600267	-0.119838	-0.381793
H165	H	-0.730347	-0.052193	-0.464766
H166	H	-0.860392	-0.119864	-0.547730
H167	H	-0.860361	-0.255182	-0.547724
H168	H	-0.730282	-0.322827	-0.464752
H169	H	-0.946943	-0.894742	-0.409435
H170	H	-0.389543	-1.056783	-0.939468
H171	H	-0.389565	-0.720465	-0.247408
