data_functionalizedCrystal
_audit_creation_method	'MofGen! by Chris Wilmer'
_symmetry_space_group_name_H-M	'P1'
_symmetry_Int_Tables_number	1
_symmetry_cell_setting	triclinic
loop_
_symmetry_equiv_pos_as_xyz
  x,y,z
_cell_length_a	8.597366
_cell_length_b	8.597304
_cell_length_c	7.088929
_cell_angle_alpha	76.027438
_cell_angle_beta	103.954530
_cell_angle_gamma	86.359176
loop_
_atom_site_label
_atom_site_type_symbol
_atom_site_fract_x
_atom_site_fract_y
_atom_site_fract_z
O1	O	2.101062	0.219192	0.151018
O2	O	1.636345	0.245251	0.070171
O3	O	1.881724	-0.000148	0.151020
O4	O	1.855684	0.464591	0.070169
O5	O	1.914516	-0.033018	0.479812
O6	O	1.669138	0.212382	0.398963
O7	O	2.133855	0.186323	0.479810
Cu8	Cu	1.904490	0.196351	0.469408
Cu9	Cu	1.865710	0.235223	0.080573
O10	O	1.888476	0.431722	0.398961
C11	C	1.593280	0.227850	0.224930
C12	C	1.416103	0.224950	0.196221
C13	C	2.176920	0.203724	0.325046
C14	C	2.354095	0.206625	0.353743
C15	C	1.897151	-0.076047	0.325048
C16	C	1.894243	-0.253231	0.353746
C17	C	1.873049	0.507621	0.224928
C18	C	1.875955	0.684806	0.196218
N19	N	1.931779	0.169010	0.742895
N20	N	1.838434	0.262551	-0.192910
H21	H	1.333645	0.238409	0.039386
C22	C	1.857946	-0.205453	-0.013086
C23	C	1.840451	-0.298113	-0.152664
C24	C	1.823836	-0.197063	-0.345499
H25	H	1.951259	-0.152034	-0.013893
H26	H	1.765200	-0.127480	-0.048422
H27	H	1.933187	-0.376057	-0.117338
H28	H	1.747138	-0.351530	-0.151920
H29	H	1.731090	-0.119090	-0.380835
H30	H	1.917153	-0.143649	-0.346285
H31	H	1.811949	-0.259915	-0.440229
C32	C	2.060928	0.039710	0.893988
C33	C	2.142652	-0.042147	0.790625
C34	C	2.261644	-0.161253	0.929743
H35	H	2.011696	-0.034757	0.976254
H36	H	2.135465	0.088920	0.976192
H37	H	2.068128	-0.091356	0.708456
H38	H	2.191919	0.032277	0.708368
H39	H	2.336180	-0.112042	1.011947
H40	H	2.212398	-0.235708	1.012001
H41	H	2.317118	-0.216797	0.859632
C42	C	1.709394	0.391946	0.656007
C43	C	1.627715	0.473855	0.759364
C44	C	1.508846	0.593080	0.620241
H45	H	1.634795	0.342882	0.573718
H46	H	1.758775	0.466348	0.573828
H47	H	1.578334	0.399465	0.841509
H48	H	1.702269	0.522953	0.841645
H49	H	1.558228	0.667482	0.538062
H50	H	1.434260	0.544002	0.537960
H51	H	1.453423	0.648679	0.690349
H52	H	1.436564	0.193154	0.510590
H53	H	1.907660	-0.335741	0.510586
