data_functionalizedCrystal
_audit_creation_method	'MofGen! by Chris Wilmer'
_symmetry_space_group_name_H-M	'P1'
_symmetry_Int_Tables_number	1
_symmetry_cell_setting	triclinic
loop_
_symmetry_equiv_pos_as_xyz
  x,y,z
_cell_length_a	25.639243
_cell_length_b	12.645330
_cell_length_c	12.645323
_cell_angle_alpha	90.024870
_cell_angle_beta	90.025092
_cell_angle_gamma	90.020373
loop_
_atom_site_label
_atom_site_type_symbol
_atom_site_fract_x
_atom_site_fract_y
_atom_site_fract_z
Zn1	Zn	-0.799348	0.421955	-0.599515
Zn2	Zn	-0.299348	0.921955	-0.099515
Zn3	Zn	-0.799290	0.599243	-0.422255
Zn4	Zn	-0.299290	1.099243	0.077745
Zn5	Zn	-0.711911	0.422002	-0.422252
Zn6	Zn	-0.211911	0.922002	0.077748
Zn7	Zn	-0.711902	0.599185	-0.599463
Zn8	Zn	-0.211902	1.099185	-0.099463
O9	O	-0.755613	0.510596	-0.510871
O10	O	-0.255613	1.010596	-0.010871
O11	O	-0.872506	0.445477	-0.576024
O12	O	-0.372506	0.945477	-0.076024
O13	O	-0.787678	0.575776	-0.273907
O14	O	-0.287678	1.075776	0.226093
O15	O	-0.723538	0.273649	-0.445786
O16	O	-0.223538	0.773649	0.054214
O17	O	-0.872463	0.575730	-0.445792
O18	O	-0.372463	1.075730	0.054208
O19	O	-0.787778	0.273614	-0.576021
O20	O	-0.287778	0.773614	-0.076021
O21	O	-0.723481	0.445558	-0.273905
O22	O	-0.223481	0.945558	0.226095
O23	O	-0.638744	0.445502	-0.445736
O24	O	-0.138744	0.945502	0.054264
O25	O	-0.723522	0.575631	-0.747817
O26	O	-0.223522	1.075631	-0.247817
O27	O	-0.638738	0.575677	-0.575932
O28	O	-0.138738	1.075677	-0.075932
O29	O	-0.787769	0.445421	-0.747855
O30	O	-0.287769	0.945421	-0.247855
O31	O	-0.787669	0.747583	-0.445741
O32	O	-0.287669	1.247583	0.054259
O33	O	-0.723466	0.747540	-0.575935
O34	O	-0.223466	1.247540	-0.075935
C35	C	-0.619770	0.510589	-0.510829
C36	C	-0.119770	1.010589	-0.010829
C37	C	-0.561656	0.510611	-0.510836
C38	C	-0.061656	1.010611	-0.010836
C39	C	-0.201310	0.442880	-0.578795
C40	C	0.298690	0.942880	-0.078795
C41	C	-0.146705	0.442879	-0.578801
C42	C	0.353295	0.942879	-0.078801
O43	O	-0.118483	0.385271	-0.636531
O44	O	0.381517	0.885271	-0.136531
N45	N	-0.119374	0.510592	-0.510899
N46	N	0.380626	1.010592	-0.010899
C47	C	-0.146649	0.578304	-0.442978
C48	C	0.353351	1.078304	0.057022
O49	O	-0.118387	0.635899	-0.385222
O50	O	0.381613	1.135899	0.114778
C51	C	-0.201252	0.578299	-0.442967
C52	C	0.298748	1.078299	0.057033
C53	C	-0.228581	0.510588	-0.510882
C54	C	0.271419	1.010588	-0.010882
C55	C	-0.228639	0.375174	-0.646703
C56	C	0.271361	0.875174	-0.146703
C57	C	-0.283239	0.375176	-0.646698
C58	C	0.216761	0.875176	-0.146698
C59	C	-0.310511	0.442885	-0.578784
C60	C	0.189489	0.942885	-0.078784
C61	C	-0.283182	0.510591	-0.510876
C62	C	0.216818	1.010591	-0.010876
C63	C	-0.228526	0.646004	-0.375042
C64	C	0.271474	1.146004	0.124958
C65	C	-0.283133	0.645993	-0.375036
C66	C	0.216867	1.145993	0.124964
C67	C	-0.310463	0.578282	-0.442950
C68	C	0.189537	1.078282	0.057050
C69	C	-0.365054	0.578302	-0.442957
C70	C	0.134946	1.078302	0.057043
N71	N	-0.392386	0.510588	-0.510860
N72	N	0.107614	1.010588	-0.010860
C73	C	-0.365114	0.442880	-0.578773
C74	C	0.134886	0.942880	-0.078773
C75	C	-0.031978	0.578308	-0.443005
C76	C	0.468022	1.078308	0.056995
C77	C	0.022624	0.578320	-0.443021
C78	C	0.522624	1.078320	0.056979
C79	C	0.022564	0.442893	-0.578843
C80	C	0.522564	0.942893	-0.078843
C81	C	-0.032040	0.442887	-0.578832
C82	C	0.467960	0.942887	-0.078832
C83	C	-0.059310	0.510595	-0.510908
C84	C	0.440690	1.010595	-0.010908
C85	C	-0.479779	0.442891	-0.578757
C86	C	0.020221	0.942891	-0.078757
C87	C	-0.534385	0.442903	-0.578749
C88	C	-0.034385	0.942903	-0.078749
C89	C	-0.534319	0.578325	-0.442923
C90	C	-0.034319	1.078325	0.057077
C91	C	-0.479719	0.578318	-0.442935
C92	C	0.020281	1.078318	0.057065
C93	C	-0.452450	0.510592	-0.510856
C94	C	0.047550	1.010592	-0.010856
O95	O	-0.393311	0.635877	-0.385254
O96	O	0.106689	1.135877	0.114746
O97	O	-0.393383	0.385284	-0.636510
O98	O	0.106617	0.885284	-0.136510
C99	C	-0.755574	0.786026	-0.510856
C100	C	-0.255574	1.286026	-0.010856
C101	C	-0.755606	0.903856	-0.510885
C102	C	-0.255606	1.403856	-0.010885
C103	C	-0.755651	0.510514	-0.787376
C104	C	-0.255651	1.010514	-0.287376
C105	C	-0.755668	0.510480	-0.905206
C106	C	-0.255668	1.010480	-0.405206
C107	C	0.108014	0.510604	-0.510914
C108	C	0.608014	1.010604	-0.010914
C109	C	0.049900	0.510607	-0.510931
C110	C	0.549900	1.010607	-0.010931
C111	C	-0.755665	0.234091	-0.510909
C112	C	-0.255665	0.734091	-0.010909
C113	C	-0.755688	0.116261	-0.510925
C114	C	-0.255688	0.616261	-0.010925
C115	C	-0.715382	1.071438	-0.593043
C116	C	-0.215382	1.571438	-0.093043
C117	C	-0.715176	0.948878	-0.592779
C118	C	-0.215176	1.448878	-0.092779
C119	C	-0.740689	0.948452	-0.399162
C120	C	-0.240689	1.448452	0.100838
C121	C	-0.740443	1.071050	-0.399661
C122	C	-0.240443	1.571050	0.100339
C123	C	-0.810993	1.070940	-0.539545
C124	C	-0.310993	1.570940	-0.039545
C125	C	-0.810654	0.948333	-0.541988
C126	C	-0.310654	1.448333	-0.041988
C127	C	-0.715125	0.592009	-1.072747
C128	C	-0.215125	1.092009	-0.572747
C129	C	-0.715231	0.592412	-0.950187
C130	C	-0.215231	1.092412	-0.450187
C131	C	-0.810758	0.540793	-0.949731
C132	C	-0.310758	1.040793	-0.449731
C133	C	-0.810536	0.541304	-1.072329
C134	C	-0.310536	1.041304	-0.572329
C135	C	-0.741640	0.398181	-1.072403
C136	C	-0.241640	0.898181	-0.572403
C137	C	-0.740411	0.398854	-0.949797
C138	C	-0.240411	0.898854	-0.449797
C139	C	-0.755604	0.510602	-0.235441
C140	C	-0.255604	1.010602	0.264559
C141	C	-0.755689	0.510338	-0.117612
C142	C	-0.255689	1.010338	0.382388
H143	H	-0.054179	0.633453	-0.387696
H144	H	0.445821	1.133453	0.112304
Cl145	Cl	-0.783794	1.116840	-0.301968
Cl146	Cl	-0.283794	1.616840	0.198032
Cl147	Cl	-0.828920	0.667888	-1.116509
Cl148	Cl	-0.328920	1.167888	-0.616509
H149	H	-0.841784	0.484401	-1.102010
H150	H	-0.341784	0.984401	-0.602010
Cl151	Cl	-0.445507	0.357750	-0.664146
Cl152	Cl	0.054493	0.857750	-0.164146
Cl153	Cl	-0.652160	0.563122	-0.903701
Cl154	Cl	-0.152160	1.063122	-0.403701
Cl155	Cl	-0.678919	0.901206	-0.361053
Cl156	Cl	-0.178919	1.401206	0.138947
H157	H	-0.841792	0.483189	-0.920598
H158	H	-0.341792	0.983189	-0.420598
Cl159	Cl	-0.194183	0.731111	-0.289636
Cl160	Cl	0.305817	1.231111	0.210364
H161	H	-0.771185	0.337333	-1.101419
H162	H	-0.271185	0.837333	-0.601419
H163	H	-0.674175	0.919647	-0.573817
H164	H	-0.174175	1.419647	-0.073817
H165	H	-0.767797	0.334788	-0.919178
H166	H	-0.267797	0.834788	-0.419178
Cl167	Cl	-0.784575	0.903433	-0.302112
Cl168	Cl	-0.284575	1.403433	0.197888
H169	H	-0.674637	1.102342	-0.574324
H170	H	-0.174637	1.602342	-0.074324
H171	H	-0.821903	0.919182	-0.624210
H172	H	-0.321903	1.419182	-0.124210
H173	H	-0.700015	1.099745	-0.375417
H174	H	-0.200015	1.599745	0.124583
Cl175	Cl	-0.832002	1.118556	-0.663190
Cl176	Cl	-0.332002	1.618556	-0.163190
Cl177	Cl	-0.729583	0.902316	-0.720681
Cl178	Cl	-0.229583	1.402316	-0.220681
Cl179	Cl	-0.317588	0.290045	-0.732076
Cl180	Cl	0.182412	0.790045	-0.232076
Cl181	Cl	-0.859462	0.901001	-0.456378
Cl182	Cl	-0.359462	1.401001	0.043622
H183	H	0.044871	0.633468	-0.387730
H184	H	0.544871	1.133468	0.112270
Cl185	Cl	-0.857358	1.115713	-0.447222
Cl186	Cl	-0.357358	1.615713	0.052778
H187	H	-0.305334	0.701128	-0.319721
H188	H	0.194666	1.201128	0.180279
Cl189	Cl	-0.829461	0.666051	-0.902356
Cl190	Cl	-0.329461	1.166051	-0.402356
H191	H	-0.702168	0.370548	-1.103304
H192	H	-0.202168	0.870548	-0.603304
H193	H	-0.674153	0.573223	-1.102217
H194	H	-0.174153	1.073223	-0.602217
Cl195	Cl	-0.729655	1.116850	-0.721368
Cl196	Cl	-0.229655	1.616850	-0.221368
H197	H	-0.724309	0.674636	-1.103566
H198	H	-0.224309	1.174636	-0.603566
H199	H	-0.699869	0.375993	-0.920694
H200	H	-0.199869	0.875993	-0.420694
Cl201	Cl	-0.729580	0.720772	-0.904921
Cl202	Cl	-0.229580	1.220772	-0.404921
Cl203	Cl	-0.066390	0.357760	-0.664210
Cl204	Cl	0.433610	0.857760	-0.164210
Cl205	Cl	-0.568738	0.357777	-0.664136
Cl206	Cl	-0.068738	0.857777	-0.164136
Cl207	Cl	-0.194365	0.290044	-0.732094
Cl208	Cl	0.305635	0.790044	-0.232094
H209	H	-0.457466	0.633466	-0.387646
H210	H	0.042534	1.133466	0.112354
Cl211	Cl	0.056858	0.357768	-0.664216
Cl212	Cl	0.556858	0.857768	-0.164216
H213	H	-0.556534	0.633454	-0.387632
H214	H	-0.056534	1.133454	0.112368
