data_functionalizedCrystal
_audit_creation_method	'MofGen! by Chris Wilmer'
_symmetry_space_group_name_H-M	'P1'
_symmetry_Int_Tables_number	1
_symmetry_cell_setting	triclinic
loop_
_symmetry_equiv_pos_as_xyz
  x,y,z
_cell_length_a	6.817900
_cell_length_b	11.102210
_cell_length_c	11.168136
_cell_angle_alpha	91.983133
_cell_angle_beta	108.508683
_cell_angle_gamma	108.604261
loop_
_atom_site_label
_atom_site_type_symbol
_atom_site_fract_x
_atom_site_fract_y
_atom_site_fract_z
V1	V	-4.110379	-0.175857	-0.393696
O2	O	-4.069443	0.008431	-0.386205
O3	O	-4.087154	-0.348677	-0.391001
O4	O	-4.086662	-0.173161	-0.565402
O5	O	-4.069939	-0.168300	-0.210596
V6	V	-4.587546	-0.153813	-0.371796
O7	O	-4.385579	-0.224213	-0.441736
O8	O	-4.762543	-0.105458	-0.323757
O9	O	-4.387564	0.019006	-0.374492
O10	O	-4.745879	-0.338102	-0.379288
O11	O	-4.745383	-0.161371	-0.554897
O12	O	-4.388057	-0.156510	-0.200091
C13	C	-3.937481	-0.390806	-0.384790
C14	C	-3.999944	-0.532089	-0.383730
C15	C	-4.028178	-0.713077	-0.266622
C16	C	-3.969463	-0.580324	-0.267603
C17	C	-4.089125	-0.616613	-0.498884
C18	C	-4.147823	-0.749362	-0.497901
C19	C	-3.936851	-0.166917	-0.607254
C20	C	-3.998910	-0.165856	-0.747624
C21	C	-4.201434	-0.171410	-0.816316
C22	C	-4.265579	-0.170314	-0.961397
C23	C	-4.200579	0.061129	-0.380700
C24	C	-4.117356	0.202410	-0.381767
C25	C	-4.201209	-0.162758	-0.158232
C26	C	-4.118387	-0.163813	-0.017861
H27	H	-3.896846	-0.511517	-0.173840
O28	O	-4.472709	-0.176222	-1.031817
C29	C	-4.862243	-0.297346	-1.100487
C30	C	-4.627779	-0.290828	-1.020704
H31	H	-4.987685	-0.389984	-1.091509
H32	H	-4.877262	-0.295541	-1.204975
H33	H	-4.895362	-0.211274	-1.063968
H34	H	-4.594504	-0.376882	-1.057112
H35	H	-4.612877	-0.292570	-0.916229
O36	O	-4.234755	-0.831604	-0.609688
C37	C	-4.545395	-1.008647	-0.748821
C38	C	-4.447203	-0.915611	-0.622181
H39	H	-4.717192	-1.076573	-0.758975
H40	H	-4.434748	-1.066827	-0.749324
H41	H	-4.556985	-0.951346	-0.831969
H42	H	-4.435606	-0.972812	-0.538964
H43	H	-4.557886	-0.857429	-0.621789
H44	H	-4.113926	-0.577328	-0.593436
H45	H	-4.327329	-0.176969	-0.767717
H46	H	-3.944892	-0.159066	-0.958820
O47	O	-3.998733	-0.759782	-0.153742
C48	C	-4.089373	-0.775588	0.038215
C49	C	-4.122884	-0.722599	-0.089575
H50	H	-4.189763	-0.745569	0.090118
H51	H	-3.907104	-0.735535	0.099965
H52	H	-4.146561	-0.884980	0.019117
H53	H	-4.065821	-0.613211	-0.070596
H54	H	-4.305167	-0.762751	-0.151285
H55	H	-3.873006	-0.160279	-0.796221
