data_functionalizedCrystal
_audit_creation_method	'MofGen! by Chris Wilmer'
_symmetry_space_group_name_H-M	'P1'
_symmetry_Int_Tables_number	1
_symmetry_cell_setting	triclinic
loop_
_symmetry_equiv_pos_as_xyz
  x,y,z
_cell_length_a	12.759401
_cell_length_b	16.120444
_cell_length_c	12.759393
_cell_angle_alpha	92.864751
_cell_angle_beta	89.980324
_cell_angle_gamma	92.926867
loop_
_atom_site_label
_atom_site_type_symbol
_atom_site_fract_x
_atom_site_fract_y
_atom_site_fract_z
Zn1	Zn	1.584975	-0.331858	-0.615155
Zn2	Zn	1.575921	-0.471294	-0.448370
Zn3	Zn	1.409271	-0.331899	-0.439496
Zn4	Zn	1.400324	-0.471233	-0.624007
O5	O	1.492623	-0.401571	-0.531757
O6	O	1.730795	-0.350362	-0.593039
O7	O	1.553769	-0.452846	-0.300174
O8	O	1.440113	-0.215228	-0.455380
O9	O	1.724142	-0.452805	-0.470503
O10	O	1.569202	-0.215197	-0.584435
O11	O	1.431333	-0.350433	-0.293655
O12	O	1.261064	-0.350374	-0.463963
O13	O	1.424863	-0.452701	-0.769851
O14	O	1.254490	-0.452742	-0.599522
O15	O	1.560526	-0.350303	-0.763347
O16	O	1.545093	-0.587951	-0.479087
O17	O	1.416083	-0.587907	-0.608127
C18	C	1.219656	-0.401556	-0.531741
C19	C	1.102879	-0.401570	-0.531761
C20	C	1.051475	-0.348325	-0.595675
C21	C	0.941751	-0.348333	-0.595683
C22	C	0.934842	-0.454840	-0.467859
C23	C	1.044565	-0.454827	-0.467847
C24	C	0.798136	-0.250064	-0.627182
C25	C	0.746728	-0.196826	-0.691113
C26	C	0.783202	-0.184119	-0.792841
C27	C	0.871081	-0.224663	-0.830660
C28	C	0.922483	-0.277908	-0.766734
C29	C	0.886011	-0.290599	-0.664991
C30	C	1.188182	-0.553097	-0.436358
C31	C	1.239586	-0.606346	-0.372437
C32	C	1.203113	-0.619061	-0.270708
C33	C	1.115230	-0.578532	-0.232895
C34	C	1.063827	-0.525283	-0.296815
C35	C	1.100306	-0.512566	-0.398543
C36	C	1.478663	-0.618179	-0.545553
C37	C	1.472788	-0.710845	-0.551490
C38	C	1.523361	-0.921789	-0.501184
C39	C	1.462080	-0.880501	-0.562341
C40	C	1.468039	-0.786096	-0.556302
C41	C	1.517402	-1.016203	-0.507222
C42	C	1.766655	-0.401586	-0.531773
C43	C	1.883431	-0.401592	-0.531780
C44	C	1.492707	-0.401491	-0.805785
C45	C	1.492742	-0.401457	-0.922560
C46	C	1.506665	-0.184117	-0.517930
C47	C	1.512649	-0.091451	-0.512038
C48	C	1.563387	-0.348129	-0.974037
C49	C	1.563407	-0.348093	-1.083758
C50	C	1.422134	-0.454719	-1.090518
C51	C	1.422110	-0.454750	-0.980798
C52	C	1.607330	-0.249731	-1.227461
C53	C	1.677991	-0.196411	-1.278942
C54	C	1.781324	-0.183628	-1.242533
C55	C	1.814016	-0.224177	-1.154645
C56	C	1.743360	-0.277504	-1.103170
C57	C	1.640014	-0.290270	-1.139577
C58	C	1.378198	-0.553114	-0.837093
C59	C	1.307546	-0.606445	-0.785617
C60	C	1.204211	-0.619236	-0.822024
C61	C	1.171522	-0.578702	-0.909916
C62	C	1.242173	-0.525371	-0.961393
C63	C	1.345508	-0.512578	-0.924977
C64	C	1.492604	-0.401590	-0.258791
C65	C	1.492787	-0.401390	-0.142002
H66	H	1.217893	-0.542741	-0.519192
F67	F	1.643195	-0.153257	-1.372475
H68	H	1.769979	-0.310521	-1.031617
F69	F	1.597780	-0.875321	-0.426823
H70	H	0.992267	-0.492282	-0.266018
F71	F	1.638558	-0.291408	-0.912059
F72	F	1.346970	-0.511438	-1.152508
F73	F	1.924004	-0.210580	-1.115912
H74	H	1.523187	-0.260127	-1.257108
F75	F	1.856525	-0.126882	-1.297327
F76	F	1.016003	-0.321057	-0.806977
H77	H	0.741338	-0.140771	-0.844894
F78	F	0.653192	-0.153689	-0.650868
F79	F	1.333116	-0.649485	-0.412688
F80	F	1.207379	-0.482229	-1.054935
H81	H	1.405139	-0.916055	-0.619235
H82	H	1.087379	-0.589120	-0.939563
F83	F	1.129025	-0.676012	-0.767247
H84	H	1.462340	-0.542698	-0.807436
F85	F	1.113533	-0.291642	-0.663695
F86	F	0.909882	-0.211148	-0.938941
F87	F	1.342344	-0.649593	-0.692080
H88	H	0.768439	-0.260396	-0.544343
H89	H	0.887350	-0.498201	-0.415823
F90	F	1.257818	-0.675745	-0.202685
F91	F	1.076403	-0.592071	-0.124626
