data_functionalizedCrystal
_audit_creation_method	'MofGen! by Chris Wilmer'
_symmetry_space_group_name_H-M	'P1'
_symmetry_Int_Tables_number	1
_symmetry_cell_setting	triclinic
loop_
_symmetry_equiv_pos_as_xyz
  x,y,z
_cell_length_a	9.065218
_cell_length_b	10.540539
_cell_length_c	7.540329
_cell_angle_alpha	89.998539
_cell_angle_beta	89.996962
_cell_angle_gamma	84.770688
loop_
_atom_site_label
_atom_site_type_symbol
_atom_site_fract_x
_atom_site_fract_y
_atom_site_fract_z
O1	O	1.959469	0.186143	-0.147478
O2	O	1.530108	0.201412	-0.147479
O3	O	1.754584	0.009107	-0.147476
O4	O	1.734993	0.378448	-0.147481
O5	O	1.754570	0.009105	0.147489
O6	O	1.530094	0.201409	0.147486
O7	O	1.959455	0.186141	0.147487
Cu8	Cu	1.744773	0.193775	0.174419
Cu9	Cu	1.744789	0.193778	-0.174411
O10	O	1.734979	0.378445	0.147484
C11	C	1.475122	0.199943	0.000003
C12	C	1.311301	0.195556	0.000002
C13	C	1.753108	-0.038202	0.000003
C14	C	1.748712	-0.179167	-0.000007
C15	C	1.580278	-0.363216	-0.000669
C16	C	1.584734	-0.216582	-0.000005
C17	C	1.827618	-0.240534	0.168433
C18	C	1.822022	-0.387099	0.168575
C19	C	1.825372	-0.387602	-0.166855
C20	C	1.826883	-0.240615	-0.169082
C21	C	2.014441	0.187610	0.000001
C22	C	2.178262	0.191997	-0.000009
C23	C	1.736455	0.425755	0.000001
C24	C	1.740851	0.566719	-0.000001
N25	N	1.744773	0.193772	0.419768
N26	N	1.744801	0.193771	-0.419760
H27	H	1.515508	-0.392055	-0.121460
C28	C	1.753684	-0.430479	-0.339323
H29	H	1.671525	-0.476643	-0.311178
H30	H	1.824308	-0.483446	-0.405094
H31	H	1.720951	-0.357786	-0.408082
H32	H	1.943813	-0.434390	-0.167987
C33	C	1.749006	-0.185598	-0.337425
H34	H	1.669190	-0.125425	-0.304826
H35	H	1.712068	-0.252575	-0.403564
H36	H	1.817719	-0.144822	-0.407728
H37	H	1.946436	-0.215951	-0.179253
H38	H	1.939952	-0.434632	0.176217
C39	C	1.990291	-0.209730	0.176915
H40	H	2.011580	-0.159043	0.077572
H41	H	2.053449	-0.286756	0.175356
H42	H	2.006194	-0.164360	0.283046
H43	H	1.772795	-0.198138	0.293780
H44	H	1.522646	-0.174207	-0.120750
C45	C	1.493120	-0.404328	0.161600
H46	H	1.554164	-0.464003	0.229757
H47	H	1.407796	-0.442519	0.122875
H48	H	1.463653	-0.331819	0.232302
H49	H	1.522200	-0.175058	0.120940
C50	C	1.743211	-0.425493	0.338653
H51	H	1.714903	-0.351545	0.407004
H52	H	1.808516	-0.482306	0.406001
H53	H	1.657564	-0.466291	0.307871
