data_functionalizedCrystal
_audit_creation_method	'MofGen! by Chris Wilmer'
_symmetry_space_group_name_H-M	'P1'
_symmetry_Int_Tables_number	1
_symmetry_cell_setting	triclinic
loop_
_symmetry_equiv_pos_as_xyz
  x,y,z
_cell_length_a	15.297327
_cell_length_b	18.215407
_cell_length_c	18.215399
_cell_angle_alpha	90.017587
_cell_angle_beta	99.645421
_cell_angle_gamma	80.292992
loop_
_atom_site_label
_atom_site_type_symbol
_atom_site_fract_x
_atom_site_fract_y
_atom_site_fract_z
Zn1	Zn	-0.359154	-1.074337	-0.466807
Zn2	Zn	0.140846	-0.574337	0.033193
Zn3	Zn	-0.510031	-1.052947	-0.365029
Zn4	Zn	-0.010031	-0.552947	0.134971
Zn5	Zn	-0.359188	-0.951271	-0.343757
Zn6	Zn	0.140812	-0.451271	0.156243
Zn7	Zn	-0.509973	-0.929939	-0.488044
Zn8	Zn	-0.009973	-0.429939	0.011956
O9	O	-0.434587	-1.002124	-0.415909
O10	O	0.065413	-0.502124	0.084091
O11	O	-0.379178	-1.174482	-0.453320
O12	O	0.120822	-0.674482	0.046680
O13	O	-0.490060	-1.039436	-0.259228
O14	O	0.009940	-0.539436	0.240772
O15	O	-0.232937	-0.985475	-0.342290
O16	O	0.267063	-0.485475	0.157710
O17	O	-0.490027	-1.158768	-0.378544
O18	O	0.009973	-0.658768	0.121456
O19	O	-0.232912	-1.075891	-0.432694
O20	O	0.267088	-0.575891	0.067306
O21	O	-0.379237	-0.964734	-0.243600
O22	O	0.120763	-0.464734	0.256400
O23	O	-0.379181	-0.845458	-0.362883
O24	O	0.120819	-0.345458	0.137117
O25	O	-0.489928	-0.949118	-0.588206
O26	O	0.010072	-0.449118	-0.088206
O27	O	-0.489961	-0.829786	-0.468890
O28	O	0.010039	-0.329786	0.031110
O29	O	-0.379122	-1.055206	-0.572603
O30	O	0.120878	-0.555206	-0.072603
O31	O	-0.636270	-1.018751	-0.399137
O32	O	-0.136270	-0.518751	0.100863
O33	O	-0.636228	-0.928377	-0.489516
O34	O	-0.136228	-0.428377	0.010484
C35	C	-0.434569	-0.810920	-0.415883
C36	C	0.065431	-0.310920	0.084117
C37	C	-0.434583	-0.729119	-0.415892
C38	C	0.065417	-0.229119	0.084108
C39	C	-0.492356	-0.532771	-0.471041
C40	C	0.007644	-0.032771	0.028959
C41	C	-0.492357	-0.455912	-0.471050
C42	C	0.007643	0.044088	0.028950
C43	C	-0.376823	-0.472227	-0.360781
C44	C	0.123177	0.027773	0.139219
C45	C	-0.376817	-0.549085	-0.360776
C46	C	0.123183	-0.049085	0.139224
C47	C	-0.434589	-0.579355	-0.415906
C48	C	0.065411	-0.079355	0.084094
C49	C	-0.434596	-0.425637	-0.415919
C50	C	0.065404	0.074363	0.084081
C51	C	-0.434598	-0.342304	-0.415928
C52	C	0.065402	0.157696	0.084072
C53	C	-0.434586	-0.662694	-0.415898
C54	C	0.065414	-0.162694	0.084102
C55	C	-0.668983	-0.968948	-0.448955
C56	C	-0.168983	-0.468948	0.051045
C57	C	-0.769259	-0.954823	-0.463117
C58	C	-0.269259	-0.454823	0.036883
C59	C	-1.051883	-1.103381	-0.314943
C60	C	-0.551883	-0.603381	0.185057
C61	C	-0.957669	-1.116652	-0.301634
C62	C	-0.457669	-0.616652	0.198366
C63	C	-0.910562	-1.076196	-0.342003
C64	C	-0.410562	-0.576196	0.157997
C65	C	-0.957678	-1.022467	-0.395685
C66	C	-0.457678	-0.522467	0.104315
C67	C	-1.051901	-1.009191	-0.408992
C68	C	-0.551901	-0.509191	0.091008
C69	C	-0.910580	-0.982006	-0.436052
C70	C	-0.410580	-0.482006	0.063948
C71	C	-0.957696	-0.928276	-0.489734
C72	C	-0.457696	-0.428276	0.010266
C73	C	-1.051910	-0.915003	-0.503038
C74	C	-0.551910	-0.415003	-0.003038
C75	C	-1.099017	-0.955459	-0.462668
C76	C	-0.599017	-0.455459	0.037332
C77	C	-0.816357	-0.995282	-0.422745
C78	C	-0.316357	-0.495282	0.077255
C79	C	-0.816375	-0.901091	-0.516794
C80	C	-0.316375	-0.401091	-0.016794
C81	C	-0.910589	-0.887821	-0.530103
C82	C	-0.410589	-0.387821	-0.030103
C83	C	-0.199275	-1.035448	-0.382750
C84	C	0.300725	-0.535448	0.117250
C85	C	-0.098999	-1.049649	-0.368620
C86	C	0.401001	-0.549649	0.131380
C87	C	-0.434515	-1.002168	-0.607852
C88	C	0.065485	-0.502168	-0.107852
C89	C	-0.434484	-1.002188	-0.689647
C90	C	0.065516	-0.502188	-0.189647
C91	C	-0.434602	-0.194074	-0.415932
C92	C	0.065398	0.305926	0.084068
C93	C	-0.434602	-0.275873	-0.415933
C94	C	0.065398	0.224127	0.084067
C95	C	-0.376739	-0.963336	-0.869699
C96	C	0.123261	-0.463336	-0.369699
C97	C	-0.376721	-0.963351	-0.946555
C98	C	0.123279	-0.463351	-0.446555
C99	C	-0.492121	-1.041142	-0.962818
C100	C	0.007879	-0.541142	-0.462818
C101	C	-0.492143	-1.041122	-0.885963
C102	C	0.007857	-0.541122	-0.385963
C103	C	-0.434447	-1.002221	-0.839405
C104	C	0.065553	-0.502221	-0.339405
C105	C	-0.434407	-1.002256	-0.993116
C106	C	0.065593	-0.502256	-0.493116
C107	C	-0.434388	-1.002273	-1.076447
C108	C	0.065612	-0.502273	-0.576447
C109	C	-0.434467	-1.002203	-0.756069
C110	C	0.065533	-0.502203	-0.256069
C111	C	-0.434593	-1.002130	-0.224704
C112	C	0.065407	-0.502130	0.275296
C113	C	-0.434370	-1.002290	-0.142874
C114	C	0.065630	-0.502290	0.357126
H115	H	-0.329789	-0.447572	-0.315895
H116	H	0.170211	0.052428	0.184105
N117	N	-0.314514	-0.599341	-0.301307
N118	N	0.185486	-0.099341	0.198693
H119	H	-0.272752	-0.637148	-0.325385
H120	H	0.227248	-0.137148	0.174615
H121	H	-0.277979	-0.568454	-0.266395
H122	H	0.222021	-0.068454	0.233605
H123	H	-0.329730	-0.931686	-0.971216
H124	H	0.170270	-0.431686	-0.471216
H125	H	-0.539396	-0.417986	-0.515947
H126	H	-0.039396	0.082014	-0.015947
H127	H	-0.778003	-1.039029	-0.379037
H128	H	-0.278003	-0.539029	0.120963
H129	H	-0.833848	-1.087004	-0.331163
H130	H	-0.333848	-0.587004	0.168837
N131	N	-0.906852	-1.174606	-0.243747
N132	N	-0.406852	-0.674606	0.256253
H133	H	-0.950988	-1.198224	-0.220196
H134	H	-0.450988	-0.698224	0.279804
H135	H	-0.867706	-1.214157	-0.268214
H136	H	-0.367706	-0.714157	0.231786
N137	N	-0.554351	-1.083095	-1.013034
N138	N	-0.054351	-0.583095	-0.513034
H139	H	-0.545582	-1.077209	-1.066318
H140	H	-0.045582	-0.577209	-0.566318
H141	H	-0.540322	-1.137640	-0.997629
H142	H	-0.040322	-0.637640	-0.497629
N143	N	-1.102688	-1.146998	-0.271393
N144	N	-0.602688	-0.646998	0.228607
H145	H	-1.169524	-1.130430	-0.287966
H146	H	-0.669524	-0.630430	0.212034
H147	H	-1.086169	-1.201883	-0.280553
H148	H	-0.586169	-0.701883	0.219447
H149	H	-0.778021	-0.868147	-0.549665
H150	H	-0.278021	-0.368147	-0.049665
H151	H	-1.175734	-0.944658	-0.473504
H152	H	-0.675734	-0.444658	0.026496
H153	H	-0.329759	-0.931660	-0.831793
H154	H	0.170241	-0.431660	-0.331793
H155	H	-0.539394	-0.557414	-0.515933
H156	H	-0.039394	-0.057414	-0.015933
H157	H	-1.090270	-0.871244	-0.546741
H158	H	-0.590270	-0.371244	-0.046741
H159	H	-0.948964	-0.844073	-0.573811
H160	H	-0.448964	-0.344073	-0.073811
N161	N	-0.554393	-1.083060	-0.853285
N162	N	-0.054393	-0.583060	-0.353285
H163	H	-0.590936	-1.107710	-0.894440
H164	H	-0.090936	-0.607710	-0.394440
H165	H	-0.517683	-1.122307	-0.816226
H166	H	-0.017683	-0.622307	-0.316226
