data_functionalizedCrystal
_audit_creation_method	'MofGen! by Chris Wilmer'
_symmetry_space_group_name_H-M	'P1'
_symmetry_Int_Tables_number	1
_symmetry_cell_setting	triclinic
loop_
_symmetry_equiv_pos_as_xyz
  x,y,z
_cell_length_a	10.654541
_cell_length_b	16.109302
_cell_length_c	15.186229
_cell_angle_alpha	90.005299
_cell_angle_beta	89.999060
_cell_angle_gamma	96.027145
loop_
_atom_site_label
_atom_site_type_symbol
_atom_site_fract_x
_atom_site_fract_y
_atom_site_fract_z
O1	O	-0.161424	1.104089	0.073263
O2	O	0.338576	1.604089	0.573263
O3	O	-0.181511	0.862146	0.073255
O4	O	0.318489	1.362146	0.573255
O5	O	0.011348	0.988682	0.073259
O6	O	0.511348	1.488682	0.573259
O7	O	-0.354282	0.977554	0.073258
O8	O	0.145718	1.477554	0.573258
O9	O	0.011350	0.988673	-0.073198
O10	O	0.511350	1.488673	0.426802
O11	O	-0.181508	0.862138	-0.073202
O12	O	0.318492	1.362138	0.426798
O13	O	-0.161421	1.104081	-0.073195
O14	O	0.338579	1.604081	0.426805
Zn15	Zn	-0.171464	0.983108	-0.096452
Zn16	Zn	0.328536	1.483108	0.403548
Zn17	Zn	-0.171468	0.983119	0.096512
Zn18	Zn	0.328532	1.483119	0.596512
O19	O	-0.354280	0.977545	-0.073199
O20	O	0.145720	1.477545	0.426801
C21	C	-0.180696	0.831163	0.000026
C22	C	0.319304	1.331163	0.500026
C23	C	-0.178256	0.738853	0.000023
C24	C	0.321744	1.238853	0.500023
C25	C	-0.172612	0.526474	-0.079802
C26	C	0.327388	1.026474	0.420198
C27	C	-0.170306	0.439740	-0.079799
C28	C	0.329694	0.939740	0.420201
C29	C	-0.170316	0.439760	0.079877
C30	C	0.329684	0.939760	0.579877
C31	C	-0.172613	0.526493	0.079873
C32	C	0.327387	1.026493	0.579873
C33	C	-0.173767	0.569847	0.000031
C34	C	0.326233	1.069847	0.500031
C35	C	-0.169164	0.396380	0.000038
C36	C	0.330836	0.896380	0.500038
C37	C	-0.166664	0.302340	0.000042
C38	C	0.333336	0.802340	0.500042
C39	C	-0.176266	0.663894	0.000026
C40	C	0.323734	1.163894	0.500026
C41	C	-0.401068	0.978366	0.000030
C42	C	0.098932	1.478366	0.500030
C43	C	-0.540478	0.980810	0.000030
C44	C	-0.040478	1.480810	0.500030
C45	C	-0.570501	0.829503	0.000014
C46	C	-0.070501	1.329503	0.500014
C47	C	-0.651006	0.755000	0.000003
C48	C	-0.151006	1.255000	0.500003
C49	C	-0.781993	0.757301	0.000003
C50	C	-0.281993	1.257301	0.500003
C51	C	-0.832476	0.834112	0.000017
C52	C	-0.332476	1.334112	0.500017
C53	C	-0.751971	0.908615	0.000028
C54	C	-0.251971	1.408615	0.500028
C55	C	-0.620983	0.906306	0.000025
C56	C	-0.120983	1.406306	0.500025
C57	C	-0.721949	1.059920	0.000049
C58	C	-0.221949	1.559920	0.500049
C59	C	-0.590962	1.057621	0.000043
C60	C	-0.090962	1.557621	0.500043
C61	C	-0.772432	1.136731	0.000063
C62	C	-0.272432	1.636731	0.500063
C63	C	-0.691927	1.211235	0.000067
C64	C	-0.191927	1.711235	0.500067
C65	C	-0.560933	1.208931	0.000066
C66	C	-0.060933	1.708931	0.500066
C67	C	-0.510457	1.132123	0.000054
C68	C	-0.010457	1.632123	0.500054
C69	C	0.058136	0.987861	0.000033
C70	C	0.558136	1.487861	0.500033
C71	C	0.197546	0.985417	0.000039
C72	C	0.697546	1.485417	0.500039
N73	N	-0.171461	0.983106	-0.228144
N74	N	0.328539	1.483106	0.271856
C75	C	-0.162236	1.135065	0.000037
C76	C	0.337764	1.635065	0.500037
C77	C	-0.164676	1.227374	0.000045
C78	C	0.335324	1.727374	0.500045
C79	C	-0.086092	1.039155	-0.453865
C80	C	0.413908	1.539155	0.046135
C81	C	-0.086089	1.039158	-0.546055
C82	C	0.413911	1.539158	-0.046055
C83	C	-0.256834	0.927072	-0.546068
C84	C	0.243166	1.427072	-0.046068
C85	C	-0.256830	0.927066	-0.453880
C86	C	0.243170	1.427066	0.046120
C87	C	-0.171460	0.983113	-0.407781
C88	C	0.328540	1.483113	0.092219
C89	C	-0.171461	0.983121	-0.592159
C90	C	0.328539	1.483121	-0.092159
C91	C	-0.171459	0.983123	-0.692115
C92	C	0.328541	1.483123	-0.192115
C93	C	-0.171461	0.983109	-0.307818
C94	C	0.328539	1.483109	0.192182
N95	N	-0.171461	0.983127	0.228205
N96	N	0.328539	1.483127	0.728205
H97	H	-0.463846	0.827622	0.000012
H98	H	0.036154	1.327622	0.500012
H99	H	-0.847541	0.696635	-0.000002
H100	H	-0.347541	1.196635	0.499998
F101	F	-0.173834	0.572657	0.164846
F102	F	0.326166	1.072657	0.664846
H103	H	-0.016573	1.084792	-0.583574
H104	H	0.483427	1.584792	-0.083574
F105	F	-0.597269	0.673256	-0.000003
F106	F	-0.097269	1.173256	0.499997
F107	F	-0.971885	0.836557	0.000033
F108	F	-0.471885	1.336557	0.500033
H109	H	-0.326348	0.881425	-0.416356
H110	H	0.173652	1.381425	0.083644
F111	F	-0.173836	0.572612	-0.164777
F112	F	0.326164	1.072612	0.335223
F113	F	-0.169078	0.393583	-0.164768
F114	F	0.330922	0.893583	0.335232
F115	F	-0.911841	1.139178	0.000071
F116	F	-0.411841	1.639178	0.500071
F117	F	0.004769	1.098803	-0.404807
F118	F	0.504769	1.598803	0.095193
H119	H	-0.326342	0.881442	-0.583611
H120	H	0.173658	1.381442	-0.083611
F121	F	-0.745663	1.292974	0.000089
F122	F	-0.245663	1.792974	0.500089
H123	H	-0.495392	1.269600	0.000082
H124	H	0.004608	1.769600	0.500082
H125	H	-0.169377	0.404450	0.144881
H126	H	0.330623	0.904450	0.644881
F127	F	-0.371051	1.129665	0.000048
F128	F	0.128949	1.629665	0.500048
