data_functionalizedCrystal
_audit_creation_method	'MofGen! by Chris Wilmer'
_symmetry_space_group_name_H-M	'P1'
_symmetry_Int_Tables_number	1
_symmetry_cell_setting	triclinic
loop_
_symmetry_equiv_pos_as_xyz
  x,y,z
_cell_length_a	12.827893
_cell_length_b	18.050589
_cell_length_c	12.827885
_cell_angle_alpha	89.970259
_cell_angle_beta	89.980728
_cell_angle_gamma	90.028191
loop_
_atom_site_label
_atom_site_type_symbol
_atom_site_fract_x
_atom_site_fract_y
_atom_site_fract_z
Zn1	Zn	1.597576	-0.295623	-0.590850
Zn2	Zn	1.597431	-0.419831	-0.416111
Zn3	Zn	1.422818	-0.295659	-0.416124
Zn4	Zn	1.422764	-0.419775	-0.590811
O5	O	1.510147	-0.357722	-0.503474
O6	O	1.743793	-0.312107	-0.567682
O7	O	1.574230	-0.403398	-0.269877
O8	O	1.446083	-0.191730	-0.439323
O9	O	1.743687	-0.403362	-0.439302
O10	O	1.574478	-0.191703	-0.567694
O11	O	1.445943	-0.312169	-0.269886
O12	O	1.276575	-0.312116	-0.439286
O13	O	1.445991	-0.403268	-0.737053
O14	O	1.276535	-0.403303	-0.567628
O15	O	1.574425	-0.312053	-0.737081
O16	O	1.574178	-0.523748	-0.439264
O17	O	1.445851	-0.523707	-0.567615
C18	C	1.238638	-0.357708	-0.503454
C19	C	1.122484	-0.357720	-0.503471
C20	C	1.070708	-0.402912	-0.566880
C21	C	0.950657	-0.402926	-0.566899
C22	C	1.510021	-0.550674	-0.503457
C23	C	1.510063	-0.633220	-0.503484
C24	C	1.440347	-0.832675	-0.573257
C25	C	1.414870	-0.882123	-0.477900
C26	C	1.510166	-0.784350	-0.503498
C27	C	1.535694	-0.881984	-0.598866
C28	C	1.510263	-0.930335	-0.503520
C29	C	1.484639	-0.832711	-0.408091
C30	C	1.605506	-0.832568	-0.529120
C31	C	1.580066	-0.881993	-0.433698
C32	C	1.510107	-0.700252	-0.503487
C33	C	1.510322	-1.014432	-0.503520
C34	C	1.782718	-0.357737	-0.503495
C35	C	1.898871	-0.357743	-0.503504
C36	C	1.510219	-0.357650	-0.776045
C37	C	1.510249	-0.357619	-0.892198
C38	C	1.510303	-0.164016	-0.503515
C39	C	1.510369	-0.081471	-0.503532
C40	C	1.446821	-0.312437	-1.064032
C41	C	1.446788	-0.312468	-0.943981
C42	C	1.510137	-0.357740	-0.231964
C43	C	1.510309	-0.357562	-0.115812
H44	H	1.381217	-0.811020	-0.632167
C45	C	1.455393	-0.803603	-0.299113
C46	C	1.523169	-0.823698	-0.204170
C47	C	1.493921	-0.794591	-0.095195
C48	C	1.396897	-0.745388	-0.081163
C49	C	1.329114	-0.725289	-0.176110
C50	C	1.358362	-0.754397	-0.285085
H51	H	1.594998	-0.860124	-0.214554
H52	H	1.544099	-0.809469	-0.024909
H53	H	1.375245	-0.723840	-0.000494
H54	H	1.257285	-0.688864	-0.165726
H55	H	1.308184	-0.739519	-0.355370
C56	C	1.373419	-0.260215	-1.124201
C57	C	1.254598	-0.266264	-1.109288
C58	C	1.181193	-0.214041	-1.169455
C59	C	1.226608	-0.155768	-1.244535
C60	C	1.345435	-0.149716	-1.259451
C61	C	1.418840	-0.201939	-1.199284
H62	H	1.220973	-0.309404	-1.053706
H63	H	1.093229	-0.218522	-1.158412
H64	H	1.172269	-0.117109	-1.289074
H65	H	1.379060	-0.106577	-1.315033
H66	H	1.506804	-0.197459	-1.210327
C67	C	1.583686	-0.409815	-0.952338
C68	C	1.575102	-0.494254	-0.937413
C69	C	1.648539	-0.546449	-0.997562
C70	C	1.730562	-0.514206	-1.072636
C71	C	1.739150	-0.429763	-1.087564
C72	C	1.665712	-0.377567	-1.027415
H73	H	1.514381	-0.518126	-0.881836
H74	H	1.642181	-0.608960	-0.986510
H75	H	1.784925	-0.552844	-1.117161
H76	H	1.799871	-0.405891	-1.143141
H77	H	1.672070	-0.315057	-1.038467
C78	C	1.564818	-0.911224	-0.707806
C79	C	1.670550	-0.890538	-0.756718
C80	C	1.699664	-0.919775	-0.865661
C81	C	1.623045	-0.969697	-0.925691
C82	C	1.517307	-0.990386	-0.876780
C83	C	1.488193	-0.961150	-0.767837
H84	H	1.727273	-0.853580	-0.712280
H85	H	1.777939	-0.904459	-0.901868
H86	H	1.644597	-0.991340	-1.006337
H87	H	1.460583	-1.027344	-0.921218
H88	H	1.409917	-0.976465	-0.731630
H89	H	1.639151	-0.903511	-0.374645
H90	H	1.686069	-0.810787	-0.550818
H91	H	1.115256	-0.441591	-0.621158
H92	H	1.334289	-0.903906	-0.456249
H93	H	0.943391	-0.319053	-0.449210
H94	H	1.564643	-0.396214	-1.071266
C95	C	0.890514	-0.455199	-0.640243
C96	C	0.770469	-0.455138	-0.640156
C97	C	0.710323	-0.507413	-0.713503
C98	C	0.770224	-0.559749	-0.786936
C99	C	0.890276	-0.559812	-0.787025
C100	C	0.950421	-0.507537	-0.713678
H101	H	0.726121	-0.416393	-0.585794
H102	H	0.621453	-0.507365	-0.713437
H103	H	0.725700	-0.598446	-0.841232
H104	H	0.934624	-0.598557	-0.841387
H105	H	1.039292	-0.507584	-0.713745
C106	C	1.062314	-0.305460	-0.430145
C107	C	0.987301	-0.247249	-0.475645
C108	C	0.927134	-0.194987	-0.402317
C109	C	0.941978	-0.200936	-0.283489
C110	C	1.016993	-0.259149	-0.237982
C111	C	1.077161	-0.311411	-0.311310
H112	H	0.976310	-0.242843	-0.563615
H113	H	0.871602	-0.151893	-0.436005
H114	H	0.897438	-0.162249	-0.229207
H115	H	1.027985	-0.263555	-0.150012
H116	H	1.132693	-0.354505	-0.277623
H117	H	1.392431	-0.273838	-0.899451
