data_functionalizedCrystal
_audit_creation_method	'MofGen! by Chris Wilmer'
_symmetry_space_group_name_H-M	'P1'
_symmetry_Int_Tables_number	1
_symmetry_cell_setting	triclinic
loop_
_symmetry_equiv_pos_as_xyz
  x,y,z
_cell_length_a	19.188930
_cell_length_b	27.732048
_cell_length_c	17.666332
_cell_angle_alpha	89.988553
_cell_angle_beta	89.976766
_cell_angle_gamma	82.893716
loop_
_atom_site_label
_atom_site_type_symbol
_atom_site_fract_x
_atom_site_fract_y
_atom_site_fract_z
O1	O	0.925765	0.060348	-0.063200
O2	O	0.722402	0.068472	-0.063149
O3	O	0.830399	-0.005968	-0.063161
O4	O	0.817767	0.134787	-0.063187
O5	O	0.830380	-0.005971	0.062735
O6	O	0.722383	0.068468	0.062748
O7	O	0.925746	0.060344	0.062697
Cu8	Cu	0.824063	0.064406	0.074218
Cu9	Cu	0.824085	0.064410	-0.074670
O10	O	0.817748	0.134783	0.062710
C11	C	0.696383	0.068207	-0.000194
C12	C	0.618883	0.067417	-0.000174
C13	C	0.573681	0.111096	-0.000194
C14	C	0.500862	0.110354	-0.000202
C15	C	0.473249	0.065931	-0.000205
C16	C	0.518461	0.022246	-0.000181
C17	C	0.591278	0.022990	-0.000165
N18	N	0.365491	0.031976	-0.043078
N19	N	0.296317	0.031273	-0.043094
C20	C	0.253854	0.063689	-0.000251
N21	N	0.283177	0.096841	0.042600
N22	N	0.352357	0.097546	0.042613
C23	C	0.394291	0.065120	-0.000222
C24	C	0.129692	0.106566	-0.000279
C25	C	0.056872	0.105822	-0.000282
C26	C	0.074473	0.017714	-0.000269
C27	C	0.147292	0.018459	-0.000258
C28	C	0.174897	0.062886	-0.000267
C29	C	0.830125	-0.023977	-0.000211
C30	C	0.829326	-0.077635	-0.000204
C31	C	0.888119	-0.416270	-0.000258
C32	C	0.885157	-0.617939	-0.000268
O33	O	0.938918	-0.649030	-0.000314
N34	N	0.821118	-0.637258	-0.000251
C35	C	0.757816	-0.606157	-0.000237
O36	O	0.703280	-0.627217	-0.000231
C37	C	0.760780	-0.404489	-0.000233
C38	C	0.824822	-0.385173	-0.000242
C39	C	0.952156	-0.396953	-0.000268
C40	C	0.952896	-0.346539	-0.000261
C41	C	0.889599	-0.315441	-0.000245
C42	C	0.825562	-0.334759	-0.000235
C43	C	0.697478	-0.373389	-0.000224
C44	C	0.698225	-0.322969	-0.000225
C45	C	0.762267	-0.303653	-0.000234
C46	C	0.763005	-0.253247	-0.000212
N47	N	0.827043	-0.233928	-0.000229
C48	C	0.890340	-0.265025	-0.000245
C49	C	0.756265	-0.712036	-0.000238
C50	C	0.755524	-0.762452	-0.000238
C51	C	0.882865	-0.774231	-0.000270
C52	C	0.883605	-0.723813	-0.000265
C53	C	0.820303	-0.692716	-0.000254
C54	C	0.891889	-0.159151	-0.000231
C55	C	0.892623	-0.108732	-0.000221
C56	C	0.765283	-0.096958	-0.000193
C57	C	0.764549	-0.147373	-0.000198
C58	C	0.827857	-0.178468	-0.000220
O59	O	0.709272	-0.222127	-0.000174
O60	O	0.944868	-0.243956	-0.000268
C61	C	0.887379	-0.466684	-0.000265
C62	C	0.823342	-0.486001	-0.000255
C63	C	0.760045	-0.454904	-0.000238
C64	C	0.822601	-0.536418	-0.000254
C65	C	0.885898	-0.567515	-0.000271
C66	C	0.949936	-0.548195	-0.000288
C67	C	0.950676	-0.497781	-0.000281
C68	C	0.696007	-0.474223	-0.000222
C69	C	0.695272	-0.524638	-0.000227
C70	C	0.758569	-0.555735	-0.000244
C71	C	0.951765	0.060609	-0.000260
C72	C	1.029264	0.061399	-0.000285
C73	C	0.818023	0.152793	-0.000243
C74	C	0.818821	0.206450	-0.000254
N75	N	0.824052	0.064402	0.178937
N76	N	0.824101	0.064410	-0.179389
C77	C	0.871889	0.031456	0.218541
C78	C	0.871893	0.031454	0.297789
C79	C	0.824067	0.064406	0.337429
C80	C	0.776221	0.097354	0.297816
C81	C	0.776214	0.097352	0.218570
N82	N	0.814718	0.107196	0.461842
N83	N	0.814729	0.107196	0.537122
C84	C	0.824085	0.064412	0.576193
N85	N	0.833444	0.021627	0.537140
N86	N	0.833436	0.021628	0.461853
C87	C	0.824069	0.064411	0.423359
C88	C	0.871929	0.031462	0.701727
C89	C	0.871928	0.031459	0.780976
C90	C	0.776260	0.097363	0.781001
C91	C	0.776257	0.097361	0.701754
C92	C	0.824096	0.064411	0.662121
H93	H	0.944776	-0.093007	-0.000226
H94	H	0.910880	0.004628	0.813222
C95	C	0.007149	0.153871	-0.000304
H96	H	0.034022	0.180435	-0.000314
H97	H	-0.021647	0.155415	0.043593
H98	H	-0.021599	0.155410	-0.044219
H99	H	0.152169	0.142741	-0.000275
H100	H	0.628083	-0.012580	-0.000150
C101	C	0.695662	-0.062745	-0.000179
H102	H	0.705281	-0.029954	-0.000186
H103	H	0.669365	-0.068589	0.043726
H104	H	0.669393	-0.068580	-0.044086
C105	C	1.021123	-0.476539	-0.000299
H106	H	1.058709	-0.502286	-0.000316
H107	H	1.024060	-0.457123	0.043603
H108	H	1.024068	-0.457113	-0.044209
H109	H	0.051991	-0.018456	-0.000319
H110	H	0.935754	-0.708089	-0.000273
C111	C	1.019561	-0.582409	-0.000312
H112	H	1.009941	-0.615200	-0.000320
H113	H	1.045844	-0.576578	0.043583
H114	H	1.045845	-0.576561	-0.044229
H115	H	0.934404	-0.799559	-0.000283
H116	H	0.737317	0.124191	0.813276
C117	C	0.624821	-0.545881	-0.000220
H118	H	0.587233	-0.520135	-0.000217
H119	H	0.621868	-0.565312	0.043678
H120	H	0.621895	-0.565293	-0.044134
H121	H	0.644461	-0.448908	-0.000210
C122	C	0.924501	-0.004792	0.174950
H123	H	0.952987	-0.024417	0.209892
H124	H	0.953372	0.012544	0.144010
H125	H	0.899596	-0.024874	0.144062
H126	H	0.184097	-0.017109	-0.000246
C127	C	0.723651	0.133610	0.658183
H128	H	0.730495	0.128889	0.605310
H129	H	0.730889	0.165856	0.671158
H130	H	0.677108	0.128442	0.671194
C131	C	0.924516	-0.004785	0.341366
H132	H	0.917666	-0.000065	0.394239
H133	H	0.971052	0.000388	0.328352
H134	H	0.917285	-0.037036	0.328399
C135	C	0.604043	0.159964	-0.000189
H136	H	0.566688	0.185871	-0.000194
H137	H	0.632111	0.162089	-0.044083
H138	H	0.632055	0.162082	0.043729
C139	C	0.723616	0.133601	0.341417
H140	H	0.730477	0.128887	0.394286
H141	H	0.677076	0.128431	0.328460
H142	H	0.730851	0.165850	0.328410
H143	H	0.495974	-0.013923	-0.000195
H144	H	0.464051	0.145923	-0.000216
C145	C	0.628591	-0.288766	-0.000210
H146	H	0.590349	-0.307494	-0.000200
H147	H	0.626239	-0.268846	-0.044110
H148	H	0.626223	-0.268861	0.043702
C149	C	0.961527	-0.193349	-0.000248
H150	H	0.999766	-0.174618	-0.000246
H151	H	0.963901	-0.213257	-0.044152
H152	H	0.963878	-0.213266	0.043660
H153	H	1.005046	-0.330816	-0.000272
C154	C	0.685078	-0.783695	-0.000221
H155	H	0.647490	-0.757950	-0.000220
H156	H	0.682129	-0.803124	0.043680
H157	H	0.682149	-0.803110	-0.044132
H158	H	1.003703	-0.422268	-0.000284
C159	C	0.686629	-0.677835	-0.000216
H160	H	0.648390	-0.696566	-0.000198
H161	H	0.684267	-0.657915	-0.044116
H162	H	0.684265	-0.657930	0.043695
H163	H	0.645328	-0.389107	-0.000221
H164	H	0.712400	-0.163101	-0.000170
C165	C	0.924540	-0.004786	0.658128
H166	H	0.953024	-0.024414	0.693068
H167	H	0.953413	0.012551	0.627192
H168	H	0.899635	-0.024866	0.627236
H169	H	0.737259	0.124181	0.186323
