data_functionalizedCrystal
_audit_creation_method	'MofGen! by Chris Wilmer'
_symmetry_space_group_name_H-M	'P1'
_symmetry_Int_Tables_number	1
_symmetry_cell_setting	triclinic
loop_
_symmetry_equiv_pos_as_xyz
  x,y,z
_cell_length_a	14.809436
_cell_length_b	27.440280
_cell_length_c	14.809374
_cell_angle_alpha	90.004513
_cell_angle_beta	60.797024
_cell_angle_gamma	67.423712
loop_
_atom_site_label
_atom_site_type_symbol
_atom_site_fract_x
_atom_site_fract_y
_atom_site_fract_z
Zr1	Zr	0.955127	0.538297	-0.203573
O2	O	1.113061	0.478595	-0.350749
O3	O	0.777356	0.548149	-0.145489
O4	O	0.926503	0.568082	-0.332028
O5	O	0.993412	0.452551	-0.031814
O6	O	0.926489	0.648283	-0.332010
O7	O	0.963914	0.458662	-0.164210
O8	O	0.659693	0.612627	0.001674
O9	O	1.260208	0.488207	-0.365498
O10	O	0.857813	0.622413	-0.136369
O11	O	0.879837	0.557999	-0.037577
O12	O	1.055438	0.581468	-0.257202
O13	O	1.077461	0.517054	-0.158410
Zr14	Zr	1.002150	0.656461	0.007613
Zr15	Zr	0.955106	0.666208	-0.203543
Zr16	Zr	1.002172	0.528550	0.007584
Zr17	Zr	1.189810	0.553627	-0.227096
Zr18	Zr	0.767468	0.641131	0.031136
O19	O	1.179922	0.646609	-0.050470
O20	O	1.113030	0.660469	-0.350707
O21	O	1.179953	0.464736	-0.050512
O22	O	0.844217	0.716163	0.154789
O23	O	0.777325	0.730022	-0.145448
O24	O	0.844247	0.534290	0.154748
O25	O	0.963866	0.742208	-0.164145
O26	O	1.030775	0.626676	0.136068
O27	O	1.030789	0.546476	0.136050
O28	O	0.993364	0.736096	-0.031749
O29	O	1.260191	0.589880	-0.365475
O30	O	0.697087	0.604879	0.169515
O31	O	0.697070	0.706551	0.169538
O32	O	0.659675	0.714299	0.001697
O33	O	1.297602	0.480460	-0.197657
O34	O	1.297585	0.582132	-0.197634
O35	O	0.901840	0.613291	0.061243
O36	O	0.879816	0.677705	-0.037549
O37	O	1.077441	0.636760	-0.158383
O38	O	1.099465	0.572346	-0.059591
C39	C	0.685087	0.578204	-0.068556
C40	C	0.585458	0.571696	-0.058570
C41	C	0.427160	0.594014	-0.092829
C42	C	0.530119	0.600748	-0.103136
C43	C	0.978666	0.437382	-0.098016
C44	C	0.978675	0.383080	-0.098029
C45	C	0.875466	0.067748	-0.034877
C46	C	0.875461	0.016729	-0.034867
O47	O	0.787736	0.008516	0.018805
N48	N	0.978618	-0.030161	-0.097942
C49	C	1.081788	-0.026031	-0.161022
O50	O	1.169530	-0.070599	-0.214670
C51	C	1.081793	0.024988	-0.161025
C52	C	0.978628	0.071877	-0.097954
C53	C	0.772309	0.114635	0.028190
C54	C	0.772315	0.165651	0.028178
C55	C	0.875476	0.169780	-0.034899
C56	C	0.978633	0.122892	-0.097965
C57	C	1.184963	0.029117	-0.224098
C58	C	1.184960	0.080141	-0.224095
C59	C	1.081794	0.127030	-0.161025
C60	C	1.081800	0.178037	-0.161054
N61	N	0.978643	0.224927	-0.097980
C62	C	0.875481	0.220798	-0.034902
C63	C	1.081769	-0.133171	-0.161010
C64	C	1.081764	-0.184189	-0.161013
C65	C	0.875437	-0.141426	-0.034857
C66	C	0.875442	-0.090407	-0.034860
C67	C	0.978613	-0.086281	-0.097935
C68	C	0.875500	0.327933	-0.034931
C69	C	0.875513	0.378952	-0.034951
C70	C	1.081841	0.336184	-0.161103
C71	C	1.081827	0.285170	-0.161087
C72	C	0.978648	0.281048	-0.097993
O73	O	1.169481	0.186291	-0.214695
O74	O	0.787756	0.265369	0.018748
C75	C	1.272191	0.616555	-0.127404
C76	C	1.371820	0.623063	-0.137390
C77	C	0.919793	0.609571	-0.362104
C78	C	0.899821	0.613709	-0.451746
C79	C	0.978612	0.757377	-0.097943
C80	C	0.978603	0.811678	-0.097931
C81	C	0.988953	0.595242	-0.551652
C82	C	0.968313	0.599519	-0.644302
C83	C	1.037485	0.585187	0.166145
C84	C	1.057456	0.581049	0.255786
C85	C	0.685060	0.738201	-0.068519
C86	C	0.585422	0.785995	-0.058521
C87	C	0.743933	0.566012	0.195568
C88	C	0.664276	0.555366	0.295196
C89	C	0.743906	0.726009	0.195605
C90	C	0.664240	0.769665	0.295245
C91	C	1.213372	0.468750	-0.391564
C92	C	1.293038	0.425094	-0.491204
C93	C	1.272218	0.456558	-0.127440
C94	C	1.371856	0.408764	-0.137439
C95	C	1.213345	0.628747	-0.391528
C96	C	1.293002	0.639393	-0.491155
C97	C	0.527143	0.779578	-0.105417
C98	C	0.433531	0.824482	-0.096043
C99	C	0.398195	0.875802	-0.039767
C100	C	0.456483	0.882218	0.007130
C101	C	0.550098	0.837315	-0.002250
C102	C	0.638356	0.579228	0.393574
C103	C	0.563524	0.569223	0.487191
C104	C	0.514608	0.535359	0.482429
C105	C	0.540535	0.511494	0.384041
C106	C	0.615372	0.521496	0.290425
C107	C	0.615331	0.823795	0.290468
C108	C	0.540488	0.864820	0.384081
C109	C	0.514547	0.851714	0.482470
C110	C	0.563464	0.797578	0.487244
C111	C	0.638313	0.756555	0.393631
C112	C	1.341958	0.370965	-0.486429
C113	C	1.416831	0.329941	-0.580045
C114	C	1.442776	0.343048	-0.678434
C115	C	1.393853	0.397183	-0.683207
C116	C	1.318988	0.438205	-0.589593
C117	C	1.430142	0.415182	-0.090552
C118	C	1.523775	0.370281	-0.099952
C119	C	1.559114	0.318961	-0.156232
C120	C	1.500822	0.312544	-0.203124
C121	C	1.407197	0.357446	-0.193730
C122	C	1.341896	0.673260	-0.486359
C123	C	1.416731	0.683273	-0.579960
C124	C	1.442678	0.659416	-0.678358
C125	C	1.393776	0.625548	-0.683151
C126	C	1.318935	0.615538	-0.589550
H127	H	0.558955	0.630607	-0.148916
H128	H	0.542424	0.588660	0.567293
O129	O	1.421840	0.411311	-0.789334
H130	H	1.462585	0.439263	-0.802192
H131	H	0.400660	0.652920	-0.183166
O132	O	1.538943	0.257191	-0.263825
H133	H	1.613832	0.227051	-0.262465
H134	H	0.453599	0.885123	0.558688
O135	O	0.643305	0.837944	0.184359
H136	H	0.616232	0.816915	0.145310
H137	H	0.500697	0.483921	0.380179
O138	O	1.110275	0.570104	-0.574099
H139	H	1.156176	0.593631	-0.620469
O140	O	0.547274	0.532134	0.002040
H141	H	0.619200	0.490618	-0.035658
O142	O	1.313994	0.356816	-0.380321
H143	H	1.219830	0.369925	-0.329128
H144	H	1.320784	0.692688	-0.406248
O145	O	1.523416	0.670207	-0.779313
H146	H	1.553063	0.697760	-0.759437
H147	H	1.503737	0.309639	-0.754653
O148	O	1.660088	0.270539	-0.166332
H149	H	1.728305	0.252710	-0.251683
H150	H	1.165829	0.246991	-0.212458
O151	O	1.178788	0.555910	-0.766677
H152	H	1.224696	0.513363	-0.813074
H153	H	0.398310	0.564162	-0.047043
H154	H	0.808233	0.632687	-0.434804
H155	H	0.542332	0.786915	0.567365
O156	O	1.421778	0.599812	-0.789284
H157	H	1.482047	0.612460	-0.853557
O158	O	0.691037	0.698169	0.398791
H159	H	0.660402	0.695952	0.482938
O160	O	0.433870	0.524583	0.583406
H161	H	0.424056	0.546874	0.652612
O162	O	1.586625	0.377206	-0.049357
H163	H	1.546299	0.420434	-0.008627
O164	O	0.764239	0.429527	0.033079
H165	H	0.692509	0.418080	0.076949
O166	O	0.691114	0.615751	0.398722
H167	H	0.660517	0.630654	0.482864
O168	O	0.487773	0.923202	0.378886
H169	H	0.513774	0.947452	0.412959
O170	O	1.469568	0.271555	-0.574884
H171	H	1.438921	0.269336	-0.490736
O172	O	0.418365	0.937572	0.067826
H173	H	0.393373	0.936320	0.151374
H174	H	1.279156	0.482279	-0.593493
H175	H	0.791482	0.324585	0.016447
O176	O	1.392051	0.470534	-0.029867
H177	H	1.448336	0.467446	0.001135
H178	H	1.359742	0.352212	-0.231909
O179	O	1.266217	0.579002	-0.594730
H180	H	1.296850	0.564092	-0.678881
O181	O	0.297223	0.924229	-0.029659
H182	H	0.282440	0.960997	0.017344
O183	O	1.469472	0.719801	-0.574779
H184	H	1.438867	0.734698	-0.490632
H185	H	0.688306	0.203826	0.079533
H186	H	0.555909	0.737795	-0.151255
O187	O	0.661031	0.110188	0.096216
H188	H	0.589310	0.151369	0.140054
O189	O	0.370665	0.817554	-0.146618
H190	H	0.410957	0.774322	-0.187306
H191	H	0.597539	0.842547	0.035945
H192	H	1.165831	0.339556	-0.212463
O193	O	0.846979	0.624655	-0.621835
H194	H	0.849808	0.624066	-0.698131
H195	H	0.791438	-0.052232	0.016507
O196	O	0.764165	-0.145882	0.033191
H197	H	0.781505	-0.189237	0.022601
H198	H	0.636463	0.502065	0.210326
H199	H	1.165788	-0.129818	-0.212378
O200	O	1.193030	-0.234760	-0.229052
H201	H	1.254647	-0.237734	-0.204757
O202	O	1.296236	-0.021449	-0.292120
H203	H	1.367962	-0.009997	-0.335964
H204	H	1.268978	0.083494	-0.275447
