data_functionalizedCrystal
_audit_creation_method	'MofGen! by Chris Wilmer'
_symmetry_space_group_name_H-M	'P1'
_symmetry_Int_Tables_number	1
_symmetry_cell_setting	triclinic
loop_
_symmetry_equiv_pos_as_xyz
  x,y,z
_cell_length_a	19.188905
_cell_length_b	19.188930
_cell_length_c	12.996460
_cell_angle_alpha	90.005414
_cell_angle_beta	90.013319
_cell_angle_gamma	83.139668
loop_
_atom_site_label
_atom_site_type_symbol
_atom_site_fract_x
_atom_site_fract_y
_atom_site_fract_z
O1	O	0.926158	0.087080	0.085748
O2	O	0.722844	0.098832	0.085714
O3	O	0.830369	-0.008700	0.085712
O4	O	0.818634	0.194612	0.085750
O5	O	0.830355	-0.008694	-0.085422
O6	O	0.722831	0.098838	-0.085420
O7	O	0.926144	0.087086	-0.085386
Cu8	Cu	0.824486	0.092963	-0.101029
Cu9	Cu	0.824503	0.092955	0.101357
O10	O	0.818620	0.194618	-0.085384
C11	C	0.696826	0.098458	0.000143
C12	C	0.619321	0.097324	0.000129
C13	C	0.582937	0.096776	0.093417
C14	C	0.510113	0.095703	0.093429
C15	C	0.473678	0.095164	0.000149
C16	C	0.510071	0.095716	-0.093151
C17	C	0.582892	0.096796	-0.093161
N18	N	0.364652	0.053738	-0.069278
N19	N	0.295475	0.052710	-0.069263
C20	C	0.254272	0.091911	0.000173
N21	N	0.284859	0.132170	0.069608
N22	N	0.354043	0.133194	0.069595
C23	C	0.394716	0.093993	0.000149
C24	C	0.138923	0.090201	0.093481
C25	C	0.066098	0.089132	0.093490
C26	C	0.066058	0.089138	-0.093093
C27	C	0.138881	0.090214	-0.093099
C28	C	0.175310	0.090742	0.000191
C29	C	0.829982	-0.034708	0.000142
C30	C	0.828841	-0.112213	0.000133
C31	C	0.891933	-0.157142	0.000138
C32	C	0.890861	-0.229966	0.000155
C33	C	0.826694	-0.257857	0.000145
C34	C	0.763594	-0.212917	0.000145
C35	C	0.764668	-0.140095	0.000139
N36	N	0.777641	-0.365855	-0.058103
N37	N	0.776626	-0.435034	-0.058100
C38	C	0.823456	-0.477265	0.000165
N39	N	0.871350	-0.447706	0.058414
N40	N	0.872368	-0.378521	0.058406
C41	C	0.825523	-0.336819	0.000152
C42	C	0.885390	-0.601159	0.000190
C43	C	0.884315	-0.673984	0.000213
C44	C	0.757047	-0.656933	0.000193
C45	C	0.758123	-0.584110	0.000180
C46	C	0.822296	-0.556228	0.000174
C47	C	0.952163	0.087460	0.000188
C48	C	1.029668	0.088594	0.000208
C49	C	0.819007	0.220626	0.000189
C50	C	0.820148	0.298131	0.000204
N51	N	0.824480	0.092967	-0.243376
C52	C	0.824483	0.092969	-0.336482
C53	C	0.824489	0.092965	-0.453287
C54	C	0.824498	0.092957	-0.546385
C55	C	0.824506	0.092953	-0.663198
N56	N	0.824515	0.092945	0.243704
H57	H	0.168506	0.090655	-0.169065
H58	H	0.480483	0.095258	0.169398
F59	F	0.697514	-0.092276	0.000134
H60	H	0.944187	-0.134445	0.000137
H61	H	0.036475	0.088690	0.169459
H62	H	0.168584	0.090638	0.169443
F63	F	0.951470	-0.721802	0.000225
H64	H	0.942239	-0.266555	0.000163
H65	H	0.480401	0.095279	-0.169101
F66	F	0.621616	0.097379	-0.192455
H67	H	0.711349	-0.235631	0.000139
F68	F	0.953688	-0.571482	0.000178
H69	H	0.704801	-0.679641	0.000190
F70	F	0.690971	-0.536291	0.000170
F71	F	0.027286	0.088570	-0.192370
H72	H	0.612592	0.097206	0.169381
