data_functionalizedCrystal
_audit_creation_method	'MofGen! by Chris Wilmer'
_symmetry_space_group_name_H-M	'P1'
_symmetry_Int_Tables_number	1
_symmetry_cell_setting	triclinic
loop_
_symmetry_equiv_pos_as_xyz
  x,y,z
_cell_length_a	16.109318
_cell_length_b	23.532407
_cell_length_c	14.586319
_cell_angle_alpha	89.987733
_cell_angle_beta	90.000075
_cell_angle_gamma	83.158655
loop_
_atom_site_label
_atom_site_type_symbol
_atom_site_fract_x
_atom_site_fract_y
_atom_site_fract_z
O1	O	1.102546	0.073249	-0.076182
O2	O	1.602546	0.573249	0.423818
O3	O	0.860414	0.082349	-0.076202
O4	O	1.360414	0.582349	0.423798
O5	O	0.988782	-0.005106	-0.076166
O6	O	1.488782	0.494894	0.423834
O7	O	0.974179	0.160703	-0.076218
O8	O	1.474179	0.660703	0.423782
O9	O	0.988773	-0.005107	0.076315
O10	O	1.488773	0.494893	0.576315
O11	O	0.860406	0.082347	0.076279
O12	O	1.360406	0.582347	0.576279
O13	O	1.102537	0.073248	0.076299
O14	O	1.602537	0.573248	0.576299
Cu15	Cu	0.981470	0.077797	0.090212
Cu16	Cu	1.481470	0.577797	0.590212
Cu17	Cu	0.981481	0.077799	-0.090115
Cu18	Cu	1.481481	0.577799	0.409885
O19	O	0.974170	0.160702	0.076263
O20	O	1.474170	0.660702	0.576263
C21	C	0.829438	0.081978	0.000036
C22	C	1.329438	0.581978	0.500036
C23	C	0.737152	0.080867	0.000029
C24	C	1.237152	0.580867	0.500029
C25	C	0.438112	0.077282	-0.083071
C26	C	0.938112	0.577282	0.416929
C27	C	0.524825	0.078321	-0.083077
C28	C	1.024825	0.578321	0.416923
C29	C	0.524834	0.078312	0.083166
C30	C	1.024834	0.578312	0.583166
C31	C	0.438123	0.077269	0.083171
C32	C	0.938123	0.577269	0.583171
C33	C	0.394764	0.076757	0.000050
C34	C	0.894764	0.576757	0.500050
C35	C	0.568188	0.078840	0.000039
C36	C	1.068188	0.578840	0.500039
C37	C	0.662206	0.079967	0.000033
C38	C	1.162206	0.579967	0.500033
C39	C	0.300740	0.075628	0.000055
C40	C	0.800740	0.575628	0.500055
C41	C	0.988405	-0.026324	0.000079
C42	C	1.488405	0.473676	0.500079
C43	C	0.987287	-0.089545	0.000093
C44	C	1.487287	0.410455	0.500093
C45	C	0.906712	-0.356013	0.000029
C46	C	1.406712	0.143987	0.500029
C47	C	0.907750	-0.296609	0.000036
C48	C	1.407750	0.203391	0.500036
O49	O	0.843830	-0.260103	0.000002
O50	O	1.343830	0.239897	0.500002
N51	N	0.984064	-0.273698	0.000053
N52	N	1.484064	0.226302	0.500053
C53	C	1.059345	-0.310195	0.000054
C54	C	1.559345	0.189805	0.500054
O55	O	1.124352	-0.285252	0.000068
O56	O	1.624352	0.214748	0.500068
C57	C	1.058305	-0.369598	0.000040
C58	C	1.558305	0.130402	0.500040
C59	C	0.981986	-0.392505	0.000033
C60	C	1.481986	0.107495	0.500033
C61	C	0.830398	-0.378921	0.000020
C62	C	1.330398	0.121079	0.500020
C63	C	0.829360	-0.438321	0.000015
C64	C	1.329360	0.061679	0.500015
C65	C	0.904635	-0.474813	0.000018
C66	C	1.404635	0.025187	0.500018
C67	C	0.980948	-0.451905	0.000027
C68	C	1.480948	0.048095	0.500027
C69	C	1.133585	-0.406093	0.000034
C70	C	1.633585	0.093907	0.500034
C71	C	1.132539	-0.465499	0.000020
C72	C	1.632539	0.034501	0.500020
C73	C	1.056220	-0.488407	0.000012
C74	C	1.556220	0.011593	0.500012
C75	C	1.055185	-0.547797	0.000025
C76	C	1.555185	-0.047797	0.500025
N77	N	0.978870	-0.570708	0.000008
N78	N	1.478870	-0.070708	0.500008
C79	C	0.903596	-0.534216	0.000005
C80	C	1.403596	-0.034216	0.500005
C81	C	1.061522	-0.185444	0.000081
C82	C	1.561522	0.314556	0.500081
C83	C	1.062562	-0.126042	0.000101
C84	C	1.562562	0.373958	0.500101
C85	C	0.910967	-0.112461	0.000082
C86	C	1.410967	0.387539	0.500082
C87	C	0.909928	-0.171864	0.000068
C88	C	1.409928	0.328136	0.500068
C89	C	0.985208	-0.208355	0.000064
C90	C	1.485208	0.291645	0.500064
C91	C	0.901421	-0.658961	-0.000006
C92	C	1.401421	-0.158961	0.499994
C93	C	0.900389	-0.718367	-0.000008
C94	C	1.400389	-0.218367	0.499992
C95	C	1.051984	-0.731943	0.000007
C96	C	1.551984	-0.231943	0.500007
C97	C	1.053016	-0.672543	0.000013
C98	C	1.553016	-0.172543	0.500013
C99	C	0.977728	-0.636052	0.000004
C100	C	1.477728	-0.136052	0.500004
O101	O	1.119071	-0.584338	0.000056
O102	O	1.619071	-0.084338	0.500056
O103	O	0.838600	-0.559167	-0.000022
O104	O	1.338600	-0.059167	0.499978
C105	C	1.133513	0.073619	0.000059
C106	C	1.633513	0.573619	0.500059
C107	C	1.225799	0.074729	0.000060
C108	C	1.725799	0.574729	0.500060
C109	C	0.974546	0.181920	0.000016
C110	C	1.474546	0.681920	0.500016
C111	C	0.975664	0.245141	-0.000004
C112	C	1.475664	0.745141	0.499996
N113	N	0.981469	0.077796	0.217043
N114	N	1.481469	0.577796	0.717043
N115	N	0.981489	0.077796	-0.216946
N116	N	1.481489	0.577796	0.283054
C117	C	1.038329	0.039084	0.452066
C118	C	1.538329	0.539084	0.952066
C119	C	1.038331	0.039083	0.548047
C120	C	1.538331	0.539083	1.048047
C121	C	0.924623	0.116509	0.548024
C122	C	1.424623	0.616509	1.048024
C123	C	0.924618	0.116508	0.452045
C124	C	1.424618	0.616508	0.952045
C125	C	0.981475	0.077796	0.404068
C126	C	1.481475	0.577796	0.904068
C127	C	0.981483	0.077796	0.596029
C128	C	1.481483	0.577796	1.096029
C129	C	0.981485	0.077795	0.700096
C130	C	1.481485	0.577795	1.200096
C131	C	0.981472	0.077796	0.299994
C132	C	1.481472	0.577796	0.799994
H133	H	0.560115	0.078749	-0.150762
H134	H	1.060115	0.578749	0.349238
H135	H	0.878332	0.148029	0.587096
H136	H	1.378332	0.648029	1.087096
Br137	Br	0.847447	0.169044	0.386897
Br138	Br	1.347447	0.669044	0.886897
H139	H	0.402811	0.076864	-0.150754
H140	H	0.902811	0.576864	0.349246
Br141	Br	0.799243	-0.609448	-0.000018
Br142	Br	1.299243	-0.109448	0.499982
H143	H	1.084624	0.007562	0.413006
H144	H	1.584624	0.507562	0.913006
H145	H	0.838239	-0.737015	-0.000010
H146	H	1.338239	-0.237015	0.499990
Br147	Br	0.583683	0.079012	0.195968
Br148	Br	1.083683	0.579012	0.695968
H149	H	1.122828	-0.215153	0.000084
H150	H	1.622828	0.284847	0.500084
H151	H	1.084626	0.007560	0.587125
H152	H	1.584626	0.507560	1.087125
Br153	Br	0.379289	0.076552	0.195986
Br154	Br	0.879289	0.576552	0.695986
H155	H	0.767213	-0.456967	0.000001
H156	H	1.267213	0.043033	0.500001
Br157	Br	0.728225	-0.329406	0.000012
Br158	Br	1.228225	0.170594	0.500012
Br159	Br	0.806349	-0.202946	0.000058
Br160	Br	1.306349	0.297054	0.500058
Br161	Br	0.808807	-0.062924	0.000080
Br162	Br	1.308807	0.437076	0.500080
H163	H	1.124709	-0.107397	0.000122
H164	H	1.624709	0.392603	0.500122
H165	H	1.195732	-0.387453	0.000040
H166	H	1.695732	0.112547	0.500040
Br167	Br	1.156593	-0.641452	0.000063
Br168	Br	1.656593	-0.141452	0.500063
Br169	Br	1.234711	-0.515021	0.000008
Br170	Br	1.734711	-0.015021	0.500008
H171	H	1.113271	-0.761665	0.000014
H172	H	1.613271	-0.261665	0.500014
