data_functionalizedCrystal
_audit_creation_method	'MofGen! by Chris Wilmer'
_symmetry_space_group_name_H-M	'P1'
_symmetry_Int_Tables_number	1
_symmetry_cell_setting	triclinic
loop_
_symmetry_equiv_pos_as_xyz
  x,y,z
_cell_length_a	12.759401
_cell_length_b	12.594516
_cell_length_c	12.759393
_cell_angle_alpha	90.027799
_cell_angle_beta	90.018734
_cell_angle_gamma	90.016214
loop_
_atom_site_label
_atom_site_type_symbol
_atom_site_fract_x
_atom_site_fract_y
_atom_site_fract_z
Zn1	Zn	1.606248	-0.423689	0.593999
Zn2	Zn	2.106248	0.076311	1.093999
Zn3	Zn	1.606137	-0.601704	0.418327
Zn4	Zn	2.106137	-0.101704	0.918327
Zn5	Zn	1.430549	-0.423740	0.418339
Zn6	Zn	1.930549	0.076260	0.918339
Zn7	Zn	1.430534	-0.601626	0.593968
Zn8	Zn	1.930534	-0.101626	1.093968
O9	O	1.518367	-0.512690	0.506158
O10	O	2.018367	-0.012690	1.006158
O11	O	1.753254	-0.447314	0.570704
O12	O	2.253254	0.052686	1.070704
O13	O	1.582805	-0.578151	0.271307
O14	O	2.082805	-0.078151	0.771307
O15	O	1.453908	-0.274788	0.441658
O16	O	1.953908	0.225212	0.941658
O17	O	1.753173	-0.578101	0.441638
O18	O	2.253173	-0.078101	0.941638
O19	O	1.582994	-0.274750	0.570715
O20	O	2.082994	0.225250	1.070715
O21	O	1.453801	-0.447402	0.271316
O22	O	1.953801	0.052598	0.771316
O23	O	1.283526	-0.447326	0.441628
O24	O	1.783526	0.052674	0.941628
O25	O	1.453883	-0.577968	0.740993
O26	O	1.953883	-0.077968	1.240993
O27	O	1.283515	-0.578018	0.570663
O28	O	1.783515	-0.078018	1.070663
O29	O	1.582979	-0.447238	0.741016
O30	O	2.082979	0.052762	1.241016
O31	O	1.582791	-0.750639	0.441608
O32	O	2.082791	-0.250639	0.941608
O33	O	1.453776	-0.750582	0.570651
O34	O	1.953776	-0.250582	1.070651
C35	C	1.245400	-0.512670	0.506144
C36	C	1.745400	-0.012670	1.006144
C37	C	1.128623	-0.512687	0.506163
C38	C	1.628623	-0.012687	1.006163
C39	C	1.073783	-0.580848	0.573240
C40	C	1.573783	-0.080848	1.073240
C41	C	0.964059	-0.580861	0.573251
C42	C	1.464059	-0.080861	1.073251
C43	C	0.964025	-0.444551	0.439099
C44	C	1.464025	0.055449	0.939099
C45	C	1.073747	-0.444533	0.439094
C46	C	1.573747	0.055467	0.939094
C47	C	1.128659	-0.649002	0.640308
C48	C	1.628659	-0.149002	1.140308
C49	C	1.073819	-0.717169	0.707390
C50	C	1.573819	-0.217169	1.207390
C51	C	0.964095	-0.717182	0.707402
C52	C	1.464095	-0.217182	1.207402
C53	C	0.909211	-0.649029	0.640331
C54	C	1.409211	-0.149029	1.140331
C55	C	1.518298	-0.789231	0.506148
C56	C	2.018298	-0.289231	1.006148
C57	C	1.518365	-0.907536	0.506179
C58	C	2.018365	-0.407536	1.006179
C59	C	1.448187	-0.976797	0.576316
C60	C	1.948187	-0.476797	1.076316
C61	C	1.422587	-1.047665	0.480449
C62	C	1.922587	-0.547665	0.980449
C63	C	1.544061	-1.047467	0.602062
C64	C	2.044061	-0.547467	1.102062
C65	C	1.492715	-0.976846	0.410261
C66	C	1.992715	-0.476846	0.910261
C67	C	1.614232	-0.976642	0.531938
C68	C	2.114232	-0.476642	1.031938
C69	C	1.588669	-1.047478	0.436006
C70	C	2.088669	-0.547478	0.936006
C71	C	1.792401	-0.512710	0.506173
C72	C	2.292401	-0.012710	1.006173
C73	C	1.909177	-0.512719	0.506179
C74	C	2.409177	-0.012719	1.006179
C75	C	1.518442	-0.512589	0.780192
C76	C	2.018442	-0.012589	1.280192
C77	C	1.518474	-0.512546	0.896968
C78	C	2.018474	-0.012546	1.396968
C79	C	1.518465	-0.235069	0.506192
C80	C	2.018465	0.264931	1.006192
C81	C	1.518507	-0.116763	0.506206
C82	C	2.018507	0.383237	1.006206
C83	C	1.518353	-0.512714	0.233191
C84	C	2.018353	-0.012714	0.733191
C85	C	1.518525	-0.512457	0.116415
C86	C	2.018525	-0.012457	0.616415
C87	C	1.585723	-0.444413	1.061569
C88	C	2.085723	0.055587	1.561569
C89	C	1.585700	-0.444460	0.951845
C90	C	2.085700	0.055540	1.451845
C91	C	1.451273	-0.580596	0.951822
C92	C	1.951273	-0.080596	1.451822
C93	C	1.451302	-0.580554	1.061544
C94	C	1.951302	-0.080554	1.561544
C95	C	1.652946	-0.376316	1.116440
C96	C	2.152946	0.123684	1.616440
C97	C	1.720148	-0.308266	1.061594
C98	C	2.220148	0.191734	1.561594
C99	C	1.720125	-0.308313	0.951870
C100	C	2.220125	0.191687	1.451870
C101	C	1.652900	-0.376410	0.896991
C102	C	2.152900	0.123590	1.396991
H103	H	1.118399	-0.389023	0.384482
H104	H	1.618399	0.110977	0.884482
F105	F	0.792432	-0.649039	0.640355
F106	F	1.292432	-0.149039	1.140355
F107	F	1.572392	-1.088019	0.708032
F108	F	2.072392	-0.588019	1.208032
H109	H	1.774851	-0.252911	0.907217
H110	H	2.274851	0.247089	1.407217
F111	F	1.245437	-0.648996	0.640299
F112	F	1.745437	-0.148996	1.140299
F113	F	0.905610	-0.372025	0.367722
F114	F	1.405610	0.127975	0.867722
H115	H	1.652896	-0.376451	0.807646
H116	H	2.152896	0.123549	1.307646
H117	H	1.652969	-0.376267	1.205782
H118	H	2.152969	0.123733	1.705782
H119	H	1.648077	-1.078317	0.376636
H120	H	2.148077	-0.578317	0.876636
H121	H	1.774885	-0.252831	1.106283
H122	H	2.274885	0.247169	1.606283
F123	F	0.905733	-0.789721	0.778802
F124	F	1.405733	-0.289721	1.278802
H125	H	1.396541	-0.636036	0.907131
H126	H	1.896541	-0.136036	1.407131
F127	F	1.370481	-0.936228	0.653730
F128	F	1.870481	-0.436228	1.153730
F129	F	1.379782	-0.652973	1.119918
F130	F	1.879782	-0.152973	1.619918
H131	H	1.695221	-0.945425	0.553750
H132	H	2.195221	-0.445425	1.053750
F133	F	1.464263	-0.936471	0.304258
F134	F	1.964263	-0.436471	0.804258
F135	F	1.132231	-0.789692	0.778772
F136	F	1.632231	-0.289692	1.278772
F137	F	1.316700	-1.088439	0.451975
F138	F	1.816700	-0.588439	0.951975
