data_functionalizedCrystal
_audit_creation_method	'MofGen! by Chris Wilmer'
_symmetry_space_group_name_H-M	'P1'
_symmetry_Int_Tables_number	1
_symmetry_cell_setting	triclinic
loop_
_symmetry_equiv_pos_as_xyz
  x,y,z
_cell_length_a	6.394984
_cell_length_b	11.026607
_cell_length_c	10.065875
_cell_angle_alpha	79.302338
_cell_angle_beta	99.046838
_cell_angle_gamma	97.540684
loop_
_atom_site_label
_atom_site_type_symbol
_atom_site_fract_x
_atom_site_fract_y
_atom_site_fract_z
O1	O	0.855562	1.640992	-0.113488
O2	O	0.755387	1.286156	-0.113491
O3	O	0.503305	1.468613	-0.113485
O4	O	1.107643	1.458534	-0.113494
O5	O	0.551621	1.433825	0.113502
O6	O	0.803702	1.251367	0.113497
O7	O	0.903877	1.606204	0.113499
Zn8	Zn	0.861461	1.423262	0.149537
Zn9	Zn	0.797803	1.469097	-0.149529
O10	O	1.155959	1.423746	0.113494
C11	C	0.761064	1.223268	0.000003
C12	C	0.705973	1.087712	0.000002
C13	C	0.858087	1.016232	-0.000001
C14	C	0.801152	0.876128	-0.000002
C15	C	1.448891	1.449214	0.000012
C16	C	1.210369	1.443140	0.000010
C17	C	0.898199	1.669092	0.000003
C18	C	0.953288	1.804649	-0.000005
N19	N	0.904907	1.391989	0.353642
N20	N	0.754343	1.500379	-0.353633
C21	C	0.812903	1.458209	0.421423
C22	C	0.846361	1.434150	0.578589
H23	H	0.628752	0.833612	-0.000035
Br24	Br	1.240631	0.875501	0.000017
Br25	Br	0.582360	1.624862	0.549178
Br26	Br	1.018923	1.309952	0.675782
H27	H	1.030470	1.058757	0.000004
Br28	Br	0.418653	1.016844	0.000021
H29	H	0.709356	1.532709	0.363101
H30	H	1.008436	1.317481	0.411966
