data_functionalizedCrystal
_audit_creation_method	'MofGen! by Chris Wilmer'
_symmetry_space_group_name_H-M	'P1'
_symmetry_Int_Tables_number	1
_symmetry_cell_setting	triclinic
loop_
_symmetry_equiv_pos_as_xyz
  x,y,z
_cell_length_a	12.645331
_cell_length_b	12.645330
_cell_length_c	12.759387
_cell_angle_alpha	90.029414
_cell_angle_beta	90.023088
_cell_angle_gamma	90.016671
loop_
_atom_site_label
_atom_site_type_symbol
_atom_site_fract_x
_atom_site_fract_y
_atom_site_fract_z
Zn1	Zn	1.620736	-0.422012	0.594087
Zn2	Zn	2.120736	0.077988	1.094087
Zn3	Zn	1.620616	-0.599314	0.418412
Zn4	Zn	2.120616	-0.099314	0.918412
Zn5	Zn	1.443449	-0.422062	0.418416
Zn6	Zn	1.943449	0.077938	0.918416
Zn7	Zn	1.443432	-0.599231	0.594043
Zn8	Zn	1.943432	-0.099231	1.094043
O9	O	1.532058	-0.510655	0.506240
O10	O	2.032058	-0.010655	1.006240
O11	O	1.769067	-0.445546	0.570800
O12	O	2.269067	0.054454	1.070800
O13	O	1.597071	-0.575857	0.271392
O14	O	2.097071	-0.075857	0.771392
O15	O	1.467024	-0.273708	0.441740
O16	O	1.967024	0.226292	0.941740
O17	O	1.768979	-0.575809	0.441733
O18	O	2.268979	-0.075809	0.941733
O19	O	1.597275	-0.273672	0.570805
O20	O	2.097275	0.226328	1.070805
O21	O	1.466908	-0.445631	0.271395
O22	O	1.966908	0.054369	0.771395
O23	O	1.295099	-0.445550	0.441697
O24	O	1.795099	0.054450	0.941697
O25	O	1.466995	-0.575667	0.741070
O26	O	1.966995	-0.075667	1.241070
O27	O	1.295087	-0.575715	0.570729
O28	O	1.795087	-0.075715	1.070729
O29	O	1.597259	-0.445465	0.741103
O30	O	2.097259	0.054535	1.241103
O31	O	1.597055	-0.747651	0.441690
O32	O	2.097055	-0.247651	0.941690
O33	O	1.466879	-0.747589	0.570725
O34	O	1.966879	-0.247589	1.070725
C35	C	1.256628	-0.510630	0.506209
C36	C	1.756628	-0.010630	1.006209
C37	C	1.138798	-0.510645	0.506221
C38	C	1.638798	-0.010645	1.006221
C39	C	0.971207	-0.428381	0.425495
C40	C	1.471207	0.071619	0.925495
C41	C	1.093766	-0.428594	0.425139
C42	C	1.593766	0.071406	0.925139
C43	C	1.094278	-0.622321	0.475979
C44	C	1.594278	-0.122321	0.975979
C45	C	0.971679	-0.621872	0.475429
C46	C	1.471679	-0.121872	0.975429
C47	C	0.971650	-0.482295	0.617502
C48	C	1.471650	0.017705	1.117502
C49	C	1.094256	-0.479800	0.616884
C50	C	1.594256	0.020200	1.116884
C51	C	1.531981	-0.786085	0.506225
C52	C	2.031981	-0.286085	1.006225
C53	C	1.532045	-0.903915	0.506254
C54	C	2.032045	-0.403915	1.006254
C55	C	1.450488	-1.071484	0.587681
C56	C	1.950488	-0.571484	1.087681
C57	C	1.450071	-0.948925	0.587419
C58	C	1.950071	-0.448925	1.087419
C59	C	1.501798	-0.948517	0.395531
C60	C	2.001798	-0.448517	0.895531
C61	C	1.501301	-1.071115	0.396025
C62	C	2.001301	-0.571115	0.896025
C63	C	1.644346	-1.071004	0.534653
C64	C	2.144346	-0.571004	1.034653
C65	C	1.643658	-0.948397	0.537074
C66	C	2.143658	-0.448397	1.037074
C67	C	1.808563	-0.510681	0.506271
C68	C	2.308563	-0.010681	1.006271
C69	C	1.926393	-0.510692	0.506284
C70	C	2.426393	-0.010692	1.006284
C71	C	1.532138	-0.510551	0.780273
C72	C	2.032138	-0.010551	1.280273
C73	C	1.532172	-0.510507	0.897050
C74	C	2.032172	-0.010507	1.397050
C75	C	1.532165	-0.234150	0.506278
C76	C	2.032165	0.265850	1.006278
C77	C	1.532210	-0.116320	0.506294
C78	C	2.032210	0.383680	1.006294
C79	C	1.532039	-0.510682	0.233272
C80	C	2.032039	-0.010682	0.733272
C81	C	1.532211	-0.510428	0.116496
C82	C	2.032211	-0.010428	0.616496
C83	C	1.667826	-0.374937	0.897104
C84	C	2.167826	0.125063	1.397104
C85	C	1.735667	-0.307136	0.951991
C86	C	2.235667	0.192864	1.451991
C87	C	1.735693	-0.307097	1.061713
C88	C	2.235693	0.192903	1.561713
C89	C	1.667868	-0.374864	1.116550
C90	C	2.167868	0.125136	1.616550
C91	C	1.600026	-0.442665	1.061662
C92	C	2.100026	0.057335	1.561662
C93	C	1.600010	-0.442699	0.951938
C94	C	2.100010	0.057301	1.451938
C95	C	1.464369	-0.578229	1.061609
C96	C	1.964369	-0.078229	1.561609
C97	C	1.464347	-0.578274	0.951887
C98	C	1.964347	-0.078274	1.451887
C99	C	1.396544	-0.645996	1.116445
C100	C	1.896544	-0.145996	1.616445
C101	C	1.328706	-0.713804	1.061558
C102	C	1.828706	-0.213804	1.561558
C103	C	1.328684	-0.713841	0.951829
C104	C	1.828684	-0.213841	1.451829
C105	C	1.396506	-0.646075	0.896999
C106	C	1.896506	-0.146075	1.396999
H107	H	1.124933	-0.646815	0.395547
H108	H	1.624933	-0.146815	0.895547
Cl109	Cl	1.667813	-0.374995	0.759167
Cl110	Cl	2.167813	0.125005	1.259167
Cl111	Cl	1.667893	-0.374804	1.254486
Cl112	Cl	2.167893	0.125196	1.754486
Cl113	Cl	1.140245	-0.300737	0.454401
Cl114	Cl	1.640245	0.199263	0.954401
Cl115	Cl	1.820963	-0.221844	1.130718
Cl116	Cl	2.320963	0.278156	1.630718
H117	H	1.367876	-1.102385	0.569132
H118	H	1.867876	-0.602385	1.069132
H119	H	1.420681	-0.917906	0.371073
H120	H	1.920681	-0.417906	0.871073
Cl121	Cl	0.925717	-0.300135	0.454441
Cl122	Cl	1.425717	0.199865	0.954441
H123	H	1.790887	-0.251959	0.907331
H124	H	2.290887	0.248041	1.407331
Cl125	Cl	1.396576	-0.645948	1.254382
Cl126	Cl	1.896576	-0.145948	1.754382
Cl127	Cl	0.923560	-0.457017	0.299000
Cl128	Cl	1.423560	0.042983	0.799000
H129	H	1.273483	-0.768969	1.106214
H130	H	1.773483	-0.268969	1.606214
Cl131	Cl	1.243386	-0.799076	0.882837
Cl132	Cl	1.743386	-0.299076	1.382837
Cl133	Cl	1.396488	-0.646120	0.759062
Cl134	Cl	1.896488	-0.146120	1.259062
Cl135	Cl	1.321720	-0.903781	0.558416
Cl136	Cl	1.821720	-0.403781	1.058416
H137	H	1.123044	-0.447364	0.342723
H138	H	1.623044	0.052636	0.842723
H139	H	1.705230	-1.099998	0.475375
H140	H	2.205230	-0.599998	0.975375
H141	H	0.943033	-0.645953	0.394123
H142	H	1.443033	-0.145953	0.894123
H143	H	1.469239	-1.100890	0.670050
H144	H	1.969239	-0.600890	1.170050
H145	H	1.123448	-0.685288	0.532976
H146	H	1.623448	-0.185288	1.032976
Cl147	Cl	0.925906	-0.719768	0.562307
Cl148	Cl	1.425906	-0.219768	1.062307
Cl149	Cl	0.923954	-0.358757	0.659963
Cl150	Cl	1.423954	0.141243	1.159963
Cl151	Cl	1.139208	-0.352928	0.652107
Cl152	Cl	1.639208	0.147072	1.152107
H153	H	1.419328	-1.099807	0.372001
H154	H	1.919328	-0.599807	0.872001
Cl155	Cl	0.926909	-0.574852	0.710439
Cl156	Cl	1.426909	-0.074852	1.210439
Cl157	Cl	1.479283	-0.902355	0.714177
Cl158	Cl	1.979283	-0.402355	1.214177
Cl159	Cl	1.141580	-0.565612	0.714792
Cl160	Cl	1.641580	-0.065612	1.214792
Cl161	Cl	1.589196	-1.116919	0.299202
Cl162	Cl	2.089196	-0.616919	0.799202
H163	H	1.671936	-1.101842	0.614020
H164	H	2.171936	-0.601842	1.114020
Cl165	Cl	1.590779	-0.903511	0.299344
Cl166	Cl	2.090779	-0.403511	0.799344
Cl167	Cl	1.742619	-0.901077	0.452225
Cl168	Cl	2.242619	-0.401077	0.952225
Cl169	Cl	1.678879	-0.903382	0.662883
Cl170	Cl	2.178879	-0.403382	1.162883
