data_functionalizedCrystal
_audit_creation_method	'MofGen! by Chris Wilmer'
_symmetry_space_group_name_H-M	'P1'
_symmetry_Int_Tables_number	1
_symmetry_cell_setting	triclinic
loop_
_symmetry_equiv_pos_as_xyz
  x,y,z
_cell_length_a	21.295417
_cell_length_b	18.050590
_cell_length_c	18.050582
_cell_angle_alpha	89.996382
_cell_angle_beta	89.973245
_cell_angle_gamma	89.982671
loop_
_atom_site_label
_atom_site_type_symbol
_atom_site_fract_x
_atom_site_fract_y
_atom_site_fract_z
Zn1	Zn	-0.250871	-1.135281	-0.419523
Zn2	Zn	0.082463	-0.801947	-0.086190
Zn3	Zn	0.415796	-0.468614	0.247143
Zn4	Zn	-0.356132	-1.135186	-0.295324
Zn5	Zn	-0.022799	-0.801853	0.038009
Zn6	Zn	0.310535	-0.468520	0.371342
Zn7	Zn	-0.250856	-1.011100	-0.295388
Zn8	Zn	0.082477	-0.677766	0.037946
Zn9	Zn	0.415810	-0.344433	0.371279
Zn10	Zn	-0.356082	-1.011043	-0.419513
Zn11	Zn	-0.022748	-0.677710	-0.086180
Zn12	Zn	0.310585	-0.344376	0.247154
O13	O	-0.303485	-1.073152	-0.357437
O14	O	0.029848	-0.739819	-0.024104
O15	O	0.363182	-0.406486	0.309229
O16	O	-0.264861	-1.239193	-0.403026
O17	O	0.068473	-0.905859	-0.069693
O18	O	0.401806	-0.572526	0.263641
O19	O	-0.342182	-1.118710	-0.191408
O20	O	-0.008848	-0.785377	0.141925
O21	O	0.324485	-0.452044	0.475258
O22	O	-0.162769	-1.027636	-0.311885
O23	O	0.170565	-0.694303	0.021448
O24	O	0.503898	-0.360969	0.354781
O25	O	-0.342196	-1.239123	-0.311778
O26	O	-0.008862	-0.905790	0.021556
O27	O	0.324471	-0.572457	0.354889
O28	O	-0.162779	-1.118871	-0.403087
O29	O	0.170554	-0.785538	-0.069754
O30	O	0.503887	-0.452204	0.263579
O31	O	-0.264836	-1.027545	-0.191455
O32	O	0.068497	-0.694211	0.141879
O33	O	0.401830	-0.360878	0.475212
O34	O	-0.264788	-0.907168	-0.311875
O35	O	0.068546	-0.573834	0.021458
O36	O	0.401879	-0.240501	0.354791
O37	O	-0.342110	-1.027539	-0.523439
O38	O	-0.008777	-0.694206	-0.190106
O39	O	0.324556	-0.360872	0.143228
O40	O	-0.342096	-0.907126	-0.403070
O41	O	-0.008763	-0.573793	-0.069736
O42	O	0.324570	-0.240459	0.263597
O43	O	-0.264812	-1.118816	-0.523447
O44	O	0.068521	-0.785482	-0.190113
O45	O	0.401855	-0.452149	0.143220
O46	O	-0.444215	-1.118655	-0.311767
O47	O	-0.110881	-0.785322	0.021566
O48	O	0.222452	-0.451988	0.354899
O49	O	-0.444178	-1.027447	-0.403008
O50	O	-0.110844	-0.694114	-0.069675
O51	O	0.222489	-0.360781	0.263658
C52	C	-0.303435	-0.880200	-0.357479
C53	C	0.029898	-0.546867	-0.024145
C54	C	0.363231	-0.213534	0.309188
C55	C	-0.303429	-0.797655	-0.357514
C56	C	0.029904	-0.464321	-0.024181
C57	C	0.363237	-0.130988	0.309152
C58	C	-0.345583	-0.598203	-0.406998
C59	C	-0.012250	-0.264869	-0.073664
C60	C	0.321083	0.068464	0.259669
C61	C	-0.288184	-0.548812	-0.425280
C62	C	0.045149	-0.215479	-0.091947
C63	C	0.378482	0.117854	0.241386
C64	C	-0.303459	-0.646524	-0.357485
C65	C	0.029874	-0.313191	-0.024152
C66	C	0.363207	0.020143	0.309181
C67	C	-0.360886	-0.548833	-0.339209
C68	C	-0.027553	-0.215500	-0.005876
C69	C	0.305781	0.117834	0.327457
C70	C	-0.303493	-0.500539	-0.357459
C71	C	0.029840	-0.167206	-0.024126
C72	C	0.363173	0.166128	0.309208
C73	C	-0.246030	-0.598221	-0.375803
C74	C	0.087303	-0.264888	-0.042470
C75	C	0.420637	0.068446	0.290863
C76	C	-0.318770	-0.598246	-0.289701
C77	C	0.014563	-0.264913	0.043632
C78	C	0.347897	0.068421	0.376966
C79	C	-0.261332	-0.548878	-0.307958
C80	C	0.072002	-0.215545	0.025376
C81	C	0.405335	0.117789	0.358709
C82	C	-0.303441	-0.730622	-0.357503
C83	C	0.029893	-0.397289	-0.024169
C84	C	0.363226	-0.063956	0.309164
C85	C	-0.303505	-0.416442	-0.357442
C86	C	0.029828	-0.083109	-0.024109
C87	C	0.363161	0.250224	0.309225
C88	C	-0.467037	-1.073055	-0.357396
C89	C	-0.133703	-0.739722	-0.024063
C90	C	0.199630	-0.406388	0.309271
C91	C	-0.537005	-1.073081	-0.357403
C92	C	-0.203672	-0.739748	-0.024070
C93	C	0.129662	-0.406415	0.309263
C94	C	-0.569870	-1.120615	-0.309943
C95	C	-0.236536	-0.787282	0.023390
C96	C	0.096797	-0.453949	0.356724
C97	C	-0.635612	-1.120650	-0.309960
C98	C	-0.302279	-0.787317	0.023374
C99	C	0.031054	-0.453984	0.356707
C100	C	-0.668487	-1.073138	-0.357429
C101	C	-0.335154	-0.739804	-0.024096
C102	C	-0.001821	-0.406471	0.309238
C103	C	-0.635614	-1.025600	-0.404899
C104	C	-0.302281	-0.692267	-0.071565
C105	C	0.031052	-0.358934	0.261768
C106	C	-0.569873	-1.025572	-0.404886
C107	C	-0.236540	-0.692239	-0.071553
C108	C	0.096793	-0.358905	0.261781
N109	N	-0.771741	-1.008171	-0.363105
N110	N	-0.438408	-0.674837	-0.029771
N111	N	-0.105074	-0.341504	0.303562
N112	N	-0.834192	-1.008200	-0.363112
N113	N	-0.500859	-0.674866	-0.029779
N114	N	-0.167526	-0.341533	0.303554
C115	C	-0.866562	-1.073221	-0.357471
C116	C	-0.533229	-0.739888	-0.024138
C117	C	-0.199895	-0.406554	0.309195
N118	N	-0.834121	-1.138214	-0.351808
N119	N	-0.500788	-0.804880	-0.018475
N120	N	-0.167454	-0.471547	0.314859
N121	N	-0.771664	-1.138184	-0.351796
N122	N	-0.438331	-0.804851	-0.018463
N123	N	-0.104997	-0.471517	0.314870
C124	C	-0.739773	-1.073163	-0.357448
C125	C	-0.406439	-0.739830	-0.024115
C126	C	-0.073106	-0.406497	0.309218
C127	C	-0.970713	-1.120797	-0.310027
C128	C	-0.637379	-0.787463	0.023307
C129	C	-0.304046	-0.454130	0.356640
C130	C	-1.036456	-1.120833	-0.310048
C131	C	-0.703123	-0.787499	0.023285
C132	C	-0.369790	-0.454166	0.356618
C133	C	-1.036457	-1.025776	-0.404984
C134	C	-0.703124	-0.692443	-0.071650
C135	C	-0.369790	-0.359110	0.261683
C136	C	-0.970715	-1.025747	-0.404966
C137	C	-0.637381	-0.692413	-0.071632
C138	C	-0.304048	-0.359080	0.261701
C139	C	-0.937846	-1.073256	-0.357483
C140	C	-0.604513	-0.739923	-0.024150
C141	C	-0.271180	-0.406589	0.309184
C142	C	-0.139295	-1.073270	-0.357495
C143	C	0.194038	-0.739937	-0.024161
C144	C	0.527372	-0.406604	0.309172
C145	C	-0.069327	-1.073321	-0.357519
C146	C	0.264007	-0.739987	-0.024186
C147	C	0.597340	-0.406654	0.309147
C148	C	-0.303457	-1.073181	-0.551143
C149	C	0.029876	-0.739848	-0.217810
C150	C	0.363209	-0.406515	0.115524
C151	C	-0.303445	-1.073194	-0.633689
C152	C	0.029888	-0.739861	-0.300355
C153	C	0.363221	-0.406527	0.032978
C154	C	-0.303527	-0.266858	-0.357408
C155	C	0.029807	0.066475	-0.024075
C156	C	0.363140	0.399809	0.309258
C157	C	-0.303522	-0.349404	-0.357428
C158	C	0.029811	-0.016070	-0.024095
C159	C	0.363144	0.317263	0.309239
C160	C	-0.345423	-1.023595	-0.833135
C161	C	-0.012089	-0.690262	-0.499802
C162	C	0.321244	-0.356929	-0.166469
C163	C	-0.360823	-1.091350	-0.882503
C164	C	-0.027490	-0.758017	-0.549170
C165	C	0.305843	-0.424683	-0.215837
C166	C	-0.303397	-1.073231	-0.784819
C167	C	0.029936	-0.739897	-0.451486
C168	C	0.363269	-0.406564	-0.118152
C169	C	-0.287979	-1.005513	-0.882533
C170	C	0.045354	-0.672180	-0.549199
C171	C	0.378687	-0.338847	-0.215866
C172	C	-0.303352	-1.073260	-0.930804
C173	C	0.029981	-0.739927	-0.597471
C174	C	0.363315	-0.406593	-0.264138
C175	C	-0.318828	-1.141021	-0.833100
C176	C	0.014505	-0.807687	-0.499767
C177	C	0.347839	-0.474354	-0.166433
C178	C	-0.245957	-1.055138	-0.833125
C179	C	0.087376	-0.721805	-0.499792
C180	C	0.420709	-0.388471	-0.166458
C181	C	-0.261336	-1.122939	-0.882471
C182	C	0.071997	-0.789606	-0.549138
C183	C	0.405331	-0.456273	-0.215804
C184	C	-0.303425	-1.073213	-0.700721
C185	C	0.029908	-0.739879	-0.367387
C186	C	0.363242	-0.406546	-0.034054
C187	C	-0.303324	-1.073286	-1.014901
C188	C	0.030009	-0.739952	-0.681568
C189	C	0.363342	-0.406619	-0.348234
C190	C	-0.303468	-1.073166	-0.164485
C191	C	0.029866	-0.739833	0.168848
C192	C	0.363199	-0.406500	0.502182
C193	C	-0.303302	-1.073298	-0.081940
C194	C	0.030031	-0.739964	0.251394
C195	C	0.363365	-0.406631	0.584727
H196	H	-0.197465	-0.619824	-0.391315
H197	H	0.135868	-0.286491	-0.057981
H198	H	0.469202	0.046842	0.275352
H199	H	-0.943954	-0.987037	-0.443609
H200	H	-0.610621	-0.653704	-0.110276
H201	H	-0.277288	-0.320370	0.223057
H202	H	-0.225777	-1.164975	-0.903997
H203	H	0.107556	-0.831642	-0.570663
H204	H	0.440889	-0.498309	-0.237330
F205	F	-0.335696	-0.626629	-0.214799
F206	F	-0.002363	-0.293295	0.118534
F207	F	0.330971	0.040038	0.451868
F208	F	-0.534895	-0.974978	-0.455402
F209	F	-0.201562	-0.641644	-0.122069
F210	F	0.131772	-0.308311	0.211265
H211	H	-0.543110	-1.159302	-0.271282
H212	H	-0.209777	-0.825969	0.062052
H213	H	0.123556	-0.492635	0.395385
H214	H	-1.063214	-1.159545	-0.271402
H215	H	-0.729880	-0.826212	0.061931
H216	H	-0.396547	-0.492879	0.395265
H217	H	-0.381146	-0.619863	-0.448913
H218	H	-0.047813	-0.286529	-0.115579
H219	H	0.285521	0.046804	0.217754
F220	F	-0.424344	-0.520476	-0.319018
F221	F	-0.091011	-0.187142	0.014315
F222	F	0.242322	0.146191	0.347649
F223	F	-1.071441	-0.975214	-0.455509
F224	F	-0.738107	-0.641880	-0.122176
F225	F	-0.404774	-0.308547	0.211158
H226	H	-0.662376	-1.159361	-0.271312
H227	H	-0.329043	-0.826027	0.062022
H228	H	0.004291	-0.492694	0.395355
F229	F	-0.270958	-0.930645	-0.910915
F230	F	0.062376	-0.597312	-0.577581
F231	F	0.395709	-0.263979	-0.244248
F232	F	-0.271270	-0.520430	-0.500191
F233	F	0.062063	-0.187097	-0.166858
F234	F	0.395396	0.146236	0.166475
F235	F	-0.214737	-0.520745	-0.253214
F236	F	0.118596	-0.187412	0.080119
F237	F	0.451930	0.145921	0.413452
F238	F	-0.670603	-0.975037	-0.455422
F239	F	-0.337270	-0.641704	-0.122088
F240	F	-0.003937	-0.308370	0.211245
F241	F	-0.182508	-1.035088	-0.804752
F242	F	0.150825	-0.701754	-0.471418
F243	F	0.484159	-0.368421	-0.138085
F244	F	-0.935729	-1.171359	-0.259492
F245	F	-0.602396	-0.838025	0.073841
F246	F	-0.269063	-0.504692	0.407175
H247	H	-0.331905	-1.198317	-0.811478
H248	H	0.001428	-0.864984	-0.478144
H249	H	0.334762	-0.531651	-0.144811
H250	H	-0.381009	-0.981660	-0.811473
H251	H	-0.047675	-0.648327	-0.478140
H252	H	0.285658	-0.314993	-0.144807
H253	H	-0.409380	-1.106670	-0.904193
H254	H	-0.076046	-0.773337	-0.570860
H255	H	0.257287	-0.440004	-0.237527
