data_functionalizedCrystal
_audit_creation_method	'MofGen! by Chris Wilmer'
_symmetry_space_group_name_H-M	'P1'
_symmetry_Int_Tables_number	1
_symmetry_cell_setting	triclinic
loop_
_symmetry_equiv_pos_as_xyz
  x,y,z
_cell_length_a	14.971486
_cell_length_b	19.288865
_cell_length_c	13.448316
_cell_angle_alpha	89.988163
_cell_angle_beta	89.998199
_cell_angle_gamma	83.375189
loop_
_atom_site_label
_atom_site_type_symbol
_atom_site_fract_x
_atom_site_fract_y
_atom_site_fract_z
O1	O	1.186458	0.090517	-0.082589
O2	O	0.925999	0.101357	-0.082618
O3	O	1.063755	-0.005169	-0.082583
O4	O	1.048703	0.197043	-0.082624
O5	O	1.063737	-0.005175	0.082801
O6	O	0.925982	0.101350	0.082766
O7	O	1.186441	0.090511	0.082794
Cu8	Cu	1.056210	0.095930	0.097881
Cu9	Cu	1.056230	0.095938	-0.097704
O10	O	1.048685	0.197036	0.082760
C11	C	0.892669	0.100869	0.000071
C12	C	0.793379	0.099416	0.000061
C13	C	1.063262	-0.031050	0.000112
C14	C	1.061808	-0.108158	0.000120
C15	C	0.735816	0.161997	0.000049
C16	C	0.642524	0.160628	0.000065
C17	C	0.606797	0.096677	0.000084
C18	C	0.664368	0.034092	0.000098
C19	C	0.757658	0.035461	0.000090
C20	C	0.469921	0.031241	0.000112
C21	C	0.376624	0.029871	0.000118
C22	C	0.354786	0.156407	0.000087
C23	C	0.448077	0.157777	0.000079
C24	C	0.505641	0.095191	0.000091
C25	C	1.142636	-0.152591	0.000134
C26	C	1.141271	-0.225043	0.000118
C27	C	1.059071	-0.253058	0.000109
C28	C	0.978232	-0.208615	0.000089
C29	C	0.979600	-0.136166	0.000095
C30	C	0.994447	-0.361558	0.058032
C31	C	0.993083	-0.434007	0.058032
C32	C	1.054848	-0.476517	0.000086
C33	C	1.117994	-0.446571	-0.057848
C34	C	1.119362	-0.374121	-0.057842
C35	C	1.057579	-0.331617	0.000101
C36	C	1.134201	-0.599511	0.000081
C37	C	1.132832	-0.671963	0.000059
C38	C	0.969791	-0.655535	0.000040
C39	C	0.971163	-0.583084	0.000052
C40	C	1.053370	-0.555077	0.000077
C41	C	1.219771	0.090999	0.000104
C42	C	1.319061	0.092452	0.000107
C43	C	1.049178	0.222918	0.000063
C44	C	1.050632	0.300026	0.000048
N45	N	1.056202	0.095924	0.235445
N46	N	1.056245	0.095938	-0.235269
C47	C	1.117219	0.048774	0.287501
C48	C	1.117224	0.048773	0.391604
C49	C	1.056217	0.095927	0.443650
C50	C	0.995193	0.143079	0.391587
C51	C	0.995184	0.143076	0.287486
C52	C	0.995218	0.143084	0.608567
C53	C	0.995228	0.143088	0.712675
C54	C	1.117258	0.048781	0.712686
C55	C	1.117249	0.048778	0.608584
C56	C	1.056227	0.095932	0.556529
H57	H	0.764896	0.214073	0.000033
H58	H	0.911305	-0.231430	0.000079
H59	H	1.201139	-0.576706	0.000097
C60	C	1.237867	-0.044425	0.381158
C61	C	1.184310	-0.003045	0.448824
H62	H	1.279290	-0.076411	0.416485
H63	H	1.200743	-0.069467	0.340577
H64	H	1.269901	-0.015457	0.340533
H65	H	1.152271	-0.032012	0.489444
H66	H	1.221439	0.022000	0.489422
C67	C	0.830419	-0.663820	-0.084999
C68	C	0.879435	-0.686320	0.000025
H69	H	0.774638	-0.682832	-0.085012
H70	H	0.819669	-0.614318	-0.084986
H71	H	0.863706	-0.679062	-0.142661
H72	H	0.846151	-0.671074	0.057688
H73	H	0.890182	-0.735833	0.000021
H74	H	1.166902	0.010379	0.245132
H75	H	1.168289	-0.481182	-0.105034
C76	C	0.630309	0.285839	0.000019
C77	C	0.579249	0.229419	0.000047
H78	H	0.591244	0.328309	0.000003
H79	H	0.667151	0.283742	0.057684
H80	H	0.667148	0.283735	-0.057663
H81	H	0.542415	0.231520	0.057733
H82	H	0.542391	0.231518	-0.057624
H83	H	1.207093	-0.261227	0.000125
H84	H	0.945524	0.181479	0.566187
H85	H	0.941662	-0.458383	0.105199
C86	C	0.838995	-0.323552	0.091675
C87	C	0.926546	-0.314832	0.121727
H88	H	0.797078	-0.294708	0.130998
H89	H	0.831374	-0.310876	0.023692
H90	H	0.829154	-0.370988	0.099972
H91	H	0.936389	-0.267397	0.113423
H92	H	0.934170	-0.327505	0.189727
H93	H	0.945515	0.181470	0.433968
C94	C	1.238773	-0.080637	-0.084866
C95	C	1.232998	-0.121806	0.000148
H96	H	1.294557	-0.061629	-0.084855
H97	H	1.234858	-0.108552	-0.142529
H98	H	1.190827	-0.043803	-0.084860
H99	H	1.280941	-0.158644	0.000138
H100	H	1.236922	-0.093890	0.057826
H101	H	1.166930	0.010386	0.566209
H102	H	0.516788	-0.019723	0.000124
H103	H	0.913778	-0.099988	0.000084
H104	H	0.905343	-0.546906	0.000046
C105	C	0.874573	0.236300	0.297925
C106	C	0.928117	0.194908	0.230262
H107	H	0.833170	0.268301	0.262596
H108	H	0.842524	0.207348	0.338542
H109	H	0.911714	0.261333	0.338515
H110	H	0.890976	0.169871	0.189676
H111	H	0.960168	0.223865	0.189628
C112	C	1.242686	-0.393807	-0.172399
C113	C	1.188758	-0.341203	-0.121530
H114	H	1.285522	-0.373483	-0.211724
H115	H	1.273074	-0.425186	-0.125812
H116	H	1.206033	-0.418422	-0.214171
H117	H	1.225411	-0.316591	-0.079752
H118	H	1.158368	-0.309812	-0.168122
C119	C	1.225858	-0.762992	0.085075
C120	C	1.221683	-0.720812	0.000068
H121	H	1.280709	-0.793152	0.085074
H122	H	1.223000	-0.734400	0.142743
H123	H	1.176700	-0.790038	0.085049
H124	H	1.270838	-0.693761	0.000098
H125	H	1.224549	-0.749406	-0.057615
H126	H	1.166945	0.010388	0.755076
H127	H	0.945549	0.181485	0.755046
H128	H	0.635272	-0.017978	0.000128
C129	C	0.307447	0.263842	-0.084958
C130	C	0.291516	0.225205	0.000076
H131	H	0.268380	0.306310	-0.084969
H132	H	0.368113	0.273805	-0.084961
H133	H	0.296635	0.237614	-0.142613
H134	H	0.302334	0.251431	0.057732
H135	H	0.230836	0.215243	0.000089
H136	H	0.477162	0.209852	0.000054
C137	C	0.366507	-0.078407	-0.084856
C138	C	0.337348	-0.040423	0.000146
H139	H	0.342262	-0.121805	-0.084833
H140	H	0.346731	-0.052638	-0.142527
H141	H	0.430306	-0.086550	-0.084844
H142	H	0.273549	-0.032276	0.000131
H143	H	0.357120	-0.066198	0.057832
H144	H	0.804527	-0.015498	0.000099
