data_functionalizedCrystal
_audit_creation_method	'MofGen! by Chris Wilmer'
_symmetry_space_group_name_H-M	'P1'
_symmetry_Int_Tables_number	1
_symmetry_cell_setting	triclinic
loop_
_symmetry_equiv_pos_as_xyz
  x,y,z
_cell_length_a	12.811457
_cell_length_b	15.995350
_cell_length_c	14.472311
_cell_angle_alpha	89.992543
_cell_angle_beta	95.428036
_cell_angle_gamma	83.769027
loop_
_atom_site_label
_atom_site_type_symbol
_atom_site_fract_x
_atom_site_fract_y
_atom_site_fract_z
O1	O	1.392659	0.112766	0.039868
O2	O	1.087078	0.125033	0.014259
O3	O	1.248222	-0.002959	0.027765
O4	O	1.231515	0.240758	0.026363
O5	O	1.248211	-0.002976	0.181446
O6	O	1.087068	0.125016	0.167940
O7	O	1.392649	0.112749	0.193549
Cu8	Cu	1.239857	0.118881	0.194777
Cu9	Cu	1.239870	0.118901	0.013031
O10	O	1.231505	0.240742	0.180044
C11	C	1.047969	0.124338	0.087823
C12	C	0.931452	0.122282	0.078058
C13	C	0.712495	0.118384	0.227271
C14	C	0.603017	0.116452	0.218101
C15	C	0.603018	0.116479	0.050548
C16	C	0.712496	0.118411	0.059719
C17	C	0.767230	0.119365	0.148083
C18	C	0.876709	0.121303	0.157252
C19	C	0.876709	0.121324	-0.010299
C20	C	0.767231	0.119392	-0.019470
C21	C	1.247526	-0.034165	0.104546
C22	C	1.245455	-0.127122	0.104367
C23	C	1.238019	-0.464896	0.103747
C24	C	1.123255	-0.417860	0.093784
C25	C	1.125326	-0.321162	0.094304
C26	C	1.241708	-0.297322	0.104054
C27	C	1.298307	-0.338213	0.196555
C28	C	1.295424	-0.434858	0.196387
C29	C	1.297807	-0.435190	0.021822
C30	C	1.297780	-0.338244	0.020660
C31	C	1.243798	-0.202618	0.104231
C32	C	1.235932	-0.559601	0.103576
C33	C	1.431758	0.113444	0.119984
C34	C	1.548274	0.115500	0.129743
C35	C	1.232201	0.271947	0.103261
C36	C	1.234271	0.364904	0.103434
N37	N	1.239856	0.118867	0.322608
C38	C	1.239873	0.118894	0.696701
C39	C	1.326378	0.050639	0.664756
C40	C	1.326152	0.050385	0.557649
C41	C	1.239866	0.118881	0.511109
C42	C	1.130361	0.099420	0.540823
C43	C	1.130873	0.098937	0.647987
C44	C	1.261887	0.206809	0.659050
C45	C	1.264373	0.206230	0.552130
C46	C	1.239854	0.118875	0.406220
C47	C	1.239877	0.118898	0.801589
N48	N	1.239883	0.118907	0.885202
H49	H	0.558437	0.115688	-0.021393
H50	H	1.407552	0.062030	0.538175
Cl51	Cl	0.781305	0.119595	0.338354
Cl52	Cl	1.304420	-0.050329	0.516271
H53	H	1.382650	-0.322587	0.022471
H54	H	1.080835	-0.292888	0.027667
Cl55	Cl	1.056157	-0.278385	0.185798
H56	H	1.110482	0.036020	0.512338
Cl57	Cl	0.698417	0.118165	-0.130549
Cl58	Cl	1.452482	0.068335	0.715079
Cl59	Cl	1.382544	0.235537	0.710849
H60	H	0.558455	0.115658	0.282584
Cl61	Cl	1.100920	-0.000071	0.684072
H62	H	1.064569	0.146741	0.668359
H63	H	1.254143	-0.453310	0.258531
Cl64	Cl	0.945523	0.122572	-0.109857
Cl65	Cl	1.052436	-0.446704	-0.009315
H66	H	1.382422	-0.466657	0.028320
Cl67	Cl	1.304979	-0.049510	0.704532
Cl68	Cl	1.052546	-0.448724	0.184196
Cl69	Cl	1.164497	0.285238	0.690027
Cl70	Cl	1.425506	-0.484200	0.213446
Cl71	Cl	1.430317	-0.315948	0.212659
Cl72	Cl	1.028576	0.174103	0.492985
Cl73	Cl	1.237602	-0.294620	0.292304
Cl74	Cl	1.388739	0.229025	0.523298
Cl75	Cl	1.173399	0.288371	0.503194
H76	H	1.260290	-0.455853	-0.047838
H77	H	0.921271	0.122085	0.229203
Cl78	Cl	1.234414	-0.295894	-0.084901
