data_functionalizedCrystal
_audit_creation_method	'MofGen! by Chris Wilmer'
_symmetry_space_group_name_H-M	'P1'
_symmetry_Int_Tables_number	1
_symmetry_cell_setting	triclinic
loop_
_symmetry_equiv_pos_as_xyz
  x,y,z
_cell_length_a	29.839135
_cell_length_b	10.686285
_cell_length_c	10.685314
_cell_angle_alpha	90.303498
_cell_angle_beta	94.345612
_cell_angle_gamma	85.633855
loop_
_atom_site_label
_atom_site_type_symbol
_atom_site_fract_x
_atom_site_fract_y
_atom_site_fract_z
Zn1	Zn	0.683670	-0.553620	-0.671213
Zn2	Zn	0.695089	-0.747359	-0.445389
Zn3	Zn	0.613828	-0.537621	-0.461444
Zn4	Zn	0.614713	-0.763339	-0.655089
O5	O	0.651825	-0.650485	-0.558284
O6	O	0.748051	-0.579328	-0.641286
O7	O	0.688719	-0.706154	-0.271970
O8	O	0.617943	-0.364199	-0.502737
O9	O	0.756441	-0.721667	-0.475374
O10	O	0.669256	-0.375953	-0.656854
O11	O	0.629017	-0.552061	-0.283765
O12	O	0.551079	-0.567555	-0.487103
O13	O	0.619451	-0.748902	-0.832777
O14	O	0.551729	-0.733389	-0.629373
O15	O	0.670113	-0.594822	-0.844623
O16	O	0.689577	-0.925024	-0.459739
O17	O	0.630525	-0.936764	-0.613805
C18	C	0.661397	-0.976412	-0.533308
C19	C	0.665533	-1.115849	-0.522665
C20	C	0.535104	-0.650471	-0.558231
C21	C	0.485170	-0.650498	-0.558236
C22	C	0.171154	-0.576499	-0.644783
C23	C	-0.016520	-0.576511	-0.644818
O24	O	-0.044502	-0.513561	-0.718346
N25	N	-0.035618	-0.650490	-0.558330
C26	C	-0.007795	-0.724465	-0.471821
O27	O	-0.028345	-0.787379	-0.398250
C28	C	0.179878	-0.724446	-0.471781
C29	C	0.198974	-0.650472	-0.558284
C30	C	0.190249	-0.502530	-0.731277
C31	C	0.237165	-0.502533	-0.731272
C32	C	0.264985	-0.576505	-0.644773
C33	C	0.245889	-0.650475	-0.558278
C34	C	0.207701	-0.798414	-0.385268
C35	C	0.254622	-0.798400	-0.385264
C36	C	0.273717	-0.724426	-0.471766
C37	C	0.320625	-0.724450	-0.471774
N38	N	0.339723	-0.650471	-0.558262
C39	C	0.311903	-0.576499	-0.644762
C40	C	-0.106326	-0.724472	-0.471850
C41	C	-0.153244	-0.724478	-0.471861
C42	C	-0.161966	-0.576522	-0.644857
C43	C	-0.115047	-0.576523	-0.644850
C44	C	-0.087228	-0.650493	-0.558338
C45	C	0.410430	-0.576512	-0.644745
C46	C	0.457350	-0.576525	-0.644735
C47	C	0.466068	-0.724476	-0.471736
C48	C	0.419152	-0.724468	-0.471749
C49	C	0.391333	-0.650476	-0.558259
O50	O	0.348634	-0.787356	-0.398275
O51	O	0.332462	-0.513573	-0.718304
C52	C	0.124238	-0.576496	-0.644788
C53	C	0.105142	-0.650465	-0.558294
C54	C	0.132962	-0.724438	-0.471795
C55	C	0.058224	-0.650472	-0.558305
C56	C	0.030404	-0.576500	-0.644805
C57	C	0.049502	-0.502521	-0.731293
C58	C	0.096418	-0.502524	-0.731288
C59	C	0.113864	-0.798417	-0.385306
C60	C	0.066948	-0.798409	-0.385319
C61	C	0.039128	-0.724437	-0.471819
C62	C	0.769002	-0.650500	-0.558338
C63	C	0.818936	-0.650506	-0.558360
C64	C	0.643607	-0.675429	-0.885491
C65	C	0.640105	-0.686059	-1.024927
C66	C	0.642227	-0.323287	-0.583385
C67	C	0.638137	-0.183855	-0.594082
C68	C	0.660034	-0.625547	-0.232357
C69	C	0.663613	-0.614564	-0.092949
H70	H	0.692149	-1.164304	-0.453365
H71	H	0.686413	-0.545210	-1.044513
H72	H	0.611519	-1.135406	-0.663369
O73	O	0.612930	-0.768965	-1.082552
C74	C	0.627217	-0.891587	-1.041048
H75	H	0.646924	-0.887009	-0.945686
H76	H	0.596553	-0.947506	-1.032362
H77	H	0.649724	-0.939400	-1.111534
H78	H	0.472895	-0.516286	-0.715180
H79	H	0.111961	-0.442285	-0.801726
O80	O	0.383431	-0.504792	-0.728953
C81	C	0.392590	-0.541925	-0.851813
H82	H	0.408272	-0.642624	-0.850284
H83	H	0.359872	-0.535940	-0.914646
H84	H	0.417033	-0.477238	-0.889855
O85	O	0.255637	-0.430544	-0.815338
C86	C	0.221014	-0.365282	-0.891691
H87	H	0.188728	-0.356967	-0.840651
H88	H	0.231324	-0.267487	-0.912795
H89	H	0.214994	-0.418615	-0.983367
H90	H	0.051405	-0.858660	-0.314880
H91	H	-0.184625	-0.516291	-0.715289
H92	H	0.167603	-0.442286	-0.801716
H93	H	-0.099503	-0.516284	-0.715286
H94	H	-0.168787	-0.784731	-0.401435
H95	H	0.136511	-0.858654	-0.314865
O96	O	-0.079370	-0.796452	-0.387762
C97	C	-0.106293	-0.861718	-0.311420
H98	H	-0.140893	-0.870048	-0.362478
H99	H	-0.089502	-0.959506	-0.290300
H100	H	-0.110256	-0.808378	-0.219751
O101	O	0.189233	-0.870296	-0.301109
C102	C	0.223857	-0.935588	-0.224786
H103	H	0.255897	-0.883865	-0.224488
H104	H	0.213171	-0.941266	-0.124905
H105	H	0.230499	-1.034429	-0.263248
H106	H	0.277270	-0.858634	-0.314812
H107	H	0.403604	-0.784720	-0.401325
H108	H	0.488727	-0.784706	-0.401313
O109	O	0.022428	-0.430841	-0.815367
C110	C	-0.004631	-0.508562	-0.890810
H111	H	-0.007755	-0.600180	-0.839134
H112	H	-0.039548	-0.458787	-0.911608
H113	H	0.011528	-0.529564	-0.982692
