data_functionalizedCrystal
_audit_creation_method	'MofGen! by Chris Wilmer'
_symmetry_space_group_name_H-M	'P1'
_symmetry_Int_Tables_number	1
_symmetry_cell_setting	triclinic
loop_
_symmetry_equiv_pos_as_xyz
  x,y,z
_cell_length_a	12.827893
_cell_length_b	16.625545
_cell_length_c	12.827885
_cell_angle_alpha	90.032834
_cell_angle_beta	90.019272
_cell_angle_gamma	90.025528
loop_
_atom_site_label
_atom_site_type_symbol
_atom_site_fract_x
_atom_site_fract_y
_atom_site_fract_z
Zn1	Zn	1.597596	-0.320963	0.590827
Zn2	Zn	1.597459	-0.455817	0.416078
Zn3	Zn	1.422837	-0.321002	0.416100
Zn4	Zn	1.422791	-0.455757	0.590777
O5	O	1.510171	-0.388385	0.503445
O6	O	1.743814	-0.338861	0.567657
O7	O	1.574257	-0.437976	0.269844
O8	O	1.446096	-0.208165	0.439308
O9	O	1.743713	-0.437937	0.439269
O10	O	1.574490	-0.208136	0.567679
O11	O	1.445963	-0.338928	0.269861
O12	O	1.276595	-0.338869	0.439260
O13	O	1.446018	-0.437835	0.737020
O14	O	1.276562	-0.437873	0.567595
O15	O	1.574446	-0.338802	0.737056
O16	O	1.574212	-0.568642	0.439222
O17	O	1.445885	-0.568598	0.567573
C18	C	1.238661	-0.388370	0.503426
C19	C	1.122508	-0.388382	0.503442
C20	C	1.070734	-0.437449	0.566848
C21	C	0.950684	-0.437464	0.566866
C22	C	1.510057	-0.597876	0.503413
C23	C	1.510104	-0.687497	0.503433
C24	C	1.510145	-0.760280	0.503454
C25	C	1.510206	-0.851588	0.503477
C26	C	1.510260	-0.924364	0.503490
C27	C	1.510320	-1.015679	0.503512
C28	C	1.782741	-0.388401	0.503466
C29	C	1.898894	-0.388408	0.503475
C30	C	1.510242	-0.388308	0.776016
C31	C	1.510272	-0.388275	0.892169
C32	C	1.510313	-0.178076	0.503501
C33	C	1.510374	-0.088455	0.503525
C34	C	1.510160	-0.388404	0.231935
C35	C	1.510332	-0.388210	0.115783
C36	C	1.573829	-0.339261	0.943972
C37	C	1.573862	-0.339225	1.064022
H38	H	1.077956	-0.346382	0.449175
Br39	Br	1.419639	-0.458164	1.041546
H40	H	0.943412	-0.346401	0.449184
Br41	Br	1.664456	-0.269335	0.869769
H42	H	1.455876	-0.430206	0.936696
Br43	Br	1.144978	-0.507454	0.657306
Br44	Br	0.876481	-0.507491	0.657341
H45	H	1.628279	-0.297265	1.108571
