data_functionalizedCrystal
_audit_creation_method	'MofGen! by Chris Wilmer'
_symmetry_space_group_name_H-M	'P1'
_symmetry_Int_Tables_number	1
_symmetry_cell_setting	triclinic
loop_
_symmetry_equiv_pos_as_xyz
  x,y,z
_cell_length_a	9.065215
_cell_length_b	8.597304
_cell_length_c	8.140239
_cell_angle_alpha	97.703054
_cell_angle_beta	90.000939
_cell_angle_gamma	85.172303
loop_
_atom_site_label
_atom_site_type_symbol
_atom_site_fract_x
_atom_site_fract_y
_atom_site_fract_z
O1	O	1.960826	0.230146	0.169162
O2	O	2.460826	0.730146	0.669162
O3	O	1.531576	0.249030	0.171842
O4	O	2.031576	0.749030	0.671842
O5	O	1.754649	0.011241	0.138178
O6	O	2.254649	0.511241	0.638178
O7	O	1.737753	0.467935	0.202826
O8	O	2.237753	0.967935	0.702826
O9	O	1.754642	0.011239	-0.135049
O10	O	2.254642	0.511239	0.364951
O11	O	1.531569	0.249028	-0.101386
O12	O	2.031569	0.749028	0.398614
O13	O	1.960819	0.230144	-0.104065
O14	O	2.460819	0.730144	0.395935
Zn15	Zn	1.746193	0.239586	-0.146106
Zn16	Zn	2.246193	0.739586	0.353894
Zn17	Zn	1.746202	0.239588	0.213883
Zn18	Zn	2.246202	0.739588	0.713883
O19	O	1.737746	0.467933	-0.070402
O20	O	2.237746	0.967933	0.429598
C21	C	1.476582	0.247215	0.034972
C22	C	1.976582	0.747215	0.534972
C23	C	1.312729	0.241792	0.034207
C24	C	1.812729	0.741792	0.534207
C25	C	1.752831	-0.047257	-0.006713
C26	C	2.252831	0.452743	0.493287
C27	C	1.747407	-0.221561	-0.031376
C28	C	2.247407	0.278439	0.468624
C29	C	2.015813	0.231959	0.032808
C30	C	2.515813	0.731959	0.532808
C31	C	2.179666	0.237382	0.033583
C32	C	2.679666	0.737382	0.533583
C33	C	1.739564	0.526431	0.074493
C34	C	2.239564	1.026431	0.574493
C35	C	1.744988	0.700735	0.099167
C36	C	2.244988	1.200735	0.599167
N37	N	1.746197	0.239583	-0.391789
N38	N	2.246197	0.739583	0.108211
N39	N	1.746210	0.239578	0.459564
N40	N	2.246210	0.739578	0.959564
H41	H	1.747062	-0.232444	0.229808
H42	H	2.247062	0.267556	0.729808
H43	H	1.745311	-0.288387	-0.162025
H44	H	2.245311	0.211613	0.337975
