data_functionalizedCrystal
_audit_creation_method	'MofGen! by Chris Wilmer'
_symmetry_space_group_name_H-M	'P1'
_symmetry_Int_Tables_number	1
_symmetry_cell_setting	triclinic
loop_
_symmetry_equiv_pos_as_xyz
  x,y,z
_cell_length_a	10.654562
_cell_length_b	15.995292
_cell_length_c	9.130313
_cell_angle_alpha	90.001944
_cell_angle_beta	89.996930
_cell_angle_gamma	83.979360
loop_
_atom_site_label
_atom_site_type_symbol
_atom_site_fract_x
_atom_site_fract_y
_atom_site_fract_z
O1	O	1.666251	0.117652	-0.121884
O2	O	1.300625	0.128846	-0.121865
O3	O	1.493471	0.001417	-0.121877
O4	O	1.473405	0.245082	-0.121872
O5	O	1.493468	0.001420	0.121722
O6	O	1.300622	0.128849	0.121734
O7	O	1.666249	0.117656	0.121715
Cu8	Cu	1.483435	0.123253	0.143967
Cu9	Cu	1.483438	0.123249	-0.144117
O10	O	1.473403	0.245085	0.121727
C11	C	1.253837	0.128024	-0.000063
C12	C	1.114427	0.125558	-0.000056
C13	C	1.048911	0.124410	0.132718
C14	C	0.917920	0.122100	0.132693
C15	C	0.917972	0.122090	-0.132891
C16	C	1.048962	0.124394	-0.132865
C17	C	1.048879	0.124419	0.286052
C18	C	0.917887	0.122109	0.286027
C19	C	1.492653	-0.029782	-0.000082
C20	C	1.490204	-0.122749	-0.000092
C21	C	1.481204	-0.460540	-0.000079
C22	C	1.620395	-0.436415	0.000458
C23	C	1.623040	-0.339724	-0.000096
C24	C	1.485670	-0.292958	-0.000085
C25	C	1.416082	-0.322467	-0.139183
C26	C	1.414407	-0.419268	-0.139294
C27	C	1.411562	-0.419137	0.137723
C28	C	1.416720	-0.322615	0.139556
C29	C	1.488187	-0.198247	-0.000093
C30	C	1.478683	-0.555251	-0.000080
C31	C	1.713037	0.118478	-0.000090
C32	C	1.852446	0.120944	-0.000107
C33	C	1.474221	0.276284	-0.000072
C34	C	1.476669	0.369251	-0.000071
N35	N	1.483442	0.123255	0.346589
N36	N	1.483441	0.123240	-0.346740
C37	C	1.568856	0.066849	0.423236
C38	C	1.568853	0.066839	0.576573
C39	C	1.398018	0.179649	0.576603
C40	C	1.398016	0.179654	0.423269
C41	C	1.667490	0.001721	0.423220
C42	C	1.667487	0.001711	0.576556
H43	H	0.889115	0.061044	0.333605
C44	C	1.696667	-0.313589	0.134606
N45	N	1.752130	-0.293908	0.236066
H46	H	0.870827	0.179977	0.344893
C47	C	1.304053	0.241683	0.660965
N48	N	1.233275	0.288409	0.724505
H49	H	1.309107	-0.433726	0.138669
C50	C	1.797575	0.021160	0.632779
N51	N	1.895542	0.035834	0.675125
C52	C	1.692881	-0.473819	0.135216
N53	N	1.747478	-0.501997	0.236720
C54	C	1.304151	0.241770	0.338963
N55	N	1.233486	0.288584	0.275465
C56	C	1.627350	-0.080446	0.640798
N57	N	1.597110	-0.142324	0.689187
H58	H	1.758401	0.022117	0.375657
H59	H	1.095912	0.066554	0.344933
H60	H	1.646908	-0.062638	0.381599
H61	H	1.102304	0.125316	-0.240983
H62	H	1.312351	-0.434414	-0.145588
H63	H	1.673748	-0.465123	-0.098741
H64	H	1.314996	-0.291190	-0.144346
H65	H	0.864655	0.121142	-0.241020
H66	H	1.077636	0.185487	0.333629
C67	C	1.697097	-0.314426	-0.135050
N68	N	1.752877	-0.295372	-0.236706
C69	C	1.470472	-0.456961	0.280158
N70	N	1.514859	-0.485451	0.387433
C71	C	1.485142	-0.297103	0.278580
N72	N	1.536672	-0.277874	0.383290
C73	C	1.481374	-0.294997	-0.279043
N74	N	1.530561	-0.274310	-0.384383
C75	C	1.281259	-0.278869	0.150915
N76	N	1.179224	-0.245921	0.159459
C77	C	1.479535	-0.455121	-0.279764
N78	N	1.528599	-0.482122	-0.385565
