data_functionalizedCrystal
_audit_creation_method	'MofGen! by Chris Wilmer'
_symmetry_space_group_name_H-M	'P1'
_symmetry_Int_Tables_number	1
_symmetry_cell_setting	triclinic
loop_
_symmetry_equiv_pos_as_xyz
  x,y,z
_cell_length_a	18.215407
_cell_length_b	19.805405
_cell_length_c	18.215399
_cell_angle_alpha	90.028795
_cell_angle_beta	89.980167
_cell_angle_gamma	89.971825
loop_
_atom_site_label
_atom_site_type_symbol
_atom_site_fract_x
_atom_site_fract_y
_atom_site_fract_z
Zn1	Zn	1.125057	0.269462	-0.416112
Zn2	Zn	1.124960	0.382653	-0.293043
Zn3	Zn	1.001990	0.269484	-0.293059
Zn4	Zn	1.001950	0.382615	-0.416068
O5	O	1.063489	0.326054	-0.354571
O6	O	1.228029	0.284484	-0.399798
O7	O	1.108623	0.367666	-0.190061
O8	O	1.018373	0.174765	-0.309407
O9	O	1.227957	0.367644	-0.309380
O10	O	1.108790	0.174748	-0.399813
O11	O	1.018278	0.284521	-0.190073
O12	O	0.899000	0.284485	-0.309365
O13	O	1.018304	0.367580	-0.519058
O14	O	0.898971	0.367602	-0.399739
O15	O	1.108751	0.284447	-0.519090
O16	O	1.108584	0.477365	-0.309338
O17	O	1.018210	0.477337	-0.399724
C18	C	0.872283	0.326042	-0.354549
C19	C	0.790484	0.326053	-0.354558
C20	C	0.602294	0.369400	-0.401557
C21	C	0.525435	0.369403	-0.401566
C22	C	0.525436	0.282719	-0.307600
C23	C	0.602294	0.282714	-0.307595
C24	C	0.640721	0.326059	-0.354573
C25	C	0.487004	0.326066	-0.354587
C26	C	0.403671	0.326068	-0.354596
C27	C	0.724060	0.326056	-0.354564
C28	C	1.063402	0.501910	-0.354541
C29	C	1.063432	0.577142	-0.354553
C30	C	1.110535	0.612478	-0.307540
C31	C	1.110565	0.683166	-0.307558
C32	C	1.063487	0.718517	-0.354587
C33	C	1.016382	0.683176	-0.401606
C34	C	1.016356	0.612489	-0.401590
C35	C	1.016483	0.968249	-0.401670
C36	C	1.016510	1.038941	-0.401681
C37	C	1.110691	1.038927	-0.307638
C38	C	1.110666	0.968239	-0.307623
C39	C	1.063564	0.932905	-0.354644
C40	C	1.063534	0.856256	-0.354624
C41	C	1.063513	0.795164	-0.354604
C42	C	1.255442	0.326066	-0.354592
C43	C	1.337241	0.326071	-0.354601
C44	C	1.063534	0.326007	-0.546524
C45	C	1.063553	0.325987	-0.628322
C46	C	1.063591	1.149511	-0.354625
C47	C	1.063618	1.074279	-0.354670
C48	C	1.110666	0.282659	-0.816534
C49	C	1.110674	0.282639	-0.893393
C50	C	1.016493	0.369210	-0.893349
C51	C	1.016481	0.369226	-0.816491
C52	C	1.063571	0.325952	-0.778086
C53	C	1.063592	0.325916	-0.931802
C54	C	1.063601	0.325895	-1.015136
C55	C	1.063561	0.325972	-0.694747
C56	C	1.063487	0.326051	-0.163364
C57	C	1.063610	0.325880	-0.081566
H58	H	0.494140	0.247431	-0.269352
F59	F	0.966282	0.720801	-0.451662
F60	F	0.966350	0.415303	-0.775570
H61	H	0.633582	0.247416	-0.269335
H62	H	1.149008	0.247420	-0.785267
H63	H	0.978155	0.404444	-0.924628
F64	F	0.966402	1.076563	-0.451739
H65	H	0.633579	0.404693	-0.439810
F66	F	1.160638	0.574861	-0.257479
F67	F	1.160804	0.236566	-0.934309
F68	F	0.484542	0.415532	-0.451575
H69	H	1.148920	0.711934	-0.269275
H70	H	1.148998	0.939459	-0.269325
F71	F	1.160825	1.076538	-0.257597
H72	H	0.978130	0.939485	-0.439955
H73	H	0.978001	0.583719	-0.439874
