data_functionalizedCrystal
_audit_creation_method	'MofGen! by Chris Wilmer'
_symmetry_space_group_name_H-M	'P1'
_symmetry_Int_Tables_number	1
_symmetry_cell_setting	triclinic
loop_
_symmetry_equiv_pos_as_xyz
  x,y,z
_cell_length_a	18.050591
_cell_length_b	18.050583
_cell_length_c	12.759394
_cell_angle_alpha	90.033582
_cell_angle_beta	89.989157
_cell_angle_gamma	89.977979
loop_
_atom_site_label
_atom_site_type_symbol
_atom_site_fract_x
_atom_site_fract_y
_atom_site_fract_z
Zn1	Zn	1.135370	-0.420045	0.418303
Zn2	Zn	1.135307	-0.295861	0.594026
Zn3	Zn	1.011187	-0.295856	0.418349
Zn4	Zn	1.011166	-0.419997	0.593928
O5	O	1.073257	-0.357940	0.506152
O6	O	1.239286	-0.403594	0.441635
O7	O	1.118825	-0.191936	0.570782
O8	O	1.027695	-0.312349	0.271322
O9	O	1.239240	-0.312357	0.570737
O10	O	1.118931	-0.403590	0.271288
O11	O	1.027634	-0.191932	0.441713
O12	O	0.907259	-0.312302	0.441619
O13	O	1.027659	-0.523928	0.570571
O14	O	0.907244	-0.403507	0.570616
O15	O	1.118911	-0.523964	0.441540
O16	O	1.118805	-0.312310	0.741034
O17	O	1.027599	-0.403511	0.740962
C18	C	0.880305	-0.357899	0.506113
C19	C	0.797759	-0.357899	0.506121
C20	C	0.598295	-0.308416	0.435891
C21	C	0.548891	-0.290143	0.531722
C22	C	0.646629	-0.357932	0.506153
C23	C	0.548952	-0.376203	0.410355
C24	C	0.500644	-0.357964	0.506175
C25	C	0.598312	-0.339624	0.602035
C26	C	0.598377	-0.425716	0.480602
C27	C	0.548995	-0.407469	0.576500
C28	C	0.730727	-0.357913	0.506139
C29	C	0.416547	-0.357983	0.506200
C30	C	1.073290	-0.551646	0.506039
C31	C	1.073304	-0.634191	0.505992
C32	C	1.122977	-0.833662	0.435791
C33	C	1.055239	-0.883049	0.410070
C34	C	1.073334	-0.785322	0.505974
C35	C	1.141099	-0.883017	0.531628
C36	C	1.073369	-0.931307	0.505954
C37	C	1.005560	-0.833622	0.480204
C38	C	1.091466	-0.833585	0.601806
C39	C	1.023681	-0.882950	0.576122
C40	C	1.073315	-0.701224	0.505982
C41	C	1.073380	-1.015404	0.505946
C42	C	1.266963	-0.357982	0.506192
C43	C	1.349509	-0.357999	0.506209
C44	C	1.073213	-0.357922	0.779119
C45	C	1.073262	-0.357939	0.895896
C46	C	1.073267	-0.164988	0.506188
C47	C	1.073397	-0.082442	0.505939
C48	C	1.073322	-0.357974	0.232118
C49	C	1.073350	-0.357989	0.115341
C50	C	1.168306	-0.263042	0.895917
C51	C	1.215847	-0.215602	0.950789
C52	C	1.215890	-0.215622	1.060510
C53	C	1.168389	-0.263089	1.115363
C54	C	1.120848	-0.310529	1.060491
C55	C	1.120808	-0.310502	0.950767
C56	C	1.025809	-0.405429	1.060470
C57	C	1.025760	-0.405406	0.950748
C58	C	0.978307	-0.452895	1.115323
C59	C	0.930761	-0.500333	1.060451
C60	C	0.930719	-0.500310	0.950723
C61	C	0.978219	-0.452846	0.895877
H62	H	0.527231	-0.391619	0.329341
N63	N	0.627195	-0.501606	0.451911
H64	H	0.683143	-0.501142	0.452792
H65	H	0.608428	-0.539129	0.504244
N66	N	1.178502	-0.804992	0.357136
H67	H	1.164718	-0.822988	0.284756
H68	H	1.178410	-0.749046	0.358258
N69	N	1.034928	-0.911826	0.302713
H70	H	1.072442	-0.893902	0.249752
H71	H	1.034606	-0.967771	0.303766
H72	H	1.168265	-0.263011	0.806576
H73	H	1.254524	-0.176956	0.906118
N74	N	0.929644	-0.805011	0.451328
H75	H	0.930104	-0.749059	0.451484
H76	H	0.915894	-0.823495	0.379186
H77	H	1.254606	-0.176996	1.105186
N78	N	1.168442	-0.263121	1.233704
H79	H	1.205770	-0.225868	1.260142
H80	H	1.117491	-0.249450	1.260126
H81	H	0.978349	-0.452912	1.204664
N82	N	0.879536	-0.551528	1.119610
H83	H	0.886781	-0.544345	1.197444
H84	H	0.826495	-0.539913	1.100509
N85	N	0.626986	-0.252895	0.357275
H86	H	0.608260	-0.266156	0.285077
H87	H	0.608978	-0.201737	0.376818
N88	N	0.879445	-0.551482	0.891543
H89	H	0.849364	-0.581552	0.942944
H90	H	0.845073	-0.521212	0.846094
H91	H	1.106812	-0.811844	0.682834
N92	N	0.968030	-0.911438	0.654728
H93	H	0.929949	-0.942957	0.617653
H94	H	0.994358	-0.942198	0.709338
N95	N	0.520098	-0.214233	0.560381
H96	H	0.537674	-0.176921	0.506925
H97	H	0.464158	-0.215105	0.561451
N98	N	0.626903	-0.319084	0.709395
H99	H	0.682855	-0.319177	0.708716
H100	H	0.608411	-0.268072	0.728797
H101	H	1.198392	-0.904717	0.553332
N102	N	0.978177	-0.452816	0.777535
H103	H	0.991792	-0.503768	0.751026
H104	H	0.927218	-0.439081	0.751258
N105	N	0.520495	-0.462957	0.655299
H106	H	0.538548	-0.449073	0.727607
H107	H	0.464548	-0.462949	0.654358
