data_functionalizedCrystal
_audit_creation_method	'MofGen! by Chris Wilmer'
_symmetry_space_group_name_H-M	'P1'
_symmetry_Int_Tables_number	1
_symmetry_cell_setting	triclinic
loop_
_symmetry_equiv_pos_as_xyz
  x,y,z
_cell_length_a	10.723022
_cell_length_b	10.540539
_cell_length_c	9.798715
_cell_angle_alpha	89.998989
_cell_angle_beta	89.996609
_cell_angle_gamma	84.496359
loop_
_atom_site_label
_atom_site_type_symbol
_atom_site_fract_x
_atom_site_fract_y
_atom_site_fract_z
O1	O	1.657277	0.178036	-0.113475
O2	O	1.294133	0.195081	-0.113479
O3	O	1.483990	0.001848	-0.113475
O4	O	1.467420	0.371270	-0.113479
O5	O	1.483975	0.001847	0.113507
O6	O	1.294118	0.195081	0.113503
O7	O	1.657263	0.178036	0.113507
Zn8	Zn	1.475688	0.186558	0.149543
Zn9	Zn	1.475707	0.186559	-0.149515
O10	O	1.467406	0.371269	0.113503
C11	C	1.247625	0.193841	0.000011
C12	C	1.109069	0.190131	0.000010
C13	C	0.890943	0.294417	0.000006
C14	C	1.034147	0.298254	0.000008
C15	C	1.482740	-0.045455	0.000013
C16	C	1.479022	-0.186401	0.000006
C17	C	1.336564	-0.369754	-0.000505
C18	C	1.340333	-0.223137	0.000006
C19	C	1.545758	-0.248093	0.129625
C20	C	1.541024	-0.394635	0.129734
C21	C	1.543861	-0.395155	-0.128387
C22	C	1.545139	-0.248173	-0.130101
C23	C	1.703770	0.179276	0.000013
C24	C	1.842326	0.182986	0.000006
C25	C	1.468655	0.418572	0.000012
C26	C	1.472373	0.559518	0.000010
N27	N	1.475685	0.186557	0.353643
N28	N	1.475721	0.186550	-0.353615
C29	C	1.555400	0.105066	0.421421
C30	C	1.555420	0.105062	0.578584
H31	H	1.067218	0.094720	-0.000026
Cl32	Cl	0.941740	0.040073	-0.000002
Cl33	Cl	1.259258	-0.157313	-0.143448
Cl34	Cl	1.251981	-0.413862	-0.144017
H35	H	1.407447	0.256317	0.411966
Cl36	Cl	0.791529	0.437330	-0.000011
H37	H	1.640767	-0.442656	0.135615
H38	H	1.076007	0.393660	0.000015
H39	H	1.623629	0.035296	0.363100
H40	H	1.644036	-0.442433	-0.129258
H41	H	1.281996	-0.399933	0.091925
Cl42	Cl	1.660801	-0.002653	0.668568
H43	H	1.407474	0.256326	0.588107
H44	H	1.287442	-0.181354	0.093075
H45	H	1.499388	-0.205470	0.226081
H46	H	1.491692	-0.422810	0.226625
Cl47	Cl	1.703006	-0.213666	0.137075
Cl48	Cl	1.474557	-0.443813	-0.280068
Cl49	Cl	1.470381	-0.184304	-0.278170
Cl50	Cl	1.701254	-0.210854	-0.142194
