data_functionalizedCrystal
_audit_creation_method	'MofGen! by Chris Wilmer'
_symmetry_space_group_name_H-M	'P1'
_symmetry_Int_Tables_number	1
_symmetry_cell_setting	triclinic
loop_
_symmetry_equiv_pos_as_xyz
  x,y,z
_cell_length_a	10.654550
_cell_length_b	10.654551
_cell_length_c	9.130313
_cell_angle_alpha	90.002253
_cell_angle_beta	89.999724
_cell_angle_gamma	95.514904
loop_
_atom_site_label
_atom_site_type_symbol
_atom_site_fract_x
_atom_site_fract_y
_atom_site_fract_z
O1	O	1.667840	-0.176399	-0.121682
O2	O	1.302362	-0.193205	-0.121708
O3	O	1.493503	-0.002063	-0.121693
O4	O	1.476698	-0.367541	-0.121697
O5	O	1.493490	-0.002057	0.121906
O6	O	1.302348	-0.193199	0.121891
O7	O	1.667827	-0.176393	0.121917
Cu8	Cu	1.485086	-0.184796	0.144146
Cu9	Cu	1.485102	-0.184802	-0.143938
O10	O	1.476685	-0.367535	0.121902
C11	C	1.255557	-0.191968	0.000088
C12	C	1.116114	-0.188276	0.000078
C13	C	1.036628	-0.300818	0.000081
C14	C	0.905608	-0.297341	0.000106
C15	C	0.933570	-0.068772	0.000120
C16	C	1.064588	-0.072249	0.000105
C17	C	1.492263	0.044738	0.000103
C18	C	1.488570	0.184181	0.000095
C19	C	1.714631	-0.177630	0.000118
C20	C	1.854075	-0.181322	0.000118
C21	C	1.486844	0.249682	-0.132693
C22	C	1.483365	0.380703	-0.132696
C23	C	1.483342	0.380710	0.132889
C24	C	1.486813	0.249691	0.132890
N25	N	1.485085	-0.184790	0.346769
C26	C	1.477926	0.585664	0.000099
C27	C	1.481620	0.446221	0.000091
N28	N	1.485114	-0.184798	-0.346560
C29	C	1.569751	-0.100188	0.423427
C30	C	1.569763	-0.100189	0.576764
C31	C	1.400438	-0.269404	0.576771
C32	C	1.400421	-0.269396	0.423437
H33	H	0.840895	-0.388984	0.000112
H34	H	1.638704	-0.031297	0.639175
O35	O	0.883307	0.043823	0.000069
C36	C	0.750622	0.022763	0.000116
H37	H	0.720709	-0.074978	-0.046005
H38	H	0.709754	0.097071	-0.070601
H39	H	0.714112	0.029168	0.116986
O40	O	1.318083	-0.351635	0.651022
C41	C	1.243367	-0.426323	0.550474
H42	H	1.241496	-0.374812	0.441179
H43	H	1.143243	-0.444545	0.594790
H44	H	1.284943	-0.520005	0.534150
O45	O	1.488308	0.186081	-0.261729
C46	C	1.378896	0.204857	-0.342519
H47	H	1.302055	0.231589	-0.264814
H48	H	1.344729	0.114244	-0.402768
H49	H	1.401431	0.283918	-0.425304
O50	O	1.488662	0.185939	0.261796
C51	C	1.599260	0.123451	0.269770
H52	H	1.635990	0.108251	0.154480
H53	H	1.577272	0.028332	0.325962
H54	H	1.673948	0.183239	0.335313
O55	O	1.318346	-0.351643	0.348802
C56	C	1.386266	-0.429766	0.260114
H57	H	1.484103	-0.380657	0.237137
H58	H	1.334010	-0.449140	0.152294
H59	H	1.395607	-0.522672	0.319193
H60	H	1.481957	0.434027	-0.240825
H61	H	1.481913	0.434065	0.241006
O62	O	1.086474	-0.413628	0.000132
C63	C	0.988216	-0.512213	0.000106
H64	H	0.898925	-0.476227	0.046236
H65	H	1.016297	-0.593146	0.070824
H66	H	0.969972	-0.546985	-0.116760
H67	H	1.129309	0.019401	0.000106
H68	H	1.638687	-0.031295	0.361008
