data_functionalizedCrystal
_audit_creation_method	'MofGen! by Chris Wilmer'
_symmetry_space_group_name_H-M	'P1'
_symmetry_Int_Tables_number	1
_symmetry_cell_setting	triclinic
loop_
_symmetry_equiv_pos_as_xyz
  x,y,z
_cell_length_a	6.817900
_cell_length_b	7.076028
_cell_length_c	16.255699
_cell_angle_alpha	91.113035
_cell_angle_beta	103.489404
_cell_angle_gamma	117.700652
loop_
_atom_site_label
_atom_site_type_symbol
_atom_site_fract_x
_atom_site_fract_y
_atom_site_fract_z
V1	V	-4.199837	-0.665702	-0.115740
O2	O	-4.183835	-0.652302	0.006949
O3	O	-4.150383	-0.661849	-0.230827
O4	O	-4.226824	-0.955718	-0.113351
O5	O	-4.106865	-0.356398	-0.111340
V6	V	-4.673833	-0.628622	-0.101137
O7	O	-4.481994	-0.747040	-0.147773
O8	O	-4.841874	-0.547283	-0.069104
O9	O	-4.500081	-0.632474	0.013950
O10	O	-4.807232	-0.642022	-0.223826
O11	O	-4.884203	-0.937925	-0.105536
O12	O	-4.423640	-0.338605	-0.103526
C13	C	-3.992688	-0.651528	-0.258902
C14	C	-4.034043	-0.650311	-0.352983
C15	C	-3.940997	-0.636367	-0.575838
C16	C	-3.979956	-0.464501	-0.623805
C17	C	-4.109890	-0.648186	-0.525241
C18	C	-4.144649	-0.817907	-0.644911
C19	C	-4.183146	-0.646142	-0.691635
C20	C	-4.148237	-0.476189	-0.571961
C21	C	-4.312974	-0.829753	-0.593071
C22	C	-4.352043	-0.657851	-0.641013
C23	C	-4.067683	-0.649362	-0.429386
C24	C	-4.225360	-0.644953	-0.787488
C25	C	-4.223594	-0.267928	-0.107830
C26	C	-4.097161	-0.026376	-0.109043
C27	C	-4.321117	-0.642790	0.042021
C28	C	-4.259004	-0.644020	0.136101
H29	H	-4.453253	-0.984193	-0.579130
H30	H	-4.149276	-0.331624	-0.540287
H31	H	-4.143468	-0.962280	-0.676685
F32	F	-3.713254	-0.624229	-0.538605
F33	F	-3.796521	-0.262694	-0.642041
H34	H	-4.526224	-0.666879	-0.669328
