data_functionalizedCrystal
_audit_creation_method	'MofGen! by Chris Wilmer'
_symmetry_space_group_name_H-M	'P1'
_symmetry_Int_Tables_number	1
_symmetry_cell_setting	triclinic
loop_
_symmetry_equiv_pos_as_xyz
  x,y,z
_cell_length_a	10.686220
_cell_length_b	21.295417
_cell_length_c	10.686551
_cell_angle_alpha	94.412210
_cell_angle_beta	89.691918
_cell_angle_gamma	94.412682
loop_
_atom_site_label
_atom_site_type_symbol
_atom_site_fract_x
_atom_site_fract_y
_atom_site_fract_z
Zn1	Zn	1.972201	-0.153473	0.562351
Zn2	Zn	1.955908	-0.267413	0.352566
Zn3	Zn	1.746311	-0.169576	0.368665
Zn4	Zn	1.762339	-0.266137	0.578344
O5	O	1.859190	-0.214150	0.465482
O6	O	2.145585	-0.162382	0.521092
O7	O	1.914578	-0.261708	0.179155
O8	O	1.776387	-0.079345	0.394402
O9	O	2.133615	-0.246093	0.366964
O10	O	1.942347	-0.067514	0.536702
O11	O	1.760588	-0.189828	0.190982
O12	O	1.572892	-0.188591	0.409910
O13	O	1.803704	-0.243919	0.751770
O14	O	1.584668	-0.259534	0.563960
O15	O	1.957889	-0.161145	0.740020
O16	O	1.930120	-0.355339	0.382472
O17	O	1.787905	-0.354402	0.548351
C18	C	1.533263	-0.225672	0.490418
C19	C	1.393832	-0.230615	0.501116
C20	C	1.859020	-0.377710	0.465425
C21	C	1.859065	-0.447676	0.465434
C22	C	1.933194	-0.481004	0.379138
C23	C	1.933255	-0.546743	0.379161
C24	C	1.859164	-0.579154	0.465470
C25	C	1.785031	-0.545817	0.551782
C26	C	1.784982	-0.480079	0.551764
N27	N	1.750160	-0.685908	0.483429
N28	N	1.750210	-0.748357	0.483439
C29	C	1.859310	-0.777220	0.465531
N30	N	1.968359	-0.741276	0.447588
N31	N	1.968308	-0.678822	0.447572
C32	C	1.859210	-0.650436	0.465499
C33	C	1.933511	-0.881830	0.379256
C34	C	1.933575	-0.947570	0.379288
C35	C	1.785339	-0.946643	0.551903
C36	C	1.785287	-0.880904	0.551876
C37	C	1.859371	-0.848502	0.465546
C38	C	2.186390	-0.202583	0.440448
C39	C	2.325823	-0.197654	0.429781
C40	C	1.884402	-0.200593	0.792685
C41	C	1.895146	-0.194816	0.932120
C42	C	1.859397	-0.049948	0.465564
C43	C	1.859485	0.020024	0.465599
C44	C	1.834148	-0.227606	0.139546
C45	C	1.823647	-0.233197	0.000093
H46	H	1.374266	-0.165655	0.360523
H47	H	1.964589	-0.157537	0.980602
O48	O	1.335847	-0.268746	0.583718
C49	C	1.139338	-0.308657	0.669957
C50	C	1.204845	-0.265440	0.576383
H51	H	1.033411	-0.306009	0.664040
H52	H	1.172759	-0.292588	0.769237
H53	H	1.163355	-0.359409	0.645806
H54	H	1.180858	-0.214676	0.600418
H55	H	1.171419	-0.281563	0.477130
H56	H	1.724919	-0.853767	0.622141
O57	O	2.005066	-0.579200	0.295252
C58	C	2.008991	-0.659824	0.124527
C59	C	1.927535	-0.623131	0.219522
H60	H	1.946339	-0.695342	0.063257
H61	H	2.078996	-0.685907	0.177055
H62	H	2.061947	-0.625350	0.062883
H63	H	1.874500	-0.657562	0.281192
H64	H	1.857607	-0.597039	0.166916
H65	H	1.993521	-0.454624	0.308846
H66	H	1.993947	-0.974704	0.309017
O67	O	1.713236	-0.577358	0.635668
C68	C	1.709337	-0.645104	0.806391
C69	C	1.790785	-0.609429	0.711430
H70	H	1.772004	-0.671031	0.867687
H71	H	1.639394	-0.680670	0.753834
H72	H	1.656311	-0.609980	0.868014
H73	H	1.843891	-0.644505	0.649782
H74	H	1.860652	-0.573853	0.764065
H75	H	1.724616	-0.452942	0.622038
H76	H	1.993839	-0.855447	0.308964
H77	H	1.754217	-0.270478	0.951617
H78	H	1.725019	-0.973031	0.622182
