data_functionalizedCrystal
_audit_creation_method	'MofGen! by Chris Wilmer'
_symmetry_space_group_name_H-M	'P1'
_symmetry_Int_Tables_number	1
_symmetry_cell_setting	triclinic
loop_
_symmetry_equiv_pos_as_xyz
  x,y,z
_cell_length_a	15.944499
_cell_length_b	15.944493
_cell_length_c	10.268362
_cell_angle_alpha	90.000590
_cell_angle_beta	89.992825
_cell_angle_gamma	83.476327
loop_
_atom_site_label
_atom_site_type_symbol
_atom_site_fract_x
_atom_site_fract_y
_atom_site_fract_z
O1	O	1.114529	0.108129	-0.108361
O2	O	1.614529	0.608129	0.391639
O3	O	0.869970	0.121531	-0.108344
O4	O	1.369970	0.621531	0.391656
O5	O	0.998953	-0.007450	-0.108364
O6	O	1.498953	0.492550	0.391636
O7	O	0.985546	0.237109	-0.108341
O8	O	1.485546	0.737109	0.391659
O9	O	0.998942	-0.007455	0.108237
O10	O	1.498942	0.492545	0.608237
O11	O	0.869959	0.121526	0.108256
O12	O	1.369959	0.621526	0.608256
O13	O	1.114518	0.108124	0.108240
O14	O	1.614518	0.608124	0.608240
Cu15	Cu	0.992237	0.114824	0.128025
Cu16	Cu	1.492237	0.614824	0.628025
Cu17	Cu	0.992251	0.114830	-0.128130
Cu18	Cu	1.492251	0.614830	0.371870
O19	O	0.985535	0.237104	0.108259
O20	O	1.485535	0.737104	0.608259
C21	C	0.838670	0.120979	-0.000042
C22	C	1.338670	0.620979	0.499958
C23	C	0.745422	0.119334	-0.000037
C24	C	1.245422	0.619334	0.499963
C25	C	0.453871	0.194269	-0.000049
C26	C	0.953871	0.694269	0.499951
C27	C	0.514913	0.155319	-0.106851
C28	C	1.014913	0.655319	0.393149
C29	C	0.409787	0.113358	-0.000068
C30	C	0.909787	0.613358	0.499932
C31	C	0.514888	0.155292	0.106701
C32	C	1.014888	0.655292	0.606701
C33	C	0.574695	0.116299	-0.000050
C34	C	1.074695	0.616299	0.499950
C35	C	0.469602	0.074386	-0.106957
C36	C	0.969602	0.574386	0.393043
C37	C	0.469570	0.074370	0.106690
C38	C	0.969570	0.574370	0.606690
C39	C	0.530595	0.035361	-0.000137
C40	C	1.030595	0.535361	0.499863
C41	C	0.314787	0.111666	-0.000079
C42	C	0.814787	0.611666	0.499921
C43	C	0.669694	0.117984	-0.000049
C44	C	1.169694	0.617984	0.499951
C45	C	0.998400	-0.038747	-0.000069
C46	C	1.498400	0.461253	0.499931
C47	C	0.996757	-0.131995	-0.000086
C48	C	1.496757	0.368005	0.499914
C49	C	1.072679	-0.367769	-0.000066
C50	C	1.572679	0.132231	0.499934
C51	C	1.031743	-0.418327	-0.106858
C52	C	1.531743	0.081673	0.393142
C53	C	0.993713	-0.302716	-0.000070
C54	C	1.493713	0.197284	0.499930
C55	C	1.031713	-0.418308	0.106693
C56	C	1.531713	0.081692	0.606693
C57	C	0.990778	-0.467625	-0.000048
C58	C	1.490778	0.032375	0.499952
C59	C	0.952797	-0.352045	-0.106950
C60	C	1.452797	0.147955	0.393050
C61	C	0.952780	-0.352023	0.106698
C62	C	1.452780	0.147977	0.606698
C63	C	0.911785	-0.402548	-0.000120
C64	C	1.411785	0.097452	0.499880
C65	C	0.995405	-0.207716	-0.000083
C66	C	1.495405	0.292284	0.499917
C67	C	0.989079	-0.562622	-0.000044
C68	C	1.489079	-0.062622	0.499956
C69	C	1.145818	0.108675	-0.000065
C70	C	1.645818	0.608675	0.499935
C71	C	1.239066	0.110320	-0.000079
C72	C	1.739066	0.610320	0.499921
C73	C	0.986088	0.268401	-0.000039
C74	C	1.486088	0.768401	0.499961
C75	C	0.987731	0.361650	-0.000031
C76	C	1.487731	0.861650	0.499969
N77	N	0.992234	0.114819	0.308191
N78	N	1.492234	0.614819	0.808191
N79	N	0.992260	0.114829	-0.308296
N80	N	1.492260	0.614829	0.191704
C81	C	0.992246	0.114829	0.573862
C82	C	1.492246	0.614829	1.073862
C83	C	0.992237	0.114826	0.426024
C84	C	1.492237	0.614826	0.926024
H85	H	0.534952	0.189525	0.196989
H86	H	1.034952	0.689525	0.696989
H87	H	0.420527	0.261416	-0.000146
H88	H	0.920527	0.761416	0.499854
H89	H	0.843713	-0.418002	-0.000174
H90	H	1.343713	0.081998	0.499826
H91	H	1.065074	-0.447248	0.196972
H92	H	1.565074	0.052752	0.696972
H93	H	1.140699	-0.352153	-0.000178
H94	H	1.640699	0.147847	0.499822
H95	H	0.919455	-0.323059	0.196991
H96	H	1.419455	0.176941	0.696991
H97	H	0.449456	0.040174	0.196979
H98	H	0.949456	0.540174	0.696979
H99	H	0.563787	-0.031847	-0.000200
H100	H	1.063787	0.468153	0.499800
H101	H	1.065096	-0.447277	-0.197149
H102	H	1.565096	0.052723	0.302851
H103	H	0.535009	0.189546	-0.197131
H104	H	1.035009	0.689546	0.302869
H105	H	0.449635	0.040198	-0.197351
H106	H	0.949635	0.540198	0.302649
H107	H	0.919473	-0.323217	-0.197331
H108	H	1.419473	0.176783	0.302669
