data_functionalizedCrystal
_audit_creation_method	'MofGen! by Chris Wilmer'
_symmetry_space_group_name_H-M	'P1'
_symmetry_Int_Tables_number	1
_symmetry_cell_setting	triclinic
loop_
_symmetry_equiv_pos_as_xyz
  x,y,z
_cell_length_a	21.395362
_cell_length_b	29.839131
_cell_length_c	21.395356
_cell_angle_alpha	89.970658
_cell_angle_beta	89.957023
_cell_angle_gamma	90.057297
loop_
_atom_site_label
_atom_site_type_symbol
_atom_site_fract_x
_atom_site_fract_y
_atom_site_fract_z
Zn1	Zn	0.957807	-0.178674	-0.354578
Zn2	Zn	1.457807	0.321326	0.145422
Zn3	Zn	0.957692	-0.253802	-0.249798
Zn4	Zn	1.457692	0.246198	0.250202
Zn5	Zn	0.853024	-0.178707	-0.249780
Zn6	Zn	1.353024	0.321293	0.250220
Zn7	Zn	0.852972	-0.253799	-0.354503
Zn8	Zn	1.352972	0.246201	0.145497
O9	O	0.905373	-0.216245	-0.302165
O10	O	1.405373	0.283755	0.197835
O11	O	1.045470	-0.188627	-0.340718
O12	O	1.545470	0.311373	0.159282
O13	O	0.943781	-0.243855	-0.162117
O14	O	1.443781	0.256145	0.337883
O15	O	0.866994	-0.115836	-0.263706
O16	O	1.366994	0.384164	0.236294
O17	O	1.045385	-0.243823	-0.263737
O18	O	1.545385	0.256177	0.236263
O19	O	0.943977	-0.115812	-0.340701
O20	O	1.443977	0.384188	0.159299
O21	O	0.866882	-0.188684	-0.162104
O22	O	1.366882	0.311316	0.337896
O23	O	0.765339	-0.188681	-0.263632
O24	O	1.265339	0.311319	0.236368
O25	O	0.866905	-0.243818	-0.442191
O26	O	1.366905	0.256182	0.057809
O27	O	0.765301	-0.243850	-0.340571
O28	O	1.265301	0.256150	0.159429
O29	O	0.943927	-0.188625	-0.442246
O30	O	1.443927	0.311375	0.057754
O31	O	0.943730	-0.316668	-0.263663
O32	O	1.443730	0.183332	0.236337
O33	O	0.866793	-0.316666	-0.340589
O34	O	1.366793	0.183334	0.159411
C35	C	0.742586	-0.216269	-0.302092
C36	C	1.242586	0.283731	0.197908
C37	C	0.672944	-0.216290	-0.302076
C38	C	1.172944	0.283710	0.197924
C39	C	0.640228	-0.245055	-0.342078
C40	C	1.140228	0.254945	0.157922
C41	C	0.574792	-0.245044	-0.342106
C42	C	1.074792	0.254956	0.157894
C43	C	0.542076	-0.216273	-0.302120
C44	C	1.042076	0.283727	0.197880
C45	C	0.574801	-0.187503	-0.262115
C46	C	1.074801	0.312497	0.237885
C47	C	0.640235	-0.187511	-0.262093
C48	C	1.140235	0.312489	0.237907
C49	C	0.438353	-0.212660	-0.245715
C50	C	0.938353	0.287340	0.254285
C51	C	0.372920	-0.212655	-0.245736
C52	C	0.872920	0.287345	0.254264
C53	C	0.340256	-0.216244	-0.302189
C54	C	0.840256	0.283756	0.197811
C55	C	0.373032	-0.219847	-0.358623
C56	C	0.873032	0.280153	0.141377
C57	C	0.438466	-0.219856	-0.358601
C58	C	0.938466	0.280144	0.141399
C59	C	0.471124	-0.216260	-0.302140
C60	C	0.971124	0.283740	0.197860
C61	C	0.236586	-0.244998	-0.342226
C62	C	0.736586	0.255002	0.157774
C63	C	0.171150	-0.244984	-0.342254
C64	C	0.671150	0.255016	0.157746
C65	C	0.171159	-0.187445	-0.262258
C66	C	0.671159	0.312555	0.237742
C67	C	0.236595	-0.187457	-0.262235
C68	C	0.736595	0.312543	0.237765
C69	C	0.269304	-0.216236	-0.302218
C70	C	0.769304	0.283764	0.197782
C71	C	0.905260	-0.332968	-0.302133
C72	C	1.405260	0.167032	0.197867
C73	C	0.905269	-0.382903	-0.302141
C74	C	1.405269	0.117097	0.197859
C75	C	0.945508	-0.692534	-0.262168
C76	C	1.445508	-0.192534	0.237832
C77	C	0.945585	-0.880207	-0.262192
C78	C	1.445585	-0.380207	0.237808
O79	O	0.979707	-0.904462	-0.228181
O80	O	1.479707	-0.404462	0.271819
N81	N	0.905503	-0.903687	-0.302212
N82	N	1.405503	-0.403687	0.197788
C83	C	0.865403	-0.880247	-0.342231
C84	C	1.365403	-0.380247	0.157769
O85	O	0.831317	-0.904524	-0.376276
O86	O	1.331317	-0.404524	0.123724
C87	C	0.865329	-0.692574	-0.342210
C88	C	1.365329	-0.192574	0.157790
C89	C	0.905409	-0.669097	-0.302183
C90	C	1.405409	-0.169097	0.197817
C91	C	0.985585	-0.669056	-0.222145
C92	C	1.485585	-0.169056	0.277855
C93	C	0.985562	-0.622141	-0.222137
C94	C	1.485562	-0.122141	0.277863
C95	C	0.945463	-0.598703	-0.262152
C96	C	1.445463	-0.098703	0.237848
C97	C	0.905386	-0.622181	-0.302175
C98	C	1.405386	-0.122181	0.197825
C99	C	0.825232	-0.669134	-0.382232
C100	C	1.325232	-0.169134	0.117768
C101	C	0.825218	-0.622213	-0.382224
C102	C	1.325218	-0.122213	0.117776
C103	C	0.865298	-0.598736	-0.342197
C104	C	1.365298	-0.098736	0.157803
C105	C	0.865265	-0.551828	-0.342182
C106	C	1.365265	-0.051828	0.157818
N107	N	0.905347	-0.528348	-0.302162
N108	N	1.405347	-0.028348	0.197838
C109	C	0.945446	-0.551786	-0.262147
C110	C	1.445446	-0.051786	0.237853
C111	C	0.865443	-0.978777	-0.342239
C112	C	1.365443	-0.478777	0.157761
C113	C	0.865461	-1.025695	-0.342244
C114	C	1.365461	-0.525695	0.157756
C115	C	0.945644	-1.025652	-0.262205
C116	C	1.445644	-0.525652	0.237795
C117	C	0.945623	-0.978734	-0.262198
C118	C	1.445623	-0.478734	0.237802
C119	C	0.905525	-0.955297	-0.302219
C120	C	1.405525	-0.455297	0.197781
C121	C	0.945396	-0.453260	-0.262132
C122	C	1.445396	0.046740	0.237868
C123	C	0.945368	-0.406340	-0.262126
C124	C	1.445368	0.093660	0.237874
C125	C	0.865188	-0.406387	-0.342167
C126	C	1.365188	0.093613	0.157833
C127	C	0.865212	-0.453302	-0.342171
C128	C	1.365212	0.046698	0.157829
C129	C	0.905322	-0.476738	-0.302152
C130	C	1.405322	0.023262	0.197848
O131	O	0.831166	-0.527544	-0.376180
O132	O	1.331166	-0.027544	0.123820
O133	O	0.979536	-0.527500	-0.228117
O134	O	1.479536	-0.027500	0.271883
C135	C	0.945530	-0.739450	-0.262176
C136	C	1.445530	-0.239450	0.237824
C137	C	0.905453	-0.762928	-0.302199
C138	C	1.405453	-0.262928	0.197801
C139	C	0.865354	-0.739490	-0.342214
C140	C	1.365354	-0.239490	0.157786
C141	C	0.905470	-0.809845	-0.302204
C142	C	1.405470	-0.309845	0.197796
C143	C	0.945569	-0.833283	-0.262189
C144	C	1.445569	-0.333283	0.237811
C145	C	0.985651	-0.809803	-0.222169
C146	C	1.485651	-0.309803	0.277831
C147	C	0.985629	-0.762887	-0.222161
C148	C	1.485629	-0.262887	0.277839
C149	C	0.825272	-0.762970	-0.382234
C150	C	1.325272	-0.262970	0.117766
C151	C	0.825297	-0.809886	-0.382238
C152	C	1.325297	-0.309886	0.117762
C153	C	0.865396	-0.833323	-0.342223
C154	C	1.365396	-0.333323	0.157777
C155	C	1.068797	-0.216222	-0.302238
C156	C	1.568797	0.283778	0.197762
C157	C	1.138438	-0.216212	-0.302269
C158	C	1.638438	0.283788	0.197731
C159	C	0.905423	-0.216218	-0.465588
C160	C	1.405423	0.283782	0.034412
C161	C	0.905444	-0.216206	-0.535229
C162	C	1.405444	0.283794	-0.035229
C163	C	0.905504	-0.099067	-0.302210
C164	C	1.405504	0.400933	0.197790
C165	C	0.905560	-0.049133	-0.302229
C166	C	1.405560	0.450867	0.197771
C167	C	0.865413	-0.187475	-0.567926
C168	C	1.365413	0.312525	-0.067926
C169	C	0.865411	-0.187466	-0.633361
C170	C	1.365411	0.312534	-0.133361
C171	C	0.905451	-0.216184	-0.666098
C172	C	1.405451	0.283816	-0.166098
C173	C	0.945484	-0.244921	-0.633393
C174	C	1.445484	0.255079	-0.133393
C175	C	0.945481	-0.244932	-0.567959
C176	C	1.445481	0.255068	-0.067959
C177	C	0.961902	-0.219705	-0.769803
C178	C	1.461902	0.280295	-0.269803
C179	C	0.961906	-0.219691	-0.835236
C180	C	1.461906	0.280309	-0.335236
C181	C	0.905461	-0.216154	-0.867918
C182	C	1.405461	0.283846	-0.367918
C183	C	0.849010	-0.212621	-0.835160
C184	C	1.349010	0.287379	-0.335160
C185	C	0.849006	-0.212632	-0.769726
C186	C	1.349006	0.287368	-0.269726
C187	C	0.905459	-0.216176	-0.737050
C188	C	1.405459	0.283824	-0.237050
C189	C	0.865425	-0.187412	-0.971567
C190	C	1.365425	0.312588	-0.471567
C191	C	0.865422	-0.187407	-1.037004
C192	C	1.365422	0.312593	-0.537004
C193	C	0.945500	-0.244860	-1.037035
C194	C	1.445500	0.255140	-0.537035
C195	C	0.945498	-0.244867	-0.971600
C196	C	1.445498	0.255133	-0.471600
C197	C	0.905461	-0.216141	-0.938870
C198	C	1.405461	0.283859	-0.438870
C199	C	0.905360	-0.216241	-0.139377
C200	C	1.405360	0.283759	0.360623
C201	C	0.905461	-0.216126	-0.069736
C202	C	1.405461	0.283874	0.430264
H203	H	0.548159	-0.164076	-0.229560
H204	H	1.048159	0.335924	0.270440
H205	H	0.792591	-0.688242	-0.414823
H206	H	1.292591	-0.188242	0.085177
C207	C	0.989520	-0.276535	-0.531992
C208	C	1.489520	0.223465	-0.031992
H209	H	1.013369	-0.293636	-0.560858
H210	H	1.513369	0.206364	-0.060858
H211	H	0.965531	-0.296115	-0.506438
H212	H	1.465531	0.203885	-0.006438
H213	H	1.016841	-0.259345	-0.506496
H214	H	1.516841	0.240655	-0.006496
H215	H	0.803047	-0.209738	-0.861769
H216	H	1.303047	0.290262	-0.361769
H217	H	0.666873	-0.164086	-0.229518
H218	H	1.166873	0.335914	0.270482
H219	H	0.803041	-0.209756	-0.743057
H220	H	1.303041	0.290244	-0.243057
C221	C	0.989461	-0.380517	-0.218098
C222	C	1.489461	0.119483	0.281902
H223	H	1.013349	-0.401198	-0.194273
H224	H	1.513349	0.098802	0.305727
H225	H	0.965502	-0.362249	-0.190763
H226	H	1.465502	0.137751	0.309237
H227	H	1.016743	-0.362179	-0.242101
H228	H	1.516743	0.137821	0.257899
H229	H	0.666856	-0.268489	-0.374636
H230	H	1.166856	0.231511	0.125364
H231	H	0.832824	-0.164022	-0.944917
H232	H	1.332824	0.335978	-0.444917
H233	H	0.346437	-0.222769	-0.404593
H234	H	0.846437	0.277231	0.095407
H235	H	1.007873	-0.222566	-0.861903
H236	H	1.507873	0.277434	-0.361903
H237	H	0.832819	-0.164012	-1.063624
H238	H	1.332819	0.335988	-0.563624
H239	H	0.144523	-0.164017	-0.229704
H240	H	0.644523	0.335983	0.270296
C241	C	0.336870	-0.208723	-0.183661
C242	C	0.836870	0.291277	0.316339
H243	H	0.293222	-0.209246	-0.191757
H244	H	0.793222	0.290754	0.308243
H245	H	0.347599	-0.181362	-0.163667
H246	H	0.847599	0.318638	0.336333
H247	H	0.347542	-0.233150	-0.157265
H248	H	0.847542	0.266850	0.342735
H249	H	0.978085	-0.268304	-0.660052
H250	H	1.478085	0.231696	-0.160052
C251	C	0.538796	-0.276660	-0.386147
C252	C	1.038796	0.223340	0.113853
H253	H	0.567649	-0.293794	-0.409965
H254	H	1.067649	0.206206	0.090035
H255	H	0.513347	-0.259474	-0.413486
H256	H	1.013347	0.240526	0.086514
H257	H	0.513194	-0.296218	-0.362165
H258	H	1.013194	0.203782	0.137835
C259	C	0.989542	-0.276452	-1.073035
C260	C	1.489542	0.223548	-0.573035
H261	H	1.013381	-0.293566	-1.044187
H262	H	1.513381	0.206434	-0.544187
H263	H	1.016862	-0.259261	-1.098589
H264	H	1.516862	0.240739	-0.598589
H265	H	0.965547	-0.296027	-1.098532
H266	H	1.465547	0.203973	-0.598532
C267	C	1.023996	-0.223594	-0.733858
C268	C	1.523996	0.276406	-0.233858
H269	H	1.057616	-0.225688	-0.762738
H270	H	1.557616	0.274312	-0.262738
H271	H	1.023156	-0.249638	-0.708319
H272	H	1.523156	0.250362	-0.208319
H273	H	1.029526	-0.197845	-0.708349
H274	H	1.529526	0.302155	-0.208349
C275	C	0.989750	-1.051439	-0.218188
C276	C	1.489750	-0.551439	0.281812
H277	H	0.984019	-1.082744	-0.223929
H278	H	1.484019	-0.582744	0.276071
H279	H	0.980603	-1.043778	-0.176077
H280	H	1.480603	-0.543778	0.323923
H281	H	1.031844	-1.043711	-0.227415
H282	H	1.531844	-0.543711	0.272585
H283	H	0.832814	-0.164068	-0.659988
H284	H	1.332814	0.335932	-0.159988
C285	C	0.272588	-0.155819	-0.218228
C286	C	0.772588	0.344181	0.281772
H287	H	0.316243	-0.159942	-0.223945
H288	H	0.816243	0.340058	0.276055
H289	H	0.261808	-0.162351	-0.176117
H290	H	0.761808	0.337649	0.323883
H291	H	0.261924	-0.125640	-0.227484
H292	H	0.761924	0.374360	0.272516
H293	H	0.464944	-0.209736	-0.199741
H294	H	0.964944	0.290264	0.300259
C295	C	0.989510	-0.479032	-0.218108
C296	C	1.489510	0.020968	0.281892
H297	H	1.013368	-0.458325	-0.194269
H298	H	1.513368	0.041675	0.305731
H299	H	1.016811	-0.497300	-0.242105
H300	H	1.516811	0.002700	0.257895
H301	H	0.965560	-0.497367	-0.190777
H302	H	1.465560	0.002633	0.309223
H303	H	1.018201	-0.603028	-0.189545
H304	H	1.518201	-0.103028	0.310455
H305	H	0.465149	-0.222789	-0.404551
H306	H	0.965149	0.277211	0.095449
H307	H	0.978097	-0.268262	-0.944978
H308	H	1.478097	0.231738	-0.444978
H309	H	0.792654	-0.828997	-0.414832
H310	H	1.292654	-0.328997	0.085168
C311	C	0.272569	-0.276648	-0.386210
C312	C	0.772569	0.223352	0.113790
H313	H	0.243710	-0.293774	-0.410046
H314	H	0.743710	0.206226	0.089954
H315	H	0.298036	-0.296205	-0.362186
H316	H	0.798036	0.203795	0.137814
H317	H	0.298154	-0.259488	-0.413545
H318	H	0.798154	0.240512	0.086455
H319	H	0.144513	-0.268407	-0.374833
H320	H	0.644513	0.231593	0.125167
H321	H	1.018241	-0.688134	-0.189559
H322	H	1.518241	-0.188134	0.310441
H323	H	0.832818	-1.044807	-0.374832
H324	H	1.332818	-0.544807	0.125168
C325	C	0.989715	-0.952912	-0.218174
C326	C	1.489715	-0.452912	0.281826
H327	H	1.013599	-0.973595	-0.194348
H328	H	1.513599	-0.473595	0.305652
H329	H	0.965759	-0.934641	-0.190841
H330	H	1.465759	-0.434641	0.309159
H331	H	1.017001	-0.934577	-0.242178
H332	H	1.517001	-0.434577	0.257822
H333	H	0.832789	-0.959698	-0.374830
H334	H	1.332789	-0.459698	0.125170
H335	H	0.832578	-0.472419	-0.374766
H336	H	1.332578	0.027581	0.125234
C337	C	0.781109	-0.596433	-0.426247
C338	C	1.281109	-0.096433	0.073753
H339	H	0.786837	-0.565128	-0.420517
H340	H	1.286837	-0.065128	0.079483
H341	H	0.739019	-0.604168	-0.417029
H342	H	1.239019	-0.104168	0.082971
H343	H	0.790269	-0.604096	-0.468358
H344	H	1.290269	-0.104096	0.031642
C345	C	0.821085	-0.380599	-0.386183
C346	C	1.321085	0.119401	0.113817
H347	H	0.826821	-0.349295	-0.380447
H348	H	1.326821	0.150705	0.119553
H349	H	0.778992	-0.388328	-0.376969
H350	H	1.278992	0.111672	0.123031
H351	H	0.830245	-0.388260	-0.428295
H352	H	1.330245	0.111740	0.071705
H353	H	1.018266	-0.743775	-0.189567
H354	H	1.518266	-0.243775	0.310433
H355	H	0.792619	-0.743891	-0.414820
H356	H	1.292619	-0.243891	0.085180
C357	C	1.029758	-0.835590	-0.178153
C358	C	1.529758	-0.335590	0.321847
H359	H	1.024029	-0.866894	-0.183897
H360	H	1.524029	-0.366894	0.316103
H361	H	1.020610	-0.827931	-0.136041
H362	H	1.520610	-0.327931	0.363959
H363	H	1.071851	-0.827860	-0.187378
H364	H	1.571851	-0.327860	0.312622
H365	H	0.832810	-0.164085	-0.541281
H366	H	1.332810	0.335915	-0.041281
