data_functionalizedCrystal
_audit_creation_method	'MofGen! by Chris Wilmer'
_symmetry_space_group_name_H-M	'P1'
_symmetry_Int_Tables_number	1
_symmetry_cell_setting	triclinic
loop_
_symmetry_equiv_pos_as_xyz
  x,y,z
_cell_length_a	19.121102
_cell_length_b	19.120786
_cell_length_c	19.121175
_cell_angle_alpha	90.075695
_cell_angle_beta	85.212968
_cell_angle_gamma	89.915559
loop_
_atom_site_label
_atom_site_type_symbol
_atom_site_fract_x
_atom_site_fract_y
_atom_site_fract_z
Zn1	Zn	1.077294	-0.343949	-0.428332
Zn2	Zn	1.410628	-0.010616	-0.094998
Zn3	Zn	1.743961	0.322717	0.238335
Zn4	Zn	1.067213	-0.455747	-0.305679
Zn5	Zn	1.400546	-0.122413	0.027654
Zn6	Zn	1.733879	0.210920	0.360988
Zn7	Zn	0.955083	-0.333535	-0.306134
Zn8	Zn	1.288416	-0.000202	0.027200
Zn9	Zn	1.621750	0.333132	0.360533
Zn10	Zn	0.954615	-0.455701	-0.418293
Zn11	Zn	1.287948	-0.122367	-0.084960
Zn12	Zn	1.621281	0.210966	0.248374
O13	O	1.013551	-0.397233	-0.364609
O14	O	1.346885	-0.063900	-0.031276
O15	O	1.680218	0.269434	0.302057
O16	O	1.174225	-0.363157	-0.416072
O17	O	1.507559	-0.029824	-0.082739
O18	O	1.840892	0.303509	0.250594
O19	O	1.048316	-0.435196	-0.207470
O20	O	1.381649	-0.101862	0.125864
O21	O	1.714982	0.231471	0.459197
O22	O	0.975710	-0.237002	-0.326735
O23	O	1.309043	0.096331	0.006598
O24	O	1.642377	0.429665	0.339932
O25	O	1.166819	-0.445294	-0.325960
O26	O	1.500152	-0.111961	0.007373
O27	O	1.833485	0.221372	0.340707
O28	O	1.065498	-0.244654	-0.416513
O29	O	1.398831	0.088680	-0.083180
O30	O	1.732164	0.422013	0.250154
O31	O	0.965934	-0.345407	-0.207804
O32	O	1.299268	-0.012074	0.125530
O33	O	1.632601	0.321259	0.458863
O34	O	0.856753	-0.345363	-0.317001
O35	O	1.190086	-0.012029	0.016332
O36	O	1.523419	0.321304	0.349666
O37	O	0.974911	-0.445216	-0.517894
O38	O	1.308245	-0.111883	-0.184561
O39	O	1.641578	0.221451	0.148772
O40	O	0.856408	-0.435117	-0.399404
O41	O	1.189742	-0.101784	-0.066071
O42	O	1.523075	0.231549	0.267263
O43	O	1.065044	-0.363113	-0.525269
O44	O	1.398377	-0.029779	-0.191936
O45	O	1.731710	0.303554	0.141397
O46	O	1.047861	-0.553655	-0.316226
O47	O	1.381195	-0.220321	0.017107
O48	O	1.714528	0.113012	0.350441
O49	O	0.965136	-0.553621	-0.398963
O50	O	1.298469	-0.220288	-0.065630
O51	O	1.631803	0.113046	0.267703
C52	C	0.831101	-0.389105	-0.357163
C53	C	1.164434	-0.055772	-0.023830
C54	C	1.497767	0.277561	0.309504
C55	C	0.753047	-0.385646	-0.353993
C56	C	1.086381	-0.052313	-0.020660
C57	C	1.419714	0.281021	0.312673
C58	C	1.005374	-0.579027	-0.356472
C59	C	1.338707	-0.245694	-0.023139
C60	C	1.672040	0.087639	0.310195
C61	C	1.001940	-0.656804	-0.353017
C62	C	1.335274	-0.323471	-0.019684
C63	C	1.668607	0.009863	0.313650
C64	C	0.716211	-0.430815	-0.395334
C65	C	1.049544	-0.097482	-0.062000
C66	C	1.382878	0.235851	0.271333
C67	C	0.642872	-0.427556	-0.392359
C68	C	0.976206	-0.094223	-0.059026
C69	C	1.309539	0.239111	0.274308
C70	C	0.606371	-0.379130	-0.348040
C71	C	0.939704	-0.045796	-0.014707
C72	C	1.273037	0.287537	0.318626
C73	C	0.643212	-0.333955	-0.306699
C74	C	0.976546	-0.000622	0.026635
C75	C	1.309879	0.332711	0.359968
C76	C	0.716550	-0.337212	-0.309677
C77	C	1.049883	-0.003879	0.023656
C78	C	1.383217	0.329455	0.356989
C79	C	0.384947	-0.366952	-0.336908
C80	C	0.718280	-0.033619	-0.003574
C81	C	1.051613	0.299714	0.329759
C82	C	0.311604	-0.363700	-0.333931
C83	C	0.644937	-0.030367	-0.000597
C84	C	0.978270	0.302966	0.332736
C85	C	0.311269	-0.457301	-0.419592
C86	C	0.644602	-0.123967	-0.086259
C87	C	0.977935	0.209366	0.247074
C88	C	0.384608	-0.460556	-0.422564
C89	C	0.717941	-0.127222	-0.089231
C90	C	1.051274	0.206111	0.244103
C91	C	0.421443	-0.415379	-0.381225
C92	C	0.754776	-0.082046	-0.047892
C93	C	1.088110	0.251288	0.285442
C94	C	0.531407	-0.375798	-0.344997
C95	C	0.864740	-0.042465	-0.011664
C96	C	1.198073	0.290868	0.321669
C97	C	0.496406	-0.418708	-0.384272
C98	C	0.829740	-0.085374	-0.050939
C99	C	1.163073	0.247959	0.282394
C100	C	1.047043	-0.697267	-0.398172
C101	C	1.380376	-0.363934	-0.064838
C102	C	1.713710	-0.030600	0.268495
C103	C	1.043814	-0.770346	-0.394926
C104	C	1.377148	-0.437013	-0.061593
C105	C	1.710481	-0.103679	0.271740
C106	C	0.995486	-0.802961	-0.346523
C107	C	1.328819	-0.469627	-0.013189
C108	C	1.662152	-0.136294	0.320144
C109	C	0.950378	-0.762492	-0.301366
C110	C	1.283711	-0.429159	0.031967
C111	C	1.617045	-0.095826	0.365301
C112	C	0.953604	-0.689415	-0.304615
C113	C	1.286937	-0.356081	0.028718
C114	C	1.620271	-0.022748	0.362051
C115	C	0.983406	-1.023412	-0.334375
C116	C	1.316739	-0.690079	-0.001042
C117	C	1.650072	-0.356745	0.332292
C118	C	0.980185	-1.096495	-0.331128
C119	C	1.313518	-0.763162	0.002205
C120	C	1.646851	-0.429828	0.335539
C121	C	1.073620	-1.104344	-0.424690
C122	C	1.406954	-0.771010	-0.091356
C123	C	1.740287	-0.437677	0.241977
C124	C	1.076845	-1.031264	-0.427932
C125	C	1.410178	-0.697931	-0.094598
C126	C	1.743511	-0.364598	0.238735
C127	C	1.031735	-0.990802	-0.382778
C128	C	1.365068	-0.657469	-0.049444
C129	C	1.698401	-0.324136	0.283889
C130	C	0.992186	-0.877659	-0.343203
C131	C	1.325519	-0.544326	-0.009869
C132	C	1.658852	-0.210993	0.323464
C133	C	1.035032	-0.916105	-0.386101
C134	C	1.368365	-0.582772	-0.052768
C135	C	1.701698	-0.249438	0.280565
C136	C	1.196714	-0.405393	-0.372085
C137	C	1.530048	-0.072059	-0.038752
C138	C	1.863381	0.261274	0.294582
C139	C	1.274767	-0.408870	-0.375271
C140	C	1.608101	-0.075537	-0.041937
C141	C	1.941434	0.257797	0.291396
C142	C	1.021050	-0.405321	-0.547775
C143	C	1.354383	-0.071988	-0.214441
C144	C	1.687716	0.261346	0.118892
C145	C	1.024245	-0.408768	-0.625829
C146	C	1.357579	-0.075434	-0.292495
C147	C	1.690912	0.257899	0.040838
C148	C	1.021781	-0.214730	-0.372794
C149	C	1.355114	0.118603	-0.039461
C150	C	1.688447	0.451937	0.293872
C151	C	1.025287	-0.136958	-0.376283
C152	C	1.358621	0.196375	-0.042949
C153	C	1.691954	0.529709	0.290384
C154	C	0.982857	-0.363640	-0.662672
C155	C	1.316190	-0.030306	-0.329339
C156	C	1.649524	0.303027	0.003995
C157	C	0.985857	-0.366884	-0.736012
C158	C	1.319190	-0.033551	-0.402679
C159	C	1.652523	0.299783	-0.069345
C160	C	1.030248	-0.415253	-0.772507
C161	C	1.363582	-0.081920	-0.439174
C162	C	1.696915	0.251414	-0.105841
C163	C	1.071638	-0.460386	-0.735658
C164	C	1.404972	-0.127052	-0.402325
C165	C	1.738305	0.206281	-0.068992
C166	C	1.068635	-0.457144	-0.662320
C167	C	1.401968	-0.123811	-0.328986
C168	C	1.735301	0.209522	0.004347
C169	C	1.041460	-0.427381	-0.993934
C170	C	1.374793	-0.094048	-0.660600
C171	C	1.708127	0.239285	-0.327267
C172	C	1.044462	-0.430618	-1.067278
C173	C	1.377796	-0.097285	-0.733944
C174	C	1.711129	0.236049	-0.400611
C175	C	0.958679	-0.337117	-1.067626
C176	C	1.292012	-0.003783	-0.734293
C177	C	1.625346	0.329550	-0.400959
C178	C	0.955682	-0.333877	-0.994286
C179	C	1.289016	-0.000543	-0.660953
C180	C	1.622349	0.332790	-0.327619
C181	C	0.997069	-0.379012	-0.957444
C182	C	1.330403	-0.045678	-0.624110
C183	C	1.663736	0.287655	-0.290777
C184	C	1.033317	-0.418569	-0.847472
C185	C	1.366651	-0.085235	-0.514139
C186	C	1.699984	0.248098	-0.180806
C187	C	0.993997	-0.375699	-0.882480
C188	C	1.327330	-0.042366	-0.549146
C189	C	1.660663	0.290968	-0.215813
C190	C	1.006124	-0.389128	-0.182161
C191	C	1.339458	-0.055794	0.151173
C192	C	1.672791	0.277539	0.484506
C193	C	1.003074	-0.385490	-0.104121
C194	C	1.336407	-0.052157	0.229212
C195	C	1.669741	0.281177	0.562545
H196	H	0.745925	-0.470252	-0.431420
H197	H	1.079258	-0.136918	-0.098087
H198	H	1.412592	0.196415	0.235246
H199	H	1.102343	-0.493887	-0.632323
H200	H	1.435676	-0.160554	-0.298990
H201	H	1.769010	0.172779	0.034343
H202	H	0.946712	-0.324248	-0.632963
H203	H	1.280046	0.009085	-0.299630
H204	H	1.613379	0.342418	0.033703
H205	H	1.080614	-0.470007	-1.096990
H206	H	1.413948	-0.136673	-0.763657
H207	H	1.747281	0.196660	-0.430324
H208	H	0.919532	-0.294491	-0.964576
H209	H	1.252865	0.038842	-0.631243
H210	H	1.586198	0.372175	-0.297910
H211	H	0.526129	-0.458133	-0.420359
H212	H	0.859462	-0.124800	-0.087026
H213	H	1.192796	0.208534	0.246307
H214	H	1.086400	-0.670717	-0.437584
H215	H	1.419734	-0.337384	-0.104251
H216	H	1.753067	-0.004051	0.229082
H217	H	0.924983	-0.300371	-1.097631
H218	H	1.258317	0.032962	-0.764298
H219	H	1.591650	0.366296	-0.430964
H220	H	1.110346	-1.137296	-0.461452
H221	H	1.443679	-0.803962	-0.128119
H222	H	1.777012	-0.470629	0.205214
H223	H	0.957850	-0.336319	-0.852762
H224	H	1.291184	-0.002986	-0.519428
H225	H	1.624517	0.330347	-0.186095
H226	H	0.916876	-0.656470	-0.267846
H227	H	1.250209	-0.323137	0.065487
H228	H	1.583542	0.010197	0.398820
H229	H	1.075152	-0.464141	-0.963945
H230	H	1.408486	-0.130808	-0.630611
H231	H	1.741819	0.202526	-0.297278
H232	H	0.952838	-0.904222	-0.303790
H233	H	1.286172	-0.570889	0.029543
H234	H	1.619505	-0.237556	0.362876
H235	H	1.107780	-0.499772	-0.765378
H236	H	1.441113	-0.166439	-0.432045
H237	H	1.774446	0.166894	-0.098712
H238	H	0.613487	-0.294523	-0.270617
H239	H	0.946821	0.038811	0.062717
H240	H	1.280154	0.372144	0.396050
H241	H	0.940826	-1.123047	-0.291711
H242	H	1.274160	-0.789714	0.041622
H243	H	1.607493	-0.456381	0.374956
H244	H	1.080547	-0.803288	-0.431691
H245	H	1.413880	-0.469955	-0.098358
H246	H	1.747214	-0.136621	0.234976
H247	H	0.414322	-0.499991	-0.458651
H248	H	0.747655	-0.166658	-0.125318
H249	H	1.080989	0.166676	0.208015
H250	H	1.069461	-0.457952	-0.877195
H251	H	1.402794	-0.124618	-0.543862
H252	H	1.736127	0.208715	-0.210528
H253	H	0.501679	-0.336371	-0.308911
H254	H	0.835012	-0.003037	0.024422
H255	H	1.168346	0.330296	0.357755
H256	H	0.612883	-0.464338	-0.426022
H257	H	0.946217	-0.131005	-0.092689
H258	H	1.279550	0.202328	0.240645
H259	H	0.952151	-0.330138	-0.766006
H260	H	1.285484	0.003195	-0.432673
H261	H	1.618818	0.336528	-0.099340
H262	H	1.116198	-1.004711	-0.467346
H263	H	1.449531	-0.671378	-0.134012
H264	H	1.782864	-0.338044	0.199321
H265	H	0.911025	-0.789053	-0.261957
H266	H	1.244358	-0.455720	0.071376
H267	H	1.577692	-0.122386	0.404709
H268	H	0.946676	-0.990473	-0.297608
H269	H	1.280010	-0.657140	0.035726
H270	H	1.613343	-0.323807	0.369059
H271	H	0.281270	-0.494080	-0.453249
H272	H	0.614603	-0.160747	-0.119916
H273	H	0.947936	0.172587	0.213417
H274	H	1.074379	-0.889548	-0.425514
H275	H	1.407712	-0.556215	-0.092181
H276	H	1.741045	-0.222881	0.241152
H277	H	0.281887	-0.324258	-0.297846
H278	H	0.615220	0.009075	0.035488
H279	H	0.948554	0.342409	0.368821
H280	H	0.746542	-0.300427	-0.276017
H281	H	1.079875	0.032907	0.057316
H282	H	1.413208	0.366240	0.390649
H283	H	0.414929	-0.330171	-0.303241
H284	H	0.748262	0.003162	0.030092
H285	H	1.081596	0.336496	0.363426
