data_functionalizedCrystal
_audit_creation_method	'MofGen! by Chris Wilmer'
_symmetry_space_group_name_H-M	'P1'
_symmetry_Int_Tables_number	1
_symmetry_cell_setting	triclinic
loop_
_symmetry_equiv_pos_as_xyz
  x,y,z
_cell_length_a	17.077404
_cell_length_b	13.897448
_cell_length_c	17.077396
_cell_angle_alpha	89.975220
_cell_angle_beta	90.019501
_cell_angle_gamma	89.980206
loop_
_atom_site_label
_atom_site_type_symbol
_atom_site_fract_x
_atom_site_fract_y
_atom_site_fract_z
Zn1	Zn	1.200073	0.384009	0.443863
Zn2	Zn	1.700073	0.884009	0.943863
Zn3	Zn	1.199987	0.545322	0.312605
Zn4	Zn	1.699987	1.045322	0.812605
Zn5	Zn	1.068805	0.384043	0.312611
Zn6	Zn	1.568805	0.884043	0.812611
Zn7	Zn	1.068780	0.545264	0.443829
Zn8	Zn	1.568780	1.045264	0.943829
O9	O	1.134411	0.464660	0.378227
O10	O	1.634411	0.964660	0.878227
O11	O	1.309908	0.405417	0.426463
O12	O	1.809908	0.905417	0.926463
O13	O	1.182560	0.523966	0.202759
O14	O	1.682560	1.023966	0.702759
O15	O	1.086263	0.249057	0.330038
O16	O	1.586263	0.749057	0.830038
O17	O	1.309846	0.523933	0.330029
O18	O	1.809846	1.023933	0.830029
O19	O	1.182706	0.249032	0.426469
O20	O	1.682706	0.749032	0.926469
O21	O	1.086181	0.405475	0.202763
O22	O	1.586181	0.905475	0.702763
O23	O	0.958954	0.405420	0.330005
O24	O	1.458954	0.905420	0.830005
O25	O	1.086222	0.523835	0.553680
O26	O	1.586222	1.023835	1.053680
O27	O	0.958936	0.523868	0.426411
O28	O	1.458936	1.023868	0.926411
O29	O	1.182682	0.405362	0.553705
O30	O	1.682682	0.905362	1.053705
O31	O	1.182537	0.680296	0.329996
O32	O	1.682537	1.180296	0.829996
O33	O	1.086139	0.680254	0.426405
O34	O	1.586139	1.180254	0.926405
C35	C	0.930463	0.464642	0.378205
C36	C	1.430463	0.964642	0.878205
C37	C	0.843214	0.464658	0.378215
C38	C	1.343214	0.964658	0.878215
C39	C	0.802235	0.526427	0.428332
C40	C	1.302235	1.026427	0.928332
C41	C	0.720254	0.526429	0.428345
C42	C	1.220254	1.026429	0.928345
C43	C	0.679254	0.464666	0.378235
C44	C	1.179254	0.964666	0.878235
C45	C	0.720239	0.402890	0.328115
C46	C	1.220239	0.902890	0.828115
C47	C	0.802218	0.402884	0.328107
C48	C	1.302218	0.902884	0.828107
C49	C	0.549369	0.402909	0.328134
C50	C	1.049369	0.902909	0.828134
C51	C	0.467384	0.402916	0.328141
C52	C	0.967384	0.902916	0.828141
C53	C	0.467405	0.526454	0.428372
C54	C	0.967405	1.026454	0.928372
C55	C	0.549384	0.526448	0.428364
C56	C	1.049384	1.026448	0.928364
C57	C	0.590363	0.464673	0.378243
C58	C	1.090363	0.964673	0.878243
C59	C	1.134347	0.715274	0.378214
C60	C	1.634347	1.215274	0.878214
C61	C	1.134392	0.822488	0.378234
C62	C	1.634392	1.322488	0.878234
C63	C	1.134469	1.018783	0.378290
C64	C	1.634469	1.518783	0.878290
C65	C	1.134424	0.909550	0.378261
C66	C	1.634424	1.409550	0.878261
C67	C	1.339155	0.464678	0.378249
C68	C	1.839155	0.964678	0.878249
C69	C	1.426405	0.464686	0.378259
C70	C	1.926405	0.964686	0.878259
C71	C	1.134459	0.464588	0.582971
C72	C	1.634459	0.964588	1.082971
C73	C	1.134479	0.464558	0.670221
C74	C	1.634479	0.964558	1.170221
C75	C	1.134490	1.213067	0.378267
C76	C	1.634490	1.713067	0.878267
C77	C	1.134507	1.105853	0.378308
C78	C	1.634507	1.605853	0.878308
C79	C	1.134409	0.464661	0.174279
C80	C	1.634409	0.964661	0.674279
C81	C	1.134541	0.464419	0.087030
C82	C	1.634541	0.964419	0.587030
C83	C	1.184708	0.402864	0.711226
C84	C	1.684708	0.902864	1.211226
C85	C	1.184717	0.402832	0.793206
C86	C	1.684717	0.902832	1.293206
C87	C	1.134501	0.464500	0.834181
C88	C	1.634501	0.964500	1.334181
C89	C	1.084267	0.526197	0.793171
C90	C	1.584267	1.026197	1.293171
C91	C	1.084254	0.526223	0.711192
C92	C	1.584254	1.026223	1.211192
C93	C	1.084299	0.526139	0.964041
C94	C	1.584299	1.026139	1.464041
C95	C	1.084312	0.526114	1.046025
C96	C	1.584312	1.026114	1.546025
C97	C	1.184761	0.402747	1.046055
C98	C	1.684761	0.902747	1.546055
C99	C	1.184749	0.402774	0.964076
C100	C	1.684749	0.902774	1.464076
C101	C	1.134515	0.464472	0.923072
C102	C	1.634515	0.964472	1.423072
H103	H	0.434036	0.576751	0.469185
H104	H	0.934036	1.076751	0.969185
H105	H	1.225602	0.352650	0.677870
H106	H	1.725602	0.852650	1.177870
C107	C	0.675145	0.334948	0.272996
C108	C	1.175145	0.834948	0.772996
H109	H	0.711294	0.298153	0.243152
H110	H	1.211294	0.798153	0.743152
H111	H	0.643141	0.371793	0.238745
H112	H	1.143141	0.871793	0.738745
H113	H	0.643189	0.292967	0.303091
H114	H	1.143189	0.792967	0.803091
H115	H	0.434004	0.352612	0.287347
H116	H	0.934004	0.852612	0.787347
H117	H	1.043378	0.576404	0.826539
H118	H	1.543378	1.076404	1.326539
H119	H	1.225620	0.352596	0.826588
H120	H	1.725620	0.852596	1.326588
H121	H	0.582731	0.352597	0.287327
H122	H	1.082731	0.852597	0.787327
H123	H	1.043420	0.576327	1.079385
H124	H	1.543420	1.076327	1.579385
H125	H	1.043345	0.576451	0.677807
H126	H	1.543345	1.076451	1.177807
H127	H	0.835582	0.352580	0.287300
H128	H	1.335582	0.852580	0.787300
C129	C	1.239985	0.334942	0.919005
C130	C	1.739985	0.834942	1.419005
H131	H	1.269899	0.298186	0.955166
H132	H	1.769899	0.798186	1.455166
H133	H	1.274167	0.371854	0.887025
H134	H	1.774167	0.871854	1.387025
H135	H	1.209959	0.292919	0.887027
H136	H	1.709959	0.792919	1.387027
H137	H	1.225662	0.352508	1.079445
H138	H	1.725662	0.852508	1.579445
C139	C	1.029069	0.594037	0.918937
C140	C	1.529069	1.094037	1.418937
H141	H	0.999177	0.630778	0.955080
H142	H	1.499177	1.130778	1.455080
H143	H	0.994866	0.557178	0.886941
H144	H	1.494866	1.057178	1.386941
H145	H	1.059108	0.636071	0.886972
H146	H	1.559108	1.136071	1.386972
H147	H	0.835611	0.576725	0.469135
H148	H	1.335611	1.076725	0.969135
H149	H	0.686893	0.576729	0.469155
H150	H	1.186893	1.076729	0.969155
H151	H	0.582764	0.576746	0.469163
H152	H	1.082764	1.076746	0.969163
