data_functionalizedCrystal
_audit_creation_method	'MofGen! by Chris Wilmer'
_symmetry_space_group_name_H-M	'P1'
_symmetry_Int_Tables_number	1
_symmetry_cell_setting	triclinic
loop_
_symmetry_equiv_pos_as_xyz
  x,y,z
_cell_length_a	17.077403
_cell_length_b	17.077404
_cell_length_c	17.077396
_cell_angle_alpha	89.980813
_cell_angle_beta	89.981574
_cell_angle_gamma	89.998960
loop_
_atom_site_label
_atom_site_type_symbol
_atom_site_fract_x
_atom_site_fract_y
_atom_site_fract_z
Zn1	Zn	-0.312538	1.200158	-0.443943
Zn2	Zn	-0.062538	1.450158	-0.193943
Zn3	Zn	0.187462	1.700158	0.056057
Zn4	Zn	0.437462	1.950158	0.306057
Zn5	Zn	-0.443815	1.200121	-0.312702
Zn6	Zn	-0.193815	1.450121	-0.062702
Zn7	Zn	0.056185	1.700121	0.187298
Zn8	Zn	0.306185	1.950121	0.437298
Zn9	Zn	-0.312563	1.068895	-0.312686
Zn10	Zn	-0.062563	1.318895	-0.062686
Zn11	Zn	0.187437	1.568895	0.187314
Zn12	Zn	0.437437	1.818895	0.437314
Zn13	Zn	-0.443762	1.068909	-0.443921
Zn14	Zn	-0.193762	1.318909	-0.193921
Zn15	Zn	0.056238	1.568909	0.056079
Zn16	Zn	0.306238	1.818909	0.306079
O17	O	-0.378170	1.134521	-0.378313
O18	O	-0.128170	1.384521	-0.128313
O19	O	0.121830	1.634521	0.121687
O20	O	0.371830	1.884521	0.371687
O21	O	-0.329964	1.310000	-0.426549
O22	O	-0.079964	1.560000	-0.176549
O23	O	0.170036	1.810000	0.073451
O24	O	0.420036	2.060000	0.323451
O25	O	-0.426437	1.182693	-0.202853
O26	O	-0.176437	1.432693	0.047147
O27	O	0.073563	1.682693	0.297147
O28	O	0.323563	1.932693	0.547147
O29	O	-0.202713	1.086317	-0.330100
O30	O	0.047287	1.336317	-0.080100
O31	O	0.297287	1.586317	0.169900
O32	O	0.547287	1.836317	0.419900
O33	O	-0.426413	1.309973	-0.330127
O34	O	-0.176413	1.559973	-0.080127
O35	O	0.073587	1.809973	0.169873
O36	O	0.323587	2.059973	0.419873
O37	O	-0.202695	1.182756	-0.426534
O38	O	0.047305	1.432756	-0.176534
O39	O	0.297305	1.682756	0.073466
O40	O	0.547305	1.932756	0.323466
O41	O	-0.330007	1.086281	-0.202841
O42	O	-0.080007	1.336281	0.047159
O43	O	0.169993	1.586281	0.297159
O44	O	0.419993	1.836281	0.547159
O45	O	-0.329955	0.959050	-0.330079
O46	O	-0.079955	1.209050	-0.080079
O47	O	0.170045	1.459050	0.169921
O48	O	0.420045	1.709050	0.419921
O49	O	-0.426322	1.086340	-0.553771
O50	O	-0.176322	1.336340	-0.303771
O51	O	0.073678	1.586340	-0.053771
O52	O	0.323678	1.836340	0.196229
O53	O	-0.426346	0.959060	-0.426497
O54	O	-0.176346	1.209060	-0.176497
O55	O	0.073654	1.459060	0.073503
O56	O	0.323654	1.709060	0.323503
O57	O	-0.329913	1.182769	-0.553787
O58	O	-0.079913	1.432769	-0.303787
O59	O	0.170087	1.682769	-0.053787
O60	O	0.420087	1.932769	0.196213
O61	O	-0.553655	1.182706	-0.330106
O62	O	-0.303655	1.432706	-0.080106
O63	O	-0.053655	1.682706	0.169894
O64	O	0.196345	1.932706	0.419894
O65	O	-0.553616	1.086305	-0.426512
O66	O	-0.303616	1.336305	-0.176512
O67	O	-0.053616	1.586305	0.073488
O68	O	0.196384	1.836305	0.323488
C69	C	-0.378148	0.930573	-0.378284
C70	C	-0.128148	1.180573	-0.128284
C71	C	0.121852	1.430573	0.121716
C72	C	0.371852	1.680573	0.371716
C73	C	-0.378158	0.843323	-0.378291
C74	C	-0.128158	1.093323	-0.128291
C75	C	0.121842	1.343323	0.121709
C76	C	0.371842	1.593323	0.371709
C77	C	-0.328061	0.467520	-0.428629
C78	C	-0.078061	0.717520	-0.178629
C79	C	0.171939	0.967520	0.071371
C80	C	0.421939	1.217520	0.321371
C81	C	-0.328055	0.549500	-0.428620
C82	C	-0.078055	0.799500	-0.178620
C83	C	0.171945	1.049500	0.071380
C84	C	0.421945	1.299500	0.321380
C85	C	-0.378186	0.590474	-0.378333
C86	C	-0.128186	0.840474	-0.128333
C87	C	0.121814	1.090474	0.121667
C88	C	0.371814	1.340474	0.371667
C89	C	-0.428332	0.549463	-0.328056
C90	C	-0.178332	0.799463	-0.078056
C91	C	0.071668	1.049463	0.171944
C92	C	0.321668	1.299463	0.421944
C93	C	-0.428341	0.467484	-0.328069
C94	C	-0.178341	0.717484	-0.078069
C95	C	0.071659	0.967484	0.171931
C96	C	0.321659	1.217484	0.421931
C97	C	-0.428308	0.720333	-0.328031
C98	C	-0.178308	0.970333	-0.078031
C99	C	0.071692	1.220333	0.171969
C100	C	0.321692	1.470333	0.421969
C101	C	-0.428298	0.802318	-0.328016
C102	C	-0.178298	1.052318	-0.078016
C103	C	0.071702	1.302318	0.171984
C104	C	0.321702	1.552318	0.421984
C105	C	-0.328022	0.802349	-0.428582
C106	C	-0.078022	1.052349	-0.178582
C107	C	0.171978	1.302349	0.071418
C108	C	0.421978	1.552349	0.321418
C109	C	-0.328031	0.720370	-0.428595
C110	C	-0.078031	0.970370	-0.178595
C111	C	0.171969	1.220370	0.071405
C112	C	0.421969	1.470370	0.321405
C113	C	-0.378176	0.679365	-0.378317
C114	C	-0.128176	0.929365	-0.128317
C115	C	0.121824	1.179365	0.121683
C116	C	0.371824	1.429365	0.371683
C117	C	-0.582118	1.134524	-0.378325
C118	C	-0.332118	1.384524	-0.128325
C119	C	-0.082118	1.634524	0.121675
C120	C	0.167882	1.884524	0.371675
C121	C	-0.669367	1.134597	-0.378356
C122	C	-0.419367	1.384597	-0.128356
C123	C	-0.169367	1.634597	0.121644
C124	C	0.080633	1.884597	0.371644
C125	C	-0.173425	1.134539	-0.378318
C126	C	0.076575	1.384539	-0.128318
C127	C	0.326575	1.634539	0.121682
C128	C	0.576575	1.884539	0.371682
C129	C	-0.086176	1.134547	-0.378320
C130	C	0.163824	1.384547	-0.128320
C131	C	0.413824	1.634547	0.121680
C132	C	0.663824	1.884547	0.371680
C133	C	-0.045194	1.084343	-0.328115
C134	C	0.204806	1.334343	-0.078115
C135	C	0.454806	1.584343	0.171885
C136	C	0.704806	1.834343	0.421885
C137	C	0.036787	1.084349	-0.328125
C138	C	0.286787	1.334349	-0.078125
C139	C	0.536787	1.584349	0.171875
C140	C	0.786787	1.834349	0.421875
C141	C	0.077784	1.134563	-0.378337
C142	C	0.327784	1.384563	-0.128337
C143	C	0.577784	1.634563	0.121663
C144	C	0.827784	1.884563	0.371663
C145	C	0.036796	1.184769	-0.428547
C146	C	0.286796	1.434769	-0.178547
C147	C	0.536796	1.684769	0.071453
C148	C	0.786796	1.934769	0.321453
C149	C	-0.045183	1.184759	-0.428541
C150	C	0.204817	1.434759	-0.178541
C151	C	0.454817	1.684759	0.071459
C152	C	0.704817	1.934759	0.321459
C153	C	0.207666	1.184789	-0.428556
C154	C	0.457666	1.434789	-0.178556
C155	C	0.707666	1.684789	0.071444
C156	C	0.957666	1.934789	0.321444
C157	C	0.289651	1.184801	-0.428562
C158	C	0.539651	1.434801	-0.178562
C159	C	0.789651	1.684801	0.071438
C160	C	1.039651	1.934801	0.321438
C161	C	0.289636	1.084380	-0.328140
C162	C	0.539636	1.334380	-0.078140
C163	C	0.789636	1.584380	0.171860
C164	C	1.039636	1.834380	0.421860
C165	C	0.207657	1.084369	-0.328134
C166	C	0.457657	1.334369	-0.078134
C167	C	0.707657	1.584369	0.171866
C168	C	0.957657	1.834369	0.421866
C169	C	0.166675	1.134576	-0.378343
C170	C	0.416675	1.384576	-0.128343
C171	C	0.666675	1.634576	0.121657
C172	C	0.916675	1.884576	0.371657
C173	C	-0.378109	1.134560	-0.583057
C174	C	-0.128109	1.384560	-0.333057
C175	C	0.121891	1.634560	-0.083057
C176	C	0.371891	1.884560	0.166943
C177	C	-0.378083	1.134577	-0.670307
C178	C	-0.128083	1.384577	-0.420307
C179	C	0.121917	1.634577	-0.170307
C180	C	0.371917	1.884577	0.079693
C181	C	-0.378192	1.339265	-0.378342
C182	C	-0.128192	1.589265	-0.128342
C183	C	0.121808	1.839265	0.121658
C184	C	0.371808	2.089265	0.371658
C185	C	-0.378201	1.426515	-0.378355
C186	C	-0.128201	1.676515	-0.128355
C187	C	0.121799	1.926515	0.121645
C188	C	0.371799	2.176515	0.371645
C189	C	-0.327866	1.084391	-0.711291
C190	C	-0.077866	1.334391	-0.461291
C191	C	0.172134	1.584391	-0.211291
C192	C	0.422134	1.834391	0.038709
C193	C	-0.327848	1.084404	-0.793271
C194	C	-0.077848	1.334404	-0.543271
C195	C	0.172152	1.584404	-0.293271
C196	C	0.422152	1.834404	-0.043271
C197	C	-0.378044	1.134607	-0.834267
C198	C	-0.128044	1.384607	-0.584267
C199	C	0.121956	1.634607	-0.334267
C200	C	0.371956	1.884607	-0.084267
C201	C	-0.428267	1.184795	-0.793277
C202	C	-0.178267	1.434795	-0.543277
C203	C	0.071733	1.684795	-0.293277
C204	C	0.321733	1.934795	-0.043277
C205	C	-0.428288	1.184778	-0.711298
C206	C	-0.178288	1.434778	-0.461298
C207	C	0.071712	1.684778	-0.211298
C208	C	0.321712	1.934778	0.038702
C209	C	-0.428218	1.184829	-0.964147
C210	C	-0.178218	1.434829	-0.714147
C211	C	0.071782	1.684829	-0.464147
C212	C	0.321782	1.934829	-0.214147
C213	C	-0.428196	1.184848	-1.046132
C214	C	-0.178196	1.434848	-0.796132
C215	C	0.071804	1.684848	-0.546132
C216	C	0.321804	1.934848	-0.296132
C217	C	-0.327778	1.084455	-1.046120
C218	C	-0.077778	1.334455	-0.796120
C219	C	0.172222	1.584455	-0.546120
C220	C	0.422222	1.834455	-0.296120
C221	C	-0.327799	1.084438	-0.964141
C222	C	-0.077799	1.334438	-0.714141
C223	C	0.172201	1.584438	-0.464141
C224	C	0.422201	1.834438	-0.214141
C225	C	-0.378021	1.134627	-0.923158
C226	C	-0.128021	1.384627	-0.673158
C227	C	0.121979	1.634627	-0.423158
C228	C	0.371979	1.884627	-0.173158
C229	C	-0.378174	1.134527	-0.174365
C230	C	-0.128174	1.384527	0.075635
C231	C	0.121826	1.634527	0.325635
C232	C	0.371826	1.884527	0.575635
C233	C	-0.377978	1.134662	-0.087116
C234	C	-0.127978	1.384662	0.162884
C235	C	0.122022	1.634662	0.412884
C236	C	0.372022	1.884662	0.662884
H237	H	-0.469122	0.835677	-0.287070
H238	H	-0.219122	1.085677	-0.037070
H239	H	0.030878	1.335677	0.212930
H240	H	0.280878	1.585677	0.462930
H241	H	0.174301	1.225663	-0.469452
H242	H	0.424301	1.475663	-0.219452
H243	H	0.674301	1.725663	0.030548
H244	H	0.924301	1.975663	0.280548
Br245	Br	-0.259990	0.664763	-0.496838
Br246	Br	-0.009990	0.914763	-0.246838
Br247	Br	0.240010	1.164763	0.003162
Br248	Br	0.490010	1.414763	0.253162
H249	H	0.070181	1.225652	-0.469435
H250	H	0.320181	1.475652	-0.219435
H251	H	0.570181	1.725652	0.030565
H252	H	0.820181	1.975652	0.280565
Br253	Br	-0.100802	1.252891	-0.496682
Br254	Br	0.149198	1.502891	-0.246682
Br255	Br	0.399198	1.752891	0.003318
Br256	Br	0.649198	2.002891	0.253318
H257	H	-0.287233	0.434165	-0.469574
H258	H	-0.037233	0.684165	-0.219574
H259	H	0.212767	0.934165	0.030426
H260	H	0.462767	1.184165	0.280426
H261	H	-0.286986	1.043514	-0.677918
H262	H	-0.036986	1.293514	-0.427918
H263	H	0.213014	1.543514	-0.177918
H264	H	0.463014	1.793514	0.072082
H265	H	-0.469152	0.582831	-0.287114
H266	H	-0.219152	0.832831	-0.037114
H267	H	0.030848	1.082831	0.212886
H268	H	0.280848	1.332831	0.462886
H269	H	-0.469172	0.434099	-0.287132
H270	H	-0.219172	0.684099	-0.037132
H271	H	0.030828	0.934099	0.212868
H272	H	0.280828	1.184099	0.462868
H273	H	0.323008	1.043499	-0.287258
H274	H	0.573008	1.293499	-0.037258
H275	H	0.823008	1.543499	0.212742
H276	H	1.073008	1.793499	0.462742
H277	H	-0.286921	1.043561	-0.930765
H278	H	-0.036921	1.293561	-0.680765
H279	H	0.213079	1.543561	-0.430765
H280	H	0.463079	1.793561	-0.180765
H281	H	-0.286959	1.043534	-0.826637
H282	H	-0.036959	1.293534	-0.576637
H283	H	0.213041	1.543534	-0.326637
H284	H	0.463041	1.793534	-0.076637
H285	H	-0.286884	1.043590	-1.079493
H286	H	-0.036884	1.293590	-0.829493
H287	H	0.213116	1.543590	-0.579493
H288	H	0.463116	1.793590	-0.329493
Br289	Br	-0.496312	1.252989	-1.101769
Br290	Br	-0.246312	1.502989	-0.851769
Br291	Br	0.003688	1.752989	-0.601769
Br292	Br	0.253688	2.002989	-0.351769
Br293	Br	-0.496381	1.252939	-0.908527
Br294	Br	-0.246381	1.502939	-0.658527
Br295	Br	0.003619	1.752939	-0.408527
Br296	Br	0.253619	2.002939	-0.158527
H297	H	-0.469141	1.225668	-0.826662
H298	H	-0.219141	1.475668	-0.576662
H299	H	0.030859	1.725668	-0.326662
H300	H	0.280859	1.975668	-0.076662
H301	H	-0.469174	1.225651	-0.677930
H302	H	-0.219174	1.475651	-0.427930
H303	H	0.030826	1.725651	-0.177930
H304	H	0.280826	1.975651	0.072070
H305	H	-0.287229	0.582883	-0.469561
H306	H	-0.037229	0.832883	-0.219561
H307	H	0.212771	1.082883	0.030439
H308	H	0.462771	1.332883	0.280439
H309	H	-0.287192	0.835740	-0.469519
H310	H	-0.037192	1.085740	-0.219519
H311	H	0.212808	1.335740	0.030481
H312	H	0.462808	1.585740	0.280481
H313	H	-0.469145	0.686949	-0.287093
H314	H	-0.219145	0.936949	-0.037093
H315	H	0.030855	1.186949	0.212907
H316	H	0.280855	1.436949	0.462907
H317	H	-0.078568	1.043456	-0.287224
H318	H	0.171432	1.293456	-0.037224
H319	H	0.421432	1.543456	0.212776
H320	H	0.671432	1.793456	0.462776
Br321	Br	0.092402	1.016199	-0.260000
Br322	Br	0.342402	1.266199	-0.010000
Br323	Br	0.592402	1.516199	0.240000
Br324	Br	0.842402	1.766199	0.490000
H325	H	0.174279	1.043485	-0.287243
H326	H	0.424279	1.293485	-0.037243
H327	H	0.674279	1.543485	0.212757
H328	H	0.924279	1.793485	0.462757
H329	H	0.323027	1.225689	-0.469450
H330	H	0.573027	1.475689	-0.219450
H331	H	0.823027	1.725689	0.030550
H332	H	1.073027	1.975689	0.280550
