data_functionalizedCrystal
_audit_creation_method	'MofGen! by Chris Wilmer'
_symmetry_space_group_name_H-M	'P1'
_symmetry_Int_Tables_number	1
_symmetry_cell_setting	triclinic
loop_
_symmetry_equiv_pos_as_xyz
  x,y,z
_cell_length_a	27.732048
_cell_length_b	16.109301
_cell_length_c	26.210047
_cell_angle_alpha	90.013356
_cell_angle_beta	90.018179
_cell_angle_gamma	96.947932
loop_
_atom_site_label
_atom_site_type_symbol
_atom_site_fract_x
_atom_site_fract_y
_atom_site_fract_z
O1	O	0.062138	-1.102343	0.042402
O2	O	0.069870	-0.860185	0.042411
O3	O	-0.004361	-0.988785	0.042397
O4	O	0.136369	-0.973743	0.042417
O5	O	-0.004378	-0.988813	-0.042461
O6	O	0.069853	-0.860214	-0.042447
O7	O	0.062121	-1.102371	-0.042456
Cu8	Cu	0.065985	-0.981295	-0.050199
Cu9	Cu	0.066006	-0.981261	0.050155
O10	O	0.136352	-0.973772	-0.042441
C11	C	-0.022378	-0.988483	-0.000034
C12	C	-0.076037	-0.987533	-0.000038
C13	C	0.069548	-0.829228	-0.000017
C14	C	0.068609	-0.736945	-0.000014
C15	C	0.062443	-1.133328	-0.000026
C16	C	0.063382	-1.225612	-0.000026
C17	C	-0.414559	-1.057541	-0.000014
C18	C	-0.616233	-1.054013	-0.000007
O19	O	-0.647221	-1.118031	0.000013
N20	N	-0.635676	-0.977759	-0.000005
C21	C	-0.604697	-0.902381	-0.000001
O22	O	-0.625862	-0.837441	0.000007
C23	C	-0.403024	-0.905910	-0.000004
C24	C	-0.383584	-0.982169	-0.000012
C25	C	-0.395119	-1.133794	-0.000021
C26	C	-0.344703	-1.134675	-0.000026
C27	C	-0.313728	-1.059303	-0.000023
C28	C	-0.333168	-0.983050	-0.000016
C29	C	-0.372045	-0.830533	0.000003
C30	C	-0.321624	-0.831422	0.000004
C31	C	-0.302184	-0.907681	-0.000004
C32	C	-0.251777	-0.908559	-0.000019
N33	N	-0.232334	-0.984814	-0.000021
C34	C	-0.263310	-1.060186	-0.000023
C35	C	-0.710579	-0.900534	0.000000
C36	C	-0.760997	-0.899652	0.000000
C37	C	-0.772530	-1.051284	-0.000005
C38	C	-0.722111	-1.052166	-0.000009
C39	C	-0.691136	-0.976789	-0.000002
C40	C	-0.157433	-1.062030	-0.000033
C41	C	-0.107012	-1.062905	-0.000040
C42	C	-0.095484	-0.911273	-0.000032
C43	C	-0.145900	-0.910398	-0.000028
C44	C	-0.176874	-0.985783	-0.000027
O45	O	-0.220761	-0.844576	-0.000033
O46	O	-0.242135	-1.125116	-0.000019
C47	C	-0.464975	-1.056660	-0.000010
C48	C	-0.484415	-0.980407	-0.000003
C49	C	-0.453440	-0.905035	-0.000000
C50	C	-0.534833	-0.979525	-0.000003
C51	C	-0.565808	-1.054897	-0.000005
C52	C	-0.546365	-1.131151	-0.000007
C53	C	-0.495950	-1.132032	-0.000012
C54	C	-0.472883	-0.828781	0.000002
C55	C	-0.523299	-0.827906	0.000006
C56	C	-0.554274	-0.903278	0.000004
C57	C	0.154369	-0.974073	-0.000010
C58	C	0.208028	-0.975024	-0.000002
N59	N	0.065971	-0.981325	-0.120783
C60	C	0.110473	-0.514154	-0.000014
C61	C	0.109587	-0.427445	-0.000017
C62	C	0.021514	-0.448409	-0.000028
C63	C	0.022401	-0.535117	-0.000028
C64	C	0.066882	-0.567987	-0.000018
C65	C	0.065109	-0.394570	-0.000022
C66	C	0.064148	-0.300556	-0.000025
C67	C	0.067843	-0.662007	-0.000016
N68	N	0.066016	-0.981238	0.120739
C69	C	0.098804	-0.924237	0.526713
C70	C	0.098813	-0.924213	0.313054
O71	O	0.126724	-0.875714	0.285441
N72	N	0.066012	-0.981260	0.286323
C73	C	0.033207	-1.038320	0.313009
O74	O	0.005311	-1.086847	0.285370
C75	C	0.033201	-1.038348	0.526667
C76	C	0.066001	-0.981292	0.553395
C77	C	0.131602	-0.867186	0.553441
C78	C	0.131598	-0.867190	0.606853
C79	C	0.098795	-0.924244	0.633536
C80	C	0.065997	-0.981295	0.606807
C81	C	0.000399	-1.095412	0.553352
C82	C	0.000401	-1.095415	0.606770
C83	C	0.033202	-1.038359	0.633499
C84	C	0.033190	-1.038354	0.686901
N85	N	0.065992	-0.981307	0.713633
C86	C	0.098794	-0.924252	0.686950
C87	C	0.033212	-1.038301	0.200836
C88	C	0.033213	-1.038293	0.147422
C89	C	0.098820	-0.924186	0.147470
C90	C	0.098816	-0.924190	0.200885
C91	C	0.066014	-0.981254	0.227567
C92	C	0.098782	-0.924264	0.799118
C93	C	0.098774	-0.924270	0.852534
C94	C	0.033169	-1.038380	0.852481
C95	C	0.033176	-1.038371	0.799069
C96	C	0.065986	-0.981309	0.772389
O97	O	0.005298	-1.086833	0.714547
O98	O	0.126694	-0.875745	0.714598
C99	C	0.098809	-0.924233	0.473301
C100	C	0.066010	-0.981284	0.446573
C101	C	0.033208	-1.038339	0.473255
C102	C	0.066011	-0.981277	0.393158
C103	C	0.098814	-0.924222	0.366476
C104	C	0.131616	-0.867175	0.393207
C105	C	0.131611	-0.867179	0.446619
C106	C	0.000406	-1.095386	0.446524
C107	C	0.000413	-1.095377	0.393112
C108	C	0.033215	-1.038322	0.366430
H109	H	-0.091187	-1.125007	-0.000047
H110	H	-0.013099	-0.578951	-0.000033
H111	H	0.145084	-0.383617	-0.000015
H112	H	-0.182646	-1.123416	-0.000030
H113	H	-0.328880	-1.196773	-0.000030
H114	H	-0.026306	-1.141848	0.468245
C115	C	0.159399	-0.550313	-0.000008
H116	H	0.153685	-0.609663	-0.000003
H117	H	0.177340	-0.531809	-0.029597
H118	H	0.177352	-0.531782	0.029590
C119	C	-0.027411	-0.412249	-0.000031
H120	H	-0.021696	-0.352899	-0.000025
H121	H	-0.045368	-0.430777	-0.029624
H122	H	-0.045349	-0.430756	0.029563
H123	H	0.125484	-0.877805	0.874295
C124	C	0.134861	-0.861478	0.769777
H125	H	0.154386	-0.827496	0.793352
H126	H	0.155035	-0.891022	0.748937
H127	H	0.117413	-0.827162	0.748947
C128	C	0.167684	-0.804436	0.636248
H129	H	0.187222	-0.770467	0.612700
H130	H	0.150253	-0.770116	0.657087
H131	H	0.187851	-0.834017	0.657084
H132	H	0.158321	-0.820718	0.468377
H133	H	-0.420334	-1.195175	-0.000021
H134	H	0.158316	-0.820725	0.531721
H135	H	0.006500	-1.084770	0.222557
H136	H	-0.706287	-1.114263	-0.000014
H137	H	0.125526	-0.877731	0.222645
C138	C	0.134905	-0.861432	0.118113
H139	H	0.130208	-0.869610	0.082474
H140	H	0.129590	-0.806042	0.126871
H141	H	0.167185	-0.869950	0.126875
C142	C	-0.002911	-1.101138	0.881836
H143	H	-0.022449	-1.135116	0.858270
H144	H	0.014529	-1.135449	0.902674
H145	H	-0.023079	-1.071564	0.902670
C146	C	-0.002871	-1.101049	0.118026
H147	H	-0.022402	-1.135032	0.141572
H148	H	-0.023037	-1.071480	0.097186
H149	H	0.014570	-1.135368	0.097191
C150	C	-0.035677	-1.158184	0.523962
H151	H	-0.055205	-1.192167	0.547511
H152	H	-0.055847	-1.128628	0.503120
H153	H	-0.018232	-1.192500	0.503130
H154	H	-0.026310	-1.141886	0.628492
H155	H	0.006462	-1.084823	0.777306
H156	H	0.158323	-0.820716	0.371473
C157	C	-0.035671	-1.158139	0.363714
H158	H	-0.030976	-1.149969	0.328080
H159	H	-0.030347	-1.213524	0.372465
H160	H	-0.067952	-1.149634	0.372457
C161	C	-0.806608	-1.134192	0.000000
H162	H	-0.839419	-1.122737	0.000007
H163	H	-0.800732	-1.165512	-0.029589
H164	H	-0.800705	-1.165465	0.029599
H165	H	-0.387864	-0.768435	0.000012
H166	H	-0.776820	-0.837554	-0.000003
H167	H	-0.296407	-0.770039	0.000010
C168	C	-0.167285	-0.826515	-0.000019
H169	H	-0.141614	-0.781754	-0.000015
H170	H	-0.186730	-0.823021	-0.029605
H171	H	-0.186696	-0.823016	0.029583
C172	C	-0.676512	-0.817614	0.000000
H173	H	-0.695317	-0.772080	-0.000004
H174	H	-0.656592	-0.814783	0.029591
H175	H	-0.656617	-0.814816	-0.029597
H176	H	-0.070255	-0.849907	-0.000032
H177	H	-0.480127	-1.194130	-0.000018
H178	H	-0.539121	-0.765802	0.000008
C179	C	-0.580444	-1.214058	-0.000006
H180	H	-0.613254	-1.202603	0.000002
H181	H	-0.574568	-1.245372	-0.029597
H182	H	-0.574541	-1.245338	0.029590
H183	H	-0.447667	-0.767402	0.000005
