data_functionalizedCrystal
_audit_creation_method	'MofGen! by Chris Wilmer'
_symmetry_space_group_name_H-M	'P1'
_symmetry_Int_Tables_number	1
_symmetry_cell_setting	triclinic
loop_
_symmetry_equiv_pos_as_xyz
  x,y,z
_cell_length_a	19.805405
_cell_length_b	12.759401
_cell_length_c	12.759393
_cell_angle_alpha	89.977503
_cell_angle_beta	90.033867
_cell_angle_gamma	89.972452
loop_
_atom_site_label
_atom_site_type_symbol
_atom_site_fract_x
_atom_site_fract_y
_atom_site_fract_z
Zn1	Zn	-0.269416	-1.606179	0.594039
Zn2	Zn	-0.382618	-1.606033	0.418349
Zn3	Zn	-0.269450	-1.430477	0.418370
Zn4	Zn	-0.382570	-1.430432	0.593981
O5	O	-0.326013	-1.518280	0.506185
O6	O	-0.284438	-1.753180	0.570749
O7	O	-0.367641	-1.582703	0.271331
O8	O	-0.174729	-1.453864	0.441705
O9	O	-0.367608	-1.753073	0.441670
O10	O	-0.174704	-1.582951	0.570769
O11	O	-0.284497	-1.453723	0.271346
O12	O	-0.284450	-1.283450	0.441649
O13	O	-0.367525	-1.453788	0.741010
O14	O	-0.367558	-1.283417	0.570671
O15	O	-0.284391	-1.582908	0.741053
O16	O	-0.477328	-1.582659	0.441614
O17	O	-0.477293	-1.453646	0.570651
C18	C	-0.326003	-1.245313	0.506156
C19	C	-0.326015	-1.128536	0.506169
C20	C	-0.369355	-1.073685	0.573243
C21	C	-0.369356	-0.963961	0.573261
C22	C	-0.282676	-0.963949	0.439122
C23	C	-0.282672	-1.073672	0.439110
C24	C	-0.501869	-1.518161	0.506147
C25	C	-0.577101	-1.518205	0.506166
C26	C	-0.612374	-1.585381	0.573422
C27	C	-0.683063	-1.585419	0.573441
C28	C	-0.718477	-1.518286	0.506199
C29	C	-0.683199	-1.451103	0.438939
C30	C	-0.612512	-1.451060	0.438926
C31	C	-0.968273	-1.451271	0.438993
C32	C	-1.038965	-1.451321	0.439010
C33	C	-1.038823	-1.585630	0.573509
C34	C	-0.968136	-1.585588	0.573495
C35	C	-0.932864	-1.518401	0.506240
C36	C	-0.856216	-1.518360	0.506221
C37	C	-0.795124	-1.518332	0.506212
C38	C	-0.149471	-1.518429	0.506246
C39	C	-0.074239	-1.518492	0.506272
C40	C	-0.325948	-1.518359	0.780218
C41	C	-0.325921	-1.518392	0.896995
C42	C	-0.326022	-0.792314	0.506207
C43	C	-0.326021	-0.909090	0.506199
C44	C	-0.326029	-1.518262	0.233217
C45	C	-0.325866	-1.518432	0.116441
C46	C	-0.282626	-1.585630	0.951881
C47	C	-0.282597	-1.585648	1.061605
C48	C	-0.369163	-1.451187	1.061548
C49	C	-0.369188	-1.451165	0.951826
H50	H	-0.404647	-0.919305	0.627881
C51	C	-0.573713	-1.377162	0.364938
N52	N	-0.544490	-1.321498	0.309210
C53	C	-0.416816	-1.377191	0.891448
N54	N	-0.452686	-1.321473	0.845971
H55	H	-0.247389	-0.919265	0.384523
C56	C	-0.234992	-1.134012	0.365319
N57	N	-0.199081	-1.179460	0.309744
C58	C	-0.235025	-1.659573	0.891571
N59	N	-0.199168	-1.715265	0.846148
C60	C	-0.573425	-1.659236	0.647394
N61	N	-0.544090	-1.714864	0.703114
C62	C	-0.721859	-1.659332	0.647415
N63	N	-0.751081	-1.715011	0.703130
H64	H	-0.939303	-1.640258	0.628247
C65	C	-1.077628	-1.659530	0.647499
N66	N	-1.106855	-1.715190	0.703226
H67	H	-0.404646	-1.118352	0.627850
C68	C	-1.077919	-1.377459	0.365041
N69	N	-1.107260	-1.321828	0.309331
H70	H	-0.939560	-1.396568	0.384230
C71	C	-0.234971	-1.659617	1.121974
N72	N	-0.199097	-1.715335	1.167444
C73	C	-0.722158	-1.377319	0.364908
N74	N	-0.751501	-1.321770	0.309120
C75	C	-0.416753	-1.377239	1.121872
N76	N	-0.452599	-1.321539	1.167307
