data_functionalizedCrystal
_audit_creation_method	'MofGen! by Chris Wilmer'
_symmetry_space_group_name_H-M	'P1'
_symmetry_Int_Tables_number	1
_symmetry_cell_setting	triclinic
loop_
_symmetry_equiv_pos_as_xyz
  x,y,z
_cell_length_a	16.109301
_cell_length_b	15.944493
_cell_length_c	14.586319
_cell_angle_alpha	90.002083
_cell_angle_beta	89.998857
_cell_angle_gamma	83.468314
loop_
_atom_site_label
_atom_site_type_symbol
_atom_site_fract_x
_atom_site_fract_y
_atom_site_fract_z
O1	O	1.103143	0.107970	-0.076178
O2	O	1.603143	0.607970	0.423822
O3	O	0.861083	0.121407	-0.076189
O4	O	1.361083	0.621407	0.423811
O5	O	0.988748	-0.007592	-0.076191
O6	O	1.488748	0.492408	0.423809
O7	O	0.975478	0.236969	-0.076176
O8	O	1.475478	0.736969	0.423824
O9	O	0.988740	-0.007594	0.076290
O10	O	1.488740	0.492406	0.576290
O11	O	0.861074	0.121405	0.076292
O12	O	1.361074	0.621405	0.576292
O13	O	1.103135	0.107968	0.076303
O14	O	1.603135	0.607968	0.576303
Cu15	Cu	0.982104	0.114686	0.090220
Cu16	Cu	1.482104	0.614686	0.590220
Cu17	Cu	0.982114	0.114689	-0.090106
Cu18	Cu	1.482114	0.614689	0.409894
O19	O	0.975469	0.236967	0.076305
O20	O	1.475469	0.736967	0.576305
C21	C	0.830104	0.120861	0.000049
C22	C	1.330104	0.620861	0.500049
C23	C	0.737808	0.119229	0.000045
C24	C	1.237808	0.619229	0.500045
C25	C	0.428818	0.190440	0.000065
C26	C	0.928818	0.690440	0.500065
C27	C	0.515539	0.191981	0.000060
C28	C	1.015539	0.691981	0.500060
C29	C	0.535394	0.038929	0.000038
C30	C	1.035394	0.538929	0.500038
C31	C	0.448675	0.037389	0.000037
C32	C	0.948675	0.537389	0.500037
C33	C	0.395389	0.113147	0.000055
C34	C	0.895389	0.613147	0.500055
C35	C	0.568828	0.116228	0.000051
C36	C	1.068828	0.616228	0.500051
C37	C	0.662855	0.117899	0.000045
C38	C	1.162855	0.617899	0.500045
C39	C	0.301357	0.111477	0.000059
C40	C	0.801357	0.611477	0.500059
C41	C	0.988202	-0.038887	0.000046
C42	C	1.488202	0.461113	0.500046
C43	C	0.986576	-0.132136	0.000034
C44	C	1.486576	0.367864	0.500034
C45	C	1.061722	-0.367920	0.000055
C46	C	1.561722	0.132080	0.500055
C47	C	1.021203	-0.418474	-0.075128
C48	C	1.521203	0.081526	0.424872
C49	C	0.983562	-0.302856	0.000045
C50	C	1.483562	0.197144	0.500045
C51	C	1.021176	-0.418452	0.075206
C52	C	1.521176	0.081548	0.575206
C53	C	0.980658	-0.467764	0.000060
C54	C	1.480658	0.032236	0.500060
C55	C	0.943064	-0.352181	-0.075200
C56	C	1.443064	0.147819	0.424800
C57	C	0.943049	-0.352156	0.075202
C58	C	1.443049	0.147844	0.575202
C59	C	0.902472	-0.402677	0.000001
C60	C	1.402472	0.097323	0.500001
C61	C	0.985238	-0.207856	0.000036
C62	C	1.485238	0.292144	0.500036
C63	C	0.978976	-0.562761	0.000062
C64	C	1.478976	-0.062761	0.500062
C65	C	1.134114	0.108514	0.000062
C66	C	1.634114	0.608514	0.500062
C67	C	1.226409	0.110145	0.000061
C68	C	1.726409	0.610145	0.500061
C69	C	0.976016	0.268262	0.000066
C70	C	1.476016	0.768262	0.500066
C71	C	0.977642	0.361510	0.000072
C72	C	1.477642	0.861510	0.500072
N73	N	0.982102	0.114684	0.217052
N74	N	1.482102	0.614684	0.717052
N75	N	0.982122	0.114684	-0.216938
N76	N	1.482122	0.614684	0.283062
C77	C	1.038651	0.057583	0.452057
C78	C	1.538651	0.557583	0.952057
C79	C	1.038654	0.057581	0.548039
C80	C	1.538654	0.557581	1.048039
C81	C	0.925567	0.171788	0.548050
C82	C	1.425567	0.671788	1.048050
C83	C	0.925561	0.171786	0.452070
C84	C	1.425561	0.671786	0.952070
C85	C	0.982108	0.114684	0.404076
C86	C	1.482108	0.614684	0.904076
C87	C	0.982116	0.114684	0.596037
C88	C	1.482116	0.614684	1.096037
C89	C	0.982118	0.114683	0.700104
C90	C	1.482118	0.614683	1.200104
C91	C	0.982105	0.114684	0.300003
C92	C	1.482105	0.614684	0.800003
H93	H	0.421458	-0.025557	0.000026
H94	H	0.921458	0.474443	0.500026
H95	H	1.129047	-0.352314	-0.000018
H96	H	1.629047	0.147686	0.499982
O97	O	1.060717	-0.453004	-0.150884
O98	O	1.560717	0.046996	0.349116
C99	C	1.144606	-0.435649	-0.150628
C100	C	1.644606	0.064351	0.349372
H101	H	1.164446	-0.422579	-0.077466
H102	H	1.664446	0.077421	0.422534
H103	H	1.186194	-0.492340	-0.179023
H104	H	1.686194	0.007660	0.320977
H105	H	1.151013	-0.377998	-0.195187
H106	H	1.651013	0.122002	0.304813
O107	O	0.870601	0.227339	0.405597
O108	O	1.370601	0.727339	0.905597
C109	C	0.820684	0.277730	0.468537
C110	C	1.320684	0.777730	0.968537
H111	H	0.854771	0.278695	0.536952
H112	H	1.354771	0.778695	1.036952
H113	H	0.807987	0.344807	0.440801
H114	H	1.307987	0.844807	0.940801
H115	H	0.758930	0.250437	0.478750
H116	H	1.258930	0.750437	0.978750
H117	H	0.910079	-0.323350	-0.138828
H118	H	1.410079	0.176650	0.361172
O119	O	0.548047	0.267045	-0.000098
O120	O	1.048047	0.767045	0.499902
C121	C	0.597624	0.272513	-0.079063
C122	C	1.097624	0.772513	0.420937
H123	H	0.577126	0.228620	-0.134259
H124	H	1.077126	0.728620	0.365741
H125	H	0.589818	0.340212	-0.105568
H126	H	1.089818	0.840212	0.394432
H127	H	0.666017	0.253129	-0.061217
H128	H	1.166017	0.753129	0.438783
H129	H	0.385435	0.252128	0.000079
H130	H	0.885435	0.752128	0.500079
H131	H	0.835095	-0.418120	-0.000043
H132	H	1.335095	0.081880	0.499957
H133	H	0.578790	-0.022751	0.000026
H134	H	1.078790	0.477249	0.500026
O135	O	0.903820	-0.317642	0.151122
O136	O	1.403820	0.182358	0.651122
C137	C	0.945243	-0.351590	0.230238
C138	C	1.445243	0.148410	0.730238
H139	H	1.012479	-0.376217	0.212229
H140	H	1.512479	0.123783	0.712229
H141	H	0.945000	-0.300363	0.284794
H142	H	1.445000	0.199637	0.784794
H143	H	0.911748	-0.405638	0.257667
H144	H	1.411748	0.094362	0.757667
O145	O	1.060678	-0.452892	0.151008
O146	O	1.560678	0.047108	0.651008
C147	C	1.144576	-0.435566	0.150708
C148	C	1.644576	0.064434	0.650708
H149	H	1.150624	-0.377493	0.106696
H150	H	1.650624	0.122507	0.606696
H151	H	1.165031	-0.423203	0.223824
H152	H	1.665031	0.076797	0.723824
H153	H	1.185914	-0.491990	0.121364
H154	H	1.685914	0.008010	0.621364
O155	O	1.093604	0.002030	0.405578
O156	O	1.593604	0.502030	0.905578
C157	C	1.143524	-0.048355	0.468514
C158	C	1.643524	0.451645	0.968514
H159	H	1.109441	-0.049309	0.536934
H160	H	1.609441	0.450691	1.036934
H161	H	1.156215	-0.115436	0.440782
H162	H	1.656215	0.384564	0.940782
H163	H	1.205280	-0.021065	0.478716
H164	H	1.705280	0.478935	0.978716
H165	H	1.084695	0.011083	0.587102
H166	H	1.584695	0.511083	1.087102
O167	O	0.870726	0.227228	0.594814
O168	O	1.370726	0.727228	1.094814
C169	C	0.882842	0.214975	0.689818
C170	C	1.382842	0.714975	1.189818
H171	H	0.948944	0.183598	0.702920
H172	H	1.448944	0.683598	1.202920
H173	H	0.873586	0.278588	0.726294
H174	H	1.373586	0.778588	1.226294
H175	H	0.835794	0.172834	0.717062
H176	H	1.335794	0.672834	1.217062
