data_functionalizedCrystal
_audit_creation_method	'MofGen! by Chris Wilmer'
_symmetry_space_group_name_H-M	'P1'
_symmetry_Int_Tables_number	1
_symmetry_cell_setting	triclinic
loop_
_symmetry_equiv_pos_as_xyz
  x,y,z
_cell_length_a	10.654541
_cell_length_b	10.654555
_cell_length_c	13.448316
_cell_angle_alpha	89.995960
_cell_angle_beta	89.994605
_cell_angle_gamma	84.486741
loop_
_atom_site_label
_atom_site_type_symbol
_atom_site_fract_x
_atom_site_fract_y
_atom_site_fract_z
O1	O	1.667855	0.176387	-0.082655
O2	O	1.302376	0.193196	-0.082663
O3	O	1.493511	0.002053	-0.082659
O4	O	1.476720	0.367530	-0.082660
O5	O	1.493487	0.002041	0.082725
O6	O	1.302352	0.193184	0.082720
O7	O	1.667831	0.176375	0.082729
Cu8	Cu	1.485089	0.184778	0.097825
Cu9	Cu	1.485118	0.184792	-0.097760
O10	O	1.476696	0.367518	0.082724
C11	C	1.255566	0.191956	0.000027
C12	C	1.116123	0.188265	0.000024
C13	C	1.492263	-0.044751	0.000031
C14	C	1.488566	-0.184194	0.000025
C15	C	1.088161	0.416829	0.000011
C16	C	1.008671	0.529372	0.000001
C17	C	0.877653	0.525896	-0.000000
C18	C	0.826123	0.409865	0.000012
C19	C	0.905613	0.297323	0.000023
C20	C	1.036633	0.300811	0.000021
C21	C	0.933574	0.068762	0.000043
C22	C	1.064593	0.072235	0.000037
C23	C	0.882044	-0.047268	0.000055
C24	C	0.961534	-0.159814	0.000059
C25	C	1.092560	-0.156333	0.000059
C26	C	1.144082	-0.040308	0.000047
C27	C	1.481600	-0.446238	0.180338
C28	C	1.483318	-0.380730	0.270491
C29	C	1.486786	-0.249711	0.270491
C30	C	1.488533	-0.184197	0.180329
C31	C	1.486815	-0.249705	0.090177
C32	C	1.483350	-0.380727	0.090186
C33	C	1.486848	-0.249702	-0.090128
C34	C	1.483388	-0.380722	-0.090130
C35	C	1.488595	-0.184187	-0.180290
C36	C	1.486886	-0.249696	-0.270444
C37	C	1.483418	-0.380723	-0.270441
C38	C	1.481670	-0.446230	-0.180282
C39	C	1.714641	0.177614	0.000036
C40	C	1.854084	0.181305	0.000032
C41	C	1.477944	0.414321	0.000032
C42	C	1.481641	0.553764	0.000032
N43	N	1.485078	0.184767	0.235390
N44	N	1.485139	0.184793	-0.235324
C45	C	1.569739	0.100164	0.287432
C46	C	1.569747	0.100163	0.391535
C47	C	1.485099	0.184772	0.443594
C48	C	1.400428	0.269379	0.391545
C49	C	1.400416	0.269373	0.287443
C50	C	1.400463	0.269388	0.608525
C51	C	1.400478	0.269396	0.712633
C52	C	1.569795	0.100178	0.712617
C53	C	1.569782	0.100172	0.608515
C54	C	1.485113	0.184781	0.556473
H55	H	1.194841	0.419670	-0.000010
Br56	Br	0.769769	0.678632	-0.000001
H57	H	1.157274	-0.247980	0.000071
H58	H	1.250762	-0.037463	0.000035
H59	H	1.050642	0.623842	-0.000007
H60	H	1.331474	0.338264	0.245071
Br61	Br	1.489109	-0.160800	0.392840
H62	H	0.919567	-0.254277	0.000068
H63	H	1.491342	-0.077512	0.180337
H64	H	1.638675	0.031271	0.245052
H65	H	1.638735	0.031287	0.754996
Br66	Br	1.489265	-0.160781	-0.392793
Br67	Br	1.476927	-0.624055	0.180344
Br68	Br	0.704233	-0.051988	0.000063
Br69	Br	1.493267	-0.006370	-0.180291
Br70	Br	1.480927	-0.469643	0.392847
H71	H	1.482009	-0.434051	-0.343854
Br72	Br	1.476978	-0.624044	-0.180271
Br73	Br	1.684642	-0.014661	0.462168
H74	H	1.331500	0.338265	0.433937
H75	H	1.638715	0.031284	0.566129
H76	H	1.331547	0.338292	0.755014
Br77	Br	1.285547	0.384211	0.537899
H78	H	0.719440	0.407046	0.000023
