data_functionalizedCrystal
_audit_creation_method	'MofGen! by Chris Wilmer'
_symmetry_space_group_name_H-M	'P1'
_symmetry_Int_Tables_number	1
_symmetry_cell_setting	triclinic
loop_
_symmetry_equiv_pos_as_xyz
  x,y,z
_cell_length_a	12.759401
_cell_length_b	12.645330
_cell_length_c	12.645323
_cell_angle_alpha	89.973156
_cell_angle_beta	89.980205
_cell_angle_gamma	90.019217
loop_
_atom_site_label
_atom_site_type_symbol
_atom_site_fract_x
_atom_site_fract_y
_atom_site_fract_z
Zn1	Zn	1.606233	-0.421967	-0.599390
Zn2	Zn	2.106233	0.078033	-0.099390
Zn3	Zn	1.606118	-0.599261	-0.422130
Zn4	Zn	2.106118	-0.099261	0.077870
Zn5	Zn	1.430535	-0.422017	-0.422140
Zn6	Zn	1.930535	0.077983	0.077860
Zn7	Zn	1.430514	-0.599194	-0.599351
Zn8	Zn	1.930514	-0.099194	-0.099351
O9	O	1.518350	-0.510610	-0.510753
O10	O	2.018350	-0.010610	-0.010753
O11	O	1.753238	-0.445493	-0.575888
O12	O	2.253238	0.054507	-0.075888
O13	O	1.582787	-0.575799	-0.273784
O14	O	2.082787	-0.075799	0.226216
O15	O	1.453898	-0.273663	-0.445673
O16	O	1.953898	0.226337	0.054327
O17	O	1.753154	-0.575750	-0.445655
O18	O	2.253154	-0.075750	0.054345
O19	O	1.582983	-0.273627	-0.575898
O20	O	2.082983	0.226373	-0.075898
O21	O	1.453787	-0.445578	-0.273792
O22	O	1.953787	0.054422	0.226208
O23	O	1.283511	-0.445513	-0.445636
O24	O	1.783511	0.054487	0.054364
O25	O	1.453863	-0.575635	-0.747704
O26	O	1.953863	-0.075635	-0.247704
O27	O	1.283496	-0.575684	-0.575832
O28	O	1.783496	-0.075684	-0.075832
O29	O	1.582962	-0.445428	-0.747732
O30	O	2.082962	0.054572	-0.247732
O31	O	1.582767	-0.747600	-0.445618
O32	O	2.082767	-0.247600	0.054382
O33	O	1.453752	-0.747550	-0.575822
O34	O	1.953752	-0.247550	-0.075822
C35	C	1.245383	-0.510597	-0.510732
C36	C	1.745383	-0.010597	-0.010732
C37	C	1.128606	-0.510617	-0.510748
C38	C	1.628606	-0.010617	-0.010748
C39	C	1.073764	-0.578500	-0.578434
C40	C	1.573764	-0.078500	-0.078434
C41	C	0.964040	-0.578504	-0.578455
C42	C	1.464040	-0.078504	-0.078455
C43	C	0.964010	-0.442739	-0.443094
C44	C	1.464010	0.057261	0.056906
C45	C	1.073732	-0.442730	-0.443080
C46	C	1.573732	0.057270	0.056920
C47	C	1.518273	-0.786040	-0.510738
C48	C	2.018273	-0.286040	-0.010738
C49	C	1.518337	-0.903870	-0.510767
C50	C	2.018337	-0.403870	-0.010767
C51	C	1.437508	-1.071446	-0.592931
C52	C	1.937508	-0.571446	-0.092931
C53	C	1.437094	-0.948887	-0.592667
C54	C	1.937094	-0.448887	-0.092667
C55	C	1.488363	-0.948468	-0.399046
C56	C	1.988363	-0.448468	0.100954
C57	C	1.487870	-1.071067	-0.399545
C58	C	1.987870	-0.571067	0.100455
C59	C	1.629633	-1.070955	-0.539418
C60	C	2.129633	-0.570955	-0.039418
C61	C	1.628951	-0.948348	-0.541861
C62	C	2.128951	-0.448348	-0.041861
C63	C	1.792383	-0.510624	-0.510775
C64	C	2.292383	-0.010624	-0.010775
C65	C	1.909160	-0.510629	-0.510784
C66	C	2.409160	-0.010629	-0.010784
C67	C	1.518423	-0.510518	-0.787258
C68	C	2.018423	-0.010518	-0.287258
C69	C	1.518454	-0.510479	-0.905088
C70	C	2.018454	-0.010479	-0.405088
C71	C	1.518456	-0.234105	-0.510791
C72	C	2.018456	0.265895	-0.010791
C73	C	1.518501	-0.116274	-0.510807
C74	C	2.018501	0.383726	-0.010807
C75	C	1.437243	-0.592376	-0.949953
C76	C	1.937243	-0.092376	-0.449953
C77	C	1.436957	-0.592068	-1.072513
C78	C	1.936957	-0.092068	-0.572513
C79	C	1.488852	-0.398582	-1.072992
C80	C	1.988852	0.101418	-0.572992
C81	C	1.488230	-0.399122	-0.950393
C82	C	1.988230	0.100878	-0.450393
C83	C	1.629541	-0.539364	-0.950275
C84	C	2.129541	-0.039364	-0.450275
C85	C	1.628978	-0.541762	-1.072882
C86	C	2.128978	-0.041762	-0.572882
C87	C	1.518338	-0.510624	-0.235323
C88	C	2.018338	-0.010624	0.264677
C89	C	1.518510	-0.510365	-0.117494
C90	C	2.018510	-0.010365	0.382506
H91	H	1.455847	-0.918730	-0.675507
H92	H	1.955847	-0.418730	-0.175507
Cl93	Cl	1.142682	-0.357377	-0.357988
Cl94	Cl	1.642682	0.142623	0.142012
Cl95	Cl	1.722802	-1.115732	-0.447088
Cl96	Cl	2.222802	-0.615732	0.052912
H97	H	1.354706	-0.919655	-0.573712
H98	H	1.854706	-0.419655	-0.073712
H99	H	0.919318	-0.387470	-0.388000
H100	H	1.419318	0.112530	0.112000
H101	H	1.408571	-0.373687	-1.103696
H102	H	1.908571	0.126313	-0.603696
H103	H	1.456089	-1.100855	-0.676043
H104	H	1.956089	-0.600855	-0.176043
Cl105	Cl	1.311103	-1.119181	-0.564064
Cl106	Cl	1.811103	-0.619181	-0.064064
H107	H	1.406631	-1.099761	-0.375307
H108	H	1.906631	-0.599761	0.124693
Cl109	Cl	1.722957	-0.447279	-0.905474
Cl110	Cl	2.222957	0.052721	-0.405474
H111	H	0.919392	-0.633780	-0.633574
H112	H	1.419392	-0.133780	-0.133574
H113	H	1.544302	-1.100725	-0.336270
H114	H	2.044302	-0.600725	0.163730
H115	H	1.545484	-0.919311	-0.336186
H116	H	2.045484	-0.419311	0.163814
H117	H	1.407971	-0.917860	-0.374370
H118	H	1.907971	-0.417860	0.125630
H119	H	1.656975	-1.101795	-0.619500
H120	H	2.156975	-0.601795	-0.119500
H121	H	1.651555	-0.919194	-0.624082
H122	H	2.151555	-0.419194	-0.124082
H123	H	1.692473	-0.917698	-0.486402
H124	H	2.192473	-0.417698	0.013598
Cl125	Cl	1.310876	-0.563172	-0.902399
Cl126	Cl	1.810876	-0.063172	-0.402399
Cl127	Cl	1.309887	-0.562496	-1.117802
Cl128	Cl	1.809887	-0.062496	-0.617802
H129	H	1.656592	-0.619527	-0.919359
H130	H	2.156592	-0.119527	-0.419359
Cl131	Cl	1.465535	-0.720028	-1.118973
Cl132	Cl	1.965535	-0.220028	-0.618973
H133	H	1.455524	-0.675547	-0.920476
H134	H	1.955524	-0.175547	-0.420476
Cl135	Cl	1.575613	-0.301668	-0.904565
Cl136	Cl	2.075613	0.198332	-0.404565
Cl137	Cl	1.362881	-0.361391	-0.906239
Cl138	Cl	1.862881	0.138609	-0.406239
Cl139	Cl	1.577399	-0.301739	-1.117971
Cl140	Cl	2.077399	0.198261	-0.617971
Cl141	Cl	1.663520	-0.668777	-1.117787
Cl142	Cl	2.163520	-0.168777	-0.617787
H143	H	1.118439	-0.633775	-0.633537
H144	H	1.618439	-0.133775	-0.133537
Cl145	Cl	1.727381	-0.456381	-1.120153
Cl146	Cl	2.227381	0.043619	-0.620153
