data_functionalizedCrystal
_audit_creation_method	'MofGen! by Chris Wilmer'
_symmetry_space_group_name_H-M	'P1'
_symmetry_Int_Tables_number	1
_symmetry_cell_setting	triclinic
loop_
_symmetry_equiv_pos_as_xyz
  x,y,z
_cell_length_a	6.817900
_cell_length_b	12.257928
_cell_length_c	12.095703
_cell_angle_alpha	86.697738
_cell_angle_beta	105.446920
_cell_angle_gamma	72.012007
loop_
_atom_site_label
_atom_site_type_symbol
_atom_site_fract_x
_atom_site_fract_y
_atom_site_fract_z
V1	V	-4.088057	0.357774	-0.158964
V2	V	-3.588057	0.857774	0.341036
O3	O	-4.064307	0.350846	0.007380
O4	O	-3.564307	0.850846	0.507380
O5	O	-4.048866	0.355441	-0.314950
O6	O	-3.548866	0.855441	0.185050
O7	O	-4.061960	0.513760	-0.156632
O8	O	-3.561960	1.013760	0.343368
O9	O	-4.051123	0.191430	-0.152033
O10	O	-3.551123	0.691430	0.347967
V11	V	-4.567602	0.337864	-0.139054
V12	V	-4.067602	0.837864	0.360946
O13	O	-4.358042	0.401448	-0.202638
O14	O	-3.858042	0.901448	0.297362
O15	O	-4.747815	0.294191	-0.095379
O16	O	-4.247815	0.794191	0.404621
O17	O	-4.383587	0.340198	0.016932
O18	O	-3.883587	0.840198	0.516932
O19	O	-4.708749	0.344793	-0.305398
O20	O	-4.208749	0.844793	0.194602
O21	O	-4.721934	0.504208	-0.145984
O22	O	-4.221934	1.004208	0.354016
O23	O	-4.370493	0.181878	-0.141385
O24	O	-3.870493	0.681878	0.358615
C25	C	-3.912086	0.551777	-0.151021
C26	C	-3.412086	1.051777	0.348979
C27	C	-3.972093	0.679297	-0.150147
C28	C	-3.472093	1.179297	0.349853
C29	C	-3.895385	0.349826	-0.352972
C30	C	-3.395385	0.849826	0.147028
C31	C	-3.944777	0.348957	-0.480493
C32	C	-3.444777	0.848957	0.019507
C33	C	-4.081916	0.912769	-0.148548
C34	C	-3.581916	1.412769	0.351452
C35	C	-4.020794	0.782848	-0.149437
C36	C	-3.520794	1.282848	0.350563
C37	C	-4.200410	0.345810	0.054948
C38	C	-3.700410	0.845810	0.554948
C39	C	-4.130258	0.346686	0.182468
C40	C	-3.630258	0.846686	0.682468
C41	C	-4.001754	0.348257	0.415945
C42	C	-3.501754	0.848257	0.915945
C43	C	-4.073254	0.347382	0.286022
C44	C	-3.573254	0.847382	0.786022
C45	C	-4.190671	1.143855	-0.146994
C46	C	-3.690671	1.643855	0.353006
C47	C	-4.130653	1.016331	-0.147844
C48	C	-3.630653	1.516331	0.352156
