data_functionalizedCrystal
_audit_creation_method	'MofGen! by Chris Wilmer'
_symmetry_space_group_name_H-M	'P1'
_symmetry_Int_Tables_number	1
_symmetry_cell_setting	triclinic
loop_
_symmetry_equiv_pos_as_xyz
  x,y,z
_cell_length_a	16.956985
_cell_length_b	16.053789
_cell_length_c	16.992695
_cell_angle_alpha	87.278479
_cell_angle_beta	83.360706
_cell_angle_gamma	86.948975
loop_
_atom_site_label
_atom_site_type_symbol
_atom_site_fract_x
_atom_site_fract_y
_atom_site_fract_z
O1	O	-1.063276	0.069459	-0.035095
O2	O	-0.729943	0.402792	0.298238
O3	O	-0.396610	0.736126	0.631571
O4	O	-0.832865	0.069455	-0.062511
O5	O	-0.499532	0.402788	0.270822
O6	O	-0.166199	0.736121	0.604155
O7	O	-0.947147	0.069450	0.065280
O8	O	-0.613814	0.402784	0.398613
O9	O	-0.280480	0.736117	0.731946
O10	O	-0.948995	0.069463	-0.162886
O11	O	-0.615662	0.402797	0.170447
O12	O	-0.282328	0.736130	0.503780
O13	O	-0.940789	-0.069410	0.070768
O14	O	-0.607455	0.263924	0.404101
O15	O	-0.274122	0.597257	0.737435
O16	O	-0.826507	-0.069405	-0.057023
O17	O	-0.493174	0.263928	0.276310
O18	O	-0.159841	0.597261	0.609644
O19	O	-1.056918	-0.069401	-0.029607
O20	O	-0.723585	0.263932	0.303726
O21	O	-0.390251	0.597266	0.637060
Zn22	Zn	-0.940703	-0.091450	-0.042444
Zn23	Zn	-0.607370	0.241883	0.290890
Zn24	Zn	-0.274037	0.575217	0.624223
Zn25	Zn	-0.949080	0.091504	-0.049675
Zn26	Zn	-0.615747	0.424837	0.283659
Zn27	Zn	-0.282414	0.758170	0.616992
O28	O	-0.942637	-0.069396	-0.157398
O29	O	-0.609303	0.263937	0.175935
O30	O	-0.275970	0.597270	0.509269
C31	C	-0.800068	0.000024	-0.061171
C32	C	-0.466734	0.333357	0.272162
C33	C	-0.133401	0.666691	0.605496
C34	C	-0.711813	0.000022	-0.065345
C35	C	-0.378480	0.333356	0.267988
C36	C	-0.045146	0.666689	0.601322
N37	N	-0.934992	-0.216311	-0.037508
N38	N	-0.601659	0.117022	0.295826
N39	N	-0.268325	0.450355	0.629159
C40	C	-0.675281	0.000016	0.004441
C41	C	-0.341948	0.333349	0.337774
C42	C	-0.008615	0.666683	0.671107
C43	C	-0.592356	0.000020	0.000514
C44	C	-0.259023	0.333353	0.333847
C45	C	0.074310	0.666687	0.667181
C46	C	-0.545964	0.000025	-0.073199
C47	C	-0.212631	0.333358	0.260134
C48	C	0.120702	0.666692	0.593468
C49	C	-0.582502	0.000034	-0.142990
C50	C	-0.249168	0.333367	0.190343
C51	C	0.084165	0.666700	0.523677
C52	C	-0.665425	0.000035	-0.139063
C53	C	-0.332092	0.333369	0.194271
C54	C	0.001241	0.666702	0.527604
C55	C	-0.297431	0.000026	-0.092638
C56	C	0.035903	0.333359	0.240695
C57	C	0.369236	0.666693	0.574028
C58	C	-0.214501	0.000022	-0.096560
C59	C	0.118832	0.333355	0.236773
C60	C	0.452165	0.666688	0.570106
C61	C	-0.224362	0.000010	0.046944
C62	C	0.108971	0.333343	0.380277
C63	C	0.442305	0.666676	0.713611
C64	C	-0.307287	0.000006	0.050865
C65	C	0.026047	0.333340	0.384198
C66	C	0.359380	0.666673	0.717531
C67	C	-0.343817	0.000020	-0.018926
C68	C	-0.010483	0.333353	0.314407
C69	C	0.322850	0.666686	0.647741
N70	N	-0.461202	0.000027	-0.077214
N71	N	-0.127868	0.333360	0.256119
N72	N	0.205465	0.666693	0.589452
N73	N	-0.428578	0.000024	-0.014910
N74	N	-0.095245	0.333357	0.318423
N75	N	0.238088	0.666691	0.651757
C76	C	-0.089716	0.000026	-0.030948
C77	C	0.243618	0.333359	0.302386
C78	C	0.576951	0.666692	0.635719
C79	C	-0.177970	0.000015	-0.026775
C80	C	0.155364	0.333349	0.306559
C81	C	0.488697	0.666682	0.639892
C82	C	-0.984175	-0.259998	-0.080049
C83	C	-0.650841	0.073335	0.253284
C84	C	-0.317508	0.406669	0.586617
C85	C	-0.980190	-0.347405	-0.076591
C86	C	-0.646856	-0.014072	0.256743
C87	C	-0.313523	0.319261	0.590076
C88	C	-0.927018	-0.391124	-0.030595
C89	C	-0.593684	-0.057791	0.302739
C90	C	-0.260351	0.275542	0.636072
C91	C	-0.877833	-0.347431	0.011952
C92	C	-0.544500	-0.014098	0.345285
C93	C	-0.211166	0.319235	0.678619
C94	C	-0.881822	-0.260026	0.008497
C95	C	-0.548489	0.073308	0.341831
C96	C	-0.215156	0.406641	0.675164
C97	C	-0.909602	-0.652536	-0.015512
C98	C	-0.576269	-0.319203	0.317821
C99	C	-0.242936	0.014130	0.651155
C100	C	-0.905615	-0.739948	-0.012062
C101	C	-0.572282	-0.406615	0.321271
C102	C	-0.238948	-0.073282	0.654604
C103	C	-1.007973	-0.739916	-0.100604
C104	C	-0.674640	-0.406583	0.232729
C105	C	-0.341307	-0.073249	0.566062
C106	C	-1.011955	-0.652509	-0.104059
C107	C	-0.678621	-0.319175	0.229275
C108	C	-0.345288	0.014158	0.562608
C109	C	-0.962773	-0.608823	-0.061509
C110	C	-0.629439	-0.275490	0.271825
C111	C	-0.296106	0.057843	0.605158
N112	N	-0.922941	-0.480469	-0.027060
N113	N	-0.589608	-0.147135	0.306273
N114	N	-0.256275	0.186198	0.639606
N115	N	-0.966854	-0.519481	-0.065039
N116	N	-0.633520	-0.186147	0.268294
N117	N	-0.300187	0.147186	0.601628
C118	C	-0.941591	0.000020	0.097082
C119	C	-0.608258	0.333354	0.430416
C120	C	-0.274925	0.666687	0.763749
C121	C	-0.934501	0.000020	0.183667
C122	C	-0.601167	0.333354	0.517000
C123	C	-0.267834	0.666687	0.850334
N124	N	-0.954798	0.216365	-0.054604
N125	N	-0.621464	0.549698	0.278729
N126	N	-0.288131	0.883032	0.612063
C127	C	-0.948192	0.000035	-0.189201
C128	C	-0.614859	0.333369	0.144133
C129	C	-0.281526	0.666702	0.477466
C130	C	-0.955283	0.000041	-0.275786
C131	C	-0.621950	0.333374	0.057548
C132	C	-0.288617	0.666707	0.390881
C133	C	-1.002916	0.000021	0.238342
C134	C	-0.669582	0.333354	0.571675
C135	C	-0.336249	0.666687	0.905009
C136	C	-0.996249	0.000029	0.319696
C137	C	-0.662916	0.333362	0.653030
C138	C	-0.329582	0.666695	0.986363
C139	C	-0.921166	0.000030	0.346374
C140	C	-0.587833	0.333363	0.679707
C141	C	-0.254500	0.666697	1.013040
C142	C	-0.852746	0.000032	0.291692
C143	C	-0.519413	0.333365	0.625025
C144	C	-0.186080	0.666699	0.958358
C145	C	-0.859414	0.000030	0.210339
C146	C	-0.526081	0.333364	0.543672
C147	C	-0.192747	0.666697	0.877006
C148	C	-0.893531	0.000041	0.588180
C149	C	-0.560198	0.333374	0.921513
C150	C	-0.226864	0.666708	1.254846
C151	C	-0.886868	0.000040	0.669539
C152	C	-0.553535	0.333374	1.002873
C153	C	-0.220202	0.666707	1.336206
C154	C	-1.030372	0.000038	0.697538
C155	C	-0.697038	0.333372	1.030872
C156	C	-0.363705	0.666705	1.364205
C157	C	-1.037033	0.000032	0.616183
C158	C	-0.703699	0.333365	0.949516
C159	C	-0.370366	0.666698	1.282849
C160	C	-0.968613	0.000038	0.561508
C161	C	-0.635280	0.333371	0.894841
C162	C	-0.301946	0.666705	1.228174
N163	N	-0.914350	0.000035	0.429531
N164	N	-0.581016	0.333369	0.762864
N165	N	-0.247683	0.666702	1.096197
N166	N	-0.975430	0.000039	0.478352
N167	N	-0.642097	0.333372	0.811686
N168	N	-0.308764	0.666705	1.145019
H169	H	-0.713048	0.000009	0.064466
H170	H	-0.379715	0.333342	0.397799
H171	H	-0.046381	0.666675	0.731133
H172	H	-1.027468	-0.224408	-0.117509
H173	H	-0.694135	0.108925	0.215824
H174	H	-0.360802	0.442259	0.549157
Br175	Br	-1.046941	-0.406692	-0.134328
Br176	Br	-0.713608	-0.073358	0.199005
Br177	Br	-0.380274	0.259975	0.532338
H178	H	-1.064056	0.000015	0.216629
H179	H	-0.730723	0.333348	0.549962
H180	H	-0.397389	0.666681	0.883296
H181	H	-0.327163	0.000042	-0.149467
H182	H	0.006170	0.333376	0.183866
H183	H	0.339503	0.666709	0.517199
Br184	Br	-1.084082	-0.593181	-0.166526
Br185	Br	-0.750748	-0.259848	0.166807
Br186	Br	-0.417415	0.073485	0.500141
Br187	Br	-0.715005	0.000052	-0.233776
Br188	Br	-0.381672	0.333385	0.099558
Br189	Br	-0.048339	0.666718	0.432891
H190	H	-0.803703	0.000030	0.165822
H191	H	-0.470370	0.333363	0.499155
H192	H	-0.137036	0.666697	0.832489
H193	H	-0.562617	0.000016	0.057341
H194	H	-0.229283	0.333349	0.390674
H195	H	0.104050	0.666682	0.724007
H196	H	-0.345054	-0.000001	0.110890
H197	H	-0.011720	0.333332	0.444223
H198	H	0.321613	0.666665	0.777557
Br199	Br	-1.074716	-0.799207	-0.158347
Br200	Br	-0.741383	-0.465874	0.174986
Br201	Br	-0.408049	-0.132541	0.508319
Br202	Br	-1.089102	0.000029	0.393896
Br203	Br	-0.755769	0.333363	0.727230
Br204	Br	-0.422436	0.666696	1.060563
Br205	Br	-0.800675	0.000055	0.513988
Br206	Br	-0.467342	0.333388	0.847321
Br207	Br	-0.134008	0.666722	1.180654
H208	H	-1.086075	0.000035	0.742063
H209	H	-0.752742	0.333368	1.075396
H210	H	-0.419408	0.666701	1.408729
Br211	Br	-0.151540	0.000016	-0.196605
Br212	Br	0.181794	0.333350	0.136728
Br213	Br	0.515127	0.666683	0.470061
H214	H	-0.825723	0.000028	0.691256
H215	H	-0.492390	0.333361	1.024589
H216	H	-0.159057	0.666695	1.357923
Br217	Br	-0.174781	-0.000006	0.141655
Br218	Br	0.158552	0.333328	0.474988
Br219	Br	0.491885	0.666661	0.808322
H220	H	-0.544723	0.000043	-0.203009
H221	H	-0.211389	0.333376	0.130325
H222	H	0.121944	0.666710	0.463658
Br223	Br	-0.833447	-0.799281	0.050364
Br224	Br	-0.500114	-0.465948	0.383697
Br225	Br	-0.166780	-0.132615	0.717031
Br226	Br	-0.750847	0.000048	0.327895
Br227	Br	-0.417514	0.333381	0.661228
Br228	Br	-0.084181	0.666715	0.994562
Br229	Br	-0.815082	-0.200735	0.066247
Br230	Br	-0.481749	0.132598	0.399580
Br231	Br	-0.148416	0.465931	0.732913
H232	H	-0.869555	-0.616978	0.019136
H233	H	-0.536222	-0.283645	0.352469
H234	H	-0.202889	0.049688	0.685802
Br235	Br	-0.805673	-0.406763	0.074380
Br236	Br	-0.472340	-0.073430	0.407713
Br237	Br	-0.139006	0.259903	0.741046
H238	H	-1.098173	0.000030	0.594469
H239	H	-0.764840	0.333364	0.927802
H240	H	-0.431506	0.666697	1.261136
