data_functionalizedCrystal
_audit_creation_method	'MofGen! by Chris Wilmer'
_symmetry_space_group_name_H-M	'P1'
_symmetry_Int_Tables_number	1
_symmetry_cell_setting	triclinic
loop_
_symmetry_equiv_pos_as_xyz
  x,y,z
_cell_length_a	11.026607
_cell_length_b	14.044220
_cell_length_c	10.065875
_cell_angle_alpha	99.592716
_cell_angle_beta	79.302338
_cell_angle_gamma	100.887447
loop_
_atom_site_label
_atom_site_type_symbol
_atom_site_fract_x
_atom_site_fract_y
_atom_site_fract_z
O1	O	1.670494	0.393284	-0.113515
O2	O	1.312203	0.347236	-0.113514
O3	O	1.485969	0.231359	-0.113501
O4	O	1.496729	0.509161	-0.113528
O5	O	1.452846	0.253569	0.113485
O6	O	1.279081	0.369446	0.113472
O7	O	1.637372	0.415494	0.113471
Zn8	Zn	1.452967	0.395996	0.149510
Zn9	Zn	1.496608	0.366734	-0.149554
O10	O	1.463606	0.531371	0.113458
C11	C	1.249512	0.349846	-0.000021
C12	C	1.112056	0.324521	-0.000020
C13	C	1.045821	0.394445	-0.000028
C14	C	0.903753	0.368273	-0.000027
C15	C	1.464699	0.206346	-0.000008
C16	C	1.450655	0.098724	-0.000006
C17	C	1.424983	-0.098320	-0.000025
C18	C	1.524588	-0.138958	-0.000030
C19	C	1.510304	-0.248600	-0.000041
C20	C	1.439265	0.011332	-0.000015
C21	C	1.700064	0.412884	-0.000025
C22	C	1.837520	0.438207	-0.000035
C23	C	1.484876	0.556383	-0.000039
C24	C	1.498921	0.664004	-0.000049
N25	N	1.423193	0.415967	0.353614
N26	N	1.526391	0.346756	-0.353657
C27	C	1.486240	0.373675	0.421397
C28	C	1.463335	0.389055	0.578563
H29	H	0.855293	0.289025	-0.000054
C30	C	1.582048	0.309356	0.342613
N31	N	1.654206	0.260904	0.283275
H32	H	1.620605	-0.091415	-0.000122
C33	C	1.295292	-0.162556	-0.000007
N34	N	1.197609	-0.210949	0.000018
H35	H	1.392391	0.436648	0.636878
C36	C	1.046581	0.217469	-0.000010
N37	N	0.997268	0.136835	-0.000004
C38	C	1.327358	0.480262	0.432398
N39	N	1.255172	0.528691	0.491736
C40	C	1.111295	0.501498	-0.000033
N41	N	1.160608	0.582133	-0.000037
C42	C	0.902988	0.545265	-0.000046
N43	N	0.952299	0.625900	-0.000058
H44	H	1.597325	0.299155	0.588028
