data_functionalizedCrystal
_audit_creation_method	'MofGen! by Chris Wilmer'
_symmetry_space_group_name_H-M	'P1'
_symmetry_Int_Tables_number	1
_symmetry_cell_setting	triclinic
loop_
_symmetry_equiv_pos_as_xyz
  x,y,z
_cell_length_a	14.908795
_cell_length_b	15.297327
_cell_length_c	15.298431
_cell_angle_alpha	88.343933
_cell_angle_beta	96.945662
_cell_angle_gamma	103.501692
loop_
_atom_site_label
_atom_site_type_symbol
_atom_site_fract_x
_atom_site_fract_y
_atom_site_fract_z
Zn1	Zn	1.241746	-0.181443	-0.613239
Zn2	Zn	1.232813	-0.353878	-0.491687
Zn3	Zn	1.111381	-0.215390	-0.460733
Zn4	Zn	1.060510	-0.339786	-0.630104
O5	O	1.161613	-0.272624	-0.548940
O6	O	1.367228	-0.196007	-0.603011
O7	O	1.234256	-0.355612	-0.365828
O8	O	1.153703	-0.086663	-0.460951
O9	O	1.360665	-0.322694	-0.513708
O10	O	1.249481	-0.061722	-0.572996
O11	O	1.145041	-0.253866	-0.343086
O12	O	0.977966	-0.240201	-0.477303
O13	O	1.067000	-0.298677	-0.749619
O14	O	0.940591	-0.331594	-0.601740
O15	O	1.200153	-0.182343	-0.737229
O16	O	1.184928	-0.476233	-0.530060
O17	O	1.058338	-0.465879	-0.631755
C18	C	0.926435	-0.288053	-0.537993
C19	C	0.825818	-0.294671	-0.533334
C20	C	1.115165	-0.503261	-0.586117
C21	C	1.095374	-0.601919	-0.602054
C22	C	0.680619	-0.369878	-0.480170
C23	C	0.775157	-0.363663	-0.484548
C24	C	0.781935	-0.231888	-0.577743
C25	C	0.687397	-0.238103	-0.573365
C26	C	0.636742	-0.307101	-0.524578
C27	C	0.542200	-0.313319	-0.520206
C28	C	0.548982	-0.181541	-0.613395
C29	C	0.643520	-0.175326	-0.617773
C30	C	1.303397	-0.901415	-0.435350
C31	C	1.321993	-0.808722	-0.420372
C32	C	1.265340	-0.757017	-0.465791
C33	C	1.190088	-0.798013	-0.526191
C34	C	1.171486	-0.890716	-0.541165
C35	C	1.133429	-0.746318	-0.571607
C36	C	1.058176	-0.787314	-0.632006
C37	C	1.039579	-0.880008	-0.646978
C38	C	1.096231	-0.931713	-0.601559
C39	C	1.152030	-0.653615	-0.556632
C40	C	1.020119	-0.642916	-0.662447
C41	C	1.001524	-0.735608	-0.677425
C42	C	1.397708	-0.257136	-0.559931
C43	C	1.498318	-0.250536	-0.564615
C44	C	1.128899	-0.235151	-0.775875
C45	C	1.114958	-0.219183	-0.872582
C46	C	1.208263	-0.041082	-0.511639
C47	C	1.228143	0.057588	-0.495744
C48	C	1.061958	-0.158704	-0.906166
C49	C	1.048848	-0.143702	-0.997026
C50	C	1.088743	-0.189173	-1.054310
C51	C	1.141749	-0.249648	-1.020725
C52	C	1.154854	-0.264656	-0.929856
C53	C	1.181639	-0.295125	-1.078000
C54	C	1.234646	-0.355601	-1.044415
C55	C	1.247749	-0.370606	-0.953555
C56	C	1.207854	-0.325135	-0.896272
C57	C	1.168534	-0.280117	-1.168868
C58	C	1.261430	-0.386070	-1.192558
C59	C	1.274540	-0.401071	-1.101698
C60	C	1.194264	-0.309884	-0.322880
C61	C	1.208430	-0.325591	-0.226143
H62	H	0.639371	-0.426065	-0.440454
H63	H	1.078066	-0.176954	-1.128291
H64	H	1.029475	-0.121694	-0.859520
H65	H	1.290896	-0.419861	-0.926215
O66	O	1.220548	-0.339873	-0.808034
C67	C	1.184510	-0.431484	-0.790295
H68	H	1.182119	-0.472959	-0.851614
H69	H	1.111351	-0.440948	-0.770978
C70	C	1.250137	-0.411803	-0.638867
C71	C	1.247208	-0.462744	-0.714178
H72	H	1.288808	-0.431087	-0.591913
H73	H	1.274413	-0.350083	-0.650817
H74	H	1.189167	-0.419695	-0.622781
H75	H	1.308175	-0.454843	-0.730270
H76	H	1.222943	-0.524465	-0.702230
H77	H	1.317698	-0.450311	-1.074340
O78	O	0.817699	-0.424761	-0.441526
C79	C	0.774048	-0.511668	-0.473581
H80	H	0.737132	-0.506489	-0.542617
H81	H	0.721235	-0.546115	-0.428084
C82	C	0.892916	-0.573425	-0.392008
C83	C	0.847581	-0.567064	-0.476803
H84	H	0.938273	-0.607598	-0.393992
H85	H	0.922323	-0.514875	-0.370409
H86	H	0.848896	-0.602128	-0.354103
H87	H	0.891599	-0.538352	-0.514703
H88	H	0.818183	-0.625611	-0.498409
O89	O	0.493060	-0.380449	-0.472883
C90	C	0.495611	-0.464318	-0.507102
H91	H	0.559057	-0.456175	-0.544030
H92	H	0.429939	-0.490409	-0.554152
C93	C	0.423479	-0.541686	-0.385686
C94	C	0.501409	-0.531686	-0.431035
H95	H	0.427051	-0.583244	-0.338766
H96	H	0.421757	-0.485183	-0.362633
H97	H	0.368760	-0.563425	-0.424903
H98	H	0.556125	-0.509937	-0.391821
H99	H	0.503141	-0.588188	-0.454080
O100	O	0.831279	-0.164944	-0.625116
C101	C	0.924136	-0.172907	-0.619430
H102	H	0.927379	-0.245244	-0.602462
H103	H	0.968227	-0.126059	-0.565917
C104	C	0.957642	-0.058327	-0.729267
C105	C	0.961625	-0.147175	-0.708434
H106	H	0.980770	-0.042451	-0.784166
H107	H	0.895084	-0.052959	-0.733096
H108	H	0.994385	-0.019297	-0.684666
H109	H	0.924874	-0.186203	-0.753029
H110	H	1.024178	-0.152549	-0.704614
O111	O	0.692733	-0.108417	-0.665279
C112	C	0.729170	-0.146190	-0.732068
H113	H	0.685847	-0.217117	-0.747278
H114	H	0.804084	-0.148937	-0.708963
C115	C	0.779510	-0.000813	-0.797008
C116	C	0.726294	-0.087925	-0.815695
H117	H	0.777740	0.035129	-0.848593
H118	H	0.754965	0.024636	-0.752010
H119	H	0.841933	-0.003115	-0.777753
H120	H	0.663870	-0.085622	-0.834939
H121	H	0.750828	-0.113372	-0.860699
H122	H	0.513248	-0.130424	-0.649557
O123	O	0.928510	-0.775372	-0.736215
C124	C	0.940261	-0.737042	-0.820192
H125	H	1.017053	-0.706011	-0.823878
H126	H	0.899223	-0.682709	-0.831955
C127	C	0.810480	-0.848599	-0.886527
C128	C	0.904799	-0.810493	-0.891057
H129	H	0.788602	-0.893905	-0.930240
H130	H	0.802560	-0.874421	-0.829949
H131	H	0.776294	-0.803313	-0.896327
H132	H	0.938985	-0.855776	-0.881245
H133	H	0.912724	-0.784680	-0.947634
H134	H	1.213301	-0.620244	-0.507454
O135	O	1.283380	-0.666949	-0.451407
C136	C	1.300786	-0.620633	-0.530872
H137	H	1.267346	-0.666791	-0.588883
H138	H	1.378930	-0.598875	-0.533597
C139	C	1.300484	-0.480386	-0.464383
C140	C	1.259405	-0.537076	-0.535634
H141	H	1.274962	-0.428841	-0.467320
H142	H	1.288760	-0.511589	-0.410845
H143	H	1.365602	-0.462265	-0.466662
H144	H	1.194291	-0.555205	-0.533348
H145	H	1.271117	-0.505874	-0.589172
H146	H	1.383262	-0.775347	-0.371194
O147	O	1.358330	-0.951772	-0.391310
C148	C	1.325743	-1.042386	-0.417446
H149	H	1.283861	-1.045911	-0.485248
H150	H	1.279698	-1.080414	-0.367836
C151	C	1.460364	-1.080907	-0.338148
C152	C	1.408930	-1.085237	-0.421426
H153	H	1.511676	-1.107342	-0.340599
H154	H	1.482317	-1.019860	-0.320536
H155	H	1.421982	-1.112596	-0.296814
H156	H	1.447308	-1.053539	-0.462755
H157	H	1.386985	-1.146280	-0.439045
H158	H	1.081097	-1.007191	-0.613753
H159	H	1.293918	-0.423094	-1.239198
H160	H	0.978294	-0.913386	-0.696149
O161	O	1.116930	-0.221440	-1.201391
C162	C	1.026004	-0.250438	-1.178123
H163	H	1.026769	-0.295586	-1.117565
H164	H	0.978942	-0.289628	-1.235195
C165	C	0.988282	-0.112737	-1.231794
C166	C	0.989223	-0.168182	-1.157410
H167	H	0.965591	-0.061998	-1.219021
H168	H	1.049540	-0.093201	-1.247473
H169	H	0.949065	-0.145405	-1.279347
H170	H	1.028448	-0.135518	-1.109862
H171	H	0.927971	-0.187711	-1.141722
O172	O	0.965206	-0.592635	-0.706667
C173	C	1.019367	-0.526272	-0.756608
H174	H	1.084276	-0.548573	-0.769858
H175	H	1.040482	-0.460262	-0.718508
C176	C	0.882599	-0.485435	-0.828456
C177	C	0.962318	-0.512829	-0.844736
H178	H	0.847408	-0.477138	-0.882816
H179	H	0.846109	-0.530142	-0.794807
H180	H	0.900207	-0.430429	-0.796704
H181	H	0.944709	-0.567839	-0.876478
H182	H	0.998803	-0.468130	-0.878392
O183	O	0.997374	-0.084899	-1.029499
C184	C	0.964954	-0.047998	-0.959461
H185	H	1.011990	-0.053190	-0.895924
H186	H	0.891052	-0.086610	-0.951829
C187	C	0.908062	0.057859	-1.057129
C188	C	0.965838	0.051489	-0.979093
H189	H	0.908603	0.119226	-1.069240
H190	H	0.929900	0.032996	-1.104316
H191	H	0.846483	0.025677	-1.050759
H192	H	1.027417	0.083661	-0.985468
H193	H	0.944010	0.076359	-0.931907
