data_functionalizedCrystal
_audit_creation_method	'MofGen! by Chris Wilmer'
_symmetry_space_group_name_H-M	'P1'
_symmetry_Int_Tables_number	1
_symmetry_cell_setting	triclinic
loop_
_symmetry_equiv_pos_as_xyz
  x,y,z
_cell_length_a	11.026607
_cell_length_b	13.339070
_cell_length_c	9.482900
_cell_angle_alpha	101.886775
_cell_angle_beta	78.636152
_cell_angle_gamma	112.107656
loop_
_atom_site_label
_atom_site_type_symbol
_atom_site_fract_x
_atom_site_fract_y
_atom_site_fract_z
O1	O	1.776580	0.438084	-0.120889
O2	O	1.405971	0.386696	-0.120892
O3	O	1.548741	0.257381	-0.120886
O4	O	1.633810	0.567399	-0.120894
O5	O	1.519787	0.283783	0.120905
O6	O	1.377017	0.413097	0.120900
O7	O	1.747625	0.464486	0.120902
Cu8	Cu	1.559677	0.441202	0.142979
Cu9	Cu	1.593919	0.409979	-0.142968
O10	O	1.604855	0.593800	0.120897
C11	C	1.343091	0.390416	0.000004
C12	C	1.198862	0.362155	0.000003
C13	C	1.519894	0.230276	0.000007
C14	C	1.477063	0.110173	0.000001
C15	C	1.151330	0.440188	-0.000000
C16	C	1.002262	0.410981	-0.000002
C17	C	1.810104	-0.193970	0.000004
C18	C	1.850350	-0.081127	0.000018
C19	C	1.757032	-0.033296	0.000014
C20	C	1.623461	-0.098320	-0.000004
C21	C	1.583210	-0.211174	-0.000007
C22	C	1.530137	-0.050500	0.000002
C23	C	1.396566	-0.115524	-0.000015
C24	C	1.356322	-0.228366	-0.000019
C25	C	1.449641	-0.276197	-0.000014
C26	C	1.570388	0.062354	0.000005
C27	C	1.343493	0.045150	-0.000006
C28	C	1.303248	-0.067693	-0.000020
C29	C	1.810506	0.460765	0.000004
C30	C	1.954736	0.489025	-0.000004
C31	C	1.633702	0.620905	0.000000
C32	C	1.676535	0.741007	-0.000003
N33	N	1.535603	0.463164	0.344098
N34	N	1.618001	0.388011	-0.344087
C35	C	1.586807	0.416450	0.416299
C36	C	1.566789	0.434732	0.583716
H37	H	1.220995	0.528618	0.000006
N38	N	0.909999	0.293838	0.000019
H39	H	0.816587	0.289578	0.000022
H40	H	0.936637	0.247003	-0.089613
H41	H	1.789808	0.058587	0.000025
H42	H	1.476938	0.516688	0.406226
H43	H	1.024396	0.577461	0.000003
N44	N	1.106594	0.245017	-0.000006
H45	H	1.158794	0.196954	-0.000005
H46	H	1.038870	0.239689	0.089629
H47	H	1.679142	0.115286	0.000020
H48	H	1.959103	-0.028192	0.000035
N49	N	1.910731	-0.245566	0.000029
H50	H	1.909824	-0.301791	-0.089599
H51	H	2.001404	-0.187190	0.000093
N52	N	1.406229	-0.397911	-0.000033
H53	H	1.485617	-0.418339	-0.000034
H54	H	1.341233	-0.418605	0.089601
N55	N	1.212255	-0.298498	0.000003
H56	H	1.159243	-0.251078	0.000005
H57	H	1.201337	-0.355485	-0.089626
H58	H	1.194492	-0.120652	-0.000034
N59	N	1.242828	0.096725	0.000006
H60	H	1.288593	0.178079	0.000009
H61	H	1.196982	0.063463	-0.089626
H62	H	1.508121	0.488260	0.645838
N63	N	1.664468	0.345510	0.334021
H64	H	1.667742	0.342491	0.226087
H65	H	1.757230	0.377355	0.360510
H66	H	1.676657	0.334474	0.593791
