data_functionalizedCrystal
_audit_creation_method	'MofGen! by Chris Wilmer'
_symmetry_space_group_name_H-M	'P1'
_symmetry_Int_Tables_number	1
_symmetry_cell_setting	triclinic
loop_
_symmetry_equiv_pos_as_xyz
  x,y,z
_cell_length_a	13.339070
_cell_length_b	13.339070
_cell_length_c	17.766277
_cell_angle_alpha	89.997794
_cell_angle_beta	89.990920
_cell_angle_gamma	115.629294
loop_
_atom_site_label
_atom_site_type_symbol
_atom_site_fract_x
_atom_site_fract_y
_atom_site_fract_z
O1	O	1.496815	0.550530	-0.062614
O2	O	1.996815	1.050530	0.437386
O3	O	1.182006	0.478270	-0.062610
O4	O	1.682006	0.978270	0.437390
O5	O	1.303280	0.356996	-0.062610
O6	O	1.803280	0.856996	0.437390
O7	O	1.375540	0.671805	-0.062615
O8	O	1.875540	1.171805	0.437385
O9	O	1.303248	0.356979	0.062579
O10	O	1.803248	0.856979	0.562579
O11	O	1.181974	0.478253	0.062578
O12	O	1.681974	0.978253	0.562578
O13	O	1.496783	0.550513	0.062575
O14	O	1.996783	1.050513	0.562575
Cu15	Cu	1.339375	0.514382	0.074007
Cu16	Cu	1.839375	1.014382	0.574007
Cu17	Cu	1.339413	0.514402	-0.074043
Cu18	Cu	1.839413	1.014402	0.425957
O19	O	1.375508	0.671788	0.062574
O20	O	1.875508	1.171788	0.562574
C21	C	1.140874	0.466056	-0.000016
C22	C	1.640874	0.966056	0.499984
C23	C	1.018360	0.429672	-0.000014
C24	C	1.518360	0.929672	0.499986
C25	C	0.732973	0.712571	-0.000031
C26	C	1.232973	1.212571	0.499969
C27	C	0.848081	0.746759	-0.000035
C28	C	1.348081	1.246759	0.499965
C29	C	0.890657	0.667490	-0.000029
C30	C	1.390657	1.167490	0.499971
C31	C	0.818112	0.554028	-0.000021
C32	C	1.318112	1.054028	0.499979
C33	C	0.702992	0.519837	-0.000023
C34	C	1.202992	1.019837	0.499977
C35	C	0.860676	0.474756	-0.000022
C36	C	1.360676	0.974756	0.499978
C37	C	0.788132	0.361294	-0.000013
C38	C	1.288132	0.861294	0.499987
C39	C	0.673023	0.327109	-0.000015
C40	C	1.173023	0.827109	0.499985
C41	C	0.630448	0.406377	-0.000020
C42	C	1.130448	0.906377	0.499980
C43	C	0.975796	0.508947	-0.000019
C44	C	1.475796	1.008947	0.499981
C45	C	0.945816	0.316213	-0.000011
C46	C	1.445816	0.816213	0.499989
C47	C	0.830707	0.282025	-0.000008
C48	C	1.330707	0.782025	0.499992
C49	C	1.291058	0.315872	-0.000016
C50	C	1.791058	0.815872	0.499984
C51	C	1.254675	0.193358	-0.000019
C52	C	1.754675	0.693358	0.499981
C53	C	1.537574	-0.092030	-0.000022
C54	C	2.037574	0.407970	0.499978
C55	C	1.571761	0.023079	-0.000015
C56	C	2.071761	0.523079	0.499985
C57	C	1.492493	0.065654	-0.000016
C58	C	1.992493	0.565654	0.499984
C59	C	1.379030	-0.006890	-0.000024
C60	C	1.879030	0.493110	0.499976
C61	C	1.344839	-0.122010	-0.000024
C62	C	1.844839	0.377990	0.499976
C63	C	1.299758	0.035674	-0.000019
C64	C	1.799758	0.535674	0.499981
C65	C	1.186296	-0.036871	-0.000026
C66	C	1.686296	0.463129	0.499974
C67	C	1.152111	-0.151979	-0.000028
C68	C	1.652111	0.348021	0.499972
C69	C	1.231380	-0.194555	-0.000026
C70	C	1.731380	0.305445	0.499974
C71	C	1.333949	0.150794	-0.000018
C72	C	1.833949	0.650794	0.499982
C73	C	1.141215	0.120813	-0.000021
C74	C	1.641215	0.620813	0.499979
C75	C	1.107028	0.005705	-0.000028
C76	C	1.607028	0.505705	0.499972
C77	C	1.537914	0.562728	-0.000022
C78	C	2.037914	1.062728	0.499978
C79	C	1.660428	0.599111	-0.000028
C80	C	2.160428	1.099111	0.499972
C81	C	1.387730	0.712912	-0.000021
C82	C	1.887730	1.212912	0.499979
C83	C	1.424114	0.835426	-0.000024
C84	C	1.924114	1.335426	0.499976
N85	N	1.339357	0.514369	0.178137
N86	N	1.839357	1.014369	0.678137
N87	N	1.339438	0.514408	-0.178173
N88	N	1.839438	1.014408	0.321827
C89	C	1.393092	0.460712	0.217525
C90	C	1.893092	0.960712	0.717525
C91	C	1.393096	0.460709	0.296326
C92	C	1.893096	0.960709	0.796326
C93	C	1.339382	0.514385	0.335738
C94	C	1.839382	1.014385	0.835738
C95	C	1.285635	0.568043	0.296341
C96	C	1.785635	1.068043	0.796341
C97	C	1.285622	0.568036	0.217541
C98	C	1.785622	1.068036	0.717541
C99	C	1.353066	0.610358	0.460574
C100	C	1.853066	1.110358	0.960574
C101	C	1.353086	0.610369	0.539373
C102	C	1.853086	1.110369	1.039373
C103	C	1.339415	0.514406	0.578784
C104	C	1.839415	1.014406	1.078784
C105	C	1.325745	0.418434	0.539387
C106	C	1.825745	0.918434	1.039387
C107	C	1.325732	0.418427	0.460587
C108	C	1.825732	0.918427	0.960587
C109	C	1.339390	0.514398	0.421184
C110	C	1.839390	1.014398	0.921184
C111	C	1.393158	0.460741	0.703618
C112	C	1.893158	0.960741	1.203618
C113	C	1.393155	0.460734	0.782421
C114	C	1.893155	0.960734	1.282421
C115	C	1.285701	0.568079	0.782434
C116	C	1.785701	1.068079	1.282434
C117	C	1.285696	0.568075	0.703632
C118	C	1.785696	1.068075	1.203632
C119	C	1.339431	0.514408	0.664229
C120	C	1.839431	1.014408	1.164229
H121	H	1.034852	0.601328	-0.000023
H122	H	1.534852	1.101328	0.499977
H123	H	0.613959	0.234721	-0.000016
H124	H	1.113959	0.734721	0.499984
H125	H	0.771625	0.189642	-0.000007
H126	H	1.271625	0.689642	0.499993
H127	H	0.698296	0.777099	-0.000042
H128	H	1.198296	1.277099	0.499958
H129	H	0.984385	0.695333	-0.000034
H130	H	1.484385	1.195333	0.499966
H131	H	0.980479	0.251665	-0.000010
H132	H	1.480479	0.751665	0.499990
H133	H	0.907140	0.839139	-0.000047
H134	H	1.407140	1.339139	0.499953
H135	H	1.426331	0.209849	-0.000012
H136	H	1.926331	0.709849	0.499988
H137	H	1.436855	0.417013	0.328402
H138	H	1.936855	0.917013	0.828402
H139	H	0.536718	0.378547	-0.000017
H140	H	1.036718	0.878547	0.499983
H141	H	1.664142	0.082137	-0.000008
H142	H	2.164142	0.582137	0.499992
H143	H	1.520335	0.159382	-0.000010
H144	H	2.020335	0.659382	0.499990
H145	H	1.602102	-0.126707	-0.000014
H146	H	2.102102	0.373293	0.499986
H147	H	1.436842	0.417011	0.185445
H148	H	1.936842	0.917011	0.685445
H149	H	1.241946	0.611773	0.671561
H150	H	1.741946	1.111773	1.171561
H151	H	1.203550	-0.288284	-0.000035
H152	H	1.703550	0.211716	0.499965
H153	H	1.059723	-0.211043	-0.000028
H154	H	1.559723	0.288957	0.499972
H155	H	1.014645	-0.053377	-0.000033
H156	H	1.514645	0.446623	0.499967
H157	H	1.076667	0.155477	-0.000018
H158	H	1.576667	0.655477	0.499982
H159	H	1.314599	0.340283	0.428512
H160	H	1.814599	0.840283	0.928512
H161	H	1.314612	0.340292	0.571474
H162	H	1.814612	0.840292	1.071474
H163	H	1.436908	0.417038	0.671534
H164	H	1.936908	0.917038	1.171534
H165	H	1.436907	0.417033	0.814491
H166	H	1.936907	0.917033	1.314491
H167	H	1.241961	0.611777	0.814522
H168	H	1.741961	1.111777	1.314522
H169	H	1.364224	0.688517	0.571445
H170	H	1.864224	1.188517	1.071445
H171	H	1.364181	0.688502	0.428492
H172	H	1.864181	1.188502	0.928492
H173	H	1.241898	0.611745	0.328434
H174	H	1.741898	1.111745	0.828434
H175	H	1.241863	0.611730	0.185471
H176	H	1.741863	1.111730	0.685471
