data_functionalizedCrystal
_audit_creation_method	'MofGen! by Chris Wilmer'
_symmetry_space_group_name_H-M	'P1'
_symmetry_Int_Tables_number	1
_symmetry_cell_setting	triclinic
loop_
_symmetry_equiv_pos_as_xyz
  x,y,z
_cell_length_a	12.759395
_cell_length_b	15.299816
_cell_length_c	12.759387
_cell_angle_alpha	99.650540
_cell_angle_beta	89.980569
_cell_angle_gamma	80.350115
loop_
_atom_site_label
_atom_site_type_symbol
_atom_site_fract_x
_atom_site_fract_y
_atom_site_fract_z
Zn1	Zn	1.678561	-0.359012	-0.666391
Zn2	Zn	1.708827	-0.509854	-0.521138
Zn3	Zn	1.502869	-0.359056	-0.490740
Zn4	Zn	1.533213	-0.509785	-0.696767
O5	O	1.605867	-0.434427	-0.593759
O6	O	1.829599	-0.379031	-0.647132
O7	O	1.681473	-0.489897	-0.370094
O8	O	1.500810	-0.232842	-0.488607
O9	O	1.851835	-0.489854	-0.540415
O10	O	1.629890	-0.232809	-0.617657
O11	O	1.530156	-0.379107	-0.347761
O12	O	1.359871	-0.379041	-0.518061
O13	O	1.552527	-0.489737	-0.839749
O14	O	1.382164	-0.489781	-0.669427
O15	O	1.659314	-0.378965	-0.817432
O16	O	1.710896	-0.636053	-0.569869
O17	O	1.581873	-0.636003	-0.698903
C18	C	1.332896	-0.434409	-0.593742
C19	C	1.216122	-0.434423	-0.593765
C20	C	1.192987	-0.319209	-0.705144
C21	C	1.126560	-0.261614	-0.760844
C22	C	1.016842	-0.261630	-0.760860
C23	C	0.973548	-0.319246	-0.705168
C24	C	1.039975	-0.376841	-0.649468
C25	C	1.149695	-0.376821	-0.649460
C26	C	1.063109	-0.492049	-0.538084
C27	C	1.172829	-0.492039	-0.538072
C28	C	1.019816	-0.549665	-0.482391
C29	C	1.086243	-0.607267	-0.426696
C30	C	1.195968	-0.607249	-0.426683
C31	C	1.239255	-0.549635	-0.482372
C32	C	1.652990	-0.668752	-0.641004
C33	C	1.673246	-0.768998	-0.661250
C34	C	1.461787	-1.051940	-0.449411
C35	C	1.442751	-0.957754	-0.430391
C36	C	1.500373	-0.910560	-0.488103
C37	C	1.577035	-0.957561	-0.564840
C38	C	1.596067	-1.051756	-0.583868
C39	C	1.634653	-0.910377	-0.622561
C40	C	1.711314	-0.957378	-0.699298
C41	C	1.730344	-1.051563	-0.718322
C42	C	1.672722	-1.098757	-0.660609
C43	C	1.615620	-0.816182	-0.603533
C44	C	1.749900	-0.815999	-0.737991
C45	C	1.768936	-0.910184	-0.757011
C46	C	1.879904	-0.434445	-0.593776
C47	C	1.996683	-0.434453	-0.593784
C48	C	1.605929	-0.434338	-0.867775
C49	C	1.605955	-0.434301	-0.984544
C50	C	1.558589	-0.199186	-0.546353
C51	C	1.538442	-0.098941	-0.526151
C52	C	1.717163	-0.318961	-0.961327
C53	C	1.772779	-0.261277	-1.004577
C54	C	1.772798	-0.261244	-1.114292
C55	C	1.717192	-0.318899	-1.180760
C56	C	1.661577	-0.376583	-1.137511
C57	C	1.661566	-0.376611	-1.027792
C58	C	1.550364	-0.491917	-1.160727
C59	C	1.550349	-0.491956	-1.051013
C60	C	1.494758	-0.549572	-1.227196
C61	C	1.439147	-0.607261	-1.183947
C62	C	1.439131	-0.607292	-1.074225
C63	C	1.494734	-0.549639	-1.007763
C64	C	1.605853	-0.434450	-0.320796
C65	C	1.605980	-0.434233	-0.203976
H66	H	1.282323	-0.319187	-0.705131
H67	H	1.393828	-0.654255	-1.039017
H68	H	1.161822	-0.214702	-0.806185
H69	H	1.050983	-0.654169	-0.381350
H70	H	1.494731	-0.549663	-0.918427
F71	F	1.717163	-0.319002	-0.844559
H72	H	0.962756	-0.214725	-0.806209
H73	H	1.818050	-0.214334	-0.950445
F74	F	1.494778	-0.549534	-1.343964
F75	F	1.831974	-0.199840	-1.160320
F76	F	1.811229	-0.765776	-0.799419
F77	F	1.266656	-0.668549	-0.367393
H78	H	1.717202	-0.318860	-1.270094
F79	F	0.856773	-0.319250	-0.705174
H80	H	1.328591	-0.549610	-0.482361
H81	H	0.930476	-0.549672	-0.482405
H82	H	1.553202	-0.777922	-0.541054
H83	H	1.484870	-0.833870	-0.472612
F84	F	1.379968	-0.668610	-1.254691
H85	H	1.380333	-0.919489	-0.367913
F86	F	1.400458	-1.102172	-0.388011
F87	F	1.693151	-1.199001	-0.680675
F88	F	1.811917	-1.101583	-0.800010
H89	H	1.831355	-0.948466	-0.819491
