data_functionalizedCrystal
_audit_creation_method	'MofGen! by Chris Wilmer'
_symmetry_space_group_name_H-M	'P1'
_symmetry_Int_Tables_number	1
_symmetry_cell_setting	triclinic
loop_
_symmetry_equiv_pos_as_xyz
  x,y,z
_cell_length_a	10.654550
_cell_length_b	19.188930
_cell_length_c	9.130313
_cell_angle_alpha	90.010551
_cell_angle_beta	90.004263
_cell_angle_gamma	83.814841
loop_
_atom_site_label
_atom_site_type_symbol
_atom_site_fract_x
_atom_site_fract_y
_atom_site_fract_z
O1	O	1.665759	0.098063	0.121938
O2	O	1.300083	0.107406	0.121916
O3	O	1.493474	0.001148	0.121899
O4	O	1.472368	0.204321	0.121955
O5	O	1.493471	0.001142	-0.121700
O6	O	1.300080	0.107400	-0.121682
O7	O	1.665757	0.098057	-0.121661
Cu8	Cu	1.482918	0.102728	-0.143914
Cu9	Cu	1.482921	0.102735	0.144170
O10	O	1.472366	0.204315	-0.121644
C11	C	1.253298	0.106717	0.000114
C12	C	1.113898	0.104664	0.000104
C13	C	1.492789	-0.024871	0.000096
C14	C	1.490737	-0.102389	0.000083
C15	C	1.033089	0.167227	0.000143
C16	C	0.902109	0.165295	0.000168
C17	C	0.932761	0.038231	0.000121
C18	C	1.063738	0.040164	0.000086
C19	C	1.015391	0.240587	0.000176
C20	C	0.884411	0.238654	0.000201
C21	C	1.604213	-0.146570	0.000083
C22	C	1.602285	-0.219407	0.000106
C23	C	1.486876	-0.248058	0.000100
C24	C	1.373386	-0.203867	0.000109
C25	C	1.375316	-0.131032	0.000100
N26	N	1.398658	-0.356642	-0.082806
N27	N	1.396832	-0.425833	-0.082801
C28	C	1.481052	-0.467505	0.000129
N29	N	1.567186	-0.437374	0.083037
N30	N	1.569016	-0.368177	0.083025
C31	C	1.484770	-0.327034	0.000110
C32	C	1.592445	-0.590665	0.000157
C33	C	1.590513	-0.663502	0.000189
C34	C	1.361610	-0.647960	0.000177
C35	C	1.363545	-0.575125	0.000159
C36	C	1.478966	-0.546481	0.000142
C37	C	1.712541	0.098746	0.000145
C38	C	1.851941	0.100798	0.000164
C39	C	1.473051	0.230334	0.000163
C40	C	1.475102	0.307852	0.000186
N41	N	1.482924	0.102734	0.346792
N42	N	1.482925	0.102723	-0.346537
C43	C	1.568715	0.055776	0.423437
C44	C	1.568719	0.055772	0.576774
C45	C	1.397131	0.149687	0.576808
C46	C	1.397134	0.149694	0.423474
C47	C	1.667776	0.001553	0.423418
C48	C	1.667780	0.001549	0.576755
H49	H	0.891904	-0.014283	0.000129
H50	H	1.129530	-0.010781	0.000034
O51	O	1.728695	-0.115673	0.000077
H52	H	1.735043	-0.082847	0.099357
O53	O	1.053472	0.278525	-0.134925
H54	H	0.968242	0.295567	-0.201040
O55	O	1.712911	-0.711160	0.000196
H56	H	1.717488	-0.744733	-0.099078
O57	O	1.252921	-0.083371	0.000075
H58	H	1.172342	-0.115527	0.000064
H59	H	1.279418	-0.227199	0.000107
O60	O	0.828351	0.275267	0.135258
H61	H	0.724513	0.273718	0.135182
H62	H	1.694693	-0.255386	0.000112
H63	H	1.758538	0.018642	0.624332
O64	O	1.716926	-0.559762	0.000168
H65	H	1.795512	-0.602725	0.000199
H66	H	1.050553	0.263948	0.105354
O67	O	1.304642	0.200376	0.340832
H68	H	1.206835	0.190894	0.370224
O69	O	1.641101	-0.069572	0.631857
H70	H	1.628023	-0.104386	0.537229
O71	O	1.237129	-0.678853	0.000159
H72	H	1.230774	-0.711658	0.099443
O73	O	0.823272	0.268015	-0.139090
H74	H	0.842113	0.323449	-0.152103
H75	H	1.271141	-0.539151	0.000151
H76	H	1.327283	0.187920	0.639259
O77	O	1.795194	0.017537	0.368302
H78	H	1.857570	0.025364	0.462924
O79	O	1.629046	-0.065674	0.360382
H80	H	1.532244	-0.072936	0.397967
