data_functionalizedCrystal
_audit_creation_method	'MofGen! by Chris Wilmer'
_symmetry_space_group_name_H-M	'P1'
_symmetry_Int_Tables_number	1
_symmetry_cell_setting	triclinic
loop_
_symmetry_equiv_pos_as_xyz
  x,y,z
_cell_length_a	18.101398
_cell_length_b	29.839131
_cell_length_c	29.839125
_cell_angle_alpha	89.982291
_cell_angle_beta	89.982423
_cell_angle_gamma	90.036686
loop_
_atom_site_label
_atom_site_type_symbol
_atom_site_fract_x
_atom_site_fract_y
_atom_site_fract_z
Zn1	Zn	1.132019	-0.178973	-0.254072
Zn2	Zn	1.465352	0.154360	0.079261
Zn3	Zn	1.798685	0.487694	0.412594
Zn4	Zn	1.131907	-0.254085	-0.178942
Zn5	Zn	1.465240	0.079248	0.154391
Zn6	Zn	1.798573	0.412582	0.487724
Zn7	Zn	1.008192	-0.178964	-0.178948
Zn8	Zn	1.341525	0.154370	0.154386
Zn9	Zn	1.674859	0.487703	0.487719
Zn10	Zn	1.008106	-0.254071	-0.254036
Zn11	Zn	1.341439	0.079263	0.079297
Zn12	Zn	1.674773	0.412596	0.412630
O13	O	1.070056	-0.216523	-0.216500
O14	O	1.403389	0.116810	0.116834
O15	O	1.736722	0.450144	0.450167
O16	O	1.235637	-0.188947	-0.244119
O17	O	1.568970	0.144387	0.089214
O18	O	1.902303	0.477720	0.422548
O19	O	1.115485	-0.244122	-0.116076
O20	O	1.448818	0.089211	0.217258
O21	O	1.782152	0.422544	0.550591
O22	O	1.024701	-0.116098	-0.188930
O23	O	1.358034	0.217236	0.144403
O24	O	1.691367	0.550569	0.477736
O25	O	1.235554	-0.244131	-0.188921
O26	O	1.568888	0.089202	0.144412
O27	O	1.902221	0.422535	0.477746
O28	O	1.115676	-0.116105	-0.244124
O29	O	1.449009	0.217229	0.089209
O30	O	1.782342	0.550562	0.422543
O31	O	1.024592	-0.188931	-0.116080
O32	O	1.357926	0.144402	0.217254
O33	O	1.691259	0.477736	0.550587
O34	O	0.904548	-0.188917	-0.188896
O35	O	1.237881	0.144417	0.144438
O36	O	1.571214	0.477750	0.477771
O37	O	1.024554	-0.244107	-0.316908
O38	O	1.357887	0.089227	0.016425
O39	O	1.691221	0.422560	0.349758
O40	O	0.904484	-0.244097	-0.244063
O41	O	1.237818	0.089236	0.089270
O42	O	1.571151	0.422569	0.422604
O43	O	1.115592	-0.188933	-0.316935
O44	O	1.448925	0.144401	0.016399
O45	O	1.782259	0.477734	0.349732
O46	O	1.115401	-0.316950	-0.188886
O47	O	1.448735	0.016383	0.144447
O48	O	1.782068	0.349716	0.477780
O49	O	1.024445	-0.316940	-0.244058
O50	O	1.357779	0.016394	0.089276
O51	O	1.691112	0.349727	0.422609
C52	C	0.877645	-0.216505	-0.216476
C53	C	1.210979	0.116828	0.116857
C54	C	1.544312	0.450162	0.450190
C55	C	0.795331	-0.216508	-0.216477
C56	C	1.128664	0.116825	0.116857
C57	C	1.461998	0.450159	0.450190
C58	C	0.496240	-0.216536	-0.216515
C59	C	0.829574	0.116797	0.116819
C60	C	1.162907	0.450131	0.450152
C61	C	0.527581	-0.181644	-0.181974
C62	C	0.860914	0.151689	0.151359
C63	C	1.194247	0.485022	0.484693
C64	C	0.613199	-0.181738	-0.181827
C65	C	0.946532	0.151596	0.151507
C66	C	1.279865	0.484929	0.484840
C67	C	0.644623	-0.216522	-0.216496
C68	C	0.977956	0.116812	0.116838
C69	C	1.311289	0.450145	0.450171
C70	C	0.613493	-0.263843	-0.203557
C71	C	0.946826	0.069490	0.129776
C72	C	1.280160	0.402824	0.463109
C73	C	0.527848	-0.263649	-0.203317
C74	C	0.861181	0.069684	0.130016
C75	C	1.194515	0.403018	0.463350
C76	C	0.527849	-0.204518	-0.264075
C77	C	0.861182	0.128816	0.069259
C78	C	1.194516	0.462149	0.402592
C79	C	0.613500	-0.203464	-0.263815
C80	C	0.946834	0.129870	0.069518
C81	C	1.280167	0.463203	0.402851
C82	C	0.728482	-0.216516	-0.216486
C83	C	1.061816	0.116817	0.116847
C84	C	1.395149	0.450150	0.450181
C85	C	0.412381	-0.216544	-0.216523
C86	C	0.745714	0.116789	0.116810
C87	C	1.079047	0.450122	0.450143
C88	C	1.069922	-0.333246	-0.216477
C89	C	1.403255	0.000088	0.116856
C90	C	1.736589	0.333421	0.450189
C91	C	1.069933	-0.383180	-0.216483
C92	C	1.403266	-0.049847	0.116851
C93	C	1.736599	0.283487	0.450184
C94	C	1.117503	-0.692816	-0.187814
C95	C	1.450836	-0.359483	0.145519
C96	C	1.784169	-0.026150	0.478853
C97	C	1.117594	-0.880489	-0.187831
C98	C	1.450927	-0.547156	0.145502
C99	C	1.784261	-0.213823	0.478835
O100	O	1.157934	-0.904748	-0.163439
O101	O	1.491267	-0.571415	0.169895
O102	O	1.824600	-0.238082	0.503228
N103	N	1.070209	-0.903965	-0.216533
N104	N	1.403543	-0.570632	0.116800
N105	N	1.736876	-0.237298	0.450133
C106	C	1.022802	-0.880520	-0.245235
C107	C	1.356135	-0.547186	0.088098
C108	C	1.689469	-0.213853	0.421431
O109	O	0.982506	-0.904793	-0.269652
O110	O	1.315839	-0.571460	0.063681
O111	O	1.649172	-0.238127	0.397015
C112	C	1.022715	-0.692848	-0.245220
C113	C	1.356048	-0.359514	0.088113
C114	C	1.689381	-0.026181	0.421447
C115	C	1.070097	-0.669374	-0.216513
C116	C	1.403431	-0.336041	0.116821
C117	C	1.736764	-0.002708	0.450154
C118	C	1.164882	-0.669343	-0.159109
C119	C	1.498215	-0.336010	0.174224
C120	C	1.831549	-0.002676	0.507557
C121	C	1.164856	-0.622428	-0.159103
C122	C	1.498189	-0.289094	0.174230
C123	C	1.831522	0.044239	0.507563
C124	C	1.117450	-0.598985	-0.187802
C125	C	1.450784	-0.265652	0.145531
C126	C	1.784117	0.067681	0.478864
C127	C	1.070071	-0.622459	-0.216507
C128	C	1.403404	-0.289125	0.116826
C129	C	1.736738	0.044208	0.450160
C130	C	0.975312	-0.669403	-0.273924
C131	C	1.308645	-0.336070	0.059409
C132	C	1.641978	-0.002736	0.392743
C133	C	0.975295	-0.622482	-0.273918
C134	C	1.308629	-0.289149	0.059415
C135	C	1.641962	0.044185	0.392748
C136	C	1.022678	-0.599009	-0.245211
C137	C	1.356011	-0.265675	0.088122
C138	C	1.689344	0.067658	0.421456
C139	C	1.022639	-0.552101	-0.245200
C140	C	1.355973	-0.218768	0.088133
C141	C	1.689306	0.114565	0.421467
N142	N	1.070024	-0.528626	-0.216498
N143	N	1.403357	-0.195292	0.116836
N144	N	1.736691	0.138041	0.450169
C145	C	1.117430	-0.552068	-0.187799
C146	C	1.450763	-0.218734	0.145534
C147	C	1.784096	0.114599	0.478868
C148	C	1.022850	-0.979050	-0.245241
C149	C	1.356183	-0.645717	0.088092
C150	C	1.689517	-0.312384	0.421426
C151	C	1.022871	-1.025968	-0.245244
C152	C	1.356204	-0.692635	0.088089
C153	C	1.689537	-0.359301	0.421422
C154	C	1.117664	-1.025935	-0.187841
C155	C	1.450997	-0.692601	0.145493
C156	C	1.784331	-0.359268	0.478826
C157	C	1.117639	-0.979016	-0.187835
C158	C	1.450972	-0.645683	0.145498
C159	C	1.784306	-0.312349	0.478831
C160	C	1.070235	-0.955575	-0.216539
C161	C	1.403568	-0.622241	0.116795
C162	C	1.736901	-0.288908	0.450128
C163	C	1.117371	-0.453542	-0.187789
C164	C	1.450704	-0.120208	0.145545
C165	C	1.784037	0.213125	0.478878
C166	C	1.117338	-0.406622	-0.187784
C167	C	1.450671	-0.073289	0.145549
C168	C	1.784005	0.260044	0.478883
C169	C	1.022548	-0.406660	-0.245189
C170	C	1.355881	-0.073327	0.088144
C171	C	1.689214	0.260007	0.421478
C172	C	1.022577	-0.453575	-0.245192
C173	C	1.355911	-0.120242	0.088141
C174	C	1.689244	0.213091	0.421474
C175	C	1.069995	-0.477015	-0.216490
C176	C	1.403328	-0.143682	0.116843
C177	C	1.736661	0.189651	0.450176
O178	O	0.982327	-0.527813	-0.269583
O179	O	1.315660	-0.194480	0.063750
O180	O	1.648993	0.138853	0.397084
O181	O	1.157731	-0.527786	-0.163393
O182	O	1.491065	-0.194452	0.169940
O183	O	1.824398	0.138881	0.503274
C184	C	1.117529	-0.739732	-0.187820
C185	C	1.450862	-0.406398	0.145514
C186	C	1.784195	-0.073065	0.478847
C187	C	1.070150	-0.763205	-0.216524
C188	C	1.403483	-0.429872	0.116809
C189	C	1.736816	-0.096538	0.450142
C190	C	1.022744	-0.739763	-0.245223
C191	C	1.356078	-0.406430	0.088110
C192	C	1.689411	-0.073096	0.421444
C193	C	1.070170	-0.810123	-0.216528
C194	C	1.403504	-0.476790	0.116806
C195	C	1.736837	-0.143456	0.450139
C196	C	1.117576	-0.833565	-0.187829
C197	C	1.450909	-0.500232	0.145504
C198	C	1.784242	-0.166898	0.478838
C199	C	1.164960	-0.810089	-0.159127
C200	C	1.498294	-0.476756	0.174207
C201	C	1.831627	-0.143423	0.507540
C202	C	1.164934	-0.763174	-0.159121
C203	C	1.498268	-0.429841	0.174212
C204	C	1.831601	-0.096507	0.507546
C205	C	0.975359	-0.763239	-0.273925
C206	C	1.308693	-0.429905	0.059408
C207	C	1.642026	-0.096572	0.392741
C208	C	0.975389	-0.810154	-0.273928
C209	C	1.308722	-0.476821	0.059405
C210	C	1.642056	-0.143488	0.392738
C211	C	1.022794	-0.833596	-0.245230
C212	C	1.356128	-0.500263	0.088104
C213	C	1.689461	-0.166930	0.421437
C214	C	1.263218	-0.216542	-0.216523
C215	C	1.596551	0.116792	0.116810
C216	C	1.929884	0.450125	0.450143
C217	C	1.345532	-0.216550	-0.216534
C218	C	1.678865	0.116784	0.116800
C219	C	2.012198	0.450117	0.450133
C220	C	1.070076	-0.216519	-0.333678
C221	C	1.403409	0.116814	-0.000345
C222	C	1.736742	0.450148	0.332989
C223	C	1.070084	-0.216517	-0.383612
C224	C	1.403418	0.116816	-0.050279
C225	C	1.736751	0.450149	0.283054
C226	C	1.070210	-0.099345	-0.216532
C227	C	1.403544	0.233989	0.116802
C228	C	1.736877	0.567322	0.450135
C229	C	1.070276	-0.049410	-0.216546
C230	C	1.403609	0.283923	0.116788
C231	C	1.736943	0.617256	0.450121
C232	C	1.117538	-0.187713	-0.693273
C233	C	1.450871	0.145620	-0.359939
C234	C	1.784204	0.478954	-0.026606
C235	C	1.117574	-0.187675	-0.880946
C236	C	1.450908	0.145659	-0.547612
C237	C	1.784241	0.478992	-0.214279
O238	O	1.157866	-0.163227	-0.905225
O239	O	1.491199	0.170106	-0.571892
O240	O	1.824533	0.503440	-0.238558
N241	N	1.070183	-0.216397	-0.904398
N242	N	1.403516	0.116936	-0.571064
N243	N	1.736849	0.450270	-0.237731
C244	C	1.022775	-0.245129	-0.880929
C245	C	1.356108	0.088205	-0.547595
C246	C	1.689441	0.421538	-0.214262
O247	O	0.982460	-0.269555	-0.905182
O248	O	1.315794	0.063779	-0.571849
O249	O	1.649127	0.397112	-0.238515
C250	C	1.022735	-0.245165	-0.693256
C251	C	1.356068	0.088169	-0.359923
C252	C	1.689401	0.421502	-0.026590
C253	C	1.070135	-0.216444	-0.669807
C254	C	1.403468	0.116890	-0.336473
C255	C	1.736802	0.450223	-0.003140
C256	C	1.164934	-0.158994	-0.669823
C257	C	1.498267	0.174339	-0.336490
C258	C	1.831600	0.507672	-0.003156
C259	C	1.164927	-0.159006	-0.622908
C260	C	1.498260	0.174328	-0.289574
C261	C	1.831593	0.507661	0.043759
C262	C	1.117524	-0.187736	-0.599442
C263	C	1.450857	0.145597	-0.266108
C264	C	1.784191	0.478930	0.067225
C265	C	1.070128	-0.216455	-0.622891
C266	C	1.403462	0.116878	-0.289558
C267	C	1.736795	0.450211	0.043775
C268	C	0.975324	-0.273894	-0.669788
C269	C	1.308657	0.059440	-0.336455
C270	C	1.641990	0.392773	-0.003121
C271	C	0.975317	-0.273899	-0.622867
C272	C	1.308650	0.059434	-0.289533
C273	C	1.641983	0.392767	0.043800
C274	C	1.022717	-0.245178	-0.599417
C275	C	1.356050	0.088155	-0.266084
C276	C	1.689384	0.421488	0.067249
C277	C	1.022719	-0.245197	-0.552510
C278	C	1.356052	0.088136	-0.219177
C279	C	1.689385	0.421469	0.114157
N280	N	1.070111	-0.216475	-0.529058
N281	N	1.403444	0.116858	-0.195725
N282	N	1.736777	0.450192	0.137609
C283	C	1.117513	-0.187745	-0.552524
C284	C	1.450847	0.145589	-0.219191
C285	C	1.784180	0.478922	0.114143
C286	C	1.022800	-0.245109	-0.979459
C287	C	1.356133	0.088225	-0.646126
C288	C	1.689467	0.421558	-0.312792
C289	C	1.022811	-0.245100	-1.026377
C290	C	1.356144	0.088233	-0.693044
C291	C	1.689477	0.421566	-0.359710
C292	C	1.117610	-0.187646	-1.026391
C293	C	1.450943	0.145688	-0.693058
C294	C	1.784277	0.479021	-0.359724
C295	C	1.117602	-0.187657	-0.979472
C296	C	1.450936	0.145677	-0.646139
C297	C	1.784269	0.479010	-0.312806
C298	C	1.070192	-0.216386	-0.956007
C299	C	1.403525	0.116947	-0.622674
C300	C	1.736859	0.450280	-0.289341
C301	C	1.117496	-0.187771	-0.453998
C302	C	1.450829	0.145562	-0.120665
C303	C	1.784163	0.478895	0.212669
C304	C	1.117487	-0.187787	-0.407078
C305	C	1.450820	0.145547	-0.073745
C306	C	1.784154	0.478880	0.259588
C307	C	1.022686	-0.245240	-0.407068
C308	C	1.356019	0.088094	-0.073735
C309	C	1.689352	0.421427	0.259598
C310	C	1.022697	-0.245226	-0.453984
C311	C	1.356030	0.088107	-0.120651
C312	C	1.689364	0.421441	0.212683
C313	C	1.070105	-0.216488	-0.477448
C314	C	1.403438	0.116845	-0.144114
C315	C	1.736771	0.450178	0.189219
O316	O	0.982443	-0.269629	-0.528202
O317	O	1.315776	0.063705	-0.194869
O318	O	1.649109	0.397038	0.138465
O319	O	1.157810	-0.163315	-0.528262
O320	O	1.491143	0.170018	-0.194929
O321	O	1.824477	0.503351	0.138404
C322	C	1.117545	-0.187702	-0.740188
C323	C	1.450878	0.145632	-0.406855
C324	C	1.784211	0.478965	-0.073521
C325	C	1.070149	-0.216420	-0.763638
C326	C	1.403482	0.116913	-0.430304
C327	C	1.736815	0.450246	-0.096971
C328	C	1.022746	-0.245151	-0.740172
C329	C	1.356079	0.088182	-0.406838
C330	C	1.689413	0.421516	-0.073505
C331	C	1.070159	-0.216412	-0.810556
C332	C	1.403493	0.116921	-0.477222
C333	C	1.736826	0.450255	-0.143889
C334	C	1.117562	-0.187682	-0.834021
C335	C	1.450895	0.145652	-0.500688
C336	C	1.784229	0.478985	-0.167355
C337	C	1.164954	-0.158959	-0.810570
C338	C	1.498287	0.174374	-0.477236
C339	C	1.831621	0.507707	-0.143903
C340	C	1.164947	-0.158971	-0.763654
C341	C	1.498281	0.174362	-0.430321
C342	C	1.831614	0.507696	-0.096987
C343	C	0.975354	-0.273873	-0.763624
C344	C	1.308687	0.059460	-0.430290
C345	C	1.642021	0.392794	-0.096957
C346	C	0.975365	-0.273860	-0.810539
C347	C	1.308699	0.059474	-0.477206
C348	C	1.642032	0.392807	-0.143873
C349	C	1.022768	-0.245129	-0.834005
C350	C	1.356101	0.088204	-0.500672
C351	C	1.689435	0.421538	-0.167338
C352	C	1.070078	-0.216495	-0.099777
C353	C	1.403412	0.116839	0.233556
C354	C	1.736745	0.450172	0.566890
C355	C	1.070213	-0.216370	-0.049843
C356	C	1.403547	0.116963	0.283490
C357	C	1.736880	0.450297	0.616824
H358	H	0.633853	-0.168641	-0.273571
H359	H	0.967186	0.164693	0.059762
H360	H	1.300519	0.498026	0.393095
Br361	Br	0.958254	-0.485433	-0.284141
Br362	Br	1.291588	-0.152100	0.049192
Br363	Br	1.624921	0.181234	0.382525
H364	H	0.984193	-0.268507	-0.960358
H365	H	1.317527	0.064826	-0.627025
H366	H	1.650860	0.398160	-0.293691
H367	H	0.984094	-0.268633	-0.387954
H368	H	1.317427	0.064701	-0.054621
H369	H	1.650761	0.398034	0.278713
Br370	Br	0.958373	-0.284208	-0.485809
Br371	Br	1.291706	0.049125	-0.152476
Br372	Br	1.625040	0.382459	0.180857
Br373	Br	1.229289	-0.119971	-0.842426
Br374	Br	1.562623	0.213363	-0.509092
Br375	Br	1.895956	0.546696	-0.175759
Br376	Br	1.181823	-0.148808	-0.375257
Br377	Br	1.515157	0.184526	-0.041923
Br378	Br	1.848490	0.517859	0.291410
H379	H	0.506036	-0.189499	-0.146937
H380	H	0.839369	0.143835	0.186396
H381	H	1.172702	0.477168	0.519729
Br382	Br	1.229175	-0.590578	-0.120148
Br383	Br	1.562508	-0.257245	0.213185
Br384	Br	1.895842	0.076088	0.546519
Br385	Br	0.910995	-0.312877	-0.701600
Br386	Br	1.244328	0.020456	-0.368267
Br387	Br	1.577662	0.353789	-0.034934
Br388	Br	0.910968	-0.312890	-0.591024
Br389	Br	1.244301	0.020443	-0.257691
Br390	Br	1.577634	0.353776	0.075643
Br391	Br	0.958552	-1.057819	-0.284199
Br392	Br	1.291886	-0.724486	0.049134
Br393	Br	1.625219	-0.391152	0.382468
Br394	Br	0.958493	-0.284089	-1.058195
Br395	Br	1.291827	0.049245	-0.724862
Br396	Br	1.625160	0.382578	-0.391529
Br397	Br	1.229255	-0.120023	-0.591091
Br398	Br	1.562588	0.213311	-0.257757
Br399	Br	1.895922	0.546644	0.075576
H400	H	1.156097	-0.164369	-0.473097
H401	H	1.489431	0.168964	-0.139763
H402	H	1.822764	0.502298	0.193570
H403	H	1.155984	-0.472621	-0.164418
H404	H	1.489317	-0.139288	0.168915
H405	H	1.822651	0.194046	0.502249
Br406	Br	0.647304	-0.194975	-0.123087
Br407	Br	0.980637	0.138359	0.210246
Br408	Br	1.313970	0.471692	0.543580
H409	H	0.936757	-0.744156	-0.297296
H410	H	1.270090	-0.410822	0.036037
H411	H	1.603424	-0.077489	0.369371
H412	H	0.507019	-0.146446	-0.189995
H413	H	0.840352	0.186887	0.143338
H414	H	1.173686	0.520221	0.476672
Br415	Br	0.494068	-0.246875	-0.306970
Br416	Br	0.827401	0.086458	0.026363
Br417	Br	1.160734	0.419792	0.359697
H418	H	1.156207	-0.164252	-1.045505
H419	H	1.489541	0.169081	-0.712172
H420	H	1.822874	0.502414	-0.378838
Br421	Br	1.229244	-0.731325	-0.120160
Br422	Br	1.562578	-0.397991	0.213173
Br423	Br	1.895911	-0.064658	0.546507
H424	H	1.203545	-0.135583	-0.744566
H425	H	1.536878	0.197750	-0.411232
H426	H	1.870212	0.531083	-0.077899
H427	H	1.203558	-0.829184	-0.135758
H428	H	1.536891	-0.495851	0.197576
H429	H	1.870224	-0.162518	0.530909
Br430	Br	0.494495	-0.280638	-0.145367
Br431	Br	0.827829	0.052695	0.187966
Br432	Br	1.161162	0.386029	0.521300
H433	H	0.507113	-0.290526	-0.227378
H434	H	0.840447	0.042808	0.105956
H435	H	1.173780	0.376141	0.439289
Br436	Br	1.181945	-0.947164	-0.148874
Br437	Br	1.515278	-0.613831	0.184460
Br438	Br	1.848612	-0.280498	0.517793
Br439	Br	0.649150	-0.242737	-0.309010
Br440	Br	0.982484	0.090596	0.024323
Br441	Br	1.315817	0.423930	0.357656
H442	H	1.155922	-0.387512	-0.164406
H443	H	1.489256	-0.054178	0.168928
H444	H	1.822589	0.279155	0.502261
H445	H	1.203489	-0.688425	-0.135739
H446	H	1.536822	-0.355091	0.197594
H447	H	1.870156	-0.021758	0.530928
H448	H	1.156264	-1.045029	-0.164473
H449	H	1.489597	-0.711696	0.168860
H450	H	1.822930	-0.378363	0.502194
H451	H	0.984246	-0.959967	-0.268615
H452	H	1.317579	-0.626634	0.064718
H453	H	1.650912	-0.293301	0.398051
H454	H	0.936724	-0.688507	-0.297298
H455	H	1.270057	-0.355174	0.036035
H456	H	1.603391	-0.021840	0.369368
Br457	Br	0.910960	-0.590671	-0.312877
Br458	Br	1.244293	-0.257338	0.020456
Br459	Br	1.577626	0.075995	0.353790
Br460	Br	0.911036	-0.312846	-0.842358
Br461	Br	1.244370	0.020488	-0.509024
Br462	Br	1.577703	0.353821	-0.175691
H463	H	0.983948	-0.387566	-0.268554
H464	H	1.317282	-0.054233	0.064779
H465	H	1.650615	0.279101	0.398113
Br466	Br	0.649188	-0.281130	-0.146232
Br467	Br	0.982521	0.052203	0.187101
Br468	Br	1.315854	0.385536	0.520434
H469	H	0.936753	-0.297270	-0.744522
H470	H	1.270087	0.036063	-0.411189
H471	H	1.603420	0.369397	-0.077856
H472	H	1.203535	-0.135596	-0.688924
H473	H	1.536868	0.197737	-0.355591
H474	H	1.870201	0.531071	-0.022257
Br475	Br	0.648287	-0.123250	-0.195344
Br476	Br	0.981620	0.210083	0.137989
Br477	Br	1.314954	0.543417	0.471323
H478	H	0.936798	-0.829262	-0.297305
H479	H	1.270131	-0.495929	0.036028
H480	H	1.603465	-0.162595	0.369362
H481	H	0.633845	-0.290536	-0.227927
H482	H	0.967178	0.042797	0.105406
H483	H	1.300512	0.376131	0.438739
Br484	Br	0.491911	-0.148005	-0.283681
Br485	Br	0.825244	0.185328	0.049652
Br486	Br	1.158578	0.518661	0.382986
H487	H	1.156199	-0.164269	-0.960383
H488	H	1.489532	0.169065	-0.627050
H489	H	1.822865	0.502398	-0.293716
