data_functionalizedCrystal
_audit_creation_method	'MofGen! by Chris Wilmer'
_symmetry_space_group_name_H-M	'P1'
_symmetry_Int_Tables_number	1
_symmetry_cell_setting	triclinic
loop_
_symmetry_equiv_pos_as_xyz
  x,y,z
_cell_length_a	14.519709
_cell_length_b	15.944493
_cell_length_c	15.021413
_cell_angle_alpha	89.997322
_cell_angle_beta	90.000611
_cell_angle_gamma	83.577594
loop_
_atom_site_label
_atom_site_type_symbol
_atom_site_fract_x
_atom_site_fract_y
_atom_site_fract_z
O1	O	1.223650	0.110115	-0.073904
O2	O	0.955147	0.123082	-0.073930
O3	O	1.096759	-0.005669	-0.073924
O4	O	1.082039	0.238866	-0.073910
O5	O	1.096746	-0.005682	0.074140
O6	O	0.955135	0.123069	0.074134
O7	O	1.223637	0.110102	0.074160
Zn8	Zn	1.089384	0.116583	0.097656
Zn9	Zn	1.089401	0.116601	-0.097425
O10	O	1.082026	0.238853	0.074154
C11	C	0.920783	0.122471	0.000099
C12	C	0.818405	0.120660	0.000088
C13	C	1.096151	-0.036971	0.000104
C14	C	1.094347	-0.130222	0.000093
C15	C	0.443522	0.113993	0.000128
C16	C	0.547826	0.115845	0.000117
C17	C	0.630960	0.117327	0.000107
C18	C	0.735271	0.119178	0.000098
C19	C	1.177703	-0.365861	0.000118
C20	C	1.132758	-0.416488	-0.072889
C21	C	1.091005	-0.300948	0.000104
C22	C	1.132726	-0.416477	0.073090
C23	C	1.087783	-0.465863	0.000118
C24	C	1.046084	-0.350347	-0.072964
C25	C	1.046064	-0.350333	0.073081
C26	C	1.001056	-0.400926	0.000056
C27	C	1.092863	-0.205946	0.000095
C28	C	1.085918	-0.560862	0.000120
C29	C	1.258002	0.110713	0.000129
C30	C	1.360380	0.112524	0.000134
C31	C	1.082634	0.270155	0.000124
C32	C	1.084438	0.363406	0.000129
N33	N	1.089380	0.116571	0.230793
N34	N	1.089412	0.116606	-0.230563
C35	C	1.154371	0.056562	0.529787
C36	C	1.173004	0.132262	0.470427
C37	C	1.089402	0.116596	0.587830
C38	C	1.070801	0.040886	0.470449
C39	C	1.089393	0.116580	0.412406
C40	C	1.108077	0.192334	0.529776
C41	C	1.005837	0.100909	0.529803
C42	C	1.024435	0.176663	0.470470
C43	C	1.089409	0.116605	0.688887
C44	C	1.089386	0.116580	0.311351
H45	H	1.252382	-0.350125	0.000052
H46	H	1.169352	-0.445361	0.134808
H47	H	1.169377	-0.445375	-0.134605
Cl48	Cl	0.989599	-0.305931	-0.168363
H49	H	1.123882	0.256369	0.555727
Cl50	Cl	0.939600	0.255117	0.430504
H51	H	0.926319	-0.416501	0.000009
Cl52	Cl	0.989595	-0.305686	0.168371
H53	H	1.055071	-0.023133	0.444387
H54	H	1.209353	0.005857	0.555831
Cl55	Cl	0.896768	0.080388	0.570105
Cl56	Cl	1.282099	0.152733	0.430134
