data_functionalizedCrystal
_audit_creation_method	'MofGen! by Chris Wilmer'
_symmetry_space_group_name_H-M	'P1'
_symmetry_Int_Tables_number	1
_symmetry_cell_setting	triclinic
loop_
_symmetry_equiv_pos_as_xyz
  x,y,z
_cell_length_a	25.639243
_cell_length_b	25.639240
_cell_length_c	25.639234
_cell_angle_alpha	89.967912
_cell_angle_beta	89.976852
_cell_angle_gamma	90.035481
loop_
_atom_site_label
_atom_site_type_symbol
_atom_site_fract_x
_atom_site_fract_y
_atom_site_fract_z
Zn1	Zn	0.799284	-0.208145	-0.295630
Zn2	Zn	0.799205	-0.295573	-0.208183
Zn3	Zn	0.711849	-0.208157	-0.208203
Zn4	Zn	0.711814	-0.295555	-0.295582
O5	O	0.755538	-0.251857	-0.251900
O6	O	0.872438	-0.219744	-0.284041
O7	O	0.787599	-0.283990	-0.135020
O8	O	0.723495	-0.134990	-0.219829
O9	O	0.872381	-0.283977	-0.219794
O10	O	0.787733	-0.134981	-0.284061
O11	O	0.723419	-0.219766	-0.135035
O12	O	0.638679	-0.219749	-0.219783
O13	O	0.723435	-0.283947	-0.368754
O14	O	0.638654	-0.283959	-0.283980
O15	O	0.787699	-0.219727	-0.368789
O16	O	0.787565	-0.368736	-0.219749
O17	O	0.723359	-0.368723	-0.283960
C18	C	0.619695	-0.251854	-0.251879
C19	C	0.561581	-0.251865	-0.251882
C20	C	0.201243	-0.218464	-0.285409
C21	C	0.146638	-0.218463	-0.285412
O22	O	0.118423	-0.190055	-0.313891
N23	N	0.119299	-0.251856	-0.251914
C24	C	0.146567	-0.285247	-0.218407
O25	O	0.118298	-0.313650	-0.189914
C26	C	0.201170	-0.285245	-0.218401
C27	C	0.228507	-0.251854	-0.251905
C28	C	0.228580	-0.185075	-0.318909
C29	C	0.283180	-0.185076	-0.318907
C30	C	0.310444	-0.218466	-0.285403
C31	C	0.283107	-0.251855	-0.251903
C32	C	0.228437	-0.318633	-0.184892
C33	C	0.283044	-0.318627	-0.184889
C34	C	0.310380	-0.285236	-0.218393
C35	C	0.364971	-0.285246	-0.218396
N36	N	0.392311	-0.251854	-0.251894
C37	C	0.365047	-0.218464	-0.285398
C38	C	0.031896	-0.285250	-0.218420
C39	C	-0.022706	-0.285255	-0.218428
C40	C	-0.022631	-0.218470	-0.285432
C41	C	0.031973	-0.218468	-0.285427
C42	C	0.059235	-0.251857	-0.251918
C43	C	0.479712	-0.218469	-0.285390
C44	C	0.534318	-0.218475	-0.285386
C45	C	0.534237	-0.285258	-0.218380
C46	C	0.479637	-0.285254	-0.218386
C47	C	0.452375	-0.251856	-0.251892
O48	O	0.393222	-0.313639	-0.189930
O49	O	0.393322	-0.190061	-0.313881
C50	C	0.755464	-0.387700	-0.251859
C51	C	0.755480	-0.445814	-0.251859
C52	C	0.789003	-0.806134	-0.285405
C53	C	0.789019	-0.860738	-0.285416
O54	O	0.817433	-0.888938	-0.313897
N55	N	0.755611	-0.888096	-0.251950
C56	C	0.722181	-0.860848	-0.218475
O57	O	0.693766	-0.889132	-0.190011
C58	C	0.722163	-0.806244	-0.218468
C59	C	0.755578	-0.778889	-0.251932
C60	C	0.822414	-0.778778	-0.318868
C61	C	0.822399	-0.724178	-0.318856
C62	C	0.788974	-0.696933	-0.285383
C63	C	0.755563	-0.724288	-0.251920
C64	C	0.688732	-0.778997	-0.184996
C65	C	0.688717	-0.724390	-0.184991
C66	C	0.722131	-0.697034	-0.218455
C67	C	0.722122	-0.642443	-0.218435
N68	N	0.755530	-0.615084	-0.251901
C69	C	0.788956	-0.642329	-0.285375
C70	C	0.722220	-0.975518	-0.218494
C71	C	0.722240	-1.030121	-0.218499
C72	C	0.789077	-1.030007	-0.285441
C73	C	0.789059	-0.975404	-0.285433
C74	C	0.755628	-0.948160	-0.251960
C75	C	0.788922	-0.527664	-0.285348
C76	C	0.788906	-0.473059	-0.285332
C77	C	0.722067	-0.473177	-0.218393
C78	C	0.722085	-0.527778	-0.218406
C79	C	0.755515	-0.555020	-0.251888
O80	O	0.693720	-0.614208	-0.189971
O81	O	0.817361	-0.614038	-0.313839
C82	C	0.891911	-0.251861	-0.251921
C83	C	0.950025	-0.251863	-0.251930
C84	C	0.755572	-0.251834	-0.388273
C85	C	0.755587	-0.251823	-0.446387
C86	C	0.755626	-0.115484	-0.251952
C87	C	0.755664	-0.057370	-0.251975
C88	C	0.722183	-0.218320	-0.806763
C89	C	0.722185	-0.218310	-0.861367
O90	O	0.693758	-0.189882	-0.889615
N91	N	0.755604	-0.251741	-0.888669
C92	C	0.789018	-0.285188	-0.861364
O93	O	0.817443	-0.313623	-0.889601
C94	C	0.789012	-0.285200	-0.806761
C95	C	0.755595	-0.251763	-0.779462
C96	C	0.688768	-0.184886	-0.779464
C97	C	0.688766	-0.184895	-0.724863
C98	C	0.722179	-0.218338	-0.697562
C99	C	0.755593	-0.251772	-0.724861
C100	C	0.822423	-0.318648	-0.779457
C101	C	0.822414	-0.318657	-0.724849
C102	C	0.788997	-0.285220	-0.697550
C103	C	0.789004	-0.285223	-0.642959
N104	N	0.755585	-0.251792	-0.615657
C105	C	0.722173	-0.218349	-0.642959
C106	C	0.789027	-0.285161	-0.976035
C107	C	0.789036	-0.285147	-1.030637
C108	C	0.722202	-0.218270	-1.030637
C109	C	0.722197	-0.218282	-0.976033
C110	C	0.755609	-0.251730	-0.948733
C111	C	0.722171	-0.218370	-0.528294
C112	C	0.722174	-0.218381	-0.473688
C113	C	0.789005	-0.285259	-0.473693
C114	C	0.789005	-0.285247	-0.528294
C115	C	0.755584	-0.251801	-0.555593
O116	O	0.817415	-0.313639	-0.614676
O117	O	0.693748	-0.189924	-0.614716
C118	C	0.755534	-0.251843	-0.116057
C119	C	0.755621	-0.251706	-0.057943
H120	H	0.816118	-0.450788	-0.312583
C121	C	0.825245	-0.321656	-0.444110
C122	C	0.813829	-0.373382	-0.457377
C123	C	0.847202	-0.406928	-0.430138
H124	H	0.820484	-0.316942	-0.407674
H125	H	0.860392	-0.314042	-0.453078
H126	H	0.778690	-0.380992	-0.448405
H127	H	0.818593	-0.378112	-0.493809
H128	H	0.882349	-0.399314	-0.439107
H129	H	0.842438	-0.402209	-0.393703
H130	H	0.839464	-0.442027	-0.439140
C131	C	0.564064	-0.182189	-0.321678
C132	C	0.595430	-0.148645	-0.292139
C133	C	0.622842	-0.115216	-0.325552
H134	H	0.540063	-0.162252	-0.341642
H135	H	0.585392	-0.202206	-0.344412
H136	H	0.574104	-0.128629	-0.269414
H137	H	0.619440	-0.168566	-0.272176
H138	H	0.644170	-0.135233	-0.348286
H139	H	0.598838	-0.095284	-0.345514
H140	H	0.644131	-0.092456	-0.305515
C141	C	0.825399	-0.945679	-0.321683
C142	C	0.858929	-0.914329	-0.292112
C143	C	0.892416	-0.886948	-0.325490
H144	H	0.805440	-0.924341	-0.344455
H145	H	0.845338	-0.969715	-0.341608
H146	H	0.838992	-0.890296	-0.272196
H147	H	0.878899	-0.935655	-0.269342
H148	H	0.912355	-0.910983	-0.345415
H149	H	0.872454	-0.865612	-0.348260
H150	H	0.915173	-0.865677	-0.305430
H151	H	0.694854	-0.450986	-0.191137
H152	H	0.816140	-0.549838	-0.312616
C153	C	0.825309	-1.059688	-0.321769
C154	C	0.818157	-1.113361	-0.314620
C155	C	0.851517	-1.140721	-0.348079
H156	H	0.860463	-1.050780	-0.314186
H157	H	0.817627	-1.050753	-0.356901
H158	H	0.825843	-1.122293	-0.279496
H159	H	0.783010	-1.122285	-0.322206
H160	H	0.843836	-1.131785	-0.383211
H161	H	0.886669	-1.131808	-0.340494
H162	H	0.846666	-1.177141	-0.343237
H163	H	0.054090	-0.312444	-0.191135
C164	C	0.312548	-0.354940	-0.148490
C165	C	0.276916	-0.384189	-0.119163
C166	C	0.304075	-0.417652	-0.085634
H167	H	0.333854	-0.334969	-0.125699
H168	H	0.333831	-0.377779	-0.168433
H169	H	0.255642	-0.361354	-0.099221
H170	H	0.255609	-0.404171	-0.141940
H171	H	0.325358	-0.440490	-0.105577
H172	H	0.325380	-0.397676	-0.062847
H173	H	0.279903	-0.437504	-0.065735
C174	C	0.198741	-0.354952	-0.148600
C175	C	0.167397	-0.388522	-0.178132
C176	C	0.140041	-0.421992	-0.144715
H177	H	0.177399	-0.334982	-0.125847
H178	H	0.222791	-0.374862	-0.128658
H179	H	0.143349	-0.368614	-0.198066
H180	H	0.188725	-0.408503	-0.200884
H181	H	0.164091	-0.441902	-0.124773
H182	H	0.118703	-0.402019	-0.121963
H183	H	0.118774	-0.444777	-0.164748
H184	H	0.206387	-0.157882	-0.346192
C185	C	0.450048	-0.321531	-0.181958
C186	C	0.485614	-0.350766	-0.152611
C187	C	0.458380	-0.384182	-0.119041
H188	H	0.428737	-0.344384	-0.201856
H189	H	0.428763	-0.301511	-0.159187
H190	H	0.506890	-0.370785	-0.175380
H191	H	0.506926	-0.327927	-0.132702
H192	H	0.437095	-0.364162	-0.096269
H193	H	0.437071	-0.407032	-0.138943
H194	H	0.482508	-0.404019	-0.099121
H195	H	0.556445	-0.312444	-0.191103
C196	C	0.858695	-0.694576	-0.355250
C197	C	0.887957	-0.730132	-0.384573
C198	C	0.921393	-0.702886	-0.418112
H199	H	0.881530	-0.673266	-0.335331
H200	H	0.838688	-0.673289	-0.378039
H201	H	0.907962	-0.751410	-0.361788
H202	H	0.865135	-0.751443	-0.404503
H203	H	0.901386	-0.681600	-0.440901
H204	H	0.944225	-0.681578	-0.398189
H205	H	0.941248	-0.727007	-0.438015
C206	C	0.825342	-0.321389	-0.946330
C207	C	0.858863	-0.291794	-0.914994
C208	C	0.892318	-0.325150	-0.887621
H209	H	0.845294	-0.341307	-0.970354
H210	H	0.805343	-0.344169	-0.924985
H211	H	0.878861	-0.269024	-0.936337
H212	H	0.838926	-0.271878	-0.890960
H213	H	0.872318	-0.347929	-0.866276
H214	H	0.912266	-0.345066	-0.911649
H215	H	0.915062	-0.305075	-0.866353
H216	H	0.694962	-0.191150	-0.451464
C217	C	0.825409	-0.321416	-1.060204
C218	C	0.877143	-0.310041	-1.046928
C219	C	0.910663	-0.343449	-1.074146
H220	H	0.820702	-0.316660	-1.096643
H221	H	0.817765	-0.356555	-1.051224
H222	H	0.884785	-0.274911	-1.055912
H223	H	0.881867	-0.314801	-1.010494
H224	H	0.903019	-0.378588	-1.065166
H225	H	0.905952	-0.338690	-1.110584
H226	H	0.945768	-0.335739	-1.065139
C227	C	0.685908	-1.059723	-0.182141
C228	C	0.656626	-1.024169	-0.152836
C229	C	0.623144	-1.051418	-0.119344
H230	H	0.705867	-1.081026	-0.159336
H231	H	0.663092	-1.081017	-0.202111
H232	H	0.679440	-1.002884	-0.132868
H233	H	0.636657	-1.002866	-0.175627
H234	H	0.600327	-1.072712	-0.139314
H235	H	0.643107	-1.072719	-0.096542
H236	H	0.603269	-1.027299	-0.099460
C237	C	0.685869	-0.181998	-0.557833
C238	C	0.656619	-0.152714	-0.522229
C239	C	0.623180	-0.119195	-0.549421
H240	H	0.663026	-0.201931	-0.579120
H241	H	0.705873	-0.159184	-0.579137
H242	H	0.636616	-0.175525	-0.500934
H243	H	0.679448	-0.132770	-0.500940
H244	H	0.643184	-0.096382	-0.570725
H245	H	0.600340	-0.139132	-0.570707
H246	H	0.603333	-0.099318	-0.525268
C247	C	0.685862	-0.945914	-0.182231
C248	C	0.652310	-0.914586	-0.211792
C249	C	0.618805	-0.887316	-0.178406
H250	H	0.705807	-0.924569	-0.159454
H251	H	0.665940	-0.970015	-0.162311
H252	H	0.672230	-0.890488	-0.231702
H253	H	0.632353	-0.935919	-0.234567
H254	H	0.598883	-0.911417	-0.158487
H255	H	0.638754	-0.865974	-0.155631
H256	H	0.596033	-0.866061	-0.198459
C257	C	0.825349	-0.321461	-0.557966
C258	C	0.858890	-0.291859	-0.589335
C259	C	0.892376	-0.325206	-0.616668
H260	H	0.805390	-0.344248	-0.579289
H261	H	0.845280	-0.341371	-0.533903
H262	H	0.838961	-0.271958	-0.613396
H263	H	0.878860	-0.269074	-0.568025
H264	H	0.912307	-0.345116	-0.592604
H265	H	0.872413	-0.347991	-0.637988
H266	H	0.915140	-0.305126	-0.637951
H267	H	0.661522	-0.801260	-0.157745
C268	C	0.450214	-0.182192	-0.321829
C269	C	0.485851	-0.152967	-0.351174
C270	C	0.458696	-0.119552	-0.384754
H271	H	0.428915	-0.159333	-0.301939
H272	H	0.428924	-0.202213	-0.344602
H273	H	0.507131	-0.132947	-0.328404
H274	H	0.507150	-0.175812	-0.371075
H275	H	0.437407	-0.139573	-0.407527
H276	H	0.437399	-0.096696	-0.364860
H277	H	0.482871	-0.099722	-0.404672
C278	C	0.685753	-0.557387	-0.182052
C279	C	0.656470	-0.521837	-0.152743
C280	C	0.622986	-0.549090	-0.119256
H281	H	0.705711	-0.578693	-0.159249
H282	H	0.662937	-0.578678	-0.202025
H283	H	0.679283	-0.500555	-0.132771
H284	H	0.636502	-0.500530	-0.175532
H285	H	0.600170	-0.570381	-0.139230
H286	H	0.642948	-0.570395	-0.096457
H287	H	0.603110	-0.524974	-0.099370
H288	H	0.661552	-0.157669	-0.702641
H289	H	0.661491	-0.702210	-0.157734
H290	H	0.849635	-0.345877	-0.801674
C291	C	0.858624	-0.808380	-0.355277
C292	C	0.829020	-0.839723	-0.388780
C293	C	0.862364	-0.866990	-0.422331
H294	H	0.881436	-0.829714	-0.335363
H295	H	0.878507	-0.784276	-0.375232
H296	H	0.809146	-0.863824	-0.368827
H297	H	0.806210	-0.818402	-0.408705
H298	H	0.882247	-0.842887	-0.442286
H299	H	0.885174	-0.888321	-0.402413
H300	H	0.842282	-0.888256	-0.445070
H301	H	0.305433	-0.157885	-0.346188
C302	C	0.652470	-0.148514	-0.809005
C303	C	0.623219	-0.119232	-0.773400
C304	C	0.589782	-0.085710	-0.800590
H305	H	0.629627	-0.168444	-0.830296
H306	H	0.672476	-0.125698	-0.830306
H307	H	0.603215	-0.142045	-0.752108
H308	H	0.646048	-0.099292	-0.752109
H309	H	0.609788	-0.062895	-0.821891
H310	H	0.566943	-0.105644	-0.821880
H311	H	0.569935	-0.065835	-0.776436
H312	H	0.694996	-0.191040	-1.052875
C313	C	0.685881	-0.182068	-0.946330
C314	C	0.652353	-0.211676	-0.914954
C315	C	0.618895	-0.178333	-0.887581
H316	H	0.665935	-0.162138	-0.970354
H317	H	0.705878	-0.159299	-0.925011
H318	H	0.632359	-0.234436	-0.936271
H319	H	0.672285	-0.231605	-0.890920
H320	H	0.638891	-0.155564	-0.866263
H321	H	0.598952	-0.158405	-0.911610
H322	H	0.596145	-0.198417	-0.866286
C323	C	0.858748	-0.354995	-0.695304
C324	C	0.888019	-0.384263	-0.730903
C325	C	0.921499	-0.417737	-0.703707
H326	H	0.838788	-0.377824	-0.673986
H327	H	0.881572	-0.335014	-0.674030
H328	H	0.865198	-0.404242	-0.752169
H329	H	0.907989	-0.361447	-0.752222
H330	H	0.944323	-0.397756	-0.682432
H331	H	0.901535	-0.440563	-0.682390
H332	H	0.941367	-0.437596	-0.727856
H333	H	0.054227	-0.191277	-0.312708
H334	H	-0.044839	-0.191281	-0.312711
H335	H	-0.044959	-0.312451	-0.191152
