data_functionalizedCrystal
_audit_creation_method	'MofGen! by Chris Wilmer'
_symmetry_space_group_name_H-M	'P1'
_symmetry_Int_Tables_number	1
_symmetry_cell_setting	triclinic
loop_
_symmetry_equiv_pos_as_xyz
  x,y,z
_cell_length_a	14.971506
_cell_length_b	19.188924
_cell_length_c	14.048226
_cell_angle_alpha	89.991497
_cell_angle_beta	89.993237
_cell_angle_gamma	83.382176
loop_
_atom_site_label
_atom_site_type_symbol
_atom_site_fract_x
_atom_site_fract_y
_atom_site_fract_z
O1	O	1.186452	0.091055	-0.079172
O2	O	0.925996	0.101937	-0.079173
O3	O	1.063744	-0.005135	-0.079161
O4	O	1.048705	0.198127	-0.079184
O5	O	1.063727	-0.005142	0.079160
O6	O	0.925980	0.101930	0.079149
O7	O	1.186435	0.091049	0.079150
Zn8	Zn	1.056205	0.096489	0.104286
Zn9	Zn	1.056227	0.096497	-0.104309
O10	O	1.048688	0.198121	0.079138
C11	C	0.892666	0.101444	-0.000012
C12	C	0.793378	0.099978	-0.000012
C13	C	0.354791	0.157287	-0.000028
C14	C	0.448084	0.158659	-0.000032
C15	C	0.505638	0.095750	-0.000021
C16	C	0.469895	0.031465	-0.000015
C17	C	0.376604	0.030094	-0.000018
C18	C	0.664343	0.034328	-0.000008
C19	C	0.757641	0.035698	-0.000003
C20	C	0.735823	0.162892	-0.000022
C21	C	0.642532	0.161521	-0.000025
C22	C	0.606795	0.097236	-0.000017
C23	C	1.063249	-0.031151	0.000001
C24	C	1.061791	-0.108661	0.000003
C25	C	1.061119	-0.145058	-0.086298
C26	C	1.059735	-0.217886	-0.086305
C27	C	1.059042	-0.254314	-0.000006
C28	C	1.059709	-0.217907	0.086306
C29	C	1.061083	-0.145081	0.086311
N30	N	1.107777	-0.373820	0.064224
N31	N	1.106473	-0.443003	0.064213
C32	C	1.054899	-0.473737	-0.000016
N33	N	1.004689	-0.432676	-0.064249
N34	N	1.005996	-0.363488	-0.064241
C35	C	1.057551	-0.333283	-0.000002
C36	C	1.052725	-0.589102	-0.086331
C37	C	1.051336	-0.661930	-0.086334
C38	C	1.051319	-0.661951	0.086280
C39	C	1.052699	-0.589124	0.086281
C40	C	1.053406	-0.552704	-0.000027
C41	C	1.219766	0.091541	-0.000013
C42	C	1.319054	0.093007	-0.000020
C43	C	1.049183	0.224137	-0.000026
C44	C	1.050641	0.301646	-0.000035
N45	N	1.056197	0.096483	0.246647
N46	N	1.056242	0.096498	-0.246670
C47	C	1.117210	0.049091	0.296470
C48	C	1.117216	0.049090	0.396128
C49	C	1.056212	0.096486	0.445960
C50	C	0.995193	0.143880	0.396130
C51	C	0.995183	0.143876	0.296474
C52	C	0.995218	0.143885	0.603844
C53	C	0.995229	0.143889	0.703507
C54	C	1.117252	0.049099	0.703498
C55	C	1.117242	0.049095	0.603842
C56	C	1.056223	0.096491	0.554018
H57	H	0.347509	-0.022249	-0.000013
H58	H	1.059183	-0.247526	-0.156584
C59	C	0.928102	0.196021	0.549040
H60	H	0.891779	0.224255	0.592990
H61	H	0.890967	0.170858	0.510177
H62	H	0.960166	0.225129	0.510153
H63	H	1.050747	-0.691610	0.156546
H64	H	1.053296	-0.559447	-0.156608
H65	H	1.053253	-0.559489	0.156557
H66	H	0.945518	0.182468	0.436709
H67	H	0.307936	0.208515	-0.000030
H68	H	1.061692	-0.115410	-0.156577
C69	C	0.487391	0.229367	-0.000030
H70	H	0.439753	0.266636	-0.000022
H71	H	0.523338	0.232554	-0.055238
H72	H	0.523322	0.232539	0.055190
H73	H	1.050785	-0.691563	-0.156614
H74	H	0.804500	-0.015528	-0.000002
H75	H	1.166890	0.010499	0.255903
H76	H	0.595673	0.212747	-0.000028
C77	C	0.775129	0.233605	-0.000043
H78	H	0.838932	0.225414	-0.000053
H79	H	0.755355	0.259512	0.055162
H80	H	0.755361	0.259507	-0.055265
H81	H	1.059141	-0.247572	0.156571
C82	C	0.928072	0.196007	0.241664
H83	H	0.936797	0.189213	0.175176
H84	H	0.937596	0.242620	0.257979
H85	H	0.868410	0.188338	0.258014
C86	C	1.061831	-0.105042	0.181246
H87	H	1.061224	-0.137166	0.232644
H88	H	1.010223	-0.071350	0.184836
H89	H	1.114524	-0.081918	0.184833
C90	C	1.184373	-0.003036	0.758294
H91	H	1.220711	-0.031257	0.714343
H92	H	1.152327	-0.032147	0.797187
H93	H	1.221506	0.022140	0.797153
C94	C	0.625034	-0.036385	0.000003
H95	H	0.672672	-0.073655	0.000020
H96	H	0.589101	-0.039565	-0.055207
H97	H	0.589089	-0.039561	0.055221
C98	C	1.184339	-0.003034	0.450929
H99	H	1.220679	-0.031254	0.406978
H100	H	1.152296	-0.032146	0.489823
H101	H	1.221472	0.022144	0.489786
C102	C	0.928070	0.195978	0.758321
H103	H	0.891703	0.224186	0.714377
H104	H	0.960074	0.225107	0.797212
H105	H	0.890970	0.170762	0.797183
H106	H	1.166920	0.010506	0.563268
H107	H	0.516763	-0.019756	-0.000012
