data_functionalizedCrystal
_audit_creation_method	'MofGen! by Chris Wilmer'
_symmetry_space_group_name_H-M	'P1'
_symmetry_Int_Tables_number	1
_symmetry_cell_setting	triclinic
loop_
_symmetry_equiv_pos_as_xyz
  x,y,z
_cell_length_a	6.394984
_cell_length_b	10.654550
_cell_length_c	9.130313
_cell_angle_alpha	90.000276
_cell_angle_beta	89.997013
_cell_angle_gamma	94.509859
loop_
_atom_site_label
_atom_site_type_symbol
_atom_site_fract_x
_atom_site_fract_y
_atom_site_fract_z
O1	O	0.293442	-1.670944	-0.121685
O2	O	0.321400	-1.305761	-0.121711
O3	O	0.003431	-1.493540	-0.121693
O4	O	0.611411	-1.483165	-0.121702
O5	O	0.003422	-1.493526	0.121906
O6	O	0.321390	-1.305748	0.121888
O7	O	0.293433	-1.670930	0.121914
Cu8	Cu	0.307411	-1.488338	0.144144
Cu9	Cu	0.307422	-1.488354	-0.143940
O10	O	0.611402	-1.483152	0.121896
C11	C	0.319342	-1.258935	0.000085
C12	C	0.313201	-1.119426	0.000075
C13	C	0.925578	-1.491470	0.000110
C14	C	0.689250	-1.485218	0.000107
C15	C	0.295491	-1.717757	0.000115
C16	C	0.301632	-1.857265	0.000116
N17	N	0.307402	-1.488336	0.346766
N18	N	0.307414	-1.488365	-0.346563
C19	C	0.500415	-1.041921	0.000076
C20	C	0.494632	-0.910839	0.000102
C21	C	0.114403	-0.934780	0.000119
C22	C	0.120188	-1.065860	0.000103
C23	C	0.166665	-1.571514	0.423426
C24	C	0.166666	-1.571526	0.576763
C25	C	0.448158	-1.405178	0.576767
C26	C	0.448146	-1.405161	0.423433
H27	H	0.647082	-0.847739	0.000106
O28	O	0.584664	-1.324216	0.651181
C29	C	0.703777	-1.107748	0.698065
C30	C	0.549029	-1.199296	0.613728
H31	H	0.675050	-1.006732	0.667792
H32	H	0.679612	-1.121942	0.820842
H33	H	0.871354	-1.126812	0.667919
H34	H	0.381391	-1.180289	0.643751
H35	H	0.573377	-1.185083	0.490971
O36	O	-0.061626	-1.141210	0.000357
C37	C	-0.275688	-1.303168	0.126504
C38	C	-0.069743	-1.217887	0.126411
H39	H	-0.282297	-1.365202	0.228392
H40	H	-0.414714	-1.242432	0.126608
H41	H	-0.282450	-1.365070	0.024506
H42	H	-0.062776	-1.155971	0.228392
H43	H	0.069187	-1.278697	0.126230
O44	O	-0.072900	-0.882536	0.000070
C45	C	-0.250329	-0.691213	0.000180
C46	C	-0.038062	-0.750208	0.000207
H47	H	-0.222236	-0.584217	0.000323
H48	H	-0.342974	-0.722791	-0.101788
H49	H	-0.342938	-0.722969	0.102103
H50	H	0.054718	-0.718479	-0.101647
H51	H	0.054424	-0.718634	0.102243
H52	H	0.657578	-1.085531	0.000064
O53	O	0.029739	-1.652342	0.349178
C54	C	-0.249389	-1.817382	0.365365
C55	C	-0.094456	-1.725891	0.449627
H56	H	-0.349811	-1.876888	0.446542
H57	H	-0.354750	-1.761560	0.293636
H58	H	-0.158184	-1.881491	0.293521
H59	H	-0.185490	-1.661761	0.521551
H60	H	0.010905	-1.781791	0.521264
H61	H	0.052063	-1.639255	0.639175
H62	H	0.562751	-1.337422	0.361012
