data_functionalizedCrystal
_audit_creation_method	'MofGen! by Chris Wilmer'
_symmetry_space_group_name_H-M	'P1'
_symmetry_Int_Tables_number	1
_symmetry_cell_setting	triclinic
loop_
_symmetry_equiv_pos_as_xyz
  x,y,z
_cell_length_a	19.288864
_cell_length_b	9.130313
_cell_length_c	19.288871
_cell_angle_alpha	89.997622
_cell_angle_beta	96.862404
_cell_angle_gamma	90.014070
loop_
_atom_site_label
_atom_site_type_symbol
_atom_site_fract_x
_atom_site_fract_y
_atom_site_fract_z
O1	O	0.921346	0.122273	-0.086644
O2	O	0.719086	0.122173	-0.098333
O3	O	0.826058	0.122212	0.008641
O4	O	0.814374	0.122234	-0.193619
O5	O	0.826057	-0.121387	0.008638
O6	O	0.719085	-0.121426	-0.098336
O7	O	0.921345	-0.121326	-0.086647
Cu8	Cu	0.820215	-0.143619	-0.092492
Cu9	Cu	0.820216	0.144465	-0.092488
O10	O	0.814373	-0.121365	-0.193622
C11	C	0.693209	0.000361	-0.097958
C12	C	0.616105	0.000322	-0.096829
N13	N	0.820219	-0.346241	-0.092494
C14	C	0.571411	0.000352	-0.159597
C15	C	0.498963	0.000368	-0.158536
C16	C	0.471214	0.000384	-0.094704
C17	C	0.515919	0.000346	-0.031928
C18	C	0.588364	0.000315	-0.032991
C19	C	0.362952	0.085771	-0.044524
C20	C	0.290507	0.085811	-0.043465
C21	C	0.247769	0.000472	-0.091425
C22	C	0.277482	-0.084888	-0.140457
C23	C	0.349928	-0.084918	-0.141519
C24	C	0.392660	0.000416	-0.093545
C25	C	0.124518	0.000517	-0.153047
C26	C	0.052070	0.000524	-0.151983
C27	C	0.069027	0.000516	-0.025374
C28	C	0.141473	0.000495	-0.026439
C29	C	0.169214	0.000502	-0.090277
C30	C	0.867598	-0.422876	-0.045141
C31	C	0.867596	-0.576213	-0.045133
C32	C	0.772834	-0.576267	-0.139836
C33	C	0.772833	-0.422933	-0.139840
C34	C	0.922310	-0.422846	0.009532
C35	C	0.922309	-0.576183	0.009541
C36	C	0.947222	0.000489	-0.087022
C37	C	1.024326	0.000537	-0.088151
C38	C	0.825681	0.000412	0.034516
C39	C	0.824550	0.000410	0.111620
N40	N	0.820218	0.347088	-0.092481
C41	C	0.816430	-0.132357	0.667188
C42	C	0.817485	-0.132362	0.594740
C43	C	0.818016	0.000423	0.558511
C44	C	0.817475	0.133224	0.594732
C45	C	0.816413	0.133226	0.667178
C46	C	0.860381	0.102173	0.449180
C47	C	0.861447	0.102166	0.376737
C48	C	0.821289	0.000422	0.335064
C49	C	0.780073	-0.101338	0.365845
C50	C	0.779011	-0.101336	0.438291
C51	C	0.819167	0.000435	0.479956
C52	C	0.822969	-0.132376	0.220294
C53	C	0.824020	-0.132377	0.147844
C54	C	0.824017	0.133213	0.147839
C55	C	0.822959	0.133210	0.220286
C56	C	0.822439	0.000411	0.256510
C57	C	0.814753	0.000432	0.780504
C58	C	0.815892	0.000427	0.703402
H59	H	0.593992	0.000361	-0.211579
H60	H	0.895011	0.185018	0.351681
Br61	Br	0.822234	0.313426	0.269438
H62	H	0.734253	-0.638725	-0.178383
H63	H	0.911081	-0.381239	0.062785
Br64	Br	0.815683	0.313446	0.716328
Br65	Br	0.914869	0.240298	0.505727
Br66	Br	0.420947	0.201594	0.020572
H67	H	0.817905	0.241338	0.565229
H68	H	0.015679	0.000540	-0.203099
H69	H	0.975550	-0.617771	-0.001729
H70	H	0.906028	-0.623745	0.059797
H71	H	0.972545	-0.375260	-0.006789
H72	H	0.624756	0.000291	0.018124
Br73	Br	0.815718	-0.312583	0.716345
Br74	Br	0.818220	-0.312581	0.545583
H75	H	0.177865	0.000478	0.024674
H76	H	0.462566	0.000388	-0.209651
Br77	Br	0.250188	0.201674	0.023069
Br78	Br	0.390252	-0.200761	-0.208057
H79	H	0.745452	-0.184194	0.463350
H80	H	0.747374	-0.184191	0.331917
Br81	Br	0.822261	-0.312598	0.269459
H82	H	0.824455	-0.240509	0.118360
Br83	Br	0.708520	-0.318924	-0.204093
H84	H	0.493321	0.000378	0.020044
H85	H	0.824441	0.241330	0.118340
Br86	Br	0.219489	-0.200709	-0.205553
Br87	Br	0.162171	0.000516	-0.239682
Br88	Br	0.031376	0.000513	0.061257
