data_functionalizedCrystal
_audit_creation_method	'MofGen! by Chris Wilmer'
_symmetry_space_group_name_H-M	'P1'
_symmetry_Int_Tables_number	1
_symmetry_cell_setting	triclinic
loop_
_symmetry_equiv_pos_as_xyz
  x,y,z
_cell_length_a	12.827893
_cell_length_b	16.120444
_cell_length_c	12.827885
_cell_angle_alpha	87.135329
_cell_angle_beta	90.019081
_cell_angle_gamma	92.926457
loop_
_atom_site_label
_atom_site_type_symbol
_atom_site_fract_x
_atom_site_fract_y
_atom_site_fract_z
Zn1	Zn	1.576496	-0.331868	0.611895
Zn2	Zn	1.567494	-0.471303	0.446001
Zn3	Zn	1.401735	-0.331908	0.437172
Zn4	Zn	1.392831	-0.471241	0.620698
O5	O	1.484639	-0.401580	0.528942
O6	O	1.721537	-0.350373	0.589900
O7	O	1.545465	-0.452855	0.298596
O8	O	1.432411	-0.215237	0.452971
O9	O	1.714924	-0.452816	0.468018
O10	O	1.560808	-0.215207	0.581340
O11	O	1.423682	-0.350442	0.292110
O12	O	1.254318	-0.350382	0.461506
O13	O	1.417235	-0.452710	0.765763
O14	O	1.247776	-0.452750	0.596341
O15	O	1.552173	-0.350313	0.759296
O16	O	1.536831	-0.587961	0.476553
O17	O	1.408506	-0.587915	0.604902
C18	C	1.213130	-0.401564	0.528922
C19	C	1.096976	-0.401577	0.528939
C20	C	0.928413	-0.350990	0.589371
C21	C	1.048464	-0.350975	0.589355
C22	C	1.470754	-0.618188	0.542664
C23	C	1.464909	-0.710854	0.548569
C24	C	1.515214	-0.921799	0.498532
C25	C	1.454258	-0.880510	0.559362
C26	C	1.460186	-0.786105	0.553355
C27	C	1.509287	-1.016213	0.504538
C28	C	1.757208	-0.401597	0.528962
C29	C	1.873361	-0.401604	0.528971
C30	C	1.484715	-0.401500	0.801507
C31	C	1.484748	-0.401466	0.917658
C32	C	1.498607	-0.184126	0.515189
C33	C	1.504559	-0.091460	0.509328
C34	C	1.484627	-0.401600	0.257433
C35	C	1.484812	-0.401399	0.141268
C36	C	1.551527	-0.350787	0.966242
C37	C	1.551562	-0.350750	1.086290
H38	H	1.049652	-0.444910	0.477223
C39	C	1.377736	-0.928530	0.635805
H40	H	1.340274	-0.890208	0.673184
H41	H	1.330136	-0.962559	0.597908
H42	H	1.415600	-0.962440	0.683495
C43	C	1.591713	-0.873776	0.422081
H44	H	1.585698	-0.815706	0.428018
H45	H	1.661051	-0.887927	0.438307
H46	H	1.575563	-0.888052	0.352743
C47	C	1.628731	-0.292208	0.902380
H48	H	1.618585	-0.299922	0.830072
H49	H	1.617063	-0.236173	0.916670
H50	H	1.698186	-0.304404	0.920992
C51	C	0.872034	-0.292467	0.659256
H52	H	0.922140	-0.260716	0.697155
H53	H	0.831753	-0.256140	0.617028
H54	H	0.827437	-0.324448	0.706719
H55	H	1.608737	-0.307365	1.128084
C56	C	1.407583	-0.460031	1.084829
H57	H	1.365719	-0.491810	1.134895
H58	H	1.364123	-0.428132	1.040219
H59	H	1.445274	-0.496342	1.044561
H60	H	1.427595	-0.444822	0.964938
C61	C	1.112396	-0.292437	0.659218
H62	H	1.184696	-0.300111	0.650048
H63	H	1.098137	-0.236395	0.640514
H64	H	1.093808	-0.304703	0.730205
C65	C	0.929739	-0.460135	0.459098
H66	H	0.879632	-0.491897	0.421211
H67	H	0.974346	-0.428169	0.411639
H68	H	0.970008	-0.496465	0.501344
