data_functionalizedCrystal
_audit_creation_method	'MofGen! by Chris Wilmer'
_symmetry_space_group_name_H-M	'P1'
_symmetry_Int_Tables_number	1
_symmetry_cell_setting	triclinic
loop_
_symmetry_equiv_pos_as_xyz
  x,y,z
_cell_length_a	10.723024
_cell_length_b	10.723023
_cell_length_c	16.176319
_cell_angle_alpha	90.002418
_cell_angle_beta	90.005687
_cell_angle_gamma	84.467709
loop_
_atom_site_label
_atom_site_type_symbol
_atom_site_fract_x
_atom_site_fract_y
_atom_site_fract_z
O1	O	1.657191	0.175025	0.068739
O2	O	1.294039	0.191778	0.068742
O3	O	1.483992	0.001825	0.068737
O4	O	1.467238	0.364978	0.068744
O5	O	1.483969	0.001824	-0.068756
O6	O	1.294016	0.191777	-0.068751
O7	O	1.657168	0.175024	-0.068754
Cu8	Cu	1.475590	0.183401	-0.081307
Cu9	Cu	1.475617	0.183401	0.081295
O10	O	1.467215	0.364977	-0.068749
C11	C	1.482762	-0.044675	-0.000009
C12	C	1.479114	-0.183229	-0.000006
C13	C	1.247528	0.190558	-0.000004
C14	C	1.108973	0.186911	-0.000003
C15	C	1.477500	-0.244995	0.071221
C16	C	1.473730	-0.388198	0.071225
C17	C	1.033991	0.293198	-0.000001
C18	C	0.890787	0.289431	0.000000
C19	C	1.703679	0.176243	-0.000006
C20	C	1.842234	0.179891	-0.000001
C21	C	1.468445	0.411477	-0.000002
C22	C	1.472093	0.550031	0.000001
N23	N	1.475581	0.183399	-0.195672
C24	C	1.551907	0.259781	-0.238932
C25	C	1.551921	0.259777	-0.325479
C26	C	1.475600	0.183396	-0.368765
C27	C	1.399270	0.107005	-0.325499
C28	C	1.399264	0.107004	-0.238953
C29	C	1.399293	0.107007	-0.674527
C30	C	1.399302	0.107016	-0.761079
C31	C	1.551950	0.259780	-0.761053
C32	C	1.551944	0.259778	-0.674507
C33	C	1.475619	0.183383	-0.631249
C34	C	1.475608	0.183387	-0.537405
C35	C	1.475604	0.183397	-0.462607
N36	N	1.475636	0.183393	0.195660
H37	H	1.478903	-0.191856	0.132197
H38	H	0.826354	0.380421	0.000006
C39	C	0.929269	0.056957	-0.000006
N40	N	0.994833	-0.035637	-0.000012
H41	H	1.472348	-0.441315	0.132205
H42	H	1.614076	0.321972	-0.360697
C43	C	1.315323	0.022981	-0.626954
N44	N	1.252069	-0.040309	-0.591120
H45	H	1.337134	0.044808	-0.360749
H46	H	1.067152	0.093125	0.000016
C47	C	1.090483	0.419904	-0.000002
N48	N	1.133032	0.515342	-0.000002
H49	H	1.473487	-0.396861	-0.060982
H50	H	1.614049	0.321987	-0.203695
H51	H	1.614087	0.321980	-0.639268
H52	H	1.477698	-0.236366	-0.060982
C53	C	1.635920	0.343805	-0.808644
N54	N	1.699164	0.407093	-0.844489
H55	H	1.337149	0.044813	-0.796320
H56	H	1.337111	0.044806	-0.203733
