data_functionalizedCrystal
_audit_creation_method	'MofGen! by Chris Wilmer'
_symmetry_space_group_name_H-M	'P1'
_symmetry_Int_Tables_number	1
_symmetry_cell_setting	triclinic
loop_
_symmetry_equiv_pos_as_xyz
  x,y,z
_cell_length_a	23.532407
_cell_length_b	23.532407
_cell_length_c	22.010155
_cell_angle_alpha	89.997120
_cell_angle_beta	89.988300
_cell_angle_gamma	82.848712
loop_
_atom_site_label
_atom_site_type_symbol
_atom_site_fract_x
_atom_site_fract_y
_atom_site_fract_z
O1	O	0.755268	0.069129	-0.050493
O2	O	1.255268	0.569129	0.449507
O3	O	0.589405	0.079132	-0.050503
O4	O	1.089405	0.579132	0.449497
O5	O	0.677338	-0.008801	-0.050487
O6	O	1.177338	0.491199	0.449513
O7	O	0.667335	0.157062	-0.050510
O8	O	1.167335	0.657062	0.449490
O9	O	0.677313	-0.008791	0.050564
O10	O	1.177313	0.491209	0.550564
O11	O	0.589380	0.079142	0.050547
O12	O	1.089380	0.579142	0.550547
O13	O	0.755243	0.069139	0.050557
O14	O	1.255243	0.569139	0.550557
Cu15	Cu	0.672309	0.074142	0.059779
Cu16	Cu	1.172309	0.574142	0.559779
Cu17	Cu	0.672339	0.074129	-0.059725
Cu18	Cu	1.172339	0.574129	0.440275
O19	O	0.667310	0.157072	0.050541
O20	O	1.167310	0.657072	0.550541
C21	C	0.568176	0.078882	0.000021
C22	C	1.068176	0.578882	0.500021
C23	C	0.504959	0.078116	0.000017
C24	C	1.004959	0.578116	0.500017
C25	C	0.677071	-0.030012	0.000040
C26	C	1.177071	0.469988	0.500040
C27	C	0.676305	-0.093229	0.000045
C28	C	1.176305	0.406771	0.500045
C29	C	0.238792	0.022921	0.000041
C30	C	0.738792	0.522921	0.500041
C31	C	0.298192	0.023632	0.000041
C32	C	0.798192	0.523632	0.500041
O33	O	0.334937	-0.020153	0.000068
O34	O	0.834937	0.479847	0.500068
N35	N	0.320818	0.075909	0.000030
N36	N	0.820818	0.575909	0.500030
C37	C	0.284041	0.127477	0.000025
C38	C	0.784041	0.627477	0.500025
O39	O	0.308740	0.172007	0.000016
O40	O	0.808740	0.672007	0.500016
C41	C	0.224642	0.126765	0.000029
C42	C	0.724642	0.626765	0.500029
C43	C	0.202019	0.074485	0.000035
C44	C	0.702019	0.574485	0.500035
C45	C	0.216168	-0.029354	0.000047
C46	C	0.716168	0.470646	0.500047
C47	C	0.156772	-0.030066	0.000046
C48	C	0.656772	0.469934	0.500046
C49	C	0.119999	0.021499	0.000039
C50	C	0.619999	0.521499	0.500039
C51	C	0.142623	0.073774	0.000034
C52	C	0.642623	0.573774	0.500034
C53	C	0.187865	0.178333	0.000029
C54	C	0.687865	0.678333	0.500029
C55	C	0.128463	0.177616	0.000034
C56	C	0.628463	0.677616	0.500034
C57	C	0.105840	0.125336	0.000039
C58	C	0.605840	0.625336	0.500039
C59	C	0.046454	0.124627	0.000026
C60	C	0.546454	0.624627	0.500026
N61	N	0.023828	0.072351	0.000037
N62	N	0.523828	0.572351	0.500037
C63	C	0.060600	0.020787	0.000044
C64	C	0.560600	0.520787	0.500044
C65	C	0.408783	0.128968	0.000016
C66	C	0.908783	0.628968	0.500016
C67	C	0.468181	0.129681	0.000007
C68	C	0.968181	0.629681	0.500007
C69	C	0.482328	0.025836	0.000025
C70	C	0.982328	0.525836	0.500025
C71	C	0.422929	0.025124	0.000029
C72	C	0.922929	0.525124	0.500029
C73	C	0.386157	0.076692	0.000027
C74	C	0.886157	0.576692	0.500027
C75	C	-0.064136	0.019297	0.000042
C76	C	0.435864	0.519297	0.500042
C77	C	-0.123538	0.018590	0.000038
C78	C	0.376462	0.518590	0.500038
C79	C	-0.137680	0.122435	0.000024
C80	C	0.362320	0.622435	0.500024
C81	C	-0.078284	0.123142	0.000024
C82	C	0.421716	0.623142	0.500024
C83	C	-0.041512	0.071568	0.000035
C84	C	0.458488	0.571568	0.500035
O85	O	0.009675	0.168390	0.000001
O86	O	0.509675	0.668390	0.500001
O87	O	0.035892	-0.023737	0.000061
O88	O	0.535892	0.476263	0.500061
C89	C	0.723538	-0.492332	0.000014
C90	C	1.223538	0.007668	0.500014
C91	C	0.722827	-0.551733	0.000010
C92	C	1.222827	-0.051733	0.500010
O93	O	0.766613	-0.588477	-0.000010
O94	O	1.266613	-0.088477	0.499990
N95	N	0.670551	-0.574359	0.000007
N96	N	1.170551	-0.074359	0.500007
C97	C	0.618982	-0.537581	0.000002
C98	C	1.118982	-0.037581	0.500002
O99	O	0.574452	-0.562281	-0.000001
O100	O	1.074452	-0.062281	0.499999
C101	C	0.619695	-0.478182	0.000003
C102	C	1.119695	0.021818	0.500003
C103	C	0.671974	-0.455559	0.000012
C104	C	1.171974	0.044441	0.500012
C105	C	0.775814	-0.469709	0.000023
C106	C	1.275814	0.030291	0.500023
C107	C	0.776525	-0.410313	0.000028
C108	C	1.276525	0.089687	0.500028
C109	C	0.724961	-0.373540	0.000026
C110	C	1.224961	0.126460	0.500026
C111	C	0.672685	-0.396163	0.000018
C112	C	1.172685	0.103837	0.500018
C113	C	0.568127	-0.441406	-0.000006
C114	C	1.068127	0.058594	0.499994
C115	C	0.568843	-0.382003	-0.000006
C116	C	1.068843	0.117997	0.499994
C117	C	0.621123	-0.359381	0.000003
C118	C	1.121123	0.140619	0.500003
C119	C	0.621832	-0.299994	0.000021
C120	C	1.121832	0.200006	0.500021
N121	N	0.674109	-0.277368	0.000024
N122	N	1.174109	0.222632	0.500024
C123	C	0.725673	-0.314141	0.000026
C124	C	1.225673	0.185859	0.500026
C125	C	0.617491	-0.662324	0.000001
C126	C	1.117491	-0.162324	0.500001
C127	C	0.616778	-0.721722	0.000005
C128	C	1.116778	-0.221722	0.500005
C129	C	0.720623	-0.735869	0.000011
C130	C	1.220623	-0.235869	0.500011
C131	C	0.721335	-0.676470	0.000011
C132	C	1.221335	-0.176470	0.500011
C133	C	0.669767	-0.639698	0.000004
C134	C	1.169767	-0.139698	0.500004
C135	C	0.727163	-0.189404	0.000039
C136	C	1.227163	0.310596	0.500039
C137	C	0.727869	-0.130002	0.000047
C138	C	1.227869	0.369998	0.500047
C139	C	0.624025	-0.115860	0.000038
C140	C	1.124025	0.384140	0.500038
C141	C	0.623318	-0.175257	0.000033
C142	C	1.123318	0.324743	0.500033
C143	C	0.674891	-0.212028	0.000031
C144	C	1.174891	0.287972	0.500031
O145	O	0.578069	-0.263215	0.000038
O146	O	1.078069	0.236785	0.500038
O147	O	0.770196	-0.289433	0.000022
O148	O	1.270196	0.210567	0.500022
C149	C	0.776472	0.069389	0.000032
C150	C	1.276472	0.569389	0.500032
C151	C	0.839689	0.070155	0.000032
C152	C	1.339689	0.570155	0.500032
C153	C	0.667577	0.178283	0.000013
C154	C	1.167577	0.678283	0.500013
C155	C	0.668343	0.241500	0.000004
C156	C	1.168343	0.741500	0.500004
N157	N	0.672292	0.074150	0.143831
N158	N	1.172292	0.574150	0.643831
N159	N	0.672361	0.074117	-0.143777
N160	N	1.172361	0.574117	0.356223
C161	C	0.637983	0.039758	0.436439
C162	C	1.137983	0.539758	0.936439
C163	C	0.637977	0.039761	0.372831
C164	C	1.137977	0.539761	0.872831
O165	O	0.608785	0.010521	0.339936
O166	O	1.108785	0.510521	0.839936
N167	N	0.672314	0.074132	0.341016
N168	N	1.172314	0.574132	0.841016
C169	C	0.706663	0.108499	0.372811
C170	C	1.206663	0.608499	0.872811
O171	O	0.735869	0.137734	0.339908
O172	O	1.235869	0.637734	0.839908
C173	C	0.706671	0.108492	0.436417
C174	C	1.206671	0.608492	0.936417
C175	C	0.672327	0.074123	0.468230
C176	C	1.172327	0.574123	0.968230
C177	C	0.603642	0.005391	0.468252
C178	C	1.103642	0.505391	0.968252
C179	C	0.603647	0.005390	0.531855
C180	C	1.103647	0.505390	1.031855
C181	C	0.637991	0.039755	0.563645
C182	C	1.137991	0.539755	1.063645
C183	C	0.672331	0.074122	0.531833
C184	C	1.172331	0.574122	1.031833
C185	C	0.741022	0.142855	0.468211
C186	C	1.241022	0.642855	0.968211
C187	C	0.741027	0.142846	0.531822
C188	C	1.241027	0.642846	1.031822
C189	C	0.706683	0.108477	0.563634
C190	C	1.206683	0.608477	1.063634
C191	C	0.706680	0.108485	0.627227
C192	C	1.206680	0.608485	1.127227
N193	N	0.672344	0.074114	0.659042
N194	N	1.172344	0.574114	1.159042
C195	C	0.637999	0.039749	0.627252
C196	C	1.137999	0.539749	1.127252
C197	C	0.706645	0.108508	0.239233
C198	C	1.206645	0.608508	0.739233
C199	C	0.706635	0.108517	0.175627
C200	C	1.206635	0.608517	0.675627
C201	C	0.637950	0.039779	0.175653
C202	C	1.137950	0.539779	0.675653
C203	C	0.637957	0.039773	0.239259
C204	C	1.137957	0.539773	0.739259
C205	C	0.672308	0.074137	0.271049
C206	C	1.172308	0.574137	0.771049
C207	C	0.638010	0.039748	0.760823
C208	C	1.138010	0.539748	1.260823
C209	C	0.638016	0.039752	0.824432
C210	C	1.138016	0.539752	1.324432
C211	C	0.706703	0.108488	0.824401
C212	C	1.206703	0.608488	1.324401
C213	C	0.706695	0.108487	0.760798
C214	C	1.206695	0.608487	1.260798
C215	C	0.672347	0.074113	0.729011
C216	C	1.172347	0.574113	1.229011
O217	O	0.735860	0.137708	0.660162
O218	O	1.235860	0.637708	1.160162
O219	O	0.608803	0.010513	0.660162
O220	O	1.108803	0.510513	1.160162
H221	H	-0.141954	-0.023984	0.000041
H222	H	0.358046	0.476016	0.500041
H223	H	0.246104	-0.071347	0.000055
H224	H	0.746104	0.428653	0.500055
H225	H	0.817806	-0.499644	0.000022
H226	H	1.317806	0.000356	0.500022
H227	H	-0.059864	0.165712	0.000019
H228	H	0.440136	0.665712	0.500019
H229	H	0.404515	-0.017447	0.000034
H230	H	0.904515	0.482553	0.500034
H231	H	-0.034204	-0.022699	0.000050
H232	H	0.465796	0.477301	0.500050
O233	O	0.740024	0.141951	0.270017
O234	O	1.240024	0.641951	0.770017
C235	C	0.808171	0.210107	0.263265
C236	C	1.308171	0.710107	0.763265
C237	C	0.770387	0.172272	0.228332
C238	C	1.270387	0.672272	0.728332
H239	H	0.832738	0.234623	0.229578
H240	H	1.332738	0.734623	0.729578
H241	H	0.780012	0.241740	0.293036
H242	H	1.280012	0.741740	0.793036
H243	H	0.839768	0.181931	0.293050
H244	H	1.339768	0.681931	0.793050
H245	H	0.738785	0.200402	0.198514
H246	H	1.238785	0.700402	0.698514
H247	H	0.798582	0.140635	0.198599
H248	H	1.298582	0.640635	0.698599
H249	H	0.763906	-0.658055	0.000018
H250	H	1.263906	-0.158055	0.500018
H251	H	0.769159	-0.219337	0.000035
H252	H	1.269159	0.280663	0.500035
O253	O	0.518032	-0.024271	-0.000071
O254	O	1.018032	0.475729	0.499929
C255	C	0.548299	-0.112831	-0.052383
C256	C	1.048299	0.387169	0.447617
C257	C	0.507841	-0.056105	-0.052357
C258	C	1.007841	0.443895	0.447643
H259	H	0.540065	-0.138590	-0.094646
H260	H	1.040065	0.361410	0.405354
H261	H	0.594649	-0.103371	-0.052424
H262	H	1.094649	0.396629	0.447576
H263	H	0.540106	-0.138544	-0.010069
H264	H	1.040106	0.361456	0.489931
H265	H	0.515982	-0.030363	-0.094665
H266	H	1.015982	0.469637	0.405335
H267	H	0.461504	-0.065605	-0.052285
H268	H	0.961504	0.434395	0.447715
H269	H	0.734652	0.136481	0.734895
H270	H	1.234652	0.636481	1.234895
O271	O	0.774440	0.176253	0.437412
O272	O	1.274440	0.676253	0.937412
C273	C	0.842554	0.244443	0.444128
C274	C	1.342554	0.744443	0.944128
C275	C	0.804741	0.206637	0.479081
C276	C	1.304741	0.706637	0.979081
H277	H	0.867053	0.269027	0.477802
H278	H	1.367053	0.769027	0.977802
H279	H	0.874202	0.216298	0.414359
H280	H	1.374202	0.716298	0.914359
H281	H	0.814364	0.276025	0.414340
H282	H	1.314364	0.776025	0.914340
H283	H	0.832884	0.175050	0.508903
H284	H	1.332884	0.675050	1.008903
H285	H	0.773088	0.234817	0.508812
H286	H	1.273088	0.734817	1.008812
O287	O	0.490058	0.180516	0.000022
O288	O	0.990058	0.680516	0.500022
C289	C	0.469741	0.283439	-0.000032
C290	C	0.969741	0.783439	0.499968
C291	C	0.444892	0.225908	-0.000039
C292	C	0.944892	0.725908	0.499961
H293	H	0.433236	0.320154	-0.000094
H294	H	0.933236	0.820154	0.499906
H295	H	0.497165	0.286416	0.042267
H296	H	0.997165	0.786416	0.542267
H297	H	0.497224	0.286335	-0.042312
H298	H	0.997224	0.786335	0.457688
H299	H	0.417383	0.222973	0.042212
H300	H	0.917383	0.722973	0.542212
H301	H	0.417500	0.222955	-0.042366
H302	H	0.917500	0.722955	0.457634
O303	O	0.373007	0.179028	-0.000077
O304	O	0.873007	0.679028	0.499923
C305	C	0.297774	0.238508	-0.052461
C306	C	0.797774	0.738508	0.447539
C307	C	0.338244	0.181790	-0.052424
C308	C	0.838244	0.681790	0.447576
H309	H	0.269666	0.240764	-0.094785
H310	H	0.769666	0.740764	0.405215
H311	H	0.269563	0.240792	-0.010200
H312	H	0.769563	0.740792	0.489800
H313	H	0.324167	0.275979	-0.052442
H314	H	0.824167	0.775979	0.447558
H315	H	0.311897	0.144286	-0.052464
H316	H	0.811897	0.644286	0.447536
H317	H	0.366457	0.179556	-0.094681
H318	H	0.866457	0.679556	0.405319
O319	O	0.740147	0.141833	0.855223
O320	O	1.240147	0.641833	1.355223
C321	C	0.835874	0.163548	0.874696
C322	C	1.335874	0.663548	1.374696
C323	C	0.798061	0.125760	0.839740
C324	C	1.298061	0.625760	1.339740
H325	H	0.882706	0.150559	0.862201
H326	H	1.382706	0.650559	1.362201
H327	H	0.822963	0.210388	0.862189
H328	H	1.322963	0.710388	1.362189
H329	H	0.829946	0.157648	0.925617
H330	H	1.329946	0.657648	1.425617
H331	H	0.803969	0.131611	0.788811
H332	H	1.303969	0.631611	1.288811
H333	H	0.810981	0.078934	0.852298
H334	H	1.310981	0.578934	1.352298
H335	H	0.206274	0.220904	0.000022
H336	H	0.706274	0.720904	0.500022
O337	O	0.604534	0.006469	0.270186
O338	O	1.104534	0.506469	0.770186
C339	C	0.527687	0.003548	0.342048
C340	C	1.027687	0.503548	0.842048
C341	C	0.565490	0.041336	0.307056
C342	C	1.065490	0.541336	0.807056
H343	H	0.496119	0.031722	0.371875
H344	H	0.996119	0.531722	0.871875
H345	H	0.503098	-0.020997	0.308421
H346	H	1.003098	0.479003	0.808421
H347	H	0.555892	-0.028067	0.371786
H348	H	1.055892	0.471933	0.871786
H349	H	0.537327	0.072983	0.277317
H350	H	1.037327	0.572983	0.777317
H351	H	0.590084	0.065841	0.340716
H352	H	1.090084	0.565841	0.840716
O353	O	0.770767	-0.771515	0.000035
O354	O	1.270767	-0.271515	0.500035
C355	C	0.873842	-0.779296	-0.000002
C356	C	1.373842	-0.279296	0.499998
C357	C	0.817102	-0.738860	-0.000015
C358	C	1.317102	-0.238860	0.499985
H359	H	0.911319	-0.752910	-0.000056
H360	H	1.411319	-0.252910	0.499944
H361	H	0.876133	-0.807452	0.042295
H362	H	1.376133	-0.307452	0.542295
H363	H	0.876077	-0.807466	-0.042284
H364	H	1.376077	-0.307466	0.457716
H365	H	0.814829	-0.710655	0.042238
H366	H	1.314829	-0.210655	0.542238
H367	H	0.814835	-0.710743	-0.042340
H368	H	1.314835	-0.210743	0.457660
H369	H	0.582043	-0.085909	0.000038
H370	H	1.082043	0.414091	0.500038
H371	H	0.734593	0.136511	0.149731
H372	H	1.234593	0.636511	0.649731
O373	O	0.134896	-0.080901	0.000086
O374	O	0.634896	0.419099	0.500086
C375	C	0.155219	-0.183824	0.000077
C376	C	0.655219	0.316176	0.500077
C377	C	0.180065	-0.126291	0.000042
C378	C	0.680065	0.373709	0.500042
H379	H	0.191726	-0.220536	0.000029
H380	H	0.691726	0.279464	0.500029
H381	H	0.127781	-0.186788	0.042380
H382	H	0.627781	0.313212	0.542380
H383	H	0.127751	-0.186736	-0.042199
H384	H	0.627751	0.313264	0.457801
H385	H	0.207559	-0.123339	0.042289
H386	H	0.707559	0.376661	0.542289
H387	H	0.207471	-0.123351	-0.042289
H388	H	0.707471	0.376649	0.457711
O389	O	0.827260	-0.388247	0.000055
O390	O	1.327260	0.111753	0.500055
C391	C	0.874396	-0.303021	0.000011
C392	C	1.374396	0.196979	0.500011
C393	C	0.816896	-0.327929	0.000000
C394	C	1.316896	0.172071	0.500000
H395	H	0.866037	-0.254251	-0.000046
H396	H	1.366037	0.245749	0.499954
H397	H	0.899862	-0.318152	0.042308
H398	H	1.399862	0.181848	0.542308
H399	H	0.899862	-0.318228	-0.042271
H400	H	1.399862	0.181772	0.457729
H401	H	0.791383	-0.312734	0.042253
H402	H	1.291383	0.187266	0.542253
H403	H	0.791474	-0.312801	-0.042326
H404	H	1.291474	0.187199	0.457674
H405	H	0.526850	-0.352065	-0.000013
H406	H	1.026850	0.147935	0.499987
O407	O	0.567357	-0.626662	-0.000079
O408	O	1.067357	-0.126662	0.499921
C409	C	0.478842	-0.596380	-0.052449
C410	C	0.978842	-0.096380	0.447551
C411	C	0.535591	-0.636803	-0.052426
C412	C	1.035591	-0.136803	0.447574
H413	H	0.453149	-0.604555	-0.094773
H414	H	0.953149	-0.104555	0.405227
H415	H	0.453052	-0.604582	-0.010189
H416	H	0.953052	-0.104582	0.489811
H417	H	0.488336	-0.550042	-0.052418
H418	H	0.988336	-0.050042	0.447582
H419	H	0.526149	-0.683155	-0.052478
H420	H	1.026149	-0.183155	0.447522
H421	H	0.561364	-0.628551	-0.094682
H422	H	1.061364	-0.128551	0.405318
H423	H	0.610047	0.011764	0.850331
H424	H	1.110047	0.511764	1.350331
O425	O	0.517326	-0.463343	-0.000127
O426	O	1.017326	0.036657	0.499873
C427	C	0.428355	-0.469366	-0.052481
C428	C	0.928355	0.030634	0.447519
C429	C	0.485876	-0.444499	-0.052426
C430	C	0.985876	0.055501	0.447574
H431	H	0.402905	-0.454131	-0.094754
H432	H	0.902905	0.045869	0.405246
H433	H	0.436656	-0.518140	-0.052523
H434	H	0.936656	-0.018140	0.447477
H435	H	0.402901	-0.454206	-0.010178
H436	H	0.902901	0.045794	0.489822
H437	H	0.511359	-0.459616	-0.094722
H438	H	1.011359	0.040384	0.405278
H439	H	0.477534	-0.395728	-0.052353
H440	H	0.977534	0.104272	0.447647
H441	H	0.575683	-0.022599	0.557751
H442	H	1.075683	0.477401	1.057751
H443	H	0.098525	0.219610	0.000035
H444	H	0.598525	0.719610	0.500035
O445	O	0.572571	-0.197305	-0.000052
O446	O	1.072571	0.302695	0.499948
C447	C	0.511501	-0.256120	-0.052439
C448	C	1.011501	0.243880	0.447561
C449	C	0.568997	-0.231204	-0.052405
C450	C	1.068997	0.268796	0.447595
H451	H	0.508587	-0.283522	-0.094769
H452	H	1.008587	0.216478	0.405231
H453	H	0.508552	-0.283620	-0.010184
H454	H	1.008552	0.216380	0.489816
H455	H	0.474778	-0.219624	-0.052408
H456	H	0.974778	0.280376	0.447592
H457	H	0.605753	-0.267663	-0.052458
H458	H	1.105753	0.232337	0.447542
H459	H	0.571896	-0.203688	-0.094656
H460	H	1.071896	0.296312	0.405344
H461	H	0.770443	-0.111587	0.000056
H462	H	1.270443	0.388413	0.500056
H463	H	0.769001	0.170829	0.557701
H464	H	1.269001	0.670829	1.057701
O465	O	0.604590	0.006345	0.730045
O466	O	1.104590	0.506345	1.230045
C467	C	0.536484	-0.061852	0.736800
C468	C	1.036484	0.438148	1.236800
C469	C	0.574298	-0.024045	0.771731
C470	C	1.074298	0.475955	1.271731
H471	H	0.511992	-0.086441	0.770488
H472	H	1.011992	0.413559	1.270488
H473	H	0.504830	-0.033706	0.707049
H474	H	1.004830	0.466294	1.207049
H475	H	0.564672	-0.093428	0.706996
H476	H	1.064672	0.406572	1.206996
H477	H	0.546156	0.007537	0.801569
H478	H	1.046156	0.507537	1.301569
H479	H	0.605956	-0.052227	0.801445
H480	H	1.105956	0.447773	1.301445
H481	H	-0.167631	0.164417	0.000016
H482	H	0.332369	0.664417	0.500016
O483	O	0.570223	-0.028007	0.437470
O484	O	1.070223	0.471993	0.937470
C485	C	0.502116	-0.096203	0.444230
C486	C	1.002116	0.403797	0.944230
C487	C	0.539934	-0.058399	0.479159
C488	C	1.039934	0.441601	0.979159
H489	H	0.477627	-0.120794	0.477920
H490	H	0.977627	0.379206	0.977920
H491	H	0.470459	-0.068056	0.414483
H492	H	0.970459	0.431944	0.914483
H493	H	0.530301	-0.127779	0.414422
H494	H	1.030301	0.372221	0.914422
H495	H	0.511795	-0.026818	0.509000
H496	H	1.011795	0.473182	1.009000
H497	H	0.571594	-0.086582	0.508868
H498	H	1.071594	0.413418	1.008868
O499	O	0.604537	0.006376	0.144859
O500	O	1.104537	0.506376	0.644859
C501	C	0.536442	-0.061835	0.151579
C502	C	1.036442	0.438165	0.651579
C503	C	0.574241	-0.024027	0.186530
C504	C	1.074241	0.475973	0.686530
H505	H	0.511948	-0.086435	0.185255
H506	H	1.011948	0.413565	0.685255
H507	H	0.504791	-0.033688	0.121825
H508	H	1.004791	0.466312	0.621825
H509	H	0.564642	-0.093402	0.121775
H510	H	1.064642	0.406598	0.621775
H511	H	0.546088	0.007545	0.216367
H512	H	1.046088	0.507545	0.716367
H513	H	0.605897	-0.052209	0.216245
H514	H	1.105897	0.447791	0.716245
H515	H	0.574207	-0.740135	0.000008
H516	H	1.074207	-0.240135	0.500008
