data_functionalizedCrystal
_audit_creation_method	'MofGen! by Chris Wilmer'
_symmetry_space_group_name_H-M	'P1'
_symmetry_Int_Tables_number	1
_symmetry_cell_setting	triclinic
loop_
_symmetry_equiv_pos_as_xyz
  x,y,z
_cell_length_a	14.971486
_cell_length_b	17.038272
_cell_length_c	13.448316
_cell_angle_alpha	89.993314
_cell_angle_beta	89.998199
_cell_angle_gamma	87.362843
loop_
_atom_site_label
_atom_site_type_symbol
_atom_site_fract_x
_atom_site_fract_y
_atom_site_fract_z
O1	O	1.194577	0.101898	-0.082578
O2	O	1.694577	0.601898	0.417422
O3	O	0.935090	0.114100	-0.082605
O4	O	1.435090	0.614100	0.417395
O5	O	1.063291	-0.005818	-0.082584
O6	O	1.563291	0.494182	0.417416
O7	O	1.066375	0.221816	-0.082599
O8	O	1.566375	0.721816	0.417401
O9	O	1.063273	-0.005826	0.082800
O10	O	1.563273	0.494174	0.582800
O11	O	0.935072	0.114093	0.082779
O12	O	1.435072	0.614093	0.582779
O13	O	1.194559	0.101890	0.082806
O14	O	1.694559	0.601890	0.582806
Cu15	Cu	1.064814	0.107991	0.097893
Cu16	Cu	1.564814	0.607991	0.597893
Cu17	Cu	1.064835	0.107999	-0.097692
Cu18	Cu	1.564835	0.607999	0.402308
O19	O	1.066358	0.221809	0.082785
O20	O	1.566358	0.721809	0.582785
C21	C	0.901716	0.113551	0.000083
C22	C	1.401716	0.613551	0.500083
C23	C	0.802296	0.111915	0.000073
C24	C	1.302296	0.611915	0.500073
C25	C	1.060477	-0.034954	0.000108
C26	C	1.560477	0.465046	0.500108
C27	C	1.052107	-0.121756	0.000107
C28	C	1.552107	0.378244	0.500107
C29	C	0.750345	0.182364	0.000070
C30	C	1.250345	0.682364	0.500070
C31	C	0.656930	0.180823	0.000085
C32	C	1.156930	0.680823	0.500085
C33	C	0.615468	0.108832	0.000096
C34	C	1.115468	0.608832	0.500096
C35	C	0.667426	0.038378	0.000102
C36	C	1.167426	0.538378	0.500102
C37	C	0.760839	0.039920	0.000095
C38	C	1.260839	0.539920	0.500095
C39	C	0.472723	0.035169	0.000116
C40	C	0.972723	0.535169	0.500116
C41	C	0.379303	0.033626	0.000122
C42	C	0.879303	0.533626	0.500122
C43	C	0.368815	0.176072	0.000107
C44	C	0.868815	0.676072	0.500107
C45	C	0.462228	0.177614	0.000099
C46	C	0.962228	0.677614	0.500099
C47	C	0.514179	0.107159	0.000103
C48	C	1.014179	0.607159	0.500103
C49	C	1.128951	-0.171781	0.000116
C50	C	1.628951	0.328219	0.500116
C51	C	1.121081	-0.253341	0.000105
C52	C	1.621081	0.246659	0.500105
C53	C	1.036367	-0.284874	0.000093
C54	C	1.536367	0.215126	0.500093
C55	C	0.959518	-0.234843	0.000081
C56	C	1.459518	0.265157	0.500081
C57	C	0.967388	-0.153285	0.000084
C58	C	1.467388	0.346715	0.500084
C59	C	1.008563	-0.530664	0.000077
C60	C	1.508563	-0.030664	0.500077
C61	C	1.000698	-0.612229	0.000077
C62	C	1.500698	-0.112229	0.500077
C63	C	1.162262	-0.630721	0.000099
C64	C	1.662262	-0.130721	0.500099
C65	C	1.170125	-0.549161	0.000108
C66	C	1.670125	-0.049161	0.500108
C67	C	1.093276	-0.499137	0.000091
C68	C	1.593276	0.000863	0.500091
C69	C	1.028321	-0.368241	0.000086
C70	C	1.528321	0.131759	0.500086
C71	C	1.101323	-0.415771	0.000091
C72	C	1.601323	0.084229	0.500091
C73	C	1.227933	0.102440	0.000115
C74	C	1.727933	0.602440	0.500115
C75	C	1.327353	0.104075	0.000119
C76	C	1.827353	0.604075	0.500119
C77	C	1.069172	0.250944	0.000091
C78	C	1.569172	0.750944	0.500091
C79	C	1.077542	0.337746	0.000086
C80	C	1.577542	0.837746	0.500086
N81	N	1.064806	0.107984	0.235458
N82	N	1.564806	0.607984	0.735458
N83	N	1.064850	0.108000	-0.235257
N84	N	1.564850	0.608000	0.264743
C85	C	1.121593	0.054906	0.287507
C86	C	1.621593	0.554906	0.787507
C87	C	1.121599	0.054905	0.391611
C88	C	1.621599	0.554905	0.891611
C89	C	1.064821	0.107987	0.443662
C90	C	1.564821	0.607987	0.943662
C91	C	1.008026	0.161068	0.391605
C92	C	1.508026	0.661068	0.891605
C93	C	1.008017	0.161064	0.287504
C94	C	1.508017	0.661064	0.787504
C95	C	1.008052	0.161073	0.608585
C96	C	1.508052	0.661073	1.108585
C97	C	1.008062	0.161078	0.712694
C98	C	1.508062	0.661078	1.212694
C99	C	1.121634	0.054914	0.712692
C100	C	1.621634	0.554914	1.212692
C101	C	1.121624	0.054911	0.608591
C102	C	1.621624	0.554911	1.108591
C103	C	1.064831	0.107992	0.556541
C104	C	1.564831	0.607992	1.056541
H105	H	0.784097	0.240987	0.000060
H106	H	1.284097	0.740987	0.500060
H107	H	0.904813	-0.112555	0.000077
H108	H	1.404813	0.387445	0.500077
H109	H	1.167862	0.011692	0.566210
H110	H	1.667862	0.511692	1.066210
H111	H	0.961801	0.204295	0.566210
H112	H	1.461801	0.704295	1.066210
H113	H	0.961791	0.204285	0.433991
H114	H	1.461791	0.704285	0.933991
C115	C	1.222144	-0.137103	0.000129
C116	C	1.722144	0.362897	0.500129
N117	N	1.292339	-0.110986	0.000135
N118	N	1.792339	0.389014	0.500135
H119	H	1.170296	-0.390093	0.000079
H120	H	1.670296	0.109907	0.500079
C121	C	0.599788	0.258322	0.000099
C122	C	1.099788	0.758322	0.500099
N123	N	0.556749	0.316698	0.000117
N124	N	1.056749	0.816698	0.500117
C125	C	0.935137	-0.402936	0.000093
C126	C	1.435137	0.097064	0.500093
N127	N	0.864951	-0.429071	0.000103
N128	N	1.364951	0.070929	0.500103
C129	C	0.529867	-0.042336	0.000117
C130	C	1.029867	0.457664	0.500117
N131	N	0.572909	-0.100711	0.000112
N132	N	1.072909	0.399289	0.500112
C133	C	1.184055	-0.003489	0.230260
C134	C	1.684055	0.496511	0.730260
N135	N	1.231100	-0.047477	0.187144
N136	N	1.731100	0.452523	0.687144
H137	H	0.803137	-0.017447	0.000097
H138	H	1.303137	0.482553	0.500097
H139	H	0.495983	0.236235	0.000080
H140	H	0.995983	0.736235	0.500080
C141	C	1.205616	-0.308365	0.000132
C142	C	1.705616	0.191635	0.500132
N143	N	1.269292	-0.349809	0.000156
N144	N	1.769292	0.150191	0.500156
H145	H	0.326511	0.233438	0.000107
H146	H	0.826511	0.733438	0.500107
C147	C	1.184103	-0.003479	0.769949
C148	C	1.684103	0.496521	1.269949
N149	N	1.231156	-0.047458	0.813079
N150	N	1.731156	0.452542	1.313079
H151	H	1.224829	-0.671459	0.000111
H152	H	1.724829	-0.171459	0.500111
C153	C	1.263317	-0.514481	0.000123
C154	C	1.763317	-0.014481	0.500123
N155	N	1.333511	-0.488360	0.000138
N156	N	1.833511	0.011640	0.500138
C157	C	0.945597	0.219466	0.769948
C158	C	1.445597	0.719466	1.269948
N159	N	0.898546	0.263443	0.813073
N160	N	1.398546	0.763443	1.313073
H161	H	1.167839	0.011685	0.433989
H162	H	1.667839	0.511685	0.933989
H163	H	0.961773	0.204284	0.245126
H164	H	1.461773	0.704284	0.745126
H165	H	0.945986	-0.489944	0.000063
H166	H	1.445986	0.010056	0.500063
C167	C	0.907502	-0.646913	0.000056
C168	C	1.407502	-0.146913	0.500056
N169	N	0.837310	-0.673037	0.000040
N170	N	1.337310	-0.173037	0.500040
H171	H	0.890541	-0.260524	0.000065
H172	H	1.390541	0.239476	0.500065
H173	H	0.633660	-0.020239	0.000126
H174	H	1.133660	0.479761	0.500126
H175	H	0.345548	-0.024995	0.000133
H176	H	0.845548	0.475005	0.500133
