data_functionalizedCrystal
_audit_creation_method	'MofGen! by Chris Wilmer'
_symmetry_space_group_name_H-M	'P1'
_symmetry_Int_Tables_number	1
_symmetry_cell_setting	triclinic
loop_
_symmetry_equiv_pos_as_xyz
  x,y,z
_cell_length_a	19.805407
_cell_length_b	19.076808
_cell_length_c	19.805399
_cell_angle_alpha	87.672943
_cell_angle_beta	89.980427
_cell_angle_gamma	92.323385
loop_
_atom_site_label
_atom_site_type_symbol
_atom_site_fract_x
_atom_site_fract_y
_atom_site_fract_z
Zn1	Zn	1.023914	-0.280233	-0.371886
Zn2	Zn	1.523914	0.219767	0.128114
Zn3	Zn	1.019283	-0.397938	-0.254147
Zn4	Zn	1.519283	0.102062	0.245853
Zn5	Zn	0.910727	-0.280252	-0.258710
Zn6	Zn	1.410727	0.219748	0.241290
Zn7	Zn	0.906148	-0.397901	-0.367295
Zn8	Zn	1.406148	0.102099	0.132705
O9	O	0.965018	-0.339081	-0.313009
O10	O	1.465018	0.160919	0.186991
O11	O	1.118016	-0.295854	-0.356279
O12	O	1.618016	0.204146	0.143721
O13	O	1.004861	-0.382351	-0.160035
O14	O	1.504861	0.117649	0.339965
O15	O	0.929597	-0.181753	-0.277553
O16	O	1.429597	0.318247	0.222447
O17	O	1.114613	-0.382332	-0.269777
O18	O	1.614613	0.117668	0.230223
O19	O	1.012754	-0.181739	-0.360703
O20	O	1.512754	0.318261	0.139297
O21	O	0.925106	-0.295887	-0.163387
O22	O	1.425106	0.204113	0.336613
O23	O	0.815404	-0.295851	-0.273102
O24	O	1.315404	0.204149	0.226898
O25	O	0.921791	-0.382268	-0.462622
O26	O	1.421791	0.117732	0.037378
O27	O	0.812039	-0.382287	-0.352879
O28	O	1.312039	0.117713	0.147121
O29	O	1.008313	-0.295818	-0.465994
O30	O	1.508313	0.204182	0.034006
O31	O	1.000421	-0.496429	-0.265326
O32	O	1.500421	0.003571	0.234674
O33	O	0.917301	-0.496402	-0.348455
O34	O	1.417301	0.003598	0.151545
C35	C	0.789162	-0.339067	-0.312988
C36	C	1.289162	0.160933	0.187012
C37	C	0.713930	-0.339079	-0.312994
C38	C	1.213930	0.160921	0.187006
C39	C	0.676849	-0.384154	-0.354462
C40	C	1.176849	0.115846	0.145538
C41	C	0.606160	-0.384155	-0.354471
C42	C	1.106160	0.115845	0.145529
C43	C	0.572554	-0.339084	-0.313009
C44	C	1.072554	0.160916	0.186991
C45	C	0.609640	-0.294004	-0.271540
C46	C	1.109640	0.205996	0.228460
C47	C	0.680328	-0.294000	-0.271535
C48	C	1.180328	0.206000	0.228465
C49	C	0.324567	-0.294020	-0.271562
C50	C	0.824567	0.205980	0.228438
C51	C	0.253874	-0.294029	-0.271569
C52	C	0.753874	0.205971	0.228431
C53	C	0.250399	-0.384175	-0.354498
C54	C	0.750399	0.115825	0.145502
C55	C	0.321086	-0.384170	-0.354493
C56	C	0.821086	0.115830	0.145507
C57	C	0.358167	-0.339088	-0.313027
C58	C	0.858167	0.160912	0.186973
C59	C	0.434815	-0.339086	-0.313018
C60	C	0.934815	0.160914	0.186982
C61	C	0.495907	-0.339089	-0.313014
C62	C	0.995907	0.160911	0.186986
C63	C	0.957879	-0.521955	-0.305912
C64	C	1.457879	-0.021955	0.194088
C65	C	0.954888	-0.600189	-0.302898
C66	C	1.454888	-0.100189	0.197102
C67	C	0.996745	-0.636876	-0.344809
C68	C	1.496745	-0.136876	0.155191
C69	C	0.993931	-0.710385	-0.341979
C70	C	1.493931	-0.210385	0.158021
C71	C	0.949263	-0.747206	-0.297233
C72	C	1.449263	-0.247206	0.202767
C73	C	0.907400	-0.710515	-0.255321
C74	C	1.407400	-0.210515	0.244679
C75	C	0.910211	-0.637007	-0.258155
C76	C	1.410211	-0.137007	0.241845
C77	C	0.936213	-0.967059	-0.284114
C78	C	1.436213	-0.467059	0.215886
C79	C	0.933407	-1.040572	-0.281281
C80	C	1.433407	-0.540572	0.218719
C81	C	1.019937	-1.040437	-0.367940
C82	C	1.519937	-0.540437	0.132060
C83	C	1.022747	-0.966928	-0.370768
C84	C	1.522747	-0.466928	0.129232
C85	C	0.980882	-0.930243	-0.328858
C86	C	1.480882	-0.430243	0.171142
N87	N	0.946387	-0.822345	-0.294338
N88	N	1.446387	-0.322345	0.205662
N89	N	0.983755	-0.855106	-0.331757
N90	N	1.483755	-0.355106	0.168243
C91	C	1.141560	-0.339095	-0.313031
C92	C	1.641560	0.160905	0.186969
C93	C	1.216792	-0.339101	-0.313041
C94	C	1.716792	0.160899	0.186959
C95	C	0.965058	-0.339037	-0.489554
C96	C	1.465058	0.160963	0.010446
C97	C	0.965074	-0.339018	-0.564787
C98	C	1.465074	0.160982	-0.064787
C99	C	0.972203	-0.155493	-0.320149
C100	C	1.472203	0.344507	0.179851
C101	C	0.975264	-0.077259	-0.323192
C102	C	1.475264	0.422741	0.176808
C103	C	1.010128	-0.294001	-0.601888
C104	C	1.510128	0.205999	-0.101888
C105	C	1.010135	-0.293980	-0.672577
C106	C	1.510135	0.206020	-0.172577
C107	C	0.965093	-0.338981	-0.706164
C108	C	1.465093	0.161019	-0.206164
C109	C	0.920035	-0.384000	-0.669057
C110	C	1.420035	0.116000	-0.169057
C111	C	0.920024	-0.384016	-0.598369
C112	C	1.420024	0.115984	-0.098369
C113	C	0.920075	-0.383934	-0.954133
C114	C	1.420075	0.116066	-0.454133
C115	C	0.920091	-0.383916	-1.024826
C116	C	1.420091	0.116084	-0.524826
C117	C	1.010187	-0.293899	-1.028341
C118	C	1.510187	0.206101	-0.528341
C119	C	1.010176	-0.293915	-0.957653
C120	C	1.510176	0.206085	-0.457653
C121	C	0.965116	-0.338931	-0.920553
C122	C	1.465116	0.161069	-0.420553
C123	C	0.965107	-0.338951	-0.843904
C124	C	1.465107	0.161049	-0.343904
C125	C	0.965104	-0.338964	-0.782812
C126	C	1.465104	0.161036	-0.282812
C127	C	0.965019	-0.339074	-0.137154
C128	C	1.465019	0.160926	0.362846
C129	C	0.965141	-0.338895	-0.061929
C130	C	1.465141	0.161105	0.438071
H131	H	0.710519	-0.257292	-0.237771
H132	H	1.210519	0.242708	0.262229
C133	C	0.407739	-0.199320	-0.265976
C134	C	0.907739	0.300680	0.234024
C135	C	0.365322	-0.244472	-0.225980
C136	C	0.865322	0.255528	0.274020
H137	H	0.432899	-0.168728	-0.237833
H138	H	0.932899	0.331272	0.262167
H139	H	0.437866	-0.226160	-0.290663
H140	H	0.937866	0.273840	0.209337
H141	H	0.381216	-0.172440	-0.296551
H142	H	0.881216	0.327560	0.203449
H143	H	0.391846	-0.271355	-0.195409
H144	H	0.891846	0.228645	0.304591
H145	H	0.335191	-0.217629	-0.201281
H146	H	0.835191	0.282371	0.298719
C147	C	1.056524	-0.944195	-0.486288
C148	C	1.556524	-0.444195	0.013712
C149	C	1.071849	-0.926459	-0.419954
C150	C	1.571849	-0.426459	0.080046
H151	H	1.086839	-0.919208	-0.516651
H152	H	1.586839	-0.419208	-0.016651
H153	H	1.060840	-0.993219	-0.490594
H154	H	1.560840	-0.493219	0.009406
H155	H	1.011501	-0.932175	-0.496610
H156	H	1.511501	-0.432175	0.003390
H157	H	1.116871	-0.938484	-0.409631
H158	H	1.616871	-0.438484	0.090369
H159	H	1.067539	-0.877424	-0.415646
H160	H	1.567539	-0.377424	0.084354
H161	H	0.575972	-0.420860	-0.388237
H162	H	1.075972	0.079140	0.111763
H163	H	0.876126	-0.607137	-0.224028
H164	H	1.376126	-0.107137	0.275972
H165	H	0.883331	-0.420666	-0.568162
H166	H	1.383331	0.079334	-0.068162
H167	H	0.704206	-0.420858	-0.388223
H168	H	1.204206	0.079142	0.111777
H169	H	1.046824	-0.257325	-0.702782
H170	H	1.546824	0.242675	-0.202782
C171	C	1.099231	-0.204925	-0.968230
C172	C	1.599231	0.295075	-0.468230
C173	C	1.059686	-0.244447	-0.920736
C174	C	1.559686	0.255553	-0.420736
H175	H	1.129792	-0.174381	-0.945439
H176	H	1.629792	0.325619	-0.445439
H177	H	1.123927	-0.235586	-0.994610
H178	H	1.623927	0.264414	-0.494610
H179	H	1.070791	-0.177996	-0.996846
H180	H	1.570791	0.322004	-0.496846
H181	H	1.088126	-0.271380	-0.892124
H182	H	1.588126	0.228620	-0.392124
H183	H	1.034988	-0.213782	-0.894345
H184	H	1.534988	0.286218	-0.394345
C185	C	1.101547	-0.284242	-0.522793
C186	C	1.601547	0.215758	-0.022793
C187	C	1.059639	-0.244533	-0.564973
C188	C	1.559639	0.255467	-0.064973
H189	H	1.132114	-0.253699	-0.500008
H190	H	1.632114	0.246301	-0.000008
H191	H	1.074715	-0.311049	-0.490582
H192	H	1.574715	0.188951	0.009418
H193	H	1.126241	-0.314901	-0.549188
H194	H	1.626241	0.185099	-0.049188
H195	H	1.034941	-0.213878	-0.538577
H196	H	1.534941	0.286122	-0.038577
H197	H	1.086474	-0.217714	-0.597188
H198	H	1.586474	0.282286	-0.097188
H199	H	0.348445	-0.420874	-0.388253
H200	H	0.848445	0.079126	0.111747
H201	H	0.902127	-0.937196	-0.249987
H202	H	1.402127	-0.437196	0.250013
H203	H	0.220200	-0.420880	-0.388265
H204	H	0.720200	0.079120	0.111735
C205	C	1.050208	-0.253886	-1.138263
C206	C	1.550208	0.246114	-0.638263
C207	C	1.059711	-0.244406	-1.069125
C208	C	1.559711	0.255594	-0.569125
H209	H	1.080780	-0.223329	-1.163438
H210	H	1.580780	0.276671	-0.663438
H211	H	1.058266	-0.301169	-1.148009
H212	H	1.558266	0.198831	-0.648009
H213	H	1.005134	-0.243576	-1.150231
H214	H	1.505134	0.256424	-0.650231
H215	H	1.104784	-0.254721	-1.057155
H216	H	1.604784	0.245279	-0.557155
H217	H	1.051658	-0.197112	-1.059374
H218	H	1.551658	0.302888	-0.559374
H219	H	0.883409	-0.420562	-1.052170
H220	H	1.383409	0.079438	-0.552170
H221	H	0.883394	-0.420599	-0.923934
H222	H	1.383394	0.079401	-0.423934
H223	H	1.054020	-1.070315	-0.402062
H224	H	1.554020	-0.570315	0.097938
H225	H	0.226514	-0.257323	-0.237806
H226	H	0.726514	0.242677	0.262194
C227	C	0.502826	-0.253981	-0.234725
C228	C	1.002826	0.246019	0.265275
C229	C	0.572702	-0.244458	-0.225966
C230	C	1.072702	0.255542	0.274034
H231	H	0.480025	-0.223396	-0.206586
H232	H	0.980025	0.276604	0.293414
H233	H	0.491665	-0.243745	-0.280612
H234	H	0.991665	0.256255	0.219388
H235	H	0.489400	-0.301262	-0.222906
H236	H	0.989400	0.198738	0.277094
H237	H	0.586129	-0.197179	-0.237790
H238	H	1.086129	0.302821	0.262210
H239	H	0.583869	-0.254690	-0.180070
H240	H	1.083869	0.245310	0.319930
H241	H	1.033122	-0.606900	-0.381243
H242	H	1.533122	-0.106900	0.118757
C243	C	0.817938	-1.063348	-0.247333
C244	C	1.317938	-0.563348	0.252667
C245	C	0.884302	-1.081053	-0.232098
C246	C	1.384302	-0.581053	0.267902
H247	H	0.787627	-1.088344	-0.216973
H248	H	1.287627	-0.588344	0.283027
H249	H	0.813618	-1.014326	-0.243017
H250	H	1.313618	-0.514326	0.256983
H251	H	0.807559	-1.075377	-0.292341
H252	H	1.307559	-0.575377	0.207659
H253	H	0.894682	-1.069018	-0.187092
H254	H	1.394682	-0.569018	0.312908
H255	H	0.888624	-1.130085	-0.236409
H256	H	1.388624	-0.630085	0.263591
C257	C	1.079768	-0.702868	-0.427896
C258	C	1.579768	-0.202868	0.072104
C259	C	1.039957	-0.750711	-0.388034
C260	C	1.539957	-0.250711	0.111966
H261	H	1.108190	-0.727765	-0.456323
H262	H	1.608190	-0.227765	0.043677
H263	H	1.051365	-0.674215	-0.454875
H264	H	1.551365	-0.174215	0.045125
H265	H	1.106758	-0.674186	-0.399521
H266	H	1.606758	-0.174186	0.100479
H267	H	1.012964	-0.779390	-0.416409
H268	H	1.512964	-0.279390	0.083591
H269	H	1.068364	-0.779376	-0.361053
H270	H	1.568364	-0.279376	0.138947
C271	C	0.864676	-0.823255	-0.212491
C272	C	1.364676	-0.323255	0.287509
C273	C	0.858302	-0.750987	-0.206133
C274	C	1.358302	-0.250987	0.293867
H275	H	0.834368	-0.848239	-0.182118
H276	H	1.334368	-0.348239	0.317882
H277	H	0.854280	-0.835281	-0.257488
H278	H	1.354280	-0.335281	0.242512
H279	H	0.909703	-0.835258	-0.202165
H280	H	1.409703	-0.335258	0.297835
H281	H	0.813276	-0.738983	-0.216464
H282	H	1.313276	-0.238983	0.283536
H283	H	0.868693	-0.738956	-0.161125
H284	H	1.368693	-0.238956	0.338875
C285	C	0.880047	-0.423949	-0.775854
C286	C	1.380047	0.076051	-0.275854
C287	C	0.870522	-0.433466	-0.705974
C288	C	1.370522	0.066534	-0.205974
H289	H	0.849482	-0.454493	-0.798642
H290	H	1.349482	0.045507	-0.298642
H291	H	0.871993	-0.376660	-0.789274
H292	H	1.371993	0.123340	-0.289274
H293	H	0.925125	-0.434254	-0.787039
H294	H	1.425125	0.065746	-0.287039
H295	H	0.825446	-0.423156	-0.694789
H296	H	1.325446	0.076844	-0.194789
H297	H	0.878571	-0.480766	-0.692549
H298	H	1.378571	0.019234	-0.192549
