data_functionalizedCrystal
_audit_creation_method	'MofGen! by Chris Wilmer'
_symmetry_space_group_name_H-M	'P1'
_symmetry_Int_Tables_number	1
_symmetry_cell_setting	triclinic
loop_
_symmetry_equiv_pos_as_xyz
  x,y,z
_cell_length_a	19.188933
_cell_length_b	16.974813
_cell_length_c	16.053802
_cell_angle_alpha	88.912550
_cell_angle_beta	87.428887
_cell_angle_gamma	83.270760
loop_
_atom_site_label
_atom_site_type_symbol
_atom_site_fract_x
_atom_site_fract_y
_atom_site_fract_z
O1	O	0.929536	0.095076	-0.075824
O2	O	1.262869	0.428409	0.257509
O3	O	1.596202	0.761743	0.590843
O4	O	0.726286	0.108320	-0.076726
O5	O	1.059619	0.441653	0.256607
O6	O	1.392953	0.774987	0.589940
O7	O	0.833249	-0.013052	-0.068518
O8	O	1.166582	0.320281	0.264815
O9	O	1.499915	0.653615	0.598149
O10	O	0.822573	0.216448	-0.084032
O11	O	1.155907	0.549781	0.249301
O12	O	1.489240	0.883115	0.582634
O13	O	0.827361	-0.006399	0.069891
O14	O	1.160694	0.326935	0.403224
O15	O	1.494028	0.660268	0.736558
O16	O	0.720398	0.114973	0.061683
O17	O	1.053732	0.448306	0.395016
O18	O	1.387065	0.781640	0.728349
O19	O	0.923648	0.101729	0.062585
O20	O	1.256982	0.435063	0.395918
O21	O	1.590315	0.768396	0.729252
Zn22	Zn	0.821089	0.109408	0.084109
Zn23	Zn	1.154422	0.442741	0.417443
Zn24	Zn	1.487755	0.776074	0.750776
Zn25	Zn	0.828846	0.100642	-0.098250
Zn26	Zn	1.162179	0.433975	0.235083
Zn27	Zn	1.495512	0.767308	0.568416
O28	O	0.816686	0.223101	0.054377
O29	O	1.150019	0.556434	0.387710
O30	O	1.483352	0.889768	0.721043
C31	C	0.697329	0.111217	-0.007494
C32	C	1.030663	0.444551	0.325840
C33	C	1.363996	0.777884	0.659173
C34	C	0.619819	0.109929	-0.007410
C35	C	0.953152	0.443262	0.325924
C36	C	1.286486	0.776596	0.659257
C37	C	0.829789	-0.039087	0.002670
C38	C	1.163123	0.294246	0.336003
C39	C	1.496456	0.627580	0.669336
C40	C	0.828245	-0.126575	0.008578
C41	C	1.161579	0.206758	0.341912
C42	C	1.494912	0.540092	0.675245
C43	C	0.069730	0.097108	-0.082226
C44	C	0.403064	0.430442	0.251108
C45	C	0.736397	0.763775	0.584441
C46	C	0.142560	0.098314	-0.082311
C47	C	0.475894	0.431647	0.251023
C48	C	0.809227	0.764981	0.584356
C49	C	0.175771	0.102547	-0.006905
C50	C	0.509104	0.435880	0.326428
C51	C	0.842437	0.769214	0.659762
C52	C	0.136147	0.105555	0.068592
C53	C	0.469481	0.438888	0.401925
C54	C	0.802814	0.772221	0.735259
C55	C	0.063320	0.104341	0.068675
C56	C	0.396653	0.437674	0.402009
C57	C	0.729986	0.771008	0.735342
N58	N	0.282618	0.152000	0.046093
N59	N	0.615951	0.485334	0.379426
N60	N	0.949284	0.818667	0.712759
N61	N	0.351801	0.153154	0.046008
N62	N	0.685134	0.486488	0.379342
N63	N	1.018467	0.819821	0.712675
C64	C	0.395196	0.106202	-0.007151
C65	C	0.728529	0.439535	0.326183
C66	C	1.061863	0.772869	0.659516
N67	N	0.366794	0.058061	-0.060236
N68	N	0.700127	0.391394	0.273097
N69	N	1.033461	0.724728	0.606431
N70	N	0.297604	0.056910	-0.060154
N71	N	0.630938	0.390243	0.273179
N72	N	0.964271	0.723577	0.606512
C73	C	0.254740	0.103863	-0.006987
C74	C	0.588073	0.437196	0.326347
C75	C	0.921406	0.770530	0.659680
C76	C	0.513782	0.104496	-0.082735
C77	C	0.847115	0.437830	0.250599
C78	C	1.180448	0.771163	0.583932
C79	C	0.586614	0.105697	-0.082816
C80	C	0.919947	0.439030	0.250517
C81	C	1.253280	0.772364	0.583851
C82	C	0.580198	0.112946	0.068088
C83	C	0.913531	0.446279	0.401422
C84	C	1.246865	0.779613	0.734755
C85	C	0.507369	0.111737	0.068168
C86	C	0.840702	0.445070	0.401501
C87	C	1.174035	0.778404	0.734835
C88	C	0.474165	0.107516	-0.007246
C89	C	0.807498	0.440849	0.326087
C90	C	1.140831	0.774183	0.659421
C91	C	0.830731	-0.171299	-0.064092
C92	C	1.164064	0.162034	0.269242
C93	C	1.497397	0.495367	0.602575
C94	C	0.829275	-0.253503	-0.058537
C95	C	1.162608	0.079830	0.274796
C96	C	1.495942	0.413164	0.608129
C97	C	0.825339	-0.290982	0.019688
C98	C	1.158672	0.042352	0.353022
C99	C	1.492006	0.375685	0.686355
C100	C	0.822851	-0.246251	0.092364
C101	C	1.156185	0.087082	0.425697
C102	C	1.489518	0.420416	0.759031
C103	C	0.824302	-0.164048	0.086809
C104	C	1.157635	0.169285	0.420142
C105	C	1.490969	0.502618	0.753475
C106	C	0.820652	-0.536442	0.044393
C107	C	1.153985	-0.203109	0.377727
C108	C	1.487319	0.130224	0.711060
C109	C	0.819204	-0.618652	0.049943
C110	C	1.152537	-0.285318	0.383277
C111	C	1.485871	0.048015	0.716610
C112	C	0.825626	-0.625898	-0.100959
C113	C	1.158960	-0.292565	0.232375
C114	C	1.492293	0.040769	0.565708
C115	C	0.827081	-0.543694	-0.106507
C116	C	1.160414	-0.210360	0.226826
C117	C	1.493747	0.122973	0.560160
C118	C	0.824589	-0.498970	-0.033831
C119	C	1.157923	-0.165636	0.299502
C120	C	1.491256	0.167697	0.632835
N121	N	0.823854	-0.375007	0.025368
N122	N	1.157187	-0.041674	0.358701
N123	N	1.490520	0.291659	0.692034
N124	N	0.826070	-0.414945	-0.039512
N125	N	1.159403	-0.081612	0.293822
N126	N	1.492737	0.251722	0.627155
C127	C	0.952605	0.098832	-0.006649
C128	C	1.285938	0.432165	0.326684
C129	C	1.619272	0.765498	0.660017
C130	C	1.030115	0.100120	-0.006739
C131	C	1.363449	0.433453	0.326594
C132	C	1.696782	0.766787	0.659928
C133	C	0.820145	0.249136	-0.016813
C134	C	1.153478	0.582469	0.316521
C135	C	1.486812	0.915803	0.649854
C136	C	0.821689	0.336624	-0.022727
C137	C	1.155023	0.669957	0.310606
C138	C	1.488356	1.003291	0.643940
N139	N	0.815800	0.115390	0.208565
N140	N	1.149133	0.448723	0.541898
N141	N	1.482466	0.782056	0.875232
N142	N	0.834140	0.094653	-0.222706
N143	N	1.167473	0.427987	0.110628
N144	N	1.500807	0.761320	0.443961
C145	C	0.861329	0.063764	0.255750
C146	C	1.194662	0.397097	0.589084
C147	C	1.527996	0.730431	0.922417
C148	C	0.857636	0.067956	0.342874
C149	C	1.190969	0.401289	0.676207
C150	C	1.524303	0.734622	1.009540
C151	C	0.808416	0.123778	0.382810
C152	C	1.141749	0.457111	0.716143
C153	C	1.475083	0.790444	1.049476
C154	C	0.762882	0.175406	0.335618
C155	C	1.096215	0.508739	0.668951
C156	C	1.429549	0.842072	1.002285
C157	C	0.766572	0.171209	0.248497
C158	C	1.099906	0.504543	0.581830
C159	C	1.433239	0.837876	0.915163
C160	C	0.792296	0.142085	0.642981
C161	C	1.125630	0.475418	0.976314
C162	C	1.458963	0.808752	1.309648
C163	C	0.788611	0.146279	0.730109
C164	C	1.121944	0.479612	1.063442
C165	C	1.455277	0.812946	1.396775
C166	C	0.883364	0.038828	0.737359
C167	C	1.216698	0.372161	1.070692
C168	C	1.550031	0.705494	1.404025
C169	C	0.887053	0.034640	0.650235
C170	C	1.220386	0.367973	0.983568
C171	C	1.553720	0.701306	1.316902
C172	C	0.841516	0.086265	0.603051
C173	C	1.174850	0.419598	0.936384
C174	C	1.508183	0.752931	1.269718
N175	N	0.804641	0.128066	0.471863
N176	N	1.137975	0.461399	0.805197
N177	N	1.471308	0.794732	1.138530
N178	N	0.845288	0.081973	0.513999
N179	N	1.178622	0.415306	0.847333
N180	N	1.511955	0.748639	1.180666
H181	H	0.042700	0.093668	-0.143634
H182	H	0.376034	0.427001	0.189700
H183	H	0.709367	0.760335	0.523033
Br184	Br	0.196335	0.094226	-0.184764
Br185	Br	0.529668	0.427560	0.148569
Br186	Br	0.863001	0.760893	0.481902
H187	H	0.920437	-0.003204	0.775784
H188	H	1.253771	0.330129	1.109117
H189	H	1.587104	0.663463	1.442450
Br190	Br	0.953854	-0.041116	0.596034
Br191	Br	1.287187	0.292217	0.929368
Br192	Br	1.620521	0.625551	1.262701
Br193	Br	0.832647	-0.314198	-0.157166
Br194	Br	1.165981	0.019136	0.176167
Br195	Br	1.499314	0.352469	0.509501
H196	H	0.031065	0.106797	0.130147
H197	H	0.364398	0.440130	0.463481
H198	H	0.697732	0.773463	0.796814
H199	H	0.748528	0.191739	0.762620
H200	H	1.081861	0.525073	1.095953
H201	H	1.415195	0.858406	1.429287
H202	H	0.163192	0.109000	0.129988
H203	H	0.496525	0.442333	0.463321
H204	H	0.829859	0.775667	0.796654
H205	H	0.486746	0.101057	-0.144141
H206	H	0.820079	0.434390	0.189192
H207	H	1.153412	0.767723	0.522526
Br208	Br	0.928136	-0.011993	0.201561
Br209	Br	1.261469	0.321341	0.534894
Br210	Br	1.594802	0.654674	0.868227
Br211	Br	0.832427	-0.492836	-0.212674
Br212	Br	1.165761	-0.159503	0.120659
Br213	Br	1.499094	0.173830	0.453993
Br214	Br	0.829008	-0.686598	-0.199584
Br215	Br	1.162341	-0.353265	0.133749
Br216	Br	1.495675	-0.019932	0.467083
H217	H	0.618868	0.103239	-0.144289
H218	H	0.952201	0.436572	0.189045
H219	H	1.285534	0.769905	0.522378
H220	H	0.722803	0.220855	0.368139
H221	H	1.056136	0.554188	0.701472
H222	H	1.389469	0.887521	1.034806
Br223	Br	0.813869	-0.669516	0.156114
Br224	Br	1.147203	-0.336183	0.489447
Br225	Br	1.480536	-0.002850	0.822780
Br226	Br	0.625263	0.118674	0.170428
Br227	Br	0.958597	0.452007	0.503761
Br228	Br	1.291930	0.785341	0.837094
H229	H	0.729497	0.213247	0.210079
H230	H	1.062830	0.546581	0.543412
H231	H	1.396163	0.879914	0.876745
Br232	Br	0.817256	-0.475754	0.143025
Br233	Br	1.150590	-0.142420	0.476358
Br234	Br	1.483923	0.190913	0.809692
Br235	Br	0.817498	-0.297112	0.198529
Br236	Br	1.150832	0.036221	0.531862
Br237	Br	1.484165	0.369555	0.865195
H238	H	0.475113	0.114192	0.129638
H239	H	0.808447	0.447526	0.462971
H240	H	1.141780	0.780859	0.796304
H241	H	0.833939	-0.140791	-0.127791
H242	H	1.167273	0.192542	0.205542
H243	H	1.500606	0.525875	0.538875
Br244	Br	0.730500	0.212147	0.578951
Br245	Br	1.063833	0.545480	0.912284
Br246	Br	1.397167	0.878814	1.245617
Br247	Br	0.820925	-0.103349	0.185436
Br248	Br	1.154258	0.229984	0.518770
Br249	Br	1.487592	0.563318	0.852103
Br250	Br	0.919424	-0.002111	0.406914
Br251	Br	1.252757	0.331222	0.740248
Br252	Br	1.586091	0.664556	1.073581
