data_functionalizedCrystal
_audit_creation_method	'MofGen! by Chris Wilmer'
_symmetry_space_group_name_H-M	'P1'
_symmetry_Int_Tables_number	1
_symmetry_cell_setting	triclinic
loop_
_symmetry_equiv_pos_as_xyz
  x,y,z
_cell_length_a	19.288840
_cell_length_b	17.038272
_cell_length_c	17.766277
_cell_angle_alpha	89.993732
_cell_angle_beta	89.983415
_cell_angle_gamma	87.118786
loop_
_atom_site_label
_atom_site_type_symbol
_atom_site_fract_x
_atom_site_fract_y
_atom_site_fract_z
O1	O	0.927392	0.097420	-0.062722
O2	O	0.725944	0.110595	-0.062696
O3	O	0.825470	-0.009804	-0.062703
O4	O	0.827865	0.217819	-0.062715
O5	O	0.825451	-0.009810	0.062486
O6	O	0.725925	0.110589	0.062493
O7	O	0.927373	0.097414	0.062467
Cu8	Cu	0.826647	0.104001	0.073911
Cu9	Cu	0.826669	0.104008	-0.074139
O10	O	0.827846	0.217813	0.062474
C11	C	0.700031	0.110171	-0.000098
C12	C	0.622849	0.108909	-0.000088
C13	C	0.586618	0.108305	-0.068330
C14	C	0.514097	0.107110	-0.068339
C15	C	0.477811	0.106502	-0.000102
C16	C	0.514050	0.107110	0.068149
C17	C	0.586569	0.108313	0.068156
C18	C	0.365524	0.058808	0.052169
C19	C	0.293007	0.057601	0.052159
C20	C	0.254138	0.102795	-0.000122
C21	C	0.287795	0.149188	-0.052405
C22	C	0.360314	0.150391	-0.052398
C23	C	0.399176	0.105198	-0.000103
C24	C	0.139272	0.100897	-0.068379
C25	C	0.066749	0.099707	-0.068385
C26	C	0.066704	0.099699	0.068105
C27	C	0.139224	0.100897	0.068109
C28	C	0.175504	0.101493	-0.000135
C29	C	0.823283	-0.038928	-0.000108
C30	C	0.816785	-0.125699	-0.000107
C31	C	0.876442	-0.176012	-0.000114
C32	C	0.870332	-0.257542	-0.000121
C33	C	0.804566	-0.288758	-0.000115
C34	C	0.744905	-0.238439	-0.000110
C35	C	0.751015	-0.156910	-0.000109
C36	C	0.782980	-0.534444	-0.000122
C37	C	0.776875	-0.615979	-0.000121
C38	C	0.902303	-0.635077	-0.000133
C39	C	0.908407	-0.553546	-0.000127
C40	C	0.848746	-0.503234	-0.000127
C41	C	0.798320	-0.372095	-0.000119
C42	C	0.854993	-0.419899	-0.000128
C43	C	0.953285	0.097838	-0.000132
C44	C	1.030468	0.099101	-0.000147
C45	C	0.830033	0.246937	-0.000122
C46	C	0.836531	0.333708	-0.000128
N47	N	0.826636	0.103995	0.178041
N48	N	0.826685	0.104007	-0.178270
C49	C	0.870723	0.050709	0.217425
C50	C	0.870727	0.050705	0.296227
C51	C	0.826651	0.104002	0.335641
C52	C	0.782555	0.157292	0.296248
C53	C	0.782548	0.157289	0.217448
C54	C	0.821759	0.175226	0.460476
C55	C	0.821771	0.175230	0.539275
C56	C	0.826670	0.104011	0.578688
C57	C	0.831571	0.032785	0.539292
C58	C	0.831564	0.032782	0.460492
C59	C	0.826654	0.104011	0.421087
C60	C	0.870764	0.050716	0.703518
C61	C	0.870763	0.050711	0.782321
C62	C	0.782595	0.157305	0.782341
C63	C	0.782592	0.157303	0.703539
C64	C	0.826680	0.104009	0.664132
H65	H	0.037251	0.099220	-0.123958
H66	H	0.906662	0.007315	0.814388
N67	N	0.735048	0.214785	0.824841
H68	H	0.741740	0.206700	0.880738
H69	H	0.746342	0.270216	0.811056
H70	H	0.746695	0.200697	0.671471
H71	H	0.265609	0.019821	0.094727
H72	H	0.484592	0.106620	-0.123912
H73	H	0.616067	0.108805	0.123729
N74	N	0.178403	0.101549	-0.141983
H75	H	0.205720	0.150492	-0.145023
H76	H	0.211226	0.053566	-0.144977
N77	N	0.686678	-0.102632	-0.000099
H78	H	0.658203	-0.112636	-0.046502
H79	H	0.658243	-0.112671	0.046343
N80	N	0.727385	-0.405761	-0.000106
H81	H	0.722063	-0.439156	-0.046513
H82	H	0.722098	-0.439130	0.046332
N83	N	0.816481	0.252047	0.581764
H84	H	0.813365	0.297163	0.544841
H85	H	0.773600	0.253799	0.614474
H86	H	0.387715	0.188167	-0.094967
H87	H	0.906629	0.007311	0.328299
H88	H	0.817758	0.233224	0.428393
N89	N	0.407444	0.010063	0.108563
H90	H	0.375121	-0.019513	0.141677
H91	H	0.439783	-0.028544	0.081012
N92	N	0.474777	0.106073	0.141644
H93	H	0.441770	0.153888	0.144817
H94	H	0.447642	0.056971	0.144266
H95	H	0.929996	-0.150603	-0.000115
H96	H	0.906621	0.007312	0.185342
N97	N	0.934676	-0.311809	-0.000124
H98	H	0.977265	-0.279662	-0.000121
H99	H	0.934859	-0.346056	0.046285
N100	N	0.735011	0.214773	0.338754
H101	H	0.741707	0.206691	0.394651
H102	H	0.746303	0.270204	0.324966
H103	H	0.961961	-0.528136	-0.000132
H104	H	0.037160	0.099209	0.123665
H105	H	0.950875	-0.676049	-0.000135
H106	H	0.723317	-0.641391	-0.000104
N107	N	0.718634	-0.480186	-0.000117
H108	H	0.690163	-0.490201	-0.046520
H109	H	0.690202	-0.490232	0.046325
N110	N	0.836864	-0.044040	0.581783
H111	H	0.794418	-0.048567	0.614494
H112	H	0.839993	-0.089106	0.544814
N113	N	0.836847	-0.044033	0.417999
H114	H	0.839953	-0.089153	0.454918
H115	H	0.794387	-0.048471	0.385323
H116	H	0.256149	0.185993	-0.094974
N117	N	0.925924	-0.386232	-0.000126
H118	H	0.962794	-0.430473	-0.000127
H119	H	0.931200	-0.352814	-0.046534
N120	N	0.673970	-0.272103	-0.000109
H121	H	0.679150	-0.331385	-0.000108
H122	H	0.647645	-0.253685	0.046303
N123	N	0.734992	0.214762	0.174964
H124	H	0.707067	0.248524	0.211887
H125	H	0.763614	0.249242	0.142253
N126	N	0.918311	-0.006763	0.661007
H127	H	0.946238	-0.040526	0.697918
H128	H	0.889683	-0.041241	0.628326
N129	N	0.625741	0.108948	-0.141938
H130	H	0.610352	0.157184	-0.171777
H131	H	0.677170	0.109770	-0.131524
N132	N	0.178307	0.101547	0.141714
H133	H	0.144318	0.100982	0.184942
H134	H	0.211172	0.053600	0.144694
