data_functionalizedCrystal
_audit_creation_method	'MofGen! by Chris Wilmer'
_symmetry_space_group_name_H-M	'P1'
_symmetry_Int_Tables_number	1
_symmetry_cell_setting	triclinic
loop_
_symmetry_equiv_pos_as_xyz
  x,y,z
_cell_length_a	14.908571
_cell_length_b	16.625546
_cell_length_c	14.908308
_cell_angle_alpha	93.264070
_cell_angle_beta	90.175053
_cell_angle_gamma	86.718495
loop_
_atom_site_label
_atom_site_type_symbol
_atom_site_fract_x
_atom_site_fract_y
_atom_site_fract_z
Zn1	Zn	1.345280	-0.420778	-0.587557
Zn2	Zn	1.845280	0.079222	-0.087557
Zn3	Zn	1.353856	-0.548312	-0.437189
Zn4	Zn	1.853856	-0.048312	0.062811
Zn5	Zn	1.203596	-0.405291	-0.428555
Zn6	Zn	1.703596	0.094709	0.071445
Zn7	Zn	1.194884	-0.547354	-0.578841
Zn8	Zn	1.694884	-0.047354	-0.078841
O9	O	1.274404	-0.480434	-0.508036
O10	O	1.774404	0.019566	-0.008036
O11	O	1.472243	-0.444578	-0.574871
O12	O	1.972243	0.055422	-0.074871
O13	O	1.341159	-0.523260	-0.310220
O14	O	1.841159	-0.023260	0.189780
O15	O	1.222448	-0.294517	-0.449681
O16	O	1.722448	0.205483	0.050319
O17	O	1.478544	-0.538277	-0.464397
O18	O	1.978544	-0.038277	0.035603
O19	O	1.326543	-0.305896	-0.566499
O20	O	1.826543	0.194104	-0.066499
O21	O	1.230763	-0.418182	-0.303876
O22	O	1.730763	0.081818	0.196124
O23	O	1.076615	-0.417254	-0.441230
O24	O	1.576615	0.082746	0.058770
O25	O	1.207599	-0.536644	-0.705821
O26	O	1.707599	-0.036644	-0.205821
O27	O	1.070214	-0.521627	-0.551644
O28	O	1.570214	-0.021627	-0.051644
O29	O	1.318095	-0.443649	-0.712225
O30	O	1.818095	0.056351	-0.212225
O31	O	1.332711	-0.661013	-0.455945
O32	O	1.832711	-0.161013	0.044055
O33	O	1.215914	-0.660309	-0.560016
O34	O	1.715914	-0.160309	-0.060016
C35	C	1.040789	-0.467656	-0.494555
C36	C	1.540789	0.032344	0.005445
C37	C	0.940846	-0.462211	-0.488810
C38	C	1.440846	0.037789	0.011190
C39	C	0.746435	-0.560814	-0.592833
C40	C	1.246435	-0.060814	-0.092833
C41	C	0.652530	-0.555700	-0.587437
C42	C	1.152530	-0.055700	-0.087437
C43	C	0.659128	-0.446865	-0.472629
C44	C	1.159128	0.053135	0.027371
C45	C	0.753033	-0.451979	-0.478024
C46	C	1.253033	0.048021	0.021976
C47	C	0.796683	-0.508956	-0.538127
C48	C	1.296683	-0.008956	-0.038127
C49	C	0.890591	-0.514074	-0.543517
C50	C	1.390591	-0.014074	-0.043517
C51	C	0.897187	-0.405236	-0.428714
C52	C	1.397187	0.094764	0.071286
C53	C	0.803282	-0.400121	-0.423318
C54	C	1.303282	0.099879	0.076682
C55	C	1.274321	-0.689918	-0.507993
C56	C	1.774321	-0.189918	-0.007993
C57	C	1.274366	-0.779542	-0.508010
C58	C	1.774366	-0.279542	-0.008010
C59	C	1.274517	-1.107731	-0.508112
C60	C	1.774517	-0.607731	-0.008112
C61	C	1.274472	-1.016419	-0.508086
C62	C	1.774472	-0.516419	-0.008086
C63	C	1.274441	-0.943640	-0.508060
C64	C	1.774441	-0.443640	-0.008060
C65	C	1.274397	-0.852322	-0.508035
C66	C	1.774397	-0.352322	-0.008035
C67	C	1.508931	-0.493262	-0.521569
C68	C	2.008931	0.006738	-0.021569
C69	C	1.608873	-0.498728	-0.527336
C70	C	2.108873	0.001272	-0.027336
C71	C	1.260918	-0.491767	-0.742560
C72	C	1.760918	0.008233	-0.242560
C73	C	1.255172	-0.496597	-0.842501
C74	C	1.755172	0.003403	-0.342501
C75	C	1.274511	-0.270134	-0.508099
C76	C	1.774511	0.229866	-0.008099
C77	C	1.274556	-0.180516	-0.508127
C78	C	1.774556	0.319484	-0.008127
C79	C	1.359429	-0.408817	-1.036969
C80	C	1.859429	0.091183	-0.536969
C81	C	1.354033	-0.413353	-1.130872
C82	C	1.854033	0.086647	-0.630872
C83	C	1.238977	-0.510198	-1.124211
C84	C	1.738977	-0.010198	-0.624211
C85	C	1.244374	-0.505662	-1.030308
C86	C	1.744374	-0.005662	-0.530308
C87	C	1.304603	-0.454971	-0.986690
C88	C	1.804603	0.045029	-0.486690
C89	C	1.310004	-0.450441	-0.892786
C90	C	1.810004	0.049559	-0.392786
C91	C	1.194945	-0.547281	-0.886127
C92	C	1.694945	-0.047281	-0.386127
C93	C	1.189548	-0.551817	-0.980030
C94	C	1.689548	-0.051817	-0.480030
C95	C	1.287889	-0.469089	-0.274426
C96	C	1.787889	0.030911	0.225574
C97	C	1.293810	-0.464042	-0.174497
C98	C	1.793810	0.035958	0.325503
H99	H	0.767729	-0.353730	-0.374387
H100	H	1.267729	0.146270	0.125613
C101	C	1.425675	-0.353060	-0.988986
C102	C	1.925675	0.146940	-0.488986
H103	H	1.457552	-0.326218	-1.032380
H104	H	1.957552	0.173782	-0.532380
H105	H	1.466942	-0.384272	-0.954602
H106	H	1.966942	0.115728	-0.454602
H107	H	1.393391	-0.314277	-0.950384
H108	H	1.893391	0.185723	-0.450384
C109	C	0.952462	-0.348188	-0.368538
C110	C	1.452462	0.151812	0.131462
H111	H	1.014641	-0.359389	-0.380361
H112	H	1.514641	0.140611	0.119639
H113	H	0.940528	-0.356145	-0.307217
H114	H	1.440528	0.143855	0.192783
H115	H	0.936327	-0.293831	-0.380926
H116	H	1.436327	0.206169	0.119074
C117	C	1.414346	-0.362587	-1.186175
C118	C	1.914346	0.137413	-0.686175
H119	H	1.450991	-0.331755	-1.146746
H120	H	1.950991	0.168245	-0.646746
H121	H	1.377864	-0.327347	-1.220835
H122	H	1.877864	0.172653	-0.720835
H123	H	1.451408	-0.397347	-1.225055
H124	H	1.951408	0.102653	-0.725055
H125	H	1.359047	-0.409167	-0.857274
H126	H	1.859047	0.090833	-0.357274
H127	H	0.623571	-0.400472	-0.423701
H128	H	1.123571	0.099528	0.076299
C129	C	1.172725	-0.565943	-1.172201
C130	C	1.672725	-0.065943	-0.672201
H131	H	1.177366	-0.562031	-1.235327
H132	H	1.677366	-0.062031	-0.735327
H133	H	1.113203	-0.550096	-1.153327
H134	H	1.613203	-0.050096	-0.653327
H135	H	1.186743	-0.620099	-1.157567
H136	H	1.686743	-0.120099	-0.657567
H137	H	1.140510	-0.593086	-1.015557
H138	H	1.640510	-0.093086	-0.515557
H139	H	0.926129	-0.560469	-0.592455
H140	H	1.426129	-0.060469	-0.092455
C141	C	0.597255	-0.612742	-0.647610
C142	C	1.097255	-0.112742	-0.147610
H143	H	0.535076	-0.601534	-0.635795
H144	H	1.035076	-0.101534	-0.135795
H145	H	0.613391	-0.667097	-0.635233
H146	H	1.113391	-0.167097	-0.135233
H147	H	0.609188	-0.604775	-0.708934
H148	H	1.109188	-0.104775	-0.208934
C149	C	0.794453	-0.623487	-0.658938
C150	C	1.294453	-0.123487	-0.158938
H151	H	0.751076	-0.653638	-0.690749
H152	H	1.251076	-0.153638	-0.190749
H153	H	0.833052	-0.658898	-0.626576
H154	H	1.333052	-0.158898	-0.126576
H155	H	0.828844	-0.596584	-0.700286
H156	H	1.328844	-0.096584	-0.200286
C157	C	1.134632	-0.598052	-0.830819
C158	C	1.634632	-0.098052	-0.330819
H159	H	1.146468	-0.588090	-0.768646
H160	H	1.646468	-0.088090	-0.268646
H161	H	1.146882	-0.653687	-0.846956
H162	H	1.646882	-0.153687	-0.346956
H163	H	1.073335	-0.583689	-0.842724
H164	H	1.573335	-0.083689	-0.342724
