data_functionalizedCrystal
_audit_creation_method	'MofGen! by Chris Wilmer'
_symmetry_space_group_name_H-M	'P1'
_symmetry_Int_Tables_number	1
_symmetry_cell_setting	triclinic
loop_
_symmetry_equiv_pos_as_xyz
  x,y,z
_cell_length_a	13.897449
_cell_length_b	17.077404
_cell_length_c	17.077396
_cell_angle_alpha	90.019501
_cell_angle_beta	89.980317
_cell_angle_gamma	89.995339
loop_
_atom_site_label
_atom_site_type_symbol
_atom_site_fract_x
_atom_site_fract_y
_atom_site_fract_z
Zn1	Zn	0.384009	1.200155	0.443891
Zn2	Zn	0.717342	1.533489	0.777224
Zn3	Zn	1.050676	1.866822	1.110557
Zn4	Zn	0.545322	1.200105	0.312645
Zn5	Zn	0.878655	1.533438	0.645978
Zn6	Zn	1.211988	1.866771	0.979312
Zn7	Zn	0.384043	1.068887	0.312639
Zn8	Zn	0.717376	1.402220	0.645972
Zn9	Zn	1.050710	1.735554	0.979305
Zn10	Zn	0.545264	1.068897	0.443868
Zn11	Zn	0.878598	1.402231	0.777202
Zn12	Zn	1.211931	1.735564	1.110535
O13	O	0.464659	1.134511	0.378261
O14	O	0.797993	1.467844	0.711594
O15	O	1.131326	1.801178	1.044927
O16	O	0.405417	1.309995	0.426493
O17	O	0.738751	1.643329	0.759826
O18	O	1.072084	1.976662	1.093159
O19	O	0.523966	1.182673	0.202797
O20	O	0.857299	1.516006	0.536130
O21	O	1.190632	1.849340	0.869464
O22	O	0.249057	1.086317	0.330056
O23	O	0.582390	1.419650	0.663390
O24	O	0.915723	1.752984	0.996723
O25	O	0.523933	1.309958	0.330067
O26	O	0.857266	1.643292	0.663400
O27	O	1.190600	1.976625	0.996734
O28	O	0.249032	1.182759	0.426487
O29	O	0.582365	1.516093	0.759820
O30	O	0.915699	1.849426	1.093153
O31	O	0.405475	1.086268	0.202793
O32	O	0.738808	1.419601	0.536126
O33	O	1.072142	1.752935	0.869459
O34	O	0.405419	0.959042	0.330035
O35	O	0.738753	1.292375	0.663368
O36	O	1.072086	1.625708	0.996701
O37	O	0.523835	1.086334	0.553718
O38	O	0.857169	1.419668	0.887052
O39	O	1.190502	1.753001	1.220385
O40	O	0.523868	0.959049	0.426449
O41	O	0.857202	1.292382	0.759782
O42	O	1.190535	1.625716	1.093115
O43	O	0.405362	1.182769	0.553735
O44	O	0.738695	1.516102	0.887068
O45	O	1.072028	1.849436	1.220401
O46	O	0.680296	1.182683	0.330045
O47	O	1.013629	1.516016	0.663379
O48	O	1.346962	1.849349	0.996712
O49	O	0.680254	1.086285	0.426455
O50	O	1.013587	1.419619	0.759788
O51	O	1.346920	1.752952	1.093121
C52	C	0.464642	0.930563	0.378239
C53	C	0.797975	1.263897	0.711572
C54	C	1.131309	1.597230	1.044906
C55	C	0.464658	0.843313	0.378248
C56	C	0.797991	1.176647	0.711582
C57	C	1.131324	1.509980	1.044915
C58	C	0.213067	1.134543	0.378273
C59	C	0.546400	1.467876	0.711607
C60	C	0.879733	1.801209	1.044940
C61	C	0.105853	1.134556	0.378279
C62	C	0.439186	1.467889	0.711612
C63	C	0.772519	1.801223	1.044945
C64	C	0.526427	0.802348	0.428371
C65	C	0.859760	1.135681	0.761704
C66	C	1.193094	1.469014	1.095037
C67	C	0.526429	0.720367	0.428383
C68	C	0.859762	1.053701	0.761717
C69	C	1.193096	1.387034	1.095050
C70	C	0.464666	0.679354	0.378269
C71	C	0.797999	1.012687	0.711602
C72	C	1.131333	1.346021	1.044936
C73	C	0.402890	0.720325	0.328144
C74	C	0.736223	1.053659	0.661478
C75	C	1.069557	1.386992	0.994811
C76	C	0.402884	0.802304	0.328136
C77	C	0.736217	1.135638	0.661470
C78	C	1.069550	1.468971	0.994803
C79	C	0.402909	0.549455	0.328163
C80	C	0.736242	0.882789	0.661497
C81	C	1.069576	1.216122	0.994830
C82	C	0.402916	0.467471	0.328170
C83	C	0.736250	0.800804	0.661503
C84	C	1.069583	1.134137	0.994837
C85	C	0.526454	0.467518	0.428410
C86	C	0.859788	0.800852	0.761743
C87	C	1.193121	1.134185	1.095077
C88	C	0.526448	0.549497	0.428402
C89	C	0.859781	0.882831	0.761735
C90	C	1.193115	1.216164	1.095069
C91	C	0.464673	0.590463	0.378276
C92	C	0.798006	0.923796	0.711610
C93	C	1.131340	1.257130	1.044943
C94	C	0.018783	1.134565	0.378286
C95	C	0.352116	1.467899	0.711619
C96	C	0.685449	1.801232	1.044952
C97	C	-0.090450	1.134569	0.378292
C98	C	0.242884	1.467903	0.711626
C99	C	0.576217	1.801236	1.044959
C100	C	0.715274	1.134501	0.378265
C101	C	1.048607	1.467834	0.711599
C102	C	1.381940	1.801168	1.044932
C103	C	0.822488	1.134568	0.378294
C104	C	1.155821	1.467902	0.711627
C105	C	1.489154	1.801235	1.044960
C106	C	0.464588	1.134559	0.583005
C107	C	0.797922	1.467892	0.916338
C108	C	1.131255	1.801225	1.249672
C109	C	0.464558	1.134579	0.670255
C110	C	0.797891	1.467912	1.003588
C111	C	1.131225	1.801245	1.336922
C112	C	0.464678	1.339255	0.378283
C113	C	0.798011	1.672589	0.711616
C114	C	1.131344	2.005922	1.044950
C115	C	0.464685	1.426505	0.378292
C116	C	0.798019	1.759838	0.711626
C117	C	1.131352	2.093172	1.044959
C118	C	0.464661	1.134509	0.174313
C119	C	0.797994	1.467842	0.507646
C120	C	1.131327	1.801176	0.840980
C121	C	0.464419	1.134641	0.087063
C122	C	0.797753	1.467974	0.420397
C123	C	1.131086	1.801307	0.753730
C124	C	0.402864	1.184794	0.711255
C125	C	0.736197	1.518127	1.044588
C126	C	1.069530	1.851461	1.377922
C127	C	0.402832	1.184804	0.793235
C128	C	0.736165	1.518137	1.126569
C129	C	1.069498	1.851470	1.459902
C130	C	0.464499	1.134601	0.834214
C131	C	0.797833	1.467934	1.167548
C132	C	1.131166	1.801268	1.500881
C133	C	0.526197	1.084380	0.793209
C134	C	0.859530	1.417714	1.126542
C135	C	1.192863	1.751047	1.459875
C136	C	0.526223	1.084367	0.711230
C137	C	0.859556	1.417701	1.044563
C138	C	1.192890	1.751034	1.377896
C139	C	0.526139	1.084412	0.964079
C140	C	0.859472	1.417745	1.297412
C141	C	1.192805	1.751078	1.630746
C142	C	0.526114	1.084425	1.046064
C143	C	0.859447	1.417759	1.379397
C144	C	1.192780	1.751092	1.712730
C145	C	0.402747	1.184848	1.046084
C146	C	0.736080	1.518181	1.379418
C147	C	1.069414	1.851515	1.712751
C148	C	0.402774	1.184835	0.964105
C149	C	0.736107	1.518168	1.297439
C150	C	1.069440	1.851502	1.630772
C151	C	0.464472	1.134615	0.923105
C152	C	0.797806	1.467948	1.256439
C153	C	1.131139	1.801282	1.589772
H154	H	0.576729	0.687017	0.469197
H155	H	0.910062	1.020350	0.802530
H156	H	1.243395	1.353683	1.135864
H157	H	0.576365	1.043505	0.930699
H158	H	0.909698	1.376838	1.264032
H159	H	1.243032	1.710172	1.597366
H160	H	0.576451	1.043469	0.677849
H161	H	0.909785	1.376802	1.011182
H162	H	1.243118	1.710136	1.344515
H163	H	0.352612	0.434080	0.287372
H164	H	0.685945	0.767413	0.620705
H165	H	1.019278	1.100747	0.954039
O166	O	0.336199	1.239013	1.090305
O167	O	0.669533	1.572346	1.423638
O168	O	1.002866	1.905679	1.756972
H169	H	0.293333	1.273927	1.048037
H170	H	0.626666	1.607260	1.381370
H171	H	0.959999	1.940594	1.714704
O172	O	0.593058	0.593738	0.482455
O173	O	0.926391	0.927072	0.815788
O174	O	1.259725	1.260405	1.149121
H175	H	0.636008	0.551481	0.517318
H176	H	0.969341	0.884815	0.850652
H177	H	1.302674	1.218148	1.183985
O178	O	0.336289	0.593639	0.274091
O179	O	0.669622	0.926973	0.607424
O180	O	1.002956	1.260306	0.940757
H181	H	0.260604	0.577909	0.287643
H182	H	0.593938	0.911242	0.620977
H183	H	0.927271	1.244576	0.954310
O184	O	0.592703	1.030227	0.837407
O185	O	0.926036	1.363560	1.170741
O186	O	1.259369	1.696894	1.504074
H187	H	0.668415	1.043669	0.821667
H188	H	1.001748	1.377002	1.155000
H189	H	1.335082	1.710335	1.488334
O190	O	0.593039	0.846583	0.482426
O191	O	0.926373	1.179916	0.815759
O192	O	1.259706	1.513250	1.149093
H193	H	0.635983	0.804321	0.517287
H194	H	0.969317	1.137654	0.850621
H195	H	1.302650	1.470987	1.183954
H196	H	0.576751	0.434160	0.469227
H197	H	0.910084	0.767493	0.802560
H198	H	1.243418	1.100827	1.135893
H199	H	0.352597	0.686926	0.287344
H200	H	0.685931	1.020259	0.620677
H201	H	1.019264	1.353593	0.954011
H202	H	0.352650	1.225677	0.677896
H203	H	0.685983	1.559011	1.011229
H204	H	1.019316	1.892344	1.344562
H205	H	0.352580	0.835658	0.287326
H206	H	0.685913	1.168991	0.620659
H207	H	1.019246	1.502324	0.953993
O208	O	0.336296	1.238969	0.837460
O209	O	0.669630	1.572302	1.170793
O210	O	1.002963	1.905635	1.504127
H211	H	0.293430	1.273883	0.795192
H212	H	0.626763	1.607217	1.128525
H213	H	0.960097	1.940550	1.461859
H214	H	0.352564	1.225719	0.930743
H215	H	0.685897	1.559052	1.264076
H216	H	1.019230	1.892386	1.597409
H217	H	0.576327	1.043544	1.079426
H218	H	0.909660	1.376878	1.412760
H219	H	1.242993	1.710211	1.746093
