data_functionalizedCrystal
_audit_creation_method	'MofGen! by Chris Wilmer'
_symmetry_space_group_name_H-M	'P1'
_symmetry_Int_Tables_number	1
_symmetry_cell_setting	triclinic
loop_
_symmetry_equiv_pos_as_xyz
  x,y,z
_cell_length_a	15.944545
_cell_length_b	15.944499
_cell_length_c	12.376457
_cell_angle_alpha	101.277994
_cell_angle_beta	78.709067
_cell_angle_gamma	83.486891
loop_
_atom_site_label
_atom_site_type_symbol
_atom_site_fract_x
_atom_site_fract_y
_atom_site_fract_z
O1	O	1.130604	0.092224	-0.093924
O2	O	0.886054	0.105583	-0.093941
O3	O	1.015030	-0.023375	-0.093934
O4	O	1.001628	0.221181	-0.093931
O5	O	0.982798	0.008821	0.094077
O6	O	0.853822	0.137778	0.094069
O7	O	1.098372	0.124419	0.094087
Zn8	Zn	0.970979	0.136211	0.123929
Zn9	Zn	1.013447	0.093792	-0.123783
O10	O	0.969396	0.253377	0.094079
C11	C	0.838644	0.121126	0.000062
C12	C	0.745400	0.119465	0.000055
C13	C	0.998366	-0.038572	0.000069
C14	C	0.996722	-0.131822	0.000060
C15	C	0.474781	0.034571	0.000066
C16	C	0.509462	0.091376	0.092768
C17	C	0.409754	0.113548	0.000074
C18	C	0.541221	0.059655	-0.092595
C19	C	0.574668	0.116450	0.000063
C20	C	0.443193	0.170344	0.092853
C21	C	0.474964	0.138597	-0.092594
C22	C	0.509608	0.195463	0.000131
C23	C	0.314750	0.111873	0.000082
C24	C	0.669667	0.118132	0.000063
C25	C	1.071653	-0.423358	0.000071
C26	C	1.016808	-0.346457	0.092772
C27	C	0.990744	-0.467456	0.000073
C28	C	1.048565	-0.378206	-0.092592
C29	C	0.993686	-0.302549	0.000064
C30	C	0.935864	-0.391771	0.092849
C31	C	0.967647	-0.423540	-0.092597
C32	C	0.912740	-0.346653	0.000125
C33	C	0.989051	-0.562455	0.000078
C34	C	0.995371	-0.207550	0.000067
C35	C	1.145782	0.108875	0.000081
C36	C	1.239028	0.110535	0.000081
C37	C	0.986060	0.268574	0.000075
C38	C	0.987705	0.361823	0.000076
N39	N	0.942002	0.165160	0.292985
N40	N	1.042430	0.064836	-0.292840
C41	C	1.109695	-0.002382	0.647980
C42	C	1.129972	-0.022643	0.529641
C43	C	1.082981	0.024306	0.470471
C44	C	1.015710	0.091520	0.529652
C45	C	0.995437	0.111788	0.648002
C46	C	0.968722	0.138475	0.470494
C47	C	0.901452	0.205690	0.529674
C48	C	0.881181	0.225954	0.648013
C49	C	0.928172	0.179005	0.707183
C50	C	0.988996	0.118207	0.352143
C51	C	0.874737	0.232377	0.352166
C52	C	0.854461	0.252639	0.470505
H53	H	0.459125	-0.033427	0.000155
H54	H	0.826412	0.280691	0.696198
H55	H	1.043768	0.063481	0.303969
H56	H	1.099493	0.007805	0.374115
H57	H	1.138783	-0.456673	0.000165
H58	H	1.147953	-0.040597	0.696163
H59	H	0.799688	0.307367	0.518704
H60	H	0.524963	0.071443	0.171139
H61	H	0.459448	0.158500	-0.170968
H62	H	0.946890	-0.457073	-0.170975
H63	H	0.836474	0.270609	0.303991
H64	H	0.583580	0.012868	-0.170963
H65	H	1.037594	-0.312947	0.171145
H66	H	0.888220	-0.398317	0.171302
H67	H	1.096235	-0.371546	-0.170955
H68	H	0.400927	0.217107	0.171309
H69	H	0.845527	-0.313461	0.000175
H70	H	1.184743	-0.077368	0.481461
H71	H	0.911661	0.195500	0.803544
H72	H	0.525078	0.263539	0.000186
