data_functionalizedCrystal
_audit_creation_method	'MofGen! by Chris Wilmer'
_symmetry_space_group_name_H-M	'P1'
_symmetry_Int_Tables_number	1
_symmetry_cell_setting	triclinic
loop_
_symmetry_equiv_pos_as_xyz
  x,y,z
_cell_length_a	16.625547
_cell_length_b	16.959453
_cell_length_c	16.959447
_cell_angle_alpha	89.968822
_cell_angle_beta	89.977696
_cell_angle_gamma	90.024758
loop_
_atom_site_label
_atom_site_type_symbol
_atom_site_fract_x
_atom_site_fract_y
_atom_site_fract_z
Zn1	Zn	1.232647	-0.314667	-0.447018
Zn2	Zn	1.732647	0.185333	0.052982
Zn3	Zn	1.232551	-0.446859	-0.314837
Zn4	Zn	1.732551	0.053141	0.185163
Zn5	Zn	1.097815	-0.314698	-0.314843
Zn6	Zn	1.597815	0.185302	0.185157
Zn7	Zn	1.097774	-0.446807	-0.446963
Zn8	Zn	1.597774	0.053193	0.053037
O9	O	1.165197	-0.380758	-0.380915
O10	O	1.665197	0.119242	0.119085
O11	O	1.345467	-0.332211	-0.429504
O12	O	1.845467	0.167789	0.070496
O13	O	1.214655	-0.429363	-0.204227
O14	O	1.714655	0.070637	0.295773
O15	O	1.115758	-0.204083	-0.332401
O16	O	1.615758	0.295917	0.167599
O17	O	1.345396	-0.429332	-0.332392
O18	O	1.845396	0.070668	0.167608
O19	O	1.214819	-0.204060	-0.429509
O20	O	1.714819	0.295940	0.070491
O21	O	1.115665	-0.332265	-0.204231
O22	O	1.615665	0.167735	0.295769
O23	O	0.984977	-0.332214	-0.332348
O24	O	1.484977	0.167786	0.167652
O25	O	1.115688	-0.429243	-0.557581
O26	O	1.615688	0.070757	-0.057581
O27	O	0.984947	-0.429274	-0.429417
O28	O	1.484947	0.070726	0.070583
O29	O	1.214779	-0.332160	-0.557621
O30	O	1.714779	0.167840	-0.057621
O31	O	1.214615	-0.557463	-0.332339
O32	O	1.714615	-0.057463	0.167661
O33	O	1.115595	-0.557425	-0.429412
O34	O	1.615595	-0.057425	0.070588
C35	C	0.955706	-0.380742	-0.380878
C36	C	1.455706	0.119258	0.119122
C37	C	0.866085	-0.380755	-0.380881
C38	C	1.366085	0.119245	0.119119
C39	C	1.165112	-0.586124	-0.380886
C40	C	1.665112	-0.086124	0.119114
C41	C	1.165149	-0.673981	-0.380900
C42	C	1.665149	-0.173981	0.119100
C43	C	1.113569	-0.715264	-0.431406
C44	C	1.613569	-0.215264	0.068594
C45	C	1.216770	-0.715251	-0.330412
C46	C	1.716770	-0.215251	0.169588
C47	C	1.216810	-0.797797	-0.330427
C48	C	1.716810	-0.297797	0.169573
C49	C	1.165229	-0.839080	-0.380932
C50	C	1.665229	-0.339080	0.119068
C51	C	1.113609	-0.797817	-0.431423
C52	C	1.613609	-0.297817	0.068577
C53	C	1.268435	-0.839066	-0.279942
C54	C	1.768435	-0.339066	0.220058
C55	C	1.268478	-0.921617	-0.279955
C56	C	1.768478	-0.421617	0.220045
C57	C	1.216893	-0.962902	-0.330457
C58	C	1.716893	-0.462902	0.169543
C59	C	1.165270	-0.921634	-0.380950
C60	C	1.665270	-0.421634	0.119050
C61	C	1.113689	-0.962917	-0.431455
C62	C	1.613689	-0.462917	0.068545
C63	C	1.062061	-0.921650	-0.481944
C64	C	1.562061	-0.421650	0.018056
C65	C	1.062024	-0.839102	-0.481925
C66	C	1.562024	-0.339102	0.018075
C67	C	1.216930	-1.045450	-0.330476
C68	C	1.716930	-0.545450	0.169524
C69	C	1.113729	-1.045470	-0.431473
C70	C	1.613729	-0.545470	0.068527
C71	C	0.793302	-0.380756	-0.380890
C72	C	1.293302	0.119244	0.119110
C73	C	0.701994	-0.380761	-0.380910
C74	C	1.201994	0.119239	0.119090
C75	C	0.629217	-0.380768	-0.380930
C76	C	1.129217	0.119232	0.119070
C77	C	0.537903	-0.380773	-0.380949
C78	C	1.037903	0.119227	0.119051
C79	C	1.375506	-0.380774	-0.380953
C80	C	1.875506	0.119226	0.119047
C81	C	1.465127	-0.380781	-0.380969
C82	C	1.965127	0.119219	0.119031
C83	C	1.165240	-0.380692	-0.587083
C84	C	1.665240	0.119308	-0.087083
C85	C	1.165258	-0.380664	-0.674940
C86	C	1.665258	0.119336	-0.174940
C87	C	1.165304	-0.174590	-0.380962
C88	C	1.665304	0.325410	0.119038
C89	C	1.165350	-0.086733	-0.380981
C90	C	1.665350	0.413267	0.119019
C91	C	1.113790	-0.330026	-1.046424
C92	C	1.613790	0.169974	-0.546424
C93	C	1.216869	-0.431135	-1.046408
C94	C	1.716869	0.068865	-0.546408
C95	C	1.216855	-0.431154	-0.963862
C96	C	1.716855	0.068846	-0.463862
C97	C	1.165307	-0.380609	-0.922593
C98	C	1.665307	0.119391	-0.422593
C99	C	1.113773	-0.330045	-0.963871
C100	C	1.613773	0.169955	-0.463871
C101	C	1.268382	-0.481722	-0.922578
C102	C	1.768382	0.018278	-0.422578
C103	C	1.268370	-0.481743	-0.840027
C104	C	1.768370	0.018257	-0.340027
C105	C	1.216825	-0.431193	-0.798757
C106	C	1.716825	0.068807	-0.298757
C107	C	1.165290	-0.380627	-0.840040
C108	C	1.665290	0.119373	-0.340040
C109	C	1.113742	-0.330082	-0.798771
C110	C	1.613742	0.169918	-0.298771
C111	C	1.062209	-0.279511	-0.840052
C112	C	1.562209	0.220489	-0.340052
C113	C	1.062228	-0.279495	-0.922601
C114	C	1.562228	0.220505	-0.422601
C115	C	1.216806	-0.431209	-0.716209
C116	C	1.716806	0.068791	-0.216209
C117	C	1.113724	-0.330100	-0.716218
C118	C	1.613724	0.169900	-0.216218
C119	C	1.165200	-0.380766	-0.175549
C120	C	1.665200	0.119234	0.324451
C121	C	1.165338	-0.380572	-0.087693
C122	C	1.665338	0.119428	0.412307
H123	H	1.071725	-1.079077	-0.472601
H124	H	1.571725	-0.579077	0.027399
C125	C	1.057016	-0.274495	-0.670829
C126	C	1.557016	0.225505	-0.170829
N127	N	1.014302	-0.232614	-0.636643
N128	N	1.514302	0.267386	-0.136643
C129	C	1.005323	-0.967072	-0.537498
C130	C	1.505323	-0.467072	-0.037498
N131	N	0.962589	-1.001287	-0.579338
N132	N	1.462589	-0.501287	-0.079338
H133	H	1.310435	-0.805451	-0.238826
H134	H	1.810435	-0.305451	0.261174
H135	H	1.310516	-0.955209	-0.238843
H136	H	1.810516	-0.455209	0.261157
C137	C	1.057108	-0.274401	-1.091833
C138	C	1.557108	0.225599	-0.591833
N139	N	1.014414	-0.232503	-1.126037
N140	N	1.514414	0.267497	-0.626037
C141	C	1.273330	-0.486964	-1.091805
C142	C	1.773330	0.013036	-0.591805
N143	N	1.315775	-0.529099	-1.126002
N144	N	1.815775	-0.029099	-0.626002
C145	C	1.005245	-0.793703	-0.537465
C146	C	1.505245	-0.293703	-0.037465
N147	N	0.962482	-0.759505	-0.579299
N148	N	1.462482	-0.259505	-0.079299
H149	H	1.310329	-0.522922	-0.806423
H150	H	1.810329	-0.022922	-0.306423
H151	H	1.071532	-0.681662	-0.472511
H152	H	1.571532	-0.181662	0.027489
H153	H	1.258970	-1.079045	-0.289373
H154	H	1.758970	-0.579045	0.210627
C155	C	1.324718	-0.537671	-0.967977
C156	C	1.824718	-0.037671	-0.467977
N157	N	1.367023	-0.579939	-1.002175
N158	N	1.867023	-0.079939	-0.502175
H159	H	1.258769	-0.472378	-0.682601
H160	H	1.758769	0.027622	-0.182601
C161	C	1.005512	-0.223909	-0.794646
C162	C	1.505512	0.276091	-0.294646
N163	N	0.962811	-0.182029	-0.760443
N164	N	1.462811	0.317971	-0.260443
C165	C	1.005544	-0.223876	-0.968016
C166	C	1.505544	0.276124	-0.468016
N167	N	0.962848	-0.181986	-1.002226
N168	N	1.462848	0.318014	-0.502226
C169	C	1.273505	-0.669837	-0.274860
C170	C	1.773505	-0.169837	0.225140
N171	N	1.316239	-0.635628	-0.233013
N172	N	1.816239	-0.135628	0.266987
