data_functionalizedCrystal
_audit_creation_method	'MofGen! by Chris Wilmer'
_symmetry_space_group_name_H-M	'P1'
_symmetry_Int_Tables_number	1
_symmetry_cell_setting	triclinic
loop_
_symmetry_equiv_pos_as_xyz
  x,y,z
_cell_length_a	12.837943
_cell_length_b	12.837942
_cell_length_c	11.892095
_cell_angle_alpha	94.302569
_cell_angle_beta	85.689438
_cell_angle_gamma	94.828940
loop_
_atom_site_label
_atom_site_type_symbol
_atom_site_fract_x
_atom_site_fract_y
_atom_site_fract_z
O1	O	1.408367	0.266110	-0.093982
O2	O	1.105234	0.252667	-0.093989
O3	O	1.250078	0.107822	-0.093979
O4	O	1.263522	0.410955	-0.093992
O5	O	1.237999	0.119879	0.094028
O6	O	1.093155	0.264723	0.094018
O7	O	1.396288	0.278167	0.094025
Zn8	Zn	1.242803	0.273359	0.123871
Zn9	Zn	1.258718	0.257474	-0.123836
O10	O	1.251443	0.423011	0.094014
C11	C	1.060125	0.254153	0.000014
C12	C	0.943710	0.240609	0.000011
C13	C	0.718835	0.403439	0.000020
C14	C	0.609453	0.390717	0.000019
C15	C	0.615561	0.202446	0.000015
C16	C	0.724943	0.215167	0.000017
C17	C	0.776577	0.315667	0.000017
C18	C	0.885961	0.328387	0.000011
C19	C	0.892066	0.140117	0.000015
C20	C	0.782684	0.127395	0.000014
C21	C	1.239497	0.074781	0.000024
C22	C	1.225953	-0.041634	0.000022
C23	C	1.388784	-0.266509	0.000002
C24	C	1.376062	-0.375892	-0.000000
C25	C	1.187791	-0.369784	0.000007
C26	C	1.200512	-0.260402	0.000009
C27	C	1.301011	-0.208768	0.000008
C28	C	1.313731	-0.099383	0.000019
C29	C	1.125461	-0.093278	0.000018
C30	C	1.112740	-0.202660	0.000016
C31	C	1.441397	0.276680	0.000020
C32	C	1.557812	0.290224	0.000015
C33	C	1.262024	0.456052	0.000009
C34	C	1.275569	0.572467	0.000004
N35	N	1.231950	0.284200	0.292925
N36	N	1.269579	0.246626	-0.292889
C37	C	1.345098	0.171130	0.529580
C38	C	1.337519	0.178716	0.647922
C39	C	1.209210	0.306952	0.647951
C40	C	1.216788	0.299366	0.529610
C41	C	1.284736	0.231454	0.470428
C42	C	1.292319	0.223874	0.352085
C43	C	1.164005	0.352104	0.352116
C44	C	1.156426	0.359690	0.470458
H45	H	0.573495	0.120630	0.000108
C46	C	1.573605	-0.283529	-0.000007
C47	C	1.499248	-0.209747	-0.000002
H48	H	1.641802	-0.248485	-0.000019
H49	H	1.560521	-0.321859	0.065552
H50	H	1.568929	-0.330271	-0.065572
H51	H	1.503919	-0.163009	0.065567
H52	H	1.512337	-0.171399	-0.065569
C53	C	0.748001	-0.030807	0.096651
C54	C	0.725923	0.016930	0.000009
H55	H	0.712955	-0.099003	0.096646
H56	H	0.821401	-0.035791	0.096641
H57	H	0.724603	0.009991	0.162209
H58	H	0.749329	-0.023865	-0.065550
H59	H	0.652508	0.021908	0.000008
C60	C	1.163270	0.484401	0.684406
C61	C	1.134510	0.381586	0.713005
H62	H	1.117144	0.530472	0.724562
H63	H	1.233003	0.503954	0.703803
H64	H	1.159150	0.488508	0.605458
H65	H	1.138638	0.377477	0.791953
H66	H	1.064760	0.362028	0.693616
H67	H	1.105969	-0.411844	-0.000004
H68	H	1.400430	0.115841	0.481394
H69	H	0.928000	0.410219	0.000013
H70	H	0.760876	0.485269	0.000019
H71	H	1.030916	-0.244716	0.000012
H72	H	0.939091	0.068646	0.000005
H73	H	1.053990	-0.046252	0.000033
H74	H	1.395563	-0.057344	0.000022
C75	C	0.489109	0.479435	-0.096631
C76	C	0.545981	0.487196	0.000016
H77	H	0.449920	0.538998	-0.096626
H78	H	0.536120	0.476289	-0.162179
H79	H	0.442705	0.417761	-0.096620
H80	H	0.592391	0.548867	0.000000
H81	H	0.498964	0.490353	0.065581
C82	C	1.418374	0.097871	0.363947
C83	C	1.366999	0.149222	0.287030
H84	H	1.464472	0.051777	0.323785
H85	H	1.457380	0.148142	0.410092
H86	H	1.368107	0.058853	0.410118
H87	H	1.417266	0.188246	0.240864
H88	H	1.327991	0.098944	0.240866
H89	H	1.447536	-0.422901	-0.000009
H90	H	1.386671	0.129593	0.696080
H91	H	1.101102	0.414980	0.518656
C92	C	1.163891	0.483797	0.219046
C93	C	1.097653	0.418425	0.287096
H94	H	1.122931	0.524739	0.178903
H95	H	1.208222	0.528727	0.265210
H96	H	1.205431	0.442257	0.166862
H97	H	1.056118	0.459966	0.339286
H98	H	1.053304	0.373490	0.240929
