data_functionalizedCrystal
_audit_creation_method	'MofGen! by Chris Wilmer'
_symmetry_space_group_name_H-M	'P1'
_symmetry_Int_Tables_number	1
_symmetry_cell_setting	triclinic
loop_
_symmetry_equiv_pos_as_xyz
  x,y,z
_cell_length_a	6.817900
_cell_length_b	15.300992
_cell_length_c	16.418042
_cell_angle_alpha	95.179282
_cell_angle_beta	103.389568
_cell_angle_gamma	104.175078
loop_
_atom_site_label
_atom_site_type_symbol
_atom_site_fract_x
_atom_site_fract_y
_atom_site_fract_z
V1	V	-4.029037	-0.125492	-0.261407
O2	O	-4.012948	0.005276	-0.256172
O3	O	-3.983961	-0.248104	-0.259869
O4	O	-3.980067	-0.123892	-0.375302
O5	O	-4.016869	-0.119795	-0.139940
V6	V	-4.512308	-0.109811	-0.246849
O7	O	-4.290848	-0.159888	-0.293343
O8	O	-4.700694	-0.075415	-0.214912
O9	O	-4.334177	0.012801	-0.248387
O10	O	-4.645794	-0.240579	-0.252084
O11	O	-4.641873	-0.115508	-0.368316
O12	O	-4.338071	-0.111411	-0.132954
C13	C	-3.829789	-0.277983	-0.255810
C14	C	-3.874217	-0.378222	-0.255311
C15	C	-3.854833	-0.412222	-0.178347
C16	C	-3.896598	-0.506408	-0.177882
C17	C	-3.957733	-0.566593	-0.254381
C18	C	-3.977124	-0.532587	-0.331351
C19	C	-3.935373	-0.438403	-0.331816
C20	C	-4.064137	-0.728896	-0.330377
C21	C	-4.105886	-0.823086	-0.329912
C22	C	-4.025361	-0.796901	-0.176442
C23	C	-3.983611	-0.702717	-0.176907
C24	C	-4.003001	-0.668718	-0.253878
C25	C	-3.824821	-0.119538	-0.403055
C26	C	-3.866088	-0.119042	-0.496166
C27	C	-4.143202	-0.122396	-0.714659
C28	C	-4.181957	-0.121922	-0.802146
C29	C	-3.817499	-0.112902	-0.793585
C30	C	-3.778743	-0.113370	-0.706099
C31	C	-3.941604	-0.118122	-0.666639
C32	C	-4.019115	-0.117180	-0.841612
C33	C	-4.061135	-0.116665	-0.936468
C34	C	-3.899582	-0.118634	-0.571776
C35	C	-4.151691	0.042676	-0.252444
C36	C	-4.086501	0.142914	-0.252948
C37	C	-4.156660	-0.115767	-0.105196
C38	C	-4.094631	-0.116259	-0.012084
H39	H	-3.805037	-0.363225	-0.116052
C40	C	-4.173057	-0.889310	-0.414046
C41	C	-4.026879	-0.882773	-0.473399
C42	C	-4.094006	-0.949006	-0.557526
C43	C	-4.307312	-1.021776	-0.582302
C44	C	-4.453503	-1.028317	-0.522948
C45	C	-4.386376	-0.962083	-0.438820
H46	H	-3.868966	-0.828901	-0.455060
H47	H	-3.985784	-0.944164	-0.601464
H48	H	-4.357003	-1.070806	-0.644578
H49	H	-4.611417	-1.082188	-0.541287
H50	H	-4.494598	-0.966925	-0.394883
C51	C	-3.875267	-0.543812	-0.093221
C52	C	-3.719322	-0.600585	-0.067816
C53	C	-3.697994	-0.637991	0.016847
C54	C	-3.832609	-0.618623	0.076105
C55	C	-3.988565	-0.561847	0.050700
C56	C	-4.009894	-0.524442	-0.033963
H57	H	-3.619662	-0.614925	-0.111683
H58	H	-3.582544	-0.680020	0.035653
H59	H	-3.816821	-0.646313	0.138777
H60	H	-4.088225	-0.547508	0.094567
H61	H	-4.125343	-0.482413	-0.052768
H62	H	-3.933820	-0.653716	-0.114614
C63	C	-4.044361	-0.598795	-0.415498
C64	C	-3.910523	-0.662754	-0.432280
C65	C	-3.977748	-0.728962	-0.516426
C66	C	-4.178809	-0.731212	-0.583791
C67	C	-4.312659	-0.667251	-0.567011
C68	C	-4.245435	-0.601042	-0.482865
H69	H	-3.761674	-0.661090	-0.382410
H70	H	-3.878662	-0.776311	-0.528847
H71	H	-4.228573	-0.780224	-0.646081
H72	H	-4.461508	-0.668915	-0.616880
H73	H	-4.344520	-0.553694	-0.470444
H74	H	-4.009566	-0.824586	-0.113770
H75	H	-4.079962	-0.701219	-0.393055
C76	C	-3.956689	-0.400999	-0.416478
C77	C	-3.822053	-0.420359	-0.475729
C78	C	-3.843380	-0.382955	-0.560393
C79	C	-3.999344	-0.326193	-0.585806
C80	C	-4.133991	-0.306830	-0.526553
C81	C	-4.112663	-0.344233	-0.441889
H82	H	-3.706589	-0.462380	-0.456918
H83	H	-3.743705	-0.397289	-0.604256
H84	H	-4.015132	-0.298505	-0.648479
H85	H	-4.249454	-0.264809	-0.545364
H86	H	-4.212338	-0.329900	-0.398027
H87	H	-4.275815	-0.126264	-0.682534
H88	H	-4.346115	-0.125402	-0.841240
H89	H	-3.684911	-0.109035	-0.825724
H90	H	-3.614567	-0.109882	-0.666998
