data_functionalizedCrystal
_audit_creation_method	'MofGen! by Chris Wilmer'
_symmetry_space_group_name_H-M	'P1'
_symmetry_Int_Tables_number	1
_symmetry_cell_setting	triclinic
loop_
_symmetry_equiv_pos_as_xyz
  x,y,z
_cell_length_a	6.817900
_cell_length_b	11.452732
_cell_length_c	10.773894
_cell_angle_alpha	83.898808
_cell_angle_beta	96.645922
_cell_angle_gamma	108.697210
loop_
_atom_site_label
_atom_site_type_symbol
_atom_site_fract_x
_atom_site_fract_y
_atom_site_fract_z
V1	V	-3.967651	-0.164841	-0.353160
O2	O	-3.936515	0.012549	-0.384265
O3	O	-3.938590	-0.331303	-0.314363
O4	O	-3.884793	-0.160275	-0.523783
O5	O	-3.990684	-0.159663	-0.173395
V6	V	-4.453238	-0.143863	-0.336078
O7	O	-4.224382	-0.210858	-0.390630
O8	O	-4.646704	-0.097846	-0.298608
O9	O	-4.259092	0.022599	-0.374874
O10	O	-4.601770	-0.321253	-0.304973
O11	O	-4.547601	-0.149041	-0.515842
O12	O	-4.312889	-0.148429	-0.165455
C13	C	-3.789411	-0.371946	-0.299404
C14	C	-3.846707	-0.508018	-0.268821
C15	C	-3.890521	-0.584038	-0.360417
C16	C	-3.949740	-0.724675	-0.328810
C17	C	-3.720786	-0.153781	-0.566539
C18	C	-3.734453	-0.151149	-0.705785
C19	C	-3.913057	-0.155711	-0.772657
C20	C	-3.927186	-0.152990	-0.916576
C21	C	-4.071615	0.063236	-0.389828
C22	C	-3.993555	0.199307	-0.420420
C23	C	-4.140239	-0.154927	-0.122691
C24	C	-4.105811	-0.157553	0.016555
H25	H	-4.055503	-0.161621	-0.723362
H26	H	-3.956055	-0.763704	-0.226984
C27	C	-4.180879	-0.794451	-0.622656
C28	C	-3.985026	-0.748029	-0.557888
H29	H	-4.175606	-0.761944	-0.707522
H30	H	-4.280303	-0.770843	-0.584956
H31	H	-4.219534	-0.882052	-0.619429
H32	H	-3.946377	-0.660428	-0.561106
H33	H	-3.885569	-0.771629	-0.595598
C34	C	-3.575256	-0.036425	-0.954619
C35	C	-3.734856	-0.144994	-0.983106
H36	H	-3.456530	-0.031487	-0.995701
H37	H	-3.540538	-0.037217	-0.866642
H38	H	-3.620456	0.033060	-0.982217
H39	H	-3.689661	-0.214481	-0.955501
H40	H	-3.769575	-0.144213	-1.071102
C41	C	-4.246936	-0.166709	-0.787225
C42	C	-4.298149	-0.165555	-0.916919
H43	H	-4.365682	-0.171659	-0.746157
H44	H	-4.138672	-0.093061	-0.767914
H45	H	-4.201754	-0.236204	-0.759645
H46	H	-4.343316	-0.096053	-0.944500
H47	H	-4.406449	-0.239211	-0.936238
C48	C	-4.077831	-0.577773	-0.562649
C49	C	-3.881982	-0.531358	-0.497875
H50	H	-4.072553	-0.545257	-0.647513
H51	H	-4.177258	-0.554169	-0.524947
H52	H	-4.116488	-0.665373	-0.559432
H53	H	-3.843332	-0.443757	-0.501084
H54	H	-3.782523	-0.554954	-0.535588
C55	C	-3.912295	-0.689826	-0.126660
C56	C	-3.855271	-0.560701	-0.131364
H57	H	-3.917597	-0.722345	-0.041797
H58	H	-3.812836	-0.713414	-0.164345
H59	H	-4.045147	-0.721288	-0.170631
H60	H	-3.722412	-0.529238	-0.087401
H61	H	-3.954736	-0.537102	-0.093661
H62	H	-3.591999	-0.145222	-0.755081
