data_functionalizedCrystal
_audit_creation_method	'MofGen! by Chris Wilmer'
_symmetry_space_group_name_H-M	'P1'
_symmetry_Int_Tables_number	1
_symmetry_cell_setting	triclinic
loop_
_symmetry_equiv_pos_as_xyz
  x,y,z
_cell_length_a	29.839131
_cell_length_b	21.395364
_cell_length_c	21.395356
_cell_angle_alpha	90.024640
_cell_angle_beta	89.970658
_cell_angle_gamma	89.961079
loop_
_atom_site_label
_atom_site_type_symbol
_atom_site_fract_x
_atom_site_fract_y
_atom_site_fract_z
Zn1	Zn	-0.178895	-0.957806	-0.354272
Zn2	Zn	0.321105	-0.457806	0.145728
Zn3	Zn	-0.254022	-0.957691	-0.249491
Zn4	Zn	0.245978	-0.457691	0.250509
Zn5	Zn	-0.178903	-0.853023	-0.249506
Zn6	Zn	0.321097	-0.353023	0.250494
Zn7	Zn	-0.253995	-0.852971	-0.354229
Zn8	Zn	0.246005	-0.352971	0.145771
O9	O	-0.216454	-0.905373	-0.301875
O10	O	0.283546	-0.405373	0.198125
O11	O	-0.188868	-1.045469	-0.340384
O12	O	0.311132	-0.545469	0.159616
O13	O	-0.244072	-0.943780	-0.161815
O14	O	0.255928	-0.443780	0.338185
O15	O	-0.116035	-0.866993	-0.263428
O16	O	0.383965	-0.366993	0.236572
O17	O	-0.244064	-1.045384	-0.263402
O18	O	0.255936	-0.545384	0.236598
O19	O	-0.116029	-0.943977	-0.340398
O20	O	0.383971	-0.443977	0.159602
O21	O	-0.188883	-0.866881	-0.161827
O22	O	0.311117	-0.366881	0.338173
O23	O	-0.188857	-0.765338	-0.263387
O24	O	0.311143	-0.265338	0.236613
O25	O	-0.244018	-0.866904	-0.441913
O26	O	0.255982	-0.366904	0.058087
O27	O	-0.244026	-0.765300	-0.340326
O28	O	0.255974	-0.265300	0.159674
O29	O	-0.188842	-0.943926	-0.441944
O30	O	0.311158	-0.443926	0.058056
O31	O	-0.316886	-0.943730	-0.263361
O32	O	0.183114	-0.443730	0.236639
O33	O	-0.316866	-0.866792	-0.340312
O34	O	0.183134	-0.366792	0.159688
C35	C	-0.216440	-0.742585	-0.301854
C36	C	0.283560	-0.242585	0.198146
C37	C	-0.216445	-0.672944	-0.301860
C38	C	0.283555	-0.172944	0.198140
C39	C	-0.245226	-0.171144	-0.341887
C40	C	0.254774	0.328856	0.158113
C41	C	-0.245226	-0.236580	-0.341882
C42	C	0.254774	0.263420	0.158118
C43	C	-0.216457	-0.269306	-0.301885
C44	C	0.283543	0.230694	0.198115
C45	C	-0.187693	-0.236591	-0.261879
C46	C	0.312307	0.263409	0.238121
C47	C	-0.187696	-0.171157	-0.261882
C48	C	0.312304	0.328843	0.238118
C49	C	-0.175972	-0.373005	-0.297037
C50	C	0.324028	0.126995	0.202963
C51	C	-0.175968	-0.438438	-0.297039
C52	C	0.324032	0.061562	0.202961
C53	C	-0.216447	-0.471127	-0.301874
C54	C	0.283553	0.028873	0.198126
C55	C	-0.256932	-0.438374	-0.306721
C56	C	0.243068	0.061626	0.193279
C57	C	-0.256935	-0.372940	-0.306723
C58	C	0.243065	0.127060	0.193277
C59	C	-0.216450	-0.340258	-0.301878
C60	C	0.283550	0.159742	0.198122
C61	C	-0.245213	-0.574786	-0.341868
C62	C	0.254787	-0.074786	0.158132
C63	C	-0.245214	-0.640223	-0.341858
C64	C	0.254786	-0.140223	0.158142
C65	C	-0.187677	-0.640233	-0.261859
C66	C	0.312323	-0.140233	0.238141
C67	C	-0.187679	-0.574797	-0.261866
C68	C	0.312321	-0.074797	0.238134
C69	C	-0.216447	-0.542078	-0.301874
C70	C	0.283553	-0.042078	0.198126
C71	C	-0.333176	-0.905260	-0.301844
C72	C	0.166824	-0.405260	0.198156
C73	C	-0.383111	-0.905269	-0.301851
C74	C	0.116889	-0.405269	0.198149
C75	C	-0.692752	-0.945507	-0.261865
C76	C	-0.192752	-0.445507	0.238135
C77	C	-0.880425	-0.945584	-0.261889
C78	C	-0.380425	-0.445584	0.238111
O79	O	-0.904688	-0.979707	-0.227868
O80	O	-0.404688	-0.479707	0.272132
N81	N	-0.903896	-0.905503	-0.301922
N82	N	-0.403896	-0.405503	0.198078
C83	C	-0.880446	-0.865402	-0.341954
C84	C	-0.380446	-0.365402	0.158046
O85	O	-0.904715	-0.831317	-0.376010
O86	O	-0.404715	-0.331317	0.123990
C87	C	-0.692774	-0.865328	-0.341933
C88	C	-0.192774	-0.365328	0.158067
C89	C	-0.669305	-0.905408	-0.301893
C90	C	-0.169305	-0.405408	0.198107
C91	C	-0.669283	-0.985584	-0.221829
C92	C	-0.169283	-0.485584	0.278171
C93	C	-0.622368	-0.985562	-0.221821
C94	C	-0.122368	-0.485562	0.278179
C95	C	-0.598921	-0.945463	-0.261849
C96	C	-0.098921	-0.445463	0.238151
C97	C	-0.622390	-0.905386	-0.301885
C98	C	-0.122390	-0.405386	0.198115
C99	C	-0.669324	-0.825231	-0.381968
C100	C	-0.169324	-0.325231	0.118032
C101	C	-0.622403	-0.825217	-0.381960
C102	C	-0.122403	-0.325217	0.118040
C103	C	-0.598935	-0.865297	-0.341920
C104	C	-0.098935	-0.365297	0.158080
C105	C	-0.552027	-0.865265	-0.341905
C106	C	-0.052027	-0.365265	0.158095
N107	N	-0.528556	-0.905346	-0.301872
N108	N	-0.028556	-0.405346	0.198128
C109	C	-0.552003	-0.945445	-0.261844
C110	C	-0.052003	-0.445445	0.238156
C111	C	-0.978976	-0.865443	-0.341962
C112	C	-0.478976	-0.365443	0.158038
C113	C	-1.025894	-0.865460	-0.341967
C114	C	-0.525894	-0.365460	0.158033
C115	C	-1.025870	-0.945644	-0.261902
C116	C	-0.525870	-0.445644	0.238098
C117	C	-0.978951	-0.945622	-0.261895
C118	C	-0.478951	-0.445622	0.238105
C119	C	-0.955505	-0.905524	-0.301929
C120	C	-0.455505	-0.405524	0.198071
C121	C	-0.453477	-0.945395	-0.261830
C122	C	0.046523	-0.445395	0.238170
C123	C	-0.406558	-0.945368	-0.261823
C124	C	0.093442	-0.445368	0.238177
C125	C	-0.406586	-0.865187	-0.341890
C126	C	0.093414	-0.365187	0.158110
C127	C	-0.453501	-0.865212	-0.341894
C128	C	0.046499	-0.365212	0.158106
C129	C	-0.476946	-0.905321	-0.301862
C130	C	0.023054	-0.405321	0.198138
O131	O	-0.527735	-0.831165	-0.375913
O132	O	-0.027735	-0.331165	0.124087
O133	O	-0.527725	-0.979535	-0.227804
O134	O	-0.027725	-0.479535	0.272196
C135	C	-0.739667	-0.945529	-0.261873
C136	C	-0.239667	-0.445529	0.238127
C137	C	-0.763136	-0.905452	-0.301909
C138	C	-0.263136	-0.405452	0.198091
C139	C	-0.739689	-0.865353	-0.341937
C140	C	-0.239689	-0.365353	0.158063
C141	C	-0.810054	-0.905470	-0.301914
C142	C	-0.310054	-0.405470	0.198086
C143	C	-0.833501	-0.945569	-0.261886
C144	C	-0.333501	-0.445569	0.238114
C145	C	-0.810030	-0.985650	-0.221853
C146	C	-0.310030	-0.485650	0.278147
C147	C	-0.763114	-0.985628	-0.221845
C148	C	-0.263114	-0.485628	0.278155
C149	C	-0.763160	-0.825272	-0.381970
C150	C	-0.263160	-0.325272	0.118030
C151	C	-0.810075	-0.825297	-0.381974
C152	C	-0.310075	-0.325297	0.118026
C153	C	-0.833522	-0.865396	-0.341946
C154	C	-0.333522	-0.365396	0.158054
C155	C	-0.099275	-0.905504	-0.301920
C156	C	0.400725	-0.405504	0.198080
C157	C	-0.049341	-0.905559	-0.301939
C158	C	0.450659	-0.405559	0.198061
C159	C	-0.216426	-0.905422	-0.465298
C160	C	0.283574	-0.405422	0.034702
C161	C	-0.216414	-0.905443	-0.534939
C162	C	0.283586	-0.405443	-0.034939
C163	C	-0.216465	-0.068796	-0.301892
C164	C	0.283535	0.431204	0.198108
C165	C	-0.216463	-0.138437	-0.301889
C166	C	0.283537	0.361563	0.198111
C167	C	-0.187674	-0.865413	-0.567648
C168	C	0.312326	-0.365413	-0.067648
C169	C	-0.187666	-0.865411	-0.633084
C170	C	0.312334	-0.365411	-0.133084
C171	C	-0.216393	-0.905450	-0.665808
C172	C	0.283607	-0.405450	-0.165808
C173	C	-0.245139	-0.945484	-0.633091
C174	C	0.254861	-0.445484	-0.133091
C175	C	-0.245149	-0.945480	-0.567656
C176	C	0.254851	-0.445480	-0.067656
C177	C	-0.219927	-0.961901	-0.769495
C178	C	0.280073	-0.461901	-0.269495
C179	C	-0.219913	-0.961906	-0.834928
C180	C	0.280087	-0.461906	-0.334928
C181	C	-0.216362	-0.905461	-0.867629
C182	C	0.283638	-0.405461	-0.367629
C183	C	-0.212817	-0.849009	-0.834888
C184	C	0.287183	-0.349009	-0.334888
C185	C	-0.212827	-0.849006	-0.769454
C186	C	0.287173	-0.349006	-0.269454
C187	C	-0.216385	-0.905458	-0.736760
C188	C	0.283615	-0.405458	-0.236760
C189	C	-0.187612	-0.865424	-0.971290
C190	C	0.312388	-0.365424	-0.471290
C191	C	-0.187606	-0.865421	-1.036727
C192	C	0.312394	-0.365421	-0.536727
C193	C	-0.245077	-0.945500	-1.036732
C194	C	0.254923	-0.445500	-0.536732
C195	C	-0.245085	-0.945497	-0.971297
C196	C	0.254915	-0.445497	-0.471297
C197	C	-0.216349	-0.905460	-0.938580
C198	C	0.283651	-0.405460	-0.438580
C199	C	-0.216449	-0.905360	-0.139087
C200	C	0.283551	-0.405360	0.360913
C201	C	-0.216334	-0.905460	-0.069446
C202	C	0.283666	-0.405460	0.430554
H203	H	-0.164256	-0.548167	-0.229297
H204	H	0.335744	-0.048167	0.270703
H205	H	-0.387451	-0.978005	-0.229216
H206	H	0.112549	-0.478005	0.270784
H207	H	-0.143002	-0.465100	-0.293100
H208	H	0.356998	0.034900	0.206900
H209	H	-0.268529	-0.978084	-0.659739
H210	H	0.231471	-0.478084	-0.159739
H211	H	-0.164214	-0.832823	-0.944651
H212	H	0.335786	-0.332823	-0.444651
C213	C	-0.695067	-1.029697	-0.177788
C214	C	-0.195067	-0.529697	0.322212
N215	N	-0.714485	-1.062921	-0.144609
N216	N	-0.214485	-0.562921	0.355391
C217	C	-0.479259	-0.989514	-0.217789
C218	C	0.020741	-0.489514	0.282211
N219	N	-0.498678	-1.022740	-0.184613
N220	N	0.001322	-0.522740	0.315387
C221	C	-0.155987	-0.821384	-1.072707
C222	C	0.344013	-0.321384	-0.572707
N223	N	-0.132169	-0.788216	-1.099807
N224	N	0.367831	-0.288216	-0.599807
C225	C	-0.156044	-0.272591	-0.217887
C226	C	0.343956	0.227409	0.282113
N227	N	-0.132205	-0.299706	-0.184750
N228	N	0.367795	0.200294	0.315250
C229	C	-0.596558	-1.029648	-0.177769
C230	C	-0.096558	-0.529648	0.322231
N231	N	-0.577122	-1.062855	-0.144584
N232	N	-0.077122	-0.562855	0.355416
H233	H	-0.268639	-0.666852	-0.374427
H234	H	0.231361	-0.166852	0.125573
H235	H	-0.222798	-1.007872	-0.861580
H236	H	0.277202	-0.507872	-0.361580
C237	C	-1.051670	-0.989756	-0.217875
C238	C	-0.551670	-0.489756	0.282125
N239	N	-1.071105	-1.022984	-0.184719
N240	N	-0.571105	-0.522984	0.315281
C241	C	-0.953140	-0.989715	-0.217851
C242	C	-0.453140	-0.489715	0.282149
N243	N	-0.933702	-1.022928	-0.184675
N244	N	-0.433702	-0.522928	0.315325
C245	C	-0.953192	-0.821345	-0.386022
C246	C	-0.453192	-0.321345	0.113978
N247	N	-0.933773	-0.788135	-0.419214
N248	N	-0.433773	-0.288135	0.080786
C249	C	-0.223835	-1.023999	-0.733531
C250	C	0.276165	-0.523999	-0.233531
N251	N	-0.226779	-1.070770	-0.706443
N252	N	0.273221	-0.570770	-0.206443
H253	H	-0.268553	-0.978081	-0.541025
H254	H	0.231447	-0.478081	-0.041025
C255	C	-0.835830	-1.029759	-0.177822
C256	C	-0.335830	-0.529759	0.322178
N257	N	-0.855265	-1.062982	-0.144661
N258	N	-0.355265	-0.562982	0.355339
C259	C	-0.131438	-0.337055	-0.291718
C260	C	0.368562	0.162945	0.208282
N261	N	-0.097896	-0.309978	-0.287711
N262	N	0.402104	0.190022	0.212289
H263	H	-0.289894	-0.464987	-0.310662
H264	H	0.210106	0.035013	0.189338
H265	H	-0.268652	-0.144508	-0.374462
H266	H	0.231348	0.355492	0.125538
H267	H	-0.268466	-0.978102	-1.063376
H268	H	0.231534	-0.478102	-0.563376
C269	C	-0.596616	-0.781105	-0.426002
C270	C	-0.096616	-0.281105	0.073998
N271	N	-0.577193	-0.747879	-0.459174
N272	N	-0.077193	-0.247879	0.040826
C273	C	-0.301468	-0.336914	-0.312042
C274	C	0.198532	0.163086	0.187958
N275	N	-0.335011	-0.309780	-0.316043
N276	N	0.164989	0.190220	0.183957
C277	C	-0.276865	-0.272565	-0.385888
C278	C	0.223135	0.227435	0.114112
N279	N	-0.300694	-0.299667	-0.419036
N280	N	0.199306	0.200333	0.080964
H281	H	-0.164273	-0.144527	-0.229310
H282	H	0.335727	0.355473	0.270690
H283	H	-0.268637	-0.548144	-0.374444
H284	H	0.231363	-0.048144	0.125556
C285	C	-0.156068	-0.821366	-0.531663
C286	C	0.343932	-0.321366	-0.031663
N287	N	-0.132263	-0.788188	-0.504558
N288	N	0.367737	-0.288188	-0.004558
H289	H	-0.209922	-0.803046	-0.861512
H290	H	0.290078	-0.303046	-0.361512
C291	C	-0.479317	-0.821120	-0.385937
C292	C	0.020683	-0.321120	0.114063
N293	N	-0.498759	-0.787914	-0.419116
N294	N	0.001241	-0.287914	0.080884
C295	C	-0.156031	-0.676227	-0.217860
C296	C	0.343969	-0.176227	0.282140
N297	N	-0.132196	-0.703342	-0.184718
N298	N	0.367804	-0.203342	0.315282
H299	H	-0.688424	-0.792591	-0.414569
H300	H	-0.188424	-0.292591	0.085431
C301	C	-0.156046	-0.821375	-0.669071
C302	C	0.343954	-0.321375	-0.169071
N303	N	-0.132229	-0.788208	-0.696175
N304	N	0.367771	-0.288208	-0.196175
C305	C	-1.051704	-0.821363	-0.386007
C306	C	-0.551704	-0.321363	0.113993
N307	N	-1.071143	-0.788151	-0.419183
N308	N	-0.571143	-0.288151	0.080817
C309	C	-0.380785	-0.821083	-0.385921
C310	C	0.119215	-0.321083	0.114079
N311	N	-0.361351	-0.787867	-0.419089
N312	N	0.138649	-0.287867	0.080911
H313	H	-0.744009	-1.018265	-0.189241
H314	H	-0.244009	-0.518265	0.310759
C315	C	-0.835886	-0.781202	-0.426023
C316	C	-0.335886	-0.281202	0.073977
N317	N	-0.855324	-0.747994	-0.459204
N318	N	-0.355324	-0.247994	0.040796
C319	C	-0.737375	-0.781174	-0.426023
C320	C	-0.237375	-0.281174	0.073977
N321	N	-0.717955	-0.747961	-0.459211
N322	N	-0.217955	-0.247961	0.040789
C323	C	-0.208931	-0.786910	-0.733442
C324	C	0.291069	-0.286910	-0.233442
N325	N	-0.205999	-0.740138	-0.706318
N326	N	0.294001	-0.240138	-0.206318
H327	H	-0.268487	-0.978096	-0.944665
H328	H	0.231513	-0.478096	-0.444665
