data_functionalizedCrystal
_audit_creation_method	'MofGen! by Chris Wilmer'
_symmetry_space_group_name_H-M	'P1'
_symmetry_Int_Tables_number	1
_symmetry_cell_setting	triclinic
loop_
_symmetry_equiv_pos_as_xyz
  x,y,z
_cell_length_a	11.026607
_cell_length_b	17.699083
_cell_length_c	16.776229
_cell_angle_alpha	89.992455
_cell_angle_beta	89.994019
_cell_angle_gamma	95.934516
loop_
_atom_site_label
_atom_site_type_symbol
_atom_site_fract_x
_atom_site_fract_y
_atom_site_fract_z
O1	O	-1.609234	-0.316812	0.066299
O2	O	-1.256034	-0.280737	0.066298
O3	O	-1.442612	-0.189956	0.066291
O4	O	-1.422655	-0.407592	0.066306
O5	O	-1.442588	-0.189945	-0.066285
O6	O	-1.256009	-0.280726	-0.066278
O7	O	-1.609209	-0.316801	-0.066278
Zn8	Zn	-1.432605	-0.298762	-0.087327
Zn9	Zn	-1.432638	-0.298776	0.087348
O10	O	-1.422630	-0.407582	-0.066271
C11	C	-1.441885	-0.161655	0.000003
C12	C	-1.439740	-0.077343	0.000003
C13	C	-1.210830	-0.274076	0.000010
C14	C	-1.076175	-0.254237	0.000010
C15	C	-1.654412	-0.323461	0.000012
C16	C	-1.789068	-0.343301	0.000018
C17	C	-1.002207	-0.309017	0.000014
C18	C	-0.863034	-0.288513	0.000014
C19	C	-1.423358	-0.435882	0.000019
C20	C	-1.425503	-0.520195	0.000025
N21	N	-1.432592	-0.298753	-0.206539
C22	C	-1.549257	-0.043769	0.000002
C23	C	-1.547234	0.035453	0.000009
C24	C	-1.435692	0.081099	0.000011
C25	C	-1.326166	0.047520	0.000015
C26	C	-1.328190	-0.031700	0.000013
C27	C	-1.318000	0.367005	0.000021
C28	C	-1.315984	0.446230	0.000020
C29	C	-1.537044	0.434158	0.000017
C30	C	-1.539068	0.354938	0.000015
C31	C	-1.429543	0.321366	0.000023
C32	C	-1.431738	0.235465	0.000017
C33	C	-1.433496	0.166998	0.000012
C34	C	-1.515234	-0.258580	-0.248259
C35	C	-1.515240	-0.258580	-0.331711
C36	C	-1.432610	-0.298759	-0.373441
C37	C	-1.349959	-0.338933	-0.331715
C38	C	-1.349947	-0.338928	-0.248265
C39	C	-1.350003	-0.338954	-0.668263
C40	C	-1.350023	-0.338958	-0.751719
C41	C	-1.515296	-0.258606	-0.751709
C42	C	-1.515284	-0.258601	-0.668258
C43	C	-1.432630	-0.298772	-0.626539
C44	C	-1.432622	-0.298770	-0.536051
C45	C	-1.432623	-0.298765	-0.463928
N46	N	-1.432661	-0.298780	0.206559
H47	H	-0.823331	-0.226431	0.000030
H48	H	-1.041916	-0.371095	0.000013
C49	C	-0.842684	-0.427170	0.000020
H50	H	-0.778228	-0.458879	0.000017
H51	H	-0.891457	-0.437194	0.046251
H52	H	-0.891430	-0.437182	-0.046220
H53	H	-1.036466	-0.192158	0.000026
C54	C	-1.193282	0.496439	0.000033
H55	H	-1.128342	0.465100	0.000047
H56	H	-1.187880	0.527602	-0.046198
H57	H	-1.187924	0.527585	0.046273
C58	C	-1.667704	0.072381	-0.000001
H59	H	-1.734423	0.033850	-0.000014
H60	H	-1.671530	0.103027	0.046231
H61	H	-1.671491	0.103040	-0.046239
C62	C	-1.671955	-0.093973	-0.000001
H63	H	-1.736889	-0.062628	0.000007
H64	H	-1.677335	-0.125121	-0.046233
H65	H	-1.677347	-0.125132	0.046237
H66	H	-1.629897	0.317776	0.000009
C67	C	-1.657522	0.471089	0.000021
H68	H	-1.640347	0.524807	0.000032
H69	H	-1.703261	0.455635	-0.046212
H70	H	-1.703274	0.455616	0.046259
C71	C	-1.197527	0.330085	0.000016
H72	H	-1.130811	0.368618	0.000006
H73	H	-1.193718	0.299424	0.046246
H74	H	-1.193718	0.299441	-0.046225
H75	H	-1.235346	0.084691	0.000022
H76	H	-1.239010	-0.059035	0.000014
H77	H	-1.582526	-0.225866	-0.214287
C78	C	-1.606158	-0.214399	-0.377600
H79	H	-1.655380	-0.190479	-0.340795
H80	H	-1.562639	-0.176942	-0.410169
H81	H	-1.656569	-0.248525	-0.410138
C82	C	-1.606174	-0.214403	-0.622359
H83	H	-1.655387	-0.190470	-0.659159
H84	H	-1.656579	-0.248511	-0.589789
H85	H	-1.562618	-0.176943	-0.589821
H86	H	-1.582594	-0.225894	-0.785685
C87	C	-1.259104	-0.383139	-0.797622
H88	H	-1.209863	-0.407054	-0.760824
H89	H	-1.302627	-0.420599	-0.830168
H90	H	-1.208711	-0.349010	-0.830183
C91	C	-1.259097	-0.383148	-0.622382
H92	H	-1.209900	-0.407083	-0.659190
H93	H	-1.208678	-0.349036	-0.589841
H94	H	-1.302637	-0.420604	-0.589817
H95	H	-1.282674	-0.371644	-0.365697
H96	H	-1.282650	-0.371640	-0.214297
