data_functionalizedCrystal
_audit_creation_method	'MofGen! by Chris Wilmer'
_symmetry_space_group_name_H-M	'P1'
_symmetry_Int_Tables_number	1
_symmetry_cell_setting	triclinic
loop_
_symmetry_equiv_pos_as_xyz
  x,y,z
_cell_length_a	12.837943
_cell_length_b	11.295483
_cell_length_c	12.811415
_cell_angle_alpha	88.701575
_cell_angle_beta	90.588083
_cell_angle_gamma	94.538773
loop_
_atom_site_label
_atom_site_type_symbol
_atom_site_fract_x
_atom_site_fract_y
_atom_site_fract_z
O1	O	-1.385593	-0.127591	0.264767
O2	O	-1.083629	-0.126152	0.251375
O3	O	-1.241059	-0.110562	0.107087
O4	O	-1.228163	-0.143181	0.409054
O5	O	-1.227232	0.086122	0.119738
O6	O	-1.069801	0.070532	0.264026
O7	O	-1.371766	0.069093	0.277418
Cu8	Cu	-1.219521	0.087771	0.271877
Cu9	Cu	-1.235874	-0.144830	0.256915
O10	O	-1.214335	0.053502	0.421706
C11	C	-1.038040	-0.027323	0.253176
C12	C	-0.922802	-0.025868	0.239684
C13	C	-1.232999	-0.008018	0.074494
C14	C	-1.229571	0.004501	-0.041474
C15	C	-1.417354	-0.029739	0.275616
C16	C	-1.532593	-0.031202	0.289108
C17	C	-0.683778	-0.043373	0.401888
C18	C	-0.575502	-0.042006	0.389215
C19	C	-0.597969	-0.021759	0.201668
C20	C	-0.706246	-0.023126	0.214340
C21	C	-0.749147	-0.033935	0.314453
C22	C	-0.857426	-0.035310	0.327124
C23	C	-0.879891	-0.015055	0.139578
C24	C	-0.771614	-0.013688	0.126906
N25	N	-1.208027	0.251370	0.282401
N26	N	-1.247376	-0.308429	0.246384
C27	C	-1.330117	0.512743	0.170573
C28	C	-1.321438	0.636546	0.178534
C29	C	-1.181986	0.622784	0.306277
C30	C	-1.190665	0.498980	0.298316
C31	C	-1.264734	0.443964	0.230463
C32	C	-1.273417	0.320158	0.222508
C33	C	-1.133960	0.306398	0.350245
C34	C	-1.125281	0.430202	0.358206
C35	C	-1.238186	-0.186422	-0.273174
C36	C	-1.234966	-0.174665	-0.382136
C37	C	-1.219901	0.039773	-0.368362
C38	C	-1.223122	0.028015	-0.259400
C39	C	-1.232266	-0.085086	-0.211810
C40	C	-1.235494	-0.096843	-0.102846
C41	C	-1.220422	0.117594	-0.089074
C42	C	-1.217201	0.129351	-0.198036
C43	C	-1.222395	-0.049044	0.454299
C44	C	-1.225824	-0.061571	0.570266
H45	H	-0.892353	-0.044110	0.408641
H46	H	-1.333730	0.275365	0.167262
H47	H	-0.933126	-0.007378	0.068382
N48	N	-1.063422	0.232225	0.414842
H49	H	-1.074746	0.245650	0.491432
H50	H	-1.080187	0.145476	0.399424
N51	N	-1.045396	0.489553	0.431381
H52	H	-1.082007	0.535498	0.484810
H53	H	-1.005314	0.427129	0.468042
N54	N	-1.410010	0.453393	0.097406
H55	H	-1.450119	0.515751	0.060676
H56	H	-1.373335	0.407441	0.044034
H57	H	-0.522282	-0.049689	0.460414
H58	H	-1.239782	-0.257184	-0.432095
H59	H	-1.215605	0.200110	-0.039100
H60	H	-1.374678	0.692543	0.129764
N61	N	-1.102090	0.682134	0.379442
H62	H	-1.106513	0.771000	0.375389
H63	H	-1.116471	0.652384	0.453230
H64	H	-1.242944	-0.188935	-0.064100
N65	N	-1.210058	0.161751	-0.419701
H66	H	-1.208923	0.153817	-0.498040
H67	H	-1.271542	0.206714	-0.399717
H68	H	-1.245641	-0.278514	-0.234425
H69	H	-0.718709	-0.052176	0.483403
H70	H	-1.209752	0.221435	-0.236799
H71	H	-0.563013	-0.012862	0.120166
H72	H	-0.736668	-0.004874	0.045397
