data_functionalizedCrystal
_audit_creation_method	'MofGen! by Chris Wilmer'
_symmetry_space_group_name_H-M	'P1'
_symmetry_Int_Tables_number	1
_symmetry_cell_setting	triclinic
loop_
_symmetry_equiv_pos_as_xyz
  x,y,z
_cell_length_a	14.853569
_cell_length_b	19.188928
_cell_length_c	13.330367
_cell_angle_alpha	90.012043
_cell_angle_beta	89.994419
_cell_angle_gamma	96.610311
loop_
_atom_site_label
_atom_site_type_symbol
_atom_site_fract_x
_atom_site_fract_y
_atom_site_fract_z
O1	O	1.195860	-0.091160	-0.083395
O2	O	0.933340	-0.102018	-0.083409
O3	O	1.072177	0.005041	-0.083376
O4	O	1.057023	-0.198220	-0.083427
O5	O	1.072157	0.005044	0.083471
O6	O	0.933320	-0.102016	0.083439
O7	O	1.195840	-0.091158	0.083453
Cu8	Cu	1.064578	-0.096587	0.098680
Cu9	Cu	1.064602	-0.096589	-0.098636
O10	O	1.057003	-0.198217	0.083420
C11	C	0.899744	-0.101525	0.000014
C12	C	0.799669	-0.100050	0.000009
C13	C	0.763650	-0.035762	0.000022
C14	C	0.741652	-0.162952	0.000001
C15	C	0.647626	-0.161568	0.000003
C16	C	0.611608	-0.097281	0.000015
C17	C	0.669616	-0.034377	0.000027
C18	C	0.589611	-0.224471	0.000002
C19	C	0.495578	-0.223090	0.000004
C20	C	0.459558	-0.158802	0.000010
C21	C	0.517573	-0.095895	0.000020
C22	C	0.481554	-0.031608	0.000033
C23	C	0.539567	0.031300	0.000036
C24	C	0.633596	0.029912	0.000032
C25	C	0.365530	-0.157414	0.000013
C26	C	0.387519	-0.030222	0.000037
C27	C	1.071677	0.031055	0.000052
C28	C	1.070205	0.108565	0.000065
C29	C	1.151669	0.153217	0.000077
C30	C	1.150286	0.226045	0.000065
C31	C	1.067434	0.254218	0.000061
C32	C	0.985959	0.209557	0.000044
C33	C	0.987344	0.136730	0.000046
N34	N	1.004098	0.362436	0.056846
N35	N	1.002787	0.431619	0.056846
C36	C	1.063255	0.473641	0.000053
N37	N	1.125097	0.443868	-0.056727
N38	N	1.126410	0.374679	-0.056723
C39	C	1.065923	0.333186	0.000059
C40	C	1.143226	0.597263	0.000050
C41	C	1.141840	0.670092	0.000032
C42	C	0.977510	0.653602	0.000022
C43	C	0.978898	0.580774	0.000030
C44	C	1.061759	0.552609	0.000049
C45	C	1.229436	-0.091651	0.000028
C46	C	1.329511	-0.093126	0.000026
N47	N	1.064568	-0.096584	0.237462
C48	C	1.057506	0.775769	0.000004
C49	C	1.058987	0.698260	0.000027
N50	N	1.064619	-0.096586	-0.237418
C51	C	1.003123	-0.143977	0.710070
C52	C	1.126106	-0.049197	0.710067
C53	C	1.126096	-0.049195	0.605049
C54	C	1.064599	-0.096585	0.552536
C55	C	1.003112	-0.143977	0.605042
C56	C	1.187587	-0.001808	0.552535
C57	C	1.187580	-0.001804	0.447510
C58	C	1.126078	-0.049192	0.394996
C59	C	1.064589	-0.096586	0.447508
C60	C	1.003092	-0.143976	0.394995
C61	C	0.941597	-0.191367	0.447506
C62	C	0.941610	-0.191365	0.552527
C63	C	1.126065	-0.049194	0.289974
C64	C	1.003082	-0.143977	0.289967
H65	H	0.810888	0.015455	0.000021
N66	N	1.253901	0.049308	0.390878
H67	H	1.292860	0.079328	0.440082
H68	H	1.219506	0.080225	0.347325
N69	N	0.936801	-0.195094	0.766692
H70	H	0.872852	-0.186960	0.748427
H71	H	0.946210	-0.187880	0.841175
H72	H	0.680837	0.081127	0.000037
H73	H	1.176179	-0.010616	0.752826
N74	N	0.936743	-0.195090	0.233339
H75	H	0.946923	-0.244659	0.251602
H76	H	0.946097	-0.187842	0.158857
H77	H	0.891544	-0.229950	0.595288
H78	H	1.176137	-0.010612	0.247225
H79	H	1.237661	0.036773	0.595294
N80	N	0.780496	-0.232287	-0.000005
H81	H	0.848866	-0.223620	-0.000004
H82	H	0.759264	-0.259818	-0.061864
N83	N	0.875274	-0.242484	0.390864
H84	H	0.884606	-0.235291	0.316366
H85	H	0.811355	-0.234325	0.409228
N86	N	0.302969	-0.225259	0.000010
H87	H	0.263469	-0.227527	-0.061840
H88	H	0.263521	-0.227473	0.061902
H89	H	1.219141	0.130290	0.000089
H90	H	0.358201	0.022129	0.000042
H91	H	0.618945	-0.276811	-0.000002
H92	H	1.216627	0.262408	0.000070
N93	N	0.888147	0.683981	0.000034
H94	H	0.836748	0.644639	0.000035
H95	H	0.883994	0.713830	-0.061817
N96	N	0.896600	0.239946	0.000048
H97	H	0.860914	0.223674	0.061895
H98	H	0.860999	0.223655	-0.061846
H99	H	0.510229	0.083643	0.000040
H100	H	1.210696	0.574330	0.000061
N101	N	0.433012	-0.290935	0.000066
H102	H	0.470099	-0.331870	0.000080
H103	H	0.393495	-0.293167	-0.061766
N104	N	0.891032	0.532608	0.000023
H105	H	0.838334	0.561504	0.000020
H106	H	0.888021	0.502042	0.061877
N107	N	1.229711	0.718255	0.000053
H108	H	1.216263	0.768665	0.000044
H109	H	1.265847	0.709114	-0.061791
N110	N	0.899475	0.088564	0.000033
H111	H	0.846776	0.117459	0.000026
H112	H	0.896463	0.057999	0.061888
