data_functionalizedCrystal
_audit_creation_method	'MofGen! by Chris Wilmer'
_symmetry_space_group_name_H-M	'P1'
_symmetry_Int_Tables_number	1
_symmetry_cell_setting	triclinic
loop_
_symmetry_equiv_pos_as_xyz
  x,y,z
_cell_length_a	12.759400
_cell_length_b	12.759401
_cell_length_c	12.759393
_cell_angle_alpha	89.979062
_cell_angle_beta	90.023884
_cell_angle_gamma	89.995030
loop_
_atom_site_label
_atom_site_type_symbol
_atom_site_fract_x
_atom_site_fract_y
_atom_site_fract_z
Zn1	Zn	-0.418173	-1.606349	0.594068
Zn2	Zn	-0.593888	-1.606274	0.418409
Zn3	Zn	-0.418229	-1.430647	0.418404
Zn4	Zn	-0.593815	-1.430674	0.594046
O5	O	-0.506026	-1.518486	0.506232
O6	O	-0.441489	-1.753360	0.570778
O7	O	-0.570641	-1.582935	0.271387
O8	O	-0.271200	-1.453975	0.441713
O9	O	-0.570586	-1.753305	0.441722
O10	O	-0.271159	-1.583061	0.570773
O11	O	-0.441584	-1.453902	0.271383
O12	O	-0.441513	-1.283630	0.441691
O13	O	-0.570461	-1.454019	0.741070
O14	O	-0.570516	-1.283649	0.570735
O15	O	-0.441418	-1.583087	0.741087
O16	O	-0.740899	-1.582960	0.441700
O17	O	-0.740846	-1.453947	0.570740
C18	C	-0.506013	-1.245519	0.506211
C19	C	-0.506033	-1.128742	0.506227
C20	C	-0.231993	-1.518523	0.506245
C21	C	-0.115216	-1.518539	0.506251
C22	C	-0.778993	-1.518477	0.506241
C23	C	-0.895770	-1.518569	0.506281
C24	C	-0.060374	-1.451342	0.439062
C25	C	0.049350	-1.451354	0.439079
C26	C	0.049380	-1.585770	0.573477
C27	C	-0.060342	-1.585752	0.573465
C28	C	0.199299	-1.327463	0.401546
C29	C	0.254145	-1.260274	0.334340
C30	C	0.218504	-1.244111	0.231820
C31	C	0.128019	-1.295151	0.196485
C32	C	0.073179	-1.362347	0.263685
C33	C	0.108818	-1.378491	0.366219
C34	C	-0.210292	-1.709644	0.610987
C35	C	-0.265135	-1.776846	0.678182
C36	C	-0.229496	-1.793021	0.780704
C37	C	-0.139008	-1.741999	0.816035
C38	C	-0.084166	-1.674797	0.748840
C39	C	-0.119812	-1.658621	0.646319
C40	C	-0.505925	-1.518564	0.780265
C41	C	-0.505882	-1.518598	0.897042
C42	C	-0.506040	-1.792519	0.506253
C43	C	-0.506046	-1.909296	0.506262
C44	C	-0.573307	-1.073918	0.573314
C45	C	-0.573311	-0.964194	0.573335
C46	C	-0.438764	-0.964128	0.439172
C47	C	-0.438756	-1.073850	0.439157
C48	C	-0.506051	-1.518468	0.233264
C49	C	-0.505798	-1.518638	0.116488
C50	C	-0.438678	-1.585808	0.951914
C51	C	-0.438633	-1.585826	1.061638
C52	C	-0.573004	-1.451420	1.061608
C53	C	-0.573044	-1.451398	0.951886
H54	H	-0.105049	-1.396610	0.384334
H55	H	-0.274154	-1.847752	0.835410
O56	O	-0.373549	-1.127229	0.373931
C57	C	-0.433280	-1.190644	0.305953
H58	H	-0.512944	-1.207095	0.342876
H59	H	-0.444731	-1.148323	0.228080
C60	C	-0.277602	-1.274657	0.241667
C61	C	-0.375444	-1.294870	0.287021
H62	H	-0.241925	-1.338947	0.229984
H63	H	-0.237359	-1.231931	0.287462
H64	H	-0.287158	-1.239387	0.176778
H65	H	-0.365886	-1.330127	0.351915
H66	H	-0.415684	-1.337605	0.241236
H67	H	-0.627768	-1.396660	0.907208
O68	O	-0.638762	-0.911100	0.638535
C69	C	-0.698116	-0.983082	0.697745
H70	H	-0.701695	-1.061272	0.654691
H71	H	-0.659740	-0.994797	0.777599
C72	C	-0.805558	-0.844231	0.765590
C73	C	-0.809962	-0.940263	0.712706
H74	H	-0.874549	-0.817818	0.774824
H75	H	-0.765568	-0.795735	0.725703
H76	H	-0.773573	-0.854006	0.832129
H77	H	-0.841934	-0.930485	0.646164
H78	H	-0.849960	-0.988758	0.752583
O79	O	-0.373320	-1.651216	1.114778
C80	C	-0.314035	-1.710499	1.042838
H81	H	-0.357100	-1.714113	0.964625
H82	H	-0.234243	-1.672039	1.031163
C83	C	-0.245994	-1.817889	1.181743
C84	C	-0.298892	-1.822335	1.085683
H85	H	-0.236648	-1.886873	1.208173
H86	H	-0.285932	-1.777946	1.230212
H87	H	-0.179506	-1.785834	1.172001
H88	H	-0.365383	-1.854377	1.095429
H89	H	-0.258964	-1.862285	1.037217
O90	O	-0.638503	-1.127356	0.638522
C91	C	-0.578761	-1.190838	0.706483
H92	H	-0.499097	-1.207260	0.669552
H93	H	-0.567310	-1.148590	0.784365
C94	C	-0.734425	-1.274902	0.770763
C95	C	-0.636585	-1.295078	0.725400
H96	H	-0.770095	-1.339200	0.782436
H97	H	-0.774676	-1.232130	0.724980
H98	H	-0.724869	-1.239692	0.835659
H99	H	-0.646143	-1.330275	0.660499
H100	H	-0.596337	-1.337858	0.771173
H101	H	-0.383988	-1.640524	0.907263
H102	H	-0.627687	-1.396710	1.106276
H103	H	-0.000490	-1.403905	0.234915
H104	H	-0.383991	-0.919421	0.384565
H105	H	0.099015	-1.281994	0.112998
H106	H	0.263169	-1.189405	0.177100
H107	H	0.327818	-1.218718	0.363120
H108	H	0.228318	-1.340605	0.485030
O109	O	-0.104224	-1.757811	0.915555
C110	C	-0.002207	-1.800182	0.912672
H111	H	0.011069	-1.840426	0.834036
H112	H	0.057592	-1.734615	0.923048
C113	C	-0.005786	-1.831247	1.098313
C114	C	0.010516	-1.880683	1.001734
H115	H	0.002065	-1.880900	1.153253
H116	H	-0.074515	-1.802697	1.100256
H117	H	0.044048	-1.776609	1.106945
H118	H	-0.039325	-1.935311	0.993098
H119	H	0.079238	-1.909244	0.999791
O120	O	0.003622	-1.625104	0.783266
C121	C	-0.021654	-1.561524	0.870006
H122	H	-0.108747	-1.541683	0.867982
H123	H	-0.002799	-1.605355	0.945574
C124	C	0.149885	-1.484037	0.867897
C125	C	0.042917	-1.459660	0.865406
H126	H	0.189718	-1.421205	0.865064
H127	H	0.166916	-1.526875	0.809461
H128	H	0.165582	-1.520565	0.930871
H129	H	0.027220	-1.423145	0.802428
H130	H	0.025886	-1.416814	0.923832
H131	H	0.094070	-1.640495	0.628200
H132	H	-0.338812	-1.818395	0.649404
H133	H	-0.239328	-1.696467	0.527509
