data_functionalizedCrystal
_audit_creation_method	'MofGen! by Chris Wilmer'
_symmetry_space_group_name_H-M	'P1'
_symmetry_Int_Tables_number	1
_symmetry_cell_setting	triclinic
loop_
_symmetry_equiv_pos_as_xyz
  x,y,z
_cell_length_a	14.908571
_cell_length_b	21.295417
_cell_length_c	21.295420
_cell_angle_alpha	90.005898
_cell_angle_beta	93.308102
_cell_angle_gamma	86.725606
loop_
_atom_site_label
_atom_site_type_symbol
_atom_site_fract_x
_atom_site_fract_y
_atom_site_fract_z
Zn1	Zn	1.379120	-0.306413	0.411339
Zn2	Zn	1.379002	-0.411633	0.306062
Zn3	Zn	1.228264	-0.300300	0.300022
Zn4	Zn	1.228202	-0.405559	0.405233
O5	O	1.303647	-0.355976	0.355664
O6	O	1.505348	-0.325470	0.402457
O7	O	1.358983	-0.396848	0.217170
O8	O	1.248351	-0.213024	0.314816
O9	O	1.505261	-0.402775	0.325110
O10	O	1.359184	-0.217515	0.396600
O11	O	1.248236	-0.315052	0.212733
O12	O	1.102012	-0.309163	0.308895
O13	O	1.248245	-0.392424	0.494133
O14	O	1.101967	-0.386496	0.386194
O15	O	1.359124	-0.319581	0.498620
O16	O	1.358923	-0.498913	0.319190
O17	O	1.248131	-0.494451	0.392050
C18	C	1.069256	-0.346508	0.346227
C19	C	0.968983	-0.342472	0.342204
C20	C	1.303532	-0.519523	0.355627
C21	C	1.303565	-0.589493	0.355636
C22	C	0.780559	-0.415541	0.415028
C23	C	0.686343	-0.411751	0.411251
C24	C	0.686333	-0.331100	0.330876
C25	C	0.780549	-0.334890	0.334654
C26	C	0.827659	-0.377112	0.376730
C27	C	0.921876	-0.380905	0.380504
C28	C	0.921865	-0.300251	0.300133
C29	C	0.827649	-0.296461	0.296355
C30	C	1.361243	-0.624639	0.398249
C31	C	1.361275	-0.690383	0.398266
C32	C	1.303639	-0.720978	0.355659
C33	C	1.245950	-0.685823	0.313043
C34	C	1.245913	-0.620080	0.313032
N35	N	1.296828	-0.823941	0.300294
N36	N	1.296868	-0.886394	0.300307
C37	C	1.303744	-0.919057	0.355692
N38	N	1.310596	-0.886908	0.411065
N39	N	1.310561	-0.824449	0.411051
C40	C	1.303671	-0.792265	0.355667
C41	C	1.361459	-1.025491	0.398326
C42	C	1.361485	-1.091235	0.398344
C43	C	1.246164	-1.086674	0.313116
C44	C	1.246134	-1.020931	0.313104
C45	C	1.303786	-0.990343	0.355708
C46	C	1.538953	-0.365482	0.365138
C47	C	1.639227	-0.369533	0.369176
C48	C	1.303691	-0.356007	0.519856
C49	C	1.303709	-0.356020	0.589825
C50	C	1.303787	-0.191791	0.355715
C51	C	1.303847	-0.121826	0.355737
C52	C	1.361435	-0.318097	0.625028
C53	C	1.361421	-0.318086	0.690770
C54	C	1.303692	-0.356009	0.721307
C55	C	1.245955	-0.393935	0.686095
C56	C	1.245964	-0.393940	0.620354
N57	N	1.296713	-0.410822	0.824242
N58	N	1.296710	-0.410816	0.886694
C59	C	1.303660	-0.355995	0.919380
N60	N	1.310631	-0.301181	0.887256
N61	N	1.310639	-0.301188	0.824800
C62	C	1.303675	-0.356008	0.792591
C63	C	1.361373	-0.318057	1.025868
C64	C	1.361353	-0.318045	1.091611
C65	C	1.245892	-0.393899	1.086935
C66	C	1.245907	-0.393906	1.021193
C67	C	1.303653	-0.355986	0.990664
C68	C	1.303608	-0.355965	1.192111
C69	C	1.303622	-0.355968	1.122143
H70	H	0.960232	-0.415286	0.414764
N71	N	1.183616	-0.434798	1.119861
H72	H	1.192367	-0.429040	1.166850
H73	H	1.197619	-0.480323	1.108937
H74	H	0.818917	-0.449924	0.449286
H75	H	0.789279	-0.262083	0.262099
N76	N	0.635511	-0.285565	0.285497
H77	H	0.679643	-0.261794	0.261806
H78	H	0.596455	-0.254906	0.309610
N79	N	1.183631	-0.434798	0.983219
H80	H	1.147050	-0.458817	1.012537
H81	H	1.220314	-0.465418	0.957418
N82	N	1.423611	-0.277128	1.129575
H83	H	1.488063	-0.289510	1.120745
H84	H	1.414768	-0.282886	1.175842
H85	H	1.408401	-1.000585	0.433019
H86	H	1.408236	-0.719005	0.432973
N87	N	1.423686	-1.129160	0.444303
H88	H	1.387002	-1.154967	0.471978
H89	H	1.460197	-1.099775	0.471253
H90	H	1.199171	-0.992312	0.278402
N91	N	0.635541	-0.453200	0.452557
H92	H	0.679684	-0.480522	0.479783
H93	H	0.596422	-0.480715	0.425311
N94	N	0.972667	-0.258789	0.258834
H95	H	0.928524	-0.231465	0.231609
H96	H	1.011730	-0.285929	0.231220
N97	N	1.423688	-0.277181	0.728746
H98	H	1.488137	-0.289568	0.719913
H99	H	1.414844	-0.282949	0.775011
H100	H	1.199230	-1.111584	0.278428
H101	H	1.199020	-0.710738	0.278354
N102	N	1.183687	-0.434843	0.719020
H103	H	1.119241	-0.422460	0.704970
H104	H	1.192513	-0.429074	0.766002
H105	H	1.408185	-0.599737	0.432941
H106	H	1.198952	-0.424820	0.591692
N107	N	1.183703	-0.582167	0.267068
H108	H	1.147192	-0.611522	0.240079
H109	H	1.220440	-0.556360	0.239432
H110	H	1.408388	-0.287177	1.001010
N111	N	1.423713	-0.277198	0.592100
H112	H	1.460280	-0.253172	0.624381
H113	H	1.387021	-0.246584	0.563340
