data_functionalizedCrystal
_audit_creation_method	'MofGen! by Chris Wilmer'
_symmetry_space_group_name_H-M	'P1'
_symmetry_Int_Tables_number	1
_symmetry_cell_setting	triclinic
loop_
_symmetry_equiv_pos_as_xyz
  x,y,z
_cell_length_a	12.645331
_cell_length_b	17.638891
_cell_length_c	17.640968
_cell_angle_alpha	87.809938
_cell_angle_beta	101.229710
_cell_angle_gamma	101.215862
loop_
_atom_site_label
_atom_site_type_symbol
_atom_site_fract_x
_atom_site_fract_y
_atom_site_fract_z
Zn1	Zn	-1.812340	-0.215599	-0.490659
Zn2	Zn	-1.312340	0.284401	0.009341
Zn3	Zn	-1.826238	-0.368260	-0.389358
Zn4	Zn	-1.326238	0.131740	0.110642
Zn5	Zn	-1.607605	-0.241284	-0.363674
Zn6	Zn	-1.107605	0.258716	0.136326
Zn7	Zn	-1.676477	-0.342539	-0.516289
Zn8	Zn	-1.176477	0.157461	-0.016289
O9	O	-1.730665	-0.291920	-0.439995
O10	O	-1.230665	0.208080	0.060005
O11	O	-1.962541	-0.235864	-0.477244
O12	O	-1.462541	0.264136	0.022756
O13	O	-1.774229	-0.372930	-0.279686
O14	O	-1.274229	0.127070	0.220314
O15	O	-1.600125	-0.131612	-0.359044
O16	O	-1.100125	0.368388	0.140956
O17	O	-1.972752	-0.348024	-0.402819
O18	O	-1.472752	0.151976	0.097181
O19	O	-1.750542	-0.112741	-0.452339
O20	O	-1.250542	0.387259	0.047661
O21	O	-1.613601	-0.279641	-0.260816
O22	O	-1.113601	0.220359	0.239184
O23	O	-1.468384	-0.254701	-0.383896
O24	O	-0.968384	0.245299	0.116104
O25	O	-1.717506	-0.304186	-0.619155
O26	O	-1.217506	0.195814	-0.119155
O27	O	-1.518983	-0.329092	-0.496022
O28	O	-1.018983	0.170908	0.003978
O29	O	-1.817324	-0.210924	-0.600324
O30	O	-1.317324	0.289076	-0.100324
O31	O	-1.841011	-0.471113	-0.427671
O32	O	-1.341011	0.028887	0.072329
O33	O	-1.730982	-0.452216	-0.520927
O34	O	-1.230982	0.047784	-0.020927
C35	C	-1.455217	-0.291893	-0.439953
C36	C	-0.955217	0.208107	0.060047
C37	C	-1.337388	-0.291896	-0.439957
C38	C	-0.837388	0.208104	0.060043
C39	C	-1.795011	-0.489215	-0.479884
C40	C	-1.295011	0.010785	0.020116
C41	C	-1.822641	-0.573613	-0.496974
C42	C	-1.322641	-0.073613	0.003026
C43	C	-1.773547	-0.251821	-0.638063
C44	C	-1.273547	0.248179	-0.138063
C45	C	-1.791820	-0.234733	-0.722468
C46	C	-1.291820	0.265267	-0.222468
C47	C	-1.137934	-0.244753	-0.369678
C48	C	-0.637934	0.255247	0.130322
C49	C	-1.260491	-0.244963	-0.369459
C50	C	-0.760491	0.255037	0.130541
C51	C	-1.314262	-0.376306	-0.434272
C52	C	-0.814262	0.123694	0.065728
C53	C	-1.191469	-0.376058	-0.433802
C54	C	-0.691469	0.123942	0.066198
C55	C	-1.180995	-0.255327	-0.516279
C56	C	-0.680995	0.244673	-0.016279
C57	C	-1.302924	-0.253636	-0.515478
C58	C	-0.802924	0.246364	-0.015478
C59	C	-1.007182	-0.291936	-0.440023
C60	C	-0.507182	0.208064	0.059977
C61	C	-1.124998	-0.291910	-0.439997
C62	C	-0.624998	0.208090	0.060003
C63	C	-1.666100	-0.093852	-0.399968
C64	C	-1.166100	0.406148	0.100032
C65	C	-1.638587	-0.009448	-0.382910
C66	C	-1.138587	0.490552	0.117090
C67	C	-1.939716	0.317261	-0.569616
C68	C	-1.439716	0.817261	-0.069616
C69	C	-1.913858	0.396567	-0.553561
C70	C	-1.413858	0.896567	-0.053561
C71	C	-1.757242	0.376908	-0.456421
C72	C	-1.257242	0.876908	0.043579
C73	C	-1.783083	0.297599	-0.472469
C74	C	-1.283083	0.797599	0.027531
C75	C	-1.874322	0.267782	-0.529067
C76	C	-1.374322	0.767782	-0.029067
C77	C	-1.717690	0.248120	-0.431921
C78	C	-1.217690	0.748120	0.068079
C79	C	-1.743533	0.168818	-0.447966
C80	C	-1.243533	0.668818	0.052034
C81	C	-1.834770	0.138995	-0.504560
C82	C	-1.334770	0.638995	-0.004560
C83	C	-1.900165	0.188480	-0.545112
C84	C	-1.400165	0.688480	-0.045112
C85	C	-1.626456	0.277938	-0.375320
C86	C	-1.126456	0.777938	0.124680
C87	C	-1.561062	0.228459	-0.334771
C88	C	-1.061062	0.728459	0.165229
C89	C	-1.586900	0.149157	-0.350820
C90	C	-1.086900	0.649157	0.149180
C91	C	-1.678137	0.119333	-0.407413
C92	C	-1.178137	0.619333	0.092587
C93	C	-1.521505	0.099671	-0.310267
C94	C	-1.021505	0.599671	0.189733
C95	C	-1.547348	0.020369	-0.326312
C96	C	-1.047348	0.520369	0.173688
C97	C	-1.703980	0.040031	-0.423459
C98	C	-1.203980	0.540031	0.076541
C99	C	-1.592114	-0.421323	-1.049086
C100	C	-1.092114	0.078677	-0.549086
C101	C	-1.609304	-0.405257	-1.128395
C102	C	-1.109304	0.094743	-0.628395
C103	C	-1.713235	-0.308151	-1.108778
C104	C	-1.213235	0.191849	-0.608778
C105	C	-1.696049	-0.324206	-1.029465
C106	C	-1.196049	0.175794	-0.529465
C107	C	-1.635489	-0.380794	-0.999626
C108	C	-1.135489	0.119206	-0.499626
C109	C	-1.739425	-0.283677	-0.980005
C110	C	-1.239425	0.216323	-0.480005
C111	C	-1.722245	-0.299735	-0.900700
C112	C	-1.222245	0.200265	-0.400700
C113	C	-1.661690	-0.356321	-0.870854
C114	C	-1.161690	0.143679	-0.370854
C115	C	-1.618309	-0.396852	-0.920320
C116	C	-1.118309	0.103148	-0.420320
C117	C	-1.799991	-0.227094	-1.009847
C118	C	-1.299991	0.272906	-0.509847
C119	C	-1.843366	-0.186564	-0.960387
C120	C	-1.343366	0.313436	-0.460387
C121	C	-1.826180	-0.202618	-0.881079
C122	C	-1.326180	0.297382	-0.381079
C123	C	-1.765625	-0.259204	-0.851234
C124	C	-1.265625	0.240796	-0.351234
C125	C	-1.869561	-0.162088	-0.831613
C126	C	-1.369561	0.337912	-0.331613
C127	C	-1.852381	-0.178145	-0.752308
C128	C	-1.352381	0.321855	-0.252308
C129	C	-1.748445	-0.275262	-0.771928
C130	C	-1.248445	0.224738	-0.271928
C131	C	-1.687993	-0.331809	-0.242687
C132	C	-1.187993	0.168191	0.257313
C133	C	-1.669855	-0.348683	-0.158239
C134	C	-1.169855	0.151317	0.341761
H135	H	-1.274185	-0.182877	-0.371166
H136	H	-0.774185	0.317123	0.128834
H137	H	-1.682957	0.401193	-0.410336
H138	H	-1.182957	0.901193	0.089664
H139	H	-1.892678	-0.140493	-0.984694
H140	H	-1.392678	0.359507	-0.484694
H141	H	-1.778259	0.015756	-0.469561
H142	H	-1.278259	0.515756	0.030439
H143	H	-1.091971	-0.182515	-0.371199
H144	H	-0.591971	0.317485	0.128801
H145	H	-1.316370	-0.191440	-0.520059
H146	H	-0.816370	0.308560	-0.020059
H147	H	-1.568963	-0.442913	-0.896020
H148	H	-1.068963	0.057087	-0.396020
H149	H	-1.647708	-0.369397	-0.806279
H150	H	-1.147708	0.130603	-0.306279
H151	H	-1.813980	-0.214023	-1.074424
H152	H	-1.313980	0.285977	-0.574424
H153	H	-1.918878	-0.116019	-0.855922
H154	H	-1.418878	0.383981	-0.355922
H155	H	-2.013994	0.292986	-0.615718
H156	H	-1.513994	0.792986	-0.115718
H157	H	-1.542768	-0.467384	-1.024785
H158	H	-1.042768	0.032616	-0.524785
H159	H	-1.605421	0.342511	-0.362255
H160	H	-1.105421	0.842511	0.137745
H161	H	-1.135680	-0.193994	-0.524567
H162	H	-0.635680	0.306006	-0.024567
H163	H	-1.175446	-0.289477	-0.568474
H164	H	-0.675446	0.210523	-0.068474
H165	H	-1.855812	0.074421	-0.517620
H166	H	-1.355812	0.574421	-0.017620
H167	H	-1.762547	-0.262079	-1.133085
H168	H	-1.262547	0.237921	-0.633085
H169	H	-1.486777	0.252745	-0.288687
H170	H	-0.986777	0.752745	0.211313
H171	H	-1.967118	0.436850	-0.586585
H172	H	-1.467118	0.936850	-0.086585
H173	H	-1.338077	-0.405601	-0.379682
H174	H	-0.838077	0.094399	0.120318
H175	H	-1.573978	-0.438265	-1.168664
H176	H	-1.073978	0.061735	-0.668664
H177	H	-1.098622	-0.270014	-0.313142
H178	H	-0.598622	0.229986	0.186858
H179	H	-1.281280	-0.270447	-0.312606
H180	H	-0.781280	0.229553	0.187394
H181	H	-1.974444	0.164205	-0.591215
H182	H	-1.474444	0.664205	-0.091215
H183	H	-1.887699	-0.145141	-0.712035
H184	H	-1.387699	0.354859	-0.212035
H185	H	-1.155748	-0.405181	-0.378517
H186	H	-0.655748	0.094819	0.121483
H187	H	-1.356493	-0.284186	-0.569369
H188	H	-0.856493	0.215814	-0.069369
H189	H	-1.699100	-0.321323	-0.747628
H190	H	-1.199100	0.178677	-0.247628
H191	H	-1.185450	-0.413254	-0.483665
H192	H	-0.685450	0.086746	0.016335
H193	H	-1.447224	0.123958	-0.264180
H194	H	-0.947224	0.623958	0.235820
H195	H	-1.494097	-0.019918	-0.293294
H196	H	-0.994097	0.480082	0.206706
H197	H	-1.367069	-0.413086	-0.484595
H198	H	-0.867069	0.086914	0.015405
