data_functionalizedCrystal
_audit_creation_method	'MofGen! by Chris Wilmer'
_symmetry_space_group_name_H-M	'P1'
_symmetry_Int_Tables_number	1
_symmetry_cell_setting	triclinic
loop_
_symmetry_equiv_pos_as_xyz
  x,y,z
_cell_length_a	19.288864
_cell_length_b	10.654541
_cell_length_c	18.366186
_cell_angle_alpha	89.994034
_cell_angle_beta	89.977106
_cell_angle_gamma	83.810087
loop_
_atom_site_label
_atom_site_type_symbol
_atom_site_fract_x
_atom_site_fract_y
_atom_site_fract_z
O1	O	0.922378	0.156657	-0.060783
O2	O	1.422378	0.656657	0.439217
O3	O	0.720255	0.177790	-0.060733
O4	O	1.220255	0.677790	0.439267
O5	O	0.825965	-0.015616	-0.060755
O6	O	1.325965	0.484384	0.439245
O7	O	0.816669	0.350062	-0.060761
O8	O	1.316669	0.850062	0.439239
O9	O	0.825946	-0.015625	0.060344
O10	O	1.325946	0.484375	0.560344
O11	O	0.720237	0.177780	0.060366
O12	O	1.220237	0.677780	0.560366
O13	O	0.922360	0.156647	0.060316
O14	O	1.422360	0.656647	0.560316
Zn15	Zn	0.821296	0.167212	0.079568
Zn16	Zn	1.321296	0.667212	0.579568
Zn17	Zn	0.821319	0.167225	-0.079985
Zn18	Zn	1.321319	0.667225	0.420015
O19	O	0.816650	0.350053	0.060338
O20	O	1.316650	0.850053	0.560338
C21	C	0.694365	0.177105	-0.000177
C22	C	1.194365	0.677105	0.499823
C23	C	0.617248	0.175064	-0.000158
C24	C	1.117248	0.675064	0.499842
C25	C	0.825273	-0.062404	-0.000205
C26	C	1.325273	0.437596	0.499795
C27	C	0.823232	-0.201804	-0.000206
C28	C	1.323232	0.298196	0.499794
C29	C	0.573295	0.288545	-0.000172
C30	C	1.073295	0.788545	0.499828
C31	C	0.500835	0.286627	-0.000180
C32	C	1.000835	0.786627	0.499820
C33	C	0.472332	0.171222	-0.000189
C34	C	0.972332	0.671222	0.499811
C35	C	0.516296	0.057725	-0.000171
C36	C	1.016296	0.557725	0.499829
C37	C	0.588754	0.059646	-0.000156
C38	C	1.088754	0.559646	0.499844
C39	C	0.363483	0.080504	-0.042638
C40	C	0.863483	0.580504	0.457362
C41	C	0.291026	0.078587	-0.042658
C42	C	0.791026	0.578587	0.457342
C43	C	0.248848	0.165292	-0.000233
C44	C	0.748848	0.665292	0.499767
C45	C	0.279134	0.253935	0.042203
C46	C	0.779134	0.753935	0.542203
C47	C	0.351592	0.255856	0.042218
C48	C	0.851592	0.755856	0.542218
C49	C	0.393765	0.169126	-0.000205
C50	C	0.893765	0.669126	0.499795
C51	C	0.126325	0.276702	-0.000254
C52	C	0.626325	0.776702	0.499746
C53	C	0.053864	0.274780	-0.000257
C54	C	0.553864	0.774780	0.499743
C55	C	0.069327	0.045875	-0.000256
C56	C	0.569327	0.545875	0.499744
C57	C	0.141786	0.047800	-0.000245
C58	C	0.641786	0.547800	0.499755
C59	C	0.170280	0.163218	-0.000248
C60	C	0.670280	0.663218	0.499752
C61	C	0.949636	-0.232480	-0.000228
C62	C	1.449636	0.267520	0.499772
C63	C	1.011877	-0.313307	-0.000237
C64	C	1.511877	0.186693	0.499763
C65	C	1.009955	-0.444284	-0.000239
C66	C	1.509955	0.055716	0.499761
C67	C	0.945785	-0.494436	-0.000234
C68	C	1.445785	0.005564	0.499766
C69	C	0.883545	-0.413609	-0.000225
C70	C	1.383545	0.086391	0.499775
C71	C	0.885474	-0.282631	-0.000221
C72	C	1.385474	0.217369	0.499779
C73	C	0.757142	-0.382933	-0.000208
C74	C	1.257142	0.117067	0.499792
C75	C	0.759063	-0.251955	-0.000201
C76	C	1.259063	0.248045	0.499799
C77	C	0.692973	-0.433084	-0.000203
C78	C	1.192973	0.066916	0.499797
C79	C	0.630732	-0.352257	-0.000188
C80	C	1.130732	0.147743	0.499812
C81	C	0.632656	-0.221273	-0.000186
C82	C	1.132656	0.278727	0.499814
C83	C	0.696823	-0.171129	-0.000192
C84	C	1.196823	0.328871	0.499808
C85	C	0.948250	0.157332	-0.000241
C86	C	1.448250	0.657332	0.499759
C87	C	1.025367	0.159373	-0.000265
C88	C	1.525367	0.659373	0.499735
C89	C	0.817342	0.396841	-0.000213
C90	C	1.317342	0.896841	0.499787
C91	C	0.819383	0.536241	-0.000217
C92	C	1.319383	1.036241	0.499783
N93	N	0.821284	0.167203	0.188459
N94	N	1.321284	0.667203	0.688459
N95	N	0.821336	0.167224	-0.188876
N96	N	1.321336	0.667224	0.311124
C97	C	0.868108	0.081605	0.226550
C98	C	1.368108	0.581605	0.726550
C99	C	0.868112	0.081599	0.302778
C100	C	1.368112	0.581599	0.802778
C101	C	0.821300	0.167213	0.340912
C102	C	1.321300	0.667213	0.840912
C103	C	0.774467	0.252818	0.302812
C104	C	1.274467	0.752818	0.802812
C105	C	0.774459	0.252813	0.226586
C106	C	1.274459	0.752813	0.726586
C107	C	0.812750	0.281635	0.461672
C108	C	1.312750	0.781635	0.961672
C109	C	0.812763	0.281642	0.537897
C110	C	1.312763	0.781642	1.037897
C111	C	0.821320	0.167229	0.576020
C112	C	1.321320	0.667229	1.076020
C113	C	0.829878	0.052805	0.537908
C114	C	1.329878	0.552805	1.037908
C115	C	0.829871	0.052799	0.461682
C116	C	1.329871	0.552799	0.961682
C117	C	0.821303	0.167228	0.423567
C118	C	1.321303	0.667228	0.923567
C119	C	0.868151	0.081618	0.696765
C120	C	1.368151	0.581618	1.196765
C121	C	0.868150	0.081611	0.772995
C122	C	1.368150	0.581611	1.272995
C123	C	0.774508	0.252840	0.773027
C124	C	1.274508	0.752840	1.273027
C125	C	0.774505	0.252836	0.696800
C126	C	1.274505	0.752836	1.196800
C127	C	0.821330	0.167227	0.658673
C128	C	1.321330	0.667227	1.158673
H129	H	0.596490	0.382527	-0.000175
H130	H	1.096490	0.882527	0.499825
H131	H	1.060636	-0.510094	-0.000252
H132	H	1.560636	-0.010094	0.499748
H133	H	0.698396	-0.064483	-0.000185
H134	H	1.198396	0.435517	0.499815
H135	H	0.736350	0.322524	0.333865
H136	H	1.236350	0.822524	0.833865
H137	H	0.624542	-0.032767	-0.000145
H138	H	1.124542	0.467233	0.499855
H139	H	0.944226	-0.601085	-0.000244
H140	H	1.444226	-0.101085	0.499756
H141	H	0.465041	0.379041	-0.000189
H142	H	0.965041	0.879041	0.499811
H143	H	0.736329	0.322518	0.195572
H144	H	1.236329	0.822518	0.695572
H145	H	0.376249	0.328028	0.076773
H146	H	0.876249	0.828028	0.576773
H147	H	0.691413	-0.539734	-0.000209
H148	H	1.191413	-0.039734	0.499791
H149	H	0.578490	-0.393102	-0.000189
H150	H	1.078490	0.106898	0.499811
H151	H	0.581972	-0.155470	-0.000181
H152	H	1.081972	0.344530	0.499819
H153	H	0.736380	0.322543	0.665784
H154	H	1.236380	0.822543	1.165784
H155	H	0.906278	0.011900	0.804009
H156	H	1.406278	0.511900	1.304009
H157	H	0.906234	0.011894	0.195510
H158	H	1.406234	0.511894	0.695510
H159	H	0.906243	0.011893	0.333797
H160	H	1.406243	0.511893	0.833797
H161	H	0.805798	0.374813	0.568921
H162	H	1.305798	0.874813	1.068921
H163	H	0.736390	0.322544	0.804076
H164	H	1.236390	0.822544	1.304076
H165	H	0.836838	-0.040369	0.430655
H166	H	1.336838	0.459631	0.930655
H167	H	0.836846	-0.040361	0.568946
H168	H	1.336846	0.459639	1.068946
H169	H	0.805770	0.374810	0.430638
H170	H	1.305770	0.874810	0.930638
H171	H	0.149526	0.370682	-0.000245
H172	H	0.649526	0.870682	0.499755
H173	H	0.906276	0.011905	0.665722
H174	H	1.406276	0.511905	1.165722
H175	H	0.018077	0.367194	-0.000264
H176	H	0.518077	0.867194	0.499736
H177	H	0.244794	0.324538	0.076750
H178	H	0.744794	0.824538	0.576750
H179	H	0.266373	0.006414	-0.077214
H180	H	0.766373	0.506414	0.422786
H181	H	0.046121	-0.048091	-0.000309
H182	H	0.546121	0.451909	0.499691
H183	H	0.397820	0.009895	-0.077190
H184	H	0.897820	0.509895	0.422810
H185	H	0.177574	-0.044609	-0.000238
H186	H	0.677574	0.455391	0.499762
H187	H	0.493085	-0.036239	-0.000189
H188	H	0.993085	0.463761	0.499811
H189	H	0.951208	-0.125834	-0.000217
H190	H	1.451208	0.374166	0.499783
H191	H	1.064122	-0.272459	-0.000235
H192	H	1.564122	0.227541	0.499765
