data_functionalizedCrystal
_audit_creation_method	'MofGen! by Chris Wilmer'
_symmetry_space_group_name_H-M	'P1'
_symmetry_Int_Tables_number	1
_symmetry_cell_setting	triclinic
loop_
_symmetry_equiv_pos_as_xyz
  x,y,z
_cell_length_a	15.944551
_cell_length_b	17.699083
_cell_length_c	16.776229
_cell_angle_alpha	90.007545
_cell_angle_beta	90.002650
_cell_angle_gamma	83.390876
loop_
_atom_site_label
_atom_site_type_symbol
_atom_site_fract_x
_atom_site_fract_y
_atom_site_fract_z
O1	O	-1.114322	-0.097616	-0.066207
O2	O	-0.614322	0.402384	0.433793
O3	O	-0.869747	-0.109651	-0.066227
O4	O	-0.369747	0.390349	0.433773
O5	O	-0.998944	0.006544	-0.066209
O6	O	-0.498944	0.506544	0.433791
O7	O	-0.985125	-0.213811	-0.066224
O8	O	-0.485125	0.286189	0.433776
O9	O	-0.998927	0.006551	0.066367
O10	O	-0.498927	0.506551	0.566367
O11	O	-0.869730	-0.109643	0.066350
O12	O	-0.369730	0.390357	0.566350
O13	O	-1.114305	-0.097609	0.066370
O14	O	-0.614305	0.402391	0.566370
Zn15	Zn	-0.992015	-0.103625	0.087409
Zn16	Zn	-0.492015	0.396375	0.587409
Zn17	Zn	-0.992037	-0.103634	-0.087266
Zn18	Zn	-0.492037	0.396366	0.412734
O19	O	-0.985107	-0.213803	0.066352
O20	O	-0.485107	0.286197	0.566352
C21	C	-0.998440	0.034746	0.000079
C22	C	-0.498440	0.534746	0.500079
C23	C	-0.996955	0.118766	0.000079
C24	C	-0.496955	0.618766	0.500079
C25	C	-0.838445	-0.109147	0.000059
C26	C	-0.338445	0.390853	0.500059
C27	C	-0.745203	-0.107650	0.000052
C28	C	-0.245203	0.392350	0.500052
C29	C	-1.145606	-0.098112	0.000082
C30	C	-0.645606	0.401888	0.500082
C31	C	-1.238849	-0.099610	0.000084
C32	C	-0.738849	0.400390	0.500084
C33	C	-0.530505	-0.032046	0.000072
C34	C	-0.030505	0.467954	0.500072
C35	C	-0.469419	-0.067158	-0.065297
C36	C	0.030581	0.432842	0.434703
C37	C	-0.574482	-0.104940	0.000061
C38	C	-0.074482	0.395060	0.500061
C39	C	-0.469425	-0.067168	0.065413
C40	C	0.030575	0.432832	0.565413
C41	C	-0.409575	-0.102317	0.000074
C42	C	0.090425	0.397683	0.500074
C43	C	-0.514625	-0.140071	-0.065362
C44	C	-0.014625	0.359929	0.434638
C45	C	-0.514637	-0.140071	0.065406
C46	C	-0.014637	0.359929	0.565406
C47	C	-0.453569	-0.175235	0.000021
C48	C	0.046431	0.324765	0.500021
C49	C	-0.669481	-0.106449	0.000053
C50	C	-0.169481	0.393551	0.500053
C51	C	-0.314577	-0.100814	0.000076
C52	C	0.185423	0.399186	0.500076
C53	C	-0.985611	-0.242005	0.000062
C54	C	-0.485611	0.257995	0.500062
C55	C	-0.987097	-0.326026	0.000057
C56	C	-0.487097	0.173974	0.500057
N57	N	-0.992005	-0.103618	0.206620
N58	N	-0.492005	0.396382	0.706620
C59	C	-1.072791	0.167258	0.000087
C60	C	-0.572791	0.667258	0.500087
C61	C	-1.071390	0.246203	0.000080
C62	C	-0.571390	0.746203	0.500080
C63	C	-0.994152	0.276656	0.000071
C64	C	-0.494152	0.776656	0.500071
C65	C	-0.918310	0.228158	0.000061
C66	C	-0.418310	0.728158	0.500061
C67	C	-0.919712	0.149214	0.000063
C68	C	-0.419712	0.649214	0.500063
C69	C	-0.912656	0.546531	0.000054
C70	C	-0.412656	1.046531	0.500054
C71	C	-0.911260	0.625481	0.000055
C72	C	-0.411260	1.125481	0.500055
C73	C	-1.064334	0.643520	0.000071
C74	C	-0.564334	1.143520	0.500071
C75	C	-1.065735	0.564576	0.000073
C76	C	-0.565735	1.064576	0.500073
C77	C	-0.989894	0.516085	0.000059
C78	C	-0.489894	1.016085	0.500059
C79	C	-0.991414	0.430484	0.000065
C80	C	-0.491414	0.930484	0.500065
C81	C	-0.992632	0.362256	0.000070
C82	C	-0.492632	0.862256	0.500070
N83	N	-0.992053	-0.103635	-0.206477
N84	N	-0.492053	0.396365	0.293523
C85	C	-1.049231	-0.052188	0.248345
C86	C	-0.549231	0.447812	0.748345
C87	C	-1.049236	-0.052187	0.331797
C88	C	-0.549236	0.447813	0.831797
C89	C	-0.992018	-0.103621	0.373523
C90	C	-0.492018	0.396379	0.873523
C91	C	-0.934786	-0.155053	0.331793
C92	C	-0.434786	0.344947	0.831793
C93	C	-0.934778	-0.155050	0.248342
C94	C	-0.434778	0.344950	0.748342
C95	C	-0.934816	-0.155068	0.668340
C96	C	-0.434816	0.344932	1.168340
C97	C	-0.934830	-0.155069	0.751796
C98	C	-0.434830	0.344931	1.251796
C99	C	-1.049274	-0.052206	0.751795
C100	C	-0.549274	0.447794	1.251795
C101	C	-1.049266	-0.052202	0.668345
C102	C	-0.549266	0.447798	1.168345
C103	C	-0.992032	-0.103632	0.626621
C104	C	-0.492032	0.396368	1.126621
C105	C	-0.992026	-0.103631	0.536133
C106	C	-0.492026	0.396369	1.036133
C107	C	-0.992027	-0.103626	0.464010
C108	C	-0.492027	0.396374	0.964010
H109	H	-0.563965	0.028449	-0.000004
H110	H	-0.063965	0.528449	0.499996
H111	H	-0.449396	-0.036320	0.120676
H112	H	0.050604	0.463680	0.620676
H113	H	-1.126087	0.683011	0.000078
H114	H	-0.626087	1.183011	0.500078
H115	H	-0.848360	0.650272	0.000049
H116	H	-0.348360	1.150272	0.500049
H117	H	-0.449381	-0.036330	-0.120559
H118	H	0.050619	0.463670	0.379441
H119	H	-0.420283	-0.235793	-0.000020
H120	H	0.079717	0.264207	0.499980
H121	H	-1.095861	-0.010323	0.634374
H122	H	-0.595861	0.489677	1.134374
H123	H	-0.534555	-0.170882	-0.120688
H124	H	-0.034555	0.329118	0.379312
N125	N	-0.541182	-0.180894	0.138606
N126	N	-0.041182	0.319106	0.638606
H127	H	-0.524924	-0.153313	0.187961
H128	H	-0.024924	0.346687	0.687961
H129	H	-0.604358	-0.182041	0.137727
H130	H	-0.104358	0.317959	0.637727
H131	H	-1.095833	-0.010309	0.365770
H132	H	-0.595833	0.489691	0.865770
N133	N	-0.830859	0.494237	0.000044
N134	N	-0.330859	0.994237	0.500044
H135	H	-0.797162	0.504033	-0.049104
H136	H	-0.297162	1.004033	0.450896
H137	H	-0.797216	0.504064	0.049220
H138	H	-0.297216	1.004064	0.549220
N139	N	-1.156098	0.134415	0.000104
N140	N	-0.656098	0.634415	0.500104
H141	H	-1.203927	0.177116	0.000106
H142	H	-0.703927	0.677116	0.500106
H143	H	-1.160022	0.102046	-0.049042
H144	H	-0.660022	0.602046	0.450958
N145	N	-1.153184	0.298506	0.000092
N146	N	-0.653184	0.798506	0.500092
H147	H	-1.202326	0.267235	0.000105
H148	H	-0.702326	0.767235	0.500105
H149	H	-1.155923	0.331658	0.049240
H150	H	-0.655923	0.831658	0.549240
H151	H	-1.128630	0.539786	0.000084
H152	H	-0.628630	1.039786	0.500084
H153	H	-0.855422	0.252959	0.000049
H154	H	-0.355422	0.752959	0.500049
H155	H	-1.095828	-0.010308	0.214378
H156	H	-0.595828	0.489692	0.714378
H157	H	-0.857958	0.109733	0.000056
H158	H	-0.357958	0.609733	0.500056
H159	H	-1.095875	-0.010327	0.785775
H160	H	-0.595875	0.489673	1.285775
N161	N	-0.873109	-0.210542	0.796804
N162	N	-0.373109	0.289458	1.296804
H163	H	-0.836846	-0.243120	0.757710
H164	H	-0.336846	0.256880	1.257710
H165	H	-0.836051	-0.181536	0.831439
H166	H	-0.336051	0.318464	1.331439
N167	N	-0.873084	-0.210532	0.623344
N168	N	-0.373084	0.289468	1.123344
H169	H	-0.836840	-0.243114	0.662442
H170	H	-0.336840	0.256886	1.162442
H171	H	-0.905156	-0.244013	0.588704
H172	H	-0.405156	0.255987	1.088704
N173	N	-0.873065	-0.210524	0.376792
N174	N	-0.373065	0.289476	0.876792
H175	H	-0.881754	-0.202725	0.435990
H176	H	-0.381754	0.297275	0.935990
H177	H	-0.882650	-0.264223	0.362193
H178	H	-0.382650	0.235777	0.862193
N179	N	-0.873052	-0.210516	0.203334
N180	N	-0.373052	0.289484	0.703334
H181	H	-0.836805	-0.243101	0.242429
H182	H	-0.336805	0.256899	0.742429
H183	H	-0.905129	-0.243995	0.168696
H184	H	-0.405129	0.256005	0.668696
