data_functionalizedCrystal
_audit_creation_method	'MofGen! by Chris Wilmer'
_symmetry_space_group_name_H-M	'P1'
_symmetry_Int_Tables_number	1
_symmetry_cell_setting	triclinic
loop_
_symmetry_equiv_pos_as_xyz
  x,y,z
_cell_length_a	13.339070
_cell_length_b	10.654556
_cell_length_c	9.730223
_cell_angle_alpha	89.998368
_cell_angle_beta	90.012960
_cell_angle_gamma	79.941594
loop_
_atom_site_label
_atom_site_type_symbol
_atom_site_fract_x
_atom_site_fract_y
_atom_site_fract_z
O1	O	-0.142466	1.715938	-0.114269
O2	O	-0.156030	1.355041	-0.114286
O3	O	-0.001693	1.494070	-0.114236
O4	O	-0.296803	1.576909	-0.114319
O5	O	-0.001689	1.494056	0.114344
O6	O	-0.156025	1.355027	0.114294
O7	O	-0.142462	1.715925	0.114311
Zn8	Zn	-0.149243	1.535474	0.150594
Zn9	Zn	-0.149248	1.535492	-0.150569
O10	O	-0.296798	1.576895	0.114261
C11	C	-0.155030	1.307899	0.000002
C12	C	-0.152046	1.167449	-0.000002
C13	C	0.036097	1.480070	0.000061
C14	C	0.148692	1.438360	0.000084
C15	C	-0.147848	0.969493	-0.124589
C16	C	-0.150645	1.101459	-0.124599
C17	C	-0.150640	1.101463	0.124612
C18	C	-0.147836	0.969497	0.124620
C19	C	0.190305	1.308290	0.000057
C20	C	0.296093	1.269097	0.000035
C21	C	0.360279	1.359971	0.000030
C22	C	0.318667	1.490044	0.000046
C23	C	0.212868	1.529241	0.000079
C24	C	0.382842	1.580922	0.000051
C25	C	0.341229	1.710995	0.000068
C26	C	0.235441	1.750185	0.000100
C27	C	0.171255	1.659311	0.000106
C28	C	0.488641	1.541725	0.000019
C29	C	0.511204	1.762676	0.000041
C30	C	0.405415	1.801868	0.000062
C31	C	0.665412	1.590895	-0.000018
C32	C	0.552817	1.632605	0.000014
C33	C	-0.143461	1.763066	0.000020
C34	C	-0.146445	1.903516	0.000015
N35	N	-0.149238	1.535470	0.356131
N36	N	-0.149245	1.535502	-0.356106
C37	C	-0.080927	1.597071	0.428079
C38	C	-0.080928	1.597084	0.571962
C39	C	-0.217559	1.473893	0.571936
C40	C	-0.217553	1.473874	0.428056
H41	H	-0.146714	0.915775	-0.226050
O42	O	-0.146602	0.905282	0.245579
C43	C	-0.232661	0.845291	0.253031
H44	H	-0.261478	0.830972	0.144840
H45	H	-0.295131	0.907572	0.314513
C46	C	-0.167959	0.732559	0.457149
C47	C	-0.203348	0.714963	0.324266
H48	H	-0.149881	0.652169	0.501096
H49	H	-0.109981	0.772979	0.452132
H50	H	-0.220024	0.784464	0.508367
H51	H	-0.151279	0.663072	0.273046
H52	H	-0.261317	0.674531	0.329276
H53	H	0.329967	1.163192	0.000015
H54	H	-0.151775	1.155201	0.226060
H55	H	-0.273181	1.423745	0.630512
O56	O	0.573584	1.850914	-0.000215
C57	C	0.635429	1.834857	-0.118602
H58	H	0.597114	1.783996	-0.201340
H59	H	0.712585	1.775466	-0.091867
C60	C	0.697577	2.028717	-0.070649
C61	C	0.650513	1.966258	-0.172274
H62	H	0.706886	2.109770	-0.103754
H63	H	0.655913	2.039534	0.009114
H64	H	0.761868	1.979211	-0.048380
H65	H	0.586218	2.015756	-0.194529
H66	H	0.692166	1.955453	-0.252042
H67	H	-0.273181	1.423705	0.369472
O68	O	-0.151834	1.165573	-0.245604
C69	C	-0.065796	1.225603	-0.253034
H70	H	-0.003669	1.174423	-0.182309
H71	H	-0.087738	1.329310	-0.219570
C72	C	-0.102399	1.283083	-0.488756
C73	C	-0.026090	1.220216	-0.401900
H74	H	-0.077909	1.279766	-0.580584
H75	H	-0.160368	1.242643	-0.483750
H76	H	-0.120678	1.369499	-0.460853
H77	H	-0.007822	1.133798	-0.429793
H78	H	0.031882	1.260640	-0.406914
O79	O	0.529105	1.415396	0.000235
C80	C	0.589686	1.386087	0.118579
H81	H	0.564240	1.460569	0.201342
H82	H	0.672887	1.386061	0.091791
C83	C	0.609094	1.162010	0.070588
C84	C	0.577836	1.253485	0.172243
H85	H	0.601789	1.080213	0.103688
H86	H	0.568284	1.181755	-0.009146
H87	H	0.678427	1.162005	0.048273
H88	H	0.508501	1.253500	0.194544
H89	H	0.618635	1.233736	0.251983
O90	O	-0.014402	1.656713	0.358303
C91	C	0.086123	1.601269	0.393579
H92	H	0.087345	1.500297	0.433128
H93	H	0.115369	1.660668	0.477125
C94	C	0.153274	1.720876	0.217254
C95	C	0.154776	1.596857	0.265819
H96	H	0.195624	1.718159	0.138449
H97	H	0.085549	1.758234	0.193491
H98	H	0.177643	1.770362	0.286888
H99	H	0.130395	1.547378	0.196192
H100	H	0.222499	1.559490	0.289568
O101	O	0.463057	1.322058	-0.000187
C102	C	0.504543	1.369553	-0.118601
H103	H	0.450151	1.456654	-0.158043
H104	H	0.516146	1.292779	-0.201507
C105	C	0.674464	1.300508	-0.034236
C106	C	0.607662	1.407493	-0.082672
H107	H	0.738075	1.323906	-0.012077
H108	H	0.646515	1.268505	0.045540
H109	H	0.684122	1.236539	-0.103333
H110	H	0.597995	1.471452	-0.013570
H111	H	0.635612	1.439507	-0.162436
H112	H	0.138036	1.234315	0.000071
H113	H	0.085112	1.691215	0.000113
H114	H	0.201564	1.856098	0.000129
O115	O	-0.014471	1.656719	0.641913
C116	C	0.048587	1.567516	0.725198
H117	H	0.051051	1.467621	0.681857
H118	H	0.016898	1.571985	0.834233
C119	C	0.153923	1.721675	0.780668
C120	C	0.156955	1.598983	0.727428
H121	H	0.220768	1.741087	0.782050
H122	H	0.111438	1.781775	0.724562
H123	H	0.127510	1.725383	0.871525
H124	H	0.183355	1.595281	0.636567
H125	H	0.199447	1.538883	0.783519
H126	H	0.371519	1.907776	0.000066
