data_functionalizedCrystal
_audit_creation_method	'MofGen! by Chris Wilmer'
_symmetry_space_group_name_H-M	'P1'
_symmetry_Int_Tables_number	1
_symmetry_cell_setting	triclinic
loop_
_symmetry_equiv_pos_as_xyz
  x,y,z
_cell_length_a	16.992694
_cell_length_b	15.538191
_cell_length_c	15.455313
_cell_angle_alpha	91.603349
_cell_angle_beta	87.142206
_cell_angle_gamma	68.970158
loop_
_atom_site_label
_atom_site_type_symbol
_atom_site_fract_x
_atom_site_fract_y
_atom_site_fract_z
O1	O	0.989241	0.191780	-0.072014
O2	O	0.761568	0.189633	-0.072040
O3	O	0.919723	0.056913	-0.072026
O4	O	0.831085	0.324499	-0.072028
O5	O	0.910688	0.064469	0.072235
O6	O	0.752533	0.197189	0.072222
O7	O	0.980206	0.199336	0.072247
Cu8	Cu	0.865545	0.198952	0.085407
Cu9	Cu	0.876229	0.190016	-0.085199
O10	O	0.822051	0.332055	0.072233
C11	C	0.728624	0.190651	0.000088
C12	C	0.643924	0.182416	0.000078
C13	C	0.924480	0.026294	0.000103
C14	C	0.952104	-0.076201	0.000097
C15	C	0.571070	0.261869	0.000078
C16	C	0.491487	0.254127	0.000090
C17	C	0.484758	0.166930	0.000095
C18	C	0.557620	0.087471	0.000098
C19	C	0.637201	0.095214	0.000092
C20	C	0.250294	0.134837	0.000119
C21	C	0.170704	0.127099	0.000122
C22	C	0.104576	0.293756	0.000116
C23	C	0.184162	0.301491	0.000105
C24	C	0.257016	0.222033	0.000112
N25	N	0.403412	0.159014	0.000105
N26	N	0.338360	0.229950	0.000108
C27	C	0.677671	-0.384652	0.000085
C28	C	0.703646	-0.480962	0.000090
C29	C	0.849754	-0.492404	0.000106
C30	C	0.823791	-0.396094	0.000097
C31	C	0.737748	-0.342224	0.000087
C32	C	0.883868	-0.353667	0.000099
C33	C	0.857907	-0.257364	0.000095
C34	C	0.771868	-0.203488	0.000088
C35	C	0.711786	-0.245922	0.000083
C36	C	0.969911	-0.407537	0.000115
C37	C	1.029988	-0.365110	0.000117
C38	C	1.004027	-0.268806	0.000106
C39	C	0.917988	-0.214930	0.000099
C40	C	1.064108	-0.226373	0.000111
C41	C	1.038146	-0.130070	0.000107
C42	C	0.892026	-0.118628	0.000095
C43	C	1.013150	0.198318	0.000118
C44	C	1.097851	0.206553	0.000122
C45	C	0.817294	0.362675	0.000103
C46	C	0.789671	0.465169	0.000103
N47	N	0.858036	0.205237	0.205401
N48	N	0.883746	0.183724	-0.205194
C49	C	0.925237	0.148877	0.250801
C50	C	0.919563	0.153639	0.341609
C51	C	0.846689	0.214767	0.387015
C52	C	0.779482	0.271130	0.341608
C53	C	0.785154	0.266362	0.250803
C54	C	0.822212	0.235320	0.658594
C55	C	0.816545	0.240085	0.749406
C56	C	0.956626	0.122592	0.749400
C57	C	0.962294	0.117834	0.658593
C58	C	0.895085	0.174194	0.613194
N59	N	0.840889	0.219638	0.479834
N60	N	0.900884	0.169317	0.520376
H61	H	0.576539	0.332874	0.000072
Br62	Br	0.693945	0.342849	0.189188
Br63	Br	0.775253	-0.045511	0.000069
H64	H	0.750731	-0.125072	0.000089
H65	H	0.991046	-0.485953	0.000111
H66	H	0.189632	0.372496	0.000090
Br67	Br	0.392615	0.361962	0.000087
H68	H	0.045251	0.358447	0.000112
Br69	Br	1.047833	0.046107	0.811015
Br70	Br	1.146756	-0.438225	0.000140
Br71	Br	0.548490	-0.030869	0.000114
Br72	Br	0.595013	-0.172805	0.000057
H73	H	1.087068	-0.095525	0.000110
H74	H	0.165234	0.056090	0.000126
H75	H	0.309604	0.070135	0.000125
Br76	Br	0.560897	-0.311535	0.000059
Br77	Br	1.024145	0.065920	0.189189
Br78	Br	0.622102	-0.538538	0.000096
H79	H	0.696521	0.030515	0.000091
Br80	Br	0.966522	-0.565520	0.000129
H81	H	1.134164	-0.270247	0.000128
Br82	Br	0.731004	0.311807	0.596987
Br83	Br	1.010763	0.077145	0.403226
Br84	Br	1.061196	0.034879	0.596969
Br85	Br	0.717639	0.323056	0.811023
H86	H	0.720144	0.320898	0.378583
