data_functionalizedCrystal
_audit_creation_method	'MofGen! by Chris Wilmer'
_symmetry_space_group_name_H-M	'P1'
_symmetry_Int_Tables_number	1
_symmetry_cell_setting	triclinic
loop_
_symmetry_equiv_pos_as_xyz
  x,y,z
_cell_length_a	16.120847
_cell_length_b	17.077404
_cell_length_c	17.077384
_cell_angle_alpha	90.060362
_cell_angle_beta	87.023848
_cell_angle_gamma	87.099973
loop_
_atom_site_label
_atom_site_type_symbol
_atom_site_fract_x
_atom_site_fract_y
_atom_site_fract_z
Zn1	Zn	0.331433	1.184652	0.428061
Zn2	Zn	0.831433	1.684652	0.928061
Zn3	Zn	0.471008	1.177845	0.290148
Zn4	Zn	0.971008	1.677845	0.790148
Zn5	Zn	0.331606	1.053281	0.296800
Zn6	Zn	0.831606	1.553281	0.796800
Zn7	Zn	0.470815	1.046740	0.421381
Zn8	Zn	0.970815	1.546740	0.921381
O9	O	0.401215	1.115630	0.359097
O10	O	0.901215	1.615630	0.859097
O11	O	0.349956	1.293595	0.409778
O12	O	0.849956	1.793595	0.909778
O13	O	0.452670	1.161210	0.181176
O14	O	0.952670	1.661210	0.681176
O15	O	0.214911	1.076294	0.319792
O16	O	0.714911	1.576294	0.819792
O17	O	0.452502	1.288594	0.308454
O18	O	0.952502	1.788594	0.808454
O19	O	0.214784	1.172811	0.416228
O20	O	0.714784	1.672811	0.916228
O21	O	0.350252	1.069694	0.186063
O22	O	0.850252	1.569694	0.686063
O23	O	0.350064	0.942567	0.313314
O24	O	0.850064	1.442567	0.813314
O25	O	0.452172	1.065146	0.532121
O26	O	0.952172	1.565146	1.032121
O27	O	0.452340	0.937762	0.404843
O28	O	0.952340	1.437762	0.904843
O29	O	0.349768	1.166468	0.537029
O30	O	0.849768	1.666468	1.037029
O31	O	0.587655	1.154868	0.301976
O32	O	1.087655	1.654868	0.801976
O33	O	0.587512	1.058546	0.398393
O34	O	1.087512	1.558546	0.898393
C35	C	0.401200	0.911682	0.359076
C36	C	0.901200	1.411682	0.859076
C37	C	0.401214	0.824432	0.359085
C38	C	0.901214	1.324432	0.859085
C39	C	0.183750	1.126041	0.369497
C40	C	0.683750	1.626041	0.869497
C41	C	0.091079	1.130478	0.373929
C42	C	0.591079	1.630478	0.873929
C43	C	0.454549	0.780956	0.406660
C44	C	0.954549	1.280956	0.906660
C45	C	0.454551	0.698976	0.406672
C46	C	0.954551	1.198976	0.906672
C47	C	0.401221	0.660472	0.359105
C48	C	0.901221	1.160472	0.859105
C49	C	0.347880	0.703954	0.311529
C50	C	0.847880	1.203954	0.811529
C51	C	0.347874	0.785933	0.311521
C52	C	0.847874	1.285933	0.811521
C53	C	0.347896	0.533083	0.311547
C54	C	0.847896	1.033083	0.811547
C55	C	0.347902	0.451098	0.311553
C56	C	0.847902	0.951098	0.811553
C57	C	0.454573	0.446126	0.406698
C58	C	0.954573	0.946126	0.906698
C59	C	0.454568	0.528105	0.406690
C60	C	0.954568	1.028105	0.906690
C61	C	0.401227	0.571581	0.359112
C62	C	0.901227	1.071581	0.859112
C63	C	-0.078592	1.138593	0.382018
C64	C	0.421408	1.638593	0.882018
C65	C	-0.119829	1.092811	0.336270
C66	C	0.380171	1.592811	0.836270
C67	C	-0.214239	1.097326	0.340771
C68	C	0.285761	1.597326	0.840771
C69	C	0.015827	1.134079	0.377518
C70	C	0.515827	1.634079	0.877518
C71	C	0.617835	1.105280	0.348755
C72	C	1.117835	1.605280	0.848755
C73	C	0.710506	1.100924	0.344357
C74	C	1.210506	1.600924	0.844357
C75	C	0.401440	1.115471	0.155138
C76	C	0.901440	1.615471	0.655138
C77	C	0.401328	1.115546	0.067894
C78	C	0.901328	1.615546	0.567894
C79	C	0.401231	1.320373	0.359119
C80	C	0.901231	1.820373	0.859119
C81	C	0.401238	1.407623	0.359128
C82	C	0.901238	1.907623	0.859128
C83	C	0.348343	1.067553	0.029469
C84	C	0.848343	1.567553	0.529469
C85	C	0.348237	1.067631	-0.052506
C86	C	0.848237	1.567631	0.447494
C87	C	0.401119	1.115697	-0.096055
C88	C	0.901119	1.615697	0.403945
C89	C	0.454106	1.163696	-0.057625
C90	C	0.954106	1.663696	0.442375
C91	C	0.454208	1.163622	0.024349
C92	C	0.954208	1.663622	0.524349
C93	C	0.453892	1.163845	-0.228484
C94	C	0.953892	1.663845	0.271516
C95	C	0.453791	1.163918	-0.310464
C96	C	0.953791	1.663918	0.189536
C97	C	0.347921	1.067854	-0.305339
C98	C	0.847921	1.567854	0.194661
C99	C	0.348022	1.067780	-0.223365
C100	C	0.848022	1.567780	0.276635
C101	C	0.401010	1.115777	-0.184941
C102	C	0.901010	1.615777	0.315059
C103	C	0.400929	1.115837	0.563856
C104	C	0.900929	1.615837	1.063856
C105	C	0.400807	1.115925	0.651112
C106	C	0.900807	1.615925	1.151112
H107	H	0.497980	0.812299	0.445392
H108	H	0.997980	1.312299	0.945392
F109	F	0.291547	1.016751	-0.346235
F110	F	0.791547	1.516751	0.153765
H111	H	-0.114189	1.181176	0.424561
H112	H	0.385811	1.681176	0.924561
F113	F	0.291123	0.579352	0.260910
F114	F	0.791123	1.079352	0.760910
H115	H	0.305092	1.028549	-0.083787
H116	H	0.805092	1.528549	0.416213
F117	F	0.292058	1.016392	0.075811
F118	F	0.792058	1.516392	0.575811
H119	H	0.497037	1.202933	-0.197201
H120	H	0.997037	1.702933	0.302799
F121	F	0.291759	1.016602	-0.177019
F122	F	0.791759	1.516602	0.322981
H123	H	0.497352	1.202704	0.055633
H124	H	0.997352	1.702704	0.555633
H125	H	0.498002	0.410723	0.445440
H126	H	0.998002	0.910723	0.945440
F127	F	0.291116	0.662974	0.260909
F128	F	0.791116	1.162974	0.760909
H129	H	0.497983	0.663581	0.445412
H130	H	0.997983	1.163581	0.945412
F131	F	0.510076	1.215075	-0.356811
F132	F	1.010076	1.715075	0.143189
H133	H	0.497160	1.202836	-0.093089
H134	H	0.997160	1.702836	0.406911
F135	F	0.291106	0.832203	0.260887
F136	F	0.791106	1.332203	0.760887
F137	F	0.511333	0.569081	0.457311
F138	F	1.011333	1.069081	0.957311
H139	H	-0.084228	1.050224	0.293725
H140	H	0.415772	1.550224	0.793725
F141	F	0.291146	0.410122	0.260924
F142	F	0.791146	0.910122	0.760924
