data_functionalizedCrystal
_audit_creation_method	'MofGen! by Chris Wilmer'
_symmetry_space_group_name_H-M	'P1'
_symmetry_Int_Tables_number	1
_symmetry_cell_setting	triclinic
loop_
_symmetry_equiv_pos_as_xyz
  x,y,z
_cell_length_a	12.759401
_cell_length_b	21.295417
_cell_length_c	12.759393
_cell_angle_alpha	89.960830
_cell_angle_beta	89.980535
_cell_angle_gamma	90.030179
loop_
_atom_site_label
_atom_site_type_symbol
_atom_site_fract_x
_atom_site_fract_y
_atom_site_fract_z
Zn1	Zn	1.606140	-0.250578	-0.593953
Zn2	Zn	1.605986	-0.355862	-0.418250
Zn3	Zn	1.430442	-0.250610	-0.418289
Zn4	Zn	1.430382	-0.355812	-0.593888
O5	O	1.518237	-0.303215	-0.506095
O6	O	1.753141	-0.264551	-0.570656
O7	O	1.582660	-0.341934	-0.271234
O8	O	1.453838	-0.162516	-0.441635
O9	O	1.753027	-0.341903	-0.441568
O10	O	1.582923	-0.162492	-0.570694
O11	O	1.453689	-0.264606	-0.271263
O12	O	1.283413	-0.264558	-0.441572
O13	O	1.453736	-0.341819	-0.740918
O14	O	1.283369	-0.341850	-0.570584
O15	O	1.582865	-0.264503	-0.740966
O16	O	1.582602	-0.443944	-0.441505
O17	O	1.453587	-0.443908	-0.570546
C18	C	1.245270	-0.303202	-0.506076
C19	C	1.128493	-0.303212	-0.506093
C20	C	0.963849	-0.343440	-0.438805
C21	C	1.073573	-0.343428	-0.438787
C22	C	1.073684	-0.263002	-0.573414
C23	C	0.963962	-0.263012	-0.573426
C24	C	0.908935	-0.383663	-0.371502
C25	C	0.963737	-0.423872	-0.304180
C26	C	1.073461	-0.423860	-0.304162
C27	C	1.128383	-0.383638	-0.371466
C28	C	1.518100	-0.466767	-0.506037
C29	C	1.518137	-0.536735	-0.506047
C30	C	1.585375	-0.569600	-0.438924
C31	C	1.585424	-0.635342	-0.438948
C32	C	1.518217	-0.668218	-0.506083
C33	C	1.450974	-0.635345	-0.573219
C34	C	1.450934	-0.569604	-0.573201
N35	N	1.426309	-0.771482	-0.514086
N36	N	1.426350	-0.833934	-0.514097
C37	C	1.518334	-0.866292	-0.506144
N38	N	1.610278	-0.833840	-0.498158
N39	N	1.610236	-0.771383	-0.498141
C40	C	1.518253	-0.739503	-0.506111
C41	C	1.585631	-0.970442	-0.439043
C42	C	1.585682	-1.036186	-0.439074
C43	C	1.451223	-1.036188	-0.573339
C44	C	1.451181	-0.970445	-0.573314
C45	C	1.518384	-0.937576	-0.506160
C46	C	1.792271	-0.303229	-0.506115
C47	C	1.909047	-0.303235	-0.506123
C48	C	1.518311	-0.303152	-0.780129
C49	C	1.518342	-0.303125	-0.896905
C50	C	1.518404	-0.139025	-0.506176
C51	C	1.518475	-0.069057	-0.506211
C52	C	1.585589	-0.262863	-0.951794
C53	C	1.585614	-0.262840	-1.061518
C54	C	1.451143	-0.343347	-1.061455
C55	C	1.451113	-0.343366	-0.951733
C56	C	1.652818	-0.222622	-0.896966
C57	C	1.720071	-0.182357	-0.951854
C58	C	1.720096	-0.182334	-1.061579
C59	C	1.652868	-0.222576	-1.116414
C60	C	1.518225	-0.303233	-0.233128
C61	C	1.518397	-0.303083	-0.116352
H62	H	1.217728	-0.383626	-0.371438
Cl63	Cl	1.652887	-0.222537	-1.254355
H64	H	1.396425	-0.943685	-0.627967
H65	H	1.652807	-0.222637	-0.807623
H66	H	1.396506	-1.062954	-0.628007
H67	H	0.919012	-0.456617	-0.249378
H68	H	1.640442	-1.062943	-0.384417
H69	H	1.774798	-0.149589	-0.907200
Cl70	Cl	1.142352	-0.474399	-0.219515
H71	H	1.396409	-0.376109	-1.106111
H72	H	1.640181	-0.662106	-0.384289
H73	H	0.819592	-0.383679	-0.371511
H74	H	1.396339	-0.376141	-0.907042
Cl75	Cl	1.804643	-0.131719	-1.130579
Cl76	Cl	1.366398	-0.528286	-0.657590
Cl77	Cl	1.142730	-0.212444	-0.658024
H78	H	1.396255	-0.662116	-0.627883
H79	H	0.919341	-0.230270	-0.628238
Cl80	Cl	1.670112	-0.929119	-0.354622
H81	H	1.640098	-0.542840	-0.384246
