data_functionalizedCrystal
_audit_creation_method	'MofGen! by Chris Wilmer'
_symmetry_space_group_name_H-M	'P1'
_symmetry_Int_Tables_number	1
_symmetry_cell_setting	triclinic
loop_
_symmetry_equiv_pos_as_xyz
  x,y,z
_cell_length_a	19.288840
_cell_length_b	17.019294
_cell_length_c	17.766277
_cell_angle_alpha	86.114664
_cell_angle_beta	89.983415
_cell_angle_gamma	83.259949
loop_
_atom_site_label
_atom_site_type_symbol
_atom_site_fract_x
_atom_site_fract_y
_atom_site_fract_z
O1	O	0.921538	0.098312	-0.069091
O2	O	1.421538	0.598312	0.430909
O3	O	0.719299	0.111608	-0.069927
O4	O	1.219299	0.611608	0.430073
O5	O	0.826060	-0.009894	-0.062062
O6	O	1.326060	0.490106	0.437938
O7	O	0.814777	0.219814	-0.076956
O8	O	1.314777	0.719814	0.423044
O9	O	0.826041	-0.009900	0.063127
O10	O	1.326041	0.490100	0.563127
O11	O	0.719280	0.111602	0.055262
O12	O	1.219280	0.611602	0.555262
O13	O	0.921519	0.098306	0.056098
O14	O	1.421519	0.598306	0.556098
Cu15	Cu	0.820398	0.104953	0.067111
Cu16	Cu	1.320398	0.604953	0.567111
Cu17	Cu	0.820420	0.104961	-0.080940
Cu18	Cu	1.320420	0.604961	0.419060
O19	O	0.814758	0.219807	0.048233
O20	O	1.314758	0.719807	0.548233
C21	C	0.693412	0.111180	-0.007301
C22	C	1.193412	0.611180	0.492699
C23	C	0.616305	0.109906	-0.007209
C24	C	1.116305	0.609906	0.492791
C25	C	0.580111	0.109297	-0.075411
C26	C	1.080111	0.609297	0.424589
C27	C	0.507661	0.108091	-0.075342
C28	C	1.007661	0.608091	0.424658
C29	C	0.471411	0.107478	-0.007066
C30	C	0.971411	0.607478	0.492934
C31	C	0.507614	0.108091	0.061146
C32	C	1.007614	0.608091	0.561146
C33	C	0.580061	0.109305	0.061074
C34	C	1.080061	0.609305	0.561074
C35	C	0.361991	0.059347	0.048324
C36	C	0.861991	0.559347	0.548324
C37	C	0.289546	0.058128	0.048393
C38	C	0.789546	0.558128	0.548393
C39	C	0.247961	0.103737	-0.006843
C40	C	0.747961	0.603737	0.493157
C41	C	0.278831	0.150554	-0.062159
C42	C	0.778831	0.650554	0.437841
C43	C	0.351278	0.151768	-0.062231
C44	C	0.851278	0.651768	0.437769
C45	C	0.392855	0.106162	-0.006981
C46	C	0.892855	0.606162	0.493019
C47	C	0.133209	0.101821	-0.074975
C48	C	0.633209	0.601821	0.425025
C49	C	0.060758	0.100620	-0.074904
C50	C	0.560758	0.600620	0.425096
C51	C	0.060713	0.100612	0.061587
C52	C	0.560713	0.600612	0.561587
C53	C	0.133162	0.101821	0.061513
C54	C	0.633162	0.601821	0.561513
C55	C	0.169406	0.102422	-0.006770
C56	C	0.669406	0.602422	0.493230
C57	C	0.825622	-0.039284	0.002437
C58	C	1.325622	0.460716	0.502437
C59	C	0.824338	-0.126850	0.008111
C60	C	1.324338	0.373150	0.508111
C61	C	0.823747	-0.167981	-0.057463
C62	C	1.323747	0.332019	0.442537
C63	C	0.822536	-0.250258	-0.052130
C64	C	1.322536	0.249742	0.447870
C65	C	0.821921	-0.291403	0.018779
C66	C	1.321921	0.208597	0.518779
C67	C	0.822511	-0.250266	0.084358
C68	C	1.322511	0.249734	0.584358
C69	C	0.823717	-0.167990	0.079024
C70	C	1.323717	0.332010	0.579024
C71	C	0.818275	-0.539823	0.038299
C72	C	1.318275	-0.039823	0.538299
C73	C	0.817071	-0.622105	0.043628
C74	C	1.317071	-0.122105	0.543628
C75	C	0.817095	-0.622091	-0.092861
C76	C	1.317095	-0.122091	0.407139
C77	C	0.818305	-0.539814	-0.098188
C78	C	1.318305	-0.039814	0.401812
C79	C	0.818891	-0.498684	-0.032609
C80	C	1.318891	0.001316	0.467391
C81	C	0.820686	-0.375503	0.024232
C82	C	1.320686	0.124497	0.524232
C83	C	0.820121	-0.414584	-0.038063
C84	C	1.320121	0.085416	0.461937
C85	C	0.947406	0.098734	-0.006529
C86	C	1.447406	0.598734	0.493471
C87	C	1.024513	0.100008	-0.006627
C88	C	1.524513	0.600008	0.493373
C89	C	0.815196	0.249198	-0.016267
C90	C	1.315196	0.749198	0.483733
C91	C	0.816480	0.336764	-0.021946
C92	C	1.316480	0.836764	0.478054
N93	N	0.820387	0.104948	0.171242
N94	N	1.320387	0.604948	0.671242
N95	N	0.820436	0.104960	-0.185070
N96	N	1.320436	0.604960	0.314930
C97	C	0.867676	0.051173	0.214109
C98	C	1.367676	0.551173	0.714109
C99	C	0.867680	0.051170	0.292911
C100	C	1.367680	0.551170	0.792911
C101	C	0.820402	0.104954	0.328842
C102	C	1.320402	0.604954	0.828842
C103	C	0.773104	0.158733	0.285964
C104	C	1.273104	0.658733	0.785964
C105	C	0.773097	0.158729	0.207164
C106	C	1.273097	0.658729	0.707164
C107	C	0.811230	0.176830	0.449020
C108	C	1.311230	0.676830	0.949020
C109	C	0.811242	0.176834	0.527818
C110	C	1.311242	0.676834	1.027818
C111	C	0.820421	0.104963	0.571887
C112	C	1.320421	0.604963	1.071887
C113	C	0.829601	0.033085	0.537148
C114	C	1.329601	0.533085	1.037148
C115	C	0.829594	0.033082	0.458348
C116	C	1.329594	0.533082	0.958348
C117	C	0.820404	0.104963	0.414287
C118	C	1.320404	0.604963	0.914287
C119	C	0.867717	0.051181	0.700202
C120	C	1.367717	0.551181	1.200202
C121	C	0.867716	0.051176	0.779005
C122	C	1.367716	0.551176	1.279005
C123	C	0.773143	0.158746	0.772056
C124	C	1.273143	0.658746	1.272056
C125	C	0.773140	0.158744	0.693254
C126	C	1.273140	0.658744	1.193254
C127	C	0.820431	0.104962	0.657332
C128	C	1.320431	0.604962	1.157332
H129	H	0.395844	0.022205	0.093307
H130	H	0.895844	0.522205	0.593307
O131	O	0.824410	-0.123606	-0.133945
O132	O	1.324410	0.376394	0.366055
H133	H	0.777643	-0.078915	-0.140097
H134	H	1.277643	0.421085	0.359903
O135	O	0.821863	-0.294618	-0.122856
O136	O	1.321863	0.205382	0.377144
H137	H	0.822489	-0.252184	-0.173059
H138	H	1.322489	0.247816	0.326941
H139	H	0.818807	-0.506319	-0.155930
H140	H	1.318807	-0.006319	0.344070
O141	O	0.839483	-0.044436	0.420876
O142	O	1.339483	0.455564	0.920876
H143	H	0.845861	-0.094416	0.464752
H144	H	1.345861	0.405584	0.964752
O145	O	0.468478	0.107811	0.134764
O146	O	0.968478	0.607811	0.634764
H147	H	0.412005	0.106996	0.123347
H148	H	0.912005	0.606996	0.623347
H149	H	0.162720	0.102319	-0.130576
H150	H	0.662720	0.602319	0.369424
O151	O	0.801336	0.254353	0.401489
O152	O	1.301336	0.754353	0.901489
H153	H	0.794966	0.304333	0.438881
H154	H	1.294966	0.804333	0.938881
H155	H	0.820188	-0.409013	0.081966
H156	H	1.320188	0.090987	0.581966
H157	H	0.906181	0.007379	0.184864
H158	H	1.406181	0.507379	0.684864
H159	H	0.816617	-0.655588	-0.146251
H160	H	1.316617	-0.155588	0.353749
H161	H	0.906190	0.007378	0.327821
H162	H	1.406190	0.507378	0.827821
H163	H	0.824188	-0.134501	0.132421
H164	H	1.324188	0.365499	0.632421
H165	H	0.837075	-0.025439	0.573028
H166	H	1.337075	0.474561	1.073028
H167	H	0.376409	0.189890	-0.107269
H168	H	0.876409	0.689890	0.392731
H169	H	0.906221	0.007386	0.670953
H170	H	1.406221	0.507386	1.170953
O171	O	0.816401	-0.666487	0.120111
O172	O	1.316401	-0.166487	0.620111
H173	H	0.817003	-0.624064	0.164817
H174	H	1.317003	-0.124064	0.664817
O175	O	0.233976	0.199766	-0.121719
O176	O	0.733976	0.699766	0.378281
H177	H	0.240523	0.263332	-0.118096
H178	H	0.740523	0.763332	0.381904
H179	H	0.818766	-0.506347	0.091698
H180	H	1.318766	-0.006347	0.591698
O181	O	0.021565	0.100066	0.135194
O182	O	0.521565	0.600066	0.635194
H183	H	-0.005238	0.045797	0.142023
H184	H	0.494762	0.545797	0.642023
H185	H	0.822006	-0.283772	0.142093
H186	H	1.322006	0.216228	0.642093
H187	H	0.906222	0.007382	0.813910
H188	H	1.406222	0.507382	1.313910
H189	H	0.609616	0.109786	-0.131013
H190	H	1.109616	0.609786	0.368987
O191	O	0.820780	-0.370213	-0.114544
O192	O	1.320780	0.129787	0.385456
H193	H	0.868651	-0.339934	-0.119775
H194	H	1.368651	0.160066	0.380225
H195	H	0.031289	0.100129	-0.130445
H196	H	0.531289	0.600129	0.369555
O197	O	0.172206	0.102490	0.135073
O198	O	0.672206	0.602490	0.635073
H199	H	0.134830	0.101863	0.182564
H200	H	0.634830	0.601863	0.682564
O201	O	0.619105	0.109972	0.134637
O202	O	1.119105	0.609972	0.634637
H203	H	0.581730	0.109346	0.182128
H204	H	1.081730	0.609346	0.682128
H205	H	0.734645	0.202535	0.801310
H206	H	1.234645	0.702535	1.301310
O207	O	0.722144	0.216752	0.647009
O208	O	1.222144	0.716752	1.147009
H209	H	0.689272	0.254158	0.685230
H210	H	1.189272	0.754158	1.185230
O211	O	0.801355	0.254355	0.565286
O212	O	1.301355	0.754355	1.065286
H213	H	0.794962	0.304331	0.521406
H214	H	1.294962	0.804331	1.021406
O215	O	0.256250	0.007640	0.108054
O216	O	0.756250	0.507640	0.608054
H217	H	0.297334	-0.023856	0.146461
H218	H	0.797334	0.476144	0.646461
O219	O	0.722113	0.216749	0.324710
O220	O	1.222113	0.716749	0.824710
H221	H	0.730068	0.207724	0.386707
H222	H	1.230068	0.707724	0.886707
O223	O	0.722096	0.216737	0.160920
O224	O	1.222096	0.716737	0.660920
H225	H	0.689221	0.254141	0.199139
H226	H	1.189221	0.754141	0.699139
H227	H	0.478186	0.107596	-0.130883
H228	H	0.978186	0.607596	0.369117
