data_functionalizedCrystal
_audit_creation_method	'MofGen! by Chris Wilmer'
_symmetry_space_group_name_H-M	'P1'
_symmetry_Int_Tables_number	1
_symmetry_cell_setting	triclinic
loop_
_symmetry_equiv_pos_as_xyz
  x,y,z
_cell_length_a	14.519731
_cell_length_b	15.995350
_cell_length_c	12.996460
_cell_angle_alpha	90.003914
_cell_angle_beta	90.005673
_cell_angle_gamma	83.590614
loop_
_atom_site_label
_atom_site_type_symbol
_atom_site_fract_x
_atom_site_fract_y
_atom_site_fract_z
O1	O	1.223657	0.109845	0.085564
O2	O	0.955159	0.122752	0.085565
O3	O	1.096748	-0.005578	0.085563
O4	O	1.082069	0.238175	0.085565
O5	O	1.096733	-0.005585	-0.085571
O6	O	0.955145	0.122745	-0.085569
O7	O	1.223642	0.109838	-0.085570
Cu8	Cu	1.089392	0.116291	-0.101195
Cu9	Cu	1.089410	0.116299	0.101190
O10	O	1.082054	0.238167	-0.085569
C11	C	0.920794	0.122144	-0.000002
C12	C	0.818417	0.120331	-0.000001
C13	C	0.735275	0.118859	0.000003
C14	C	0.630970	0.117019	0.000003
C15	C	0.547834	0.115559	0.000003
C16	C	0.443521	0.113719	0.000005
C17	C	1.096134	-0.036777	-0.000002
C18	C	1.094314	-0.129730	0.000004
C19	C	1.087781	-0.467488	0.000001
C20	C	0.986944	-0.420212	0.000385
C21	C	0.988764	-0.323519	-0.000001
C22	C	1.091021	-0.299922	0.000003
C23	C	1.140749	-0.340926	-0.097721
C24	C	1.138216	-0.437566	-0.097803
C25	C	1.140316	-0.437912	0.096808
C26	C	1.140292	-0.340967	0.098100
C27	C	1.092858	-0.205222	0.000001
C28	C	1.085947	-0.562189	-0.000004
C29	C	1.258008	0.110446	-0.000001
C30	C	1.360385	0.112258	0.000005
C31	C	1.082668	0.269367	-0.000001
C32	C	1.084488	0.362320	-0.000000
N33	N	1.089387	0.116284	-0.243542
C34	C	1.089408	0.116300	-0.663357
C35	C	1.089400	0.116298	-0.546552
C36	C	1.089398	0.116293	-0.453453
C37	C	1.089388	0.116290	-0.336641
N38	N	1.089422	0.116299	0.243537
H39	H	0.946646	-0.438804	0.070465
H40	H	0.946813	-0.439872	-0.069304
C41	C	1.089201	-0.462377	-0.196483
C42	C	1.052634	-0.394288	-0.274664
C43	C	1.003615	-0.419094	-0.373344
C44	C	0.991163	-0.511988	-0.393843
C45	C	1.027731	-0.580082	-0.315661
C46	C	1.076751	-0.555277	-0.216980
H47	H	1.061850	-0.325517	-0.259491
H48	H	0.976544	-0.368685	-0.431220
H49	H	0.954876	-0.530350	-0.466892
H50	H	1.018515	-0.648853	-0.330834
H51	H	1.103821	-0.605685	-0.159104
C52	C	0.935940	-0.285197	0.094624
C53	C	0.968497	-0.312083	0.203668
C54	C	0.915662	-0.273768	0.298292
C55	C	0.830269	-0.208567	0.283873
C56	C	0.797706	-0.181678	0.174824
C57	C	0.850542	-0.219993	0.080200
H58	H	1.031715	-0.360352	0.214347
H59	H	0.939767	-0.293674	0.379017
H60	H	0.791157	-0.180204	0.353919
H61	H	0.734489	-0.133409	0.164145
H62	H	0.826437	-0.200087	-0.000525
H63	H	1.103935	-0.313772	0.170393
C64	C	1.242231	-0.321662	-0.102657
C65	C	1.304718	-0.355699	-0.192453
C66	C	1.406195	-0.336423	-0.197395
C67	C	1.445185	-0.283111	-0.112541
C68	C	1.382697	-0.249071	-0.022738
C69	C	1.281220	-0.268347	-0.017796
H70	H	1.275856	-0.395166	-0.255273
H71	H	1.452452	-0.361622	-0.263874
H72	H	1.520304	-0.268842	-0.116199
H73	H	1.411559	-0.209604	0.040082
H74	H	1.234963	-0.243148	0.048683
C75	C	0.935595	-0.285955	-0.094803
C76	C	0.891350	-0.343953	-0.170398
C77	C	0.838181	-0.306389	-0.265207
C78	C	0.829257	-0.210828	-0.284421
C79	C	0.873504	-0.152825	-0.208823
C80	C	0.926672	-0.190388	-0.114015
H81	H	0.897954	-0.414698	-0.156177
H82	H	0.805427	-0.349328	-0.321169
H83	H	0.789899	-0.183022	-0.354604
H84	H	0.866899	-0.082079	-0.223044
H85	H	0.959426	-0.147449	-0.058053
H86	H	1.214662	-0.469557	0.097468
C87	C	1.238223	-0.480981	-0.103816
C88	C	1.320134	-0.427684	-0.108532
C89	C	1.420138	-0.471095	-0.114556
C90	C	1.438232	-0.567803	-0.115864
C91	C	1.356319	-0.621105	-0.111148
C92	C	1.256314	-0.577695	-0.105124
H93	H	1.306742	-0.356091	-0.107564
H94	H	1.480776	-0.431637	-0.118048
H95	H	1.512261	-0.599938	-0.120324
H96	H	1.369710	-0.692699	-0.112116
H97	H	1.195677	-0.617153	-0.101633
H98	H	1.106199	-0.312602	-0.170447
H99	H	1.107354	-0.458501	0.170877
H100	H	1.214863	-0.325488	0.104003
