data_functionalizedCrystal
_audit_creation_method	'MofGen! by Chris Wilmer'
_symmetry_space_group_name_H-M	'P1'
_symmetry_Int_Tables_number	1
_symmetry_cell_setting	triclinic
loop_
_symmetry_equiv_pos_as_xyz
  x,y,z
_cell_length_a	6.817900
_cell_length_b	11.102288
_cell_length_c	27.923559
_cell_angle_alpha	95.506689
_cell_angle_beta	98.965071
_cell_angle_gamma	108.605689
loop_
_atom_site_label
_atom_site_type_symbol
_atom_site_fract_x
_atom_site_fract_y
_atom_site_fract_z
V1	V	-4.003138	-0.177647	-0.151268
O2	O	-3.964234	0.006677	-0.148389
O3	O	-3.980656	-0.350455	-0.150234
O4	O	-3.932645	-0.175730	-0.217242
O5	O	-4.012577	-0.169257	-0.080917
V6	V	-4.486270	-0.155503	-0.142854
O7	O	-4.265253	-0.226221	-0.169726
O8	O	-4.674352	-0.106929	-0.124396
O9	O	-4.285545	0.017305	-0.143888
O10	O	-4.642571	-0.339826	-0.145733
O11	O	-4.594227	-0.163893	-0.213205
O12	O	-4.333556	-0.157420	-0.076880
C13	C	-3.832677	-0.392556	-0.147847
C14	C	-3.895435	-0.533834	-0.147441
C15	C	-4.107192	-0.606709	-0.149671
C16	C	-4.166151	-0.739456	-0.149293
C17	C	-3.801572	-0.726440	-0.144454
C18	C	-3.742619	-0.593697	-0.144835
C19	C	-3.771433	-0.169676	-0.233322
C20	C	-3.795252	-0.169253	-0.287256
C21	C	-3.998433	-0.283248	-0.628641
C22	C	-4.088076	-0.281732	-0.831350
O23	O	-4.146702	-0.380589	-0.863456
N24	N	-4.044071	-0.165072	-0.849766
C25	C	-3.977663	-0.048783	-0.817502
O26	O	-3.942312	0.050478	-0.837817
C27	C	-3.888036	-0.050301	-0.614794
C28	C	-3.932025	-0.166968	-0.596381
C29	C	-4.042420	-0.399906	-0.610227
C30	C	-4.019999	-0.400283	-0.559553
C31	C	-3.953591	-0.284003	-0.527292
C32	C	-3.909604	-0.167345	-0.545706
C33	C	-3.821643	0.065987	-0.582531
C34	C	-3.799245	0.065597	-0.531852
C35	C	-3.843234	-0.051070	-0.513438
C36	C	-3.820775	-0.051442	-0.462772
N37	N	-3.864780	-0.168102	-0.444355
C38	C	-3.931188	-0.284383	-0.476616
C39	C	-4.024719	-0.047994	-0.923927
C40	C	-4.047122	-0.047614	-0.974603
C41	C	-4.157537	-0.280564	-0.988448
C42	C	-4.135119	-0.280942	-0.937770
C43	C	-4.068724	-0.164655	-0.905510
C44	C	-3.884096	-0.285166	-0.370195
C45	C	-3.861660	-0.285533	-0.319516
C46	C	-3.751258	-0.052584	-0.305676
C47	C	-3.773681	-0.052216	-0.356351
C48	C	-3.840112	-0.168518	-0.388610
O49	O	-3.762182	0.047362	-0.430638
O50	O	-3.966573	-0.383630	-0.456291
C51	C	-4.020854	-0.282871	-0.679316
C52	C	-3.976867	-0.166213	-0.697730
C53	C	-3.910459	-0.049933	-0.665469
C54	C	-3.999270	-0.165833	-0.748406
C55	C	-4.065678	-0.282113	-0.780666
C56	C	-4.109682	-0.398774	-0.762250
C57	C	-4.087262	-0.399151	-0.711576
C58	C	-3.866454	0.066727	-0.683885
C59	C	-3.888877	0.067095	-0.734560
C60	C	-3.955285	-0.049185	-0.766821
C61	C	-4.096867	0.059400	-0.146273
C62	C	-4.013347	0.200676	-0.146682
C63	C	-4.158112	-0.163478	-0.060797
C64	C	-4.113530	-0.163895	-0.006863
H65	H	-3.897479	-0.380541	-0.304527
C66	C	-3.906720	0.077326	-0.407635
C67	C	-3.725323	0.076017	-0.376599
H68	H	-3.876871	0.156489	-0.420136
H69	H	-4.016818	0.068268	-0.389725
H70	H	-3.949468	0.008117	-0.434099
H71	H	-3.682583	0.145221	-0.350133
H72	H	-3.615190	0.085089	-0.394509
H73	H	-3.677163	-0.775196	-0.142331
H74	H	-3.697180	0.042088	-0.279400
C75	C	-4.345823	-0.422660	-0.891168
C76	C	-4.183451	-0.409217	-0.917556
H77	H	-4.375643	-0.501862	-0.878696
H78	H	-4.468841	-0.421736	-0.912222
H79	H	-4.303081	-0.353505	-0.864684
H80	H	-4.226199	-0.478367	-0.944043
H81	H	-4.060407	-0.410152	-0.896501
H82	H	-3.570176	-0.534360	-0.143021
C83	C	-4.468295	-0.773792	-0.111394
C84	C	-4.398919	-0.819555	-0.151740
H85	H	-4.611999	-0.823247	-0.112903
H86	H	-4.455043	-0.686178	-0.111997
H87	H	-4.384909	-0.780937	-0.081918
H88	H	-4.482295	-0.812401	-0.181215
H89	H	-4.412188	-0.907191	-0.151141
H90	H	-3.938185	-0.379870	-0.396456
H91	H	-4.123085	-0.494153	-0.696589
C92	C	-4.279120	-0.482590	-0.194805
C93	C	-4.275165	-0.540907	-0.152540
H94	H	-4.382818	-0.441964	-0.196575
H95	H	-4.312670	-0.546050	-0.222974
H96	H	-4.144558	-0.420187	-0.193526
H97	H	-4.409723	-0.603317	-0.153821
H98	H	-4.241628	-0.477439	-0.124364
C99	C	-4.131784	0.145041	-0.980724
C100	C	-3.998751	0.080628	-0.994841
H101	H	-4.101934	0.224211	-0.993219
H102	H	-4.108925	0.161445	-0.945930
H103	H	-4.274717	0.093155	-0.993457
H104	H	-3.855818	0.132510	-0.982105
H105	H	-4.021593	0.064229	-1.029642
C106	C	-4.131867	-0.630514	-0.578350
C107	C	-4.068695	-0.528540	-0.539322
H108	H	-4.162042	-0.709701	-0.565863
H109	H	-4.021680	-0.621568	-0.596226
H110	H	-4.254748	-0.629441	-0.599425
H111	H	-3.945805	-0.529608	-0.518249
H112	H	-4.178892	-0.537490	-0.521438
H113	H	-3.785803	0.160990	-0.597514
C114	C	-4.303545	-0.540672	-0.677571
C115	C	-4.115416	-0.527738	-0.645682
H116	H	-4.348603	-0.619600	-0.699454
H117	H	-4.280548	-0.471163	-0.695797
H118	H	-4.409080	-0.540046	-0.659088
H119	H	-4.009876	-0.528354	-0.664165
H120	H	-4.138403	-0.597266	-0.627455
C121	C	-4.382565	-0.603218	-0.791986
C122	C	-4.182691	-0.526594	-0.797717
H123	H	-4.427635	-0.682127	-0.813882
H124	H	-4.480111	-0.559367	-0.799021
H125	H	-4.375489	-0.620143	-0.759170
H126	H	-4.189771	-0.509661	-0.830533
H127	H	-4.085122	-0.570455	-0.790685
C128	C	-4.418675	-0.421263	-1.055797
C129	C	-4.230561	-0.408387	-1.023914
H130	H	-4.463771	-0.500175	-1.077691
H131	H	-4.395644	-0.351730	-1.074011
H132	H	-4.524199	-0.420637	-1.037310
H133	H	-4.125032	-0.409003	-1.042401
H134	H	-4.253582	-0.477938	-1.005698
H135	H	-3.853036	0.162107	-0.749547
C136	C	-4.107351	0.080750	-0.861242
C137	C	-3.951738	0.079846	-0.888473
H138	H	-4.062296	0.159679	-0.839360
H139	H	-4.130321	0.011243	-0.843016
H140	H	-4.234966	0.071962	-0.882885
H141	H	-3.824127	0.088625	-0.866830
H142	H	-3.928742	0.149373	-0.906701
C143	C	-3.692373	0.295898	-0.523261
C144	C	-3.726249	0.193428	-0.496392
H145	H	-3.647293	0.374813	-0.501369
H146	H	-3.819994	0.287118	-0.544890
H147	H	-3.586825	0.295266	-0.541740
H148	H	-3.831808	0.194054	-0.477916
H149	H	-3.598610	0.202211	-0.474754
H150	H	-3.812383	0.161419	-0.657623
