data_functionalizedCrystal
_audit_creation_method	'MofGen! by Chris Wilmer'
_symmetry_space_group_name_H-M	'P1'
_symmetry_Int_Tables_number	1
_symmetry_cell_setting	triclinic
loop_
_symmetry_equiv_pos_as_xyz
  x,y,z
_cell_length_a	19.077105
_cell_length_b	19.077068
_cell_length_c	19.805399
_cell_angle_alpha	92.269429
_cell_angle_beta	87.684312
_cell_angle_gamma	90.115316
loop_
_atom_site_label
_atom_site_type_symbol
_atom_site_fract_x
_atom_site_fract_y
_atom_site_fract_z
Zn1	Zn	1.062984	-0.322994	-0.436187
Zn2	Zn	1.562984	0.177006	0.063813
Zn3	Zn	1.058172	-0.440500	-0.327347
Zn4	Zn	1.558172	0.059500	0.172653
Zn5	Zn	0.945478	-0.318285	-0.318297
Zn6	Zn	1.445478	0.181715	0.181703
Zn7	Zn	0.940719	-0.435736	-0.435780
Zn8	Zn	1.440719	0.064264	0.064220
O9	O	1.001838	-0.379379	-0.379403
O10	O	1.501838	0.120621	0.120597
O11	O	1.160677	-0.342546	-0.425707
O12	O	1.660677	0.157454	0.074293
O13	O	1.043201	-0.424310	-0.231430
O14	O	1.543201	0.075690	0.268570
O15	O	0.965071	-0.220580	-0.330318
O16	O	1.465071	0.279420	0.169682
O17	O	1.157142	-0.428877	-0.345743
O18	O	1.657142	0.071123	0.154257
O19	O	1.051402	-0.224039	-0.416931
O20	O	1.551402	0.275961	0.083069
O21	O	0.960405	-0.334520	-0.224781
O22	O	1.460405	0.165480	0.275219
O23	O	0.846515	-0.329900	-0.329923
O24	O	1.346515	0.170100	0.170077
O25	O	0.956960	-0.420757	-0.530550
O26	O	1.456960	0.079243	-0.030550
O27	O	0.843019	-0.416191	-0.416238
O28	O	1.343019	0.083809	0.083762
O29	O	1.046787	-0.337927	-0.530849
O30	O	1.546787	0.162073	-0.030849
O31	O	1.038587	-0.538198	-0.345349
O32	O	1.538587	-0.038198	0.154651
O33	O	0.952294	-0.534698	-0.425014
O34	O	1.452294	-0.034698	0.074986
C35	C	0.819271	-0.372018	-0.372055
C36	C	1.319271	0.127982	0.127945
C37	C	0.741167	-0.368886	-0.368928
C38	C	1.241167	0.131114	0.131072
C39	C	0.702669	-0.412410	-0.412333
C40	C	1.202669	0.087590	0.087667
C41	C	0.629282	-0.409458	-0.409398
C42	C	1.129282	0.090542	0.090602
C43	C	0.594395	-0.362986	-0.363054
C44	C	1.094395	0.137014	0.136946
C45	C	0.632899	-0.319458	-0.319647
C46	C	1.132899	0.180542	0.180353
C47	C	0.706284	-0.322406	-0.322586
C48	C	1.206284	0.177594	0.177414
C49	C	0.375110	-0.349338	-0.349456
C50	C	0.875110	0.150662	0.150544
C51	C	0.301720	-0.346394	-0.346519
C52	C	0.801720	0.153606	0.153481
C53	C	0.298109	-0.436393	-0.436270
C54	C	0.798109	0.063607	0.063730
C55	C	0.371496	-0.439341	-0.439202
C56	C	0.871496	0.060659	0.060798
C57	C	0.409993	-0.395811	-0.395798
C58	C	0.909993	0.104189	0.104202
N59	N	0.519382	-0.359969	-0.360051
N60	N	1.019382	0.140031	0.139949
N61	N	0.485004	-0.398824	-0.398804
N62	N	0.985004	0.101176	0.101196
C63	C	0.994421	-0.561944	-0.386135
C64	C	1.494421	-0.061944	0.113865
C65	C	0.991312	-0.640049	-0.389040
C66	C	1.491312	-0.140049	0.110960
C67	C	1.034814	-0.678543	-0.348965
C68	C	1.534814	-0.178543	0.151035
C69	C	1.031894	-0.751931	-0.351702
C70	C	1.531894	-0.251931	0.148298
C71	C	0.985468	-0.786824	-0.394510
C72	C	1.485468	-0.286824	0.105490
C73	C	0.941964	-0.748324	-0.434590
C74	C	1.441964	-0.248324	0.065410
C75	C	0.944888	-0.674938	-0.431856
C76	C	1.444888	-0.174938	0.068144
C77	C	0.971905	-1.006113	-0.407133
C78	C	1.471905	-0.506113	0.092867
C79	C	0.968983	-1.079504	-0.409862
C80	C	1.468983	-0.579504	0.090138
C81	C	1.058914	-1.083107	-0.326974
C82	C	1.558914	-0.583107	0.173026
C83	C	1.061831	-1.009718	-0.324241
C84	C	1.561831	-0.509718	0.175759
C85	C	1.018330	-0.971225	-0.364323
C86	C	1.518330	-0.471225	0.135677
N87	N	0.982481	-0.861838	-0.397307
N88	N	1.482481	-0.361838	0.102693
N89	N	1.021321	-0.896213	-0.361530
N90	N	1.521321	-0.396213	0.138470
C91	C	1.185119	-0.386768	-0.386780
C92	C	1.685119	0.113232	0.113220
C93	C	1.263222	-0.389917	-0.389923
C94	C	1.763222	0.110083	0.110077
C95	C	1.001879	-0.379336	-0.555945
C96	C	1.501879	0.120664	-0.055945
C97	C	1.001897	-0.379318	-0.631177
C98	C	1.501897	0.120682	-0.131177
C99	C	1.009304	-0.196101	-0.372660
C100	C	1.509304	0.303899	0.127340
C101	C	1.012485	-0.117999	-0.369787
C102	C	1.512485	0.382001	0.130213
C103	C	1.048671	-0.336186	-0.666678
C104	C	1.548671	0.163814	-0.166678
C105	C	1.048679	-0.336165	-0.737366
C106	C	1.548679	0.163835	-0.237366
C107	C	1.001916	-0.379282	-0.772552
C108	C	1.501916	0.120718	-0.272552
C109	C	0.955137	-0.422416	-0.737047
C110	C	1.455137	0.077584	-0.237047
C111	C	0.955126	-0.422432	-0.666360
C112	C	1.455126	0.077568	-0.166360
C113	C	0.955179	-0.422352	-1.022119
C114	C	1.455179	0.077648	-0.522119
C115	C	0.955195	-0.422334	-1.092811
C116	C	1.455195	0.077666	-0.592811
C117	C	1.048733	-0.336086	-1.093126
C118	C	1.548733	0.163914	-0.593126
C119	C	1.048722	-0.336102	-1.022439
C120	C	1.548722	0.163898	-0.522439
C121	C	1.001940	-0.379232	-0.986939
C122	C	1.501940	0.120768	-0.486939
C123	C	1.001931	-0.379253	-0.910291
C124	C	1.501931	0.120747	-0.410291
C125	C	1.001928	-0.379266	-0.849199
C126	C	1.501928	0.120734	-0.349199
C127	C	1.001840	-0.379372	-0.203547
C128	C	1.501840	0.120628	0.296453
C129	C	1.001966	-0.379198	-0.128313
C130	C	1.501966	0.120802	0.371687
H131	H	0.597940	-0.444900	-0.444742
H132	H	1.097940	0.055100	0.055258
Br133	Br	0.427347	-0.290256	-0.290553
Br134	Br	0.927347	0.209744	0.209447
Br135	Br	0.891667	-0.480927	-0.784798
Br136	Br	1.391667	0.019073	-0.284798
H137	H	0.604488	-0.281616	-0.281916
H138	H	1.104488	0.218384	0.218084
Br139	Br	0.758532	-0.263333	-0.263681
Br140	Br	1.258532	0.236667	0.236319
H141	H	0.917111	-0.457446	-1.121458
H142	H	1.417111	0.042554	-0.621458
H143	H	0.917030	-0.457547	-0.637455
H144	H	1.417030	0.042453	-0.137455
Br145	Br	1.097818	-0.631197	-0.290858
Br146	Br	1.597818	-0.131197	0.209142
Br147	Br	1.117952	-1.135350	-0.272584
Br148	Br	1.617952	-0.635350	0.227416
Br149	Br	1.112193	-0.277660	-0.785546
Br150	Br	1.612193	0.222340	-0.285546
H151	H	0.731069	-0.450255	-0.450068
H152	H	1.231069	0.049745	0.049932
H153	H	0.399896	-0.477185	-0.476938
H154	H	0.899896	0.022815	0.023062
H155	H	1.099635	-0.981311	-0.289383
H156	H	1.599635	-0.481311	0.210617
Br157	Br	1.112145	-0.277673	-0.618933
Br158	Br	1.612145	0.222327	-0.118933
H159	H	0.266757	-0.471833	-0.471608
H160	H	0.766757	0.028167	0.028392
Br161	Br	0.254373	-0.283328	-0.283613
Br162	Br	0.754373	0.216672	0.216387
Br163	Br	1.090940	-0.804171	-0.297316
Br164	Br	1.590940	-0.304171	0.202684
H165	H	0.931186	-1.107912	-0.444734
H166	H	1.431186	-0.607912	0.055266
Br167	Br	0.912868	-0.953881	-0.461530
Br168	Br	1.412868	-0.453881	0.038470
H169	H	1.086804	-0.300994	-0.993794
H170	H	1.586804	0.199006	-0.493794
H171	H	0.904166	-0.776739	-0.469448
H172	H	1.404166	-0.276739	0.030552
H173	H	1.086822	-0.300964	-1.122038
H174	H	1.586822	0.199036	-0.622038
Br175	Br	0.885852	-0.622695	-0.486250
Br176	Br	1.385852	-0.122695	0.013750
Br177	Br	0.891688	-0.480885	-0.973950
Br178	Br	1.391688	0.019115	-0.473950
