data_functionalizedCrystal
_audit_creation_method	'MofGen! by Chris Wilmer'
_symmetry_space_group_name_H-M	'P1'
_symmetry_Int_Tables_number	1
_symmetry_cell_setting	triclinic
loop_
_symmetry_equiv_pos_as_xyz
  x,y,z
_cell_length_a	14.519731
_cell_length_b	10.654549
_cell_length_c	9.730223
_cell_angle_alpha	89.997731
_cell_angle_beta	89.998958
_cell_angle_gamma	95.913185
loop_
_atom_site_label
_atom_site_type_symbol
_atom_site_fract_x
_atom_site_fract_y
_atom_site_fract_z
O1	O	-0.129529	1.666607	-0.114240
O2	O	0.370471	2.166607	0.385760
O3	O	-0.141871	1.301011	-0.114248
O4	O	0.358129	1.801011	0.385752
O5	O	-0.001513	1.493489	-0.114254
O6	O	0.498487	1.993489	0.385746
O7	O	-0.269887	1.474130	-0.114234
O8	O	0.230113	1.974130	0.385766
O9	O	-0.001509	1.493476	0.114326
O10	O	0.498491	1.993476	0.614326
O11	O	-0.141867	1.300999	0.114332
O12	O	0.358133	1.800999	0.614332
O13	O	-0.129525	1.666595	0.114340
O14	O	0.370475	2.166595	0.614340
Zn15	Zn	-0.135695	1.483795	0.150628
Zn16	Zn	0.364305	1.983795	0.650628
Zn17	Zn	-0.135701	1.483811	-0.150536
Zn18	Zn	0.364299	1.983811	0.349464
O19	O	-0.269883	1.474118	0.114346
O20	O	0.230117	1.974118	0.614346
C21	C	-0.140963	1.254216	0.000041
C22	C	0.359037	1.754216	0.500041
C23	C	-0.138252	1.114798	0.000037
C24	C	0.361748	1.614798	0.500037
C25	C	-0.218338	0.903522	0.000048
C26	C	0.281662	1.403522	0.500048
C27	C	-0.220892	1.034518	0.000040
C28	C	0.279108	1.534518	0.500040
C29	C	-0.053051	1.064076	0.000028
C30	C	0.446949	1.564076	0.500028
C31	C	-0.050498	0.933082	0.000026
C32	C	0.449502	1.433082	0.500026
C33	C	-0.304249	1.475031	0.000058
C34	C	0.195751	1.975031	0.500058
C35	C	-0.406643	1.477749	0.000066
C36	C	0.093357	1.977749	0.500066
C37	C	-0.489799	1.479958	0.000060
C38	C	0.010201	1.979958	0.500060
C39	C	-0.594122	1.482717	0.000047
C40	C	-0.094122	1.982717	0.500047
C41	C	-0.677272	1.484908	0.000036
C42	C	-0.177272	1.984908	0.500036
C43	C	-0.781602	1.487667	0.000025
C44	C	-0.281602	1.987667	0.500025
C45	C	0.032853	1.492575	0.000031
C46	C	0.532853	1.992575	0.500031
C47	C	0.135247	1.489857	0.000014
C48	C	0.635247	1.989857	0.500014
C49	C	-0.130433	1.713391	0.000048
C50	C	0.369567	2.213391	0.500048
C51	C	-0.133144	1.852808	0.000043
C52	C	0.366856	2.352808	0.500043
N53	N	-0.135691	1.483793	0.356164
N54	N	0.364309	1.983793	0.856164
N55	N	-0.135697	1.483823	-0.356072
N56	N	0.364303	1.983823	0.143928
C57	C	-0.073568	1.569051	0.428088
C58	C	0.426432	2.069051	0.928088
C59	C	-0.073568	1.569063	0.571971
C60	C	0.426432	2.069063	1.071971
C61	C	-0.197824	1.398556	0.571994
C62	C	0.302176	1.898556	1.071994
C63	C	-0.197819	1.398539	0.428114
C64	C	0.302181	1.898539	0.928114
H65	H	-0.290265	1.075802	0.000043
H66	H	0.209735	1.575802	0.500043
H67	H	-0.248408	1.329146	0.630590
H68	H	0.251592	1.829146	1.130590
F69	F	0.034901	1.149520	0.000019
F70	F	0.534901	1.649520	0.500019
F71	F	-0.007446	1.659804	0.648512
F72	F	0.492554	2.159804	1.148512
H73	H	0.018880	0.891792	0.000017
H74	H	0.518880	1.391792	0.500017
H75	H	-0.285634	0.838165	0.000061
H76	H	0.214366	1.338165	0.500061
F77	F	-0.263939	1.307786	0.351562
F78	F	0.236061	1.807786	0.851562
H79	H	-0.022979	1.638468	0.369510
H80	H	0.477021	2.138468	0.869510
