data_functionalizedCrystal
_audit_creation_method	'MofGen! by Chris Wilmer'
_symmetry_space_group_name_H-M	'P1'
_symmetry_Int_Tables_number	1
_symmetry_cell_setting	triclinic
loop_
_symmetry_equiv_pos_as_xyz
  x,y,z
_cell_length_a	9.798715
_cell_length_b	10.723022
_cell_length_c	8.559649
_cell_angle_alpha	102.877055
_cell_angle_beta	90.001660
_cell_angle_gamma	89.995970
loop_
_atom_site_label
_atom_site_type_symbol
_atom_site_fract_x
_atom_site_fract_y
_atom_site_fract_z
O1	O	0.113495	-1.634238	0.223858
O2	O	0.113494	-1.268888	0.245289
O3	O	0.113493	-1.483751	0.002324
O4	O	0.113496	-1.419375	0.466823
O5	O	-0.113489	-1.483737	0.002322
O6	O	-0.113488	-1.268874	0.245287
O7	O	-0.113487	-1.634224	0.223856
Zn8	Zn	-0.149526	-1.451547	0.234571
Zn9	Zn	0.149533	-1.451565	0.234574
O10	O	-0.113486	-1.419361	0.466821
C11	C	0.000003	-1.222541	0.243729
C12	C	0.000003	-1.084465	0.239064
C13	C	0.000005	-1.488622	-0.057153
C14	C	0.000012	-1.503144	-0.234374
N15	N	-0.353626	-1.451543	0.234569
C16	C	-0.421403	-1.514819	0.327124
C17	C	-0.578565	-1.514839	0.327122
N18	N	0.353633	-1.451580	0.234564
C19	C	0.000004	-0.852843	0.370190
C20	C	0.000004	-0.995552	0.375015
C21	C	0.000004	-0.680571	0.225416
C22	C	0.000004	-0.818647	0.230081
C23	C	0.000005	-1.414490	0.526298
C24	C	0.000007	-1.399968	0.703519
H25	H	-0.363077	-1.568983	0.406358
H26	H	-0.636852	-1.569005	0.406370
C27	C	-0.432405	-1.378374	0.127512
C28	C	-0.412892	-1.413903	-0.055567
C29	C	-0.491666	-1.340731	-0.162628
C30	C	-0.589954	-1.232031	-0.086609
C31	C	-0.609472	-1.196497	0.096480
C32	C	-0.530697	-1.269669	0.203540
H33	H	-0.340129	-1.494374	-0.111850
H34	H	-0.477218	-1.367036	-0.298163
H35	H	-0.648268	-1.177865	-0.165862
H36	H	-0.682235	-1.116026	0.152762
H37	H	-0.545146	-1.243364	0.339075
H38	H	0.000011	-0.895021	0.113699
H39	H	0.000002	-1.300526	-0.214073
H40	H	0.000001	-1.602593	-0.316791
H41	H	-0.588090	-1.397397	0.155328
H42	H	0.000013	-0.776469	0.486571
H43	H	-0.000003	-1.025065	0.494975
H44	H	0.000039	-1.054961	0.119098
