data_functionalizedCrystal
_audit_creation_method	'MofGen! by Chris Wilmer'
_symmetry_space_group_name_H-M	'P1'
_symmetry_Int_Tables_number	1
_symmetry_cell_setting	triclinic
loop_
_symmetry_equiv_pos_as_xyz
  x,y,z
_cell_length_a	12.759401
_cell_length_b	17.640280
_cell_length_c	17.640968
_cell_angle_alpha	65.682561
_cell_angle_beta	78.777321
_cell_angle_gamma	78.802151
loop_
_atom_site_label
_atom_site_type_symbol
_atom_site_fract_x
_atom_site_fract_y
_atom_site_fract_z
Zn1	Zn	1.776495	-0.233819	-0.399695
Zn2	Zn	2.276495	0.266181	0.100305
Zn3	Zn	1.776409	-0.399488	-0.234056
Zn4	Zn	2.276409	0.100512	0.265944
Zn5	Zn	1.571268	-0.261710	-0.261897
Zn6	Zn	2.071268	0.238290	0.238103
Zn7	Zn	1.630328	-0.371588	-0.371836
Zn8	Zn	2.130328	0.128412	0.128164
O9	O	1.688625	-0.316651	-0.316871
O10	O	2.188625	0.183349	0.183129
O11	O	1.923508	-0.255800	-0.377731
O12	O	2.423508	0.244200	0.122269
O13	O	1.724444	-0.404560	-0.122419
O14	O	2.224444	0.095440	0.377581
O15	O	1.573810	-0.142693	-0.303486
O16	O	2.073810	0.357307	0.196514
O17	O	1.923445	-0.377516	-0.256037
O18	O	2.423445	0.122484	0.243963
O19	O	1.724590	-0.122202	-0.404726
O20	O	2.224590	0.377798	0.095274
O21	O	1.573727	-0.303336	-0.142873
O22	O	2.073727	0.196664	0.357127
O23	O	1.432078	-0.276282	-0.276472
O24	O	1.932078	0.223718	0.223528
O25	O	1.674471	-0.329964	-0.490862
O26	O	2.174471	0.170036	0.009138
O27	O	1.475469	-0.357008	-0.357244
O28	O	1.975469	0.142992	0.142756
O29	O	1.781859	-0.228746	-0.511330
O30	O	2.281859	0.271254	-0.011330
O31	O	1.781712	-0.511104	-0.229023
O32	O	2.281712	-0.011104	0.270977
O33	O	1.674387	-0.490606	-0.330249
O34	O	2.174387	0.009394	0.169751
C35	C	1.415652	-0.316645	-0.316857
C36	C	1.915652	0.183355	0.183143
C37	C	1.298881	-0.316658	-0.316866
C38	C	1.798881	0.183342	0.183134
C39	C	1.266640	-0.358789	-0.358825
C40	C	1.766640	0.141211	0.141175
C41	C	1.156921	-0.358789	-0.358841
C42	C	1.656921	0.141211	0.141159
C43	C	1.111690	-0.274525	-0.274932
C44	C	1.611690	0.225475	0.225068
C45	C	1.221409	-0.274521	-0.274922
C46	C	1.721409	0.225479	0.225078
C47	C	1.734482	-0.530752	-0.273610
C48	C	2.234482	-0.030752	0.226390
C49	C	1.754201	-0.622339	-0.255130
C50	C	2.254201	-0.122339	0.244870
C51	C	1.539312	-0.870396	-0.457560
C52	C	2.039312	-0.370396	0.042440
C53	C	1.557838	-0.956462	-0.440169
C54	C	2.057838	-0.456462	0.059831
C55	C	1.669703	-0.977720	-0.334869
C56	C	2.169703	-0.477720	0.165131
C57	C	1.651190	-0.891654	-0.352254
C58	C	2.151190	-0.391654	0.147746
C59	C	1.585993	-0.837998	-0.413600
C60	C	2.085993	-0.337998	0.086400
C61	C	1.697871	-0.859256	-0.308294
C62	C	2.197871	-0.359256	0.191706
C63	C	1.679355	-0.773198	-0.325674
C64	C	2.179355	-0.273198	0.174326
C65	C	1.614159	-0.719538	-0.387015
C66	C	2.114159	-0.219538	0.112985
C67	C	1.567477	-0.751940	-0.430980
C68	C	2.067477	-0.251940	0.069020
C69	C	1.763061	-0.912913	-0.246944
C70	C	2.263061	-0.412913	0.253056
C71	C	1.809742	-0.880515	-0.202984
C72	C	2.309742	-0.380515	0.297016
C73	C	1.791233	-0.794455	-0.220368
C74	C	2.291233	-0.294455	0.279632
C75	C	1.726036	-0.740795	-0.281709
C76	C	2.226036	-0.240795	0.218291
C77	C	1.837914	-0.762052	-0.176403
C78	C	2.337914	-0.262052	0.323597
C79	C	1.819398	-0.675994	-0.193784
C80	C	2.319398	-0.175994	0.306216
C81	C	1.707521	-0.654737	-0.299090
C82	C	2.207521	-0.154737	0.200910
C83	C	1.962664	-0.316659	-0.316886
C84	C	2.462664	0.183341	0.183114
C85	C	2.079443	-0.316662	-0.316892
C86	C	2.579443	0.183338	0.183108
C87	C	1.734762	-0.273131	-0.531836
C88	C	2.234762	0.226869	-0.031836
C89	C	1.754423	-0.254586	-0.623441
C90	C	2.254423	0.245414	-0.123441
C91	C	1.642622	-0.101711	-0.360319
C92	C	2.142622	0.398289	0.139681
C93	C	1.623018	-0.010117	-0.378834
C94	C	2.123018	0.489883	0.121166
C95	C	1.539570	-0.457092	-0.871435
C96	C	2.039570	0.042908	-0.371435
C97	C	1.558064	-0.439655	-0.957514
C98	C	2.058064	0.060345	-0.457514
C99	C	1.669879	-0.334266	-0.978815
C100	C	2.169879	0.165734	-0.478815
C101	C	1.651389	-0.351691	-0.892736
C102	C	2.151389	0.148309	-0.392736
C103	C	1.586235	-0.413106	-0.839053
C104	C	2.086235	0.086894	-0.339053
C105	C	1.698054	-0.307705	-0.860354
C106	C	2.198054	0.192295	-0.360354
C107	C	1.679571	-0.325132	-0.774283
C108	C	2.179571	0.174868	-0.274283
C109	C	1.614422	-0.386546	-0.720593
C110	C	2.114422	0.113454	-0.220593
C111	C	1.567752	-0.430533	-0.752981
C112	C	2.067752	0.069467	-0.252981
C113	C	1.763215	-0.246295	-0.914039
C114	C	2.263215	0.253705	-0.414039
C115	C	1.809880	-0.202309	-0.881657
C116	C	2.309880	0.297691	-0.381657
C117	C	1.791390	-0.219731	-0.795584
C118	C	2.291390	0.280269	-0.295584
C119	C	1.726242	-0.281145	-0.741895
C120	C	2.226242	0.218855	-0.241895
C121	C	1.838061	-0.175744	-0.763197
C122	C	2.338061	0.324256	-0.263197
C123	C	1.819578	-0.193171	-0.677125
C124	C	2.319578	0.306829	-0.177125
C125	C	1.707758	-0.298572	-0.655823
C126	C	2.207758	0.201428	-0.155823
C127	C	1.642715	-0.359943	-0.102754
C128	C	2.142715	0.140057	0.397246
C129	C	1.623208	-0.378256	-0.011196
C130	C	2.123208	0.121744	0.488804
H131	H	1.247657	-0.240207	-0.240755
H132	H	1.747657	0.259793	0.259245
H133	H	1.519835	-0.982833	-0.475982
H134	H	2.019835	-0.482833	0.024018
H135	H	1.891118	-0.125746	-0.806917
H136	H	2.391118	0.374254	-0.306917
F137	F	1.638141	-0.597626	-0.364389
F138	F	2.138141	-0.097626	0.135611
H139	H	1.857575	-0.157352	-0.650760
H140	H	2.357575	0.342648	-0.150760
F141	F	1.739089	-1.034831	-0.269584
F142	F	2.239089	-0.534831	0.230416
F143	F	1.782800	-1.004500	-0.228470
F144	F	2.282800	-0.504500	0.271530
H145	H	1.599379	-0.400737	-0.650508
H146	H	2.099379	0.099263	-0.150508
H147	H	1.486231	-0.826706	-0.507520
H148	H	1.986231	-0.326706	-0.007520
H149	H	1.514396	-0.708250	-0.480941
H150	H	2.014396	-0.208250	0.019059
H151	H	1.130677	-0.393095	-0.393009
H152	H	1.630677	0.106905	0.106991
F153	F	1.349090	-0.403632	-0.403468
F154	F	1.849090	0.096368	0.096532
H155	H	1.722930	-0.284265	-1.022535
H156	H	2.222930	0.215735	-0.522535
F157	F	1.029231	-0.229684	-0.230293
F158	F	1.529231	0.270316	0.269707
F159	F	1.879129	-0.937627	-0.137698
F160	F	2.379129	-0.437627	0.362302
H161	H	1.599076	-0.649465	-0.401160
H162	H	2.099076	-0.149465	0.098840
F163	F	1.907291	-0.819167	-0.111112
F164	F	2.407291	-0.319167	0.388888
F165	F	1.869072	-0.641513	-0.146990
F166	F	2.369072	-0.141513	0.353010
F167	F	1.638404	-0.363930	-0.598685
F168	F	2.138404	0.136070	-0.098685
F169	F	1.508389	-0.486475	-0.991973
F170	F	2.008389	0.013525	-0.491973
F171	F	1.782889	-0.227751	-1.005644
F172	F	2.282889	0.272249	-0.505644
F173	F	1.498397	-0.495891	-0.695843
F174	F	1.998397	0.004109	-0.195843
H175	H	1.486485	-0.507082	-0.827726
H176	H	1.986485	-0.007082	-0.327726
H177	H	1.862932	-0.152307	-0.925377
H178	H	2.362932	0.347693	-0.425377
