data_functionalizedCrystal
_audit_creation_method	'MofGen! by Chris Wilmer'
_symmetry_space_group_name_H-M	'P1'
_symmetry_Int_Tables_number	1
_symmetry_cell_setting	triclinic
loop_
_symmetry_equiv_pos_as_xyz
  x,y,z
_cell_length_a	11.169417
_cell_length_b	19.076808
_cell_length_c	11.169409
_cell_angle_alpha	87.662578
_cell_angle_beta	89.980176
_cell_angle_gamma	92.324435
loop_
_atom_site_label
_atom_site_type_symbol
_atom_site_fract_x
_atom_site_fract_y
_atom_site_fract_z
Zn1	Zn	1.815643	-0.280145	-0.659291
Zn2	Zn	2.148977	0.053188	-0.325958
Zn3	Zn	2.482310	0.386521	0.007375
Zn4	Zn	1.807414	-0.397873	-0.450518
Zn5	Zn	2.140747	-0.064540	-0.117185
Zn6	Zn	2.474081	0.268793	0.216149
Zn7	Zn	1.614926	-0.280188	-0.458623
Zn8	Zn	1.948260	0.053145	-0.125289
Zn9	Zn	2.281593	0.386479	0.208044
Zn10	Zn	1.606822	-0.397816	-0.651167
Zn11	Zn	1.940155	-0.064483	-0.317834
Zn12	Zn	2.273489	0.268851	0.015500
O13	O	1.711201	-0.339006	-0.554900
O14	O	2.044535	-0.005672	-0.221566
O15	O	2.377868	0.327661	0.111767
O16	O	1.982501	-0.295768	-0.631605
O17	O	2.315834	0.037565	-0.298272
O18	O	2.649168	0.370899	0.035061
O19	O	1.781828	-0.382304	-0.283641
O20	O	2.115161	-0.048971	0.049693
O21	O	2.448494	0.284363	0.383026
O22	O	1.648387	-0.181685	-0.492034
O23	O	1.981721	0.151648	-0.158701
O24	O	2.315054	0.484981	0.174633
O25	O	1.976455	-0.382262	-0.478221
O26	O	2.309788	-0.048929	-0.144887
O27	O	2.643122	0.284404	0.188446
O28	O	1.795853	-0.181654	-0.639464
O29	O	2.129187	0.151680	-0.306131
O30	O	2.462520	0.485013	0.027202
O31	O	1.640408	-0.295841	-0.289595
O32	O	1.973741	0.037492	0.043738
O33	O	2.307074	0.370825	0.377072
O34	O	1.445902	-0.295786	-0.484156
O35	O	1.779235	0.037548	-0.150823
O36	O	2.112569	0.370881	0.182511
O37	O	1.634575	-0.382165	-0.820197
O38	O	1.967908	-0.048831	-0.486864
O39	O	2.301242	0.284502	-0.153531
O40	O	1.439948	-0.382206	-0.625617
O41	O	1.773281	-0.048873	-0.292284
O42	O	2.106614	0.284460	0.041049
O43	O	1.787995	-0.295713	-0.826166
O44	O	2.121328	0.037621	-0.492833
O45	O	2.454662	0.370954	-0.159500
O46	O	1.773969	-0.496363	-0.470343
O47	O	2.107303	-0.163029	-0.137009
O48	O	2.440636	0.170304	0.196324
O49	O	1.626595	-0.496321	-0.617758
O50	O	1.959929	-0.162987	-0.284425
O51	O	2.293262	0.170346	0.048908
C52	C	1.399377	-0.338995	-0.554885
C53	C	1.732711	-0.005662	-0.221552
C54	C	2.066044	0.327672	0.111782
C55	C	1.265977	-0.339007	-0.554906
C56	C	1.599310	-0.005674	-0.221573
C57	C	1.932643	0.327659	0.111761
C58	C	1.698543	-0.521881	-0.542316
C59	C	2.031876	-0.188548	-0.208982
C60	C	2.365209	0.144786	0.124351
C61	C	1.693237	-0.600116	-0.536972
C62	C	2.026570	-0.266782	-0.203639
C63	C	2.359904	0.066551	0.129694
C64	C	1.767464	-0.636794	-0.611283
C65	C	2.100798	-0.303460	-0.277950
C66	C	2.434131	0.029873	0.055384
C67	C	1.762474	-0.710304	-0.606264
C68	C	2.095808	-0.376970	-0.272931
C69	C	2.429141	-0.043637	0.060402
C70	C	1.683262	-0.747134	-0.526928
C71	C	2.016595	-0.413801	-0.193595
C72	C	2.349929	-0.080468	0.139739
C73	C	1.609026	-0.710451	-0.452614
C74	C	1.942360	-0.377118	-0.119281
C75	C	2.275693	-0.043784	0.214052
C76	C	1.614011	-0.636943	-0.457640
C77	C	1.947344	-0.303609	-0.124306
C78	C	2.280678	0.029724	0.209027
C79	C	1.660121	-0.966990	-0.503666
C80	C	1.993454	-0.633656	-0.170332
C81	C	2.326788	-0.300323	0.163001
C82	C	1.655144	-1.040503	-0.498643
C83	C	1.988478	-0.707170	-0.165310
C84	C	2.321811	-0.373837	0.168023
C85	C	1.808591	-1.040351	-0.652296
C86	C	2.141925	-0.707017	-0.318962
C87	C	2.475258	-0.373684	0.014371
C88	C	1.813574	-0.966841	-0.657309
C89	C	2.146908	-0.633507	-0.323976
C90	C	2.480241	-0.300174	0.009358
C91	C	1.739334	-0.930164	-0.583000
C92	C	2.072668	-0.596831	-0.249666
C93	C	2.406001	-0.263497	0.083667
N94	N	1.678162	-0.822273	-0.521794
N95	N	2.011495	-0.488940	-0.188460
N96	N	2.344829	-0.155607	0.144873
N97	N	1.744429	-0.855026	-0.588141
N98	N	2.077762	-0.521693	-0.254808
N99	N	2.411096	-0.188360	0.078526
C100	C	2.024243	-0.339017	-0.554915
C101	C	2.357576	-0.005683	-0.221582
C102	C	2.690910	0.327650	0.111751
C103	C	2.157643	-0.339022	-0.554922
C104	C	2.490976	-0.005688	-0.221588
C105	C	2.824309	0.327645	0.111745
C106	C	1.711299	-0.338927	-0.867948
C107	C	2.044632	-0.005594	-0.534614
C108	C	2.377966	0.327739	-0.201281
C109	C	1.711340	-0.338894	-1.001350
C110	C	2.044674	-0.005561	-0.668017
C111	C	2.378007	0.327773	-0.334683
C112	C	1.723942	-0.155416	-0.567559
C113	C	2.057276	0.177917	-0.234226
C114	C	2.390609	0.511250	0.099107
C115	C	1.729372	-0.077181	-0.572954
C116	C	2.062705	0.256152	-0.239621
C117	C	2.396038	0.589485	0.093713
C118	C	1.711177	-0.339033	-0.243073
C119	C	2.044510	-0.005699	0.090260
C120	C	2.377843	0.327634	0.423593
C121	C	1.711381	-0.338868	-0.109685
C122	C	2.044715	-0.005534	0.223648
C123	C	2.378048	0.327799	0.556982
H124	H	1.831973	-0.606811	-0.675882
H125	H	2.165306	-0.273478	-0.342549
H126	H	2.498640	0.059856	-0.009215
H127	H	1.553566	-0.607080	-0.397130
H128	H	1.886899	-0.273747	-0.063796
H129	H	2.220232	0.059587	0.269537
Cl130	Cl	1.855778	-0.756410	-0.699705
Cl131	Cl	2.189111	-0.423077	-0.366371
Cl132	Cl	2.522444	-0.089743	-0.033038
Cl133	Cl	1.913158	-0.920545	-0.757052
Cl134	Cl	2.246492	-0.587211	-0.423719
Cl135	Cl	2.579825	-0.253878	-0.090385
Cl136	Cl	1.555560	-1.086804	-0.398894
Cl137	Cl	1.888893	-0.753471	-0.065561
Cl138	Cl	2.222226	-0.420137	0.267772
Cl139	Cl	1.901910	-1.086463	-0.745712
Cl140	Cl	2.235244	-0.753129	-0.412379
Cl141	Cl	2.568577	-0.419796	-0.079045
H142	H	1.599674	-0.937133	-0.443158
H143	H	1.933007	-0.603800	-0.109825
H144	H	2.266341	-0.270467	0.223509
Cl145	Cl	1.509432	-0.756753	-0.352888
Cl146	Cl	1.842765	-0.423419	-0.019555
Cl147	Cl	2.176099	-0.090086	0.313778
