data_functionalizedCrystal
_audit_creation_method	'MofGen! by Chris Wilmer'
_symmetry_space_group_name_H-M	'P1'
_symmetry_Int_Tables_number	1
_symmetry_cell_setting	triclinic
loop_
_symmetry_equiv_pos_as_xyz
  x,y,z
_cell_length_a	10.489741
_cell_length_b	17.666332
_cell_length_c	10.489741
_cell_angle_alpha	90.006142
_cell_angle_beta	84.539174
_cell_angle_gamma	90.006642
loop_
_atom_site_label
_atom_site_type_symbol
_atom_site_fract_x
_atom_site_fract_y
_atom_site_fract_z
O1	O	1.694062	0.062901	0.179970
O2	O	1.322867	0.062913	0.196863
O3	O	1.516911	0.062902	0.002819
O4	O	1.500018	0.062912	0.374014
O5	O	1.516877	-0.062995	0.002808
O6	O	1.322832	-0.062984	0.196852
O7	O	1.694028	-0.062996	0.179959
Cu8	Cu	1.508427	-0.074485	0.188405
Cu9	Cu	1.508468	0.074402	0.188418
O10	O	1.499984	-0.062985	0.374004
C11	C	1.275318	-0.000034	0.195582
C12	C	1.133688	-0.000030	0.191765
N13	N	1.508408	-0.179205	0.188395
C14	C	1.065548	-0.000040	0.068300
C15	C	0.973438	0.062034	0.126629
C16	C	0.973438	-0.062091	0.126647
C17	C	1.043444	0.062095	0.250144
C18	C	1.043454	-0.062085	0.250146
C19	C	0.951371	0.000004	0.308564
C20	C	1.594359	-0.218819	0.102515
C21	C	1.594366	-0.298067	0.102509
C22	C	1.508435	-0.337697	0.188405
C23	C	1.422467	-0.298073	0.274292
C24	C	1.422454	-0.218827	0.274287
N25	N	1.493234	-0.462112	0.301127
N26	N	1.493255	-0.537393	0.301127
C27	C	1.508469	-0.576461	0.188423
N28	N	1.523686	-0.537405	0.075715
N29	N	1.523672	-0.462117	0.075715
C30	C	1.508439	-0.423626	0.188420
C31	C	1.594433	-0.702005	0.102530
C32	C	1.594431	-0.781254	0.102522
C33	C	1.422538	-0.781258	0.274315
C34	C	1.422533	-0.702011	0.274312
C35	C	1.508487	-0.662389	0.188421
C36	C	1.741577	-0.000047	0.181241
C37	C	1.883206	-0.000047	0.185058
C38	C	1.515618	-0.000046	-0.044718
C39	C	1.511801	-0.000044	-0.186348
N40	N	1.508497	0.179122	0.188417
C41	C	1.388336	-0.000035	-0.254488
C42	C	1.446643	-0.062110	-0.346616
C43	C	1.446706	0.062014	-0.346580
C44	C	1.570158	-0.062171	-0.276610
C45	C	1.570204	0.062009	-0.276565
C46	C	1.628600	-0.000081	-0.368665
C47	C	1.501277	-0.000035	0.421541
C48	C	1.505094	-0.000032	0.563170
H49	H	1.115238	0.000035	-0.033196
F50	F	0.932921	0.130626	0.058356
H51	H	1.664419	-0.813508	0.032581
F52	F	1.761401	-0.000128	-0.433269
F53	F	1.331075	-0.823432	0.365725
F54	F	1.331058	-0.659847	0.365723
F55	F	1.083752	0.130767	0.318379
F56	F	1.685833	-0.176652	0.011099
F57	F	0.886766	0.000050	0.441365
F58	F	1.330969	-0.176664	0.365696
F59	F	1.638449	0.130604	-0.235978
H60	H	1.394464	0.114499	-0.377539
H61	H	1.286824	-0.000094	-0.204837
F62	F	1.638367	-0.130842	-0.236322
F63	F	1.084018	-0.130679	0.318367
H64	H	0.942446	-0.114569	0.074380
H65	H	1.664360	-0.330327	0.032572
F66	F	1.331008	-0.340250	0.365705
F67	F	1.685907	-0.659835	0.011111
H68	H	1.394388	-0.114587	-0.377632
