data_functionalizedCrystal
_audit_creation_method	'MofGen! by Chris Wilmer'
_symmetry_space_group_name_H-M	'P1'
_symmetry_Int_Tables_number	1
_symmetry_cell_setting	triclinic
loop_
_symmetry_equiv_pos_as_xyz
  x,y,z
_cell_length_a	6.817900
_cell_length_b	9.582860
_cell_length_c	11.102229
_cell_angle_alpha	90.974492
_cell_angle_beta	108.604562
_cell_angle_gamma	111.206767
loop_
_atom_site_label
_atom_site_type_symbol
_atom_site_fract_x
_atom_site_fract_y
_atom_site_fract_z
V1	V	-4.125310	-0.207054	-0.396023
O2	O	-4.069884	0.009952	-0.388724
O3	O	-4.115647	-0.410554	-0.393084
O4	O	-4.101872	-0.203868	-0.568847
O5	O	-4.083754	-0.198166	-0.211744
V6	V	-4.600684	-0.181097	-0.374010
O7	O	-4.404444	-0.263991	-0.444311
O8	O	-4.771748	-0.124160	-0.325722
O9	O	-4.387141	0.022404	-0.376949
O10	O	-4.773508	-0.398103	-0.381309
O11	O	-4.759637	-0.189985	-0.558289
O12	O	-4.400916	-0.184283	-0.201185
C13	C	-3.969264	-0.460164	-0.386777
C14	C	-4.042816	-0.626528	-0.385526
C15	C	-3.951691	-0.196512	-0.610979
C16	C	-4.014067	-0.195254	-0.752262
C17	C	-4.032691	-0.056435	-0.933395
C18	C	-3.974081	-0.057615	-0.800644
C19	C	-4.112692	-0.331724	-0.836640
C20	C	-4.171314	-0.330543	-0.969389
C21	C	-3.929296	0.100624	-0.601752
C22	C	-3.830646	0.237092	-0.517379
C23	C	-3.669876	0.363281	-0.540423
C24	C	-3.607701	0.353010	-0.647836
C25	C	-3.706331	0.216540	-0.732203
C26	C	-3.867147	0.090355	-0.709161
C27	C	-4.216078	-0.488771	-1.168281
C28	C	-4.314695	-0.625242	-1.252650
C29	C	-4.475461	-0.751443	-1.229609
C30	C	-4.537611	-0.741186	-1.122193
C31	C	-4.438994	-0.604715	-1.037824
C32	C	-4.278235	-0.478514	-1.060874
C33	C	-4.196867	0.072005	-0.383252
C34	C	-4.102555	0.238368	-0.384511
C35	C	-4.214439	-0.191643	-0.159047
C36	C	-4.131300	-0.192894	-0.017762
H37	H	-3.655699	0.208175	-0.819652
H38	H	-4.000126	0.055647	-0.972777
H39	H	-4.085167	-0.386012	-1.187051
H40	H	-4.668509	-0.843952	-1.103428
H41	H	-3.476762	0.455765	-0.666579
C42	C	-3.563095	0.511332	-0.448700
C43	C	-3.651976	0.493325	-0.349717
C44	C	-3.553692	0.629676	-0.265203
H45	H	-3.405363	0.538837	-0.413164
H46	H	-3.593906	0.588535	-0.494052
H47	H	-3.621148	0.416147	-0.304371
H48	H	-3.809698	0.465841	-0.385214
H49	H	-3.584503	0.706879	-0.310555
H50	H	-3.395963	0.657171	-0.229677
H51	H	-3.613998	0.617481	-0.198040
H52	H	-3.881286	0.245444	-0.429924
H53	H	-4.555731	-0.862568	-1.298306
C54	C	-4.155825	-0.481005	-0.783862
C55	C	-4.083322	-0.452833	-0.649546
C56	C	-4.122989	-0.590315	-0.600886
H57	H	-4.311900	-0.542017	-0.817000
H58	H	-4.075796	-0.532353	-0.808812
H59	H	-4.163354	-0.401508	-0.624608
H60	H	-3.927250	-0.391844	-0.616373
H61	H	-4.042960	-0.641664	-0.625835
H62	H	-4.279065	-0.651317	-0.634033
H63	H	-4.073783	-0.571219	-0.509748
H64	H	-4.489604	-0.596373	-0.950358
H65	H	-4.060232	-0.002115	-0.582989
H66	H	-4.264050	-0.633593	-1.340102
