data_functionalizedCrystal
_audit_creation_method	'MofGen! by Chris Wilmer'
_symmetry_space_group_name_H-M	'P1'
_symmetry_Int_Tables_number	1
_symmetry_cell_setting	triclinic
loop_
_symmetry_equiv_pos_as_xyz
  x,y,z
_cell_length_a	15.944499
_cell_length_b	15.944493
_cell_length_c	9.730217
_cell_angle_alpha	90.002625
_cell_angle_beta	89.996000
_cell_angle_gamma	83.476327
loop_
_atom_site_label
_atom_site_type_symbol
_atom_site_fract_x
_atom_site_fract_y
_atom_site_fract_z
O1	O	1.114525	0.108127	-0.114354
O2	O	0.869967	0.121529	-0.114337
O3	O	0.998950	-0.007452	-0.114357
O4	O	0.985542	0.237107	-0.114333
O5	O	0.998946	-0.007453	0.114223
O6	O	0.869963	0.121528	0.114243
O7	O	1.114521	0.108126	0.114226
Zn8	Zn	0.992241	0.114826	0.150527
Zn9	Zn	0.992247	0.114828	-0.150637
O10	O	0.985538	0.237106	0.114247
C11	C	0.838670	0.120979	-0.000045
C12	C	0.745422	0.119334	-0.000039
C13	C	0.453871	0.194269	-0.000052
C14	C	0.514910	0.155317	-0.112760
C15	C	0.409787	0.113358	-0.000071
C16	C	0.514892	0.155294	0.112602
C17	C	0.574695	0.116299	-0.000053
C18	C	0.469598	0.074384	-0.112873
C19	C	0.469574	0.074372	0.112591
C20	C	0.530595	0.035361	-0.000145
C21	C	0.314787	0.111666	-0.000083
C22	C	0.669694	0.117984	-0.000051
C23	C	0.998400	-0.038747	-0.000073
C24	C	0.996757	-0.131995	-0.000090
C25	C	1.072679	-0.367769	-0.000070
C26	C	1.031739	-0.418329	-0.112768
C27	C	0.993713	-0.302716	-0.000073
C28	C	1.031717	-0.418306	0.112594
C29	C	0.990778	-0.467625	-0.000051
C30	C	0.952794	-0.352047	-0.112865
C31	C	0.952783	-0.352021	0.112599
C32	C	0.911785	-0.402548	-0.000127
C33	C	0.995405	-0.207716	-0.000088
C34	C	0.989079	-0.562622	-0.000047
C35	C	1.145818	0.108675	-0.000069
C36	C	1.239066	0.110320	-0.000084
C37	C	0.986088	0.268401	-0.000041
C38	C	0.987731	0.361650	-0.000032
N39	N	0.992244	0.114825	0.356063
N40	N	0.992251	0.114823	-0.356174
C41	C	1.106505	0.000646	0.356036
C42	C	1.163641	-0.056442	0.427962
C43	C	1.163649	-0.056442	0.571841
C44	C	1.106514	0.000649	0.643798
C45	C	1.049378	0.057736	0.571872
C46	C	1.049377	0.057732	0.427989
C47	C	0.935115	0.171910	0.571900
C48	C	0.935109	0.171916	0.428020
C49	C	0.877979	0.229001	0.643857
C50	C	0.820846	0.286094	0.571931
C51	C	0.820840	0.286093	0.428043
C52	C	0.877973	0.229003	0.356094
H53	H	0.534958	0.189529	0.207884
Br54	Br	0.548387	0.212352	-0.271572
Br55	Br	0.897246	-0.304008	-0.271842
Br56	Br	0.798328	-0.428308	-0.000212
Br57	Br	1.106512	0.000654	0.160769
Br58	Br	0.743306	0.363560	0.669589
Br59	Br	0.436322	0.017386	-0.271859
H60	H	0.919462	-0.323055	0.207886
Br61	Br	0.398292	0.306183	-0.000214
H62	H	1.065089	-0.447281	-0.208052
Br63	Br	0.877982	0.228998	0.839124
H64	H	1.065080	-0.447244	0.207866
H65	H	1.210158	-0.102927	0.369362
H66	H	1.106518	0.000638	0.760953
Br67	Br	1.241185	-0.133925	0.669459
Br68	Br	0.743287	0.363566	0.330441
H69	H	0.563787	-0.031847	-0.000211
Br70	Br	0.436050	0.017377	0.271402
Br71	Br	1.186047	-0.341739	-0.000257
H72	H	0.877976	0.229000	0.238940
