data_functionalizedCrystal
_audit_creation_method	'MofGen! by Chris Wilmer'
_symmetry_space_group_name_H-M	'P1'
_symmetry_Int_Tables_number	1
_symmetry_cell_setting	triclinic
loop_
_symmetry_equiv_pos_as_xyz
  x,y,z
_cell_length_a	11.804365
_cell_length_b	11.026607
_cell_length_c	11.026607
_cell_angle_alpha	71.413983
_cell_angle_beta	75.515365
_cell_angle_gamma	75.502485
loop_
_atom_site_label
_atom_site_type_symbol
_atom_site_fract_x
_atom_site_fract_y
_atom_site_fract_z
O1	O	0.099024	-1.746857	0.513518
O2	O	0.099026	-1.380277	0.452754
O3	O	0.099021	-1.533184	0.299847
O4	O	0.099029	-1.593949	0.666425
O5	O	-0.099034	-1.492918	0.340050
O6	O	-0.099028	-1.340011	0.492957
O7	O	-0.099030	-1.706591	0.553721
Cu8	Cu	-0.117113	-1.519624	0.527010
Cu9	Cu	0.117109	-1.567243	0.479465
O10	O	-0.099025	-1.553684	0.706628
C11	C	-0.000001	-1.312485	0.461646
C12	C	-0.000000	-1.170471	0.428228
N13	N	-0.281853	-1.486141	0.560451
C14	C	-0.000005	-1.501842	0.272288
C15	C	-0.000000	-1.468426	0.130273
C16	C	-0.655808	-1.681136	0.365686
C17	C	-0.531147	-1.706464	0.340382
C18	C	-0.468817	-1.651385	0.395397
C19	C	-0.531161	-1.570974	0.475721
C20	C	-0.655834	-1.545652	0.501036
C21	C	-0.468843	-1.515901	0.530746
C22	C	-0.531187	-1.435491	0.611070
C23	C	-0.655847	-1.410172	0.636380
C24	C	-0.718177	-1.465251	0.581365
C25	C	-0.344170	-1.541223	0.505431
C26	C	-0.344196	-1.405740	0.640780
C27	C	-0.468857	-1.380412	0.666085
N28	N	0.281849	-1.600735	0.446016
C29	C	-0.000001	-1.774384	0.544829
C30	C	0.000006	-1.916399	0.578244
C31	C	0.000003	-1.116822	0.520497
C32	C	0.000004	-0.970043	0.485962
C33	C	0.000001	-1.560696	0.076624
C34	C	0.000005	-1.526161	-0.070156
C35	C	0.000003	-1.585027	0.734186
C36	C	0.000007	-1.618444	0.876199
H37	H	-0.293421	-1.606693	0.440032
C38	C	-0.694208	-1.699983	0.169272
C39	C	-0.724326	-1.741661	0.305215
H40	H	-0.736506	-1.737356	0.131938
H41	H	-0.714651	-1.607764	0.140973
H42	H	-0.611039	-1.726584	0.142710
H43	H	-0.807493	-1.715052	0.331778
H44	H	-0.703890	-1.833900	0.333525
H45	H	-0.819686	-1.444626	0.601963
C46	C	0.101816	-1.196197	0.701752
C47	C	0.000004	-1.201496	0.661659
H48	H	0.101810	-1.248464	0.788904
H49	H	0.170867	-1.227869	0.646506
H50	H	0.101806	-1.108662	0.697056
H51	H	0.000018	-1.289030	0.666346
H52	H	-0.069065	-1.169830	0.716921
C53	C	-0.101805	-1.245804	0.092261
C54	C	0.000006	-1.327264	0.045601
H55	H	-0.101794	-1.158655	0.039993
H56	H	-0.170857	-1.272992	0.088638
H57	H	-0.101797	-1.250506	0.179793
H58	H	-0.000007	-1.322569	-0.041928
H59	H	0.069076	-1.300068	0.049211
C60	C	-0.507249	-1.345932	0.878089
C61	C	-0.537388	-1.292028	0.754380
H62	H	-0.549552	-1.291360	0.932592
H63	H	-0.527673	-1.429847	0.914698
H64	H	-0.424081	-1.353125	0.870875
H65	H	-0.620554	-1.284844	0.761593
H66	H	-0.516972	-1.208090	0.717763
C67	C	-0.694271	-1.198085	0.670688
C68	C	-0.724377	-1.321794	0.724680
H69	H	-0.736584	-1.143525	0.725200
H70	H	-0.611116	-1.205289	0.663494
H71	H	-0.714717	-1.161536	0.586760
H72	H	-0.703923	-1.358347	0.808605
H73	H	-0.807551	-1.314593	0.731890
H74	H	-0.367313	-1.672010	0.374790
C75	C	0.000011	-0.756359	0.337903
C76	C	0.000007	-0.885373	0.344793
H77	H	0.000021	-0.704091	0.250751
H78	H	-0.069052	-0.724700	0.393143
H79	H	0.069081	-0.752791	0.365123
H80	H	-0.069068	-0.888943	0.317581
H81	H	0.069077	-0.917041	0.289533
C82	C	-0.391457	-1.723973	0.144140
C83	C	-0.462852	-1.794470	0.251649
H84	H	-0.349359	-1.778202	0.089231
H85	H	-0.440262	-1.650864	0.096995
H86	H	-0.336318	-1.695062	0.173285
H87	H	-0.517998	-1.823373	0.222504
H88	H	-0.414044	-1.867603	0.298802
H89	H	-0.293448	-1.360892	0.685582
C90	C	0.101830	-0.995739	0.759492
C91	C	0.000014	-1.001056	0.719416
H92	H	0.101830	-1.047994	0.846648
H93	H	0.170879	-1.027416	0.704247
H94	H	0.101817	-0.908200	0.754780
H95	H	0.000031	-1.088594	0.724119
H96	H	-0.069053	-0.969384	0.774677
H97	H	0.000028	-1.107743	0.323660
H98	H	-0.000007	-1.665257	0.139359
C99	C	-0.101799	-1.303532	-0.108164
C100	C	0.000011	-1.384992	-0.154824
H101	H	-0.101788	-1.216383	-0.160432
H102	H	-0.170851	-1.330720	-0.111787
H103	H	-0.101791	-1.308235	-0.020632
H104	H	-0.000001	-1.380297	-0.242353
H105	H	0.069082	-1.357797	-0.151214
H106	H	0.000096	-1.723032	-0.061092
