data_functionalizedCrystal
_audit_creation_method	'MofGen! by Chris Wilmer'
_symmetry_space_group_name_H-M	'P1'
_symmetry_Int_Tables_number	1
_symmetry_cell_setting	triclinic
loop_
_symmetry_equiv_pos_as_xyz
  x,y,z
_cell_length_a	18.050582
_cell_length_b	13.897449
_cell_length_c	13.897448
_cell_angle_alpha	90.018972
_cell_angle_beta	90.020930
_cell_angle_gamma	90.013755
loop_
_atom_site_label
_atom_site_type_symbol
_atom_site_fract_x
_atom_site_fract_y
_atom_site_fract_z
Zn1	Zn	-0.419898	-1.474636	0.384043
Zn2	Zn	-0.169898	-1.224636	0.634043
Zn3	Zn	0.080102	-0.974636	0.884043
Zn4	Zn	0.330102	-0.724636	1.134043
Zn5	Zn	-0.295711	-1.474550	0.545338
Zn6	Zn	-0.045711	-1.224550	0.795338
Zn7	Zn	0.204289	-0.974550	1.045338
Zn8	Zn	0.454289	-0.724550	1.295338
Zn9	Zn	-0.295725	-1.313345	0.384062
Zn10	Zn	-0.045725	-1.063345	0.634062
Zn11	Zn	0.204275	-0.813345	0.884062
Zn12	Zn	0.454275	-0.563345	1.134062
Zn13	Zn	-0.419863	-1.313307	0.545302
Zn14	Zn	-0.169863	-1.063307	0.795302
Zn15	Zn	0.080137	-0.813307	1.045302
Zn16	Zn	0.330137	-0.563307	1.295302
O17	O	-0.357799	-1.393959	0.464686
O18	O	-0.107799	-1.143959	0.714686
O19	O	0.142201	-0.893959	0.964686
O20	O	0.392201	-0.643959	1.214686
O21	O	-0.403434	-1.609606	0.405447
O22	O	-0.153434	-1.359606	0.655447
O23	O	0.096566	-1.109606	0.905447
O24	O	0.346566	-0.859606	1.155447
O25	O	-0.191789	-1.453145	0.523967
O26	O	0.058211	-1.203145	0.773967
O27	O	0.308211	-0.953145	1.023967
O28	O	0.558211	-0.703145	1.273967
O29	O	-0.312217	-1.334793	0.249078
O30	O	-0.062217	-1.084793	0.499078
O31	O	0.187783	-0.834793	0.749078
O32	O	0.437783	-0.584793	0.999078
O33	O	-0.312194	-1.609543	0.523949
O34	O	-0.062194	-1.359543	0.773949
O35	O	0.187806	-1.109543	1.023949
O36	O	0.437806	-0.859543	1.273949
O37	O	-0.403446	-1.453293	0.249064
O38	O	-0.153446	-1.203293	0.499064
O39	O	0.096554	-0.953293	0.749064
O40	O	0.346554	-0.703293	0.999064
O41	O	-0.191798	-1.334709	0.405478
O42	O	0.058202	-1.084709	0.655478
O43	O	0.308202	-0.834709	0.905478
O44	O	0.558202	-0.584709	1.155478
O45	O	-0.312182	-1.178358	0.405443
O46	O	-0.062182	-0.928358	0.655443
O47	O	0.187818	-0.678358	0.905443
O48	O	0.437818	-0.428358	1.155443
O49	O	-0.523792	-1.334728	0.523887
O50	O	-0.273792	-1.084728	0.773887
O51	O	-0.023792	-0.834728	1.023887
O52	O	0.226208	-0.584728	1.273887
O53	O	-0.403386	-1.178330	0.523905
O54	O	-0.153386	-0.928330	0.773905
O55	O	0.096614	-0.678330	1.023905
O56	O	0.346614	-0.428330	1.273905
O57	O	-0.523818	-1.453256	0.405412
O58	O	-0.273818	-1.203256	0.655412
O59	O	-0.023818	-0.953256	0.905412
O60	O	0.226182	-0.703256	1.155412
O61	O	-0.312160	-1.453109	0.680315
O62	O	-0.062160	-1.203109	0.930315
O63	O	0.187840	-0.953109	1.180315
O64	O	0.437840	-0.703109	1.430315
O65	O	-0.403373	-1.334644	0.680288
O66	O	-0.153373	-1.084644	0.930288
O67	O	0.096627	-0.834644	1.180288
O68	O	0.346627	-0.584644	1.430288
C69	C	-0.357778	-1.393889	0.715301
C70	C	-0.107778	-1.143889	0.965301
C71	C	0.142222	-0.893889	1.215301
C72	C	0.392222	-0.643889	1.465301
C73	C	-0.357793	-1.393947	0.822514
C74	C	-0.107793	-1.143947	1.072514
C75	C	0.142207	-0.893947	1.322514
C76	C	0.392207	-0.643947	1.572514
C77	C	-0.357782	-1.143345	0.464673
C78	C	-0.107782	-0.893345	0.714673
C79	C	0.142218	-0.643345	0.964673
C80	C	0.392218	-0.393345	1.214673
C81	C	-0.357793	-1.036131	0.464691
C82	C	-0.107793	-0.786131	0.714691
C83	C	0.142207	-0.536131	0.964691
C84	C	0.392207	-0.286131	1.214691
C85	C	-0.551505	-1.393997	0.464643
C86	C	-0.301505	-1.143997	0.714643
C87	C	-0.051505	-0.893997	0.964643
C88	C	0.198495	-0.643997	1.214643
C89	C	-0.634051	-1.394013	0.464625
C90	C	-0.384051	-1.144013	0.714625
C91	C	-0.134051	-0.894013	0.964625
C92	C	0.115949	-0.644013	1.214625
C93	C	-0.833487	-1.329607	0.528964
C94	C	-0.583487	-1.079607	0.778964
C95	C	-0.333487	-0.829607	1.028964
C96	C	-0.083487	-0.579607	1.278964
C97	C	-0.882878	-1.417615	0.552541
C98	C	-0.632878	-1.167615	0.802541
C99	C	-0.382878	-0.917615	1.052541
C100	C	-0.132878	-0.667615	1.302541
C101	C	-0.785181	-1.394061	0.464552
C102	C	-0.535181	-1.144061	0.714552
C103	C	-0.285181	-0.894061	0.964552
C104	C	-0.035181	-0.644061	1.214552
C105	C	-0.882872	-1.306102	0.440948
C106	C	-0.632872	-1.056102	0.690948
C107	C	-0.382872	-0.806102	0.940948
C108	C	-0.132872	-0.556102	1.190948
C109	C	-0.931166	-1.394099	0.464482
C110	C	-0.681166	-1.144099	0.714482
C111	C	-0.431166	-0.894099	0.964482
C112	C	-0.181166	-0.644099	1.214482
C113	C	-0.833484	-1.482115	0.488174
C114	C	-0.583484	-1.232115	0.738174
C115	C	-0.333484	-0.982115	0.988174
C116	C	-0.083484	-0.732115	1.238174
C117	C	-0.833475	-1.370542	0.376541
C118	C	-0.583475	-1.120542	0.626541
C119	C	-0.333475	-0.870542	0.876541
C120	C	-0.083475	-0.620542	1.126541
C121	C	-0.882843	-1.458611	0.400084
C122	C	-0.632843	-1.208611	0.650084
C123	C	-0.382843	-0.958611	0.900084
C124	C	-0.132843	-0.708611	1.150084
C125	C	-0.701083	-1.394038	0.464594
C126	C	-0.451083	-1.144038	0.714594
C127	C	-0.201083	-0.894038	0.964594
C128	C	0.048917	-0.644038	1.214594
C129	C	-1.015263	-1.394132	0.464440
C130	C	-0.765263	-1.144132	0.714440
C131	C	-0.515263	-0.894132	0.964440
C132	C	-0.265263	-0.644132	1.214440
C133	C	-0.164847	-1.393977	0.464659
C134	C	0.085153	-1.143977	0.714659
C135	C	0.335153	-0.893977	0.964659
C136	C	0.585153	-0.643977	1.214659
C137	C	-0.082302	-1.394148	0.464406
C138	C	0.167698	-1.144148	0.714406
C139	C	0.417698	-0.894148	0.964406
C140	C	0.667698	-0.644148	1.214406
C141	C	-0.357817	-1.645552	0.464700
C142	C	-0.107817	-1.395552	0.714700
C143	C	0.142183	-1.145552	0.964700
C144	C	0.392183	-0.895552	1.214700
C145	C	-0.357824	-1.752766	0.464706
C146	C	-0.107824	-1.502766	0.714706
C147	C	0.142176	-1.252766	0.964706
C148	C	0.392176	-1.002766	1.214706
C149	C	-0.357812	-0.839836	0.464694
C150	C	-0.107812	-0.589836	0.714694
C151	C	0.142188	-0.339836	0.964694
C152	C	0.392188	-0.089836	1.214694
C153	C	-0.357799	-0.949069	0.464690
C154	C	-0.107799	-0.699069	0.714690
C155	C	0.142201	-0.449069	0.964690
C156	C	0.392201	-0.199069	1.214690
C157	C	-0.357837	-1.394056	0.213093
C158	C	-0.107837	-1.144056	0.463093
C159	C	0.142163	-0.894056	0.713093
C160	C	0.392163	-0.644056	0.963093
C161	C	-0.357853	-1.394098	0.105879
C162	C	-0.107853	-1.144098	0.355879
C163	C	0.142147	-0.894098	0.605879
C164	C	0.392147	-0.644098	0.855879
C165	C	-0.357840	-1.394048	1.018809
C166	C	-0.107840	-1.144048	1.268809
C167	C	0.142160	-0.894048	1.518809
C168	C	0.392160	-0.644048	1.768809
C169	C	-0.357816	-1.393989	0.909577
C170	C	-0.107816	-1.143989	1.159577
C171	C	0.142184	-0.893989	1.409577
C172	C	0.392184	-0.643989	1.659577
H173	H	-0.811817	-1.275152	0.583507
H174	H	-0.561817	-1.025152	0.833507
H175	H	-0.311817	-0.775152	1.083507
H176	H	-0.061817	-0.525152	1.333507
H177	H	-0.904578	-1.437530	0.626940
H178	H	-0.654578	-1.187530	0.876940
H179	H	-0.404578	-0.937530	1.126940
H180	H	-0.154578	-0.687530	1.376940
O181	O	-0.911607	-1.207549	0.414537
O182	O	-0.661607	-0.957549	0.664537
O183	O	-0.411607	-0.707549	0.914537
O184	O	-0.161607	-0.457549	1.164537
H185	H	-0.945431	-1.212740	0.348023
H186	H	-0.695431	-0.962740	0.598023
H187	H	-0.445431	-0.712740	0.848023
H188	H	-0.195431	-0.462740	1.098023
H189	H	-0.811881	-1.556539	0.508193
H190	H	-0.561881	-1.306539	0.758193
H191	H	-0.311881	-1.056539	1.008193
H192	H	-0.061881	-0.806539	1.258193
O193	O	-0.911378	-1.530906	0.327888
O194	O	-0.661378	-1.280906	0.577888
O195	O	-0.411378	-1.030906	0.827888
O196	O	-0.161378	-0.780906	1.077888
H197	H	-0.891491	-1.603832	0.347679
H198	H	-0.641491	-1.353832	0.597679
H199	H	-0.391491	-1.103832	0.847679
H200	H	-0.141491	-0.853832	1.097679
H201	H	-0.811758	-1.350601	0.302163
H202	H	-0.561758	-1.100601	0.552163
H203	H	-0.311758	-0.850601	0.802163
H204	H	-0.061758	-0.600601	1.052163
