data_functionalizedCrystal
_audit_creation_method	'MofGen! by Chris Wilmer'
_symmetry_space_group_name_H-M	'P1'
_symmetry_Int_Tables_number	1
_symmetry_cell_setting	triclinic
loop_
_symmetry_equiv_pos_as_xyz
  x,y,z
_cell_length_a	10.654545
_cell_length_b	10.489741
_cell_length_c	9.730223
_cell_angle_alpha	89.995878
_cell_angle_beta	89.997167
_cell_angle_gamma	84.511126
loop_
_atom_site_label
_atom_site_type_symbol
_atom_site_fract_x
_atom_site_fract_y
_atom_site_fract_z
O1	O	1.667926	0.179134	-0.114275
O2	O	1.302455	0.196210	-0.114281
O3	O	1.493507	0.002070	-0.114270
O4	O	1.476874	0.373274	-0.114287
O5	O	1.493494	0.002065	0.114310
O6	O	1.302443	0.196204	0.114299
O7	O	1.667914	0.179129	0.114305
Zn8	Zn	1.485176	0.187666	0.150594
Zn9	Zn	1.485193	0.187673	-0.150570
O10	O	1.476862	0.373269	0.114293
C11	C	1.255650	0.194955	0.000008
C12	C	1.116205	0.191207	0.000006
C13	C	1.050693	0.189440	0.124606
C14	C	0.919672	0.185898	0.124606
C15	C	0.919686	0.185895	-0.124604
C16	C	1.050706	0.189428	-0.124603
C17	C	1.492244	-0.045464	0.000019
C18	C	1.488486	-0.187091	0.000017
C19	C	1.366925	-0.255171	0.000005
C20	C	1.424343	-0.347324	0.112707
C21	C	1.424384	-0.347294	-0.112655
C22	C	1.545954	-0.277380	0.112812
C23	C	1.545978	-0.277339	-0.112651
C24	C	1.603484	-0.369466	0.000079
C25	C	1.714719	0.180384	0.000012
C26	C	1.854164	0.184132	0.000005
C27	C	1.478125	0.420802	0.000001
C28	C	1.481883	0.562430	-0.000005
N29	N	1.485174	0.187660	0.356130
N30	N	1.485204	0.187668	-0.356107
C31	C	1.569801	0.101732	0.428061
C32	C	1.569814	0.101732	0.571944
C33	C	1.400569	0.273601	0.571952
C34	C	1.400551	0.273593	0.428072
H35	H	1.266979	-0.205470	0.000117
H36	H	1.638705	0.031758	0.369489
O37	O	1.652144	0.018217	0.641604
C38	C	1.819962	-0.152302	0.626402
C39	C	1.726809	-0.057763	0.547342
H40	H	1.880335	-0.213775	0.550226
H41	H	1.883286	-0.096698	0.693708
H42	H	1.765155	-0.216484	0.693817
H43	H	1.781512	0.006442	0.479853
H44	H	1.663485	-0.113447	0.480123
H45	H	1.331672	0.343568	0.630542
H46	H	0.866337	0.184459	0.226068
H47	H	0.866340	0.184448	-0.226057
H48	H	1.597339	-0.246575	0.208201
H49	H	1.372939	-0.378230	-0.207945
H50	H	1.104047	0.190864	-0.226073
O51	O	1.362781	-0.384218	0.226274
C52	C	1.168534	-0.367296	0.354729
C53	C	1.238103	-0.325443	0.226050
H54	H	1.067728	-0.319774	0.354605
H55	H	1.166966	-0.475812	0.354154
H56	H	1.219448	-0.337217	0.450754
H57	H	1.187244	-0.355434	0.129957
H58	H	1.239682	-0.216930	0.226747
H59	H	1.331631	0.343567	0.369502
H60	H	1.104018	0.190889	0.226071
H61	H	1.703521	-0.418940	0.000144
H62	H	1.597375	-0.246318	-0.207936
