data_functionalizedCrystal
_audit_creation_method	'MofGen! by Chris Wilmer'
_symmetry_space_group_name_H-M	'P1'
_symmetry_Int_Tables_number	1
_symmetry_cell_setting	triclinic
loop_
_symmetry_equiv_pos_as_xyz
  x,y,z
_cell_length_a	17.019311
_cell_length_b	17.038272
_cell_length_c	15.455313
_cell_angle_alpha	92.858370
_cell_angle_beta	83.447586
_cell_angle_gamma	87.245400
loop_
_atom_site_label
_atom_site_type_symbol
_atom_site_fract_x
_atom_site_fract_y
_atom_site_fract_z
O1	O	1.060136	0.092450	-0.151316
O2	O	0.830556	0.105958	-0.134170
O3	O	0.943981	-0.014605	-0.142634
O4	O	0.946711	0.213013	-0.142852
O5	O	0.937493	-0.007739	0.002112
O6	O	0.824068	0.112824	0.010576
O7	O	1.053648	0.099316	-0.006570
Cu8	Cu	0.938265	0.106697	0.015220
Cu9	Cu	0.945938	0.098577	-0.155959
O10	O	0.940223	0.219879	0.001895
C11	C	0.797792	0.109013	-0.059592
C12	C	0.709830	0.107878	-0.053022
C13	C	0.938255	-0.040290	-0.070076
C14	C	0.930850	-0.127050	-0.069523
C15	C	0.212160	0.101672	-0.011910
C16	C	0.294809	0.102738	-0.018085
C17	C	0.339671	0.099523	-0.100075
C18	C	0.301879	0.095248	-0.175895
C19	C	0.219231	0.094188	-0.169719
C20	C	0.589391	0.102543	-0.122667
C21	C	0.672044	0.103602	-0.128837
C22	C	0.664968	0.111093	0.028974
C23	C	0.582320	0.110027	0.035142
C24	C	0.544535	0.105757	-0.040678
C25	C	0.424151	0.100610	-0.106388
C26	C	0.460055	0.104675	-0.034364
C27	C	0.998837	-0.177461	-0.074600
C28	C	0.991875	-0.258982	-0.074088
C29	C	0.916925	-0.290089	-0.068493
C30	C	0.848932	-0.239672	-0.063419
C31	C	0.855895	-0.158153	-0.063937
C32	C	0.892325	-0.535740	-0.066668
C33	C	0.885367	-0.617265	-0.066148
C34	C	1.028310	-0.636570	-0.076818
C35	C	1.035267	-0.555049	-0.077331
C36	C	0.967275	-0.504638	-0.072261
C37	C	0.909806	-0.373416	-0.067967
C38	C	0.974394	-0.421314	-0.072793
C39	C	1.086412	0.096261	-0.081149
C40	C	1.174374	0.097395	-0.087725
C41	C	0.945949	0.245563	-0.070666
C42	C	0.953354	0.332324	-0.071224
N43	N	0.932874	0.112407	0.135618
N44	N	0.951335	0.092860	-0.276358
C45	C	0.981081	0.061207	0.177414
C46	C	0.977012	0.065533	0.268526
C47	C	0.924740	0.121064	0.317839
C48	C	0.876528	0.172267	0.276036
C49	C	0.880594	0.167936	0.184926
C50	C	0.907189	0.139733	0.590730
C51	C	0.903129	0.144061	0.681846
C52	C	1.003612	0.037325	0.674329
C53	C	1.007676	0.033003	0.583218
C54	C	0.959462	0.084204	0.541423
N55	N	0.920581	0.125488	0.410969
N56	N	0.963617	0.079775	0.448295
H57	H	0.175639	0.104293	0.054855
H58	H	1.047238	-0.300024	-0.078220
H59	H	1.096299	-0.529728	-0.081886
H60	H	0.460687	0.097990	-0.173144
F61	F	0.549188	0.097995	-0.203363
F62	F	1.100667	-0.690225	-0.082215
H63	H	0.338412	0.092635	-0.242653
F64	F	0.819961	-0.482100	-0.061274
F65	F	0.335020	0.107293	0.062608
H66	H	0.695742	0.114571	0.090702
H67	H	0.860561	0.189284	0.721993
H68	H	1.059870	-0.152141	-0.079150
F69	F	0.820891	0.231364	0.328520
F70	F	0.829283	0.222430	0.140445
F71	F	0.179016	0.089640	-0.250412
H72	H	0.708569	0.100990	-0.195606
H73	H	0.824329	-0.642588	-0.061577
F74	F	0.769164	-0.272781	-0.057474
H75	H	1.023650	0.015991	0.137269
H76	H	1.016264	0.023840	0.302556
H77	H	0.545799	0.112628	0.101907
F78	F	0.412308	0.108102	0.052893
F79	F	1.063310	-0.026098	0.530737
H80	H	0.867932	0.181424	0.556708
F81	F	0.783534	-0.104501	-0.058536
H82	H	1.035419	-0.395983	-0.077367
H83	H	0.848781	-0.398752	-0.063410
H84	H	1.042865	-0.004360	0.708367
