data_functionalizedCrystal
_audit_creation_method	'MofGen! by Chris Wilmer'
_symmetry_space_group_name_H-M	'P1'
_symmetry_Int_Tables_number	1
_symmetry_cell_setting	triclinic
loop_
_symmetry_equiv_pos_as_xyz
  x,y,z
_cell_length_a	12.759401
_cell_length_b	21.295417
_cell_length_c	12.759393
_cell_angle_alpha	89.961673
_cell_angle_beta	89.982620
_cell_angle_gamma	90.029863
loop_
_atom_site_label
_atom_site_type_symbol
_atom_site_fract_x
_atom_site_fract_y
_atom_site_fract_z
Zn1	Zn	1.606134	-0.250568	-0.593933
Zn2	Zn	1.605986	-0.355853	-0.418233
Zn3	Zn	1.430440	-0.250601	-0.418273
Zn4	Zn	1.430379	-0.355804	-0.593875
O5	O	1.518235	-0.303206	-0.506079
O6	O	1.753136	-0.264541	-0.570634
O7	O	1.582663	-0.341925	-0.271218
O8	O	1.453833	-0.162508	-0.441616
O9	O	1.753027	-0.341893	-0.441548
O10	O	1.582915	-0.162483	-0.570673
O11	O	1.453690	-0.264598	-0.271246
O12	O	1.283411	-0.264550	-0.441559
O13	O	1.453730	-0.341810	-0.740904
O14	O	1.283366	-0.341842	-0.570573
O15	O	1.582857	-0.264493	-0.740947
O16	O	1.582604	-0.443935	-0.441492
O17	O	1.453586	-0.443900	-0.570535
C18	C	1.245267	-0.303195	-0.506064
C19	C	1.128491	-0.303205	-0.506083
C20	C	1.518101	-0.466758	-0.506025
C21	C	1.518140	-0.536726	-0.506038
C22	C	1.073633	-0.343515	-0.573150
C23	C	0.963909	-0.343523	-0.573161
C24	C	0.963910	-0.262909	-0.439031
C25	C	1.073632	-0.262898	-0.439025
C26	C	1.128492	-0.383822	-0.640208
C27	C	1.073634	-0.424136	-0.707279
C28	C	0.963910	-0.424144	-0.707290
C29	C	0.909043	-0.383838	-0.640231
C30	C	1.585314	-0.569523	-0.573286
C31	C	1.585351	-0.635265	-0.573312
C32	C	1.518225	-0.668209	-0.506071
C33	C	1.451037	-0.635404	-0.438818
C34	C	1.450995	-0.569663	-0.438802
N35	N	1.510288	-0.771478	-0.414125
N36	N	1.510334	-0.833929	-0.414143
C37	C	1.518348	-0.866283	-0.506118
N38	N	1.526333	-0.833827	-0.598076
N39	N	1.526292	-0.771369	-0.598056
C40	C	1.518263	-0.739494	-0.506082
C41	C	1.585566	-0.970366	-0.573400
C42	C	1.585596	-1.036109	-0.573428
C43	C	1.451287	-1.036247	-0.438925
C44	C	1.451252	-0.970504	-0.438907
C45	C	1.518397	-0.937568	-0.506143
C46	C	1.792268	-0.303219	-0.506094
C47	C	1.909045	-0.303224	-0.506100
C48	C	1.518303	-0.303142	-0.780112
C49	C	1.518332	-0.303115	-0.896889
C50	C	1.518398	-0.139016	-0.506155
C51	C	1.518467	-0.069048	-0.506188
C52	C	1.451204	-0.262843	-0.951772
C53	C	1.451236	-0.262824	-1.061496
C54	C	1.585533	-0.343351	-1.061444
C55	C	1.585495	-0.343373	-0.951722
C56	C	1.384042	-0.222586	-0.896939
C57	C	1.316909	-0.182310	-0.951822
C58	C	1.316941	-0.182291	-1.061546
C59	C	1.384105	-0.222548	-1.116387
C60	C	1.518227	-0.303225	-0.233111
C61	C	1.518402	-0.303075	-0.116335
H62	H	1.217834	-0.383821	-0.640204
H63	H	1.396556	-0.943799	-0.384142
F64	F	0.905514	-0.220017	-0.367664
H65	H	1.640297	-1.062811	-0.628194
F66	F	1.657023	-0.935310	-0.644961
F67	F	1.379494	-0.534757	-0.367225
F68	F	1.245477	-0.139438	-1.119954
F69	F	1.379843	-1.071303	-0.367364
F70	F	1.384131	-0.222529	-1.233167
F71	F	1.656771	-0.534473	-0.644850
F72	F	1.657010	-0.386191	-1.119813
F73	F	1.132019	-0.219996	-0.367645
F74	F	1.656936	-0.386237	-0.893308
H75	H	1.118313	-0.456948	-0.761883
F76	F	0.905529	-0.467044	-0.778680
H77	H	1.384010	-0.222595	-0.807596
F78	F	1.245429	-0.139470	-0.893455
H79	H	1.396380	-0.662231	-0.384073
F80	F	0.792264	-0.383844	-0.640254
H81	H	1.640044	-0.661974	-0.628085
