data_functionalizedCrystal
_audit_creation_method	'MofGen! by Chris Wilmer'
_symmetry_space_group_name_H-M	'P1'
_symmetry_Int_Tables_number	1
_symmetry_cell_setting	triclinic
loop_
_symmetry_equiv_pos_as_xyz
  x,y,z
_cell_length_a	14.519709
_cell_length_b	16.992694
_cell_length_c	16.053802
_cell_angle_alpha	92.750953
_cell_angle_beta	92.569364
_cell_angle_gamma	92.825816
loop_
_atom_site_label
_atom_site_type_symbol
_atom_site_fract_x
_atom_site_fract_y
_atom_site_fract_z
O1	O	0.191936	-1.043963	-0.069327
O2	O	0.189789	-0.815676	-0.069352
O3	O	0.057059	-0.935872	-0.069332
O4	O	0.324666	-0.923768	-0.069348
O5	O	0.064333	-0.929256	0.069526
O6	O	0.197063	-0.809060	0.069506
O7	O	0.199210	-1.037348	0.069530
Zn8	Zn	0.199291	-0.922154	0.091565
Zn9	Zn	0.189708	-0.930870	-0.091386
O10	O	0.331940	-0.917152	0.069510
C11	C	0.190666	-0.783152	0.000074
C12	C	0.182430	-0.696097	0.000065
C13	C	0.026296	-0.932000	0.000097
C14	C	-0.076207	-0.930309	0.000098
C15	C	0.198333	-1.069872	0.000103
C16	C	0.206569	-1.156927	0.000106
C17	C	-0.451551	-0.924087	0.000075
C18	C	-0.347118	-0.925815	0.000082
C19	C	-0.263882	-0.927198	0.000087
C20	C	-0.159443	-0.928926	0.000092
C21	C	0.362703	-0.921024	0.000079
C22	C	0.465206	-0.922715	0.000073
N23	N	0.205832	-0.916210	0.216424
C24	C	0.261890	-0.645968	0.000061
C25	C	0.254147	-0.564170	0.000073
C26	C	0.166943	-0.532503	0.000083
C27	C	0.087478	-0.582638	0.000089
C28	C	0.095222	-0.664434	0.000083
C29	C	0.134847	-0.288859	0.000107
C30	C	0.127109	-0.207056	0.000111
C31	C	0.293779	-0.188594	0.000095
C32	C	0.301515	-0.270393	0.000084
C33	C	0.222050	-0.320520	0.000095
N34	N	0.159027	-0.448892	0.000092
N35	N	0.229968	-0.404129	0.000092
N36	N	0.183161	-0.936820	-0.216246
C37	C	0.149377	-0.967373	0.260127
C38	C	0.153962	-0.963222	0.347533
C39	C	0.215006	-0.907913	0.391235
C40	C	0.271462	-0.856746	0.347526
C41	C	0.266872	-0.860893	0.260121
C42	C	0.235027	-0.889799	0.652641
C43	C	0.239615	-0.885658	0.740052
C44	C	0.122113	-0.992134	0.740053
C45	C	0.117533	-0.996279	0.652646
C46	C	0.173985	-0.945109	0.608945
N47	N	0.219695	-0.903672	0.480578
N48	N	0.169291	-0.949347	0.519604
H49	H	0.332900	-0.671745	0.000052
H50	H	0.358475	-0.147771	0.000088
C51	C	0.345877	-0.458082	0.071445
C52	C	0.341489	-0.509066	0.000060
H53	H	0.399804	-0.424066	0.071437
H54	H	0.292839	-0.427521	0.071451
H55	H	0.347980	-0.488084	0.119860
H56	H	0.339380	-0.479064	-0.048355
H57	H	0.394541	-0.539629	0.000046
C58	C	-0.012293	-1.017282	0.554860
C59	C	0.049987	-1.056869	0.604836
H60	H	-0.054118	-1.054630	0.525408
H61	H	-0.045657	-0.982767	0.589123
H62	H	0.020662	-0.987611	0.516146
H63	H	0.017032	-1.086536	0.643555
H64	H	0.083354	-1.091398	0.570570
H65	H	0.076151	-1.033794	0.775642
C66	C	0.355280	-0.780801	0.731276
C67	C	0.306705	-0.824846	0.788091
H68	H	0.396690	-0.743257	0.760936
H69	H	0.389106	-0.815094	0.697179
H70	H	0.312984	-0.754170	0.697192
H71	H	0.349001	-0.851482	0.822172
H72	H	0.272877	-0.790547	0.822202
H73	H	0.016475	-0.556847	0.000110
H74	H	0.372525	-0.296170	0.000066
C75	C	0.354132	-0.877621	0.554346
C76	C	0.297096	-0.833563	0.604615
H77	H	0.392452	-0.842902	0.524693
H78	H	0.391514	-0.908689	0.588436
H79	H	0.317110	-0.911144	0.515808
H80	H	0.334119	-0.800045	0.643158
H81	H	0.259711	-0.802482	0.570523
H82	H	0.030517	-0.705249	0.000086
H83	H	0.056094	-0.181277	0.000118
H84	H	0.321162	-0.811708	0.383113
H85	H	0.107992	-1.004882	0.383115
C86	C	-0.030674	-0.298880	0.000117
C87	C	0.047499	-0.343952	0.000113
H88	H	-0.084601	-0.332897	0.000115
H89	H	-0.027688	-0.264293	0.048537
H90	H	-0.032756	-0.268892	-0.048309
H91	H	0.049585	-0.373936	0.048542
H92	H	0.044512	-0.378553	-0.048313
C93	C	0.033687	-1.072196	0.268916
C94	C	0.082273	-1.028169	0.212094
H95	H	-0.007746	-1.109725	0.239262
H96	H	0.075967	-1.098837	0.302994
H97	H	-0.000123	-1.037882	0.303019
H98	H	0.116089	-1.062482	0.177995
H99	H	0.039988	-1.001527	0.178002
H100	H	0.312842	-0.819230	0.224539
