data_functionalizedCrystal
_audit_creation_method	'MofGen! by Chris Wilmer'
_symmetry_space_group_name_H-M	'P1'
_symmetry_Int_Tables_number	1
_symmetry_cell_setting	triclinic
loop_
_symmetry_equiv_pos_as_xyz
  x,y,z
_cell_length_a	10.540510
_cell_length_b	10.540539
_cell_length_c	12.996460
_cell_angle_alpha	89.996006
_cell_angle_beta	89.994188
_cell_angle_gamma	84.519401
loop_
_atom_site_label
_atom_site_type_symbol
_atom_site_fract_x
_atom_site_fract_y
_atom_site_fract_z
O1	O	1.685911	0.178723	-0.085568
O2	O	2.185911	0.678723	0.414432
O3	O	1.316493	0.195618	-0.085568
O4	O	1.816493	0.695618	0.414432
O5	O	1.509630	0.002463	-0.085567
O6	O	2.009630	0.502463	0.414433
O7	O	1.492774	0.371878	-0.085569
O8	O	1.992774	0.871878	0.414431
O9	O	1.509610	0.002452	0.085567
O10	O	2.009610	0.502452	0.585567
O11	O	1.316473	0.195607	0.085566
O12	O	1.816473	0.695607	0.585566
O13	O	1.685891	0.178712	0.085566
O14	O	2.185891	0.678712	0.585566
Cu15	Cu	1.501180	0.187159	0.101192
Cu16	Cu	2.001180	0.687159	0.601192
Cu17	Cu	1.501204	0.187171	-0.101194
Cu18	Cu	2.001204	0.687171	0.398806
O19	O	1.492754	0.371867	0.085564
O20	O	1.992754	0.871867	0.585564
C21	C	1.269179	0.194354	-0.000001
C22	C	1.769179	0.694354	0.499999
C23	C	1.128229	0.190587	-0.000002
C24	C	1.628229	0.690587	0.499998
C25	C	0.910774	0.324771	-0.000396
C26	C	1.410774	0.824771	0.499604
C27	C	1.057370	0.328789	-0.000004
C28	C	1.557370	0.828789	0.499996
C29	C	1.083458	0.119834	0.097722
C30	C	1.583458	0.619834	0.597722
C31	C	0.936697	0.116795	0.097798
C32	C	1.436697	0.616795	0.597798
C33	C	0.936914	0.113930	-0.096813
C34	C	1.436914	0.613930	0.403187
C35	C	1.083255	0.120485	-0.098099
C36	C	1.583255	0.620485	0.401901
C37	C	1.508356	-0.044845	-0.000002
C38	C	2.008356	0.455155	0.499998
C39	C	1.504574	-0.185793	-0.000007
C40	C	2.004574	0.314207	0.499993
C41	C	1.359655	-0.369204	-0.000391
C42	C	1.859655	0.130796	0.499609
C43	C	1.363489	-0.222587	-0.000006
C44	C	1.863489	0.277413	0.499994
C45	C	1.572459	-0.247464	0.097719
C46	C	2.072459	0.252536	0.597719
C47	C	1.567644	-0.394008	0.097801
C48	C	2.067644	0.105992	0.597801
C49	C	1.570536	-0.394514	-0.096810
C50	C	2.070536	0.105486	0.403190
C51	C	1.571836	-0.247532	-0.098102
C52	C	2.071836	0.252468	0.401898
C53	C	1.733204	0.179976	-0.000003
C54	C	2.233204	0.679976	0.499997
C55	C	1.874154	0.183743	-0.000010
C56	C	2.374154	0.683743	0.499990
C57	C	1.494028	0.419175	-0.000003
C58	C	1.994028	0.919175	0.499997
C59	C	1.497810	0.560123	-0.000004
C60	C	1.997810	1.060123	0.499996
N61	N	1.501172	0.187149	0.243539
N62	N	2.001172	0.687149	0.743539
N63	N	1.501222	0.187171	-0.243541
N64	N	2.001222	0.687171	0.256459
C65	C	1.501202	0.187173	0.663353
C66	C	2.001202	0.687173	1.163353
C67	C	1.501190	0.187170	0.546548
C68	C	2.001190	0.687170	1.046548
C69	C	1.501188	0.187162	0.453450
C70	C	2.001188	0.687162	0.953450
C71	C	1.501174	0.187157	0.336637
C72	C	2.001174	0.687157	0.836637
H73	H	0.896472	0.165139	0.170847
H74	H	1.396472	0.665139	0.670847
H75	H	1.309681	-0.180829	0.070164
H76	H	1.809681	0.319171	0.570164
H77	H	1.111882	0.171964	-0.170394
H78	H	1.611882	0.671964	0.329606
H79	H	0.868829	0.378617	-0.070479
H80	H	1.368829	0.878617	0.429521
N81	N	1.124292	0.184933	0.194051
N82	N	1.624292	0.684933	0.694051
H83	H	1.046594	0.215389	0.235956
H84	H	1.546594	0.715389	0.735956
H85	H	1.181880	0.122749	0.236049
H86	H	1.681880	0.622749	0.736049
H87	H	1.303931	-0.397794	-0.070472
H88	H	1.803931	0.102206	0.429528
H89	H	0.867259	0.378298	0.069290
H90	H	1.367259	0.878298	0.569290
H91	H	1.517456	-0.422207	0.170853
H92	H	2.017456	0.077793	0.670853
H93	H	1.676067	-0.225121	0.101352
H94	H	2.176067	0.274879	0.601352
N95	N	1.702038	-0.457575	0.103681
N96	N	2.202038	0.042425	0.603681
H97	H	1.764144	-0.390365	0.106213
H98	H	2.264144	0.109635	0.606213
H99	H	1.711694	-0.511894	0.167735
H100	H	2.211694	-0.011894	0.667735
N101	N	1.509998	-0.191028	0.194056
N102	N	2.009998	0.308972	0.694056
H103	H	1.437741	-0.125530	0.174619
H104	H	1.937741	0.374470	0.674619
H105	H	1.475664	-0.260864	0.235946
H106	H	1.975664	0.239136	0.735946
H107	H	1.524883	-0.426057	-0.170880
H108	H	2.024883	0.073943	0.329120
N109	N	1.708094	-0.215478	-0.105920
N110	N	2.208094	0.284522	0.394080
H111	H	1.748809	-0.256405	-0.169612
H112	H	2.248809	0.243595	0.330388
H113	H	1.709622	-0.119967	-0.110236
H114	H	2.209622	0.380033	0.389764
H115	H	1.132324	0.019587	-0.103999
H116	H	1.632324	0.519587	0.396001
H117	H	1.522165	-0.206664	-0.170397
H118	H	2.022165	0.293336	0.329603
H119	H	1.085765	0.384467	0.070166
H120	H	1.585765	0.884467	0.570166
N121	N	1.705522	-0.457076	-0.097688
N122	N	2.205522	0.042924	0.402312
H123	H	1.719553	-0.514528	-0.035718
H124	H	2.219553	-0.014528	0.464282
H125	H	1.720221	-0.509157	-0.162562
H126	H	2.220221	-0.009157	0.337438
H127	H	1.310073	-0.179973	-0.070060
H128	H	1.810073	0.320027	0.429940
N129	N	1.096266	0.402104	-0.092796
N130	N	1.596266	0.902104	0.407204
H131	H	1.018117	0.432100	-0.134323
H132	H	1.518117	0.932100	0.365677
H133	H	1.140091	0.478191	-0.069381
H134	H	1.640091	0.978191	0.430619
H135	H	0.914760	0.010168	-0.097473
H136	H	1.414760	0.510168	0.402527
H137	H	0.894375	0.157517	-0.170883
H138	H	1.394375	0.657517	0.329117
N139	N	0.906222	-0.020118	0.103678
N140	N	1.406222	0.479882	0.603678
H141	H	0.988096	-0.078232	0.106215
H142	H	1.488096	0.421768	0.606215
H143	H	0.854599	-0.032621	0.167731
H144	H	1.354599	0.467379	0.667731
N145	N	1.146232	-0.014931	0.102554
N146	N	1.646232	0.485069	0.602554
H147	H	1.204436	-0.031456	0.041295
H148	H	1.704436	0.468544	0.541295
H149	H	1.197553	-0.026781	0.168053
H150	H	1.697553	0.473219	0.668053
H151	H	1.304141	-0.399410	0.069297
H152	H	1.804141	0.100590	0.569297
