data_functionalizedCrystal
_audit_creation_method	'MofGen! by Chris Wilmer'
_symmetry_space_group_name_H-M	'P1'
_symmetry_Int_Tables_number	1
_symmetry_cell_setting	triclinic
loop_
_symmetry_equiv_pos_as_xyz
  x,y,z
_cell_length_a	17.917603
_cell_length_b	17.052862
_cell_length_c	17.052862
_cell_angle_alpha	118.506848
_cell_angle_beta	89.214222
_cell_angle_gamma	67.577043
loop_
_atom_site_label
_atom_site_type_symbol
_atom_site_fract_x
_atom_site_fract_y
_atom_site_fract_z
Zr1	Zr	0.890125	0.744198	0.153027
O2	O	0.805309	0.878999	0.285675
O3	O	0.897451	0.592879	0.098446
O4	O	0.938607	0.707331	0.257065
O5	O	0.752930	0.799388	0.017766
O6	O	1.064998	0.697038	0.250330
O7	O	0.764152	0.764547	0.127055
O8	O	0.991377	0.492305	-0.033412
O9	O	0.826551	1.004121	0.301507
O10	O	1.017461	0.653555	0.086956
O11	O	0.914762	0.687237	0.010421
O12	O	0.963219	0.821989	0.197175
O13	O	0.860520	0.855672	0.120640
Zr14	Zr	1.073805	0.783349	-0.032020
Zr15	Zr	1.091703	0.727782	0.142285
Zr16	Zr	0.872226	0.799765	-0.021277
Zr17	Zr	0.924004	0.943753	0.178278
Zr18	Zr	1.039926	0.583794	-0.057270
O19	O	1.066479	0.934667	0.022562
O20	O	1.091928	0.855658	0.270400
O21	O	0.779860	0.958008	0.037836
O22	O	1.158621	0.648548	-0.164667
O23	O	1.184070	0.569539	0.083171
O24	O	0.872002	0.671888	-0.149393
O25	O	1.211000	0.728158	0.103242
O26	O	1.025323	0.820216	-0.136058
O27	O	0.898932	0.830508	-0.129322
O28	O	1.199777	0.762999	-0.006048
O29	O	0.986780	0.991073	0.292968
O30	O	0.977150	0.536474	-0.171961
O31	O	1.137378	0.523426	-0.180499
O32	O	1.151605	0.479257	-0.041951
O33	O	0.812325	1.048289	0.162958
O34	O	0.972553	1.035241	0.154419
O35	O	1.000711	0.705557	-0.076167
O36	O	1.103410	0.671875	0.000368
O37	O	1.049168	0.840309	0.110587
O38	O	0.946469	0.873992	0.034052
C39	C	0.939587	0.514160	0.028919
C40	C	0.925204	0.429444	0.018200
C41	C	1.099092	0.120319	0.147798
C42	C	1.112604	0.199917	0.157876
C43	C	1.065755	0.257302	0.122957
C44	C	1.005392	0.235082	0.077960
C45	C	0.991874	0.155481	0.067888
C46	C	0.958538	0.292464	0.043047
C47	C	0.898174	0.270244	-0.001950
C48	C	0.884660	0.190650	-0.012021
C49	C	0.931508	0.133265	0.022898
C50	C	0.972056	0.372066	0.053120
C51	C	0.864838	0.407228	-0.026790
C52	C	0.851326	0.327629	-0.036868
C53	C	0.729821	0.784307	0.073941
C54	C	0.644245	0.791275	0.078502
C55	C	0.487575	0.804005	0.086831
C56	C	0.476349	0.723545	0.034180
C57	C	0.389172	0.730628	0.038814
C58	C	0.574759	0.796924	0.082198
C59	C	1.234109	0.743240	0.047066
C60	C	1.319685	0.736271	0.042506
C61	C	1.004353	0.694267	0.278532
C62	C	1.011951	0.670678	0.352529
C63	C	1.024343	1.013386	0.092088
C64	C	1.038726	1.098103	0.102808
C65	C	0.920100	0.955876	0.791253
C66	C	0.912956	0.978043	0.721731
C67	C	0.937704	0.901204	0.629428
C68	C	0.969597	0.802193	0.606652
C69	C	0.976736	0.780025	0.676180
C70	C	0.994340	0.725352	0.514355
C71	C	1.026233	0.626342	0.491579
C72	C	1.033371	0.604177	0.561102
C73	C	1.008623	0.681017	0.653405
C74	C	0.987202	0.747521	0.444827
C75	C	1.043838	0.571670	0.329754
C76	C	1.050982	0.549503	0.399276
C77	C	0.959579	0.833279	0.842475
C78	C	0.951987	0.856868	0.768478
C79	C	1.191731	0.493627	0.015482
C80	C	1.262924	0.401942	0.000202
C81	C	0.917199	0.583666	-0.189109
C82	C	0.895218	0.522539	-0.273825
C83	C	1.169343	0.563133	-0.202546
C84	C	1.232938	0.495037	-0.291823
C85	C	0.794587	0.964414	0.323554
C86	C	0.730992	1.032510	0.412831
C87	C	0.772199	1.033920	0.105525
C88	C	0.701006	1.125605	0.120805
C89	C	1.046731	0.943881	0.310116
C90	C	1.068712	1.005007	0.394833
C91	C	1.251493	0.349320	0.038232
C92	C	1.318382	0.263178	0.023893
C93	C	1.396700	0.229656	-0.028482
C94	C	1.408130	0.282286	-0.066512
C95	C	1.341243	0.368430	-0.052167
C96	C	0.929759	0.503399	-0.358814
C97	C	0.909103	0.445977	-0.438419
C98	C	0.853911	0.407691	-0.433034
C99	C	0.819366	0.426837	-0.348035
C100	C	0.840017	0.484264	-0.268431
C101	C	1.316419	0.445476	-0.293798
C102	C	1.376183	0.381501	-0.377676
C103	C	1.352463	0.367083	-0.459577
C104	C	1.268974	0.416653	-0.457599
C105	C	1.209213	0.480631	-0.373722
C106	C	0.647513	1.082080	0.414807
C107	C	0.587753	1.146080	0.498688
C108	C	0.611473	1.160502	0.580590
C109	C	0.694961	1.110927	0.578611
C110	C	0.754720	1.046935	0.494732
C111	C	0.712439	1.178233	0.082784
C112	C	0.645556	1.264390	0.097145
C113	C	0.567239	1.297914	0.149522
C114	C	0.555808	1.245282	0.187549
C115	C	0.622692	1.159130	0.173193
C116	C	1.123907	1.043276	0.389418
C117	C	1.144577	1.100701	0.469009
C118	C	1.110045	1.119863	0.554015
C119	C	1.054847	1.081587	0.559427
C120	C	1.034183	1.024157	0.479836
H121	H	1.161750	0.218007	0.194513
H122	H	1.076948	0.468888	0.380743
H123	H	1.021204	0.390150	0.089757
H124	H	0.532210	0.649342	-0.014377
H125	H	0.774426	0.395657	-0.343664
H126	H	0.989236	0.993005	0.484258
Br127	Br	0.869640	1.112411	0.752645
Br128	Br	1.433579	0.280251	-0.573405
H129	H	0.431718	0.878203	0.135384
Br130	Br	1.302850	0.191768	0.075511
H131	H	1.141239	0.520977	-0.372126
Br132	Br	1.219485	1.152639	0.461642
Br133	Br	0.802726	0.160508	-0.073072
Br134	Br	1.138097	1.197808	0.662024
H135	H	0.628183	1.070343	0.348126
Br136	Br	0.928011	0.931289	0.535076
H137	H	0.899948	1.018428	0.866407
Br138	Br	1.084094	0.365330	0.136633
H139	H	1.444159	0.341146	-0.379271
Br140	Br	0.661088	1.335801	0.045528
H141	H	1.471905	0.254979	-0.109156
H142	H	1.249673	0.404904	-0.524295
H143	H	0.562805	1.212611	0.648883
Br144	Br	0.476475	1.414838	0.168996
Br145	Br	0.868013	0.979660	0.492065
Br146	Br	1.162654	0.042451	0.195196
H147	H	0.714266	1.122678	0.645306
H148	H	1.014439	0.662974	0.710020
H149	H	0.961233	0.828137	0.463381
H150	H	1.059332	0.523557	0.542551
Br151	Br	0.474455	1.213345	0.501351
H152	H	0.492033	1.272591	0.230195
Br153	Br	0.607159	1.087712	0.224797
Br154	Br	1.356770	0.439832	-0.103793
H155	H	1.063987	0.509101	0.254597
H156	H	1.026736	1.097198	0.628650
H157	H	1.152031	1.027685	0.320209
H158	H	0.826688	0.453954	-0.055221
H159	H	1.451156	0.159510	-0.040156
Br160	Br	0.913175	0.025228	0.009211
Br161	Br	0.769413	0.297457	-0.097942
Br162	Br	1.004670	0.555341	-0.366149
Br163	Br	1.145213	0.394796	0.109319
H164	H	0.811889	0.499838	-0.199234
H165	H	0.937241	0.430396	-0.507621
H166	H	0.776202	1.150947	0.040128
Br167	Br	0.825892	0.329756	-0.541079
H168	H	1.335747	0.457202	-0.227119
