data_functionalizedCrystal
_audit_creation_method	'MofGen! by Chris Wilmer'
_symmetry_space_group_name_H-M	'P1'
_symmetry_Int_Tables_number	1
_symmetry_cell_setting	triclinic
loop_
_symmetry_equiv_pos_as_xyz
  x,y,z
_cell_length_a	11.792254
_cell_length_b	11.792254
_cell_length_c	7.088929
_cell_angle_alpha	83.733108
_cell_angle_beta	96.246827
_cell_angle_gamma	84.198598
loop_
_atom_site_label
_atom_site_type_symbol
_atom_site_fract_x
_atom_site_fract_y
_atom_site_fract_z
O1	O	1.495328	0.167231	-0.158988
O2	O	1.995328	0.667231	0.341012
O3	O	1.164989	0.183249	-0.158992
O4	O	1.664989	0.683249	0.341008
O5	O	1.338169	0.010070	-0.158976
O6	O	1.838169	0.510070	0.341024
O7	O	1.322149	0.340410	-0.159004
O8	O	1.822149	0.840410	0.340996
O9	O	1.361312	-0.013127	0.159001
O10	O	1.861312	0.486873	0.659001
O11	O	1.188133	0.160053	0.158985
O12	O	1.688133	0.660053	0.658985
O13	O	1.518471	0.144034	0.158989
O14	O	2.018471	0.644034	0.658989
Cu15	Cu	1.355415	0.149926	0.188021
Cu16	Cu	1.855415	0.649926	0.688021
Cu17	Cu	1.328046	0.177358	-0.188024
Cu18	Cu	1.828046	0.677358	0.311976
O19	O	1.345292	0.317214	0.158974
O20	O	1.845292	0.817214	0.658974
C21	C	1.134270	0.170642	-0.000004
C22	C	1.634270	0.670642	0.499996
C23	C	1.008257	0.167622	-0.000005
C24	C	1.508257	0.667622	0.499995
C25	C	0.905920	0.165168	-0.000013
C26	C	1.405920	0.665168	0.499987
C27	C	0.777533	0.162100	-0.000014
C28	C	1.277533	0.662100	0.499986
C29	C	1.348731	-0.043819	0.000012
C30	C	1.848731	0.456181	0.500012
C31	C	1.345711	-0.169832	0.000010
C32	C	1.845711	0.330168	0.500010
C33	C	1.343257	-0.272168	0.000003
C34	C	1.843257	0.227832	0.500003
C35	C	1.340187	-0.400554	-0.000015
C36	C	1.840187	0.099446	0.499985
C37	C	1.549190	0.156642	-0.000003
C38	C	2.049190	0.656642	0.499997
C39	C	1.675203	0.159663	-0.000014
C40	C	2.175203	0.659663	0.499986
C41	C	1.334729	0.371103	-0.000019
C42	C	1.834729	0.871103	0.499981
C43	C	1.337749	0.497117	-0.000029
C44	C	1.837749	0.997117	0.499971
N45	N	1.374674	0.130630	0.452511
N46	N	1.874674	0.630630	0.952511
N47	N	1.308796	0.196644	-0.452514
N48	N	1.808796	0.696644	0.047486
H49	H	1.240521	0.265053	0.465834
H50	H	1.740521	0.765053	0.965834
H51	H	1.442962	0.062225	0.534173
H52	H	1.942962	0.562225	1.034173
