data_functionalizedCrystal
_audit_creation_method	'MofGen! by Chris Wilmer'
_symmetry_space_group_name_H-M	'P1'
_symmetry_Int_Tables_number	1
_symmetry_cell_setting	triclinic
loop_
_symmetry_equiv_pos_as_xyz
  x,y,z
_cell_length_a	16.625548
_cell_length_b	16.120444
_cell_length_c	16.625539
_cell_angle_alpha	92.869358
_cell_angle_beta	89.979432
_cell_angle_gamma	92.927662
loop_
_atom_site_label
_atom_site_type_symbol
_atom_site_fract_x
_atom_site_fract_y
_atom_site_fract_z
Zn1	Zn	1.216382	-0.331884	-0.472171
Zn2	Zn	1.549715	0.001450	-0.138838
Zn3	Zn	1.883049	0.334783	0.194496
Zn4	Zn	1.209438	-0.471309	-0.344170
Zn5	Zn	1.542772	-0.137975	-0.010836
Zn6	Zn	1.876105	0.195358	0.322497
Zn7	Zn	1.081542	-0.331916	-0.337353
Zn8	Zn	1.414876	0.001418	-0.004020
Zn9	Zn	1.748209	0.334751	0.329314
Zn10	Zn	1.074670	-0.471261	-0.478957
Zn11	Zn	1.408003	-0.137928	-0.145624
Zn12	Zn	1.741336	0.195406	0.187709
O13	O	1.145508	-0.401592	-0.408163
O14	O	1.478842	-0.068259	-0.074829
O15	O	1.812175	0.265074	0.258504
O16	O	1.328293	-0.350386	-0.455204
O17	O	1.661626	-0.017052	-0.121871
O18	O	1.994960	0.316281	0.211463
O19	O	1.192443	-0.452851	-0.230435
O20	O	1.525776	-0.119518	0.102899
O21	O	1.859110	0.213815	0.436232
O22	O	1.105211	-0.215245	-0.349544
O23	O	1.438545	0.118088	-0.016211
O24	O	1.771878	0.451422	0.317123
O25	O	1.323192	-0.452821	-0.361162
O26	O	1.656525	-0.119487	-0.027829
O27	O	1.989858	0.213846	0.305504
O28	O	1.204278	-0.215222	-0.448594
O29	O	1.537611	0.118112	-0.115261
O30	O	1.870944	0.451445	0.218072
O31	O	1.098478	-0.350440	-0.225427
O32	O	1.431812	-0.017106	0.107907
O33	O	1.765145	0.316227	0.441240
O34	O	0.967799	-0.350393	-0.356125
O35	O	1.301132	-0.017060	-0.022791
O36	O	1.634465	0.316273	0.310542
O37	O	1.093498	-0.452739	-0.590888
O38	O	1.426831	-0.119406	-0.257555
O39	O	1.760165	0.213928	0.075779
O40	O	0.962749	-0.452770	-0.460161
O41	O	1.296083	-0.119436	-0.126827
O42	O	1.629416	0.213897	0.206506
O43	O	1.197613	-0.350339	-0.585902
O44	O	1.530947	-0.017006	-0.252569
O45	O	1.864280	0.316328	0.080765
O46	O	1.185779	-0.587969	-0.367743
O47	O	1.519112	-0.254636	-0.034409
O48	O	1.852446	0.078698	0.298924
O49	O	1.086765	-0.587934	-0.466770
O50	O	1.420098	-0.254600	-0.133437
O51	O	1.753432	0.078733	0.199896
C52	C	0.936018	-0.401580	-0.408140
C53	C	1.269351	-0.068247	-0.074806
C54	C	1.602685	0.265086	0.258527
C55	C	0.846396	-0.401595	-0.408150
C56	C	1.179729	-0.068262	-0.074817
C57	C	1.513063	0.265071	0.258517
C58	C	1.134795	-0.618202	-0.418750
C59	C	1.468128	-0.284868	-0.085417
C60	C	1.801461	0.048465	0.247916
C61	C	1.130285	-0.710868	-0.423306
C62	C	1.463618	-0.377535	-0.089973
C63	C	1.796952	-0.044201	0.243360
C64	C	0.518220	-0.401601	-0.408185
C65	C	0.851553	-0.068268	-0.074851
C66	C	1.184887	0.265066	0.258482
C67	C	0.609529	-0.401597	-0.408172
C68	C	0.942862	-0.068264	-0.074839
C69	C	1.276195	0.265070	0.258494
C70	C	0.682305	-0.401599	-0.408167
C71	C	1.015639	-0.068265	-0.074833
C72	C	1.348972	0.265068	0.258500
C73	C	0.773620	-0.401594	-0.408156
C74	C	1.106953	-0.068260	-0.074822
C75	C	1.440286	0.265073	0.258511
C76	C	1.169099	-0.921808	-0.384700
C77	C	1.502433	-0.588475	-0.051367
C78	C	1.835766	-0.255142	0.281966
C79	C	1.122066	-0.880525	-0.431634
C80	C	1.455400	-0.547192	-0.098300
C81	C	1.788733	-0.213858	0.235033
C82	C	1.126641	-0.786119	-0.426999
C83	C	1.459974	-0.452786	-0.093666
C84	C	1.793307	-0.119452	0.239668
C85	C	1.164526	-1.016223	-0.389334
C86	C	1.497859	-0.682890	-0.056001
C87	C	1.831193	-0.349556	0.277333
C88	C	1.355816	-0.401605	-0.408187
C89	C	1.689150	-0.068272	-0.074853
C90	C	2.022483	0.265062	0.258480
C91	C	1.445437	-0.401610	-0.408197
C92	C	1.778771	-0.068277	-0.074863
C93	C	2.112104	0.265056	0.258470
C94	C	1.145564	-0.401530	-0.618469
C95	C	1.478897	-0.068197	-0.285135
C96	C	1.812230	0.265136	0.048198
C97	C	1.145587	-0.401504	-0.708089
C98	C	1.478921	-0.068170	-0.374755
C99	C	1.812254	0.265163	-0.041422
C100	C	1.156286	-0.184137	-0.397552
C101	C	1.489619	0.149196	-0.064218
C102	C	1.822952	0.482529	0.269115
C103	C	1.160878	-0.091471	-0.393030
C104	C	1.494212	0.241863	-0.059697
C105	C	1.827545	0.575196	0.273637
C106	C	1.145629	-0.401410	-1.036260
C107	C	1.478962	-0.068077	-0.702927
C108	C	1.812296	0.265256	-0.369593
C109	C	1.145615	-0.401439	-0.944953
C110	C	1.478948	-0.068106	-0.611619
C111	C	1.812282	0.265228	-0.278286
C112	C	1.145609	-0.401458	-0.872177
C113	C	1.478942	-0.068124	-0.538844
C114	C	1.812275	0.265209	-0.205511
C115	C	1.145594	-0.401485	-0.780864
C116	C	1.478927	-0.068152	-0.447531
C117	C	1.812260	0.265182	-0.114198
C118	C	1.145502	-0.401594	-0.198672
C119	C	1.478836	-0.068261	0.134661
C120	C	1.812169	0.265073	0.467995
C121	C	1.145646	-0.401386	-0.109041
C122	C	1.478980	-0.068052	0.224292
C123	C	1.812313	0.265281	0.557625
H124	H	1.212797	-0.886255	-0.341041
H125	H	1.546130	-0.552921	-0.007708
H126	H	1.879464	-0.219588	0.325625
C127	C	1.063021	-0.928556	-0.490612
C128	C	1.396355	-0.595223	-0.157279
C129	C	1.729688	-0.261889	0.176054
C130	C	1.070105	-0.916617	-0.581708
C131	C	1.403438	-0.583284	-0.248374
C132	C	1.736771	-0.249950	0.084959
C133	C	1.011060	-0.964653	-0.640680
C134	C	1.344393	-0.631320	-0.307347
C135	C	1.677726	-0.297986	0.025986
C136	C	0.944931	-1.024628	-0.608558
C137	C	1.278264	-0.691295	-0.275224
C138	C	1.611598	-0.357961	0.058109
C139	C	0.937845	-1.036570	-0.517458
C140	C	1.271178	-0.703236	-0.184124
C141	C	1.604512	-0.369903	0.149209
C142	C	0.996890	-0.988534	-0.458485
C143	C	1.330223	-0.655200	-0.125152
C144	C	1.663557	-0.321867	0.208182
H145	H	1.119059	-0.872218	-0.605491
H146	H	1.452393	-0.538884	-0.272158
H147	H	1.785726	-0.205551	0.061176
H148	H	1.016306	-0.955813	-0.708119
H149	H	1.349639	-0.622479	-0.374785
H150	H	1.682972	-0.289146	-0.041452
H151	H	0.901222	-1.060187	-0.652213
H152	H	1.234556	-0.726854	-0.318879
H153	H	1.567889	-0.393520	0.014454
H154	H	0.888890	-1.080969	-0.493674
H155	H	1.222224	-0.747636	-0.160341
H156	H	1.555557	-0.414303	0.172992
H157	H	0.991644	-0.997374	-0.391047
H158	H	1.324977	-0.664041	-0.057713
H159	H	1.658311	-0.330708	0.275620
