data_functionalizedCrystal
_audit_creation_method	'MofGen! by Chris Wilmer'
_symmetry_space_group_name_H-M	'P1'
_symmetry_Int_Tables_number	1
_symmetry_cell_setting	triclinic
loop_
_symmetry_equiv_pos_as_xyz
  x,y,z
_cell_length_a	17.639054
_cell_length_b	17.639306
_cell_length_c	19.805405
_cell_angle_alpha	78.817150
_cell_angle_beta	78.786249
_cell_angle_gamma	65.665306
loop_
_atom_site_label
_atom_site_type_symbol
_atom_site_fract_x
_atom_site_fract_y
_atom_site_fract_z
Zn1	Zn	1.354325	-0.721248	0.160166
Zn2	Zn	1.854325	-0.221248	0.660166
Zn3	Zn	1.326372	-0.583408	0.254329
Zn4	Zn	1.826372	-0.083408	0.754329
Zn5	Zn	1.188636	-0.555526	0.160146
Zn6	Zn	1.688636	-0.055526	0.660146
Zn7	Zn	1.216426	-0.693262	0.292316
Zn8	Zn	1.716426	-0.193262	0.792316
O9	O	1.271440	-0.638361	0.216739
O10	O	1.771440	-0.138361	0.716739
O11	O	1.465972	-0.726345	0.156767
O12	O	1.965972	-0.226345	0.656767
O13	O	1.284772	-0.464381	0.225929
O14	O	1.784772	0.035619	0.725929
O15	O	1.210683	-0.577553	0.065428
O16	O	1.710683	-0.077553	0.565428
O17	O	1.445434	-0.625074	0.225948
O18	O	1.945434	-0.125074	0.725948
O19	O	1.332415	-0.699309	0.065442
O20	O	1.832415	-0.199309	0.565442
O21	O	1.183578	-0.443896	0.156734
O22	O	1.683578	0.056104	0.656734
O23	O	1.076968	-0.550416	0.193568
O24	O	1.576968	-0.050416	0.693568
O25	O	1.258048	-0.812304	0.290691
O26	O	1.758048	-0.312304	0.790691
O27	O	1.097385	-0.651610	0.290673
O28	O	1.597385	-0.151610	0.790673
O29	O	1.359362	-0.832865	0.193601
O30	O	1.859362	-0.332865	0.693601
O31	O	1.311719	-0.597937	0.354088
O32	O	1.811719	-0.097937	0.854088
O33	O	1.230942	-0.678646	0.381997
O34	O	1.730942	-0.178646	0.881997
C35	C	1.057267	-0.594951	0.246241
C36	C	1.557267	-0.094951	0.746241
C37	C	0.965646	-0.576399	0.258881
C38	C	1.465646	-0.076399	0.758881
C39	C	1.314923	-0.853324	0.246386
C40	C	1.814923	-0.353324	0.746386
C41	C	1.333453	-0.944929	0.259020
C42	C	1.833453	-0.444929	0.759020
C43	C	0.825802	-0.497449	0.312635
C44	C	1.325802	0.002551	0.812635
C45	C	0.911895	-0.514887	0.300753
C46	C	1.411895	-0.014887	0.800753
C47	C	0.933320	-0.620501	0.228878
C48	C	1.433320	-0.120501	0.728878
C49	C	0.847229	-0.603075	0.240756
C50	C	1.347229	-0.103075	0.740756
C51	C	0.793476	-0.541547	0.282635
C52	C	1.293476	-0.041547	0.782635
C53	C	0.814902	-0.647172	0.210756
C54	C	1.314902	-0.147172	0.710756
C55	C	0.728817	-0.629744	0.222631
C56	C	1.228817	-0.129744	0.722631
C57	C	0.675059	-0.568218	0.264506
C58	C	1.175059	-0.068218	0.764506
C59	C	0.707391	-0.524119	0.294509
C60	C	1.207391	-0.024119	0.794509
C61	C	0.868655	-0.708695	0.168873
C62	C	1.368655	-0.208695	0.668873
C63	C	0.836329	-0.752793	0.138873
C64	C	1.336329	-0.252793	0.638873
C65	C	0.750243	-0.735369	0.150752
C66	C	1.250243	-0.235369	0.650752
C67	C	0.696485	-0.673843	0.192627
C68	C	1.196485	-0.173843	0.692627
C69	C	0.717911	-0.779468	0.120748
C70	C	1.217911	-0.279468	0.620748
C71	C	0.631826	-0.762040	0.132623
C72	C	1.131826	-0.262040	0.632623
C73	C	0.610400	-0.656415	0.204502
C74	C	1.110400	-0.156415	0.704502
C75	C	1.130990	-1.192906	0.120465
C76	C	1.630990	-0.692906	0.620465
C77	C	1.148420	-1.278986	0.132348
C78	C	1.648420	-0.778986	0.632348
C79	C	1.253783	-1.300295	0.204394
C80	C	1.753783	-0.800295	0.704394
C81	C	1.236364	-1.214215	0.192514
C82	C	1.736364	-0.714215	0.692514
C83	C	1.174966	-1.160527	0.150550
C84	C	1.674966	-0.660527	0.650550
C85	C	1.280340	-1.181837	0.222599
C86	C	1.780340	-0.681837	0.722599
C87	C	1.262920	-1.095764	0.210723
C88	C	1.762920	-0.595764	0.710723
C89	C	1.201523	-1.042070	0.168762
C90	C	1.701523	-0.542070	0.668762
C91	C	1.157546	-1.074455	0.138674
C92	C	1.657546	-0.574455	0.638674
C93	C	1.341734	-1.235525	0.264567
C94	C	1.841734	-0.735525	0.764567
C95	C	1.385710	-1.203147	0.294651
C96	C	1.885710	-0.703147	0.794651
C97	C	1.368294	-1.117073	0.282772
C98	C	1.868294	-0.617073	0.782772
C99	C	1.306897	-1.063380	0.240811
C100	C	1.806897	-0.563380	0.740811
C101	C	1.412271	-1.084689	0.312860
C102	C	1.912271	-0.584689	0.812860
C103	C	1.394851	-0.998617	0.300984
C104	C	1.894851	-0.498617	0.800984
C105	C	1.289477	-0.977307	0.228935
C106	C	1.789477	-0.477307	0.728935
C107	C	1.486449	-0.681942	0.187122
C108	C	1.986449	-0.181942	0.687122
C109	C	1.578074	-0.700513	0.174501
C110	C	2.078074	-0.200513	0.674501
C111	C	1.271339	-0.638303	0.392602
C112	C	1.771339	-0.138303	0.892602
C113	C	1.271377	-0.638320	0.467831
C114	C	1.771377	-0.138320	0.967831
C115	C	1.228173	-0.424244	0.187152
C116	C	1.728173	0.075756	0.687152
C117	C	1.209803	-0.332673	0.174306
C118	C	1.709803	0.167327	0.674306
C119	C	1.271567	-0.638443	0.040188
C120	C	1.771567	-0.138443	0.540188
C121	C	1.271621	-0.638477	-0.035047
C122	C	1.771621	-0.138477	0.464953
C123	C	1.313499	-0.596361	0.488621
C124	C	1.813499	-0.096361	0.988621
C125	C	1.313538	-0.596386	0.559307
C126	C	1.813538	-0.096386	1.059307
C127	C	1.271449	-0.638366	0.609202
C128	C	1.771449	-0.138366	1.109202
C129	C	1.229325	-0.680331	0.588408
C130	C	1.729325	-0.180331	1.088408
C131	C	1.229292	-0.680311	0.517723
C132	C	1.729292	-0.180311	1.017723
C133	C	1.229459	-0.680417	0.873473
C134	C	1.729459	-0.180417	1.373473
C135	C	1.229493	-0.680432	0.944162
C136	C	1.729493	-0.180432	1.444162
C137	C	1.313705	-0.596493	0.915057
C138	C	1.813705	-0.096493	1.415057
C139	C	1.313672	-0.596472	0.844372
C140	C	1.813672	-0.096472	1.344372
C141	C	1.271552	-0.638440	0.823584
C142	C	1.771552	-0.138440	1.323584
C143	C	1.271512	-0.638413	0.746938
C144	C	1.771512	-0.138413	1.246938
C145	C	1.271483	-0.638389	0.685847
C146	C	1.771483	-0.138389	1.185847
H147	H	0.566632	-0.606321	0.238610
H148	H	1.066632	-0.106321	0.738610
O149	O	1.091325	-1.016537	0.093411
O150	O	1.591325	-0.516537	0.593411
H151	H	1.063668	-1.053510	0.074485
H152	H	1.563668	-0.553510	0.574485
O153	O	0.767815	-0.431088	0.357805
O154	O	1.267815	0.068912	0.857805
H155	H	0.804753	-0.403347	0.376672
H156	H	1.304753	0.096653	0.876672
H157	H	0.604961	-0.554017	0.274161
H158	H	1.104961	-0.054017	0.774161
O159	O	1.100992	-1.313914	0.099893
O160	O	1.600992	-0.813914	0.599893
H161	H	1.055378	-1.262119	0.068715
H162	H	1.555378	-0.762119	0.568715
H163	H	1.462255	-1.128413	0.347033
H164	H	1.962255	-0.628413	0.847033
O165	O	1.358911	-0.551096	0.434806
O166	O	1.858911	-0.051096	0.934806
H167	H	1.313557	-0.501649	0.401931
H168	H	1.813557	-0.001649	0.901931
O169	O	1.182733	-0.949234	0.155949
O170	O	1.682733	-0.449234	0.655949
H171	H	1.194832	-0.929949	0.099468
H172	H	1.694832	-0.429949	0.599468
H173	H	0.663623	-0.474025	0.328618
H174	H	1.163623	0.025975	0.828618
O175	O	1.184102	-0.725721	0.997982
O176	O	1.684102	-0.225721	1.497982
H177	H	1.154816	-0.754909	0.971653
H178	H	1.654816	-0.254909	1.471653
O179	O	1.223257	-0.919398	0.183668
O180	O	1.723257	-0.419398	0.683668
H181	H	1.252247	-0.887684	0.138737
H182	H	1.752247	-0.387684	0.638737
O183	O	1.064770	-1.134988	0.075202
O184	O	1.564770	-0.634988	0.575202
H185	H	1.037112	-1.171961	0.056276
H186	H	1.537112	-0.671961	0.556276
O187	O	1.442285	-0.963685	0.333423
O188	O	1.942285	-0.463685	0.833423
H189	H	1.487912	-1.015479	0.364591
H190	H	1.987912	-0.515479	0.864591
O191	O	0.946766	-0.467327	0.333117
O192	O	1.446766	0.032673	0.833117
H193	H	0.894924	-0.421622	0.364236
H194	H	1.394924	0.078378	0.864236
H195	H	0.880105	-0.802886	0.104774
H196	H	1.380105	-0.302886	0.604774
O197	O	0.596947	-0.809597	0.100269
O198	O	1.096947	-0.309597	0.600269
H199	H	0.626548	-0.877600	0.118603
H200	H	1.126548	-0.377600	0.618603
H201	H	1.347838	-0.562218	0.576230
H202	H	1.847838	-0.062218	1.076230
O203	O	1.184001	-0.725650	0.851054
O204	O	1.684001	-0.225650	1.351054
H205	H	1.154724	-0.754826	0.897626
H206	H	1.654724	-0.254826	1.397626
H207	H	1.195059	-0.714517	0.629038
H208	H	1.695059	-0.214517	1.129038
O209	O	1.359074	-0.551200	0.790555
O210	O	1.859074	-0.051200	1.290555
H211	H	1.388380	-0.522034	0.816887
H212	H	1.888380	-0.022034	1.316887
O213	O	0.775894	-0.845818	0.075574
O214	O	1.275894	-0.345818	0.575574
H215	H	0.738951	-0.873551	0.056702
H216	H	1.238951	-0.373551	0.556702
H217	H	1.355918	-1.305611	0.274233
H218	H	1.855918	-0.805611	0.774233
H219	H	1.303770	-1.344018	0.238564
H220	H	1.803770	-0.844018	0.738564
O221	O	0.991297	-0.686861	0.183710
O222	O	1.491297	-0.186861	0.683710
H223	H	1.056589	-0.691576	0.180495
H224	H	1.556589	-0.191576	0.680495
H225	H	0.938750	-0.722880	0.159204
H226	H	1.438750	-0.222880	0.659204
O227	O	1.451934	-1.261054	0.339909
O228	O	1.951934	-0.761054	0.839909
H229	H	1.456665	-1.326347	0.343110
H230	H	1.956665	-0.826347	0.843110
O231	O	1.359166	-0.551252	0.937475
O232	O	1.859166	-0.051252	1.437475
H233	H	1.352136	-0.558331	0.995009
H234	H	1.852136	-0.058331	1.495009
H235	H	1.194992	-0.714479	0.500798
H236	H	1.694992	-0.214479	1.000798
