data_functionalizedCrystal
_audit_creation_method	'MofGen! by Chris Wilmer'
_symmetry_space_group_name_H-M	'P1'
_symmetry_Int_Tables_number	1
_symmetry_cell_setting	triclinic
loop_
_symmetry_equiv_pos_as_xyz
  x,y,z
_cell_length_a	13.897449
_cell_length_b	16.120444
_cell_length_c	13.897449
_cell_angle_alpha	87.114069
_cell_angle_beta	90.008641
_cell_angle_gamma	92.927498
loop_
_atom_site_label
_atom_site_type_symbol
_atom_site_fract_x
_atom_site_fract_y
_atom_site_fract_z
Zn1	Zn	1.455019	-0.332036	0.564906
Zn2	Zn	1.955019	0.167964	1.064906
Zn3	Zn	1.446750	-0.471421	0.411776
Zn4	Zn	1.946750	0.028579	0.911776
Zn5	Zn	1.293750	-0.332025	0.403617
Zn6	Zn	1.793750	0.167975	0.903617
Zn7	Zn	1.285486	-0.471415	0.573021
Zn8	Zn	1.785486	0.028585	1.073021
O9	O	1.370251	-0.401725	0.488330
O10	O	1.870251	0.098275	0.988330
O11	O	1.588903	-0.350533	0.544612
O12	O	2.088903	0.149467	1.044612
O13	O	1.426453	-0.452928	0.275712
O14	O	1.926453	0.047072	0.775712
O15	O	1.322062	-0.215359	0.418202
O16	O	1.822062	0.284641	0.918202
O17	O	1.582828	-0.452939	0.432108
O18	O	2.082828	0.047061	0.932108
O19	O	1.440545	-0.215367	0.536701
O20	O	1.940545	0.284633	1.036701
O21	O	1.314044	-0.350515	0.269717
O22	O	1.814044	0.149485	0.769717
O23	O	1.157673	-0.350509	0.426070
O24	O	1.657673	0.149491	0.926070
O25	O	1.307977	-0.452928	0.706926
O26	O	1.807977	0.047072	1.206926
O27	O	1.151601	-0.452917	0.550530
O28	O	1.651601	0.047083	1.050530
O29	O	1.432532	-0.350527	0.700965
O30	O	1.932532	0.149473	1.200965
O31	O	1.418439	-0.588089	0.439976
O32	O	1.918439	-0.088089	0.939976
O33	O	1.299959	-0.588084	0.558441
O34	O	1.799959	-0.088084	1.058441
C35	C	1.119638	-0.401712	0.488296
C36	C	1.619638	0.098288	0.988296
C37	C	1.012423	-0.401726	0.488305
C38	C	1.512423	0.098274	0.988305
C39	C	0.925353	-0.401729	0.488321
C40	C	1.425353	0.098271	0.988321
C41	C	0.816120	-0.401735	0.488351
C42	C	1.316120	0.098265	0.988351
C43	C	1.357431	-0.618337	0.500995
C44	C	1.857431	-0.118337	1.000995
C45	C	1.352035	-0.711005	0.506446
C46	C	1.852035	-0.211005	1.006446
C47	C	1.398480	-0.921933	0.460262
C48	C	1.898480	-0.421933	0.960262
C49	C	1.342201	-0.880665	0.516408
C50	C	1.842201	-0.380665	1.016408
C51	C	1.347674	-0.786257	0.510863
C52	C	1.847674	-0.286257	1.010863
C53	C	1.393008	-1.016349	0.465805
C54	C	1.893008	-0.516349	0.965805
C55	C	1.621844	-0.401738	0.488365
C56	C	2.121844	0.098262	0.988365
C57	C	1.729057	-0.401744	0.488380
C58	C	2.229057	0.098256	0.988380
C59	C	1.370255	-0.401728	0.739923
C60	C	1.870255	0.098272	1.239923
C61	C	1.370256	-0.401730	0.847137
C62	C	1.870256	0.098270	1.347137
C63	C	1.383148	-0.184266	0.475636
C64	C	1.883148	0.315734	0.975636
C65	C	1.388643	-0.091598	0.470227
C66	C	1.888643	0.408402	0.970227
C67	C	1.370232	-0.401733	1.043432
C68	C	1.870232	0.098267	1.543432
C69	C	1.370242	-0.401734	0.934200
C70	C	1.870242	0.098266	1.434200
C71	C	1.370238	-0.401738	1.237716
C72	C	1.870238	0.098262	1.737716
C73	C	1.370231	-0.401731	1.130502
C74	C	1.870231	0.098269	1.630502
H75	H	1.450769	-0.886366	0.408033
H76	H	1.950769	-0.386366	0.908033
H77	H	1.289908	-0.916235	0.568639
H78	H	1.789908	-0.416235	1.068639
