data_functionalizedCrystal
_audit_creation_method	'MofGen! by Chris Wilmer'
_symmetry_space_group_name_H-M	'P1'
_symmetry_Int_Tables_number	1
_symmetry_cell_setting	triclinic
loop_
_symmetry_equiv_pos_as_xyz
  x,y,z
_cell_length_a	12.645331
_cell_length_b	12.645330
_cell_length_c	12.827885
_cell_angle_alpha	89.971022
_cell_angle_beta	89.978407
_cell_angle_gamma	90.017906
loop_
_atom_site_label
_atom_site_type_symbol
_atom_site_fract_x
_atom_site_fract_y
_atom_site_fract_z
Zn1	Zn	1.620718	-0.421982	-0.590919
Zn2	Zn	1.620604	-0.599283	-0.416182
Zn3	Zn	1.443437	-0.422034	-0.416186
Zn4	Zn	1.443415	-0.599204	-0.590875
O5	O	1.532043	-0.510626	-0.503541
O6	O	1.769050	-0.445512	-0.567757
O7	O	1.597064	-0.575825	-0.269946
O8	O	1.467011	-0.273680	-0.439385
O9	O	1.768966	-0.575774	-0.439378
O10	O	1.597259	-0.273642	-0.567761
O11	O	1.466900	-0.445601	-0.269949
O12	O	1.295087	-0.445526	-0.439342
O13	O	1.466973	-0.575641	-0.737117
O14	O	1.295070	-0.575692	-0.567685
O15	O	1.597237	-0.445436	-0.737150
O16	O	1.597042	-0.747620	-0.439335
O17	O	1.466862	-0.747562	-0.567681
C18	C	1.256614	-0.510607	-0.503510
C19	C	1.138784	-0.510624	-0.503521
C20	C	1.093876	-0.428609	-0.422912
C21	C	0.971317	-0.428306	-0.423188
C22	C	0.970952	-0.480824	-0.613836
C23	C	1.093550	-0.480211	-0.613333
C24	C	1.093569	-0.622684	-0.474856
C25	C	0.970962	-0.622099	-0.472465
C26	C	1.531966	-0.786056	-0.503526
C27	C	1.532030	-0.903886	-0.503555
C28	C	1.450471	-1.071458	-0.584546
C29	C	1.450054	-0.948898	-0.584286
C30	C	1.501787	-0.948488	-0.393422
C31	C	1.501289	-1.071086	-0.393914
C32	C	1.644330	-1.070972	-0.531802
C33	C	1.643642	-0.948365	-0.534210
C34	C	1.808549	-0.510646	-0.503572
C35	C	1.926379	-0.510654	-0.503586
C36	C	1.532116	-0.510524	-0.776111
C37	C	1.532146	-0.510481	-0.892264
C38	C	1.532150	-0.234121	-0.503578
C39	C	1.532195	-0.116290	-0.503594
C40	C	1.596612	-0.446039	-0.944065
C41	C	1.596645	-0.445992	-1.064115
C42	C	1.532033	-0.510651	-0.232031
C43	C	1.532207	-0.510395	-0.115878
H44	H	1.123281	-0.447007	-0.340899
C45	C	1.390547	-1.109852	-0.361639
N46	N	1.307133	-1.139046	-0.337332
C47	C	1.457639	-0.584934	-1.055706
N48	N	1.401473	-0.641076	-1.010377
H49	H	0.941825	-0.644601	-0.391325
H50	H	1.705217	-1.099964	-0.472841
C51	C	0.930594	-0.453431	-0.312761
N52	N	0.899927	-0.472344	-0.229581
H53	H	1.651775	-0.390898	-0.899537
H54	H	0.942007	-0.345279	-0.442225
C55	C	1.132214	-0.369567	-0.646059
N56	N	1.161330	-0.286225	-0.670706
H57	H	1.366922	-0.919665	-0.565598
C58	C	1.135259	-0.659474	-0.368046
N59	N	1.166659	-0.687172	-0.287592
C60	C	1.135506	-0.317064	-0.448299
N61	N	1.166858	-0.233047	-0.467427
H62	H	1.123263	-0.537374	-0.675472
H63	H	0.941851	-0.538742	-0.675565
H64	H	0.940272	-0.399833	-0.638500
C65	C	1.674481	-0.908932	-0.643685
N66	N	1.697714	-0.879210	-0.726135
H67	H	0.940363	-0.686448	-0.526863
H68	H	1.122608	-0.683783	-0.533568
H69	H	1.468976	-0.918738	-0.665948
H70	H	1.651841	-0.390825	-1.108663
H71	H	1.469219	-1.100863	-0.666476
H72	H	1.558230	-1.100748	-0.331542
C73	C	1.338861	-1.113191	-0.559615
N74	N	1.254796	-1.144621	-0.540830
H75	H	1.559424	-0.919334	-0.331459
H76	H	1.707737	-0.917719	-0.479543
C77	C	1.392196	-0.907148	-0.360560
N78	N	1.309648	-0.876014	-0.335814
C79	C	1.681598	-1.112626	-0.638455
N80	N	1.709655	-1.143999	-0.718791
H81	H	1.476973	-0.565611	-0.936792
