data_functionalizedCrystal
_audit_creation_method	'MofGen! by Chris Wilmer'
_symmetry_space_group_name_H-M	'P1'
_symmetry_Int_Tables_number	1
_symmetry_cell_setting	triclinic
loop_
_symmetry_equiv_pos_as_xyz
  x,y,z
_cell_length_a	19.851628
_cell_length_b	14.395555
_cell_length_c	14.395555
_cell_angle_alpha	120.002374
_cell_angle_beta	90.004468
_cell_angle_gamma	119.998048
loop_
_atom_site_label
_atom_site_type_symbol
_atom_site_fract_x
_atom_site_fract_y
_atom_site_fract_z
Zr1	Zr	0.649016	-1.016698	-0.121866
O2	O	0.541458	-1.210508	-0.270221
O3	O	0.681984	-0.822896	-0.076377
O4	O	0.681992	-1.016686	-0.270184
O5	O	0.541448	-1.016725	0.076453
O6	O	0.792854	-1.016668	-0.270165
O7	O	0.541449	-1.016718	-0.076415
O8	O	0.792839	-0.670013	0.076519
O9	O	0.541463	-1.363380	-0.270232
O10	O	0.778785	-0.902594	-0.056975
O11	O	0.696049	-0.902612	0.057094
O12	O	0.696059	-1.130775	-0.171088
O13	O	0.613324	-1.130794	-0.057019
Zr14	Zr	0.825827	-1.016681	0.121969
Zr15	Zr	0.825828	-1.016670	-0.121836
Zr16	Zr	0.649015	-1.016709	0.121940
Zr17	Zr	0.649025	-1.260512	-0.121883
Zr18	Zr	0.825817	-0.772867	0.121987
O19	O	0.792859	-1.210483	0.076481
O20	O	0.792861	-1.210467	-0.270179
O21	O	0.541456	-1.210524	0.076439
O22	O	0.933385	-0.822871	0.270325
O23	O	0.933387	-0.822855	-0.076335
O24	O	0.681982	-0.822912	0.270283
O25	O	0.933395	-1.016654	-0.076349
O26	O	0.792851	-1.016693	0.270288
O27	O	0.681989	-1.016711	0.270269
O28	O	0.933394	-1.016661	0.076518
O29	O	0.682005	-1.363357	-0.270209
O30	O	0.792838	-0.670022	0.270312
O31	O	0.933380	-0.669999	0.270336
O32	O	0.933381	-0.669990	0.076543
O33	O	0.541462	-1.363389	-0.076439
O34	O	0.682004	-1.363366	-0.076416
O35	O	0.778784	-0.902604	0.171191
O36	O	0.861519	-0.902585	0.057122
O37	O	0.778794	-1.130767	-0.056991
O38	O	0.696058	-1.130785	0.057078
C39	C	0.516257	-1.016725	0.000015
C40	C	0.441196	-1.016737	0.000002
C41	C	0.737410	-0.711716	0.000073
C42	C	0.737406	-0.608211	0.000081
C43	C	0.737423	-1.016676	-0.304912
C44	C	0.737424	-1.016671	-0.408414
C45	C	0.214745	-1.141122	-0.062179
C46	C	0.192382	-1.078928	-0.107251
C47	C	0.303789	-1.016703	0.000035
C48	C	0.192412	-1.078906	0.045086
C49	C	0.171057	-1.016680	0.000066
C50	C	0.282414	-0.954508	-0.045100
C51	C	0.282442	-0.954504	0.107297
C52	C	0.260132	-0.892219	0.062251
C53	C	0.380251	-1.016721	0.000014
C54	C	0.094600	-1.016653	0.000084
C55	C	0.958586	-1.016654	0.000089
C56	C	1.033647	-1.016642	0.000101
C57	C	0.692297	-0.547628	0.062283
C58	C	0.659604	-0.561885	-0.044998
C59	C	0.770075	-0.409555	0.107339
C60	C	0.704668	-0.623895	-0.107264
C61	C	0.815183	-0.471502	0.045151
C62	C	0.782510	-0.485805	-0.062194
C63	C	0.737429	-0.321659	0.000044
C64	C	0.737421	-0.425151	0.000078
C65	C	0.782533	-0.892256	-0.406783
C66	C	0.704741	-0.954461	-0.499822
C67	C	0.815197	-0.954472	-0.499803
C68	C	0.659585	-1.078876	-0.500090
C69	C	0.770098	-1.078869	-0.500056
C70	C	0.692259	-1.141165	-0.593113
C71	C	0.737420	-1.016703	0.305015
C72	C	0.737419	-1.016708	0.408517
C73	C	0.958574	-0.711680	0.000110
C74	C	1.033632	-0.608163	0.000130
C75	C	0.737408	-0.711730	0.305037
C76	C	0.737404	-0.608230	0.408546
C77	C	0.958573	-0.711694	0.305074
C78	C	1.033630	-0.608182	0.408596
C79	C	0.516270	-1.321685	-0.304970
C80	C	0.441213	-1.425197	-0.408492
C81	C	0.516268	-1.321699	-0.000007
C82	C	0.441211	-1.425216	-0.000027
C83	C	0.737435	-1.321649	-0.304933
C84	C	0.737439	-1.425149	-0.408442
C85	C	1.025693	-0.559555	-0.059428
C86	C	1.096211	-0.462303	-0.059432
C87	C	1.174666	-0.413654	0.000129
C88	C	1.182603	-0.462272	0.059690
C89	C	1.112086	-0.559529	0.059686
C90	C	1.112072	-0.559561	0.397668
C91	C	1.182602	-0.462314	0.494928
C92	C	1.174689	-0.413682	0.603115
C93	C	1.096239	-0.462311	0.614041
C94	C	1.025710	-0.559564	0.516782
C95	C	0.362771	-1.473830	-0.397564
C96	C	0.292241	-1.571107	-0.494824
C97	C	0.300154	-1.619745	-0.603012
C98	C	0.378604	-1.571108	-0.613938
C99	C	0.449133	-1.473839	-0.516678
C100	C	0.449150	-1.473835	0.059521
C101	C	0.378632	-1.571113	0.059499
C102	C	0.300177	-1.619765	-0.000066
C103	C	0.292240	-1.571142	-0.059622
C104	C	0.362756	-1.473872	-0.059605
C105	C	0.692289	-0.547651	0.406928
C106	C	0.770081	-0.409539	0.499969
C107	C	0.659631	-0.561892	0.499947
C108	C	0.815242	-0.471418	0.500223
C109	C	0.704735	-0.623845	0.500187
C110	C	0.782573	-0.485742	0.593245
H111	H	0.196298	-1.246325	-0.114866
H112	H	1.089808	-0.422701	0.702140
H113	H	0.356312	-1.434234	-0.309481
C114	C	0.205955	-1.624587	-0.482792
H115	H	0.165078	-1.689495	-0.556205
H116	H	0.199770	-1.554767	-0.442387
H117	H	0.199781	-1.662515	-0.442373
H118	H	0.385111	-1.610686	0.108000
H119	H	1.246473	-0.422729	0.486012
H120	H	0.356281	-1.434289	-0.108093
C121	C	0.570779	-0.612151	0.501163
H122	H	0.566216	-0.611727	0.567047
H123	H	0.533557	-0.699126	0.435064
H124	H	0.557753	-0.556583	0.502142
H125	H	0.242764	-1.698969	-0.000071
H126	H	0.797758	-1.131398	-0.499080
C127	C	0.535417	-1.420303	-0.528707
H128	H	0.576294	-1.355400	-0.455295
H129	H	0.541564	-1.382380	-0.569119
H130	H	0.541626	-1.490101	-0.569121
H131	H	1.232125	-0.334492	0.682301
H132	H	1.246491	-0.422649	0.108182
H133	H	0.676969	-0.715462	-0.198015
C134	C	1.087465	-0.408826	-0.124937
H135	H	1.030639	-0.451716	-0.160388
H136	H	1.113170	-0.424764	-0.181302
H137	H	1.113180	-0.317002	-0.073518
H138	H	0.153574	-1.131510	-0.197949
H139	H	0.513026	-1.434230	0.108034
C140	C	0.205937	-1.624659	-0.125128
H141	H	0.165083	-1.689540	-0.116591
H142	H	0.199736	-1.662603	-0.203482
H143	H	0.199743	-1.554842	-0.095700
C144	C	0.904007	-0.421294	0.096692
H145	H	0.927142	-0.346048	0.172945
H146	H	0.936288	-0.398641	0.053285
H147	H	0.903386	-0.488218	0.095672
C148	C	0.334674	-0.883524	-0.096703
H149	H	0.308485	-0.853854	-0.118192
H150	H	0.339931	-0.942472	-0.161794
H151	H	0.387847	-0.810434	-0.041944
H152	H	0.654200	-0.574738	0.327162
C153	C	0.904055	-0.883412	-0.500998
H154	H	0.936029	-0.795021	-0.435600
H155	H	0.903393	-0.884621	-0.567584
H156	H	0.927568	-0.926743	-0.500516
H157	H	0.654056	-1.246455	-0.672754
C158	C	0.939428	-0.613021	0.528817
H159	H	0.944824	-0.570112	0.607181
H160	H	0.910108	-0.704842	0.493349
H161	H	0.910127	-0.597059	0.493364
H162	H	0.961817	-0.599163	-0.107944
H163	H	0.797720	-0.317913	0.500907
H164	H	0.881046	-0.434032	0.499413
C165	C	0.640701	-0.584436	0.133228
H166	H	0.674737	-0.566591	0.194606
H167	H	0.596816	-0.675265	0.086520
H168	H	0.618730	-0.534138	0.162342
C169	C	0.570759	-0.612132	-0.096510
H170	H	0.538772	-0.633224	-0.052230
H171	H	0.547250	-0.688349	-0.172277
H172	H	0.571443	-0.545809	-0.096778
H173	H	1.118562	-0.599094	0.108192
H174	H	0.820780	-0.458710	0.672881
H175	H	0.677076	-0.715505	0.499190
H176	H	0.278734	-0.786931	0.114864
H177	H	1.118530	-0.599143	0.309585
C178	C	1.252227	-0.306663	0.000136
H179	H	1.236255	-0.284677	-0.043858
H180	H	1.284142	-0.338516	-0.031743
H181	H	1.284126	-0.230769	0.076021
H182	H	0.321247	-0.901967	0.197975
H183	H	0.242718	-1.698947	-0.682197
H184	H	0.797698	-0.317945	0.198047
C185	C	0.140017	-1.149962	0.096561
H186	H	0.123341	-1.238351	0.052259
H187	H	0.092607	-1.148758	0.096858
H188	H	0.171794	-1.106625	0.172322
H189	H	0.385038	-1.610721	-0.702035
C190	C	0.834038	-0.449383	-0.133350
H191	H	0.810710	-0.524870	-0.209509
H192	H	0.889046	-0.417930	-0.101993
H193	H	0.834128	-0.382889	-0.132465
H194	H	0.820617	-0.787055	-0.327009
H195	H	0.677099	-0.901886	-0.500755
H196	H	0.593780	-1.131428	-0.499283
