data_functionalizedCrystal
_audit_creation_method	'MofGen! by Chris Wilmer'
_symmetry_space_group_name_H-M	'P1'
_symmetry_Int_Tables_number	1
_symmetry_cell_setting	triclinic
loop_
_symmetry_equiv_pos_as_xyz
  x,y,z
_cell_length_a	19.805407
_cell_length_b	14.908520
_cell_length_c	19.805399
_cell_angle_alpha	86.729391
_cell_angle_beta	90.019573
_cell_angle_gamma	93.320773
loop_
_atom_site_label
_atom_site_type_symbol
_atom_site_fract_x
_atom_site_fract_y
_atom_site_fract_z
Zn1	Zn	1.019204	-0.359181	0.398269
Zn2	Zn	1.352537	-0.025848	0.731603
Zn3	Zn	1.685870	0.307486	1.064936
Zn4	Zn	1.012594	-0.510047	0.291612
Zn5	Zn	1.345928	-0.176714	0.624946
Zn6	Zn	1.679261	0.156620	0.958279
Zn7	Zn	0.906017	-0.359206	0.285095
Zn8	Zn	1.239350	-0.025873	0.618428
Zn9	Zn	1.572684	0.307461	0.951762
Zn10	Zn	0.899460	-0.509999	0.404757
Zn11	Zn	1.232793	-0.176666	0.738090
Zn12	Zn	1.566127	0.156668	1.071424
O13	O	0.959319	-0.434608	0.344934
O14	O	1.292652	-0.101275	0.678267
O15	O	1.625985	0.232058	1.011600
O16	O	1.113043	-0.379203	0.384134
O17	O	1.446376	-0.045870	0.717467
O18	O	1.779710	0.287463	1.050800
O19	O	0.998435	-0.490068	0.196033
O20	O	1.331768	-0.156735	0.529366
O21	O	1.665102	0.176599	0.862699
O22	O	0.926542	-0.232958	0.294665
O23	O	1.259875	0.100376	0.627999
O24	O	1.593208	0.433709	0.961332
O25	O	1.108187	-0.490044	0.305773
O26	O	1.441521	-0.156710	0.639106
O27	O	1.774854	0.176623	0.972440
O28	O	1.009699	-0.232939	0.377814
O29	O	1.343033	0.100394	0.711147
O30	O	1.676366	0.433727	1.044481
O31	O	0.920133	-0.379246	0.191244
O32	O	1.253466	-0.045913	0.524578
O33	O	1.586800	0.287421	0.857911
O34	O	0.810431	-0.379199	0.300956
O35	O	1.143764	-0.045866	0.634289
O36	O	1.477098	0.287467	0.967623
O37	O	0.915366	-0.489962	0.498612
O38	O	1.248699	-0.156629	0.831945
O39	O	1.582032	0.176705	1.165278
O40	O	0.805614	-0.489986	0.388871
O41	O	1.138947	-0.156653	0.722205
O42	O	1.472280	0.176680	1.055538
O43	O	1.003341	-0.379157	0.493845
O44	O	1.336674	-0.045824	0.827179
O45	O	1.670008	0.287510	1.160512
O46	O	0.992077	-0.636286	0.312064
O47	O	1.325410	-0.302952	0.645397
O48	O	1.658743	0.030381	0.978731
O49	O	0.908957	-0.636250	0.395191
O50	O	1.242291	-0.302917	0.728524
O51	O	1.575624	0.030416	1.061858
C52	C	0.783463	-0.434591	0.344911
C53	C	1.116797	-0.101258	0.678244
C54	C	1.450130	0.232076	1.011578
C55	C	0.708231	-0.434605	0.344918
C56	C	1.041564	-0.101272	0.678252
C57	C	1.374898	0.232061	1.011585
C58	C	0.670392	-0.492379	0.390629
C59	C	1.003725	-0.159046	0.723963
C60	C	1.337059	0.174288	1.057296
C61	C	0.599704	-0.492380	0.390639
C62	C	0.933037	-0.159047	0.723972
C63	C	1.266370	0.174286	1.057306
C64	C	0.566855	-0.434612	0.344934
C65	C	0.900188	-0.101279	0.678267
C66	C	1.233522	0.232054	1.011600
C67	C	0.604699	-0.376832	0.299220
C68	C	0.938032	-0.043499	0.632554
C69	C	1.271366	0.289834	0.965887
C70	C	0.675386	-0.376827	0.299214
C71	C	1.008720	-0.043494	0.632548
C72	C	1.342053	0.289840	0.965881
C73	C	0.319625	-0.376852	0.299244
C74	C	0.652958	-0.043519	0.632577
C75	C	0.986291	0.289814	0.965910
C76	C	0.248932	-0.376864	0.299252
C77	C	0.582265	-0.043531	0.632585
C78	C	0.915599	0.289803	0.965918
C79	C	0.243942	-0.492406	0.390668
C80	C	0.577275	-0.159073	0.724001
C81	C	0.910609	0.174261	1.057335
C82	C	0.314629	-0.492400	0.390662
C83	C	0.647963	-0.159067	0.723996
C84	C	0.981296	0.174266	1.057329
C85	C	0.352467	-0.434618	0.344952
C86	C	0.685801	-0.101284	0.678285
C87	C	1.019134	0.232049	1.011618
C88	C	0.429116	-0.434615	0.344943
C89	C	0.762449	-0.101282	0.678276
C90	C	1.095783	0.232051	1.011609
C91	C	0.490208	-0.434618	0.344939
C92	C	0.823541	-0.101285	0.678272
C93	C	1.156874	0.232048	1.011606
C94	C	0.949107	-0.669002	0.355053
C95	C	1.282440	-0.335669	0.688387
C96	C	1.615773	-0.002335	1.021720
C97	C	0.944800	-0.769277	0.359405
C98	C	1.278133	-0.435943	0.692739
C99	C	1.611466	-0.102610	1.026072
C100	C	1.023348	-0.957679	0.281093
C101	C	1.356681	-0.624346	0.614426
C102	C	1.690015	-0.291012	0.947760
C103	C	1.019304	-1.051896	0.285180
C104	C	1.352637	-0.718563	0.618513
C105	C	1.685970	-0.385229	0.951847
C106	C	0.932671	-1.051929	0.371669
C107	C	1.266004	-0.718596	0.705002
C108	C	1.599337	-0.385263	1.038336
C109	C	0.936715	-0.957712	0.367582
C110	C	1.270048	-0.624379	0.700916
C111	C	1.603382	-0.291046	1.034249
C112	C	0.982055	-0.910590	0.322292
C113	C	1.315388	-0.577257	0.655625
C114	C	1.648721	-0.243924	0.988959
C115	C	0.986095	-0.816372	0.318202
C116	C	1.319428	-0.483038	0.651535
C117	C	1.652762	-0.149705	0.984869
C118	C	0.899466	-0.816407	0.404694
C119	C	1.232799	-0.483073	0.738028
C120	C	1.566132	-0.149740	1.071361
C121	C	0.895421	-0.910624	0.408781
C122	C	1.228755	-0.577290	0.742114
C123	C	1.562088	-0.243957	1.075448
C124	C	1.135861	-0.434626	0.344957
C125	C	1.469194	-0.101293	0.678290
C126	C	1.802527	0.232040	1.011623
C127	C	1.211092	-0.434634	0.344967
C128	C	1.544426	-0.101301	0.678300
C129	C	1.877759	0.232033	1.011633
C130	C	0.959359	-0.434551	0.521474
C131	C	1.292693	-0.101218	0.854807
C132	C	1.626026	0.232115	1.188141
C133	C	0.959376	-0.434527	0.596705
C134	C	1.292710	-0.101194	0.930038
C135	C	1.626043	0.232139	1.263371
C136	C	0.969589	-0.199299	0.334789
C137	C	1.302922	0.134034	0.668122
C138	C	1.636256	0.467368	1.001456
C139	C	0.973966	-0.099024	0.330466
C140	C	1.307299	0.234309	0.663799
C141	C	1.640632	0.567642	0.997132
C142	C	0.959320	-0.434600	0.169077
C143	C	1.292654	-0.101266	0.502410
C144	C	1.625987	0.232067	0.835744
C145	C	0.959445	-0.434370	0.093836
C146	C	1.292779	-0.101036	0.427169
C147	C	1.626112	0.232297	0.760502
C148	C	1.005186	-0.376828	0.629568
C149	C	1.338519	-0.043495	0.962901
C150	C	1.671853	0.289839	1.296235
C151	C	1.005194	-0.376802	0.700255
C152	C	1.338528	-0.043469	1.033589
C153	C	1.671861	0.289865	1.366922
C154	C	0.959395	-0.434480	0.738078
C155	C	1.292729	-0.101147	1.071412
C156	C	1.626062	0.232187	1.404745
C157	C	0.913581	-0.492182	0.705210
C158	C	1.246914	-0.158848	1.038544
C159	C	1.580247	0.174485	1.371877
C160	C	0.913570	-0.492203	0.634524
C161	C	1.246903	-0.158869	0.967857
C162	C	1.580237	0.174464	1.301191
C163	C	0.913622	-0.492098	0.990280
C164	C	1.246956	-0.158764	1.323614
C165	C	1.580289	0.174569	1.656947
C166	C	0.913638	-0.492074	1.060971
C167	C	1.246971	-0.158741	1.394305
C168	C	1.580305	0.174593	1.727638
C169	C	1.005247	-0.376697	1.056011
C170	C	1.338580	-0.043363	1.389345
C171	C	1.671914	0.289970	1.722678
C172	C	1.005236	-0.376718	0.985325
C173	C	1.338569	-0.043384	1.318659
C174	C	1.671903	0.289949	1.651992
C175	C	0.959419	-0.434416	0.952463
C176	C	1.292753	-0.101082	1.285796
C177	C	1.626086	0.232251	1.619130
C178	C	0.959410	-0.434442	0.875816
C179	C	1.292744	-0.101109	1.209149
C180	C	1.626077	0.232225	1.542482
C181	C	0.959407	-0.434459	0.814725
C182	C	1.292740	-0.101125	1.148058
C183	C	1.626074	0.232208	1.481391
H184	H	0.213126	-0.539452	0.427890
H185	H	0.546459	-0.206119	0.761224
H186	H	0.879793	0.127215	1.094557
H187	H	1.042533	-0.329753	0.954533
H188	H	1.375866	0.003580	1.287866
H189	H	1.709199	0.336913	1.621200
H190	H	1.042551	-0.329713	1.082776
H191	H	1.375884	0.003620	1.416109
H192	H	1.709217	0.336953	1.749443
O193	O	0.869145	-0.548388	0.602631
O194	O	1.202478	-0.215055	0.935964
O195	O	1.535812	0.118279	1.269297
C196	C	0.880010	-0.638297	0.623794
C197	C	1.213344	-0.304963	0.957127
C198	C	1.546677	0.028370	1.290460
H199	H	0.933885	-0.642844	0.643439
H200	H	1.267218	-0.309510	0.976772
H201	H	1.600552	0.023823	1.310106
H202	H	0.872237	-0.682879	0.579225
H203	H	1.205571	-0.349546	0.912559
H204	H	1.538904	-0.016212	1.245892
H205	H	0.842696	-0.661870	0.665828
H206	H	1.176029	-0.328537	0.999162
H207	H	1.509363	0.004796	1.332495
H208	H	0.858509	-0.949003	0.445657
H209	H	1.191842	-0.615670	0.778990
H210	H	1.525176	-0.282337	1.112323
O211	O	0.563027	-0.548468	0.435130
O212	O	0.896360	-0.215135	0.768464
O213	O	1.229694	0.118198	1.101797
C214	C	0.581171	-0.528870	0.501769
C215	C	0.914505	-0.195537	0.835102
C216	C	1.247838	0.137797	1.168436
H217	H	0.634003	-0.494181	0.501715
H218	H	0.967337	-0.160847	0.835049
H219	H	1.300670	0.172486	1.168382
H220	H	0.580772	-0.594040	0.534842
H221	H	0.914105	-0.260707	0.868176
H222	H	1.247439	0.072627	1.201509
H223	H	0.543412	-0.482543	0.522636
H224	H	0.876745	-0.149210	0.855969
H225	H	1.210079	0.184124	1.189302
H226	H	0.706194	-0.329777	0.261995
H227	H	1.039528	0.003556	0.595328
H228	H	1.372861	0.336890	0.928662
H229	H	1.060261	-0.919312	0.244211
H230	H	1.393594	-0.585978	0.577545
H231	H	1.726927	-0.252645	0.910878
H232	H	0.341371	-0.539444	0.427878
H233	H	0.674704	-0.206111	0.761211
H234	H	1.008038	0.127222	1.094545
H235	H	0.222189	-0.329817	0.262033
H236	H	0.555523	0.003517	0.595366
H237	H	0.888856	0.336850	0.928699
O238	O	0.356271	-0.320695	0.254778
O239	O	0.689604	0.012638	0.588111
O240	O	1.022938	0.345971	0.921444
C241	C	0.312118	-0.269696	0.214452
C242	C	0.645451	0.063637	0.547785
C243	C	0.978785	0.396971	0.881118
H244	H	0.260123	-0.306656	0.213659
H245	H	0.593456	0.026677	0.546992
H246	H	0.926789	0.360011	0.880326
H247	H	0.332943	-0.259967	0.160714
H248	H	0.666276	0.073367	0.494048
H249	H	0.999609	0.406700	0.827381
H250	H	0.307585	-0.201228	0.236372
H251	H	0.640919	0.132106	0.569705
H252	H	0.974252	0.465439	0.903038
H253	H	1.023011	-0.778006	0.281323
H254	H	1.356344	-0.444673	0.614656
H255	H	1.689678	-0.111339	0.947989
H256	H	0.577948	-0.329793	0.262009
H257	H	0.911281	0.003541	0.595342
H258	H	1.244615	0.336874	0.928676
O259	O	1.059524	-1.097523	0.245187
O260	O	1.392857	-0.764190	0.578520
O261	O	1.726190	-0.430856	0.911853
C262	C	1.127959	-1.074404	0.259068
C263	C	1.461293	-0.741071	0.592402
C264	C	1.794626	-0.407737	0.925735
H265	H	1.132264	-1.005980	0.282130
H266	H	1.465597	-0.672646	0.615463
H267	H	1.798930	-0.339313	0.948797
H268	H	1.158488	-1.071161	0.210114
H269	H	1.491821	-0.737827	0.543447
H270	H	1.825154	-0.404494	0.876781
H271	H	1.148466	-1.127376	0.296184
H272	H	1.481799	-0.794043	0.629517
H273	H	1.815132	-0.460709	0.962851
O274	O	0.702378	-0.548370	0.435057
O275	O	1.035712	-0.215037	0.768390
O276	O	1.369045	0.118297	1.101723
C277	C	0.745506	-0.497078	0.476629
C278	C	1.078839	-0.163745	0.809962
C279	C	1.412172	0.169588	1.143296
H280	H	0.759065	-0.428669	0.449885
H281	H	1.092399	-0.095336	0.783219
H282	H	1.425732	0.237998	1.116552
H283	H	0.793615	-0.533838	0.487240
H284	H	1.126949	-0.200504	0.820573
H285	H	1.460282	0.132829	1.153906
H286	H	0.718711	-0.487253	0.526377
H287	H	1.052045	-0.153920	0.859711
H288	H	1.385378	0.179413	1.193044
O289	O	0.888648	-1.097851	0.415603
O290	O	1.221981	-0.764518	0.748937
O291	O	1.555315	-0.431184	1.082270
C292	C	0.893951	-1.191106	0.410388
C293	C	1.227284	-0.857772	0.743721
C294	C	1.560618	-0.524439	1.077054
H295	H	0.915602	-1.203985	0.358734
H296	H	1.248935	-0.870652	0.692067
H297	H	1.582269	-0.537318	1.025401
H298	H	0.841712	-1.226977	0.416483
H299	H	1.175045	-0.893643	0.749816
H300	H	1.508379	-0.560310	1.083149
H301	H	0.928826	-1.217764	0.451728
H302	H	1.262159	-0.884431	0.785061
H303	H	1.595493	-0.551098	1.118395
O304	O	0.859278	-0.770804	0.444744
O305	O	1.192612	-0.437471	0.778077
O306	O	1.525945	-0.104137	1.111411
C307	C	0.818407	-0.832603	0.485603
C308	C	1.151740	-0.499269	0.818937
C309	C	1.485074	-0.165936	1.152270
H310	H	0.813204	-0.899791	0.460795
H311	H	1.146537	-0.566458	0.794128
H312	H	1.479870	-0.233125	1.127461
H313	H	0.766237	-0.805442	0.491586
H314	H	1.099571	-0.472109	0.824919
H315	H	1.432904	-0.138776	1.158253
H316	H	0.842728	-0.842546	0.537467
H317	H	1.176062	-0.509213	0.870801
H318	H	1.509395	-0.175880	1.204134
O319	O	1.049702	-0.320714	0.592931
O320	O	1.383035	0.012620	0.926264
O321	O	1.716368	0.345953	1.259597
C322	C	1.090146	-0.269797	0.637099
C323	C	1.423480	0.063537	0.970432
C324	C	1.756813	0.396870	1.303765
H325	H	1.062566	-0.266657	0.687346
H326	H	1.395899	0.066676	1.020679
H327	H	1.729232	0.400010	1.354012
H328	H	1.100465	-0.198723	0.613614
H329	H	1.433799	0.134610	0.946948
H330	H	1.767132	0.467944	1.280281
H331	H	1.140111	-0.302836	0.646051
H332	H	1.473444	0.030498	0.979385
H333	H	1.806778	0.363831	1.312718
O334	O	0.868998	-0.548115	0.741914
O335	O	1.202331	-0.214782	1.075248
O336	O	1.535665	0.118551	1.408581
C337	C	0.802397	-0.528412	0.723767
C338	C	1.135730	-0.195078	1.057100
C339	C	1.469063	0.138255	1.390434
H340	H	0.802121	-0.456345	0.701231
H341	H	1.135455	-0.123011	1.034565
H342	H	1.468788	0.210322	1.367898
H343	H	0.768626	-0.536169	0.770581
H344	H	1.101959	-0.202836	1.103915
H345	H	1.435292	0.130498	1.437248
H346	H	0.782587	-0.576787	0.684816
H347	H	1.115920	-0.243454	1.018149
H348	H	1.449254	0.089879	1.351483
O349	O	0.869078	-0.548131	1.097610
O350	O	1.202411	-0.214797	1.430944
O351	O	1.535745	0.118536	1.764277
C352	C	0.828646	-0.599076	1.053450
C353	C	1.161979	-0.265743	1.386783
C354	C	1.495313	0.067591	1.720116
H355	H	0.827906	-0.562141	1.001468
H356	H	1.161239	-0.228807	1.334802
H357	H	1.494573	0.104526	1.668135
H358	H	0.774902	-0.608680	1.074282
H359	H	1.108236	-0.275346	1.407615
H360	H	1.441569	0.057987	1.740948
H361	H	0.850434	-0.667601	1.048890
H362	H	1.183768	-0.334268	1.382223
H363	H	1.517101	-0.000935	1.715556
H364	H	1.042499	-0.329820	0.727009
H365	H	1.375832	0.003514	1.060343
H366	H	1.709165	0.336847	1.393676
H367	H	0.876325	-0.539092	0.963533
H368	H	1.209658	-0.205759	1.296866
H369	H	1.542992	0.127575	1.630200
