data_functionalizedCrystal
_audit_creation_method	'MofGen! by Chris Wilmer'
_symmetry_space_group_name_H-M	'P1'
_symmetry_Int_Tables_number	1
_symmetry_cell_setting	triclinic
loop_
_symmetry_equiv_pos_as_xyz
  x,y,z
_cell_length_a	18.215407
_cell_length_b	29.839131
_cell_length_c	18.215399
_cell_angle_alpha	89.966717
_cell_angle_beta	89.983176
_cell_angle_gamma	90.041868
loop_
_atom_site_label
_atom_site_type_symbol
_atom_site_fract_x
_atom_site_fract_y
_atom_site_fract_z
Zn1	Zn	1.124966	-0.178842	-0.416101
Zn2	Zn	1.124845	-0.253974	-0.293028
Zn3	Zn	1.001905	-0.178860	-0.293048
Zn4	Zn	1.001828	-0.253946	-0.416053
O5	O	1.063386	-0.216406	-0.354558
O6	O	1.227934	-0.188813	-0.399787
O7	O	1.108518	-0.244030	-0.190047
O8	O	1.018311	-0.115990	-0.309400
O9	O	1.227845	-0.244012	-0.309366
O10	O	1.108724	-0.115977	-0.399806
O11	O	1.018194	-0.188843	-0.190061
O12	O	0.898910	-0.188816	-0.309354
O13	O	1.018182	-0.243964	-0.519044
O14	O	0.898854	-0.243982	-0.399725
O15	O	1.108650	-0.188785	-0.519079
O16	O	1.108444	-0.316838	-0.309320
O17	O	1.018065	-0.316817	-0.399705
C18	C	0.872180	-0.216398	-0.354537
C19	C	0.790381	-0.216405	-0.354545
C20	C	0.602177	-0.245175	-0.401542
C21	C	0.525318	-0.245177	-0.401551
C22	C	0.525347	-0.187644	-0.307589
C23	C	0.602204	-0.187641	-0.307584
C24	C	0.640617	-0.216409	-0.354560
C25	C	0.486901	-0.216414	-0.354574
C26	C	0.403567	-0.216415	-0.354583
C27	C	0.723956	-0.216407	-0.354551
C28	C	1.063253	-0.333128	-0.354521
C29	C	1.063263	-0.383063	-0.354530
C30	C	1.110532	-0.692704	-0.307563
C31	C	1.110623	-0.880377	-0.307591
O32	O	1.150707	-0.904640	-0.267629
N33	N	1.063538	-0.903848	-0.354613
C34	C	1.016431	-0.880397	-0.401635
O35	O	0.976391	-0.904666	-0.441636
C36	C	1.016345	-0.692725	-0.401609
C37	C	1.063427	-0.669257	-0.354579
C38	C	1.157611	-0.669236	-0.260536
C39	C	1.157585	-0.622320	-0.260527
C40	C	1.110480	-0.598873	-0.307544
C41	C	1.063401	-0.622341	-0.354570
C42	C	0.969242	-0.669275	-0.448634
C43	C	0.969226	-0.622354	-0.448625
C44	C	1.016308	-0.598886	-0.401595
C45	C	1.016270	-0.551978	-0.401577
N46	N	1.063354	-0.528508	-0.354554
C47	C	1.110460	-0.551955	-0.307538
C48	C	1.016479	-0.978928	-0.401644
C49	C	1.016500	-1.025845	-0.401649
C50	C	1.110692	-1.025822	-0.307606
C51	C	1.110668	-0.978904	-0.307598
C52	C	1.063564	-0.955457	-0.354622
C53	C	1.110401	-0.453430	-0.307521
C54	C	1.110369	-0.406510	-0.307514
C55	C	1.016179	-0.406537	-0.401559
C56	C	1.016208	-0.453453	-0.401564
C57	C	1.063325	-0.476898	-0.354543
O58	O	0.976213	-0.527686	-0.441523
O59	O	1.150506	-0.527678	-0.267554
C60	C	1.110558	-0.739619	-0.307572
C61	C	1.063479	-0.763088	-0.354598
C62	C	1.016374	-0.739640	-0.401615
C63	C	1.063500	-0.810005	-0.354604
C64	C	1.110605	-0.833453	-0.307587
C65	C	1.157689	-0.809982	-0.260565
C66	C	1.157663	-0.763067	-0.260555
C67	C	0.969290	-0.763111	-0.448637
C68	C	0.969319	-0.810026	-0.448642
C69	C	1.016424	-0.833474	-0.401625
C70	C	1.255339	-0.216414	-0.354579
C71	C	1.337138	-0.216417	-0.354589
C72	C	1.063421	-0.216370	-0.546511
C73	C	1.063435	-0.216354	-0.628310
C74	C	1.063539	-0.099227	-0.354610
C75	C	1.063605	-0.049293	-0.354633
C76	C	1.016444	-0.187599	-0.816512
C77	C	1.016456	-0.187590	-0.893371
C78	C	1.110515	-0.245056	-0.893345
C79	C	1.110498	-0.245067	-0.816488
C80	C	1.063464	-0.216336	-0.778073
C81	C	1.063493	-0.216316	-0.931789
C82	C	1.063508	-0.216306	-1.015123
C83	C	1.063448	-0.216346	-0.694734
C84	C	1.063394	-0.216409	-0.163351
C85	C	1.063521	-0.216298	-0.081553
H86	H	0.633503	-0.164213	-0.269325
O87	O	1.156231	-0.273002	-0.930548
C88	C	1.197742	-0.298360	-0.880137
H89	H	1.167583	-0.299925	-0.825349
H90	H	1.205556	-0.333753	-0.902326
H91	H	1.253652	-0.281910	-0.871974
H92	H	0.978145	-0.164205	-0.785237
H93	H	0.494062	-0.164223	-0.269342
O94	O	0.970760	-0.159632	-0.930597
C95	C	0.929231	-0.134287	-0.880207
H96	H	0.959367	-0.132740	-0.825425
H97	H	0.921431	-0.098887	-0.902433
H98	H	0.873316	-0.150737	-0.872016
O99	O	1.156071	-0.273031	-0.779110
C100	C	1.114123	-0.302044	-0.734621
H101	H	1.056164	-0.304814	-0.757780
H102	H	1.140696	-0.336619	-0.733728
H103	H	1.111590	-0.288161	-0.676381
H104	H	1.148708	-0.387404	-0.269213
O105	O	1.156274	-0.476146	-0.261879
C106	C	1.229602	-0.464627	-0.278044
H107	H	1.231078	-0.430553	-0.306342
H108	H	1.262633	-0.463011	-0.224961
H109	H	1.254391	-0.491003	-0.315898
O110	O	0.639459	-0.273068	-0.447283
C111	C	0.620700	-0.263310	-0.520659
H112	H	0.599613	-0.227423	-0.524477
H113	H	0.671253	-0.267203	-0.557003
H114	H	0.576068	-0.287411	-0.539829
O115	O	0.487945	-0.273057	-0.447267
C116	C	0.443521	-0.247518	-0.494869
H117	H	0.466724	-0.212138	-0.499518
H118	H	0.442654	-0.263810	-0.551456
H119	H	0.385265	-0.245956	-0.472126
O120	O	0.923434	-0.692086	-0.494220
C121	C	0.875942	-0.719284	-0.452301
H122	H	0.871415	-0.705178	-0.394329
H123	H	0.819296	-0.719836	-0.478878
H124	H	0.898712	-0.754830	-0.449798
O125	O	1.203398	-0.599596	-0.214826
C126	C	1.244964	-0.630360	-0.173325
H127	H	1.247495	-0.663790	-0.203480
H128	H	1.302951	-0.616778	-0.165532
H129	H	1.218058	-0.635390	-0.117405
O130	O	1.203493	-0.692014	-0.214988
C131	C	1.251006	-0.719096	-0.256958
H132	H	1.255444	-0.704938	-0.314932
H133	H	1.307680	-0.719570	-0.230437
H134	H	1.228316	-0.754680	-0.259444
O135	O	0.923456	-0.740407	-0.494330
C136	C	0.881922	-0.771189	-0.535843
H137	H	0.879423	-0.804647	-0.505699
H138	H	0.823921	-0.757673	-0.543631
H139	H	0.908833	-0.776137	-0.591764
O140	O	1.156475	-0.956178	-0.261892
C141	C	1.198035	-0.986940	-0.220383
H142	H	1.200575	-1.020370	-0.250536
H143	H	1.256020	-0.973356	-0.212581
H144	H	1.171120	-0.991969	-0.164467
H145	H	1.149047	-1.044921	-0.269324
H146	H	0.978120	-0.959841	-0.439938
O147	O	0.970735	-1.048570	-0.447398
C148	C	0.929146	-1.017808	-0.488880
H149	H	0.959277	-0.984345	-0.491445
H150	H	0.921265	-1.031342	-0.546860
H151	H	0.873268	-1.012863	-0.461878
H152	H	0.977872	-0.472561	-0.439862
O153	O	0.923400	-0.599648	-0.494331
C154	C	0.881869	-0.630427	-0.535853
H155	H	0.879355	-0.663884	-0.505709
H156	H	0.823874	-0.616906	-0.543657
H157	H	0.908794	-0.635378	-0.591767
O158	O	0.970532	-0.383734	-0.447309
C159	C	1.012402	-0.356541	-0.494852
H160	H	1.070365	-0.370648	-0.499448
H161	H	0.985758	-0.355995	-0.551467
H162	H	1.014941	-0.320993	-0.472087
O163	O	1.203472	-0.740343	-0.214850
C164	C	1.245035	-0.771107	-0.173347
H165	H	1.247572	-0.804535	-0.203504
H166	H	1.303020	-0.757523	-0.165546
H167	H	1.218123	-0.776138	-0.117430
O168	O	1.203544	-0.832778	-0.215008
C169	C	1.251043	-0.859869	-0.256979
H170	H	1.255517	-0.845698	-0.314942
H171	H	1.307707	-0.860371	-0.230438
H172	H	1.228316	-0.895443	-0.259497
H173	H	0.930972	-0.829130	-0.486939
