data_functionalizedCrystal
_audit_creation_method	'MofGen! by Chris Wilmer'
_symmetry_space_group_name_H-M	'P1'
_symmetry_Int_Tables_number	1
_symmetry_cell_setting	triclinic
loop_
_symmetry_equiv_pos_as_xyz
  x,y,z
_cell_length_a	10.723024
_cell_length_b	7.681481
_cell_length_c	8.559649
_cell_angle_alpha	85.069100
_cell_angle_beta	77.123267
_cell_angle_gamma	95.778575
loop_
_atom_site_label
_atom_site_type_symbol
_atom_site_fract_x
_atom_site_fract_y
_atom_site_fract_z
O1	O	1.621004	-0.146409	0.238853
O2	O	1.255654	-0.146414	0.260282
O3	O	1.470517	-0.146409	0.017318
O4	O	1.406141	-0.146413	0.481817
O5	O	1.496970	0.146449	-0.012655
O6	O	1.282107	0.146445	0.230309
O7	O	1.647457	0.146450	0.208880
Zn8	Zn	1.468982	0.192945	0.214836
Zn9	Zn	1.434129	-0.192909	0.254327
O10	O	1.432594	0.146445	0.451844
C11	C	1.222541	0.000015	0.243736
C12	C	1.084465	0.000012	0.239071
N13	N	1.492777	0.456280	0.187883
N14	N	1.410345	-0.456244	0.281266
C15	C	0.995544	0.000010	0.375021
C16	C	0.852834	0.000008	0.370202
C17	C	1.680570	0.000017	0.225426
C18	C	1.818645	0.000008	0.230093
C19	C	1.488621	0.000017	-0.057144
C20	C	1.503142	0.000007	-0.234364
C21	C	1.414489	0.000015	0.526307
C22	C	1.399967	0.000013	0.703528
H23	H	1.025068	0.000019	0.494979
O24	O	1.309808	0.454249	0.394888
C25	C	1.192876	0.499161	0.363136
H26	H	1.210867	0.633063	0.288029
H27	H	1.152550	0.395448	0.293838
C28	C	1.073220	0.342978	0.615769
C29	C	1.095315	0.507447	0.523533
H30	H	1.013036	0.348082	0.714708
H31	H	1.151998	0.312714	0.637159
H32	H	1.039621	0.256569	0.558003
H33	H	1.128928	0.593848	0.581291
H34	H	1.016540	0.537726	0.502156
H35	H	1.576935	0.531487	0.092573
O36	O	1.281239	-0.000233	-0.198310
C37	C	1.200644	-0.151929	-0.212520
H38	H	1.238674	-0.202485	-0.333338
H39	H	1.199465	-0.258143	-0.110444
C40	C	1.016116	-0.043769	-0.054334
C41	C	1.062820	-0.105854	-0.202731
H42	H	0.931098	-0.015352	-0.048288
H43	H	1.070415	0.058429	-0.044754
H44	H	1.015145	-0.132291	0.030714
H45	H	1.063805	-0.017324	-0.287774
H46	H	1.008518	-0.208036	-0.212325
H47	H	0.776469	-0.000002	0.486586
H48	H	0.895002	-0.000001	0.113704
H49	H	1.054937	-0.000032	0.119117
H50	H	1.602592	0.000023	-0.316782
