data_functionalizedCrystal
_audit_creation_method	'MofGen! by Chris Wilmer'
_symmetry_space_group_name_H-M	'P1'
_symmetry_Int_Tables_number	1
_symmetry_cell_setting	triclinic
loop_
_symmetry_equiv_pos_as_xyz
  x,y,z
_cell_length_a	23.532407
_cell_length_b	23.532407
_cell_length_c	22.610064
_cell_angle_alpha	90.000603
_cell_angle_beta	89.997161
_cell_angle_gamma	97.151322
loop_
_atom_site_label
_atom_site_type_symbol
_atom_site_fract_x
_atom_site_fract_y
_atom_site_fract_z
O1	O	0.755263	-0.069127	-0.049117
O2	O	0.589400	-0.079130	-0.049135
O3	O	0.677333	0.008803	-0.049114
O4	O	0.667330	-0.157060	-0.049137
O5	O	0.677318	0.008790	0.049255
O6	O	0.589385	-0.079143	0.049234
O7	O	0.755248	-0.069140	0.049252
Zn8	Zn	0.672314	-0.074144	0.064862
Zn9	Zn	0.672334	-0.074127	-0.064744
O10	O	0.667315	-0.157073	0.049232
C11	C	0.568176	-0.078882	0.000048
C12	C	0.504959	-0.078116	0.000041
C13	C	0.105856	-0.125350	0.000061
C14	C	0.046456	-0.124638	0.000065
O15	O	0.009711	-0.168424	0.000081
N16	N	0.023830	-0.072362	0.000071
C17	C	0.060607	-0.020794	0.000080
O18	O	0.035908	0.023737	0.000086
C19	C	0.120006	-0.021506	0.000080
C20	C	0.142629	-0.073785	0.000068
C21	C	0.128479	-0.177625	0.000050
C22	C	0.187876	-0.178336	0.000045
C23	C	0.224649	-0.126772	0.000052
C24	C	0.202025	-0.074497	0.000063
C25	C	0.156783	0.030062	0.000093
C26	C	0.216185	0.029345	0.000094
C27	C	0.238808	-0.022934	0.000082
C28	C	0.298194	-0.023643	0.000065
N29	N	0.320820	-0.075920	0.000059
C30	C	0.284048	-0.127484	0.000052
C31	C	-0.064135	-0.019302	0.000080
C32	C	-0.123533	-0.018589	0.000075
C33	C	-0.137680	-0.122434	0.000061
C34	C	-0.078281	-0.123146	0.000062
C35	C	-0.041509	-0.071578	0.000074
C36	C	0.408784	-0.128974	0.000042
C37	C	0.468186	-0.129680	0.000034
C38	C	0.482329	-0.025836	0.000051
C39	C	0.422932	-0.025129	0.000055
C40	C	0.386160	-0.076702	0.000052
O41	O	0.334974	0.020119	0.000052
O42	O	0.308755	-0.172007	0.000054
C43	C	0.677071	0.030013	0.000072
C44	C	0.676305	0.093230	0.000076
C45	C	0.776472	-0.069388	0.000069
C46	C	0.839689	-0.070154	0.000071
C47	C	0.667577	-0.178283	0.000045
C48	C	0.668343	-0.241500	0.000036
N49	N	0.672304	-0.074155	0.153314
C50	C	0.723539	0.492333	0.000049
C51	C	0.722827	0.551733	0.000044
O52	O	0.766613	0.588478	0.000027
N53	N	0.670551	0.574359	0.000039
C54	C	0.618983	0.537582	0.000032
O55	O	0.574452	0.562281	0.000027
C56	C	0.619695	0.478182	0.000033
C57	C	0.671974	0.455560	0.000044
C58	C	0.775814	0.469710	0.000060
C59	C	0.776525	0.410313	0.000065
C60	C	0.724961	0.373540	0.000060
C61	C	0.672685	0.396164	0.000050
C62	C	0.568127	0.441406	0.000022
C63	C	0.568844	0.382004	0.000021
C64	C	0.621123	0.359381	0.000033
C65	C	0.621832	0.299995	0.000050
N66	N	0.674109	0.277368	0.000056
C67	C	0.725673	0.314141	0.000061
C68	C	0.617491	0.662324	0.000031
C69	C	0.616778	0.721722	0.000034
C70	C	0.720623	0.735869	0.000045
C71	C	0.721335	0.676470	0.000046
C72	C	0.669767	0.639698	0.000036
C73	C	0.727163	0.189405	0.000073
C74	C	0.727869	0.130003	0.000081
C75	C	0.624025	0.115860	0.000067
C76	C	0.623318	0.175257	0.000062
C77	C	0.674891	0.212029	0.000063
O78	O	0.578070	0.263215	0.000065
O79	O	0.770196	0.289433	0.000058
N80	N	0.672349	-0.074111	-0.153196
C81	C	0.711273	-0.035196	0.561965
C82	C	0.711276	-0.035192	0.623884
O83	O	0.744384	-0.002076	0.655911
N84	N	0.672334	-0.074115	0.654851
C85	C	0.633383	-0.113041	0.623895
O86	O	0.600259	-0.146147	0.655920
C87	C	0.633377	-0.113042	0.561976
C88	C	0.672326	-0.074120	0.531013
C89	C	0.750218	0.003724	0.531001
C90	C	0.750215	0.003719	0.469085
C91	C	0.711268	-0.035206	0.438133
C92	C	0.672323	-0.074125	0.469097
C93	C	0.594424	-0.151965	0.531021
C94	C	0.594422	-0.151962	0.469098
C95	C	0.633370	-0.113040	0.438134
C96	C	0.633374	-0.113054	0.376229
N97	N	0.672316	-0.074131	0.345262
C98	C	0.711263	-0.035207	0.376214
C99	C	0.633396	-0.113035	0.753928
C100	C	0.633403	-0.113037	0.815846
C101	C	0.711296	-0.035187	0.815831
C102	C	0.711291	-0.035188	0.753913
C103	C	0.672338	-0.074112	0.722962
C104	C	0.711255	-0.035220	0.246187
C105	C	0.711251	-0.035230	0.184266
C106	C	0.633357	-0.113078	0.184286
C107	C	0.633363	-0.113071	0.246202
C108	C	0.672314	-0.074137	0.277151
O109	O	0.600281	-0.146152	0.344163
O110	O	0.744376	-0.002101	0.344182
H111	H	0.486602	-0.172255	0.000024
H112	H	0.575496	0.632386	0.000028
C113	C	0.788763	-0.022378	0.114533
C114	C	0.753989	0.007595	0.150187
H115	H	0.815125	0.004073	0.093487
H116	H	0.765565	-0.045594	0.087273
H117	H	0.809190	-0.045934	0.138664
H118	H	0.733559	0.031149	0.126056
H119	H	0.777190	0.030821	0.177451
H120	H	-0.167632	-0.164421	0.000059
C121	C	0.579669	0.019171	0.000063
C122	C	0.522757	0.030842	0.000063
H123	H	0.604628	0.054162	0.000078
H124	H	0.586494	-0.002267	-0.034245
H125	H	0.586484	-0.002291	0.034362
H126	H	0.515941	0.052300	-0.034239
H127	H	0.515929	0.052289	0.034375
H128	H	-0.141947	0.023982	0.000076
C129	C	0.176758	0.132632	0.000129
C130	C	0.131927	0.087531	0.000115
H131	H	0.161413	0.168112	0.000148
H132	H	0.199629	0.130201	-0.034176
H133	H	0.199632	0.130174	0.034431
H134	H	0.109056	0.089986	-0.034190
H135	H	0.109047	0.089962	0.034423
H136	H	-0.034198	0.022693	0.000084
C137	C	0.291194	0.088802	-0.050465
C138	C	0.256607	0.086031	0.000104
H139	H	0.316150	0.123795	-0.050457
H140	H	0.267728	0.086928	-0.084760
H141	H	0.313168	0.057564	-0.050466
H142	H	0.234630	0.117266	0.000103
H143	H	0.280076	0.087910	0.034408
C144	C	0.788841	-0.022453	0.315801
C145	C	0.754073	0.007574	0.280200
H146	H	0.815273	0.003966	0.336800
H147	H	0.809183	-0.046057	0.291645
H148	H	0.765645	-0.045625	0.343109
H149	H	0.777269	0.030743	0.252889
H150	H	0.733729	0.031188	0.304358
C151	C	0.827804	0.016481	0.600614
C152	C	0.793034	0.046512	0.565018
H153	H	0.854238	0.042897	0.621614
H154	H	0.848143	-0.007122	0.576454
H155	H	0.804608	-0.006693	0.627921
H156	H	0.816229	0.069682	0.537708
H157	H	0.772693	0.070124	0.589180
H158	H	0.580748	0.193677	0.000069
H159	H	0.781929	0.035414	0.443878
C160	C	0.788282	0.041762	0.760132
C161	C	0.754099	0.007600	0.719881
H162	H	0.814708	0.068182	0.739123
H163	H	0.808632	0.018157	0.784276
H164	H	0.764688	0.062124	0.784289
H165	H	0.777693	-0.012765	0.695726
H166	H	0.733748	0.031209	0.695727
H167	H	0.404512	0.017441	0.000056
H168	H	0.762610	0.765821	0.000047
H169	H	0.743008	-0.003492	0.841044
H170	H	0.378851	-0.170970	0.000041
H171	H	0.770443	0.111587	0.000092
C172	C	0.556410	-0.189987	0.809626
C173	C	0.590593	-0.155825	0.849877
H174	H	0.529976	-0.216398	0.830635
H175	H	0.579999	-0.210353	0.785477
H176	H	0.536064	-0.166376	0.785474
H177	H	0.610942	-0.179435	0.874026
H178	H	0.567001	-0.135457	0.874036
H179	H	0.769159	0.219337	0.000071
C180	C	0.879096	0.430282	0.000070
C181	C	0.833993	0.385452	0.000070
H182	H	0.914576	0.414935	0.000067
H183	H	0.876652	0.453153	0.034371
H184	H	0.876653	0.453155	-0.034237
H185	H	0.836434	0.362581	0.034378
H186	H	0.836439	0.362571	-0.034235
H187	H	0.601677	-0.144736	0.728731
C188	C	0.517423	-0.228903	0.524789
C189	C	0.551607	-0.194747	0.565045
H190	H	0.490986	-0.255314	0.545795
H191	H	0.541011	-0.249270	0.500640
H192	H	0.497081	-0.205288	0.500638
H193	H	0.571952	-0.218362	0.589193
H194	H	0.528016	-0.174379	0.589205
H195	H	0.562700	-0.183658	0.443901
C196	C	0.556363	-0.190016	0.239994
C197	C	0.590549	-0.155851	0.280241
H198	H	0.529925	-0.216420	0.261006
H199	H	0.579949	-0.210390	0.215850
H200	H	0.536022	-0.166406	0.215836
H201	H	0.610893	-0.179461	0.304396
H202	H	0.566959	-0.135476	0.304394
H203	H	0.601648	-0.144772	0.159075
C204	C	0.194078	-0.267065	-0.050533
C205	C	0.212729	-0.235808	0.000037
H206	H	0.209414	-0.302551	-0.050535
H207	H	0.206731	-0.245849	-0.084828
H208	H	0.153438	-0.274002	-0.050527
H209	H	0.253369	-0.228868	0.000028
H210	H	0.200079	-0.257029	0.034340
H211	H	0.574207	0.740136	0.000035
H212	H	-0.059867	-0.165717	0.000055
C213	C	0.053485	-0.237066	-0.050533
C214	C	0.088064	-0.234311	0.000038
H215	H	0.028535	-0.272063	-0.050541
H216	H	0.076957	-0.235174	-0.084827
H217	H	0.031504	-0.205834	-0.050520
H218	H	0.110047	-0.265541	0.000022
H219	H	0.064589	-0.236209	0.034341
H220	H	0.525555	0.459814	0.000009
H221	H	0.763906	0.658056	0.000054
C222	C	0.820850	0.567044	0.000061
C223	C	0.832500	0.510125	0.000064
H224	H	0.855849	0.591991	0.000063
H225	H	0.799400	0.573873	0.034359
H226	H	0.799408	0.573871	-0.034248
H227	H	0.853938	0.503297	0.034376
H228	H	0.853960	0.503294	-0.034237
C229	C	0.466125	0.373990	0.000004
C230	C	0.512157	0.341584	0.000013
H231	H	0.431130	0.349037	0.000003
H232	H	0.468016	0.397449	-0.034299
H233	H	0.468006	0.397456	0.034308
H234	H	0.510278	0.318121	-0.034294
H235	H	0.510265	0.318115	0.034319
C236	C	0.521306	0.107828	0.000047
C237	C	0.567347	0.075433	0.000058
H238	H	0.486316	0.082867	0.000041
H239	H	0.523195	0.131290	-0.034254
H240	H	0.523179	0.131291	0.034353
H241	H	0.565476	0.051973	-0.034251
H242	H	0.565456	0.051961	0.034362
