data_functionalizedCrystal
_audit_creation_method	'MofGen! by Chris Wilmer'
_symmetry_space_group_name_H-M	'P1'
_symmetry_Int_Tables_number	1
_symmetry_cell_setting	triclinic
loop_
_symmetry_equiv_pos_as_xyz
  x,y,z
_cell_length_a	21.295417
_cell_length_b	21.395362
_cell_length_c	21.395355
_cell_angle_alpha	90.048039
_cell_angle_beta	89.978549
_cell_angle_gamma	89.951233
loop_
_atom_site_label
_atom_site_type_symbol
_atom_site_fract_x
_atom_site_fract_y
_atom_site_fract_z
Zn1	Zn	-0.250375	-0.957860	-0.354641
Zn2	Zn	0.249625	-0.457860	0.145359
Zn3	Zn	-0.355627	-0.957763	-0.249859
Zn4	Zn	0.144373	-0.457763	0.250141
Zn5	Zn	-0.250409	-0.853075	-0.249835
Zn6	Zn	0.249591	-0.353075	0.250165
Zn7	Zn	-0.355644	-0.853045	-0.354556
Zn8	Zn	0.144356	-0.353045	0.145444
O9	O	-0.303014	-0.905436	-0.302223
O10	O	0.196986	-0.405436	0.197777
O11	O	-0.264316	-1.045525	-0.340787
O12	O	0.235684	-0.545525	0.159213
O13	O	-0.341676	-0.943848	-0.162177
O14	O	0.158324	-0.443848	0.337823
O15	O	-0.162315	-0.867029	-0.263764
O16	O	0.337685	-0.367029	0.236236
O17	O	-0.341644	-1.045454	-0.263804
O18	O	0.158356	-0.545454	0.236196
O19	O	-0.162290	-0.944014	-0.340765
O20	O	0.337710	-0.444014	0.159235
O21	O	-0.264373	-0.866935	-0.162160
O22	O	0.235627	-0.366935	0.337840
O23	O	-0.264390	-0.765393	-0.263681
O24	O	0.235610	-0.265393	0.236319
O25	O	-0.341673	-0.866977	-0.442245
O26	O	0.158327	-0.366977	0.057755
O27	O	-0.341706	-0.765371	-0.340619
O28	O	0.158294	-0.265371	0.159381
O29	O	-0.264333	-0.943984	-0.442308
O30	O	0.235667	-0.443984	0.057692
O31	O	-0.443718	-0.943819	-0.263721
O32	O	0.056282	-0.443819	0.236279
O33	O	-0.443731	-0.866883	-0.340641
O34	O	0.056269	-0.366883	0.159359
C35	C	-0.303054	-0.742648	-0.302138
C36	C	0.196946	-0.242648	0.197862
C37	C	-0.303086	-0.673007	-0.302117
C38	C	0.196914	-0.173007	0.197883
C39	C	-0.466565	-0.905354	-0.302188
C40	C	0.033435	-0.405354	0.197812
C41	C	-0.536534	-0.905376	-0.302194
C42	C	-0.036534	-0.405376	0.197806
C43	C	-0.343399	-0.640299	-0.342116
C44	C	0.156601	-0.140299	0.157884
C45	C	-0.343387	-0.574863	-0.342140
C46	C	0.156613	-0.074863	0.157860
C47	C	-0.303067	-0.542139	-0.302152
C48	C	0.196933	-0.042139	0.197848
C49	C	-0.262747	-0.574855	-0.262150
C50	C	0.237253	-0.074855	0.237850
C51	C	-0.262756	-0.640289	-0.262133
C52	C	0.237244	-0.140289	0.237867
C53	C	-0.298001	-0.438414	-0.245740
C54	C	0.201999	0.061586	0.254260
C55	C	-0.297996	-0.372981	-0.245757
C56	C	0.202004	0.127019	0.254243
C57	C	-0.303035	-0.340318	-0.302207
C58	C	0.196965	0.159682	0.197793
C59	C	-0.308092	-0.373096	-0.358643
C60	C	0.191908	0.126904	0.141357
C61	C	-0.308102	-0.438530	-0.358625
C62	C	0.191898	0.061470	0.141375
C63	C	-0.303052	-0.471186	-0.302167
C64	C	0.196948	0.028814	0.197833
C65	C	-0.343336	-0.236657	-0.342235
C66	C	0.156664	0.263343	0.157765
C67	C	-0.343319	-0.171221	-0.342259
C68	C	0.156681	0.328779	0.157741
C69	C	-0.262682	-0.171214	-0.262265
C70	C	0.237318	0.328786	0.237735
C71	C	-0.262696	-0.236649	-0.262246
C72	C	0.237304	0.263351	0.237754
C73	C	-0.303026	-0.269367	-0.302230
C74	C	0.196974	0.230633	0.197770
C75	C	-0.569373	-0.945472	-0.262183
C76	C	-0.069373	-0.445472	0.237817
C77	C	-0.635115	-0.945502	-0.262197
C78	C	-0.135115	-0.445502	0.237803
C79	C	-0.668016	-0.905424	-0.302216
C80	C	-0.168016	-0.405424	0.197784
C81	C	-0.635169	-0.865325	-0.342235
C82	C	-0.135169	-0.365325	0.157765
C83	C	-0.569428	-0.865301	-0.342224
C84	C	-0.069428	-0.365301	0.157776
N85	N	-0.771300	-0.850614	-0.306964
N86	N	-0.271300	-0.350614	0.193036
N87	N	-0.833752	-0.850638	-0.306970
N88	N	-0.333752	-0.350638	0.193030
C89	C	-0.866091	-0.905494	-0.302252
C90	C	-0.366091	-0.405494	0.197748
N91	N	-0.833619	-0.960325	-0.297514
N92	N	-0.333619	-0.460325	0.202486
N93	N	-0.771162	-0.960300	-0.297504
N94	N	-0.271162	-0.460300	0.202496
C95	C	-0.739301	-0.905445	-0.302232
C96	C	-0.239301	-0.405445	0.197768
C97	C	-0.970215	-0.945625	-0.262253
C98	C	-0.470215	-0.445625	0.237747
C99	C	-1.035959	-0.945656	-0.262272
C100	C	-0.535959	-0.445656	0.237728
C101	C	-1.036012	-0.865473	-0.342307
C102	C	-0.536012	-0.365473	0.157693
C103	C	-0.970269	-0.865448	-0.342292
C104	C	-0.470269	-0.365448	0.157708
C105	C	-0.937375	-0.905523	-0.302262
C106	C	-0.437375	-0.405523	0.197738
C107	C	-0.138823	-0.905536	-0.302271
C108	C	0.361177	-0.405536	0.197729
C109	C	-0.068855	-0.905578	-0.302292
C110	C	0.431145	-0.405578	0.197708
C111	C	-0.303001	-0.905488	-0.465646
C112	C	0.196999	-0.405488	0.034354
C113	C	-0.302996	-0.905510	-0.535287
C114	C	0.197004	-0.405510	-0.035287
C115	C	-0.302984	-0.068859	-0.302290
C116	C	0.197016	0.431141	0.197710
C117	C	-0.302999	-0.138501	-0.302272
C118	C	0.197001	0.361499	0.197728
C119	C	-0.262723	-0.945606	-0.568034
C120	C	0.237277	-0.445606	-0.068034
C121	C	-0.262696	-0.945605	-0.633470
C122	C	0.237304	-0.445605	-0.133470
C123	C	-0.302953	-0.905515	-0.666156
C124	C	0.197047	-0.405515	-0.166156
C125	C	-0.343228	-0.865411	-0.633401
C126	C	0.156772	-0.365411	-0.133401
C127	C	-0.343250	-0.865409	-0.567967
C128	C	0.156750	-0.365409	-0.067967
C129	C	-0.359634	-0.900539	-0.769816
C130	C	0.140366	-0.400539	-0.269816
C131	C	-0.359614	-0.900546	-0.835249
C132	C	0.140386	-0.400546	-0.335249
C133	C	-0.302886	-0.905519	-0.867977
C134	C	0.197114	-0.405519	-0.367977
C135	C	-0.246177	-0.910498	-0.835263
C136	C	0.253823	-0.410498	-0.335263
C137	C	-0.246198	-0.910496	-0.769829
C138	C	0.253802	-0.410496	-0.269829
C139	C	-0.302934	-0.905513	-0.737108
C140	C	0.197066	-0.405513	-0.237108
C141	C	-0.262580	-0.945616	-0.971676
C142	C	0.237420	-0.445616	-0.471676
C143	C	-0.262552	-0.945611	-1.037113
C144	C	0.237448	-0.445611	-0.537113
C145	C	-0.343091	-0.865420	-1.037043
C146	C	0.156909	-0.365420	-0.537043
C147	C	-0.343113	-0.865422	-0.971607
C148	C	0.156887	-0.365422	-0.471607
C149	C	-0.302859	-0.905523	-0.938928
C150	C	0.197141	-0.405523	-0.438928
C151	C	-0.302981	-0.905420	-0.139435
C152	C	0.197019	-0.405420	0.360565
C153	C	-0.302809	-0.905520	-0.069794
C154	C	0.197191	-0.405520	0.430206
H155	H	-0.376238	-0.666933	-0.374676
H156	H	0.123762	-0.166933	0.125324
H157	H	-0.542690	-0.832649	-0.374807
H158	H	-0.042690	-0.332649	0.125193
Br159	Br	-0.925698	-0.811027	-0.396595
Br160	Br	-0.425698	-0.311027	0.103405
H161	H	-0.542592	-0.978105	-0.229589
H162	H	-0.042592	-0.478105	0.270411
H163	H	-0.661858	-0.978155	-0.229615
H164	H	-0.161858	-0.478155	0.270385
H165	H	-0.661961	-0.832694	-0.374820
H166	H	-0.161961	-0.332694	0.125180
H167	H	-0.405817	-0.896322	-0.743175
H168	H	0.094183	-0.396322	-0.243175
Br169	Br	-0.925569	-1.000009	-0.207926
Br170	Br	-0.425569	-0.500009	0.292074
Br171	Br	-0.169240	-0.917249	-0.725433
Br172	Br	0.330760	-0.417249	-0.225433
Br173	Br	-0.208022	-0.530445	-0.207887
Br174	Br	0.291978	-0.030445	0.292113
Br175	Br	-0.314930	-0.328777	-0.435260
Br176	Br	0.185070	0.171223	0.064740
H177	H	-0.229754	-0.978261	-1.063774
H178	H	0.270246	-0.478261	-0.563774
Br179	Br	-1.080528	-1.000084	-0.207972
Br180	Br	-0.580528	-0.500084	0.292028
Br181	Br	-0.397719	-0.811003	-1.081395
Br182	Br	0.102281	-0.311003	-0.581395
Br183	Br	-0.436576	-0.893798	-0.879640
Br184	Br	0.063424	-0.393798	-0.379640
H185	H	-0.376214	-0.548227	-0.374714
H186	H	0.123786	-0.048227	0.125286
H187	H	-0.312218	-0.465215	-0.404577
H188	H	0.187782	0.034785	0.095423
Br189	Br	-0.398066	-0.281064	-0.396500
Br190	Br	0.101934	0.218936	0.103500
Br191	Br	-0.169184	-0.917253	-0.879670
Br192	Br	0.330816	-0.417253	-0.379670
H193	H	-0.376146	-0.144590	-0.374835
H194	H	0.123854	0.355410	0.125165
Br195	Br	-0.207949	-1.000036	-0.927322
Br196	Br	0.292051	-0.500036	-0.427322
Br197	Br	-1.080656	-0.811087	-0.396626
Br198	Br	-0.580656	-0.311087	0.103374
H199	H	-0.229944	-0.978259	-0.541431
H200	H	0.270056	-0.478259	-0.041431
H201	H	-0.229851	-0.144570	-0.229709
H202	H	0.270149	0.355430	0.270291
H203	H	-0.293882	-0.346298	-0.199803
H204	H	0.206118	0.153702	0.300197
H205	H	-0.229872	-0.263280	-0.229671
H206	H	0.270128	0.236720	0.270329
H207	H	-0.293894	-0.465003	-0.199768
H208	H	0.206106	0.034997	0.300232
H209	H	-0.229897	-0.978255	-0.660137
H210	H	0.270103	-0.478255	-0.160137
Br211	Br	-0.397774	-0.811004	-0.927162
Br212	Br	0.102226	-0.311004	-0.427162
H213	H	-0.376044	-0.832755	-0.541305
H214	H	0.123956	-0.332755	-0.041305
Br215	Br	-0.208040	-0.684682	-0.207845
Br216	Br	0.291960	-0.184682	0.292155
Br217	Br	-0.397859	-0.810998	-0.677759
Br218	Br	0.102141	-0.310998	-0.177759
