data_functionalizedCrystal
_audit_creation_method	'MofGen! by Chris Wilmer'
_symmetry_space_group_name_H-M	'P1'
_symmetry_Int_Tables_number	1
_symmetry_cell_setting	triclinic
loop_
_symmetry_equiv_pos_as_xyz
  x,y,z
_cell_length_a	42.784839
_cell_length_b	42.784841
_cell_length_c	42.784893
_cell_angle_alpha	90.002418
_cell_angle_beta	59.997780
_cell_angle_gamma	119.999863
loop_
_atom_site_label
_atom_site_type_symbol
_atom_site_fract_x
_atom_site_fract_y
_atom_site_fract_z
O1	O	0.275695	-0.214412	-0.009300
O2	O	0.211692	-0.168961	0.009253
O3	O	0.275692	-0.168961	-0.054750
O4	O	0.211694	-0.214412	0.054702
O5	O	0.223708	-0.220945	-0.054749
O6	O	0.159708	-0.220945	0.009253
O7	O	0.223710	-0.266397	-0.009300
Cu8	Cu	0.186962	-0.248417	-0.000023
Cu9	Cu	0.248440	-0.186940	-0.000024
O10	O	0.159710	-0.266396	0.054703
C11	C	0.051021	-0.022778	0.028112
C12	C	0.013142	-0.041761	0.028375
C13	C	0.051018	-0.079378	0.028116
C14	C	0.013139	-0.098275	0.028379
C15	C	-0.005578	-0.079377	0.028112
C16	C	0.069652	-0.041762	0.028379
C17	C	0.152948	0.113708	0.017863
C18	C	0.173786	0.152360	0.014965
C19	C	0.155902	0.171750	0.013509
C20	C	0.178499	0.213661	0.010359
C21	C	0.117177	0.152485	0.014953
C22	C	0.096339	0.113835	0.017857
C23	C	0.114226	0.094447	0.019312
C24	C	-0.131813	-0.113936	0.017859
C25	C	-0.167567	-0.131750	0.014961
C26	C	-0.185502	-0.169024	0.013506
C27	C	-0.224264	-0.188340	0.010358
C28	C	-0.167685	-0.188485	0.014954
C29	C	-0.131938	-0.170675	0.017859
C30	C	-0.114002	-0.133396	0.019309
C31	C	0.152939	-0.113943	0.017877
C32	C	0.173778	-0.131757	0.014977
C33	C	0.155892	-0.169032	0.013523
C34	C	0.178486	-0.188349	0.010377
C35	C	0.117170	-0.188491	0.014967
C36	C	0.096334	-0.170675	0.017865
C37	C	0.114220	-0.133401	0.019323
C38	C	0.091629	0.052537	0.022456
C39	C	0.073617	0.019131	0.024964
C40	C	0.073613	-0.098693	0.024971
C41	C	0.091623	-0.114089	0.022466
C42	C	-0.044339	-0.098690	0.024964
C43	C	-0.075237	-0.114084	0.022456
O44	O	-0.327856	-0.266388	-0.009322
O45	O	-0.236954	-0.220935	0.009228
O46	O	-0.236950	-0.220939	-0.054773
O47	O	-0.327860	-0.266385	0.054680
O48	O	-0.236948	-0.168954	-0.054776
O49	O	-0.236952	-0.168950	0.009225
O50	O	-0.327854	-0.214403	-0.009325
Cu51	Cu	-0.282403	-0.186930	-0.000050
Cu52	Cu	-0.282405	-0.248408	-0.000046
O53	O	-0.327858	-0.214400	0.054676
C54	C	0.384390	-0.079141	-0.361606
C55	C	0.422270	-0.041526	-0.380503
C56	C	0.384390	-0.079141	-0.305008
C57	C	0.422270	-0.041526	-0.323990
C58	C	0.440988	-0.022543	-0.361606
C59	C	0.365758	-0.098038	-0.323991
C60	C	0.282465	-0.170819	-0.396168
C61	C	0.261627	-0.188759	-0.413983
C62	C	0.279513	-0.169420	-0.451257
C63	C	0.256917	-0.188867	-0.470572
C64	C	0.318239	-0.132140	-0.470717
C65	C	0.339076	-0.114205	-0.452905
C66	C	0.321187	-0.133546	-0.415628
C67	C	0.567227	0.113942	-0.453282
C68	C	0.602981	0.152594	-0.471222
C69	C	0.620916	0.171985	-0.451883
C70	C	0.659678	0.213894	-0.471328
C71	C	0.603097	0.152719	-0.414603
C72	C	0.567349	0.114068	-0.396667
C73	C	0.549414	0.094682	-0.416011
C74	C	0.282465	-0.170819	-0.168522
C75	C	0.261624	-0.188757	-0.129868
C76	C	0.279510	-0.169418	-0.110479
C77	C	0.256914	-0.188865	-0.068568
C78	C	0.318233	-0.132140	-0.129742
C79	C	0.339070	-0.114203	-0.168394
C80	C	0.321184	-0.133548	-0.187782
C81	C	0.343783	-0.114094	-0.396315
C82	C	0.361794	-0.098590	-0.380920
C83	C	0.361794	-0.098590	-0.263099
C84	C	0.343783	-0.114094	-0.229693
C85	C	0.479750	0.019366	-0.381054
C86	C	0.510649	0.052771	-0.396557
C87	C	0.440758	-0.356212	-0.028193
C88	C	0.422041	-0.393827	-0.028459
C89	C	0.384158	-0.356213	-0.028190
C90	C	0.365526	-0.393828	-0.028456
C91	C	0.384160	-0.412810	-0.028193
C92	C	0.422038	-0.337315	-0.028456
C93	C	0.567000	-0.264532	-0.017949
C94	C	0.602755	-0.246591	-0.015053
C95	C	0.620692	-0.265931	-0.013601
C96	C	0.659455	-0.246483	-0.010453
C97	C	0.602873	-0.303210	-0.015048
C98	C	0.567125	-0.321146	-0.017949
C99	C	0.549188	-0.301805	-0.019399
C100	C	0.339356	-0.549295	-0.017951
C101	C	0.318645	-0.587947	-0.015055
C102	C	0.279915	-0.607338	-0.013597
C103	C	0.257452	-0.649247	-0.010452
C104	C	0.261899	-0.588073	-0.015042
C105	C	0.282613	-0.549422	-0.017945
C106	C	0.321343	-0.530035	-0.019397
C107	C	0.339344	-0.264537	-0.017936
C108	C	0.318628	-0.246599	-0.015032
C109	C	0.279898	-0.265939	-0.013577
C110	C	0.257433	-0.246493	-0.010426
C111	C	0.261884	-0.303217	-0.015022
C112	C	0.282601	-0.321153	-0.017924
C113	C	0.321334	-0.301808	-0.019385
C114	C	0.510421	-0.321258	-0.022542
C115	C	0.479522	-0.336762	-0.025048
C116	C	0.361696	-0.336765	-0.025041
C117	C	0.343793	-0.321261	-0.022532
C118	C	0.361701	-0.454719	-0.025047
C119	C	0.343799	-0.488125	-0.022541
O120	O	0.223728	0.336934	-0.009323
O121	O	0.159726	0.227482	0.009227
O122	O	0.223729	0.291478	-0.054775
O123	O	0.159725	0.272938	0.054678
O124	O	0.275711	0.291477	-0.054771
O125	O	0.211707	0.227481	0.009230
O126	O	0.275710	0.336932	-0.009320
Cu127	Cu	0.248455	0.282206	-0.000045
Cu128	Cu	0.186981	0.282208	-0.000049
O129	O	0.211707	0.272936	0.054681
O130	O	0.763271	0.337164	-0.496871
O131	O	0.672367	0.227713	-0.451422
O132	O	0.672365	0.291711	-0.451418
O133	O	0.763273	0.273165	-0.496876
O134	O	0.672366	0.291712	-0.503402
O135	O	0.672368	0.227714	-0.503407
O136	O	0.763272	0.337165	-0.548856
Cu137	Cu	0.717820	0.282440	-0.530878
Cu138	Cu	0.717819	0.282438	-0.469400
O139	O	0.763275	0.273167	-0.548860
O140	O	0.211690	-0.214417	-0.548617
O141	O	0.275691	-0.168962	-0.503167
O142	O	0.211689	-0.168964	-0.503163
O143	O	0.275692	-0.214415	-0.548621
O144	O	0.159706	-0.220947	-0.451179
O145	O	0.223708	-0.220945	-0.451183
O146	O	0.159707	-0.266400	-0.496633
Cu147	Cu	0.186961	-0.248419	-0.469161
Cu148	Cu	0.248437	-0.186943	-0.530639
O149	O	0.223709	-0.266398	-0.496637
C150	C	-0.005343	-0.412572	0.361558
C151	C	0.013375	-0.393590	0.380456
C152	C	0.051255	-0.355974	0.304961
C153	C	0.069887	-0.337077	0.323944
C154	C	0.051254	-0.355974	0.361560
C155	C	0.013375	-0.393589	0.323943
C156	C	-0.131582	-0.549057	0.396116
C157	C	-0.167336	-0.587709	0.413930
C158	C	-0.185271	-0.607098	0.451205
C159	C	-0.224034	-0.649009	0.470519
C160	C	-0.167452	-0.587833	0.470666
C161	C	-0.131705	-0.549184	0.452854
C162	C	-0.113770	-0.529796	0.415578
C163	C	0.096061	-0.321414	0.453239
C164	C	0.116773	-0.303600	0.471179
C165	C	0.155502	-0.266327	0.451842
C166	C	0.177965	-0.247011	0.471288
C167	C	0.173517	-0.246866	0.414562
C168	C	0.152802	-0.264677	0.396625
C169	C	0.114073	-0.301955	0.415968
C170	C	0.096064	-0.321412	0.168474
C171	C	0.116779	-0.303599	0.129820
C172	C	0.155508	-0.266324	0.110432
C173	C	0.177972	-0.247009	0.068521
C174	C	0.173522	-0.246865	0.129696
C175	C	0.152807	-0.264680	0.168348
C176	C	0.114075	-0.301953	0.187735
C177	C	-0.075004	-0.487887	0.396265
C178	C	-0.044106	-0.454481	0.380871
C179	C	0.073715	-0.336660	0.263052
C180	C	0.091618	-0.321265	0.229646
C181	C	0.073714	-0.336661	0.381009
C182	C	0.091616	-0.321267	0.396513
C183	C	0.051046	-0.022794	-0.361634
C184	C	0.069679	-0.041778	-0.380530
C185	C	-0.005555	-0.079390	-0.305034
C186	C	0.013163	-0.098288	-0.324016
C187	C	0.051045	-0.079393	-0.361631
C188	C	0.013164	-0.041775	-0.324018
C189	C	0.095858	0.113693	-0.396200
C190	C	0.116571	0.152344	-0.414015
C191	C	0.155302	0.171732	-0.451290
C192	C	0.177767	0.213642	-0.470607
C193	C	0.173317	0.152465	-0.470750
C194	C	0.152600	0.113815	-0.452936
C195	C	0.113869	0.094429	-0.415659
C196	C	0.152973	-0.113959	-0.453306
C197	C	0.173810	-0.131775	-0.471245
C198	C	0.155926	-0.169048	-0.451906
C199	C	0.178519	-0.188366	-0.471350
C200	C	0.117198	-0.188507	-0.414626
C201	C	0.096358	-0.170694	-0.396690
C202	C	0.114251	-0.133416	-0.416035
C203	C	-0.131801	-0.113944	-0.168548
C204	C	-0.167554	-0.131755	-0.129895
C205	C	-0.185491	-0.169029	-0.110504
C206	C	-0.224255	-0.188343	-0.068593
C207	C	-0.167671	-0.188490	-0.129767
C208	C	-0.131918	-0.170677	-0.168418
C209	C	-0.113988	-0.133404	-0.187808
C210	C	0.091411	0.052521	-0.396344
C211	C	0.073508	0.019115	-0.380949
C212	C	-0.044320	-0.098701	-0.263125
C213	C	-0.075220	-0.114094	-0.229719
C214	C	0.073641	-0.098707	-0.381079
C215	C	0.091652	-0.114103	-0.396582
C216	C	-0.615853	-0.356193	0.361535
C217	C	-0.634487	-0.393808	0.380433
C218	C	-0.559253	-0.356195	0.304938
C219	C	-0.577972	-0.393810	0.323921
C220	C	-0.615854	-0.412792	0.361537
C221	C	-0.577972	-0.337297	0.323920
C222	C	-0.660661	-0.264512	0.396093
C223	C	-0.681373	-0.246571	0.413906
C224	C	-0.720104	-0.265909	0.451181
C225	C	-0.742568	-0.246461	0.470495
C226	C	-0.738120	-0.303189	0.470643
C227	C	-0.717405	-0.321125	0.452831
C228	C	-0.678674	-0.301785	0.415554
C229	C	-0.717784	-0.549275	0.453218
C230	C	-0.738622	-0.587926	0.471159
C231	C	-0.720740	-0.607319	0.451822
C232	C	-0.743333	-0.649227	0.471268
C233	C	-0.682012	-0.588055	0.414542
C234	C	-0.661170	-0.549403	0.396604
C235	C	-0.679063	-0.530016	0.415946
C236	C	-0.433006	-0.264522	0.168449
C237	C	-0.397253	-0.246585	0.129796
C238	C	-0.379317	-0.265926	0.110407
C239	C	-0.340553	-0.246480	0.068496
C240	C	-0.397138	-0.303204	0.129672
C241	C	-0.432891	-0.321139	0.168324
C242	C	-0.450820	-0.301793	0.187711
C243	C	-0.656216	-0.321238	0.396242
C244	C	-0.638314	-0.336743	0.380848
C245	C	-0.520488	-0.336748	0.263028
C246	C	-0.489588	-0.321245	0.229622
C247	C	-0.638451	-0.454700	0.380987
C248	C	-0.656463	-0.488106	0.396492
C249	C	0.440756	0.310302	-0.361620
C250	C	0.422038	0.310564	-0.380518
C251	C	0.384160	0.310312	-0.305026
C252	C	0.365528	0.310574	-0.324010
C253	C	0.384159	0.310303	-0.361624
C254	C	0.422038	0.310573	-0.324006
C255	C	0.566989	0.300046	-0.396172
C256	C	0.602741	0.297145	-0.413984
C257	C	0.620675	0.295684	-0.451257
C258	C	0.659436	0.292531	-0.470569
C259	C	0.602857	0.297127	-0.470719
C260	C	0.567111	0.300033	-0.452909
C261	C	0.549177	0.301493	-0.415634
C262	C	0.339351	0.300042	-0.453303
C263	C	0.318640	0.297142	-0.471244
C264	C	0.279912	0.295690	-0.451908
C265	C	0.257449	0.292541	-0.471354
C266	C	0.261899	0.297143	-0.414629
C267	C	0.282613	0.300049	-0.396692
C268	C	0.321341	0.301496	-0.416033
C269	C	0.339354	0.300088	-0.168540
C270	C	0.318640	0.297192	-0.129888
C271	C	0.279912	0.295742	-0.110501
C272	C	0.257450	0.292601	-0.068591
C273	C	0.261898	0.297184	-0.129766
C274	C	0.282612	0.300078	-0.168417
C275	C	0.321344	0.301533	-0.187802
C276	C	0.510413	0.304640	-0.396323
C277	C	0.479516	0.307151	-0.380931
C278	C	0.361701	0.307173	-0.263117
C279	C	0.343799	0.304671	-0.229712
C280	C	0.361700	0.307154	-0.381073
C281	C	0.343798	0.304644	-0.396578
O282	O	0.275503	0.336913	-0.548651
O283	O	0.211494	0.227461	-0.503201
O284	O	0.275490	0.291455	-0.503192
O285	O	0.211507	0.272919	-0.548659
O286	O	0.223502	0.291457	-0.451211
O287	O	0.159506	0.227463	-0.451219
O288	O	0.223515	0.336915	-0.496669
Cu289	Cu	0.186764	0.282189	-0.469197
Cu290	Cu	0.248246	0.282187	-0.530672
O291	O	0.159519	0.272921	-0.496677
C292	C	0.051032	0.254111	0.361530
C293	C	0.013154	0.253851	0.380425
C294	C	0.051031	0.254102	0.304932
C295	C	0.013153	0.253842	0.323913
C296	C	-0.005564	0.254113	0.361527
C297	C	0.069663	0.253840	0.323916
C298	C	0.152954	0.264360	0.396096
C299	C	0.173791	0.267260	0.413911
C300	C	0.155906	0.268721	0.451185
C301	C	0.178502	0.271871	0.470501
C302	C	0.117182	0.267279	0.470643
C303	C	0.096345	0.264374	0.452830
C304	C	0.114233	0.262915	0.415555
C305	C	-0.131796	0.264379	0.453195
C306	C	-0.167548	0.267281	0.471133
C307	C	-0.185483	0.268734	0.451793
C308	C	-0.224243	0.271886	0.471236
C309	C	-0.167664	0.267282	0.414515
C310	C	-0.131919	0.264374	0.396581
C311	C	-0.113984	0.262925	0.415925
C312	C	0.152952	0.264325	0.168451
C313	C	0.173792	0.267221	0.129798
C314	C	0.155907	0.268673	0.110407
C315	C	0.178502	0.271814	0.068498
C316	C	0.117186	0.267232	0.129669
C317	C	0.096350	0.264339	0.168320
C318	C	0.114234	0.262881	0.187709
C319	C	0.091638	0.259769	0.396240
C320	C	0.073627	0.257260	0.380845
C321	C	0.073626	0.257242	0.263024
C322	C	0.091636	0.259743	0.229619
C323	C	-0.044324	0.257264	0.380973
C324	C	-0.075221	0.259775	0.396474
H325	H	-0.117214	-0.083584	0.019042
H326	H	0.437707	0.310988	-0.411425
H327	H	-0.002500	-0.026531	-0.308780
O328	O	0.099050	0.171057	-0.395153
C329	C	0.088545	0.184709	-0.415850
H330	H	0.083860	0.167006	-0.435026
H331	H	0.056707	0.182172	-0.395019
H332	H	0.116571	0.215988	-0.434241
H333	H	0.100149	0.253421	0.308676
O334	O	0.058728	0.262924	0.186978
C335	C	0.047416	0.264835	0.161574
H336	H	0.062961	0.254875	0.137228
H337	H	0.009939	0.245566	0.177583
H338	H	0.060198	0.295608	0.149370
O339	O	0.170307	-0.077717	0.019242
C340	C	0.180758	-0.053627	-0.011974
H341	H	0.159995	-0.071558	-0.022506
H342	H	0.173407	-0.031812	-0.002536
H343	H	0.217321	-0.038032	-0.036119
H344	H	0.102624	0.268416	0.113879
O345	O	0.440685	-0.412060	-0.028985
C346	C	0.416019	-0.449402	-0.029154
H347	H	0.396848	-0.450568	-0.040906
H348	H	0.439377	-0.457370	-0.047988
H349	H	0.391886	-0.470463	0.001294
O350	O	-0.559292	-0.412020	0.305804
C351	C	-0.546623	-0.422609	0.326290
H352	H	-0.566994	-0.424627	0.357351
H353	H	-0.552587	-0.451582	0.325193
H354	H	-0.510046	-0.400180	0.312891
H355	H	-0.629125	-0.248761	0.365741
H356	H	-0.666703	-0.216219	0.398058
O357	O	-0.114610	-0.189561	-0.187185
C358	C	-0.118117	-0.193049	-0.218246
H359	H	-0.120769	-0.169781	-0.226996
H360	H	-0.087563	-0.189810	-0.243440
H361	H	-0.148852	-0.222377	-0.209421
O362	O	0.335533	-0.113355	-0.110859
C363	C	0.304371	-0.109939	-0.079799
H364	H	0.269742	-0.133189	-0.071152
H365	H	0.306381	-0.113266	-0.054552
H366	H	0.311790	-0.080602	-0.088577
O367	O	0.549655	-0.245677	-0.019387
C368	C	0.573047	-0.208930	-0.017488
H369	H	0.607380	-0.200032	-0.027431
H370	H	0.576242	-0.187539	-0.036778
H371	H	0.554434	-0.209504	0.013279
H372	H	0.552621	-0.351498	-0.019128
H373	H	0.437935	-0.026287	-0.411409
H374	H	0.437704	0.310998	-0.308766
H375	H	0.267931	-0.351506	-0.019101
O376	O	0.170291	-0.245831	0.360397
C377	C	0.180819	-0.266519	0.336237
H378	H	0.160018	-0.297846	0.354097
H379	H	0.173582	-0.264322	0.314361
H380	H	0.217369	-0.254119	0.320715
O381	O	0.620352	0.295757	-0.506942
C382	C	0.665209	0.326968	-0.531035
H383	H	0.678574	0.337504	-0.513105
H384	H	0.684934	0.317525	-0.552846
H385	H	0.668391	0.351112	-0.546636
O386	O	0.336060	0.295674	-0.507431
C387	C	0.304974	0.261102	-0.507403
H388	H	0.270305	0.249707	-0.481482
H389	H	0.307091	0.266454	-0.534716
H390	H	0.312388	0.239191	-0.505989
O391	O	0.170369	0.094927	0.019295
C392	C	0.209018	0.120219	0.017391
H393	H	0.207971	0.144606	0.027342
H394	H	0.211128	0.104123	0.036672
H395	H	0.239207	0.132378	-0.013379
H396	H	-0.002512	0.253428	0.411332
O397	O	0.211391	0.268600	0.111150
C398	C	0.222714	0.266705	0.136549
H399	H	0.191959	0.252621	0.167268
H400	H	0.236866	0.249101	0.130313
H401	H	0.248470	0.296859	0.132606
H402	H	0.100165	-0.026535	-0.411435
O403	O	0.376936	-0.245806	-0.019302
C404	C	0.369811	-0.266573	0.011911
H405	H	0.341347	-0.297867	0.022442
H406	H	0.401063	-0.264488	0.002471
H407	H	0.361263	-0.254157	0.036058
O408	O	0.170402	0.262993	0.359870
C409	C	0.213511	0.296586	0.334874
H410	H	0.227528	0.309661	0.351843
H411	H	0.235436	0.289278	0.312256
H412	H	0.212430	0.317983	0.320311
H413	H	-0.182279	-0.218843	-0.113977
O414	O	0.336166	-0.606659	-0.013715
C415	C	0.346672	-0.620310	-0.044919
H416	H	0.351357	-0.602608	-0.068779
H417	H	0.378510	-0.617773	-0.055927
H418	H	0.318646	-0.651589	-0.035284
H419	H	-0.182052	0.268464	0.501484
H420	H	0.205316	0.168042	0.013788
O421	O	0.329179	-0.411947	-0.028987
C422	C	0.316661	-0.387119	-0.029149
H423	H	0.346411	-0.356195	-0.040890
H424	H	0.304178	-0.391639	-0.047988
H425	H	0.289274	-0.393447	0.001300
O426	O	-0.184798	-0.606640	0.506854
C427	C	-0.151924	-0.605953	0.507667
H428	H	-0.117891	-0.580776	0.482637
H429	H	-0.156192	-0.602728	0.535727
H430	H	-0.155107	-0.633797	0.505295
O431	O	0.106206	-0.300186	0.305776
C432	C	0.096340	-0.276914	0.295159
H433	H	0.059122	-0.291385	0.314260
H434	H	0.113865	-0.247973	0.298612
H435	H	0.108055	-0.272566	0.264021
O436	O	0.377005	0.301547	-0.187345
C437	C	0.410009	0.333734	-0.186662
H438	H	0.393838	0.342594	-0.161486
H439	H	0.430576	0.326241	-0.183437
H440	H	0.432300	0.358392	-0.214509
H441	H	-0.769653	-0.318930	0.500992
H442	H	0.204850	0.168253	-0.501099
O443	O	0.329425	-0.134923	-0.305794
C444	C	0.339292	-0.158205	-0.295200
H445	H	0.368322	-0.139876	-0.293162
H446	H	0.309207	-0.181220	-0.266235
H447	H	0.348326	-0.172347	-0.317636
H448	H	0.167518	0.263140	0.184235
H449	H	-0.732075	-0.351477	0.468678
H450	H	0.167543	-0.083608	-0.469060
H451	H	-0.002525	-0.129181	0.028805
H452	H	0.064321	0.097912	-0.365848
H453	H	-0.117435	-0.186523	0.019040
H454	H	0.230091	-0.219108	-0.114185
H455	H	-0.182272	0.268459	0.398770
O456	O	0.211441	0.268719	0.395029
C457	C	0.245989	0.303290	0.391539
H458	H	0.231468	0.314694	0.414807
H459	H	0.267944	0.297935	0.394780
H460	H	0.266490	0.325197	0.362211
O461	O	0.549762	0.301457	-0.471764
C462	C	0.514356	0.304322	-0.448046
H463	H	0.518263	0.316749	-0.425655
H464	H	0.514358	0.323855	-0.466170
H465	H	0.481819	0.274682	-0.433135
H466	H	0.267897	-0.186572	-0.184305
H467	H	-0.182070	-0.115902	0.013781
O468	O	0.620256	-0.322043	-0.013658
C469	C	0.596857	-0.358793	-0.015548
H470	H	0.580193	-0.358862	-0.029638
H471	H	0.620781	-0.366633	-0.033145
H472	H	0.570680	-0.380602	0.014609
O473	O	-0.776286	-0.606642	0.507342
C474	C	-0.809204	-0.605863	0.508085
H475	H	-0.801441	-0.601358	0.478138
H476	H	-0.842728	-0.634179	0.528657
H477	H	-0.810061	-0.581422	0.518061
O478	O	0.099871	0.268769	0.506822
C479	C	0.131038	0.303334	0.506731
H480	H	0.155360	0.325436	0.476813
H481	H	0.113226	0.314417	0.527958
H482	H	0.149729	0.298097	0.515348
H483	H	0.102618	0.168275	0.013770
O484	O	0.170169	0.095164	-0.471884
C485	C	0.208790	0.120559	-0.508606
H486	H	0.222841	0.151278	-0.508573
H487	H	0.234307	0.114320	-0.516518
H488	H	0.200452	0.116615	-0.530421
O489	O	0.224312	0.295784	-0.395902
C490	C	0.231439	0.326997	-0.416672
H491	H	0.259903	0.337525	-0.447967
H492	H	0.200187	0.317559	-0.414586
H493	H	0.239989	0.351145	-0.404258
H494	H	0.167477	-0.248833	0.184031
O495	O	0.224294	-0.606844	-0.013653
C496	C	0.212831	-0.581556	-0.015542
H497	H	0.243517	-0.550801	-0.029631
H498	H	0.198666	-0.587883	-0.033139
H499	H	0.187040	-0.585536	0.014615
H500	H	-0.562326	-0.306401	0.308670
H501	H	-0.117212	-0.083598	-0.184336
O502	O	0.058746	0.262996	0.471777
C503	C	0.047422	0.264898	0.508498
H504	H	0.078175	0.278984	0.508464
H505	H	0.033271	0.282504	0.516409
H506	H	0.021663	0.234746	0.530315
H507	H	0.267896	-0.186572	-0.365817
H508	H	0.064526	-0.351765	0.468991
O509	O	-0.114445	0.262953	0.472048
C510	C	-0.137831	0.264864	0.508791
H511	H	-0.172169	0.254914	0.517695
H512	H	-0.141016	0.245588	0.530186
H513	H	-0.119219	0.295636	0.508204
O514	O	-0.735135	-0.530441	0.472049
C515	C	-0.736655	-0.531142	0.505746
H516	H	-0.711284	-0.535714	0.502561
H517	H	-0.728809	-0.502770	0.510848
H518	H	-0.771101	-0.555507	0.531076
H519	H	0.617704	0.168507	-0.398859
H520	H	0.205048	-0.216515	0.398819
H521	H	0.205343	-0.115928	-0.501596
O522	O	0.058739	0.095185	0.019237
C523	C	0.047416	0.120583	0.017338
H524	H	0.078170	0.151301	0.003253
H525	H	0.033265	0.114343	-0.000266
H526	H	0.021658	0.116642	0.047492
H527	H	-0.664969	-0.409045	0.411340
H528	H	0.617258	-0.216240	-0.013873
H529	H	-0.382753	-0.216236	0.114110
H530	H	0.370885	0.301223	-0.469054
O531	O	0.440885	-0.023355	-0.305755
C532	C	0.409990	-0.021438	-0.272778
H533	H	0.375097	-0.045046	-0.263281
H534	H	0.413831	-0.025346	-0.248841
H535	H	0.416061	0.007629	-0.279546
H536	H	0.552845	0.098385	-0.366316
H537	H	0.552391	0.301235	-0.365822
O538	O	-0.450384	-0.245683	0.187220
C539	C	-0.426985	-0.208933	0.161931
H540	H	-0.410321	-0.208866	0.131176
H541	H	-0.450908	-0.201094	0.168260
H542	H	-0.400807	-0.187124	0.165910
O543	O	0.335677	-0.113305	-0.506929
C544	C	0.374315	-0.076553	-0.520280
H545	H	0.388479	-0.076485	-0.503689
H546	H	0.399747	-0.068709	-0.552044
H547	H	0.365962	-0.054747	-0.515901
H548	H	0.267941	0.301250	-0.184099
O549	O	0.376658	-0.077976	-0.471749
C550	C	0.369595	-0.053821	-0.451055
H551	H	0.341208	-0.071685	-0.419728
H552	H	0.400903	-0.031943	-0.453252
H553	H	0.360962	-0.038304	-0.463452
H554	H	0.267945	0.301232	-0.366341
H555	H	0.617241	0.295963	-0.398133
H556	H	-0.117415	0.263190	0.366230
O557	O	0.440789	-0.300441	-0.028975
C558	C	0.478295	-0.287763	-0.029133
H559	H	0.491223	-0.305761	-0.040888
H560	H	0.505093	-0.256436	-0.047960
H561	H	0.468897	-0.290839	0.001319
H562	H	-0.182059	-0.115906	-0.114213
O563	O	0.376945	-0.530518	-0.019313
C564	C	0.368342	-0.548631	0.014283
H565	H	0.338300	-0.579617	0.027354
H566	H	0.398267	-0.547937	0.006979
H567	H	0.361502	-0.532988	0.035682
H568	H	-0.667447	-0.603843	0.398798
H569	H	-0.447397	-0.351491	0.184007
O570	O	-0.623567	-0.530754	0.360386
C571	C	-0.612241	-0.556151	0.347166
H572	H	-0.642995	-0.586870	0.363832
H573	H	-0.598084	-0.549913	0.315408
H574	H	-0.586487	-0.552209	0.351566
H575	H	0.370598	-0.083850	-0.184076
O576	O	0.099830	-0.224732	-0.395895
C577	C	0.089381	-0.248823	-0.416660
H578	H	0.110146	-0.230894	-0.447956
H579	H	0.096731	-0.270638	-0.414572
H580	H	0.052819	-0.264419	-0.404244
H581	H	0.100131	-0.026521	0.028807
H582	H	0.230097	-0.219111	-0.398135
O583	O	0.549878	0.095162	-0.472135
C584	C	0.573267	0.120453	-0.508880
H585	H	0.607603	0.144840	-0.517783
H586	H	0.576454	0.104357	-0.530273
H587	H	0.554655	0.132612	-0.508298
H588	H	0.230362	0.296001	-0.113978
H589	H	-0.002524	-0.026519	0.028802
H590	H	-0.382532	-0.318952	0.113884
H591	H	0.333296	-0.216247	-0.013853
O592	O	0.265118	-0.530687	-0.019294
C593	C	0.254590	-0.517060	0.011927
H594	H	0.275398	-0.514117	0.022447
H595	H	0.261819	-0.487949	0.002501
H596	H	0.218043	-0.538092	0.036078
O597	O	0.620282	0.171361	-0.507409
C598	C	0.616765	0.202417	-0.507378
H599	H	0.614117	0.211165	-0.481457
H600	H	0.647312	0.227613	-0.534691
H601	H	0.586024	0.193588	-0.505962
H602	H	0.064825	-0.186540	-0.366338
H603	H	0.335046	0.310999	-0.308768
O604	O	0.336129	0.295840	-0.111148
C605	C	0.346655	0.327059	-0.097520
H606	H	0.325853	0.337583	-0.094582
H607	H	0.339419	0.317631	-0.068406
H608	H	0.383204	0.351207	-0.118549
H609	H	0.064802	-0.186523	0.019045
O610	O	0.211377	-0.112808	0.013597
C611	C	0.222699	-0.076087	0.015496
H612	H	0.191945	-0.076121	0.029581
H613	H	0.236849	-0.068174	0.033102
H614	H	0.248459	-0.054272	-0.014657
O615	O	-0.185072	-0.224668	0.013475
C616	C	-0.181587	-0.224586	-0.021087
H617	H	-0.153881	-0.194673	-0.043198
H618	H	-0.173930	-0.245821	-0.032162
H619	H	-0.214131	-0.233197	-0.015851
H620	H	0.230346	-0.318966	-0.013835
H621	H	0.102110	-0.319446	0.114137
O622	O	-0.005378	-0.411821	0.417331
C623	C	-0.042909	-0.449154	0.430021
H624	H	-0.039896	-0.458525	0.404284
H625	H	-0.045323	-0.469668	0.449511
H626	H	-0.073856	-0.449459	0.446529
H627	H	-0.002510	0.253416	0.308669
O628	O	0.099865	-0.224681	0.013501
C629	C	0.131020	-0.224598	-0.021067
H630	H	0.165651	-0.198611	-0.032462
H631	H	0.129011	-0.251851	-0.015710
H632	H	0.123589	-0.223267	-0.042982
H633	H	-0.002293	-0.408830	0.308704
H634	H	0.064523	-0.351759	0.184259
O635	O	-0.114230	-0.530278	0.359913
C636	C	-0.137616	-0.555569	0.346555
H637	H	-0.171955	-0.579955	0.371988
H638	H	-0.140798	-0.539473	0.328346
H639	H	-0.119006	-0.567731	0.328528
H640	H	-0.181841	-0.603391	0.398082
H641	H	0.102103	-0.319447	0.501532
O642	O	-0.114356	-0.530409	0.471708
C643	C	-0.078948	-0.492141	0.447988
H644	H	-0.082854	-0.483624	0.425596
H645	H	-0.078948	-0.472606	0.466110
H646	H	-0.046412	-0.489247	0.433079
O647	O	0.211102	-0.210632	0.110867
C648	C	0.203987	-0.186542	0.097212
H649	H	0.167106	-0.199559	0.114984
H650	H	0.222331	-0.157196	0.099647
H651	H	0.216771	-0.183391	0.065965
O652	O	-0.005583	-0.135179	-0.305844
C653	C	-0.049338	-0.158447	-0.295227
H654	H	-0.052979	-0.143975	-0.314331
H655	H	-0.057305	-0.187390	-0.298677
H656	H	-0.073110	-0.162791	-0.264090
