data_functionalizedCrystal
_audit_creation_method	'MofGen! by Chris Wilmer'
_symmetry_space_group_name_H-M	'P1'
_symmetry_Int_Tables_number	1
_symmetry_cell_setting	triclinic
loop_
_symmetry_equiv_pos_as_xyz
  x,y,z
_cell_length_a	15.995300
_cell_length_b	15.995300
_cell_length_c	15.072220
_cell_angle_alpha	90.006552
_cell_angle_beta	89.995619
_cell_angle_gamma	83.471807
loop_
_atom_site_label
_atom_site_type_symbol
_atom_site_fract_x
_atom_site_fract_y
_atom_site_fract_z
O1	O	1.110979	0.107738	0.073806
O2	O	0.867195	0.121110	0.073799
O3	O	0.995773	-0.007468	0.073807
O4	O	0.982401	0.236315	0.073798
O5	O	0.995789	-0.007491	-0.073758
O6	O	0.867212	0.121087	-0.073766
O7	O	1.110995	0.107715	-0.073759
Zn8	Zn	0.989106	0.114398	-0.097192
Zn9	Zn	0.989084	0.114427	0.097232
O10	O	0.982417	0.236293	-0.073767
C11	C	0.836008	0.120553	0.000016
C12	C	0.743056	0.118918	0.000014
C13	C	0.572873	0.115898	0.000021
C14	C	0.525391	0.207448	0.000016
C15	C	0.428703	0.205778	0.000353
C16	C	0.405317	0.112926	0.000027
C17	C	0.446449	0.067518	0.084129
C18	C	0.543082	0.069835	0.084198
C19	C	0.543380	0.068454	-0.083617
C20	C	0.446435	0.068462	-0.084720
C21	C	0.310622	0.111242	0.000033
C22	C	0.667568	0.117580	0.000021
C23	C	0.995236	-0.038675	0.000028
C24	C	0.993601	-0.131627	0.000037
C25	C	1.142182	0.108272	0.000026
C26	C	1.235134	0.109907	0.000034
C27	C	0.990581	-0.301810	0.000028
C28	C	1.082131	-0.349292	0.000032
C29	C	1.080461	-0.445979	-0.000306
C30	C	0.987609	-0.469366	0.000020
C31	C	0.942197	-0.428236	-0.084081
C32	C	0.944514	-0.331603	-0.084148
C33	C	0.943140	-0.331301	0.083666
C34	C	0.943148	-0.428245	0.084768
C35	C	0.985925	-0.564061	0.000013
C36	C	0.992263	-0.207114	0.000029
C37	C	0.982954	0.267499	0.000015
C38	C	0.984590	0.360452	0.000011
N39	N	0.989070	0.114441	0.229921
N40	N	0.989127	0.114377	-0.229880
C41	C	0.989108	0.114398	0.589122
C42	C	0.920382	0.183272	0.551511
C43	C	0.920127	0.183107	0.448685
C44	C	0.989089	0.114420	0.410918
C45	C	0.970252	0.026985	0.448228
C46	C	0.969769	0.027377	0.551085
C47	C	1.076874	0.132178	0.551209
C48	C	1.076277	0.134176	0.448345
C49	C	0.989080	0.114427	0.310205
C50	C	0.989115	0.114385	0.689836
H51	H	1.116145	-0.474441	0.059967
H52	H	1.095038	0.194577	0.577164
C53	C	1.128476	-0.483629	-0.082222
C54	C	1.168457	-0.425704	-0.147538
C55	C	1.216475	-0.463352	-0.229458
C56	C	1.224512	-0.558926	-0.246062
C57	C	1.184530	-0.616857	-0.180745
C58	C	1.136512	-0.579208	-0.098825
H59	H	1.162509	-0.354949	-0.135248
H60	H	1.246072	-0.420468	-0.277810
H61	H	1.260058	-0.586796	-0.306704
H62	H	1.190479	-0.687611	-0.193035
H63	H	1.106915	-0.622092	-0.050473
C64	C	0.983850	-0.303614	0.169813
C65	C	1.060700	-0.253860	0.165310
C66	C	1.101422	-0.226175	0.251450
C67	C	1.065294	-0.248244	0.342093
C68	C	0.988440	-0.298000	0.346599
C69	C	0.947718	-0.325685	0.260459
H70	H	1.087447	-0.237522	0.098207
H71	H	1.158314	-0.189342	0.248114
H72	H	1.095439	-0.227749	0.405859
H73	H	0.961693	-0.314339	0.413702
H74	H	0.890826	-0.362518	0.263796
H75	H	0.973372	-0.456603	-0.146904
C76	C	0.851693	-0.448946	0.091961
C77	C	0.823647	-0.496678	0.173469
C78	C	0.732187	-0.517377	0.180650
C79	C	0.668773	-0.490343	0.106324
C80	C	0.696818	-0.442608	0.024810
C81	C	0.788277	-0.421909	0.017629
H82	H	0.870591	-0.516692	0.228495
H83	H	0.711428	-0.552714	0.240992
H84	H	0.601069	-0.505666	0.111640
H85	H	0.649873	-0.422594	-0.030216
H86	H	0.809037	-0.386573	-0.042713
C87	C	0.883309	0.006260	0.583505
C88	C	0.815183	-0.010842	0.515803
C89	C	0.728720	-0.031956	0.548217
C90	C	0.710382	-0.035968	0.648333
C91	C	0.778509	-0.018866	0.716042
C92	C	0.864973	0.002248	0.683627
H93	H	0.828757	-0.007872	0.441685
H94	H	0.678288	-0.044616	0.498094
H95	H	0.646376	-0.051598	0.672328
H96	H	0.764936	-0.021835	0.790159
H97	H	0.915405	0.014909	0.733750
H98	H	0.875637	-0.299518	0.084466
C99	C	0.988751	-0.306868	-0.169392
C100	C	1.021727	-0.375010	-0.236930
C101	C	1.065968	-0.350280	-0.322174
C102	C	1.077233	-0.257408	-0.339879
C103	C	1.044256	-0.189260	-0.272339
C104	C	1.000015	-0.213989	-0.187095
H105	H	1.013389	-0.443765	-0.223825
H106	H	1.090380	-0.400729	-0.372172
H107	H	1.109983	-0.239102	-0.402982
H108	H	1.052595	-0.120505	-0.285444
H109	H	0.975604	-0.163541	-0.137097
C110	C	0.850030	-0.447266	-0.088001
C111	C	0.814845	-0.500502	-0.014704
C112	C	0.722678	-0.519534	-0.018621
C113	C	0.665696	-0.485330	-0.095835
C114	C	0.700880	-0.432091	-0.169138
C115	C	0.793047	-0.413059	-0.165221
H116	H	0.857027	-0.525825	0.042460
H117	H	0.696632	-0.558945	0.035643
H118	H	0.597468	-0.499418	-0.098735
H119	H	0.658698	-0.406768	-0.226302
H120	H	0.819092	-0.373648	-0.219485
H121	H	0.575173	0.000955	-0.084424
H122	H	1.118911	-0.330811	0.060341
C123	C	1.148578	0.070826	0.413622
C124	C	1.220327	0.101965	0.359060
C125	C	1.292624	0.038604	0.324338
C126	C	1.293172	-0.055896	0.344177
C127	C	1.221420	-0.087040	0.398742
C128	C	1.149123	-0.023679	0.433464
H129	H	1.219924	0.171924	0.344371
H130	H	1.345739	0.061659	0.283945
H131	H	1.346690	-0.102800	0.318474
H132	H	1.221824	-0.156999	0.413430
H133	H	1.096008	-0.046735	0.473856
C134	C	0.935233	0.270897	0.414595
C135	C	0.868705	0.321508	0.356029
C136	C	0.883810	0.409301	0.321942
C137	C	0.965443	0.446482	0.346421
C138	C	1.031977	0.395870	0.404990
C139	C	1.016872	0.308077	0.439078
H140	H	0.808270	0.293985	0.337905
H141	H	0.834557	0.446767	0.278584
H142	H	0.976624	0.511471	0.321187
H143	H	1.092411	0.423393	0.423114
H144	H	1.066125	0.270611	0.482435
C145	C	0.853703	-0.287975	-0.088994
C146	C	0.790166	-0.303075	-0.015576
C147	C	0.699358	-0.259449	-0.020425
C148	C	0.672086	-0.200723	-0.098691
C149	C	0.735624	-0.185620	-0.172115
C150	C	0.826432	-0.229246	-0.167267
H151	H	0.810353	-0.346551	0.042367
H152	H	0.652323	-0.270630	0.033929
H153	H	0.604865	-0.168429	-0.102280
H154	H	0.715438	-0.142145	-0.230058
H155	H	0.873467	-0.218066	-0.221620
C156	C	0.409500	0.113248	-0.168781
C157	C	0.439738	0.081448	-0.261072
C158	C	0.402795	0.126234	-0.345130
C159	C	0.335614	0.202820	-0.336899
C160	C	0.305373	0.234624	-0.244605
C161	C	0.342315	0.189837	-0.160546
H162	H	0.489473	0.024751	-0.267168
H163	H	0.425182	0.102691	-0.413453
H164	H	0.308267	0.235973	-0.399124
H165	H	0.255638	0.291321	-0.238508
H166	H	0.319928	0.213381	-0.092224
C167	C	0.550372	0.257144	-0.081445
C168	C	0.482846	0.291985	-0.148805
C169	C	0.507835	0.341680	-0.230269
C170	C	0.600350	0.356533	-0.244373
C171	C	0.667882	0.321691	-0.177011
C172	C	0.642893	0.271997	-0.095547
H173	H	0.414355	0.280990	-0.138366
H174	H	0.457842	0.367472	-0.280135
H175	H	0.618848	0.393320	-0.304678
H176	H	0.736373	0.332686	-0.187450
H177	H	0.692886	0.246204	-0.045682
H178	H	1.128015	0.081957	0.575534
C179	C	0.427416	-0.024649	0.088049
C180	C	0.500127	-0.096553	0.087445
C181	C	0.481093	-0.188719	0.091362
C182	C	0.389347	-0.208981	0.095884
C183	C	0.316629	-0.137074	0.096488
C184	C	0.335664	-0.044908	0.092571
H185	H	0.568049	-0.081556	0.084097
H186	H	0.534924	-0.241949	0.090914
H187	H	0.375256	-0.277207	0.098784
H188	H	0.248708	-0.152071	0.099836
H189	H	0.281833	0.008322	0.093019
H190	H	0.400240	0.241459	-0.059921
C191	C	0.586707	-0.020977	0.089058
C192	C	0.646542	-0.055533	0.014275
C193	C	0.690165	-0.146342	0.019146
C194	C	0.673953	-0.202593	0.098799
C195	C	0.614115	-0.168037	0.173588
C196	C	0.570492	-0.077229	0.168718
H197	H	0.658546	-0.013892	-0.044694
H198	H	0.734461	-0.171922	-0.036218
H199	H	0.706245	-0.269814	0.102405
H200	H	0.602111	-0.209678	0.232557
H201	H	0.526196	-0.051648	0.224082
H202	H	0.544986	0.243701	0.060233
H203	H	0.854988	0.171732	0.424081
H204	H	0.976310	-0.455583	0.146988
H205	H	1.017935	-0.025424	0.575964
C206	C	0.935224	0.271351	0.584963
C207	C	1.009929	0.281820	0.646843
C208	C	1.024767	0.369901	0.680310
C209	C	0.964899	0.447513	0.651898
C210	C	0.890189	0.437047	0.590015
C211	C	0.875351	0.348966	0.556548
H212	H	1.054251	0.224365	0.667878
H213	H	1.080072	0.377649	0.726120
H214	H	0.975883	0.512716	0.676672
H215	H	0.845867	0.494502	0.568980
H216	H	0.820045	0.341218	0.510738
C217	C	0.832882	0.168116	0.586427
C218	C	0.762740	0.151775	0.520829
C219	C	0.675244	0.136614	0.555748
C220	C	0.657889	0.137793	0.656264
C221	C	0.728033	0.154134	0.721868
C222	C	0.815530	0.169296	0.686949
H223	H	0.775586	0.150902	0.446415
H224	H	0.623318	0.124517	0.507183
H225	H	0.593119	0.126570	0.682113
H226	H	0.715188	0.155008	0.796282
H227	H	0.867455	0.181392	0.735514
C228	C	1.095609	0.221062	0.415397
C229	C	1.178002	0.255159	0.443042
C230	C	1.197333	0.342044	0.410084
C231	C	1.134272	0.394831	0.349481
C232	C	1.051874	0.360735	0.321832
C233	C	1.032542	0.273851	0.354790
H234	H	1.224689	0.216082	0.487908
H235	H	1.258330	0.367284	0.430552
H236	H	1.148582	0.459148	0.325084
H237	H	1.005187	0.399812	0.276967
H238	H	0.971545	0.248611	0.334322
H239	H	0.418051	0.098667	0.146952
H240	H	0.563881	0.098585	-0.147383
H241	H	0.431110	0.000765	-0.090045
C242	C	0.884774	0.005356	0.413439
C243	C	0.832002	0.066872	0.351227
C244	C	0.746522	0.045248	0.316442
C245	C	0.713813	-0.037892	0.343867
C246	C	0.766585	-0.099413	0.406082
C247	C	0.852066	-0.077790	0.440868
H248	H	0.856215	0.128422	0.330922
H249	H	0.707456	0.090790	0.270386
H250	H	0.650535	-0.053899	0.318117
H251	H	0.742373	-0.160963	0.426388
H252	H	0.891131	-0.123332	0.486924
H253	H	0.400842	0.241324	0.060990
H254	H	0.561388	0.102579	0.147301
H255	H	1.118406	-0.329639	-0.060141
H256	H	1.018984	-0.025502	0.423762
