data_functionalizedCrystal
_audit_creation_method	'MofGen! by Chris Wilmer'
_symmetry_space_group_name_H-M	'P1'
_symmetry_Int_Tables_number	1
_symmetry_cell_setting	triclinic
loop_
_symmetry_equiv_pos_as_xyz
  x,y,z
_cell_length_a	17.019282
_cell_length_b	27.732046
_cell_length_c	15.500227
_cell_angle_alpha	87.201825
_cell_angle_beta	91.034464
_cell_angle_gamma	96.983222
loop_
_atom_site_label
_atom_site_type_symbol
_atom_site_fract_x
_atom_site_fract_y
_atom_site_fract_z
O1	O	1.045623	-0.061734	0.005972
O2	O	0.816738	-0.069061	-0.011089
O3	O	0.938289	0.004955	-0.002009
O4	O	0.924072	-0.135750	-0.003108
O5	O	0.930913	0.000481	0.141328
O6	O	0.809363	-0.073535	0.132248
O7	O	1.038247	-0.066208	0.149310
Cu8	Cu	0.923132	-0.070280	0.153867
Cu9	Cu	0.931854	-0.064989	-0.015646
O10	O	0.916697	-0.140223	0.140230
C11	C	0.783777	-0.070933	0.058398
C12	C	0.696552	-0.069840	0.051897
C13	C	0.651557	-0.071764	0.126978
C14	C	0.569601	-0.070729	0.120872
C15	C	0.532641	-0.067774	0.039684
C16	C	0.577642	-0.065848	-0.035403
C17	C	0.659597	-0.066880	-0.029296
C18	C	0.285391	-0.064535	0.017336
C19	C	0.203429	-0.063505	0.011235
C20	C	0.195395	-0.068385	0.167511
C21	C	0.277351	-0.069419	0.173610
C22	C	0.322345	-0.067491	0.098524
C23	C	0.448868	-0.066718	0.033441
C24	C	0.406117	-0.068544	0.104768
C25	C	0.934303	0.020726	0.069641
C26	C	0.933404	0.074387	0.069583
C27	C	0.999580	0.412793	0.074486
C28	C	0.996248	0.614473	0.074234
O29	O	1.056759	0.645355	0.078708
N30	N	0.924173	0.634044	0.068863
C31	C	0.852927	0.603190	0.063549
O32	O	0.791547	0.624464	0.058966
C33	C	0.856260	0.401511	0.063795
C34	C	0.928339	0.381944	0.069175
C35	C	1.071653	0.393225	0.079864
C36	C	1.072485	0.342807	0.079932
C37	C	1.001244	0.311958	0.074621
C38	C	0.929171	0.331526	0.069242
C39	C	0.785015	0.370659	0.058475
C40	C	0.785855	0.320237	0.058534
C41	C	0.857934	0.300669	0.063914
C42	C	0.858762	0.250260	0.063999
N43	N	0.930837	0.230689	0.069370
C44	C	1.002078	0.261539	0.074681
C45	C	0.851182	0.709075	0.063422
C46	C	0.850349	0.759495	0.063362
C47	C	0.993670	0.770774	0.074045
C48	C	0.994502	0.720354	0.074111
C49	C	0.923257	0.689505	0.068793
C50	C	1.003820	0.155658	0.074823
C51	C	1.004645	0.105236	0.074894
C52	C	0.861325	0.093961	0.064206
C53	C	0.860498	0.144379	0.064140
C54	C	0.931752	0.175227	0.069446
O55	O	0.798284	0.219349	0.059518
O56	O	1.063450	0.240256	0.079244
C57	C	0.998748	0.463210	0.074418
C58	C	0.926675	0.482778	0.069039
C59	C	0.855434	0.451929	0.063729
C60	C	0.925842	0.533198	0.068980
C61	C	0.997083	0.564047	0.074290
C62	C	1.069157	0.544477	0.079661
C63	C	1.069989	0.494059	0.079729
C64	C	0.783360	0.471499	0.058358
C65	C	0.782533	0.521917	0.058292
C66	C	0.853774	0.552766	0.063602
C67	C	1.071209	-0.064336	0.079821
C68	C	1.158434	-0.065429	0.086316
N69	N	0.917002	-0.074001	0.273094
C70	C	0.920685	0.844005	0.068589
C71	C	0.921589	0.790344	0.068673
N72	N	0.937990	-0.061264	-0.134873
C73	C	0.968525	-0.042649	0.322220
C74	C	0.963897	-0.045468	0.412447
C75	C	0.907749	-0.079641	0.453547
C76	C	0.856220	-0.110993	0.404415
C77	C	0.860846	-0.108172	0.314189
C78	C	0.891087	-0.089796	0.725769
C79	C	0.886467	-0.092616	0.816002
C80	C	0.994143	-0.027089	0.824027
C81	C	0.998766	-0.024273	0.733800
C82	C	0.947235	-0.055624	0.684675
C83	C	0.903018	-0.082524	0.545773
C84	C	0.951963	-0.052739	0.592450
H85	H	1.061842	0.180769	0.079141
H86	H	1.129670	0.418338	0.084186
O87	O	0.772603	0.780594	0.057576
H88	H	0.783982	0.820837	0.058434
O89	O	1.082393	0.084134	0.080683
H90	H	1.113596	0.094704	0.141647
H91	H	1.005850	-0.019939	0.452445
O92	O	0.774333	0.675804	0.057704
H93	H	0.724082	0.697888	0.053972
O94	O	0.835517	-0.123613	0.672790
H95	H	0.795706	-0.147853	0.716531
H96	H	0.810499	-0.138816	0.437883
O97	O	0.709008	0.286965	0.052800
H98	H	0.702953	0.261905	0.110994
H99	H	0.307439	-0.071823	0.239722
O100	O	0.805279	-0.141989	0.261197
H101	H	0.765464	-0.166229	0.304933
H102	H	0.158752	-0.069954	0.228642
H103	H	0.997676	-0.024913	0.558983
H104	H	0.322016	-0.062963	-0.043805
O105	O	0.537787	-0.062658	-0.122975
H106	H	0.493239	-0.094986	-0.130065
O107	O	0.842465	-0.119383	0.590110
H108	H	0.807410	-0.140712	0.540795
O109	O	0.409003	-0.063530	-0.054126
H110	H	0.419252	-0.095470	-0.090986
O111	O	0.163560	-0.060314	-0.076335
H112	H	0.208616	-0.059142	-0.127523
O113	O	0.708132	-0.064808	-0.110275
H114	H	0.668663	-0.062584	-0.167757
H115	H	0.436214	-0.070947	0.170871
H116	H	1.131179	0.326881	0.084309
O117	O	0.691413	-0.074957	0.214549
H118	H	0.735974	-0.042635	0.221636
H119	H	0.532972	-0.072288	0.182011
H120	H	1.053195	0.704426	0.078491
O121	O	1.059319	0.012589	0.689469
H122	H	1.094364	0.033920	0.738788
O123	O	0.782759	0.165489	0.058340
H124	H	0.733362	0.135565	0.054655
O125	O	1.070512	0.804052	0.079767
H126	H	1.057816	0.842398	0.078814
H127	H	1.128683	0.478133	0.084110
H128	H	0.726321	0.386582	0.054089
H129	H	0.803322	0.068834	0.059885
O130	O	1.145999	0.577754	0.085390
H131	H	1.133302	0.616100	0.084434
H132	H	0.723833	0.537843	0.053918
O133	O	0.706517	0.438228	0.052645
H134	H	0.656265	0.460311	0.048909
H135	H	1.014250	-0.014824	0.288762
H136	H	1.036096	-0.001564	0.864032
H137	H	0.840742	-0.120445	0.849460
