data_functionalizedCrystal
_audit_creation_method	'MofGen! by Chris Wilmer'
_symmetry_space_group_name_H-M	'P1'
_symmetry_Int_Tables_number	1
_symmetry_cell_setting	triclinic
loop_
_symmetry_equiv_pos_as_xyz
  x,y,z
_cell_length_a	10.540539
_cell_length_b	8.559649
_cell_length_c	7.681481
_cell_angle_alpha	94.925366
_cell_angle_beta	84.211457
_cell_angle_gamma	77.152078
loop_
_atom_site_label
_atom_site_type_symbol
_atom_site_fract_x
_atom_site_fract_y
_atom_site_fract_z
O1	O	-1.648878	-0.239883	-0.146339
O2	O	-1.277244	-0.261077	-0.146359
O3	O	-1.495802	-0.018251	-0.146345
O4	O	-1.430319	-0.482709	-0.146353
O5	O	-1.522724	0.011683	0.146514
O6	O	-1.304166	-0.231143	0.146500
O7	O	-1.675800	-0.209948	0.146521
Zn8	Zn	-1.494258	-0.215792	0.193008
Zn9	Zn	-1.458786	-0.255233	-0.192847
O10	O	-1.457242	-0.452774	0.146507
C11	C	-1.243568	-0.244521	0.000068
C12	C	-1.103117	-0.239767	0.000059
C13	C	-1.514225	0.056189	0.000081
C14	C	-1.528996	0.233400	0.000072
C15	C	-1.709475	-0.226505	0.000090
C16	C	-1.849925	-0.231260	0.000087
C17	C	-0.938829	-0.057495	0.000746
C18	C	-1.084880	-0.062384	0.000068
C19	C	-1.017134	-0.342224	-0.167173
C20	C	-0.871212	-0.336183	-0.167294
C21	C	-0.900962	-0.305750	0.165741
C22	C	-1.047974	-0.307160	0.167934
C23	C	-1.438818	-0.527215	0.000076
C24	C	-1.424047	-0.704427	0.000074
N25	N	-1.518475	-0.188874	0.456344
N26	N	-1.434580	-0.282138	-0.456183
H27	H	-1.145547	0.017037	0.119947
C28	C	-1.665659	0.344631	0.000091
H29	H	-1.729518	0.281863	0.000100
H30	H	-1.666502	0.399892	-0.102026
H31	H	-1.685275	0.420747	0.102240
H32	H	-1.322894	0.213231	0.000074
H33	H	-1.348935	-0.377339	0.468606
C34	C	-0.925012	0.053736	0.162757
H35	H	-0.864894	-0.004791	0.231446
H36	H	-1.008040	0.092023	0.231611
H37	H	-0.893545	0.142593	0.125157
C38	C	-0.893082	0.020316	-0.160352
H39	H	-0.820040	-0.052636	-0.228015
H40	H	-0.868408	0.116545	-0.121888
H41	H	-0.962574	0.045016	-0.230563
C42	C	-1.634170	-0.060278	0.557927
H43	H	-1.631534	-0.063208	0.680888
H44	H	-1.714363	-0.081620	0.527784
H45	H	-1.627974	0.043347	0.527807
H46	H	-0.838115	-0.285869	-0.292300
C47	C	-1.135933	0.012390	-0.162164
H48	H	-1.067386	0.045861	-0.227921
H49	H	-1.206892	0.102871	-0.124881
H50	H	-1.164996	-0.065456	-0.233806
H51	H	-0.809189	-0.464529	-0.174887
H52	H	-1.025277	-0.473125	-0.173397
C53	C	-0.882223	-0.210700	0.336991
H54	H	-0.913645	-0.257620	0.435345
H55	H	-0.929734	-0.101869	0.342128
H56	H	-0.791716	-0.213988	0.339153
H57	H	-1.106838	-0.232153	0.291651
C58	C	-1.067584	-0.279315	-0.335311
H59	H	-1.014919	-0.342099	-0.435811
H60	H	-1.063020	-0.169838	-0.336814
H61	H	-1.155939	-0.287224	-0.337048
C62	C	-1.063658	-0.480470	0.181579
H63	H	-1.104212	-0.514152	0.084632
H64	H	-1.116601	-0.483577	0.288313
H65	H	-0.979822	-0.550617	0.180169
H66	H	-0.840425	-0.433756	0.166869
