data_functionalizedCrystal
_audit_creation_method	'MofGen! by Chris Wilmer'
_symmetry_space_group_name_H-M	'P1'
_symmetry_Int_Tables_number	1
_symmetry_cell_setting	triclinic
loop_
_symmetry_equiv_pos_as_xyz
  x,y,z
_cell_length_a	6.817900
_cell_length_b	10.992723
_cell_length_c	10.943624
_cell_angle_alpha	91.800721
_cell_angle_beta	108.838799
_cell_angle_gamma	108.770285
loop_
_atom_site_label
_atom_site_type_symbol
_atom_site_fract_x
_atom_site_fract_y
_atom_site_fract_z
V1	V	-4.115144	-0.177729	-0.402540
O2	O	-4.073221	0.008575	-0.394889
O3	O	-4.092750	-0.352440	-0.399776
O4	O	-4.093112	-0.174980	-0.578106
O5	O	-4.072856	-0.170113	-0.215323
V6	V	-4.591986	-0.155447	-0.380149
O7	O	-4.391059	-0.226607	-0.451657
O8	O	-4.766268	-0.106568	-0.331032
O9	O	-4.391174	0.019264	-0.382913
O10	O	-4.751306	-0.341751	-0.387800
O11	O	-4.751671	-0.163062	-0.567365
O12	O	-4.390811	-0.158196	-0.204582
C13	C	-3.943224	-0.395031	-0.393422
C14	C	-4.006376	-0.537860	-0.392333
C15	C	-4.318320	-0.748800	-0.398073
C16	C	-4.253046	-0.600320	-0.399705
C17	C	-3.983706	-0.607062	-0.511915
C18	C	-4.050868	-0.755735	-0.510929
C19	C	-3.918962	-0.717482	-0.264109
C20	C	-3.856607	-0.568760	-0.263757
C21	C	-3.943685	-0.168662	-0.620900
C22	C	-4.007127	-0.167570	-0.764426
C23	C	-3.851971	-0.160219	-0.841574
C24	C	-4.041114	-0.269331	-0.947557
C25	C	-3.931053	-0.056526	-0.914184
C26	C	-4.195480	-0.276784	-0.868533
C27	C	-4.085339	-0.063882	-0.835136
C28	C	-4.274618	-0.173025	-0.941089
C29	C	-4.204042	0.061849	-0.389262
C30	C	-4.120130	0.204676	-0.390361
C31	C	-4.203580	-0.164518	-0.161782
C32	C	-4.119376	-0.165603	-0.018254
H33	H	-4.375685	-0.773974	-0.312091
C34	C	-4.129457	-0.579798	-0.640454
H35	H	-4.114602	-0.622087	-0.712257
H36	H	-4.279720	-0.611672	-0.646185
H37	H	-4.083938	-0.488807	-0.642224
C38	C	-4.109560	0.053449	-0.768938
H39	H	-4.214152	0.023546	-0.726650
H40	H	-3.970458	0.105440	-0.706339
H41	H	-4.159034	0.103746	-0.832991
C42	C	-4.242247	-0.825743	-0.639350
H43	H	-4.284893	-0.917042	-0.639884
H44	H	-4.364672	-0.799408	-0.646252
H45	H	-4.195223	-0.803981	-0.711146
C46	C	-3.609910	-0.153103	-0.782861
H47	H	-3.594080	-0.226221	-0.821725
H48	H	-3.515765	-0.075630	-0.799334
H49	H	-3.570569	-0.153096	-0.691294
C50	C	-3.780875	0.069238	-0.942166
H51	H	-3.631344	0.073631	-0.907925
H52	H	-3.823421	0.069435	-1.033795
H53	H	-3.795176	0.142241	-0.902008
H54	H	-3.806827	-0.566624	-0.511064
C55	C	-3.972006	-0.751864	-0.140259
H56	H	-3.848480	-0.703848	-0.065195
H57	H	-4.097152	-0.730742	-0.141490
H58	H	-4.003090	-0.842224	-0.137680
H59	H	-3.874258	-0.522173	-0.175215
C60	C	-3.609865	-0.509250	-0.246359
H61	H	-3.594893	-0.464588	-0.317604
H62	H	-3.532687	-0.450016	-0.167107
H63	H	-3.549799	-0.576449	-0.243664
H64	H	-3.770178	-0.746676	-0.257272
C65	C	-3.855787	-0.797660	-0.510456
H66	H	-3.735885	-0.723839	-0.510877
H67	H	-3.810292	-0.835635	-0.434358
H68	H	-3.900838	-0.859358	-0.585870
H69	H	-4.023081	-0.356187	-0.996501
H70	H	-4.306679	-0.369974	-0.847982
H71	H	-4.370493	-0.581667	-0.491974
H72	H	-4.467333	-0.802929	-0.489157
C73	C	-4.516834	-0.180373	-0.999525
H74	H	-4.610890	-0.258636	-0.984246
H75	H	-4.533312	-0.108125	-0.959523
H76	H	-4.555743	-0.178923	-1.090876
H77	H	-4.277765	-0.553177	-0.314234
