data_functionalizedCrystal
_audit_creation_method	'MofGen! by Chris Wilmer'
_symmetry_space_group_name_H-M	'P1'
_symmetry_Int_Tables_number	1
_symmetry_cell_setting	triclinic
loop_
_symmetry_equiv_pos_as_xyz
  x,y,z
_cell_length_a	23.196402
_cell_length_b	23.196402
_cell_length_c	18.878441
_cell_angle_alpha	60.000405
_cell_angle_beta	89.997591
_cell_angle_gamma	59.998254
loop_
_atom_site_label
_atom_site_type_symbol
_atom_site_fract_x
_atom_site_fract_y
_atom_site_fract_z
Zr1	Zr	0.555349	0.631030	-0.092966
O2	O	0.463298	0.751299	-0.206065
O3	O	0.583570	0.510760	-0.058297
O4	O	0.583569	0.631031	-0.206073
O5	O	0.463298	0.631026	0.058282
O6	O	0.678438	0.631033	-0.206077
O7	O	0.463299	0.631028	-0.058289
O8	O	0.678441	0.415890	0.058267
O9	O	0.463296	0.846170	-0.206063
O10	O	0.666404	0.560230	-0.043512
O11	O	0.595603	0.560228	0.043487
O12	O	0.595601	0.701832	-0.130501
O13	O	0.524800	0.701829	-0.043502
Zr14	Zr	0.706655	0.631030	0.092944
Zr15	Zr	0.706656	0.631032	-0.092972
Zr16	Zr	0.555348	0.631027	0.092951
Zr17	Zr	0.555346	0.782337	-0.092962
Zr18	Zr	0.706658	0.479722	0.092940
O19	O	0.678434	0.751299	0.058276
O20	O	0.678436	0.751302	-0.206074
O21	O	0.463296	0.751296	0.058285
O22	O	0.798707	0.510760	0.206043
O23	O	0.798709	0.510763	-0.058306
O24	O	0.583568	0.510757	0.206053
O25	O	0.798706	0.631033	-0.058303
O26	O	0.678436	0.631028	0.206052
O27	O	0.583566	0.631027	0.206056
O28	O	0.798705	0.631032	0.058267
O29	O	0.583564	0.846171	-0.206068
O30	O	0.678440	0.415888	0.206046
O31	O	0.798709	0.415890	0.206041
O32	O	0.798710	0.415891	0.058262
O33	O	0.463295	0.846168	-0.058283
O34	O	0.583563	0.846170	-0.058289
O35	O	0.666403	0.560228	0.130479
O36	O	0.737204	0.560230	0.043481
O37	O	0.666401	0.701832	-0.043508
O38	O	0.595600	0.701829	0.043490
C39	C	0.631006	0.441767	-0.000016
C40	C	0.631007	0.377533	-0.000017
C41	C	0.667961	-0.085309	-0.045408
C42	C	0.667959	-0.024950	-0.045416
C43	C	0.631003	0.005230	-0.000003
C44	C	0.594031	-0.024938	0.045402
C45	C	0.594028	-0.085290	0.045402
C46	C	0.636283	0.067257	0.076061
C47	C	0.636291	0.127604	0.076064
C48	C	0.631008	0.191379	-0.000003
C49	C	0.625731	0.194791	-0.076072
C50	C	0.625729	0.134439	-0.076072
C51	C	0.631002	0.070672	0.000002
C52	C	0.667972	0.286991	-0.045419
C53	C	0.667965	0.347355	-0.045429
C54	C	0.594041	0.347361	0.045397
C55	C	0.594043	0.287004	0.045399
C56	C	0.631013	0.256820	-0.000007
C57	C	0.441741	0.631027	-0.000003
C58	C	0.377507	0.631026	0.000000
C59	C	0.384290	0.557113	0.045399
C60	C	0.323936	0.557112	0.045403
C61	C	0.256799	0.631028	-0.000010
C62	C	0.250018	0.704950	-0.045411
C63	C	0.310372	0.704949	-0.045406
C64	C	0.132869	0.687658	-0.076080
C65	C	0.072518	0.687656	-0.076087
C66	C	0.070645	0.631034	-0.000023
C67	C	0.129138	0.574401	0.076047
C68	C	0.189492	0.574400	0.076052
C69	C	0.191351	0.631037	-0.000019
C70	C	0.011987	0.557115	0.045384
C71	C	-0.048369	0.557117	0.045390
C72	C	-0.122287	0.704957	-0.045432
C73	C	-0.061930	0.704953	-0.045429
C74	C	0.005205	0.631030	-0.000024
C75	C	0.820264	0.631033	-0.000019
C76	C	0.884497	0.631034	-0.000022
C77	C	0.631004	0.631032	-0.232564
C78	C	0.631004	0.631033	-0.311491
C79	C	0.630998	0.820293	-0.000006
C80	C	0.630997	0.884527	-0.000004
C81	C	0.683269	0.631035	-0.348573
C82	C	0.683271	0.631029	-0.422729
C83	C	0.631005	0.631026	-0.459804
C84	C	0.578738	0.631022	-0.422716
C85	C	0.578739	0.631022	-0.348558
C86	C	0.578738	0.631023	-0.577285
C87	C	0.578736	0.631024	-0.651449
C88	C	0.683270	0.631029	-0.651456
C89	C	0.683271	0.631030	-0.577298
C90	C	0.631003	0.631027	-0.540215
C91	C	0.631001	0.631027	0.232543
C92	C	0.631000	0.631026	0.311469
C93	C	0.820268	0.441770	-0.000024
C94	C	0.884502	0.377537	-0.000028
C95	C	0.631005	0.441764	0.232538
C96	C	0.631005	0.377529	0.311463
C97	C	0.820266	0.441767	0.232530
C98	C	0.884500	0.377533	0.311452
C99	C	0.441738	0.820292	-0.232552
C100	C	0.377504	0.884526	-0.311474
C101	C	0.441737	0.820290	0.000002
C102	C	0.377502	0.884523	0.000007
C103	C	0.631000	0.820295	-0.232560
C104	C	0.630999	0.884530	-0.311485
C105	C	0.877711	0.347372	-0.045447
C106	C	0.938061	0.287027	-0.045469
C107	C	1.005201	0.256843	-0.000066
C108	C	1.011991	0.287013	0.045355
C109	C	0.951642	0.347362	0.045371
C110	C	0.667963	0.347364	0.393944
C111	C	0.667961	0.287017	0.468109
C112	C	0.631005	0.256832	0.459792
C113	C	0.594044	0.287003	0.377302
C114	C	0.594042	0.347353	0.303139
C115	C	0.951629	0.347369	0.303102
C116	C	1.011990	0.287023	0.377251
C117	C	1.005221	0.256837	0.459749
C118	C	0.938085	0.287007	0.468096
C119	C	0.877725	0.347357	0.393949
C120	C	0.310375	0.914698	-0.303124
C121	C	0.250014	0.975063	-0.377273
C122	C	0.256784	1.005251	-0.459770
C123	C	0.323920	0.975077	-0.468118
C124	C	0.384279	0.914718	-0.393970
C125	C	0.384293	0.914694	0.045418
C126	C	0.323944	0.975056	0.045419
C127	C	0.256803	1.005242	0.000013
C128	C	0.250013	0.975068	-0.045404
C129	C	0.310362	0.914711	-0.045409
C130	C	0.667962	0.914696	-0.303139
C131	C	0.667975	0.975044	-0.377291
C132	C	0.631020	1.005228	-0.459786
C133	C	0.594057	0.975057	-0.468130
C134	C	0.594048	0.914706	-0.393979
H135	H	0.698061	-0.000386	-0.082390
H136	H	1.054336	0.207702	-0.000085
H137	H	0.823068	0.371908	0.400759
Br138	Br	1.103116	0.246038	0.106972
Br139	Br	1.103094	0.246089	0.365901
Br140	Br	0.754201	0.631048	-0.298269
Br141	Br	0.333175	1.015990	0.107063
H142	H	0.640594	0.124815	0.138006
Br143	Br	0.928829	0.246092	-0.107113
Br144	Br	0.543870	0.016026	0.107027
H145	H	0.207630	1.054400	-0.520139
Br146	Br	0.960872	0.388288	0.107022
Br147	Br	0.960836	0.388326	0.191151
Br148	Br	0.301132	0.873769	-0.107041
H149	H	0.631033	1.054370	-0.520157
Br150	Br	0.754197	0.631044	-0.526985
H151	H	0.563949	0.371906	0.235982
Br152	Br	1.087145	0.174934	0.560371
H153	H	0.536184	0.631015	-0.452904
H154	H	0.563970	0.999643	-0.535307
Br155	Br	0.928909	0.246033	0.580064
Br156	Br	0.301168	0.873738	-0.191173
H157	H	0.329423	0.999665	-0.535296
H158	H	0.329459	0.496922	0.082372
H159	H	0.563946	0.890152	-0.400786
Br160	Br	0.543893	0.246029	0.366029
H161	H	0.725828	0.631032	-0.681652
Br162	Br	0.158911	1.015998	-0.365923
Br163	Br	0.475380	0.873774	-0.405318
Br164	Br	0.718126	0.388311	0.405256
Br165	Br	0.475405	0.873743	0.107044
H166	H	0.698062	0.262458	0.535268
Br167	Br	0.631015	0.174927	0.560453
H168	H	0.207669	1.054388	0.000025
Br169	Br	0.507801	0.631020	-0.701760
H170	H	0.698054	0.890129	-0.235974
Br171	Br	0.718116	-0.126253	-0.107051
Br172	Br	0.618562	0.139072	-0.179305
Br173	Br	0.618573	0.281330	-0.179310
H174	H	0.698072	0.262417	-0.082395
H175	H	0.698074	0.999603	-0.370480
Br176	Br	0.718126	0.388303	-0.107065
H177	H	0.725829	0.631030	-0.452920
H178	H	0.536177	0.631017	-0.547092
H179	H	0.127624	0.528281	0.137980
H180	H	0.823047	0.371947	-0.082430
Br181	Br	0.158888	1.016042	-0.107019
H182	H	0.563947	0.371937	0.082368
H183	H	0.563947	0.262441	0.082376
Br184	Br	-0.213396	0.805273	-0.107054
Br185	Br	0.543858	-0.126229	0.107025
Br186	Br	0.643447	-0.019288	0.179302
H187	H	-0.067457	0.765141	-0.082404
H188	H	0.237114	0.528290	0.137992
Br189	Br	0.103101	0.456794	0.107007
Br190	Br	-0.039161	0.456798	0.107022
Br191	Br	-0.006862	0.764519	-0.179321
Br192	Br	0.475399	0.456790	0.107025
H193	H	0.536181	0.631019	-0.318365
H194	H	0.134379	0.733778	-0.138021
H195	H	0.195351	0.765132	-0.082385
H196	H	0.304844	0.765139	-0.082373
