data_functionalizedCrystal
_audit_creation_method	'MofGen! by Chris Wilmer'
_symmetry_space_group_name_H-M	'P1'
_symmetry_Int_Tables_number	1
_symmetry_cell_setting	triclinic
loop_
_symmetry_equiv_pos_as_xyz
  x,y,z
_cell_length_a	15.944551
_cell_length_b	15.944551
_cell_length_c	15.021413
_cell_angle_alpha	90.002826
_cell_angle_beta	90.003065
_cell_angle_gamma	96.501262
loop_
_atom_site_label
_atom_site_type_symbol
_atom_site_fract_x
_atom_site_fract_y
_atom_site_fract_z
O1	O	0.108321	-1.114529	-0.073941
O2	O	0.608321	-0.614529	0.426059
O3	O	0.121677	-0.869979	-0.073964
O4	O	0.621677	-0.369979	0.426036
O5	O	-0.007276	-0.998932	-0.073944
O6	O	0.492724	-0.498932	0.426056
O7	O	0.237274	-0.985576	-0.073961
O8	O	0.737274	-0.485576	0.426039
O9	O	-0.007257	-0.998912	0.074121
O10	O	0.492743	-0.498912	0.574121
O11	O	0.121695	-0.869959	0.074101
O12	O	0.621695	-0.369959	0.574101
O13	O	0.108339	-1.114508	0.074123
O14	O	0.608339	-0.614508	0.574123
Zn15	Zn	0.115020	-0.992230	0.097620
Zn16	Zn	0.615020	-0.492230	0.597620
Zn17	Zn	0.114996	-0.992257	-0.097461
Zn18	Zn	0.614996	-0.492257	0.402539
O19	O	0.237292	-0.985555	0.074103
O20	O	0.737292	-0.485555	0.574103
C21	C	0.121132	-0.838675	0.000066
C22	C	0.621132	-0.338675	0.500066
C23	C	0.119470	-0.745429	0.000057
C24	C	0.619470	-0.245429	0.500057
C25	C	-0.038561	-0.998367	0.000089
C26	C	0.461439	-0.498367	0.500089
C27	C	-0.131807	-0.996705	0.000089
C28	C	0.368193	-0.496705	0.500089
N29	N	0.115036	-0.992218	0.230758
N30	N	0.615036	-0.492218	0.730758
C31	C	-0.346663	-0.912801	0.000069
C32	C	0.153337	-0.412801	0.500069
C33	C	-0.407672	-0.951753	0.073077
C34	C	0.092328	-0.451753	0.573077
C35	C	-0.302533	-0.993698	0.000082
C36	C	0.197467	-0.493698	0.500082
C37	C	-0.407673	-0.951792	-0.072903
C38	C	0.092327	-0.451792	0.427097
C39	C	-0.467445	-0.990787	0.000071
C40	C	0.032555	-0.490787	0.500071
C41	C	-0.362313	-1.032672	0.073150
C42	C	0.137687	-0.532672	0.573150
C43	C	-0.362308	-1.032700	-0.072895
C44	C	0.137692	-0.532700	0.427105
C45	C	-0.423298	-1.071711	0.000131
C46	C	0.076702	-0.571711	0.500131
C47	C	-0.207530	-0.995372	0.000089
C48	C	0.292470	-0.495372	0.500089
C49	C	-0.562446	-0.989119	0.000070
C50	C	-0.062446	-0.489119	0.500070
C51	C	0.268577	-0.986120	0.000069
C52	C	0.768577	-0.486120	0.500069
C53	C	0.361823	-0.987782	0.000063
C54	C	0.861823	-0.487782	0.500063
C55	C	0.108885	-1.145813	0.000092
C56	C	0.608885	-0.645813	0.500092
C57	C	0.110547	-1.239059	0.000094
C58	C	0.610547	-0.739059	0.500094
C59	C	0.035565	-0.530572	0.000081
C60	C	0.535565	-0.030572	0.500081
C61	C	0.074518	-0.469562	-0.072926
C62	C	0.574518	0.030438	0.427074
C63	C	0.116462	-0.574703	0.000068
C64	C	0.616462	-0.074703	0.500068
C65	C	0.074556	-0.469564	0.073054
C66	C	0.574556	0.030436	0.573054
C67	C	0.113551	-0.409790	0.000083
C68	C	0.613551	0.090210	0.500083
C69	C	0.155438	-0.514921	-0.072998
C70	C	0.655438	-0.014921	0.427002
C71	C	0.155464	-0.514930	0.073047
C72	C	0.655464	-0.014930	0.573047
C73	C	0.194476	-0.453937	0.000023
C74	C	0.694476	0.046063	0.500023
C75	C	0.118137	-0.669705	0.000059
C76	C	0.618137	-0.169705	0.500059
C77	C	0.111883	-0.314789	0.000085
C78	C	0.611883	0.185211	0.500085
N79	N	0.114973	-0.992276	-0.230598
N80	N	0.614973	-0.492276	0.269402
C81	C	0.174636	-0.932581	0.470432
C82	C	0.674636	-0.432581	0.970432
C83	C	0.190943	-1.008481	0.529772
C84	C	0.690943	-0.508481	1.029772
C85	C	0.115015	-0.992239	0.412365
C86	C	0.615015	-0.492239	0.912365
C87	C	0.098727	-0.916360	0.529766
C88	C	0.598727	-0.416360	1.029766
C89	C	0.114997	-0.992253	0.587789
C90	C	0.614997	-0.492253	1.087789
C91	C	0.131360	-1.068178	0.470398
C92	C	0.631360	-0.568178	0.970398
C93	C	0.039111	-0.976006	0.470387
C94	C	0.539111	-0.476006	0.970387
C95	C	0.055386	-1.051962	0.529701
C96	C	0.555386	-0.551962	1.029701
C97	C	0.115028	-0.992230	0.311307
C98	C	0.615028	-0.492230	0.811307
C99	C	0.114984	-0.992271	0.688844
C100	C	0.614984	-0.492271	1.188844
H101	H	-0.313356	-0.845652	0.000136
H102	H	0.186644	-0.345652	0.500136
H103	H	0.040295	-0.449461	-0.134642
H104	H	0.540295	0.050539	0.365358
H105	H	0.040332	-0.449470	0.134773
H106	H	0.540332	0.050530	0.634773
H107	H	0.189621	-0.534918	-0.134787
H108	H	0.689621	-0.034918	0.365213
C109	C	-0.490341	-0.960736	0.207047
C110	C	0.009659	-0.460736	0.707047
C111	C	-0.434816	-0.905556	0.156391
C112	C	0.065184	-0.405556	0.656391
H113	H	-0.507091	-0.932212	0.258481
H114	H	-0.007091	-0.432212	0.758481
H115	H	-0.538708	-0.979476	0.172432
H116	H	-0.038708	-0.479476	0.672432
H117	H	-0.462871	-1.007938	0.224596
H118	H	0.037129	-0.507938	0.724596
H119	H	-0.462288	-0.858357	0.138836
H120	H	0.037712	-0.358357	0.638836
H121	H	-0.386440	-0.886803	0.191012
H122	H	0.113560	-0.386803	0.691012
H123	H	0.261683	-0.420779	-0.000023
H124	H	0.761683	0.079221	0.499977
H125	H	0.255126	-1.022224	0.555856
H126	H	0.755126	-0.522224	1.055856
C127	C	-0.247638	-1.079909	0.155839
C128	C	0.252362	-0.579909	0.655839
C129	C	-0.335323	-1.078809	0.156570
C130	C	0.164677	-0.578809	0.656570
H131	H	-0.230976	-1.108385	0.207342
H132	H	0.269024	-0.608385	0.707342
H133	H	-0.231756	-1.108460	0.104071
H134	H	0.268244	-0.608460	0.604071
H135	H	-0.220716	-1.023625	0.155623
H136	H	0.279284	-0.523625	0.655623
H137	H	-0.362245	-1.135093	0.156780
H138	H	0.137755	-0.635093	0.656780
H139	H	-0.351214	-1.050259	0.208352
H140	H	0.148786	-0.550259	0.708352
C141	C	0.272091	-0.581217	0.130510
C142	C	0.772091	-0.081217	0.630510
C143	C	0.201628	-0.542105	0.156363
C144	C	0.701628	-0.042105	0.656363
H145	H	0.300587	-0.597990	0.181952
H146	H	0.800587	-0.097990	0.681952
H147	H	0.254258	-0.629453	0.095323
H148	H	0.754258	-0.129453	0.595323
H149	H	0.309221	-0.542725	0.096732
H150	H	0.809221	-0.042725	0.596732
H151	H	0.164494	-0.580599	0.190135
H152	H	0.664494	-0.080599	0.690135
H153	H	0.219459	-0.493863	0.191565
H154	H	0.719459	0.006137	0.691565
C155	C	0.322177	-0.881766	0.465266
C156	C	0.822177	-0.381766	0.965266
C157	C	0.242751	-0.864546	0.435286
C158	C	0.742751	-0.364546	0.935286
H159	H	0.364227	-0.839770	0.443561
H160	H	0.864227	-0.339770	0.943561
H161	H	0.322971	-0.881634	0.528491
H162	H	0.822971	-0.381634	1.028491
H163	H	0.333202	-0.935568	0.444062
H164	H	0.833202	-0.435568	0.944062
H165	H	0.231723	-0.810746	0.456496
H166	H	0.731723	-0.310746	0.956496
H167	H	0.241954	-0.864670	0.372048
H168	H	0.741954	-0.364670	0.872048
C169	C	-0.012614	-1.119145	0.657831
C170	C	0.487386	-0.619145	1.157831
C171	C	-0.012696	-1.120143	0.564621
C172	C	0.487304	-0.620143	1.064621
H173	H	-0.054647	-1.161235	0.679389
H174	H	0.445353	-0.661235	1.179389
H175	H	0.041153	-1.130231	0.679059
H176	H	0.541153	-0.630231	1.179059
H177	H	-0.024307	-1.065294	0.678259
H178	H	0.475693	-0.565294	1.178259
H179	H	-0.000997	-1.173992	0.544193
H180	H	0.499003	-0.673992	1.044193
H181	H	-0.066475	-1.109062	0.543385
H182	H	0.433525	-0.609062	1.043385
H183	H	0.145206	-1.132368	0.444430
H184	H	0.645206	-0.632368	0.944430
H185	H	-0.025051	-0.962240	0.444283
H186	H	0.474949	-0.462240	0.944283
H187	H	-0.031573	-0.563905	-0.000005
H188	H	0.468427	-0.063905	0.499995
H189	H	-0.456457	-1.138919	0.000178
H190	H	0.043543	-0.638919	0.500178
H191	H	0.084959	-0.852184	0.555847
H192	H	0.584959	-0.352184	1.055847
H193	H	-0.342185	-1.066896	-0.134615
H194	H	0.157815	-0.566896	0.365385
H195	H	-0.427758	-0.917574	-0.134630
H196	H	0.072242	-0.417574	0.365370
