data_functionalizedCrystal
_audit_creation_method	'MofGen! by Chris Wilmer'
_symmetry_space_group_name_H-M	'P1'
_symmetry_Int_Tables_number	1
_symmetry_cell_setting	triclinic
loop_
_symmetry_equiv_pos_as_xyz
  x,y,z
_cell_length_a	10.723024
_cell_length_b	10.654550
_cell_length_c	9.130313
_cell_angle_alpha	90.004369
_cell_angle_beta	90.003216
_cell_angle_gamma	84.476400
loop_
_atom_site_label
_atom_site_type_symbol
_atom_site_fract_x
_atom_site_fract_y
_atom_site_fract_z
O1	O	-1.657213	-0.176149	-0.121789
O2	O	-1.294063	-0.193010	-0.121794
O3	O	-1.483988	-0.001839	-0.121783
O4	O	-1.467289	-0.367320	-0.121801
O5	O	-1.483974	-0.001834	0.121816
O6	O	-1.294050	-0.193004	0.121804
O7	O	-1.657200	-0.176144	0.121809
Cu8	Cu	-1.475624	-0.184574	0.144049
Cu9	Cu	-1.475639	-0.184580	-0.144034
O10	O	-1.467275	-0.367315	0.121798
C11	C	-1.247557	-0.191780	0.000004
C12	C	-1.109002	-0.188109	0.000003
C13	C	-1.482755	0.044961	0.000016
C14	C	-1.479086	0.184404	0.000014
C15	C	-1.703706	-0.177373	0.000007
C16	C	-1.842261	-0.181045	-0.000001
C17	C	-1.034035	-0.295078	-0.000004
C18	C	-0.890831	-0.291287	-0.000005
C19	C	-1.468508	-0.414115	-0.000004
C20	C	-1.472176	-0.553558	-0.000012
N21	N	-1.475622	-0.184568	0.346672
C22	C	-1.590911	0.263907	0.000015
C23	C	-1.587457	0.394927	-0.000003
C24	C	-1.360343	0.366929	-0.000017
C25	C	-1.363799	0.235912	-0.000010
N26	N	-1.475651	-0.184576	-0.346657
C27	C	-1.559749	-0.099954	0.423329
C28	C	-1.559761	-0.099954	0.576666
C29	C	-1.391515	-0.269194	0.576675
C30	C	-1.391498	-0.269187	0.423341
H31	H	-1.075871	-0.389466	-0.000000
H32	H	-1.322985	-0.338091	0.360923
O33	O	-1.248436	0.417117	-0.000221
C34	C	-1.239638	0.492031	-0.126403
H35	H	-1.337715	0.523808	-0.168463
H36	H	-1.189149	0.578242	-0.098031
H37	H	-1.184936	0.434625	-0.214747
O38	O	-0.813811	-0.400422	0.000050
C39	C	-0.687977	-0.372341	0.000008
H40	H	-0.682250	-0.273631	0.046132
H41	H	-0.629543	-0.443951	0.070723
H42	H	-0.650384	-0.376733	-0.116862
O43	O	-1.702866	0.213812	0.000280
C44	C	-1.711648	0.138851	0.126427
H45	H	-1.646165	0.170396	0.214608
H46	H	-1.812120	0.149754	0.168772
H47	H	-1.683765	0.035791	0.097909
O48	O	-1.641538	-0.017934	0.651291
C49	C	-1.719126	-0.085910	0.739936
H50	H	-1.670268	-0.183728	0.762906
H51	H	-1.738429	-0.033670	0.847762
H52	H	-1.811417	-0.095297	0.680822
H53	H	-0.906673	-0.089466	-0.000004
O54	O	-1.309633	-0.351266	0.651093
C55	C	-1.185928	-0.329724	0.613632
H56	H	-1.184454	-0.229162	0.571494
H57	H	-1.123440	-0.343592	0.714484
H58	H	-1.149859	-0.398996	0.524628
O59	O	-1.059252	-0.075423	-0.000189
C60	C	-1.099406	-0.006714	-0.126368
H61	H	-1.190039	-0.041593	-0.168430
H62	H	-1.116428	0.097729	-0.097991
H63	H	-1.024224	-0.020716	-0.214711
H64	H	-1.628246	-0.031050	0.360909
O65	O	-1.696200	0.471975	0.000067
C66	C	-1.798689	0.398411	0.000050
H67	H	-1.767855	0.300920	0.046175
H68	H	-1.877103	0.446064	0.070776
H69	H	-1.833985	0.388765	-0.116813
H70	H	-1.272732	0.171177	-0.000015
