data_functionalizedCrystal
_audit_creation_method	'MofGen! by Chris Wilmer'
_symmetry_space_group_name_H-M	'P1'
_symmetry_Int_Tables_number	1
_symmetry_cell_setting	triclinic
loop_
_symmetry_equiv_pos_as_xyz
  x,y,z
_cell_length_a	11.169417
_cell_length_b	11.169416
_cell_length_c	11.169409
_cell_angle_alpha	90.030816
_cell_angle_beta	90.020564
_cell_angle_gamma	90.011219
loop_
_atom_site_label
_atom_site_type_symbol
_atom_site_fract_x
_atom_site_fract_y
_atom_site_fract_z
Zn1	Zn	-1.834971	0.477682	-0.678555
Zn2	Zn	-1.334971	0.977682	-0.178555
Zn3	Zn	-1.834858	0.678423	-0.477877
Zn4	Zn	-1.334858	1.178423	0.022123
Zn5	Zn	-1.634254	0.477755	-0.477889
Zn6	Zn	-1.134254	0.977755	0.022111
Zn7	Zn	-1.634264	0.678325	-0.678522
Zn8	Zn	-1.134264	1.178325	-0.178522
O9	O	-1.734587	0.578047	-0.578211
O10	O	-1.234587	1.078047	-0.078211
O11	O	-2.002906	0.504321	-0.651943
O12	O	-1.502906	1.004321	-0.151943
O13	O	-1.808196	0.651875	-0.309929
O14	O	-1.308196	1.151875	0.190071
O15	O	-1.660923	0.309796	-0.504527
O16	O	-1.160923	0.809796	-0.004527
O17	O	-2.002823	0.651804	-0.504506
O18	O	-1.502823	1.151804	-0.004506
O19	O	-1.808389	0.309742	-0.651955
O20	O	-1.308389	0.809742	-0.151955
O21	O	-1.660813	0.504446	-0.309938
O22	O	-1.160813	1.004446	0.190062
O23	O	-1.466306	0.504351	-0.504495
O24	O	-0.966306	1.004351	-0.004495
O25	O	-1.660940	0.651638	-0.846476
O26	O	-1.160940	1.151638	-0.346476
O27	O	-1.466313	0.651709	-0.651899
O28	O	-0.966313	1.151709	-0.151899
O29	O	-1.808399	0.504227	-0.846500
O30	O	-1.308399	1.004227	-0.346500
O31	O	-1.808206	0.846360	-0.504474
O32	O	-1.308206	1.346360	-0.004474
O33	O	-1.660830	0.846288	-0.651887
O34	O	-1.160830	1.346288	-0.151887
C35	C	-1.422762	0.578028	-0.578195
C36	C	-0.922762	1.078028	-0.078195
C37	C	-1.289362	0.578049	-0.578217
C38	C	-0.789362	1.078049	-0.078217
C39	C	-1.734539	0.889871	-0.578202
C40	C	-1.234539	1.389871	-0.078202
C41	C	-1.734629	1.023271	-0.578238
C42	C	-1.234629	1.523271	-0.078238
C43	C	-1.734683	0.577914	-0.891253
C44	C	-1.234683	1.077914	-0.391253
C45	C	-1.734724	0.577857	-1.024653
C46	C	-1.234724	1.077857	-0.524653
C47	C	-2.047629	0.578066	-0.578227
C48	C	-1.547629	1.078066	-0.078227
C49	C	-2.181029	0.578074	-0.578234
C50	C	-1.681029	1.078074	-0.078234
C51	C	-1.734667	0.265004	-0.578246
C52	C	-1.234667	0.765004	-0.078246
C53	C	-1.734702	0.131604	-0.578261
C54	C	-1.234702	0.631604	-0.078261
C55	C	-1.734560	0.578092	-0.266386
C56	C	-1.234560	1.078092	0.233614
C57	C	-1.734752	0.577811	-0.132987
C58	C	-1.234752	1.077811	0.367013
