data_functionalizedCrystal
_audit_creation_method	'MofGen! by Chris Wilmer'
_symmetry_space_group_name_H-M	'P1'
_symmetry_Int_Tables_number	1
_symmetry_cell_setting	triclinic
loop_
_symmetry_equiv_pos_as_xyz
  x,y,z
_cell_length_a	16.176319
_cell_length_b	19.288864
_cell_length_c	19.288857
_cell_angle_alpha	83.134677
_cell_angle_beta	90.004272
_cell_angle_gamma	89.982449
loop_
_atom_site_label
_atom_site_type_symbol
_atom_site_fract_x
_atom_site_fract_y
_atom_site_fract_z
O1	O	0.069016	-0.921346	-0.086637
O2	O	0.068959	-0.719085	-0.098325
O3	O	0.068979	-0.826063	0.008650
O4	O	0.068996	-0.814369	-0.193612
O5	O	-0.068514	-0.826053	0.008630
O6	O	-0.068534	-0.719075	-0.098345
O7	O	-0.068478	-0.921336	-0.086656
Cu8	Cu	-0.081060	-0.820205	-0.092502
Cu9	Cu	0.081542	-0.820217	-0.092479
O10	O	-0.068497	-0.814359	-0.193631
C11	C	0.000206	-0.693204	-0.097959
C12	C	0.000184	-0.616100	-0.096830
N13	N	-0.195425	-0.820201	-0.092518
C14	C	-0.760831	-0.778233	-0.050443
C15	C	-0.674284	-0.778232	-0.050448
C16	C	-0.631000	-0.820220	-0.092473
C17	C	-0.674269	-0.862217	-0.134490
C18	C	-0.760814	-0.862222	-0.134480
C19	C	-0.325240	-0.862200	-0.134529
C20	C	-0.238689	-0.862190	-0.134537
C21	C	-0.238710	-0.778210	-0.050497
C22	C	-0.325256	-0.778215	-0.050488
C23	C	-0.368516	-0.820215	-0.092501
C24	C	-0.462360	-0.820217	-0.092494
C25	C	-0.537158	-0.820215	-0.092485
N26	N	0.195907	-0.820226	-0.092458
C27	C	0.000232	-0.825683	0.034517
C28	C	0.000229	-0.824556	0.111620
C29	C	0.000278	-0.947218	-0.087022
C30	C	0.000305	-1.024321	-0.088151
C31	C	0.000202	-0.571402	-0.159598
C32	C	0.000211	-0.498955	-0.158537
C33	C	0.000219	-0.471209	-0.094705
C34	C	0.000196	-0.515917	-0.031929
C35	C	0.000178	-0.588363	-0.032991
C36	C	0.048412	-0.362952	-0.044519
C37	C	0.048435	-0.290508	-0.043459
C38	C	0.000268	-0.247764	-0.091425
C39	C	-0.047910	-0.277472	-0.140463
C40	C	-0.047927	-0.349917	-0.141526
C41	C	0.000237	-0.392656	-0.093546
C42	C	0.000295	-0.124510	-0.153048
C43	C	0.000299	-0.052062	-0.151984
C44	C	0.000292	-0.069026	-0.025374
C45	C	0.000280	-0.141472	-0.026439
C46	C	0.000285	-0.169210	-0.090278
C47	C	0.000252	-0.814739	-0.219498
C48	C	0.000260	-0.815866	-0.296602
C49	C	0.075177	-0.824035	0.147842
C50	C	0.075182	-0.822967	0.220288
C51	C	0.000236	-0.822432	0.256512
C52	C	-0.074721	-0.822949	0.220281
C53	C	-0.074725	-0.824010	0.147836
C54	C	-0.057166	-0.861430	0.376735
C55	C	-0.057159	-0.860372	0.449180
C56	C	0.000245	-0.819155	0.479957
C57	C	0.057656	-0.779003	0.438282
C58	C	0.057652	-0.780065	0.365837
C59	C	0.000232	-0.821281	0.335067
C60	C	0.075204	-0.817474	0.594733
C61	C	0.075207	-0.816401	0.667179
C62	C	-0.074699	-0.816391	0.667172
C63	C	-0.074699	-0.817457	0.594726
C64	C	0.000254	-0.818002	0.558511
H65	H	-0.796066	-0.744038	-0.016225
Cl66	Cl	-0.379664	-0.725425	0.002343
H67	H	-0.203477	-0.744014	-0.016285
Cl68	Cl	0.000318	0.004132	-0.230901
H69	H	0.104400	-0.745440	0.463340
H70	H	-0.639064	-0.744040	-0.016233
H71	H	-0.796037	-0.896417	-0.168693
H72	H	-0.203450	-0.896384	-0.168761
H73	H	-0.360453	-0.896398	-0.168740
Cl74	Cl	0.000205	-0.606269	-0.239853
Cl75	Cl	0.000294	-0.159384	-0.233300
Cl76	Cl	-0.619855	-0.915006	-0.187318
Cl77	Cl	0.169436	-0.815742	0.712715
Cl78	Cl	-0.168918	-0.815715	0.712704
Cl79	Cl	0.169429	-0.818154	0.549201
Cl80	Cl	0.000232	-0.442753	-0.237452
H81	H	-0.087158	-0.374102	-0.181452
H82	H	-0.087132	-0.242671	-0.179522
H83	H	0.000349	-0.046436	0.026600
Cl84	Cl	-0.168925	-0.818110	0.549188
H85	H	0.000270	-0.177867	0.024674
Cl86	Cl	-0.129329	-0.910850	0.501564
H87	H	0.087667	-0.266326	-0.003532
Cl88	Cl	0.108970	-0.416681	0.015788
Cl89	Cl	0.000200	-0.481038	0.048318
H90	H	-0.103917	-0.894993	0.351682
Cl91	Cl	0.000156	-0.644558	0.045924
Cl92	Cl	-0.168952	-0.824664	0.102298
Cl93	Cl	-0.168939	-0.822271	0.265818
H94	H	0.136216	-0.822539	0.249784
Cl95	Cl	0.169404	-0.824716	0.102317
H96	H	0.104396	-0.747371	0.331908
