data_functionalizedCrystal
_audit_creation_method	'MofGen! by Chris Wilmer'
_symmetry_space_group_name_H-M	'P1'
_symmetry_Int_Tables_number	1
_symmetry_cell_setting	triclinic
loop_
_symmetry_equiv_pos_as_xyz
  x,y,z
_cell_length_a	18.101398
_cell_length_b	25.639240
_cell_length_c	18.101389
_cell_angle_alpha	90.027631
_cell_angle_beta	90.009745
_cell_angle_gamma	90.028316
loop_
_atom_site_label
_atom_site_type_symbol
_atom_site_fract_x
_atom_site_fract_y
_atom_site_fract_z
Zn1	Zn	1.132112	-0.208268	0.418503
Zn2	Zn	1.132005	-0.295689	0.294642
Zn3	Zn	1.008271	-0.208263	0.294696
Zn4	Zn	1.008218	-0.295667	0.418462
O5	O	1.070152	-0.251972	0.356576
O6	O	1.235731	-0.219876	0.402067
O7	O	1.115568	-0.284099	0.191016
O8	O	1.024766	-0.135098	0.311159
O9	O	1.235652	-0.284104	0.311067
O10	O	1.115752	-0.135102	0.402120
O11	O	1.024662	-0.219867	0.191056
O12	O	0.904631	-0.219846	0.311119
O13	O	1.024676	-0.284066	0.522100
O14	O	0.904593	-0.284061	0.402049
O15	O	1.115701	-0.219854	0.522131
O16	O	1.115517	-0.368851	0.311027
O17	O	1.024572	-0.368835	0.401997
C18	C	0.877741	-0.251951	0.356586
C19	C	0.795427	-0.251955	0.356608
C20	C	0.496336	-0.251986	0.356577
C21	C	0.527662	-0.292584	0.413505
C22	C	0.613280	-0.292457	0.413739
C23	C	0.644719	-0.251971	0.356592
C24	C	0.613666	-0.196903	0.377933
C25	C	0.528021	-0.197147	0.378337
C26	C	0.527883	-0.265969	0.278171
C27	C	0.613533	-0.267178	0.278590
C28	C	0.728578	-0.251959	0.356600
C29	C	0.412477	-0.251994	0.356571
C30	C	1.070047	-0.387814	0.356518
C31	C	1.070070	-0.445928	0.356518
C32	C	1.117551	-0.806255	0.404024
C33	C	1.117573	-0.860859	0.404039
O34	O	1.157819	-0.889065	0.444372
N35	N	1.070254	-0.888211	0.356647
C36	C	1.022905	-0.860955	0.309242
O37	O	0.982659	-0.889234	0.268933
C38	C	1.022880	-0.806352	0.309231
C39	C	1.070208	-0.779003	0.356621
C40	C	1.164874	-0.778906	0.451411
C41	C	1.164853	-0.724305	0.451395
C42	C	1.117509	-0.697054	0.403992
C43	C	1.070187	-0.724402	0.356605
C44	C	0.975528	-0.779097	0.261831
C45	C	0.975507	-0.724490	0.261824
C46	C	1.022834	-0.697142	0.309214
C47	C	1.022822	-0.642550	0.309186
N48	N	1.070140	-0.615199	0.356578
C49	C	1.117484	-0.642450	0.403981
C50	C	1.022961	-0.975626	0.309269
C51	C	1.022989	-1.030228	0.309276
C52	C	1.117656	-1.030128	0.404074
C53	C	1.117631	-0.975525	0.404063
C54	C	1.070279	-0.948274	0.356661
C55	C	1.117437	-0.527785	0.403943
C56	C	1.117414	-0.473180	0.403920
C57	C	1.022744	-0.473285	0.309125
C58	C	1.022770	-0.527885	0.309145
C59	C	1.070119	-0.555134	0.356560
O60	O	0.982594	-0.614310	0.268876
O61	O	1.157717	-0.614165	0.444290
C62	C	1.263314	-0.251993	0.356566
C63	C	1.345628	-0.252002	0.356561
C64	C	1.070194	-0.251958	0.549738
C65	C	1.070213	-0.251953	0.632052
C66	C	1.070277	-0.115599	0.356650
C67	C	1.070330	-0.057485	0.356682
C68	C	1.070152	-0.251947	0.164165
C69	C	1.070277	-0.251805	0.081851
C70	C	1.070256	-0.251855	0.931143
C71	C	1.012789	-0.292127	0.899799
C72	C	1.012944	-0.292314	0.814180
C73	C	1.070234	-0.251903	0.782760
C74	C	1.148259	-0.266864	0.813843
C75	C	1.147938	-0.267128	0.899488
C76	C	1.050377	-0.196533	0.899585
C77	C	1.048641	-0.196852	0.813934
C78	C	1.070226	-0.251930	0.698901
C79	C	1.070269	-0.251829	1.015002
H80	H	0.507626	-0.236398	0.235754
H81	H	0.633783	-0.283205	0.471833
O82	O	1.163537	-1.056629	0.450207
C83	C	1.121352	-1.088224	0.497996
H84	H	1.063018	-1.071795	0.502519
H85	H	1.148099	-1.088807	0.555010
H86	H	1.118827	-1.129618	0.475102
O87	O	0.943535	-0.281166	0.924404
C88	C	0.916070	-0.324028	0.964725
H89	H	0.946298	-0.360978	0.947049
H90	H	0.854449	-0.328663	0.953467
H91	H	0.925253	-0.317102	1.026263
H92	H	0.634934	-0.239754	0.233895
H93	H	0.507301	-0.165815	0.338775
H94	H	0.984404	-0.953441	0.270663
O95	O	1.028411	-0.340720	0.925496
C96	C	1.091031	-0.338478	0.971723
H97	H	1.125159	-0.302494	0.957420
H98	H	1.125966	-0.374979	0.963271
H99	H	1.072606	-0.336149	1.031856
O100	O	0.929481	-0.805575	0.215775
C101	C	0.887705	-0.769802	0.173932
H102	H	0.885121	-0.730868	0.204260
H103	H	0.829362	-0.785607	0.165997
H104	H	0.914849	-0.764004	0.117703
H105	H	0.634273	-0.333292	0.400363
H106	H	0.508061	-0.185286	0.435656
H107	H	0.936945	-0.702305	0.223225
O108	O	0.976697	-0.554433	0.263187
C109	C	0.902875	-0.541109	0.279298
H110	H	0.899096	-0.526069	0.338452
H111	H	0.866302	-0.577040	0.272906
H112	H	0.883530	-0.509445	0.239567
O113	O	1.028556	-0.341263	0.789819
C114	C	0.974481	-0.376251	0.816045
H115	H	0.947230	-0.359303	0.867499
H116	H	1.001588	-0.415077	0.830366
H117	H	0.930898	-0.382665	0.771480
H118	H	0.635132	-0.184827	0.434628
H119	H	0.984458	-1.052491	0.270678
H120	H	1.192207	-0.239069	0.920223
H121	H	0.984200	-0.451088	0.270528
H122	H	1.155956	-0.450914	0.442511
O123	O	0.502070	-0.281764	0.482460
C124	C	0.530641	-0.318464	0.532908
H125	H	0.546739	-0.355530	0.502067
H126	H	0.486860	-0.328075	0.576079
H127	H	0.581424	-0.301464	0.561373
O128	O	1.168168	-0.315338	0.923350
C129	C	1.232621	-0.311297	0.966728
H130	H	1.263450	-0.274000	0.951705
H131	H	1.269680	-0.346411	0.955872
H132	H	1.216852	-0.310212	1.027681
H133	H	0.507045	-0.333553	0.400278
O134	O	1.168842	-0.314582	0.788297
C135	C	1.239020	-0.327433	0.816752
H136	H	1.269552	-0.290200	0.832729
H137	H	1.272038	-0.349270	0.772943
H138	H	1.232218	-0.353219	0.867591
H139	H	0.634032	-0.165835	0.337763
O140	O	0.502055	-0.313072	0.255158
C141	C	0.454997	-0.334111	0.309596
H142	H	0.468789	-0.316083	0.365506
H143	H	0.463041	-0.378161	0.312429
H144	H	0.395111	-0.325102	0.294874
H145	H	1.092233	-0.166528	0.919857
O146	O	0.943928	-0.281218	0.789018
C147	C	0.917802	-0.323171	0.745916
H148	H	0.966678	-0.346526	0.723964
H149	H	0.884162	-0.307430	0.697580
H150	H	0.881442	-0.349480	0.781348
H151	H	0.633835	-0.307699	0.262495
O152	O	1.200630	-0.232941	0.789471
C153	C	1.167401	-0.195057	0.743866
H154	H	1.113547	-0.211151	0.720447
H155	H	1.206407	-0.184871	0.696580
H156	H	1.155380	-0.158516	0.777691
O157	O	1.163498	-0.554169	0.450028
C158	C	1.205240	-0.518312	0.491859
H159	H	1.207804	-0.479406	0.461508
H160	H	1.263592	-0.534049	0.499815
H161	H	1.178081	-0.512488	0.548078
O162	O	0.980137	-0.183318	0.789793
C163	C	0.961341	-0.133833	0.818098
H164	H	0.994997	-0.125792	0.870111
H165	H	0.899959	-0.133002	0.832130
H166	H	0.973865	-0.102688	0.774944
O167	O	1.210847	-0.697823	0.497504
C168	C	1.252645	-0.733594	0.539327
H169	H	1.222320	-0.772531	0.541869
H170	H	1.260504	-0.717793	0.597682
H171	H	1.308908	-0.739384	0.512253
O172	O	1.210764	-0.805396	0.497539
C173	C	1.168602	-0.836996	0.545343
H174	H	1.110261	-0.820581	0.549873
H175	H	1.195360	-0.837566	0.602353
H176	H	1.166093	-0.878393	0.522459
O177	O	1.163622	-0.949041	0.450173
C178	C	1.205425	-0.984810	0.491996
H179	H	1.175106	-1.023749	0.494536
H180	H	1.213281	-0.969009	0.550351
H181	H	1.261689	-0.990595	0.464922
O182	O	0.983657	-0.180358	0.925401
C183	C	0.953919	-0.218813	0.972459
H184	H	0.979479	-0.258261	0.958668
H185	H	0.891522	-0.220884	0.964413
H186	H	0.966708	-0.208391	1.032346
O187	O	1.094922	-0.159191	0.788301
C188	C	1.091170	-0.157486	0.710538
H189	H	1.070782	-0.196655	0.688744
H190	H	1.148391	-0.149002	0.687136
H191	H	1.051306	-0.125424	0.692853
