data_functionalizedCrystal
_audit_creation_method	'MofGen! by Chris Wilmer'
_symmetry_space_group_name_H-M	'P1'
_symmetry_Int_Tables_number	1
_symmetry_cell_setting	triclinic
loop_
_symmetry_equiv_pos_as_xyz
  x,y,z
_cell_length_a	16.956984
_cell_length_b	16.992695
_cell_length_c	14.586319
_cell_angle_alpha	89.995905
_cell_angle_beta	89.996078
_cell_angle_gamma	83.360821
loop_
_atom_site_label
_atom_site_type_symbol
_atom_site_fract_x
_atom_site_fract_y
_atom_site_fract_z
O1	O	1.060100	0.032353	-0.076245
O2	O	1.393433	0.365686	0.257088
O3	O	1.726767	0.699019	0.590422
O4	O	0.829689	0.059768	-0.076246
O5	O	1.163023	0.393102	0.257087
O6	O	1.496356	0.726435	0.590421
O7	O	0.943971	-0.068022	-0.076238
O8	O	1.277304	0.265311	0.257095
O9	O	1.610638	0.598644	0.590428
O10	O	0.945818	0.160143	-0.076253
O11	O	1.279152	0.493477	0.257081
O12	O	1.612485	0.826810	0.590414
O13	O	0.943962	-0.068023	0.076243
O14	O	1.277296	0.265310	0.409576
O15	O	1.610629	0.598643	0.742909
O16	O	0.829681	0.059767	0.076235
O17	O	1.163014	0.393101	0.409568
O18	O	1.496347	0.726434	0.742901
O19	O	1.060091	0.032352	0.076236
O20	O	1.393425	0.365685	0.409569
O21	O	1.726758	0.699018	0.742903
Cu22	Cu	0.944885	0.046059	0.090158
Cu23	Cu	1.278219	0.379393	0.423491
Cu24	Cu	1.611552	0.712726	0.756825
Cu25	Cu	0.944895	0.046061	-0.090168
Cu26	Cu	1.278229	0.379394	0.243165
Cu27	Cu	1.611562	0.712727	0.576498
O28	O	0.945810	0.160142	0.076228
O29	O	1.279143	0.493476	0.409561
O30	O	1.612476	0.826809	0.742895
C31	C	0.800066	0.061172	-0.000006
C32	C	1.133400	0.394505	0.333328
C33	C	1.466733	0.727838	0.666661
C34	C	0.711812	0.065345	-0.000006
C35	C	1.045145	0.398679	0.333327
C36	C	1.378478	0.732012	0.666661
C37	C	0.941590	-0.097081	0.000002
C38	C	1.274924	0.236252	0.333335
C39	C	1.608257	0.569585	0.666669
C40	C	0.934500	-0.183666	0.000002
C41	C	1.267833	0.149667	0.333335
C42	C	1.601166	0.483001	0.666668
C43	C	0.675280	-0.004440	0.000000
C44	C	1.008614	0.328893	0.333333
C45	C	1.341947	0.662227	0.666667
C46	C	0.592355	-0.000513	-0.000007
C47	C	0.925689	0.332820	0.333327
C48	C	1.259022	0.666153	0.666660
C49	C	0.545963	0.073199	-0.000013
C50	C	0.879297	0.406532	0.333320
C51	C	1.212630	0.739866	0.666653
C52	C	0.582500	0.142990	-0.000022
C53	C	0.915833	0.476323	0.333311
C54	C	1.249167	0.809656	0.666645
C55	C	0.665424	0.139063	-0.000022
C56	C	0.998757	0.472396	0.333312
C57	C	1.332090	0.805729	0.666645
C58	C	0.297429	0.092638	-0.000021
C59	C	0.630763	0.425971	0.333313
C60	C	0.964096	0.759305	0.666646
C61	C	0.214500	0.096560	-0.000018
C62	C	0.547834	0.429893	0.333315
C63	C	0.881167	0.763227	0.666648
C64	C	0.224362	-0.046944	-0.000005
C65	C	0.557695	0.286389	0.333329
C66	C	0.891028	0.619723	0.666662
C67	C	0.307286	-0.050864	0.000001
C68	C	0.640620	0.282469	0.333334
C69	C	0.973953	0.615802	0.666668
C70	C	0.343816	0.018926	-0.000013
C71	C	0.677149	0.352259	0.333321
C72	C	1.010482	0.685593	0.666654
N73	N	0.461200	0.077214	-0.000017
N74	N	0.794534	0.410548	0.333316
N75	N	1.127867	0.743881	0.666649
N76	N	0.428577	0.014910	-0.000015
N77	N	0.761910	0.348243	0.333318
N78	N	1.095244	0.681577	0.666652
C79	C	1.002915	-0.238341	0.000003
C80	C	1.336248	0.094992	0.333336
C81	C	1.669581	0.428326	0.666670
C82	C	0.996247	-0.319695	-0.000006
C83	C	1.329581	0.013638	0.333328
C84	C	1.662914	0.346971	0.666661
C85	C	0.921165	-0.346373	-0.000009
C86	C	1.254498	-0.013040	0.333324
C87	C	1.587831	0.320294	0.666658
C88	C	0.852745	-0.291691	-0.000013
C89	C	1.186078	0.041642	0.333320
C90	C	1.519411	0.374975	0.666653
C91	C	0.859412	-0.210338	-0.000011
C92	C	1.192746	0.122995	0.333322
C93	C	1.526079	0.456328	0.666656
C94	C	0.893529	-0.588180	-0.000022
C95	C	1.226862	-0.254846	0.333311
C96	C	1.560196	0.078487	0.666645
C97	C	0.886866	-0.669539	-0.000021
C98	C	1.220200	-0.336206	0.333312
C99	C	1.553533	-0.002872	0.666645
C100	C	1.030370	-0.697538	-0.000015
C101	C	1.363703	-0.364204	0.333318
C102	C	1.697037	-0.030871	0.666651
C103	C	1.037031	-0.616182	-0.000008
C104	C	1.370364	-0.282849	0.333326
C105	C	1.703698	0.050485	0.666659
C106	C	0.968611	-0.561507	-0.000017
C107	C	1.301944	-0.228174	0.333317
C108	C	1.635278	0.105159	0.666650
N109	N	0.914348	-0.429530	-0.000015
N110	N	1.247681	-0.096197	0.333318
N111	N	1.581015	0.237137	0.666652
N112	N	0.975428	-0.478352	-0.000017
N113	N	1.308762	-0.145019	0.333316
N114	N	1.642095	0.188315	0.666649
C115	C	1.089714	0.030948	-0.000006
C116	C	1.423048	0.364282	0.333327
C117	C	1.756381	0.697615	0.666660
C118	C	1.177969	0.026774	-0.000012
C119	C	1.511302	0.360108	0.333321
C120	C	1.844636	0.693441	0.666654
C121	C	0.948191	0.189201	-0.000014
C122	C	1.281524	0.522535	0.333319
C123	C	1.614857	0.855868	0.666652
C124	C	0.955281	0.275786	-0.000020
C125	C	1.288615	0.609119	0.333313
C126	C	1.621948	0.942453	0.666647
N127	N	0.944884	0.046057	0.216990
N128	N	1.278217	0.379391	0.550323
N129	N	1.611551	0.712724	0.883656
N130	N	0.944903	0.046056	-0.217000
N131	N	1.278236	0.379389	0.116333
N132	N	1.611569	0.712723	0.449667
C133	C	0.995507	-0.010512	0.452000
C134	C	1.328840	0.322822	0.785333
C135	C	1.662174	0.656155	1.118666
C136	C	0.995509	-0.010514	0.547981
C137	C	1.328842	0.322820	0.881314
C138	C	1.662176	0.656153	1.214648
C139	C	0.894274	0.102628	0.547983
C140	C	1.227608	0.435961	0.881317
C141	C	1.560941	0.769295	1.214650
C142	C	0.894269	0.102626	0.452004
C143	C	1.227602	0.435959	0.785337
C144	C	1.560935	0.769293	1.118671
C145	C	0.944889	0.046057	0.404015
C146	C	1.278223	0.379390	0.737348
C147	C	1.611556	0.712723	1.070681
C148	C	0.944897	0.046057	0.595975
C149	C	1.278231	0.379390	0.929309
C150	C	1.611564	0.712723	1.262642
C151	C	0.944899	0.046055	0.700042
C152	C	1.278233	0.379388	1.033376
C153	C	1.611566	0.712722	1.366709
C154	C	0.944887	0.046057	0.299941
C155	C	1.278220	0.379391	0.633274
C156	C	1.611553	0.712724	0.966607
H157	H	0.713048	-0.064465	0.000009
H158	H	1.046381	0.268868	0.333342
H159	H	1.379714	0.602202	0.666676
H160	H	0.853046	0.148691	0.412932
H161	H	1.186379	0.482025	0.746265
H162	H	1.519713	0.815358	1.079598
H163	H	0.791610	-0.313419	-0.000022
H164	H	1.124944	0.019915	0.333312
H165	H	1.458277	0.353248	0.666645
H166	H	1.036724	-0.056575	0.412929
H167	H	1.370058	0.276759	0.746262
H168	H	1.703391	0.610092	1.079596
H169	H	0.176729	0.156589	-0.000019
H170	H	0.510063	0.489922	0.333314
H171	H	0.843396	0.823255	0.666648
H172	H	0.562616	-0.057340	-0.000003
H173	H	0.895949	0.275993	0.333331
H174	H	1.229282	0.609327	0.666664
O175	O	1.050113	-0.071517	0.599740
O176	O	1.383447	0.261816	0.933073
O177	O	1.716780	0.595150	1.266407
H178	H	1.085316	-0.110845	0.550242
H179	H	1.418650	0.222489	0.883575
H180	H	1.751983	0.555822	1.216909
H181	H	0.853061	0.148686	0.587066
H182	H	1.186394	0.482020	0.920399
H183	H	1.519728	0.815353	1.253733
O184	O	1.118019	-0.587421	-0.000012
O185	O	1.451353	-0.254088	0.333321
O186	O	1.784686	0.079246	0.666654
H187	H	1.124493	-0.551038	0.062142
H188	H	1.457826	-0.217705	0.395475
H189	H	1.791160	0.115628	0.728808
O190	O	0.357324	-0.130368	0.000014
O191	O	0.690658	0.202965	0.333347
O192	O	1.023991	0.536298	0.666681
H193	H	0.317990	-0.178237	0.000014
H194	H	0.651323	0.155097	0.333347
H195	H	0.984656	0.488430	0.666681
H196	H	0.194610	-0.103763	-0.000004
H197	H	0.527943	0.229570	0.333329
H198	H	0.861277	0.562903	0.666663
O199	O	0.532460	0.222492	-0.000024
O200	O	0.865793	0.555826	0.333309
O201	O	1.199126	0.889159	0.666642
H202	H	0.546006	0.256144	-0.062179
H203	H	0.879339	0.589478	0.271154
H204	H	1.212673	0.922811	0.604487
H205	H	0.327161	0.149466	-0.000038
H206	H	0.660495	0.482800	0.333295
H207	H	0.993828	0.816133	0.666629
O208	O	0.704832	0.214330	-0.000017
O209	O	1.038165	0.547663	0.333316
O210	O	1.371498	0.880996	0.666649
H211	H	0.658643	0.266247	-0.000011
H212	H	0.991976	0.599581	0.333323
H213	H	1.325309	0.932914	0.666656
H214	H	1.064055	-0.216627	0.000012
H215	H	1.397388	0.116706	0.333345
H216	H	1.730722	0.450039	0.666678
H217	H	1.086073	-0.742062	-0.000010
H218	H	1.419407	-0.408728	0.333323
H219	H	1.752740	-0.075395	0.666657
O220	O	1.070037	-0.378669	0.000011
O221	O	1.403370	-0.045336	0.333344
O222	O	1.736704	0.287997	0.666678
H223	H	1.123366	-0.346451	0.000030
H224	H	1.456700	-0.013118	0.333364
H225	H	1.790033	0.320215	0.666697
H226	H	0.825722	-0.691256	-0.000009
H227	H	1.159055	-0.357922	0.333324
H228	H	1.492388	-0.024589	0.666657
O229	O	0.819737	-0.529213	-0.000008
O230	O	1.153070	-0.195880	0.333325
O231	O	1.486404	0.137453	0.666659
H232	H	0.766410	-0.561435	0.000006
H233	H	1.099743	-0.228101	0.333339
H234	H	1.433076	0.105232	0.666672
H235	H	0.803701	-0.165822	-0.000012
H236	H	1.137035	0.167512	0.333321
H237	H	1.470368	0.500845	0.666654
