data_functionalizedCrystal
_audit_creation_method	'MofGen! by Chris Wilmer'
_symmetry_space_group_name_H-M	'P1'
_symmetry_Int_Tables_number	1
_symmetry_cell_setting	triclinic
loop_
_symmetry_equiv_pos_as_xyz
  x,y,z
_cell_length_a	9.065218
_cell_length_b	11.792254
_cell_length_c	7.540329
_cell_angle_alpha	89.996229
_cell_angle_beta	89.996962
_cell_angle_gamma	84.607241
loop_
_atom_site_label
_atom_site_type_symbol
_atom_site_fract_x
_atom_site_fract_y
_atom_site_fract_z
O1	O	1.958849	0.166429	-0.147488
O2	O	2.292182	0.499762	0.185845
O3	O	2.625515	0.833096	0.519179
O4	O	1.529437	0.180080	-0.147491
O5	O	1.862770	0.513414	0.185843
O6	O	2.196103	0.846747	0.519176
O7	O	1.754553	0.008143	-0.147477
O8	O	2.087887	0.341476	0.185857
O9	O	2.421220	0.674809	0.519190
O10	O	1.733732	0.338366	-0.147502
O11	O	2.067065	0.671700	0.185831
O12	O	2.400398	1.005033	0.519165
O13	O	1.754540	0.008141	0.147488
O14	O	2.087873	0.341474	0.480822
O15	O	2.421207	0.674807	0.814155
O16	O	1.529423	0.180078	0.147474
O17	O	1.862756	0.513411	0.480808
O18	O	2.196090	0.846745	0.814141
O19	O	1.958835	0.166427	0.147477
O20	O	2.292168	0.499760	0.480810
O21	O	2.625502	0.833093	0.814144
Cu22	Cu	1.744128	0.173252	0.174408
Cu23	Cu	2.077461	0.506586	0.507742
Cu24	Cu	2.410795	0.839919	0.841075
Cu25	Cu	1.744144	0.173255	-0.174422
Cu26	Cu	2.077477	0.506588	0.158911
Cu27	Cu	2.410810	0.839922	0.492245
O28	O	1.733718	0.338364	0.147463
O29	O	2.067052	0.671698	0.480796
O30	O	2.400385	1.005031	0.814130
C31	C	1.474455	0.178767	-0.000008
C32	C	1.807789	0.512101	0.333325
C33	C	2.141122	0.845434	0.666658
C34	C	1.310649	0.174844	-0.000009
C35	C	1.643982	0.508178	0.333324
C36	C	1.977316	0.841511	0.666658
C37	C	1.753235	-0.034156	0.000005
C38	C	2.086568	0.299177	0.333339
C39	C	2.419902	0.632510	0.666672
C40	C	1.749309	-0.160191	0.000004
C41	C	2.082642	0.173142	0.333337
C42	C	2.415976	0.506476	0.666670
C43	C	1.746119	-0.262545	-0.000003
C44	C	2.079453	0.070788	0.333330
C45	C	2.412786	0.404121	0.666664
C46	C	1.742131	-0.390954	-0.000019
C47	C	2.075464	-0.057621	0.333314
C48	C	2.408797	0.275713	0.666647
C49	C	2.013816	0.167740	-0.000009
C50	C	2.347150	0.501073	0.333324
C51	C	2.680483	0.834406	0.666657
C52	C	2.177623	0.171663	-0.000020
C53	C	2.510956	0.504996	0.333313
C54	C	2.844289	0.838329	0.666646
C55	C	1.735037	0.380663	-0.000023
C56	C	2.068370	0.713997	0.333310
C57	C	2.401703	1.047330	0.666644
C58	C	1.738962	0.506698	-0.000033
C59	C	2.072296	0.840031	0.333300
C60	C	2.405629	1.173365	0.666634
N61	N	1.744127	0.173250	0.419757
N62	N	2.077461	0.506583	0.753090
N63	N	2.410794	0.839916	1.086423
N64	N	1.744156	0.173248	-0.419771
N65	N	2.077489	0.506582	-0.086437
N66	N	2.410823	0.839915	0.246896
