data_functionalizedCrystal
_audit_creation_method	'MofGen! by Chris Wilmer'
_symmetry_space_group_name_H-M	'P1'
_symmetry_Int_Tables_number	1
_symmetry_cell_setting	triclinic
loop_
_symmetry_equiv_pos_as_xyz
  x,y,z
_cell_length_a	17.038272
_cell_length_b	17.038272
_cell_length_c	7.540329
_cell_angle_alpha	89.996089
_cell_angle_beta	90.002667
_cell_angle_gamma	91.111556
loop_
_atom_site_label
_atom_site_type_symbol
_atom_site_fract_x
_atom_site_fract_y
_atom_site_fract_z
O1	O	1.048753	0.170536	-0.147262
O2	O	1.548753	0.670536	0.352738
O3	O	0.820941	0.167828	-0.147314
O4	O	1.320941	0.667828	0.352686
O5	O	0.933493	0.055276	-0.147274
O6	O	1.433493	0.555276	0.352726
O7	O	0.936201	0.283087	-0.147302
O8	O	1.436201	0.783087	0.352698
O9	O	0.933486	0.055274	0.147691
O10	O	1.433486	0.555274	0.647691
O11	O	0.820934	0.167826	0.147651
O12	O	1.320934	0.667826	0.647651
O13	O	1.048746	0.170534	0.147703
O14	O	1.548746	0.670534	0.647703
Cu15	Cu	0.934839	0.169179	0.174610
Cu16	Cu	1.434839	0.669179	0.674610
Cu17	Cu	0.934848	0.169182	-0.174221
Cu18	Cu	1.434848	0.669182	0.325779
O19	O	0.936194	0.283085	0.147663
O20	O	1.436194	0.783085	0.647663
C21	C	0.791645	0.165364	0.000162
C22	C	1.291645	0.665364	0.500162
C23	C	0.704361	0.158016	0.000142
C24	C	1.204361	0.658016	0.500142
C25	C	0.931027	0.025982	0.000207
C26	C	1.431027	0.525982	0.500207
C27	C	0.923679	-0.061301	0.000205
C28	C	1.423679	0.438699	0.500205
C29	C	0.658752	0.225479	0.000135
C30	C	1.158752	0.725479	0.500135
C31	C	0.576740	0.218570	0.000161
C32	C	1.076740	0.718570	0.500161
C33	C	0.540339	0.144197	0.000180
C34	C	1.040339	0.644197	0.500180
C35	C	0.585954	0.076728	0.000192
C36	C	1.085954	0.576728	0.500192
C37	C	0.667965	0.083638	0.000180
C38	C	1.167965	0.583638	0.500180
C39	C	0.292951	0.119787	0.000230
C40	C	0.792951	0.619787	0.500230
C41	C	0.210935	0.112882	0.000238
C42	C	0.710935	0.612882	0.500238
C43	C	0.201726	0.254725	0.000210
C44	C	0.701726	0.754725	0.500210
C45	C	0.283739	0.261628	0.000186
C46	C	0.783739	0.761628	0.500186
C47	C	0.329347	0.194159	0.000208
C48	C	0.829347	0.694159	0.500208
C49	C	0.456510	0.137133	0.000200
C50	C	0.956510	0.637133	0.500200
C51	C	0.413174	0.201224	0.000200
C52	C	0.913174	0.701224	0.500200
C53	C	0.991142	-0.106911	0.000222
C54	C	1.491142	0.393089	0.500222
C55	C	0.984233	-0.188923	0.000204
C56	C	1.484233	0.311077	0.500204
C57	C	0.909860	-0.225324	0.000181
C58	C	1.409860	0.274676	0.500181
C59	C	0.842391	-0.179708	0.000158
C60	C	1.342391	0.320292	0.500158
C61	C	0.849301	-0.097698	0.000164
C62	C	1.349301	0.402302	0.500164
C63	C	0.885449	-0.472712	0.000151
C64	C	1.385449	0.027288	0.500151
C65	C	0.878545	-0.554728	0.000151
C66	C	1.378545	-0.054728	0.500151
C67	C	1.020387	-0.563937	0.000193
C68	C	1.520387	-0.063937	0.500193
C69	C	1.027291	-0.481924	0.000209
C70	C	1.527291	0.018076	0.500209
C71	C	0.959822	-0.436316	0.000177
C72	C	1.459822	0.063684	0.500177
C73	C	0.902796	-0.309153	0.000168
C74	C	1.402796	0.190847	0.500168
C75	C	0.966886	-0.352488	0.000178
C76	C	1.466886	0.147512	0.500178
C77	C	1.078042	0.172997	0.000223
C78	C	1.578042	0.672997	0.500223
C79	C	1.165326	0.180346	0.000231
C80	C	1.665326	0.680346	0.500231
C81	C	0.938660	0.312379	0.000177
C82	C	1.438660	0.812379	0.500177
C83	C	0.946008	0.399663	0.000168
C84	C	1.446008	0.899663	0.500168
N85	N	0.934839	0.169178	0.419958
N86	N	1.434839	0.669178	0.919958
N87	N	0.934854	0.169178	-0.419569
N88	N	1.434854	0.669178	0.080431
H89	H	0.688384	0.286042	0.000118
H90	H	1.188384	0.786042	0.500118
Br91	Br	0.462577	0.302156	0.000185
Br92	Br	0.962577	0.802156	0.500185
H93	H	0.794365	-0.060564	0.000150
H94	H	1.294365	0.439436	0.500150
Br95	Br	1.092082	-0.057517	0.000279
Br96	Br	1.592082	0.442483	0.500279
Br97	Br	0.729865	-0.007923	0.000204
Br98	Br	1.229865	0.492077	0.500204
Br99	Br	0.333134	0.362567	0.000140
Br100	Br	0.833134	0.862567	0.500140
H101	H	1.039170	-0.226054	0.000222
H102	H	1.539170	0.273946	0.500222
H103	H	0.330076	0.064848	0.000249
H104	H	0.830076	0.564848	0.500249
H105	H	1.087853	-0.452293	0.000228
H106	H	1.587853	0.047707	0.500228
H107	H	0.164583	0.309653	0.000196
H108	H	0.664583	0.809653	0.500196
H109	H	0.817978	-0.584363	0.000161
H110	H	1.317978	-0.084363	0.500161
H111	H	0.539608	0.273507	0.000153
H112	H	1.039608	0.773507	0.500153
H113	H	0.842241	-0.338800	0.000153
H114	H	1.342241	0.161200	0.500153
Br115	Br	0.161534	0.011940	0.000302
Br116	Br	0.661534	0.511940	0.500302
H117	H	0.830511	-0.435587	0.000126
H118	H	1.330511	0.064413	0.500126
Br119	Br	0.536554	-0.024208	0.000236
Br120	Br	1.036554	0.475792	0.500236
H121	H	1.075316	-0.601079	0.000216
H122	H	1.575316	-0.101079	0.500216
Br123	Br	0.407102	0.036200	0.000224
Br124	Br	0.907102	0.536200	0.500224
H125	H	0.781835	-0.209353	0.000129
H126	H	1.281835	0.290647	0.500129
Br127	Br	1.067819	-0.303086	0.000194
Br128	Br	1.567819	0.196914	0.500194
