data_functionalizedCrystal
_audit_creation_method	'MofGen! by Chris Wilmer'
_symmetry_space_group_name_H-M	'P1'
_symmetry_Int_Tables_number	1
_symmetry_cell_setting	triclinic
loop_
_symmetry_equiv_pos_as_xyz
  x,y,z
_cell_length_a	10.723024
_cell_length_b	10.723024
_cell_length_c	15.186229
_cell_angle_alpha	89.997422
_cell_angle_beta	89.996943
_cell_angle_gamma	84.467869
loop_
_atom_site_label
_atom_site_type_symbol
_atom_site_fract_x
_atom_site_fract_y
_atom_site_fract_z
O1	O	1.657187	0.175026	-0.073220
O2	O	1.294034	0.191779	-0.073223
O3	O	1.483987	0.001826	-0.073219
O4	O	1.467234	0.364978	-0.073225
O5	O	1.483974	0.001823	0.073239
O6	O	1.294021	0.191776	0.073234
O7	O	1.657174	0.175023	0.073237
Zn8	Zn	1.475596	0.183399	0.096489
Zn9	Zn	1.475612	0.183403	-0.096475
O10	O	1.467221	0.364976	0.073232
C11	C	1.247528	0.190558	0.000005
C12	C	1.108974	0.186911	0.000004
C13	C	0.917217	0.073603	0.000004
C14	C	1.060420	0.077371	0.000006
C15	C	1.482762	-0.044675	0.000009
C16	C	1.479114	-0.183229	0.000006
C17	C	1.585401	-0.258212	0.000006
C18	C	1.581634	-0.401415	0.000002
C19	C	1.703680	0.176243	0.000007
C20	C	1.842234	0.179891	0.000002
C21	C	1.468447	0.411477	0.000003
C22	C	1.472094	0.550031	-0.000000
N23	N	1.475593	0.183396	0.228181
N24	N	1.475625	0.183396	-0.228168
C25	C	1.559733	0.099313	0.453906
C26	C	1.559737	0.099311	0.546096
C27	C	1.391475	0.267482	0.546101
C28	C	1.391466	0.267478	0.453913
C29	C	1.475602	0.183395	0.407818
C30	C	1.475615	0.183397	0.592196
C31	C	1.475619	0.183394	0.692152
C32	C	1.475598	0.183396	0.307855
H33	H	1.124853	-0.013619	0.000002
H34	H	1.322951	0.335948	0.416385
H35	H	0.875395	-0.020182	0.000019
O36	O	1.641326	0.017434	0.409188
C37	C	1.619970	-0.106264	0.431770
H38	H	1.520049	-0.107745	0.457107
H39	H	1.633789	-0.168801	0.371165
H40	H	1.688802	-0.142271	0.485297
O41	O	1.031997	0.295390	-0.000117
C42	C	0.955896	0.300123	-0.075982
H43	H	0.948593	0.200995	-0.101269
H44	H	0.858419	0.345656	-0.058926
H45	H	0.999138	0.357546	-0.129096
H46	H	1.385328	-0.225051	-0.000001
H47	H	0.884056	0.273677	0.000006
H48	H	1.628243	0.030842	0.583619
H49	H	1.679187	-0.216390	0.000012
H50	H	1.672624	-0.465848	0.000006
O51	O	1.309878	0.349118	0.591016
C52	C	1.327906	0.331076	0.682267
H53	H	1.426718	0.285337	0.694851
H54	H	1.314837	0.425459	0.717297
H55	H	1.256742	0.267846	0.708440
O56	O	1.363448	-0.373246	-0.000118
C57	C	1.293513	-0.396479	-0.075983
H58	H	1.323195	-0.494976	-0.101274
H59	H	1.189507	-0.388086	-0.058927
H60	H	1.311283	-0.325162	-0.129095
