data_functionalizedCrystal
_audit_creation_method	'MofGen! by Chris Wilmer'
_symmetry_space_group_name_H-M	'P1'
_symmetry_Int_Tables_number	1
_symmetry_cell_setting	triclinic
loop_
_symmetry_equiv_pos_as_xyz
  x,y,z
_cell_length_a	19.805407
_cell_length_b	19.121063
_cell_length_c	19.805399
_cell_angle_alpha	92.411105
_cell_angle_beta	89.980427
_cell_angle_gamma	92.469032
loop_
_atom_site_label
_atom_site_type_symbol
_atom_site_fract_x
_atom_site_fract_y
_atom_site_fract_z
Zn1	Zn	1.023234	-0.279631	-0.394203
Zn2	Zn	1.018317	-0.397083	-0.285838
Zn3	Zn	0.910048	-0.279650	-0.281028
Zn4	Zn	0.905182	-0.397046	-0.398983
O5	O	0.964195	-0.338352	-0.340013
O6	O	1.117298	-0.295218	-0.379840
O7	O	1.003934	-0.381529	-0.190484
O8	O	0.929156	-0.181363	-0.292028
O9	O	1.113686	-0.381510	-0.300225
O10	O	1.012313	-0.181348	-0.375177
O11	O	0.924388	-0.295251	-0.186951
O12	O	0.814686	-0.295215	-0.296663
O13	O	0.920863	-0.381447	-0.493065
O14	O	0.811111	-0.381465	-0.383324
O15	O	1.007595	-0.295182	-0.489553
O16	O	0.999216	-0.495363	-0.304860
O17	O	0.916096	-0.495335	-0.387987
C18	C	0.788340	-0.338339	-0.339991
C19	C	0.713107	-0.338350	-0.339998
C20	C	0.675917	-0.383328	-0.385055
C21	C	0.605228	-0.383329	-0.385064
C22	C	0.571732	-0.338356	-0.340013
C23	C	0.608927	-0.293373	-0.294954
C24	C	0.679614	-0.293368	-0.294948
C25	C	0.323853	-0.293388	-0.294977
C26	C	0.253161	-0.293397	-0.294985
C27	C	0.249467	-0.383349	-0.385093
C28	C	0.320154	-0.383345	-0.385087
C29	C	0.357344	-0.338360	-0.340031
C30	C	0.433992	-0.338358	-0.340022
C31	C	0.495084	-0.338360	-0.340018
C32	C	0.956613	-0.520833	-0.347479
C33	C	0.953431	-0.598899	-0.350696
C34	C	0.995246	-0.635566	-0.308963
C35	C	0.992258	-0.708917	-0.311992
C36	C	0.947451	-0.745601	-0.356752
C37	C	0.905634	-0.708929	-0.398489
C38	C	0.908626	-0.635579	-0.395463
C39	C	0.936252	-0.967071	-0.368056
C40	C	0.933262	-1.040426	-0.371078
C41	C	1.019887	-1.040409	-0.284581
C42	C	1.022872	-0.967058	-0.281556
C43	C	0.981058	-0.930393	-0.323296
C44	C	0.944394	-0.820578	-0.359848
C45	C	0.984119	-0.855417	-0.320203
C46	C	1.140737	-0.338366	-0.340036
C47	C	1.215969	-0.338372	-0.340046
C48	C	0.964235	-0.338308	-0.516554
C49	C	0.964252	-0.338289	-0.591785
C50	C	0.971825	-0.155159	-0.332532
C51	C	0.975077	-0.077093	-0.329345
C52	C	1.009414	-0.293369	-0.625302
C53	C	1.009422	-0.293349	-0.695989
C54	C	0.964270	-0.338253	-0.733159
C55	C	0.919103	-0.383175	-0.699638
C56	C	0.919093	-0.383191	-0.628952
C57	C	0.919144	-0.383109	-0.984709
C58	C	0.919159	-0.383091	-1.055400
C59	C	1.009474	-0.293267	-1.051747
C60	C	1.009463	-0.293283	-0.981060
C61	C	0.964294	-0.338202	-0.947545
C62	C	0.964285	-0.338223	-0.870897
C63	C	0.964282	-0.338236	-0.809806
C64	C	0.964197	-0.338346	-0.164157
C65	C	0.964319	-0.338167	-0.088918
H66	H	0.581649	-0.256751	-0.258275
Br67	Br	0.554758	-0.444372	-0.446218
H68	H	0.869154	-0.738803	-0.434936
H69	H	0.874577	-0.605726	-0.429447
Br70	Br	0.198992	-0.444403	-0.446241
H71	H	0.347424	-0.419970	-0.421771
H72	H	0.882337	-0.419734	-0.729907
H73	H	0.709894	-0.256739	-0.258261
H74	H	0.882374	-0.419695	-0.957430
Br75	Br	1.070747	-0.232416	-0.741475
Br76	Br	0.207701	-0.232358	-0.233839
Br77	Br	1.070700	-0.232430	-0.574863
Br78	Br	1.070746	-0.232344	-0.930618
Br79	Br	1.070775	-0.232303	-1.097235
Br80	Br	1.076635	-1.090173	-0.227941
H81	H	0.354124	-0.256764	-0.258284
Br82	Br	1.056053	-0.585788	-0.248209
H83	H	0.882310	-0.419762	-0.601663
H84	H	1.026308	-0.738768	-0.278008
H85	H	0.896783	-1.070292	-0.407538
H86	H	1.059358	-0.937192	-0.245110
H87	H	0.703185	-0.419953	-0.421739
Br88	Br	1.044932	-0.805632	-0.259465
Br89	Br	0.857879	-0.444037	-1.105846
Br90	Br	0.879505	-0.917320	-0.424703
H91	H	0.907910	-0.850454	-0.396289
