data_functionalizedCrystal
_audit_creation_method	'MofGen! by Chris Wilmer'
_symmetry_space_group_name_H-M	'P1'
_symmetry_Int_Tables_number	1
_symmetry_cell_setting	triclinic
loop_
_symmetry_equiv_pos_as_xyz
  x,y,z
_cell_length_a	12.827893
_cell_length_b	29.839131
_cell_length_c	12.827885
_cell_angle_alpha	89.962989
_cell_angle_beta	89.980538
_cell_angle_gamma	90.041391
loop_
_atom_site_label
_atom_site_type_symbol
_atom_site_fract_x
_atom_site_fract_y
_atom_site_fract_z
Zn1	Zn	1.597483	-0.178831	-0.590798
Zn2	Zn	2.097483	0.321169	-0.090798
Zn3	Zn	1.597297	-0.253968	-0.416036
Zn4	Zn	2.097297	0.246032	0.083964
Zn5	Zn	1.422723	-0.178853	-0.416071
Zn6	Zn	1.922723	0.321147	0.083929
Zn7	Zn	1.422630	-0.253935	-0.590736
Zn8	Zn	1.922630	0.246065	-0.090736
O9	O	1.510033	-0.216397	-0.503410
O10	O	2.010033	0.283603	-0.003410
O11	O	1.743694	-0.188803	-0.567626
O12	O	2.243694	0.311197	-0.067626
O13	O	1.574101	-0.244028	-0.269805
O14	O	2.074101	0.255972	0.230195
O15	O	1.446022	-0.115983	-0.439289
O16	O	1.946022	0.384017	0.060711
O17	O	1.743557	-0.244006	-0.439230
O18	O	2.243557	0.255994	0.060770
O19	O	1.574417	-0.115967	-0.567660
O20	O	2.074417	0.384033	-0.067660
O21	O	1.445842	-0.188841	-0.269830
O22	O	1.945842	0.311159	0.230170
O23	O	1.276475	-0.188808	-0.439230
O24	O	1.776475	0.311192	0.060770
O25	O	1.445863	-0.243949	-0.736981
O26	O	1.945863	0.256051	-0.236981
O27	O	1.276406	-0.243970	-0.567556
O28	O	1.776406	0.256030	-0.067556
O29	O	1.574327	-0.188770	-0.737026
O30	O	2.074327	0.311230	-0.237026
O31	O	1.574010	-0.316831	-0.439170
O32	O	2.074010	0.183169	0.060830
O33	O	1.445683	-0.316806	-0.567522
O34	O	1.945683	0.183194	-0.067522
C35	C	1.238523	-0.216388	-0.503390
C36	C	1.738523	0.283612	-0.003390
C37	C	1.122370	-0.216395	-0.503407
C38	C	1.622370	0.283605	-0.003407
C39	C	1.070579	-0.243734	-0.566808
C40	C	1.570579	0.256266	-0.066808
C41	C	0.950529	-0.243742	-0.566827
C42	C	1.450529	0.256258	-0.066827
C43	C	1.509844	-0.333119	-0.503359
C44	C	2.009844	0.166881	-0.003359
C45	C	1.509859	-0.383054	-0.503371
C46	C	2.009859	0.116946	-0.003371
C47	C	1.576974	-0.692697	-0.436675
C48	C	2.076974	-0.192697	0.063325
C49	C	1.577103	-0.880371	-0.436716
C50	C	2.077103	-0.380371	0.063284
O51	O	1.634017	-0.904636	-0.379969
O52	O	2.134017	-0.404636	0.120031
N53	N	1.510250	-0.903839	-0.503489
N54	N	2.010250	-0.403839	-0.003489
C55	C	1.443364	-0.880386	-0.570262
C56	C	1.943364	-0.380386	-0.070262
O57	O	1.386511	-0.904654	-0.627065
O58	O	1.886511	-0.404654	-0.127065
C59	C	1.443241	-0.692714	-0.570226
C60	C	1.943241	-0.192714	-0.070226
C61	C	1.510092	-0.669248	-0.503441
C62	C	2.010092	-0.169248	-0.003441
C63	C	1.643820	-0.669231	-0.369897
C64	C	2.143820	-0.169231	0.130103
C65	C	1.643783	-0.622316	-0.369883
C66	C	2.143783	-0.122316	0.130117
C67	C	1.576901	-0.598867	-0.436648
C68	C	2.076901	-0.098867	0.063352
C69	C	1.510055	-0.622333	-0.503427
C70	C	2.010055	-0.122333	-0.003427
C71	C	1.376361	-0.669262	-0.637003
C72	C	1.876361	-0.169262	-0.137003
C73	C	1.376338	-0.622341	-0.636990
C74	C	1.876338	-0.122341	-0.136990
C75	C	1.443189	-0.598875	-0.570205
C76	C	1.943189	-0.098875	-0.070205
C77	C	1.443135	-0.551968	-0.570179
C78	C	1.943135	-0.051968	-0.070179
N79	N	1.509988	-0.528499	-0.503406
N80	N	2.009988	-0.028499	-0.003406
C81	C	1.576871	-0.551949	-0.436641
C82	C	2.076871	-0.051949	0.063359
C83	C	1.443432	-0.978917	-0.570274
C84	C	1.943432	-0.478917	-0.070274
C85	C	1.443461	-1.025835	-0.570282
C86	C	1.943461	-0.525835	-0.070282
C87	C	1.577202	-1.025816	-0.436738
C88	C	2.077202	-0.525816	0.063262
C89	C	1.577167	-0.978897	-0.436725
C90	C	2.077167	-0.478897	0.063275
C91	C	1.510285	-0.955448	-0.503501
C92	C	2.010285	-0.455448	-0.003501
C93	C	1.576788	-0.453423	-0.436617
C94	C	2.076788	0.046577	0.063383
C95	C	1.576742	-0.406503	-0.436606
C96	C	2.076742	0.093497	0.063394
C97	C	1.443005	-0.406526	-0.570154
C98	C	1.943005	0.093474	-0.070154
C99	C	1.443047	-0.453442	-0.570161
C100	C	1.943047	0.046558	-0.070161
C101	C	1.509947	-0.476889	-0.503389
C102	C	2.009947	0.023111	-0.003389
O103	O	1.386259	-0.527674	-0.626905
O104	O	1.886259	-0.027674	-0.126905
O105	O	1.633732	-0.527673	-0.379862
O106	O	2.133732	-0.027673	0.120138
C107	C	1.577011	-0.739613	-0.436689
C108	C	2.077011	-0.239613	0.063311
C109	C	1.510165	-0.763079	-0.503468
C110	C	2.010165	-0.263079	-0.003468
C111	C	1.443283	-0.739629	-0.570233
C112	C	1.943283	-0.239629	-0.070233
C113	C	1.510195	-0.809997	-0.503476
C114	C	2.010195	-0.309997	-0.003476
C115	C	1.577078	-0.833446	-0.436710
C116	C	2.077078	-0.333446	0.063290
C117	C	1.643931	-0.809978	-0.369937
C118	C	2.143931	-0.309978	0.130063
C119	C	1.643894	-0.763062	-0.369924
C120	C	2.143894	-0.263062	0.130076
C121	C	1.376429	-0.763098	-0.637006
C122	C	1.876429	-0.263098	-0.137006
C123	C	1.376471	-0.810013	-0.637013
C124	C	1.876471	-0.310013	-0.137013
C125	C	1.443353	-0.833463	-0.570248
C126	C	1.943353	-0.333463	-0.070248
C127	C	1.782603	-0.216406	-0.503431
C128	C	2.282603	0.283594	-0.003431
C129	C	1.898756	-0.216410	-0.503440
C130	C	2.398756	0.283590	-0.003440
C131	C	1.510105	-0.216353	-0.775981
C132	C	2.010105	0.283647	-0.275981
C133	C	1.510136	-0.216335	-0.892134
C134	C	2.010136	0.283665	-0.392134
C135	C	1.510251	-0.099218	-0.503485
C136	C	2.010251	0.400782	-0.003485
C137	C	1.510344	-0.049284	-0.503517
C138	C	2.010344	0.450716	-0.003517
C139	C	1.573741	-0.189007	-1.063985
C140	C	2.073741	0.310993	-0.563985
C141	C	1.573711	-0.189025	-0.943935
C142	C	2.073711	0.310975	-0.443935
C143	C	1.510022	-0.216408	-0.231900
C144	C	2.010022	0.283592	0.268100
C145	C	1.510193	-0.216300	-0.115748
C146	C	2.010193	0.283700	0.384252
H147	H	0.943289	-0.193005	-0.449153
H148	H	1.443289	0.306995	0.050847
Cl149	Cl	1.657784	-0.152910	-1.132775
Cl150	Cl	2.157784	0.347090	-0.632775
Cl151	Cl	1.053618	-0.180264	-0.419624
Cl152	Cl	1.553618	0.319736	0.080376
H153	H	1.628111	-0.165657	-0.899420
H154	H	2.128111	0.334343	-0.399420
Cl155	Cl	1.292327	-0.698751	-0.720979
Cl156	Cl	1.792327	-0.198751	-0.220979
Cl157	Cl	1.426125	-0.252411	-0.960848
Cl158	Cl	1.926125	0.247589	-0.460848
H159	H	1.455770	-0.239682	-1.071187
H160	H	1.955770	0.260318	-0.571187
Cl161	Cl	1.727944	-0.733569	-0.285965
Cl162	Cl	2.227944	-0.233569	0.214035
H163	H	1.388966	-0.959828	-0.624653
H164	H	1.888966	-0.459828	-0.124653
Cl165	Cl	1.660790	-0.377006	-0.352642
Cl166	Cl	2.160790	0.122994	0.147358
H167	H	1.115115	-0.267132	-0.621079
H168	H	1.615115	0.232868	-0.121079
H169	H	1.698222	-0.603213	-0.315504
H170	H	2.198222	-0.103213	0.184496
Cl171	Cl	1.359404	-1.055329	-0.654232
Cl172	Cl	1.859404	-0.555329	-0.154232
H173	H	1.631603	-0.959794	-0.382344
H174	H	2.131603	-0.459794	0.117656
Cl175	Cl	1.660890	-0.482892	-0.352671
Cl176	Cl	2.160890	0.017108	0.147329
Cl177	Cl	0.881770	-0.279883	-0.650631
Cl178	Cl	1.381770	0.220117	-0.150631
Cl179	Cl	1.727914	-0.698702	-0.285952
Cl180	Cl	2.227914	-0.198702	0.214048
H181	H	1.631661	-1.044916	-0.382375
H182	H	2.131661	-0.544916	0.117625
H183	H	1.321877	-0.603251	-0.691370
H184	H	1.821877	-0.103251	-0.191370
H185	H	1.388615	-0.472549	-0.624546
H186	H	1.888615	0.027451	-0.124546
Cl187	Cl	1.358934	-0.377038	-0.654089
Cl188	Cl	1.858934	0.122962	-0.154089
Cl189	Cl	1.728010	-0.839466	-0.286003
Cl190	Cl	2.228010	-0.339466	0.213997
H191	H	1.322024	-0.829115	-0.691397
H192	H	1.822024	-0.329115	-0.191397
H193	H	1.321966	-0.744009	-0.691376
H194	H	1.821966	-0.244009	-0.191376
