data_functionalizedCrystal
_audit_creation_method	'MofGen! by Chris Wilmer'
_symmetry_space_group_name_H-M	'P1'
_symmetry_Int_Tables_number	1
_symmetry_cell_setting	triclinic
loop_
_symmetry_equiv_pos_as_xyz
  x,y,z
_cell_length_a	27.732048
_cell_length_b	15.944551
_cell_length_c	15.021413
_cell_angle_alpha	90.009504
_cell_angle_beta	89.999540
_cell_angle_gamma	83.070697
loop_
_atom_site_label
_atom_site_type_symbol
_atom_site_fract_x
_atom_site_fract_y
_atom_site_fract_z
O1	O	-0.641360	-0.099949	-0.073919
O2	O	-0.500632	-0.115146	-0.073947
O3	O	-0.574839	0.014778	-0.073924
O4	O	-0.567153	-0.229873	-0.073942
O5	O	-0.574833	0.014791	0.074140
O6	O	-0.500626	-0.115133	0.074118
O7	O	-0.641354	-0.099936	0.074145
Zn8	Zn	-0.570989	-0.107532	0.097640
Zn9	Zn	-0.570997	-0.107550	-0.097441
O10	O	-0.567147	-0.229859	0.074122
C11	C	-0.574517	0.046074	0.000108
C12	C	-0.573560	0.139308	0.000108
C13	C	-0.482621	-0.114820	0.000082
C14	C	-0.428962	-0.113860	0.000072
C15	C	-0.659365	-0.100262	0.000114
C16	C	-0.713024	-0.101222	0.000118
C17	C	-0.090453	-0.184589	0.000106
C18	C	0.111222	-0.181025	0.000114
O19	O	0.142198	-0.245701	0.000148
N20	N	0.130679	-0.103986	0.000118
C21	C	0.099715	-0.027832	0.000125
O22	O	0.120892	0.037776	0.000138
C23	C	-0.101960	-0.031397	0.000124
C24	C	-0.121414	-0.108441	0.000111
C25	C	-0.109908	-0.261627	0.000094
C26	C	-0.160324	-0.262517	0.000087
C27	C	-0.191285	-0.186369	0.000092
C28	C	-0.171830	-0.109331	0.000104
C29	C	-0.132923	0.044756	0.000138
C30	C	-0.183345	0.043858	0.000139
C31	C	-0.202799	-0.033186	0.000126
C32	C	-0.253206	-0.034073	0.000102
N33	N	-0.272664	-0.111113	0.000098
C34	C	-0.241703	-0.187260	0.000093
C35	C	0.205597	-0.025966	0.000125
C36	C	0.256015	-0.025074	0.000123
C37	C	0.267519	-0.178268	0.000113
C38	C	0.217100	-0.179158	0.000108
C39	C	0.186139	-0.103005	0.000121
C40	C	-0.347580	-0.189124	0.000078
C41	C	-0.398001	-0.190007	0.000067
C42	C	-0.409500	-0.036815	0.000082
C43	C	-0.359084	-0.035931	0.000088
C44	C	-0.328125	-0.112092	0.000089
O45	O	-0.284210	0.030569	0.000078
O46	O	-0.262890	-0.252859	0.000100
C47	C	-0.040037	-0.183699	0.000112
C48	C	-0.020582	-0.106661	0.000124
C49	C	-0.051543	-0.030513	0.000129
C50	C	0.029836	-0.105769	0.000123
C51	C	0.060797	-0.181917	0.000118
C52	C	0.041339	-0.258956	0.000114
C53	C	-0.009076	-0.259846	0.000107
C54	C	-0.032086	0.046526	0.000133
C55	C	0.018331	0.047410	0.000139
C56	C	0.049291	-0.028737	0.000134
C57	C	-0.567469	-0.261156	0.000088
C58	C	-0.568426	-0.354389	0.000082
N59	N	-0.570986	-0.107520	0.230777
C60	C	-0.525277	0.353533	0.000087
C61	C	-0.547695	0.414850	0.073096
C62	C	-0.571830	0.310011	0.000101
C63	C	-0.547712	0.414820	-0.072884
C64	C	-0.570155	0.474902	0.000090
C65	C	-0.594260	0.370100	0.073170
C66	C	-0.594271	0.370064	-0.072875
C67	C	-0.616723	0.431364	0.000152
C68	C	-0.572793	0.215021	0.000108
C69	C	-0.569195	0.569890	0.000090
N70	N	-0.571003	-0.107555	-0.230579
C71	C	-0.605043	-0.046973	0.529779
C72	C	-0.614818	-0.122516	0.470409
C73	C	-0.570998	-0.107545	0.587814
C74	C	-0.561240	-0.031992	0.470442
C75	C	-0.570993	-0.107528	0.412390
C76	C	-0.580795	-0.183125	0.529751
C77	C	-0.527197	-0.092552	0.529789
C78	C	-0.536954	-0.168150	0.470446
C79	C	-0.571002	-0.107553	0.688871
C80	C	-0.570989	-0.107529	0.311335
H81	H	-0.413838	-0.252749	0.000056
H82	H	-0.613947	0.350185	-0.134594
H83	H	-0.552988	0.031895	0.444389
H84	H	0.180392	0.036051	0.000135
H85	H	-0.528002	0.434706	0.134811
H86	H	-0.176158	-0.325254	0.000076
F87	F	-0.521969	0.440737	-0.153555
F88	F	-0.619973	0.344318	0.153935
H89	H	-0.490170	-0.079848	0.555892
F90	F	-0.065031	0.127578	0.000140
H91	H	-0.633854	0.004187	0.555829
F92	F	-0.667273	0.475368	0.000213
F93	F	-0.663228	-0.139080	0.436297
H94	H	-0.589087	-0.247028	0.555694
H95	H	-0.434718	0.025183	0.000082
F96	F	-0.474771	0.309338	0.000168
H97	H	-0.508161	-0.219422	0.444559
H98	H	-0.322378	-0.251142	0.000081
H99	H	-0.024911	-0.322584	0.000098
F100	F	-0.076964	-0.342681	0.000088
F101	F	0.196400	-0.261158	0.000096
H102	H	0.292736	-0.240270	0.000110
H103	H	-0.117093	0.107494	0.000149
F104	F	0.276714	0.056926	0.000117
H105	H	-0.208551	0.105873	0.000150
F106	F	-0.338379	0.046068	0.000102
H107	H	0.034165	0.110154	0.000143
F108	F	0.074299	-0.339998	0.000104
