data_functionalizedCrystal
_audit_creation_method	'MofGen! by Chris Wilmer'
_symmetry_space_group_name_H-M	'P1'
_symmetry_Int_Tables_number	1
_symmetry_cell_setting	triclinic
loop_
_symmetry_equiv_pos_as_xyz
  x,y,z
_cell_length_a	17.699097
_cell_length_b	10.967829
_cell_length_c	16.176319
_cell_angle_alpha	77.865348
_cell_angle_beta	89.988988
_cell_angle_gamma	84.014498
loop_
_atom_site_label
_atom_site_type_symbol
_atom_site_fract_x
_atom_site_fract_y
_atom_site_fract_z
O1	O	1.005071	0.157880	-0.091305
O2	O	0.784823	0.178392	-0.094214
O3	O	0.900025	-0.013531	-0.066876
O4	O	0.889869	0.349803	-0.118642
O5	O	0.900009	-0.013543	0.070619
O6	O	0.784807	0.178380	0.043281
O7	O	1.005055	0.157867	0.046190
Cu8	Cu	0.894929	0.168123	0.057290
Cu9	Cu	0.894948	0.168137	-0.105314
O10	O	0.889853	0.349791	0.018853
C11	C	0.756614	0.177648	-0.025359
C12	C	0.672582	0.175435	-0.025039
C13	C	0.156787	0.161874	-0.098087
C14	C	0.235744	0.163945	-0.098378
C15	C	0.275208	0.164976	-0.023574
C16	C	0.235711	0.163923	0.051527
C17	C	0.156756	0.161843	0.051819
C18	C	0.554128	0.172311	0.050354
C19	C	0.633089	0.174395	0.050056
C20	C	0.633116	0.174413	-0.099843
C21	C	0.554161	0.172333	-0.099552
C22	C	0.514672	0.171273	-0.024450
C23	C	0.429058	0.169025	-0.024135
C24	C	0.360820	0.167233	-0.023890
C25	C	0.899276	-0.060025	0.008493
C26	C	0.897062	-0.198544	0.028224
C27	C	0.896083	-0.260288	-0.034207
C28	C	0.893795	-0.403455	-0.013815
C29	C	1.033264	0.158611	-0.022666
C30	C	1.117296	0.160825	-0.022992
C31	C	0.890601	0.396285	-0.056519
C32	C	0.892816	0.534804	-0.076255
N33	N	0.894922	0.168112	0.171657
N34	N	0.894962	0.168138	-0.219679
C35	C	0.945948	0.083163	0.227021
C36	C	0.945952	0.083161	0.313568
C37	C	0.894932	0.168116	0.344749
C38	C	0.843900	0.253069	0.289378
C39	C	0.843893	0.253063	0.202833
C40	C	0.843926	0.253092	0.638403
C41	C	0.843938	0.253094	0.724954
C42	C	0.945985	0.083191	0.749138
C43	C	0.945978	0.083185	0.662593
C44	C	0.894944	0.168133	0.607231
C45	C	0.894939	0.168132	0.513387
C46	C	0.894940	0.168124	0.438590
H47	H	0.665278	0.175270	-0.160994
H48	H	0.892934	-0.456579	0.054735
H49	H	0.896201	-0.251673	0.096769
H50	H	0.893663	-0.412071	-0.144805
Br51	Br	0.103236	0.160489	-0.199615
H52	H	0.987498	0.013988	0.201640
H53	H	0.522033	0.171500	-0.160466
Br54	Br	1.015201	-0.032132	0.388709
H55	H	0.896936	-0.207158	-0.102752
H56	H	0.521987	0.171430	0.111509
Br57	Br	1.015225	-0.032107	0.620279
H58	H	0.665218	0.175234	0.110975
Br59	Br	0.774693	0.368398	0.767270
Br60	Br	0.289269	0.165316	0.153050
H61	H	0.124602	0.161002	0.112967
H62	H	0.987538	0.014017	0.794225
H63	H	0.802373	0.322262	0.593333
Br64	Br	0.774651	0.368359	0.331692
H65	H	0.267895	0.164792	-0.159528
Br66	Br	0.774634	0.368348	0.127696
