data_functionalizedCrystal
_audit_creation_method	'MofGen! by Chris Wilmer'
_symmetry_space_group_name_H-M	'P1'
_symmetry_Int_Tables_number	1
_symmetry_cell_setting	triclinic
loop_
_symmetry_equiv_pos_as_xyz
  x,y,z
_cell_length_a	14.446369
_cell_length_b	19.902436
_cell_length_c	14.446369
_cell_angle_alpha	59.992723
_cell_angle_beta	90.000000
_cell_angle_gamma	60.001138
loop_
_atom_site_label
_atom_site_type_symbol
_atom_site_fract_x
_atom_site_fract_y
_atom_site_fract_z
Zr1	Zr	0.891790	0.735455	-0.121545
O2	O	0.743982	0.875646	-0.269379
O3	O	0.937098	0.595271	-0.076214
O4	O	0.937099	0.735459	-0.269353
O5	O	0.743984	0.735453	0.076098
O6	O	1.089436	0.735453	-0.269348
O7	O	0.743981	0.735459	-0.076239
O8	O	1.089435	0.484682	0.076144
O9	O	0.743985	0.986223	-0.269394
O10	O	1.070112	0.652923	-0.056892
O11	O	0.956427	0.652923	0.056792
O12	O	0.956428	0.817976	-0.170605
O13	O	0.842742	0.817976	-0.056922
Zr14	Zr	1.134754	0.735435	0.121424
Zr15	Zr	1.134750	0.735445	-0.121536
Zr16	Zr	0.891794	0.735445	0.121415
Zr17	Zr	0.891795	0.911811	-0.121569
Zr18	Zr	1.134749	0.559079	0.121447
O19	O	1.089446	0.875619	0.076092
O20	O	1.089440	0.875633	-0.269366
O21	O	0.743988	0.875633	0.076079
O22	O	1.282562	0.595243	0.269257
O23	O	1.282556	0.595257	-0.076201
O24	O	0.937104	0.595257	0.269244
O25	O	1.282560	0.735437	-0.076220
O26	O	1.089445	0.735431	0.269231
O27	O	0.937108	0.735437	0.269226
O28	O	1.282563	0.735431	0.076118
O29	O	0.937106	0.986215	-0.269387
O30	O	1.089438	0.484675	0.269265
O31	O	1.282559	0.484667	0.269272
O32	O	1.282556	0.484675	0.076151
O33	O	0.743988	0.986215	-0.076273
O34	O	0.937109	0.986208	-0.076266
O35	O	1.070117	0.652914	0.170483
O36	O	1.183802	0.652914	0.056800
O37	O	1.070117	0.817967	-0.056914
O38	O	0.956432	0.817967	0.056770
C39	C	0.709366	0.735457	-0.000072
C40	C	0.606223	0.735461	-0.000076
C41	C	1.013266	0.514850	-0.000031
C42	C	1.013264	0.439982	-0.000021
C43	C	0.387856	0.839549	-0.071434
C44	C	0.495088	0.839619	-0.071835
C45	C	0.602897	0.683758	-0.052370
C46	C	0.495128	0.684419	-0.052893
C47	C	0.496495	0.682268	0.123667
C48	C	0.602464	0.684230	0.123472
C49	C	1.013275	0.167971	-0.000075
C50	C	0.941907	0.196210	0.071986
C51	C	0.941520	0.274329	0.071689
C52	C	1.013269	0.302918	-0.000047
C53	C	0.960964	0.338489	-0.123594
C54	C	0.960427	0.260651	-0.123214
C55	C	1.136984	0.133449	0.050421
C56	C	1.136803	0.210502	0.052936
C57	C	1.013267	0.379187	-0.000039
C58	C	1.013273	0.091707	-0.000091
C59	C	1.317178	0.735433	-0.000050
C60	C	1.420321	0.735429	-0.000046
C61	C	1.013267	0.735457	-0.303967
C62	C	1.013265	0.735461	-0.407110
C63	C	1.013278	0.956040	-0.000090
C64	C	1.013281	1.030908	-0.000100
C65	C	0.941217	0.839549	-0.625495
C66	C	0.941522	0.839619	-0.518263
C67	C	1.136797	0.683751	-0.410422
C68	C	1.136410	0.684412	-0.518191
C69	C	0.962802	0.682275	-0.516833
C70	C	0.960295	0.684237	-0.410865
C71	C	1.013278	0.735433	0.303845
C72	C	1.013279	0.735429	0.406988
C73	C	1.317172	0.514837	-0.000020
C74	C	1.420313	0.439965	-0.000006
C75	C	1.013271	0.514837	0.303875
C76	C	1.013271	0.439965	0.407028
C77	C	1.317177	0.514825	0.303886
C78	C	1.420320	0.439949	0.407043
C79	C	0.709367	0.956065	-0.304008
C80	C	0.606224	1.030941	-0.407164
C81	C	0.709372	0.956052	-0.000101
C82	C	0.606232	1.030925	-0.000115
C83	C	1.013273	0.956052	-0.303996
C84	C	1.013273	1.030925	-0.407149
C85	C	1.409404	0.404809	-0.059356
C86	C	1.506306	0.334469	-0.059366
C87	C	1.614116	0.299281	-0.000019
C88	C	1.625023	0.334444	0.059333
C89	C	1.528122	0.404788	0.059335
C90	C	1.072615	0.404800	0.514825
C91	C	1.072611	0.334459	0.611758
C92	C	1.013268	0.299281	0.600890
C93	C	0.953916	0.334453	0.493081
C94	C	0.953914	0.404797	0.396151
C95	C	1.528110	0.404786	0.396145
C96	C	1.625032	0.334442	0.493062
C97	C	1.614163	0.299257	0.600876
C98	C	1.506362	0.334426	0.611772
C99	C	1.409442	0.404774	0.514856
C100	C	0.498435	1.066112	-0.396266
C101	C	0.401512	1.136478	-0.493184
C102	C	0.412381	1.171667	-0.600998
C103	C	0.520182	1.136493	-0.611894
C104	C	0.617103	1.066133	-0.514977
C105	C	0.617140	1.066088	0.059224
C106	C	0.520238	1.136448	0.059207
C107	C	0.412428	1.171639	-0.000143
C108	C	0.401521	1.136472	-0.059490
C109	C	0.498423	1.066118	-0.059479
C110	C	1.072628	1.066081	-0.396245
C111	C	1.072650	1.136422	-0.493159
C112	C	1.013311	1.171610	-0.600976
C113	C	0.953954	1.136447	-0.611878
C114	C	0.953939	1.066102	-0.514965
H115	H	0.493330	0.880392	-0.037031
H116	H	1.693091	0.241975	0.679783
C117	C	0.888644	0.443467	0.277577
H118	H	0.897130	0.490404	0.221396
H119	H	0.917955	0.392954	0.269105
H120	H	0.810566	0.470916	0.269073
C121	C	1.743617	0.295722	0.124620
H122	H	1.799756	0.248785	0.116123
H123	H	1.752143	0.346210	0.095325
H124	H	1.752123	0.268260	0.202706
H125	H	1.120984	1.165044	-0.484260
H126	H	1.013278	0.242002	0.679826
C127	C	1.743601	0.295737	0.481063
H128	H	1.799774	0.248802	0.554218
H129	H	1.752066	0.268296	0.440806
H130	H	1.752114	0.346236	0.440772
H131	H	0.873216	0.715594	-0.566864
C132	C	0.988877	0.238348	0.194585
H133	H	0.988699	0.286154	0.194568
H134	H	0.942899	0.223946	0.236169
H135	H	1.064256	0.182751	0.228835
H136	H	1.497529	0.305768	0.699567
H137	H	0.976806	0.131699	0.163190
H138	H	1.120949	1.037441	-0.308464
H139	H	1.013332	1.228889	-0.679879
C140	C	0.533576	0.578651	0.195866
H141	H	0.579588	0.546891	0.270522
H142	H	0.468435	0.577822	0.198698
H143	H	0.575599	0.547311	0.162916
C144	C	1.191771	0.732263	-0.407550
H145	H	1.139634	0.784022	-0.404339
H146	H	1.258028	0.687709	-0.342570
H147	H	1.211545	0.755006	-0.473991
C148	C	0.532249	1.175121	0.124489
H149	H	0.459103	1.222072	0.115975
H150	H	0.572513	1.124614	0.202571
H151	H	0.572530	1.202555	0.095173
C152	C	0.531124	0.581226	0.012799
H153	H	0.611485	0.539087	0.039680
H154	H	0.504029	0.567517	0.075259
H155	H	0.500079	0.573410	-0.036031
C156	C	0.486415	1.027432	-0.124741
H157	H	0.559560	0.980494	-0.116246
H158	H	0.446138	1.000001	-0.095424
H159	H	0.446146	1.077943	-0.202828
H160	H	0.313729	1.165135	-0.107812
C161	C	1.137891	0.443490	0.526796
H162	H	1.129407	0.490418	0.453636
H163	H	1.108579	0.470936	0.567053
H164	H	1.215970	0.392980	0.567079
H165	H	0.489563	1.037465	-0.308487
C166	C	0.819367	0.231270	0.025110
H167	H	0.811510	0.228776	-0.038189
H168	H	0.802503	0.191806	0.082398
H169	H	0.768489	0.294872	0.002177
C170	C	0.888648	0.295749	0.481135
H171	H	0.853293	0.326767	0.403053
H172	H	0.939880	0.229331	0.516498
H173	H	0.832489	0.307287	0.516473
H174	H	1.321678	0.433395	0.523745
C175	C	1.137912	0.295774	0.730333
H176	H	1.173268	0.326791	0.722914
H177	H	1.086703	0.307309	0.770612
H178	H	1.194073	0.229352	0.770617
C179	C	1.540135	0.443441	0.124639
H180	H	1.618223	0.412397	0.159990
H181	H	1.504803	0.509859	0.073427
H182	H	1.504810	0.431892	0.180812
H183	H	0.529019	1.165153	-0.699688
C184	C	1.189586	0.171647	0.175900
H185	H	1.136574	0.211577	0.194878
H186	H	1.208732	0.109149	0.225767
H187	H	1.256008	0.170261	0.182912
H188	H	0.313745	1.165105	-0.484290
C189	C	0.837453	0.300557	-0.177807
H190	H	0.788293	0.364092	-0.200003
H191	H	0.831855	0.299501	-0.242522
H192	H	0.816335	0.262706	-0.124560
C193	C	0.305763	1.249049	-0.707596
H194	H	0.240014	1.264942	-0.685654
H195	H	0.305736	1.303945	-0.751460
H196	H	0.305751	1.225983	-0.751426
H197	H	0.905641	1.165108	-0.699675
C198	C	1.209160	0.107966	-0.020134
H199	H	1.164183	0.118289	-0.080065
H200	H	1.236027	0.146818	-0.050849
H201	H	1.271788	0.043055	0.026987
C202	C	1.290825	0.443509	-0.124650
H203	H	1.298223	0.412497	-0.160004
H204	H	1.250546	0.431978	-0.073435
H205	H	1.250560	0.509931	-0.180820
C206	C	0.305847	1.249023	-0.000143
H207	H	0.327794	1.264914	0.043709
H208	H	0.261999	1.303919	-0.075755
H209	H	0.262004	1.225965	0.031645
C210	C	1.540082	0.443484	0.277559
H211	H	1.466929	0.490413	0.221389
H212	H	1.580345	0.470929	0.269058
H213	H	1.580354	0.392977	0.269068
C214	C	1.196003	0.041549	0.171457
H215	H	1.270530	0.021933	0.200360
H216	H	1.154101	0.052928	0.218759
H217	H	1.199797	-0.006917	0.169918
C218	C	0.888629	1.027449	-0.526974
H219	H	0.853285	1.058493	-0.605067
H220	H	0.939830	0.961031	-0.491630
H221	H	0.832458	1.038998	-0.491651
H222	H	0.704867	1.037497	-0.523864
C223	C	0.708624	0.580301	0.014477
H224	H	0.704876	0.550365	-0.018569
H225	H	0.774752	0.579679	0.012268
H226	H	0.711456	0.547025	0.090979
C227	C	0.314951	0.894760	-0.024306
H228	H	0.303650	0.854812	0.039325
H229	H	0.352556	0.914702	-0.001844
H230	H	0.243649	0.948825	-0.081326
C231	C	0.735719	1.027390	0.124516
H232	H	0.728321	1.058423	0.159841
H233	H	0.775990	0.960974	0.180689
H234	H	0.775992	1.038922	0.073288
C235	C	0.839179	0.429029	-0.178597
H236	H	0.820023	0.445279	-0.126462
H237	H	0.834338	0.479720	-0.244846
H238	H	0.788040	0.417941	-0.198399
C239	C	0.313599	0.894486	-0.193981
H240	H	0.302299	0.854243	-0.201829
H241	H	0.242372	0.948312	-0.210855
H242	H	0.350337	0.914777	-0.244864
H243	H	0.492641	0.880439	-0.163094
H244	H	0.444783	0.721167	-0.143929
H245	H	1.176818	0.721157	-0.568540
H246	H	1.194457	0.226107	0.005908
C247	C	0.837349	0.735169	-0.411583
H248	H	0.818371	0.787430	-0.409594
H249	H	0.787474	0.757467	-0.478528
H250	H	0.830359	0.692033	-0.347050
C251	C	0.605768	0.732279	-0.174187
H252	H	0.608988	0.784038	-0.193360
H253	H	0.670737	0.687730	-0.179067
H254	H	0.539328	0.755025	-0.225294
H255	H	0.446473	0.715580	0.167354
H256	H	0.601948	0.721928	0.162539
H257	H	0.681622	0.608240	0.181136
H258	H	0.850270	0.338792	0.036679
C259	C	1.026089	0.239114	-0.199701
H260	H	1.026207	0.191440	-0.199985
H261	H	0.990640	0.295271	-0.274741
H262	H	1.101933	0.217334	-0.171553
H263	H	0.850556	0.880200	-0.519896
C264	C	0.988071	0.894483	-0.699771
H265	H	1.051361	0.854239	-0.711067
H266	H	0.930777	0.948307	-0.771006
H267	H	1.011002	0.914779	-0.663047
H268	H	0.850018	0.880414	-0.679456
H269	H	1.010449	0.359382	-0.179609
H270	H	1.193018	0.608020	-0.491525
C271	C	1.212483	0.580296	-0.304671
H272	H	1.169315	0.567692	-0.257444
H273	H	1.240553	0.538357	-0.327295
H274	H	1.274269	0.571022	-0.264017
H275	H	0.976534	0.880444	-0.520721
H276	H	1.007326	0.608247	-0.331695
H277	H	1.015040	0.605572	-0.489373
C278	C	1.494289	0.295792	-0.124641
H279	H	1.416201	0.326815	-0.159964
H280	H	1.529609	0.307326	-0.180814
H281	H	1.529628	0.229371	-0.073401
H282	H	1.693010	0.242001	-0.000029
