data_functionalizedCrystal
_audit_creation_method	'MofGen! by Chris Wilmer'
_symmetry_space_group_name_H-M	'P1'
_symmetry_Int_Tables_number	1
_symmetry_cell_setting	triclinic
loop_
_symmetry_equiv_pos_as_xyz
  x,y,z
_cell_length_a	16.109301
_cell_length_b	7.681481
_cell_length_c	16.109301
_cell_angle_alpha	95.741881
_cell_angle_beta	83.461481
_cell_angle_gamma	84.275465
loop_
_atom_site_label
_atom_site_type_symbol
_atom_site_fract_x
_atom_site_fract_y
_atom_site_fract_z
O1	O	1.095274	0.146325	0.114735
O2	O	1.595274	0.646325	0.614735
O3	O	0.853211	0.146354	0.128036
O4	O	1.353211	0.646354	0.628036
O5	O	0.980893	0.146321	0.000353
O6	O	1.480893	0.646321	0.500353
O7	O	0.967592	0.146358	0.242417
O8	O	1.467592	0.646358	0.742417
O9	O	0.996609	-0.146541	-0.015398
O10	O	1.496609	0.353459	0.484602
O11	O	0.868926	-0.146508	0.112285
O12	O	1.368926	0.353492	0.612285
O13	O	1.110990	-0.146537	0.098984
O14	O	1.610990	0.353463	0.598984
Zn15	Zn	0.992453	-0.193021	0.103133
Zn16	Zn	1.492453	0.306979	0.603133
Zn17	Zn	0.971747	0.192838	0.123886
Zn18	Zn	1.471747	0.692838	0.623886
O19	O	0.983307	-0.146504	0.226666
O20	O	1.483307	0.353496	0.726666
C21	C	0.830093	-0.000074	0.119622
C22	C	1.330093	0.499926	0.619622
C23	C	0.737798	-0.000063	0.118007
C24	C	1.237798	0.499937	0.618007
N25	N	1.006591	-0.456358	0.088970
N26	N	1.506591	0.043642	0.588970
C27	C	0.515526	-0.000073	0.190014
C28	C	1.015526	0.499927	0.690014
C29	C	0.428806	-0.000084	0.188490
C30	C	0.928806	0.499916	0.688490
C31	C	0.448681	-0.000100	0.037000
C32	C	0.948681	0.499900	0.537000
C33	C	0.535400	-0.000101	0.038525
C34	C	1.035400	0.499899	0.538525
C35	C	0.568819	-0.000079	0.115035
C36	C	1.068819	0.499921	0.615035
C37	C	0.395381	-0.000089	0.111986
C38	C	0.895381	0.499911	0.611986
C39	C	0.301355	-0.000101	0.110332
C40	C	0.801355	0.499899	0.610332
C41	C	0.662851	-0.000069	0.116689
C42	C	1.162851	0.499931	0.616689
C43	C	1.134107	-0.000105	0.107398
C44	C	1.634107	0.499895	0.607398
C45	C	1.226402	-0.000104	0.109013
C46	C	1.726402	0.499896	0.609013
C47	C	0.988212	-0.000111	-0.038497
C48	C	1.488212	0.499889	0.461503
C49	C	0.986597	-0.000113	-0.130792
C50	C	1.486597	0.499887	0.369208
N51	N	0.957617	0.456175	0.138043
N52	N	1.457617	0.956175	0.638043
C53	C	1.058604	-0.000094	-0.353064
C54	C	1.558604	0.499906	0.146936
C55	C	1.057079	-0.000079	-0.439783
C56	C	1.557079	0.499921	0.060217
C57	C	0.905590	-0.000068	-0.419908
C58	C	1.405590	0.499932	0.080092
C59	C	0.907115	-0.000070	-0.333190
C60	C	1.407115	0.499930	0.166810
C61	C	0.983625	-0.000092	-0.299771
C62	C	1.483625	0.499908	0.200229
C63	C	0.980575	-0.000075	-0.473209
C64	C	1.480575	0.499925	0.026791
C65	C	0.978921	-0.000060	-0.567234
C66	C	1.478921	0.499940	-0.067234
C67	C	0.985279	-0.000105	-0.205739
C68	C	1.485279	0.499895	0.294261
C69	C	0.975988	-0.000068	0.265517
C70	C	1.475988	0.499932	0.765517
C71	C	0.977602	-0.000054	0.357813
C72	C	1.477602	0.499946	0.857813
H73	H	0.542733	-0.000067	0.252313
H74	H	1.042733	0.499933	0.752313
H75	H	1.118135	-0.000077	-0.483172
H76	H	1.618135	0.499923	0.016828
H77	H	0.578794	-0.000111	-0.022536
H78	H	1.078794	0.499889	0.477464
H79	H	0.907624	-0.468615	0.188133
H80	H	1.407624	0.031385	0.688133
H81	H	0.385417	-0.000083	0.249545
H82	H	0.885417	0.499917	0.749545
H83	H	1.056593	-0.531577	0.038883
H84	H	1.556593	-0.031577	0.538883
H85	H	1.120903	-0.000108	-0.325857
H86	H	1.620903	0.499892	0.174143
H87	H	0.846054	-0.000064	-0.289796
H88	H	1.346054	0.499936	0.210204
H89	H	0.843298	-0.000054	-0.447130
H90	H	1.343298	0.499946	0.052870
H91	H	0.421461	-0.000129	-0.025292
H92	H	0.921461	0.499871	0.474708
