data_functionalizedCrystal
_audit_creation_method	'MofGen! by Chris Wilmer'
_symmetry_space_group_name_H-M	'P1'
_symmetry_Int_Tables_number	1
_symmetry_cell_setting	triclinic
loop_
_symmetry_equiv_pos_as_xyz
  x,y,z
_cell_length_a	9.065218
_cell_length_b	15.021413
_cell_length_c	9.065215
_cell_angle_alpha	89.997778
_cell_angle_beta	85.015291
_cell_angle_gamma	89.993324
loop_
_atom_site_label
_atom_site_type_symbol
_atom_site_fract_x
_atom_site_fract_y
_atom_site_fract_z
O1	O	1.960376	0.074032	0.216346
O2	O	1.531091	0.074033	0.234093
O3	O	1.754609	0.074029	0.010577
O4	O	1.736858	0.074037	0.439862
O5	O	1.754636	-0.074035	0.010591
O6	O	1.531118	-0.074031	0.234107
O7	O	1.960403	-0.074032	0.216361
Zn8	Zn	1.745764	-0.097540	0.225236
Zn9	Zn	1.745729	0.097541	0.225217
O10	O	1.736885	-0.074027	0.439877
C11	C	1.476118	0.000002	0.232394
C12	C	1.312275	0.000002	0.227295
N13	N	1.745799	-0.230677	0.225248
C14	C	1.849174	-0.470339	0.121871
C15	C	1.715461	-0.529668	0.091432
C16	C	1.745765	-0.412284	0.225229
C17	C	1.879444	-0.529697	0.255581
C18	C	1.745743	-0.587708	0.225208
C19	C	1.611983	-0.470307	0.194724
C20	C	1.776055	-0.470331	0.358931
C21	C	1.642246	-0.529633	0.328548
C22	C	1.745779	-0.311227	0.225238
C23	C	1.745714	-0.688763	0.225200
C24	C	2.015376	0.000002	0.218059
C25	C	2.179219	0.000008	0.223159
C26	C	1.752917	-0.000002	-0.044403
C27	C	1.747819	0.000001	-0.208246
N28	N	1.745706	0.230679	0.225193
C29	C	1.738576	0.000006	0.494856
C30	C	1.743674	0.000009	0.658699
H31	H	1.936531	-0.444303	0.034414
N32	N	1.526275	-0.563918	0.444311
H33	H	1.575362	-0.600953	0.519146
H34	H	1.473303	-0.511953	0.495963
N35	N	1.681504	-0.564207	-0.058342
H36	H	1.588163	-0.601194	-0.047240
H37	H	1.667125	-0.512356	-0.126559
H38	H	1.498896	-0.444329	0.168915
H39	H	1.801735	-0.444247	0.471974
H40	H	1.992503	-0.555784	0.281262
