data_functionalizedCrystal
_audit_creation_method	'MofGen! by Chris Wilmer'
_symmetry_space_group_name_H-M	'P1'
_symmetry_Int_Tables_number	1
_symmetry_cell_setting	triclinic
loop_
_symmetry_equiv_pos_as_xyz
  x,y,z
_cell_length_a	19.805407
_cell_length_b	19.805405
_cell_length_c	19.805399
_cell_angle_alpha	90.026615
_cell_angle_beta	90.019573
_cell_angle_gamma	90.026726
loop_
_atom_site_label
_atom_site_type_symbol
_atom_site_fract_x
_atom_site_fract_y
_atom_site_fract_z
Zn1	Zn	1.034734	-0.269479	0.382724
Zn2	Zn	1.368068	0.063854	0.716058
Zn3	Zn	1.701401	0.397188	1.049391
Zn4	Zn	1.034648	-0.382667	0.269538
Zn5	Zn	1.367982	-0.049334	0.602871
Zn6	Zn	1.701315	0.283999	0.936205
Zn7	Zn	0.921549	-0.269498	0.269549
Zn8	Zn	1.254882	0.063836	0.602882
Zn9	Zn	1.588216	0.397169	0.936215
Zn10	Zn	0.921512	-0.382631	0.382685
Zn11	Zn	1.254845	-0.049298	0.716018
Zn12	Zn	1.588178	0.284035	1.049351
O13	O	0.978111	-0.326069	0.326124
O14	O	1.311444	0.007265	0.659457
O15	O	1.644777	0.340598	0.992791
O16	O	1.129439	-0.284501	0.367722
O17	O	1.462773	0.048833	0.701055
O18	O	1.796106	0.382166	1.034388
O19	O	1.019625	-0.367678	0.174823
O20	O	1.352958	-0.034345	0.508156
O21	O	1.686292	0.298989	0.841489
O22	O	0.936615	-0.174778	0.284583
O23	O	1.269948	0.158555	0.617916
O24	O	1.603281	0.491888	0.951250
O25	O	1.129376	-0.367660	0.284564
O26	O	1.462710	-0.034326	0.617898
O27	O	1.796043	0.299007	0.951231
O28	O	1.019771	-0.174765	0.367732
O29	O	1.353105	0.158569	0.701066
O30	O	1.686438	0.491902	1.034399
O31	O	0.936531	-0.284533	0.174831
O32	O	1.269865	0.048801	0.508164
O33	O	1.603198	0.382134	0.841497
O34	O	0.826827	-0.284498	0.284544
O35	O	1.160161	0.048836	0.617878
O36	O	1.493494	0.382169	0.951211
O37	O	0.936551	-0.367598	0.477406
O38	O	1.269885	-0.034265	0.810740
O39	O	1.603218	0.299068	1.144073
O40	O	0.826800	-0.367617	0.367665
O41	O	1.160133	-0.034283	0.700998
O42	O	1.493467	0.299050	1.034332
O43	O	1.019735	-0.284466	0.477436
O44	O	1.353069	0.048867	0.810769
O45	O	1.686402	0.382201	1.144102
O46	O	1.019589	-0.477379	0.284526
O47	O	1.352922	-0.144046	0.617859
O48	O	1.686256	0.189288	0.951193
O49	O	0.936468	-0.477353	0.367654
O50	O	1.269801	-0.144019	0.700988
O51	O	1.603135	0.189314	1.034321
C52	C	0.802255	-0.326056	0.326102
C53	C	1.135588	0.007278	0.659435
C54	C	1.468921	0.340611	0.992769
C55	C	0.727023	-0.326067	0.326109
C56	C	1.060356	0.007267	0.659442
C57	C	1.393689	0.340600	0.992775
C58	C	0.691682	-0.369412	0.369319
C59	C	1.025015	-0.036078	0.702653
C60	C	1.358349	0.297255	1.035986
C61	C	0.620994	-0.369413	0.369329
C62	C	0.954327	-0.036080	0.702662
C63	C	1.287660	0.297254	1.035996
C64	C	0.585647	-0.326072	0.326124
C65	C	0.918981	0.007262	0.659457
C66	C	1.252314	0.340595	0.992790
C67	C	0.620993	-0.282722	0.282911
C68	C	0.954326	0.050611	0.616245
C69	C	1.287659	0.383945	0.949578
C70	C	0.691680	-0.282718	0.282906
C71	C	1.025013	0.050616	0.616239
C72	C	1.358347	0.383949	0.949572
C73	C	0.335920	-0.282737	0.282934
C74	C	0.669253	0.050596	0.616267
C75	C	1.002586	0.383930	0.949600
C76	C	0.265227	-0.282746	0.282941
C77	C	0.598561	0.050588	0.616274
C78	C	0.931894	0.383921	0.949608
C79	C	0.265233	-0.369432	0.369357
C80	C	0.598567	-0.036099	0.702690
C81	C	0.931900	0.297235	1.036024
C82	C	0.335920	-0.369428	0.369351
C83	C	0.669254	-0.036094	0.702685
C84	C	1.002587	0.297239	1.036018
C85	C	0.371260	-0.326076	0.326142
C86	C	0.704593	0.007258	0.659475
C87	C	1.037926	0.340591	0.992808
C88	C	0.447908	-0.326074	0.326133
C89	C	0.781242	0.007259	0.659466
C90	C	1.114575	0.340593	0.992799
C91	C	0.509000	-0.326076	0.326129
C92	C	0.842333	0.007257	0.659462
C93	C	1.175667	0.340590	0.992795
C94	C	0.978034	-0.501925	0.326099
C95	C	1.311367	-0.168591	0.659433
C96	C	1.644700	0.164742	0.992766
C97	C	0.978063	-0.577157	0.326112
C98	C	1.311396	-0.243823	0.659445
C99	C	1.644729	0.089510	0.992778
C100	C	1.021337	-0.612436	0.369441
C101	C	1.354670	-0.279102	0.702775
C102	C	1.688003	0.054231	1.036108
C103	C	1.021361	-0.683124	0.369454
C104	C	1.354694	-0.349791	0.702787
C105	C	1.688028	-0.016457	1.036121
C106	C	0.978114	-0.718532	0.326133
C107	C	1.311448	-0.385199	0.659466
C108	C	1.644781	-0.051866	0.992799
C109	C	0.934835	-0.683249	0.282801
C110	C	1.268169	-0.349915	0.616134
C111	C	1.601502	-0.016582	0.949468
C112	C	0.934808	-0.612561	0.282792
C113	C	1.268141	-0.279228	0.616126
C114	C	1.601475	0.054105	0.949459
C115	C	0.934944	-0.968322	0.282836
C116	C	1.268277	-0.634988	0.616169
C117	C	1.601611	-0.301655	0.949502
C118	C	0.934976	-1.039014	0.282846
C119	C	1.268310	-0.705681	0.616180
C120	C	1.601643	-0.372347	0.949513
C121	C	1.021497	-1.038884	0.369497
C122	C	1.354831	-0.705551	0.702831
C123	C	1.688164	-0.372218	1.036164
C124	C	1.021470	-0.968197	0.369489
C125	C	1.354803	-0.634864	0.702822
C126	C	1.688137	-0.301531	1.036155
C127	C	0.978189	-0.932920	0.326160
C128	C	1.311522	-0.599586	0.659493
C129	C	1.644855	-0.266253	0.992826
C130	C	0.978162	-0.856271	0.326147
C131	C	1.311495	-0.522938	0.659481
C132	C	1.644829	-0.189605	0.992814
C133	C	0.978144	-0.795179	0.326141
C134	C	1.311477	-0.461846	0.659474
C135	C	1.644811	-0.128513	0.992808
C136	C	1.154653	-0.326082	0.326146
C137	C	1.487987	0.007251	0.659480
C138	C	1.821320	0.340584	0.992813
C139	C	1.229885	-0.326088	0.326156
C140	C	1.563219	0.007245	0.659489
C141	C	1.896552	0.340579	0.992822
C142	C	0.978149	-0.326026	0.502667
C143	C	1.311482	0.007307	0.836000
C144	C	1.644815	0.340641	1.169333
C145	C	0.978165	-0.326008	0.577899
C146	C	1.311498	0.007325	0.911232
C147	C	1.644832	0.340659	1.244565
C148	C	0.978207	-0.149526	0.326163
C149	C	1.311540	0.183807	0.659497
C150	C	1.644873	0.517141	0.992830
C151	C	0.978248	-0.074294	0.326180
C152	C	1.311581	0.259039	0.659513
C153	C	1.644914	0.592373	0.992847
C154	C	0.978112	-0.326062	0.150268
C155	C	1.311445	0.007271	0.483601
C156	C	1.644779	0.340604	0.816935
C157	C	0.978227	-0.325890	0.075036
C158	C	1.311560	0.007444	0.408370
C159	C	1.644894	0.340777	0.741703
C160	C	1.021480	-0.282719	0.613259
C161	C	1.354813	0.050615	0.946592
C162	C	1.688147	0.383948	1.279926
C163	C	1.021487	-0.282699	0.683948
C164	C	1.354820	0.050634	1.017281
C165	C	1.688153	0.383968	1.350614
C166	C	0.978182	-0.325973	0.719274
C167	C	1.311515	0.007361	1.052608
C168	C	1.644848	0.340694	1.385941
C169	C	0.934862	-0.369264	0.683909
C170	C	1.268195	-0.035930	1.017242
C171	C	1.601529	0.297403	1.350576
C172	C	0.934852	-0.369279	0.613222
C173	C	1.268186	-0.035946	0.946555
C174	C	1.601519	0.297387	1.279888
C175	C	0.934900	-0.369201	0.968982
C176	C	1.268234	-0.035867	1.302316
C177	C	1.601567	0.297466	1.635649
C178	C	0.934915	-0.369183	1.039675
C179	C	1.268248	-0.035850	1.373008
C180	C	1.601582	0.297484	1.706341
C181	C	1.021535	-0.282620	1.039708
C182	C	1.354868	0.050713	1.373042
C183	C	1.688202	0.384046	1.706375
C184	C	1.021525	-0.282636	0.969021
C185	C	1.354858	0.050697	1.302354
C186	C	1.688192	0.384031	1.635688
C187	C	0.978203	-0.325924	0.933662
C188	C	1.311536	0.007409	1.266995
C189	C	1.644870	0.340742	1.600328
C190	C	0.978195	-0.325944	0.857013
C191	C	1.311529	0.007389	1.190347
C192	C	1.644862	0.340723	1.523680
C193	C	0.978193	-0.325957	0.795922
C194	C	1.311526	0.007377	1.129255
C195	C	1.644859	0.340710	1.462588
H196	H	0.236451	-0.404729	0.404543
H197	H	0.569785	-0.071395	0.737876
H198	H	0.903118	0.261938	1.071210
H199	H	1.056737	-1.067616	0.404780
H200	H	1.390070	-0.734282	0.738113
H201	H	1.723403	-0.400949	1.071447
H202	H	0.236450	-0.247448	0.247758
H203	H	0.569784	0.085885	0.581092
H204	H	0.903117	0.419219	0.914425
H205	H	0.899574	-0.404523	0.584432
H206	H	1.232907	-0.071190	0.917766
H207	H	1.566241	0.262143	1.251099
N208	N	1.068251	-0.235923	1.077853
N209	N	1.401584	0.097411	1.411186
N210	N	1.734917	0.430744	1.744519
H211	H	1.057764	-0.187565	1.065557
H212	H	1.391097	0.145769	1.398890
H213	H	1.724430	0.479102	1.732224
H214	H	1.116586	-0.246499	1.065547
H215	H	1.449920	0.086834	1.398880
H216	H	1.783253	0.420167	1.732214
N217	N	0.582868	-0.235988	0.236301
N218	N	0.916201	0.097346	0.569634
N219	N	1.249535	0.430679	0.902967
H220	H	0.553555	-0.204660	0.263855
H221	H	0.886888	0.128674	0.597189
H222	H	1.220221	0.462007	0.930522
H223	H	0.553563	-0.263519	0.204903
H224	H	0.886896	0.069814	0.538237
H225	H	1.220230	0.403147	0.871570
H226	H	1.056746	-0.247482	0.584501
H227	H	1.390079	0.085851	0.917834
H228	H	1.723413	0.419184	1.251168
H229	H	1.056791	-0.247400	0.940261
H230	H	1.390124	0.085933	1.273595
H231	H	1.723457	0.419266	1.606928
H232	H	0.899756	-1.067841	0.247568
H233	H	1.233090	-0.734508	0.580901
H234	H	1.566423	-0.401175	0.914235
H235	H	1.056605	-0.711845	0.404732
H236	H	1.389938	-0.378511	0.738066
H237	H	1.723271	-0.045178	1.071399
N238	N	0.888195	-0.721438	0.236071
N239	N	1.221528	-0.388104	0.569405
N240	N	1.554862	-0.054771	0.902738
H241	H	0.860776	-0.688360	0.208621
H242	H	1.194110	-0.355027	0.541954
H243	H	1.527443	-0.021694	0.875288
H244	H	0.856867	-0.750779	0.263595
H245	H	1.190200	-0.417446	0.596928
H246	H	1.523534	-0.084112	0.930262
H247	H	1.056760	-0.247450	0.712735
H248	H	1.390093	0.085883	1.046068
H249	H	1.723426	0.419217	1.379402
H250	H	0.720456	-0.404707	0.404500
H251	H	1.053790	-0.071374	0.737833
H252	H	1.387123	0.261959	1.071167
N253	N	0.888204	-0.415852	1.077786
N254	N	1.221537	-0.082518	1.411119
N255	N	1.554870	0.250815	1.744453
H256	H	0.898679	-0.464219	1.065478
H257	H	1.232012	-0.130885	1.398811
H258	H	1.565346	0.202448	1.732145
H259	H	0.839865	-0.405275	1.065469
H260	H	1.173198	-0.071942	1.398802
H261	H	1.506532	0.261391	1.732135
N262	N	0.582875	-0.416173	0.415925
N263	N	0.916209	-0.082840	0.749258
N264	N	1.249542	0.250494	1.082592
H265	H	0.615993	-0.443635	0.443287
H266	H	0.949327	-0.110302	0.776621
H267	H	1.282660	0.223032	1.109954
H268	H	0.553527	-0.447455	0.388308
H269	H	0.886860	-0.114122	0.721641
H270	H	1.220194	0.219211	1.054975
H271	H	1.056688	-0.939370	0.404762
H272	H	1.390021	-0.606037	0.738096
H273	H	1.723354	-0.272703	1.071429
N274	N	0.374031	-0.235970	0.236342
N275	N	0.707364	0.097363	0.569675
N276	N	1.040697	0.430696	0.903008
H277	H	0.340911	-0.208514	0.208976
H278	H	0.674244	0.124819	0.542309
H279	H	1.007577	0.458152	0.875642
H280	H	0.403343	-0.263465	0.204962
H281	H	0.736676	0.069868	0.538296
H282	H	1.070009	0.403202	0.871629
H283	H	0.720453	-0.247418	0.247723
H284	H	1.053787	0.085915	0.581056
H285	H	1.387120	0.419249	0.914389
N286	N	0.374044	-0.416178	0.415946
N287	N	0.707378	-0.082845	0.749280
N288	N	1.040711	0.250489	1.082613
H289	H	0.340929	-0.443638	0.443323
H290	H	0.674263	-0.110304	0.776656
H291	H	1.007596	0.223029	1.109990
H292	H	0.403398	-0.388666	0.447315
H293	H	0.736731	-0.055332	0.780649
H294	H	1.070065	0.278001	1.113982
N295	N	0.888271	-0.930277	0.236098
N296	N	1.221605	-0.596944	0.569431
N297	N	1.554938	-0.263611	0.902765
H298	H	0.860884	-0.963437	0.208653
H299	H	1.194218	-0.630103	0.541987
H300	H	1.527551	-0.296770	0.875320
H301	H	0.915834	-0.900946	0.204799
H302	H	1.249167	-0.567612	0.538132
H303	H	1.582501	-0.234279	0.871465
N304	N	0.888150	-0.415942	0.721999
N305	N	1.221484	-0.082609	1.055332
N306	N	1.554817	0.250724	1.388666
H307	H	0.839795	-0.405425	0.709686
H308	H	1.173129	-0.072092	1.043020
H309	H	1.506462	0.261242	1.376353
H310	H	0.894781	-0.409351	0.772134
H311	H	1.228114	-0.076018	1.105468
H312	H	1.561447	0.257316	1.438801
H313	H	1.056556	-0.583611	0.404715
H314	H	1.389889	-0.250277	0.738049
H315	H	1.723223	0.083056	1.071382
N316	N	0.888132	-0.574507	0.236060
N317	N	1.221465	-0.241174	0.569394
N318	N	1.554799	0.092160	0.902727
H319	H	0.860740	-0.607663	0.208617
H320	H	1.194073	-0.274330	0.541950
H321	H	1.527407	0.059004	0.875283
H322	H	0.915689	-0.545172	0.204760
H323	H	1.249023	-0.211839	0.538093
H324	H	1.582356	0.121495	0.871426
H325	H	0.899635	-0.404459	0.940201
H326	H	1.232968	-0.071125	1.273535
H327	H	1.566301	0.262208	1.606868
