data_functionalizedCrystal
_audit_creation_method	'MofGen! by Chris Wilmer'
_symmetry_space_group_name_H-M	'P1'
_symmetry_Int_Tables_number	1
_symmetry_cell_setting	triclinic
loop_
_symmetry_equiv_pos_as_xyz
  x,y,z
_cell_length_a	16.625547
_cell_length_b	16.625545
_cell_length_c	15.296720
_cell_angle_alpha	99.644333
_cell_angle_beta	80.342885
_cell_angle_gamma	89.976026
loop_
_atom_site_label
_atom_site_type_symbol
_atom_site_fract_x
_atom_site_fract_y
_atom_site_fract_z
Zn1	Zn	1.153700	0.399897	0.510165
Zn2	Zn	1.176951	0.511412	0.359317
Zn3	Zn	1.042212	0.376597	0.359320
Zn4	Zn	1.018838	0.534682	0.510106
O5	O	1.097925	0.455647	0.434727
O6	O	1.269613	0.414702	0.490178
O7	O	1.178590	0.474039	0.233083
O8	O	1.057053	0.266860	0.379356
O9	O	1.286695	0.496631	0.379350
O10	O	1.138963	0.283978	0.490181
O11	O	1.079598	0.374991	0.233085
O12	O	0.926283	0.397555	0.379299
O13	O	1.017215	0.536292	0.636348
O14	O	0.909110	0.513699	0.490081
O15	O	1.116298	0.437266	0.636392
O16	O	1.155925	0.627327	0.379293
O17	O	1.039760	0.644423	0.490077
C18	C	0.888441	0.455625	0.434684
C19	C	0.798819	0.455638	0.434688
C20	C	0.726035	0.455641	0.434699
C21	C	0.634723	0.455649	0.434721
C22	C	0.561943	0.455660	0.434744
C23	C	0.470626	0.455669	0.434766
C24	C	1.097848	0.665133	0.434698
C25	C	1.097884	0.754757	0.434716
C26	C	1.097999	1.082949	0.434824
C27	C	1.097964	0.991637	0.434796
C28	C	1.097941	0.918856	0.434769
C29	C	1.097907	0.827538	0.434743
C30	C	1.308228	0.455670	0.434770
C31	C	1.397846	0.455680	0.434789
C32	C	1.061556	0.491974	0.670016
C33	C	1.046058	0.507454	0.770283
C34	C	1.098014	1.245347	0.434786
C35	C	1.098029	1.155734	0.434839
C36	C	1.134200	0.419403	0.200353
C37	C	1.149854	0.403696	0.100087
C38	C	1.208725	0.344866	1.053007
C39	C	1.223292	0.330323	0.958802
C40	C	1.178984	0.374604	0.911668
C41	C	1.120108	0.433431	0.958748
C42	C	1.105544	0.447980	1.052962
C43	C	1.075804	0.477718	0.911622
C44	C	1.016927	0.536546	0.958702
C45	C	1.002366	0.551092	1.052907
C46	C	1.046673	0.506811	1.100042
C47	C	1.090367	0.463169	0.817408
C48	C	0.987187	0.566284	0.817363
C49	C	0.972620	0.580827	0.911568
H50	H	1.138304	0.415271	0.779085
Br51	Br	0.927058	0.626391	0.753403
Br52	Br	0.892718	0.660661	0.975472
H53	H	1.190848	0.362759	0.834961
H54	H	1.271231	0.282427	0.920476
H55	H	1.244799	0.308823	1.091393
H56	H	1.034817	0.518649	1.176752
Br57	Br	0.922479	0.630946	1.116800
