data_functionalizedCrystal
_audit_creation_method	'MofGen! by Chris Wilmer'
_symmetry_space_group_name_H-M	'P1'
_symmetry_Int_Tables_number	1
_symmetry_cell_setting	triclinic
loop_
_symmetry_equiv_pos_as_xyz
  x,y,z
_cell_length_a	12.759401
_cell_length_b	15.299816
_cell_length_c	12.759393
_cell_angle_alpha	80.349878
_cell_angle_beta	90.018496
_cell_angle_gamma	80.350473
loop_
_atom_site_label
_atom_site_type_symbol
_atom_site_fract_x
_atom_site_fract_y
_atom_site_fract_z
Zn1	Zn	1.678544	-0.358997	0.666396
Zn2	Zn	1.708812	-0.509841	0.521143
Zn3	Zn	1.502855	-0.359045	0.490745
Zn4	Zn	1.533194	-0.509771	0.696771
O5	O	1.605851	-0.434413	0.593764
O6	O	1.829582	-0.379016	0.647138
O7	O	1.681462	-0.489886	0.370100
O8	O	1.500796	-0.232830	0.488612
O9	O	1.851820	-0.489840	0.540421
O10	O	1.629874	-0.232796	0.617662
O11	O	1.530146	-0.379097	0.347766
O12	O	1.359857	-0.379030	0.518065
O13	O	1.552505	-0.489722	0.839753
O14	O	1.382147	-0.489768	0.669431
O15	O	1.659292	-0.378949	0.817437
O16	O	1.710881	-0.636039	0.569874
O17	O	1.581855	-0.635988	0.698907
C18	C	1.332881	-0.434397	0.593746
C19	C	1.216107	-0.434411	0.593768
C20	C	1.172898	-0.492165	0.672492
C21	C	1.063176	-0.492177	0.672506
C22	C	1.039882	-0.376678	0.515062
C23	C	1.149601	-0.376663	0.515054
C24	C	1.239403	-0.549914	0.751206
C25	C	1.196195	-0.607673	0.829936
C26	C	1.086473	-0.607684	0.829950
C27	C	1.019960	-0.549937	0.751234
C28	C	1.652973	-0.668738	0.641008
C29	C	1.673228	-0.768983	0.661255
C30	C	1.461775	-1.051929	0.449415
C31	C	1.442739	-0.957743	0.430395
C32	C	1.500360	-0.910549	0.488108
C33	C	1.577019	-0.957549	0.564845
C34	C	1.596051	-1.051743	0.583873
C35	C	1.634636	-0.910363	0.622566
C36	C	1.711296	-0.957363	0.699303
C37	C	1.730325	-1.051548	0.718327
C38	C	1.672704	-1.098743	0.660614
C39	C	1.615604	-0.816169	0.603538
C40	C	1.749881	-0.815983	0.737996
C41	C	1.768917	-0.910169	0.757016
C42	C	1.879888	-0.434431	0.593782
C43	C	1.996666	-0.434438	0.593790
C44	C	1.605907	-0.434322	0.867779
C45	C	1.605930	-0.434284	0.984548
C46	C	1.558574	-0.199174	0.546358
C47	C	1.538428	-0.098928	0.526156
C48	C	1.605844	-0.434439	0.320802
C49	C	1.605973	-0.434224	0.203982
C50	C	1.661543	-0.376599	1.027790
C51	C	1.661561	-0.376566	1.137508
C52	C	1.550353	-0.491911	1.160732
C53	C	1.550329	-0.491939	1.051016
C54	C	1.717144	-0.318944	0.961323
C55	C	1.772761	-0.261255	1.004564
C56	C	1.772780	-0.261222	1.114282
C57	C	1.717180	-0.318879	1.180758
H58	H	0.985719	-0.329663	0.450975
F59	F	1.717188	-0.318830	1.297527
F60	F	1.491139	-0.553332	1.004991
F61	F	1.811896	-1.101567	0.800015
H62	H	1.250356	-0.654683	0.894029
H63	H	1.051295	-0.654708	0.894061
F64	F	1.479809	-0.810309	0.468153
F65	F	0.903182	-0.549945	0.751259
H66	H	1.184781	-0.329628	0.450956
H67	H	1.553187	-0.777910	0.541058
H68	H	1.717137	-0.318966	0.871984
H69	H	1.505086	-0.538852	1.214865
H70	H	1.328746	-0.549913	0.751202
H71	H	1.380323	-0.919479	0.367918
H72	H	1.414864	-1.090363	0.402439
F73	F	1.693133	-1.198987	0.680680
H74	H	1.831333	-0.948449	0.819496
F75	F	1.811208	-0.765760	0.799424
F76	F	1.831915	-0.199885	0.933814
F77	F	1.831973	-0.199827	1.160301
