data_functionalizedCrystal
_audit_creation_method	'MofGen! by Chris Wilmer'
_symmetry_space_group_name_H-M	'P1'
_symmetry_Int_Tables_number	1
_symmetry_cell_setting	triclinic
loop_
_symmetry_equiv_pos_as_xyz
  x,y,z
_cell_length_a	16.992695
_cell_length_b	16.109301
_cell_length_c	14.586319
_cell_angle_alpha	90.000787
_cell_angle_beta	89.995905
_cell_angle_gamma	92.935148
loop_
_atom_site_label
_atom_site_type_symbol
_atom_site_fract_x
_atom_site_fract_y
_atom_site_fract_z
O1	O	0.100784	-1.109856	-0.076183
O2	O	0.434117	-0.776523	0.257150
O3	O	0.767450	-0.443189	0.590484
O4	O	0.113326	-0.868631	-0.076198
O5	O	0.446659	-0.535298	0.257136
O6	O	0.779993	-0.201964	0.590469
O7	O	-0.007087	-0.988277	-0.076183
O8	O	0.326246	-0.654943	0.257150
O9	O	0.659579	-0.321610	0.590483
O10	O	0.221197	-0.990211	-0.076198
O11	O	0.554531	-0.656877	0.257136
O12	O	0.887864	-0.323544	0.590469
O13	O	-0.007089	-0.988268	0.076298
O14	O	0.326244	-0.654934	0.409631
O15	O	0.659577	-0.321601	0.742964
O16	O	0.113324	-0.868622	0.076283
O17	O	0.446658	-0.535289	0.409616
O18	O	0.779991	-0.201955	0.742950
O19	O	0.100782	-1.109847	0.076298
O20	O	0.434115	-0.776514	0.409631
O21	O	0.767449	-0.443180	0.742964
Cu22	Cu	0.107053	-0.989234	0.090213
Cu23	Cu	0.440386	-0.655900	0.423546
Cu24	Cu	0.773720	-0.322567	0.756880
Cu25	Cu	0.107055	-0.989244	-0.090113
Cu26	Cu	0.440388	-0.655911	0.243220
Cu27	Cu	0.773722	-0.322578	0.576554
O28	O	0.221196	-0.990202	0.076283
O29	O	0.554529	-0.656868	0.409617
O30	O	0.887862	-0.323535	0.742950
C31	C	0.112817	-0.837618	0.000041
C32	C	0.446151	-0.504284	0.333374
C33	C	0.779484	-0.170951	0.666708
C34	C	0.111294	-0.745221	0.000035
C35	C	0.444627	-0.411887	0.333369
C36	C	0.777961	-0.078554	0.666702
C37	C	-0.036300	-0.985784	0.000057
C38	C	0.297033	-0.652451	0.333390
C39	C	0.630366	-0.319117	0.666724
C40	C	-0.123343	-0.978361	0.000056
C41	C	0.209991	-0.645027	0.333390
C42	C	0.543324	-0.311694	0.666723
C43	C	0.101291	-1.140860	0.000057
C44	C	0.434624	-0.807527	0.333390
C45	C	0.767958	-0.474194	0.666724
C46	C	0.102814	-1.233257	0.000057
C47	C	0.436147	-0.899924	0.333390
C48	C	0.769481	-0.566591	0.666723
C49	C	-0.173601	-1.049987	0.000062
C50	C	0.159732	-0.716653	0.333395
C51	C	0.493065	-0.383320	0.666728
C52	C	-0.255386	-1.043007	0.000052
C53	C	0.077947	-0.709673	0.333386
C54	C	0.411281	-0.376340	0.666719
C55	C	-0.286911	-0.964400	0.000045
C56	C	0.046423	-0.631066	0.333378
C57	C	0.379756	-0.297733	0.666711
C58	C	-0.236645	-0.892768	0.000037
C59	C	0.096688	-0.559435	0.333370
C60	C	0.430021	-0.226102	0.666703
C61	C	-0.154862	-0.899749	0.000039
C62	C	0.178471	-0.566416	0.333372
C63	C	0.511805	-0.233083	0.666706
C64	C	-0.530501	-0.935467	0.000030
C65	C	-0.197168	-0.602134	0.333364
C66	C	0.136166	-0.268800	0.666697
C67	C	-0.612291	-0.928491	0.000030
C68	C	-0.278957	-0.595158	0.333364
C69	C	0.054376	-0.261825	0.666697
C70	C	-0.631026	-1.078731	0.000045
C71	C	-0.297692	-0.745397	0.333378
C72	C	0.035641	-0.412064	0.666711
C73	C	-0.549240	-1.085704	0.000053
C74	C	-0.215907	-0.752371	0.333386
C75	C	0.117427	-0.419038	0.666719
C76	C	-0.498982	-1.014073	0.000040
C77	C	-0.165649	-0.680740	0.333373
C78	C	0.167685	-0.347406	0.666706
N79	N	-0.370508	-0.957263	0.000038
N80	N	-0.037174	-0.623930	0.333372
N81	N	0.296159	-0.290596	0.666705
N82	N	-0.415387	-1.021210	0.000040
N83	N	-0.082053	-0.687877	0.333373
N84	N	0.251280	-0.354544	0.666706
C85	C	0.250408	-0.992694	0.000041
C86	C	0.583742	-0.659361	0.333374
C87	C	0.917075	-0.326027	0.666708
C88	C	0.337451	-1.000118	0.000036
C89	C	0.670784	-0.666784	0.333369
C90	C	1.004117	-0.333451	0.666702
N91	N	0.107051	-0.989232	0.217045
N92	N	0.440384	-0.655899	0.550378
N93	N	0.773718	-0.322566	0.883712
C94	C	0.179203	-0.527480	0.000042
C95	C	0.512537	-0.194147	0.333375
C96	C	0.845870	0.139187	0.666708
C97	C	0.177766	-0.440664	0.000048
C98	C	0.511099	-0.107330	0.333381
C99	C	0.844433	0.226003	0.666714
C100	C	0.034899	-0.451005	0.000053
C101	C	0.368233	-0.117671	0.333386
C102	C	0.701566	0.215662	0.666720
C103	C	0.036337	-0.537819	0.000054
C104	C	0.369671	-0.204486	0.333387
C105	C	0.703004	0.128847	0.666720
C106	C	0.108492	-0.576055	0.000043
C107	C	0.441825	-0.242721	0.333377
C108	C	0.775158	0.090612	0.666710
C109	C	0.105616	-0.402424	0.000049
C110	C	0.438950	-0.069090	0.333382
C111	C	0.772283	0.264243	0.666715
C112	C	0.104057	-0.308294	0.000055
C113	C	0.437391	0.025040	0.333388
C114	C	0.770724	0.358373	0.666722
C115	C	0.110051	-0.670191	0.000039
C116	C	0.443384	-0.336857	0.333372
C117	C	0.776718	-0.003524	0.666705
N118	N	0.107051	-0.989252	-0.216945
N119	N	0.440384	-0.655919	0.116388
N120	N	0.773717	-0.322585	0.449722
C121	C	0.053750	-1.042231	0.452058
C122	C	0.387083	-0.708898	0.785391
C123	C	0.720416	-0.375565	1.118724
C124	C	0.053748	-1.042233	0.548039
C125	C	0.387081	-0.708900	0.881372
C126	C	0.720414	-0.375567	1.214706
C127	C	0.160355	-0.936247	0.548036
C128	C	0.493688	-0.602914	0.881369
C129	C	0.827021	-0.269581	1.214702
C130	C	0.160352	-0.936241	0.452056
C131	C	0.493686	-0.602908	0.785389
C132	C	0.827019	-0.269575	1.118723
C133	C	0.107051	-0.989238	0.404070
C134	C	0.440384	-0.655905	0.737403
C135	C	0.773717	-0.322571	1.070736
C136	C	0.107051	-0.989246	0.596030
C137	C	0.440385	-0.655913	0.929364
C138	C	0.773718	-0.322580	1.262697
C139	C	0.107050	-0.989248	0.700098
C140	C	0.440383	-0.655915	1.033431
C141	C	0.773716	-0.322582	1.366764
C142	C	0.107051	-0.989235	0.299996
C143	C	0.440384	-0.655902	0.633329
C144	C	0.773718	-0.322568	0.966663
H145	H	-0.147941	-1.113997	0.000074
H146	H	0.185392	-0.780663	0.333407
H147	H	0.518726	-0.447330	0.666740
F148	F	-0.270198	-0.809109	0.000018
F149	F	0.063135	-0.475775	0.333351
F150	F	0.396468	-0.142442	0.666684
F151	F	-0.002981	-1.098633	0.400991
F152	F	0.330353	-0.765300	0.734324
F153	F	0.663686	-0.431966	1.067657
H154	H	0.203757	-0.893084	0.412982
H155	H	0.537090	-0.559751	0.746315
H156	H	0.870423	-0.226417	1.079648
H157	H	0.235347	-0.401118	0.000048
H158	H	0.568680	-0.067784	0.333382
H159	H	0.902013	0.265549	0.666715
H160	H	0.237956	-0.558608	0.000040
H161	H	0.571289	-0.225275	0.333374
H162	H	0.904623	0.108058	0.666707
H163	H	-0.296304	-1.101332	0.000059
H164	H	0.037029	-0.767999	0.333392
H165	H	0.370362	-0.434666	0.666725
H166	H	0.203753	-0.893100	0.587116
H167	H	0.537086	-0.559766	0.920449
H168	H	0.870419	-0.226433	1.253782
F169	F	-0.515696	-1.169369	0.000038
F170	F	-0.182363	-0.836035	0.333371
F171	F	0.150971	-0.502702	0.666704
F172	F	-0.002984	-1.098634	0.599108
F173	F	0.330350	-0.765301	0.932442
F174	F	0.663683	-0.431967	1.265775
H175	H	-0.637954	-0.864477	0.000039
H176	H	-0.304621	-0.531144	0.333372
H177	H	0.028713	-0.197811	0.666705
F178	F	-0.041888	-0.410304	0.000060
F179	F	0.291445	-0.076971	0.333393
F180	F	0.624779	0.256362	0.666727
H181	H	-0.671954	-1.137048	0.000053
H182	H	-0.338621	-0.803715	0.333387
H183	H	-0.005288	-0.470382	0.666720
F184	F	-0.101373	-0.823515	0.000031
F185	F	0.231960	-0.490181	0.333364
F186	F	0.565294	-0.156848	0.666697
H187	H	-0.489590	-0.877139	0.000020
H188	H	-0.156257	-0.543806	0.333353
H189	H	0.177077	-0.210473	0.666687
F190	F	-0.038928	-0.589519	0.000061
F191	F	0.294406	-0.256186	0.333395
F192	F	0.627739	0.077147	0.666728
