data_functionalizedCrystal
_audit_creation_method	'MofGen! by Chris Wilmer'
_symmetry_space_group_name_H-M	'P1'
_symmetry_Int_Tables_number	1
_symmetry_cell_setting	triclinic
loop_
_symmetry_equiv_pos_as_xyz
  x,y,z
_cell_length_a	12.645331
_cell_length_b	12.645330
_cell_length_c	13.897441
_cell_angle_alpha	90.028464
_cell_angle_beta	90.019944
_cell_angle_gamma	90.011625
loop_
_atom_site_label
_atom_site_type_symbol
_atom_site_fract_x
_atom_site_fract_y
_atom_site_fract_z
Zn1	Zn	1.620740	-0.422045	0.545424
Zn2	Zn	1.620646	-0.599337	0.384128
Zn3	Zn	1.443463	-0.422085	0.384138
Zn4	Zn	1.443452	-0.599263	0.545377
O5	O	1.532075	-0.510682	0.464767
O6	O	1.769075	-0.445577	0.524043
O7	O	1.597107	-0.575872	0.249148
O8	O	1.467023	-0.273732	0.405557
O9	O	1.769005	-0.575833	0.405540
O10	O	1.597268	-0.273703	0.524052
O11	O	1.466932	-0.445646	0.249155
O12	O	1.295114	-0.445574	0.405512
O13	O	1.467004	-0.575707	0.680365
O14	O	1.295106	-0.575746	0.523973
O15	O	1.597257	-0.445505	0.680399
O16	O	1.597096	-0.747675	0.405495
O17	O	1.466913	-0.747620	0.523963
C18	C	1.256645	-0.510657	0.464739
C19	C	1.138815	-0.510672	0.464750
C20	C	1.532022	-0.786112	0.464744
C21	C	1.532096	-0.903942	0.464766
C22	C	0.971221	-0.428404	0.390637
C23	C	1.093781	-0.428617	0.390310
C24	C	1.094306	-0.622347	0.436981
C25	C	0.971708	-0.621897	0.436475
C26	C	0.971658	-0.482328	0.566918
C27	C	1.094264	-0.479833	0.566351
C28	C	1.613863	-1.071496	0.390086
C29	C	1.614129	-0.948936	0.390269
C30	C	1.562391	-0.948322	0.566444
C31	C	1.563040	-1.070920	0.566047
C32	C	1.420002	-1.071268	0.438772
C33	C	1.420540	-0.948664	0.436491
C34	C	1.808580	-0.510709	0.464795
C35	C	1.926410	-0.510720	0.464808
C36	C	1.532140	-0.510593	0.716360
C37	C	1.532168	-0.510556	0.823574
C38	C	1.532157	-0.234177	0.464811
C39	C	1.532192	-0.116347	0.464830
C40	C	1.532071	-0.510695	0.214152
C41	C	1.532249	-0.510434	0.106939
C42	C	1.532189	-0.510526	0.910644
C43	C	1.532220	-0.510478	1.019876
H44	H	1.123873	-0.345806	0.407716
H45	H	1.645045	-1.099434	0.588120
H46	H	0.942682	-0.542283	0.622182
H47	H	0.940753	-0.402316	0.592172
H48	H	1.504716	-0.919174	0.623625
C49	C	0.931660	-0.707563	0.506267
N50	N	0.901501	-0.772089	0.558830
C51	C	1.725517	-1.113031	0.413094
N52	N	1.809612	-1.144326	0.430421
C53	C	1.135674	-0.554928	0.645003
N54	N	1.166860	-0.611500	0.704241
H55	H	1.697225	-0.919529	0.407505
H56	H	1.356406	-0.918047	0.486939
C57	C	1.486179	-1.110999	0.643856
N58	N	1.428296	-1.141182	0.702466
C59	C	1.337793	-1.110458	0.512311
N60	N	1.275881	-1.139981	0.567704
C61	C	1.671931	-0.906741	0.596757
N62	N	1.754439	-0.875425	0.619584
H63	H	1.392453	-1.102279	0.365920
H64	H	1.595146	-1.101051	0.314474
C65	C	1.389670	-0.909480	0.335411
N66	N	1.366419	-0.879956	0.259278
C67	C	1.588484	-0.908403	0.288426
N68	N	1.569158	-0.877878	0.211715
C69	C	1.133730	-0.707423	0.507660
N70	N	1.163430	-0.771503	0.560895
H71	H	0.941749	-0.345344	0.407856
H72	H	0.940379	-0.446961	0.315414
H73	H	1.124968	-0.646837	0.363134
C74	C	1.133346	-0.453974	0.288086
N75	N	1.163146	-0.473078	0.211087
H76	H	0.943068	-0.645974	0.361827
H77	H	1.123359	-0.397653	0.587291
