data_functionalizedCrystal
_audit_creation_method	'MofGen! by Chris Wilmer'
_symmetry_space_group_name_H-M	'P1'
_symmetry_Int_Tables_number	1
_symmetry_cell_setting	triclinic
loop_
_symmetry_equiv_pos_as_xyz
  x,y,z
_cell_length_a	13.897448
_cell_length_b	11.169417
_cell_length_c	11.169409
_cell_angle_alpha	90.021683
_cell_angle_beta	89.964424
_cell_angle_gamma	89.983370
loop_
_atom_site_label
_atom_site_type_symbol
_atom_site_fract_x
_atom_site_fract_y
_atom_site_fract_z
Zn1	Zn	-0.383964	-1.834901	-0.678575
Zn2	Zn	0.116036	-1.334901	-0.178575
Zn3	Zn	-0.545300	-1.834765	-0.477881
Zn4	Zn	-0.045300	-1.334765	0.022119
Zn5	Zn	-0.384017	-1.634187	-0.477903
Zn6	Zn	0.115983	-1.134187	0.022097
Zn7	Zn	-0.545216	-1.634169	-0.678519
Zn8	Zn	-0.045216	-1.134169	-0.178519
O9	O	-0.464624	-1.734505	-0.578220
O10	O	0.035376	-1.234505	-0.078220
O11	O	-0.405378	-2.002833	-0.651967
O12	O	0.094622	-1.502833	-0.151967
O13	O	-0.523963	-1.808108	-0.309934
O14	O	-0.023963	-1.308108	0.190066
O15	O	-0.249029	-1.660877	-0.504555
O16	O	0.250971	-1.160877	-0.004555
O17	O	-0.523911	-2.002732	-0.504517
O18	O	-0.023911	-1.502732	-0.004517
O19	O	-0.248990	-1.808341	-0.651988
O20	O	0.251010	-1.308341	-0.151988
O21	O	-0.405469	-1.660745	-0.309950
O22	O	0.094531	-1.160745	0.190050
O23	O	-0.405388	-1.466235	-0.504501
O24	O	0.094612	-0.966235	-0.004501
O25	O	-0.523768	-1.660846	-0.846476
O26	O	-0.023768	-1.160846	-0.346476
O27	O	-0.523820	-1.466221	-0.651893
O28	O	-0.023820	-0.966221	-0.151893
O29	O	-0.405297	-1.808323	-0.846518
O30	O	0.094703	-1.308323	-0.346518
O31	O	-0.680270	-1.808090	-0.504463
O32	O	-0.180270	-1.308090	-0.004463
O33	O	-0.680209	-1.660713	-0.651871
O34	O	-0.180209	-1.160713	-0.151871
C35	C	-0.464601	-1.422681	-0.578194
C36	C	0.035399	-0.922681	-0.078194
C37	C	-0.464615	-1.289281	-0.578212
C38	C	0.035385	-0.789281	-0.078212
C39	C	-0.715239	-1.734418	-0.578185
C40	C	-0.215239	-1.234418	-0.078185
C41	C	-0.822453	-1.734490	-0.578210
C42	C	-0.322453	-1.234490	-0.078210
C43	C	-1.018748	-1.734616	-0.578285
C44	C	-0.518748	-1.234616	-0.078285
C45	C	-0.909515	-1.734543	-0.578247
C46	C	-0.409515	-1.234543	-0.078247
C47	C	-0.213031	-1.734626	-0.578281
C48	C	0.286969	-1.234626	-0.078281
C49	C	-0.105817	-1.734677	-0.578307
C50	C	0.394183	-1.234677	-0.078307
C51	C	-0.464517	-1.734597	-0.891262
C52	C	0.035483	-1.234597	-0.391262
C53	C	-0.464472	-1.734637	-1.024662
C54	C	0.035528	-1.234637	-0.524662
C55	C	-0.464640	-1.047548	-0.578236
C56	C	0.035360	-0.547548	-0.078236
C57	C	-0.464626	-1.180948	-0.578219
C58	C	0.035374	-0.680948	-0.078219
C59	C	-0.464661	-1.734483	-0.266395
C60	C	0.035339	-1.234483	0.233605
C61	C	-0.464435	-1.734676	-0.132995
C62	C	0.035565	-1.234676	0.367005
