data_functionalizedCrystal
_audit_creation_method	'MofGen! by Chris Wilmer'
_symmetry_space_group_name_H-M	'P1'
_symmetry_Int_Tables_number	1
_symmetry_cell_setting	triclinic
loop_
_symmetry_equiv_pos_as_xyz
  x,y,z
_cell_length_a	11.169417
_cell_length_b	15.299816
_cell_length_c	11.169409
_cell_angle_alpha	80.352328
_cell_angle_beta	90.019824
_cell_angle_gamma	80.351153
loop_
_atom_site_label
_atom_site_type_symbol
_atom_site_fract_x
_atom_site_fract_y
_atom_site_fract_z
Zn1	Zn	1.917498	-0.358957	0.761244
Zn2	Zn	1.952071	-0.509805	0.595315
Zn3	Zn	1.716796	-0.359012	0.560591
Zn4	Zn	1.751459	-0.509731	0.795943
O5	O	1.834456	-0.434376	0.678274
O6	O	2.090035	-0.378975	0.739244
O7	O	1.920825	-0.489856	0.422772
O8	O	1.714444	-0.232798	0.558154
O9	O	2.115437	-0.489802	0.617337
O10	O	1.861898	-0.232757	0.705573
O11	O	1.747969	-0.379069	0.397260
O12	O	1.553443	-0.378998	0.591801
O13	O	1.773521	-0.489677	0.959278
O14	O	1.578909	-0.489730	0.764713
O15	O	1.895509	-0.378904	0.933785
O16	O	1.954435	-0.636002	0.650983
O17	O	1.807046	-0.635948	0.798384
C18	C	1.522628	-0.434363	0.678255
C19	C	1.389232	-0.434379	0.678280
C20	C	1.888286	-0.668699	0.732243
C21	C	1.911425	-0.768943	0.755371
C22	C	1.669867	-1.051898	0.513379
C23	C	1.648121	-0.957713	0.491651
C24	C	1.713945	-0.910516	0.557579
C25	C	1.801519	-0.957513	0.645239
C26	C	1.823261	-1.051706	0.666975
C27	C	1.867339	-0.910325	0.711175
C28	C	1.954913	-0.957321	0.798835
C29	C	1.976651	-1.051506	0.820566
C30	C	1.910827	-1.098703	0.754639
C31	C	1.845597	-0.816131	0.689439
C32	C	1.998991	-0.815940	0.843035
C33	C	2.020737	-0.910124	0.864763
C34	C	2.147502	-0.434391	0.678293
C35	C	2.280903	-0.434397	0.678301
C36	C	1.834525	-0.434276	0.991293
C37	C	1.834554	-0.434234	1.124683
C38	C	1.780448	-0.199139	0.624120
C39	C	1.757433	-0.098894	0.601043
C40	C	1.834441	-0.434411	0.366457
C41	C	1.834586	-0.434200	0.233009
H42	H	1.774294	-0.777875	0.618066
O43	O	1.692716	-0.819026	0.536282
C44	C	1.601287	-0.787666	0.444796
H45	H	1.597049	-0.842001	0.387202
H46	H	1.622982	-0.724660	0.384740
H47	H	1.509902	-0.770978	0.488466
O48	O	2.061631	-1.097299	0.905717
C49	C	2.066725	-1.190551	0.910743
H50	H	1.977111	-1.203499	0.874346
H51	H	2.083069	-1.226287	1.008894
H52	H	2.144113	-1.217275	0.853056
H53	H	1.928532	-1.175396	0.772320
O54	O	2.105631	-0.955826	0.950057
C55	C	2.049829	-1.010321	1.040060
H56	H	1.948764	-0.981985	1.040856
H57	H	2.093417	-1.011317	1.132691
H58	H	2.062185	-1.081727	1.019414
H59	H	1.576818	-0.919452	0.420281
O60	O	1.605898	-1.097845	0.449537
C61	C	1.540905	-1.152316	0.530381
H62	H	1.586427	-1.166333	0.624606
H63	H	1.540148	-1.218595	0.496785
H64	H	1.443588	-1.116068	0.535125
O65	O	2.062870	-0.769964	0.906938
C66	C	2.024884	-0.676754	0.868976
H67	H	1.982676	-0.663975	0.773371
H68	H	2.106500	-0.640892	0.868919
H69	H	1.954762	-0.650021	0.933940
