data_functionalizedCrystal
_audit_creation_method	'MofGen! by Chris Wilmer'
_symmetry_space_group_name_H-M	'P1'
_symmetry_Int_Tables_number	1
_symmetry_cell_setting	triclinic
loop_
_symmetry_equiv_pos_as_xyz
  x,y,z
_cell_length_a	19.805407
_cell_length_b	18.101395
_cell_length_c	19.805399
_cell_angle_alpha	90.027963
_cell_angle_beta	90.019573
_cell_angle_gamma	90.031951
loop_
_atom_site_label
_atom_site_type_symbol
_atom_site_fract_x
_atom_site_fract_y
_atom_site_fract_z
Zn1	Zn	1.034710	-0.294847	0.382718
Zn2	Zn	1.534710	0.205153	0.882718
Zn3	Zn	1.034614	-0.418690	0.269529
Zn4	Zn	1.534614	0.081310	0.769529
Zn5	Zn	0.921524	-0.294867	0.269542
Zn6	Zn	1.421524	0.205133	0.769542
Zn7	Zn	0.921477	-0.418651	0.382676
Zn8	Zn	1.421477	0.081349	0.882676
O9	O	0.978081	-0.356764	0.326116
O10	O	1.478081	0.143236	0.826116
O11	O	1.129413	-0.311283	0.367715
O12	O	1.629413	0.188717	0.867715
O13	O	1.019592	-0.402290	0.174814
O14	O	1.519592	0.097710	0.674814
O15	O	0.936599	-0.191232	0.284579
O16	O	1.436599	0.308768	0.784579
O17	O	1.129343	-0.402270	0.284556
O18	O	1.629343	0.097730	0.784556
O19	O	1.019755	-0.191217	0.367728
O20	O	1.519755	0.308783	0.867728
O21	O	0.936505	-0.311318	0.174824
O22	O	1.436505	0.188682	0.674824
O23	O	0.826801	-0.311279	0.284538
O24	O	1.326801	0.188721	0.784538
O25	O	0.936518	-0.402203	0.477398
O26	O	1.436518	0.097797	0.977398
O27	O	0.826767	-0.402223	0.367656
O28	O	1.326767	0.097777	0.867656
O29	O	1.019709	-0.311245	0.477429
O30	O	1.519709	0.188755	0.977429
O31	O	1.019546	-0.522318	0.284515
O32	O	1.519546	-0.022318	0.784515
O33	O	0.936425	-0.522289	0.367643
O34	O	1.436425	-0.022289	0.867643
C35	C	0.802225	-0.356750	0.326094
C36	C	1.302225	0.143250	0.826094
C37	C	0.726993	-0.356761	0.326101
C38	C	1.226993	0.143239	0.826101
C39	C	0.977988	-0.549174	0.326088
C40	C	1.477988	-0.049174	0.826088
C41	C	0.978010	-0.631489	0.326098
C42	C	1.478010	-0.131489	0.826098
C43	C	0.691648	-0.404187	0.369311
C44	C	1.191648	0.095813	0.869311
C45	C	0.620960	-0.404188	0.369320
C46	C	1.120960	0.095812	0.869320
C47	C	0.585617	-0.356767	0.326116
C48	C	1.085617	0.143233	0.826116
C49	C	0.620967	-0.309336	0.282905
C50	C	1.120967	0.190664	0.782905
C51	C	0.691654	-0.309332	0.282899
C52	C	1.191654	0.190668	0.782899
C53	C	0.335894	-0.309353	0.282927
C54	C	0.835894	0.190647	0.782927
C55	C	0.265202	-0.309363	0.282934
C56	C	0.765202	0.190637	0.782934
C57	C	0.265200	-0.404209	0.369348
C58	C	0.765200	0.095791	0.869348
C59	C	0.335887	-0.404205	0.369343
C60	C	0.835887	0.095795	0.869343
C61	C	0.371230	-0.356771	0.326134
C62	C	0.871230	0.143229	0.826134
C63	C	0.447879	-0.356770	0.326125
C64	C	0.947879	0.143230	0.826125
C65	C	0.508970	-0.356772	0.326121
C66	C	1.008970	0.143228	0.826121
C67	C	0.978088	-0.782197	0.326125
C68	C	1.478088	-0.282197	0.826125
C69	C	0.925763	-0.813564	0.378387
C70	C	1.425763	-0.313564	0.878387
C71	C	0.925961	-0.899181	0.378607
C72	C	1.425961	-0.399181	0.878607
C73	C	0.978163	-0.930579	0.326151
C74	C	1.478163	-0.430579	0.826151
C75	C	1.049521	-0.899397	0.345342
C76	C	1.549521	-0.399397	0.845342
C77	C	1.049174	-0.813752	0.345706
C78	C	1.549174	-0.313752	0.845706
C79	C	0.959695	-0.813832	0.254547
C80	C	1.459695	-0.313832	0.754547
C81	C	0.958164	-0.899484	0.254944
C82	C	1.458164	-0.399484	0.754944
C83	C	0.978210	-1.014439	0.326165
C84	C	1.478210	-0.514439	0.826165
C85	C	0.978045	-0.698337	0.326113
C86	C	1.478045	-0.198337	0.826113
C87	C	1.154624	-0.356779	0.326139
C88	C	1.654624	0.143221	0.826139
C89	C	1.229856	-0.356785	0.326148
C90	C	1.729856	0.143215	0.826148
C91	C	0.978119	-0.356717	0.502659
C92	C	1.478119	0.143283	1.002659
C93	C	0.978135	-0.356697	0.577891
C94	C	1.478135	0.143303	1.077891
C95	C	0.978193	-0.163602	0.326160
C96	C	1.478193	0.336398	0.826160
C97	C	0.978241	-0.081288	0.326178
C98	C	1.478241	0.418712	0.826178
C99	C	0.978082	-0.356757	0.150260
C100	C	1.478082	0.143243	0.650260
C101	C	0.978197	-0.356568	0.075029
C102	C	1.478197	0.143432	0.575029
C103	C	1.021454	-0.309333	0.613252
C104	C	1.521454	0.190667	1.113252
C105	C	1.021461	-0.309311	0.683941
C106	C	1.521461	0.190689	1.183941
C107	C	0.978152	-0.356659	0.719267
C108	C	1.478152	0.143341	1.219267
C109	C	0.934828	-0.404025	0.683900
C110	C	1.434828	0.095975	1.183900
C111	C	0.934819	-0.404042	0.613213
C112	C	1.434819	0.095958	1.113213
C113	C	0.934867	-0.403956	0.968974
C114	C	1.434867	0.096044	1.468974
C115	C	0.934881	-0.403937	1.039666
C116	C	1.434881	0.096063	1.539666
C117	C	1.021509	-0.309225	1.039702
C118	C	1.521509	0.190775	1.539702
C119	C	1.021499	-0.309242	0.969014
C120	C	1.521499	0.190758	1.469014
C121	C	0.978173	-0.356606	0.933654
C122	C	1.478173	0.143394	1.433654
C123	C	0.978165	-0.356628	0.857006
C124	C	1.478165	0.143372	1.357006
C125	C	0.978163	-0.356641	0.795914
C126	C	1.478163	0.143359	1.295914
H127	H	0.720419	-0.442805	0.404490
H128	H	1.220419	0.057195	0.904490
H129	H	0.236414	-0.442829	0.404533
H130	H	0.736414	0.057171	0.904533
H131	H	0.899563	-0.442573	0.712668
H132	H	1.399563	0.057427	1.212668
H133	H	1.056723	-0.270780	0.584495
H134	H	1.556723	0.229220	1.084495
H135	H	0.899537	-0.442604	0.584423
H136	H	1.399537	0.057396	1.084423
C137	C	0.854036	-0.785835	0.362375
C138	C	1.354036	-0.285835	0.862375
H139	H	0.855355	-0.754876	0.323677
H140	H	1.355355	-0.254876	0.823677
H141	H	0.825345	-0.826853	0.353795
H142	H	1.325345	-0.326853	0.853795
H143	H	0.837160	-0.758652	0.399775
H144	H	1.337160	-0.258652	0.899775
C145	C	0.887240	-0.456019	1.078526
C146	C	1.387240	0.043981	1.578526
H147	H	0.893459	-0.449230	1.125689
H148	H	1.393459	0.050770	1.625689
H149	H	0.841766	-0.445179	1.066941
H150	H	1.341766	0.054821	1.566941
H151	H	0.897117	-0.505784	1.066931
H152	H	1.397117	-0.005784	1.566931
H153	H	1.056768	-0.270690	0.940256
H154	H	1.556768	0.229310	1.440256
C155	C	1.069115	-0.257214	0.722836
C156	C	1.569115	0.242786	1.222836
H157	H	1.094913	-0.229026	0.691673
H158	H	1.594913	0.270974	1.191673
H159	H	1.043250	-0.224934	0.750413
H160	H	1.543250	0.275066	1.250413
H161	H	1.098594	-0.285546	0.750409
H162	H	1.598594	0.214454	1.250409
H163	H	0.592186	-0.442808	0.404505
H164	H	1.092186	0.057192	0.904505
C165	C	0.226326	-0.257191	0.235413
C166	C	0.726326	0.242809	0.735413
H167	H	0.257498	-0.228935	0.209684
H168	H	0.757498	0.271065	0.709684
H169	H	0.198725	-0.285476	0.205876
H170	H	0.698725	0.214524	0.705876
H171	H	0.198777	-0.224966	0.261370
H172	H	0.698777	0.275034	0.761370
C173	C	1.005906	-0.928351	0.199552
C174	C	1.505906	-0.428351	0.699552
H175	H	1.038809	-0.959881	0.219217
H176	H	1.538809	-0.459881	0.719217
H177	H	0.980613	-0.955151	0.166952
H178	H	1.480613	-0.455151	0.666952
H179	H	1.027764	-0.887821	0.178323
H180	H	1.527764	-0.387821	0.678323
H181	H	0.364662	-0.270735	0.247739
H182	H	0.864662	0.229265	0.747739
C183	C	0.374760	-0.456365	0.416869
C184	C	0.874760	0.043635	0.916869
H185	H	0.343585	-0.484606	0.442610
H186	H	0.843585	0.015394	0.942610
H187	H	0.402312	-0.488594	0.390925
H188	H	0.902312	0.011406	0.890925
H189	H	0.402358	-0.428068	0.446406
H190	H	0.902358	0.071932	0.946406
H191	H	0.937805	-0.791995	0.431122
H192	H	1.437805	-0.291995	0.931122
C193	C	0.582092	-0.257177	0.235379
C194	C	1.082092	0.242823	0.735379
H195	H	0.534931	-0.263977	0.241564
H196	H	1.034931	0.236023	0.741564
H197	H	0.593701	-0.207431	0.245362
H198	H	1.093701	0.292569	0.745362
H199	H	0.593655	-0.267956	0.189882
H200	H	1.093655	0.232044	0.689882
C201	C	0.887276	-0.927142	0.235328
C202	C	1.387276	-0.427142	0.735328
H203	H	0.869930	-0.957505	0.270388
H204	H	1.369930	-0.457505	0.770388
H205	H	0.858153	-0.886091	0.228753
H206	H	1.358153	-0.386091	0.728753
H207	H	0.890032	-0.954946	0.194728
H208	H	1.390032	-0.454946	0.694728
C209	C	0.890567	-0.784758	0.230894
C210	C	1.390567	-0.284758	0.730894
H211	H	0.880431	-0.804508	0.187608
H212	H	1.380431	-0.304508	0.687608
H213	H	0.856737	-0.799453	0.262119
H214	H	1.356737	-0.299453	0.762119
H215	H	0.891891	-0.732370	0.228357
H216	H	1.391891	-0.232370	0.728357
C217	C	0.887197	-0.456038	0.930086
C218	C	1.387197	0.043962	1.430086
H219	H	0.861406	-0.484232	0.961251
H220	H	1.361406	0.015768	1.461251
H221	H	0.857722	-0.427697	0.902522
H222	H	1.357722	0.072303	1.402522
H223	H	0.913051	-0.488325	0.902499
H224	H	1.413051	0.011675	1.402499
C225	C	1.070201	-0.786687	0.416381
C226	C	1.570201	-0.286687	0.916381
H227	H	1.070179	-0.734211	0.417225
H228	H	1.570179	-0.234211	0.917225
H229	H	1.039189	-0.804832	0.448985
H230	H	1.539189	-0.304832	0.948985
H231	H	1.114219	-0.804316	0.426529
H232	H	1.614219	-0.304316	0.926529
C233	C	1.103658	-0.785705	0.296522
C234	C	1.603658	-0.285705	0.796522
H235	H	1.103815	-0.733221	0.296411
H236	H	1.603815	-0.233221	0.796411
H237	H	1.146634	-0.803286	0.310478
H238	H	1.646634	-0.303286	0.810478
H239	H	1.094131	-0.803298	0.252333
H240	H	1.594131	-0.303298	0.752333
H241	H	1.056785	-0.270657	1.068500
H242	H	1.556785	0.229343	1.568500
C243	C	0.854487	-0.927678	0.362422
C244	C	1.354487	-0.427678	0.862422
H245	H	0.854513	-0.980161	0.362537
H246	H	1.354513	-0.480161	0.862537
H247	H	0.823763	-0.910114	0.395559
H248	H	1.323763	-0.410114	0.895559
H249	H	0.841094	-0.910344	0.319179
H250	H	1.341094	-0.410344	0.819179
C251	C	0.730536	-0.257166	0.235370
C252	C	1.230536	0.242834	0.735370
H253	H	0.777696	-0.263949	0.241559
H254	H	1.277696	0.236051	0.741559
H255	H	0.718930	-0.267935	0.189875
H256	H	1.218930	0.232065	0.689875
H257	H	0.718977	-0.207421	0.245365
H258	H	1.218977	0.292579	0.745365
C259	C	0.942461	-0.926799	0.450262
C260	C	1.442461	-0.426799	0.950262
H261	H	0.949076	-0.885676	0.479348
H262	H	1.449076	-0.385676	0.979348
H263	H	0.906081	-0.955974	0.466577
H264	H	1.406081	-0.455974	0.966577
H265	H	0.982420	-0.955778	0.449068
H266	H	1.482420	-0.455778	0.949068
C267	C	1.103657	-0.926860	0.295515
C268	C	1.603657	-0.426860	0.795515
H269	H	1.083173	-0.957665	0.262488
H270	H	1.583173	-0.457665	0.762488
H271	H	1.124218	-0.885726	0.273972
H272	H	1.624218	-0.385726	0.773972
H273	H	1.136974	-0.954148	0.319344
H274	H	1.636974	-0.454148	0.819344
H275	H	1.065380	-0.920794	0.397093
H276	H	1.565380	-0.420794	0.897093
C277	C	1.011169	-0.786419	0.201945
C278	C	1.511169	-0.286419	0.701945
H279	H	1.043713	-0.755843	0.223462
H280	H	1.543713	-0.255843	0.723462
H281	H	1.033132	-0.827582	0.181889
H282	H	1.533132	-0.327582	0.681889
H283	H	0.988416	-0.758902	0.168038
H284	H	1.488416	-0.258902	0.668038
