data_functionalizedCrystal
_audit_creation_method	'MofGen! by Chris Wilmer'
_symmetry_space_group_name_H-M	'P1'
_symmetry_Int_Tables_number	1
_symmetry_cell_setting	triclinic
loop_
_symmetry_equiv_pos_as_xyz
  x,y,z
_cell_length_a	16.625547
_cell_length_b	18.101397
_cell_length_c	16.625539
_cell_angle_alpha	89.970010
_cell_angle_beta	89.978691
_cell_angle_gamma	90.020402
loop_
_atom_site_label
_atom_site_type_symbol
_atom_site_fract_x
_atom_site_fract_y
_atom_site_fract_z
Zn1	Zn	1.232664	-0.294843	-0.455981
Zn2	Zn	1.482664	-0.044843	-0.205981
Zn3	Zn	1.732664	0.205157	0.044019
Zn4	Zn	1.982664	0.455157	0.294019
Zn5	Zn	1.232580	-0.418688	-0.321140
Zn6	Zn	1.482580	-0.168688	-0.071140
Zn7	Zn	1.732580	0.081312	0.178860
Zn8	Zn	1.982580	0.331312	0.428860
Zn9	Zn	1.097834	-0.294865	-0.321151
Zn10	Zn	1.347834	-0.044865	-0.071151
Zn11	Zn	1.597834	0.205135	0.178849
Zn12	Zn	1.847834	0.455135	0.428849
Zn13	Zn	1.097801	-0.418647	-0.455920
Zn14	Zn	1.347801	-0.168647	-0.205920
Zn15	Zn	1.597801	0.081353	0.044080
Zn16	Zn	1.847801	0.331353	0.294080
O17	O	1.165220	-0.356761	-0.388548
O18	O	1.415220	-0.106761	-0.138548
O19	O	1.665220	0.143239	0.111452
O20	O	1.915220	0.393239	0.361452
O21	O	1.345485	-0.311279	-0.438115
O22	O	1.595485	-0.061279	-0.188115
O23	O	1.845485	0.188721	0.061885
O24	O	2.095485	0.438721	0.311885
O25	O	1.214684	-0.402289	-0.208309
O26	O	1.464684	-0.152289	0.041691
O27	O	1.714684	0.097711	0.291691
O28	O	1.964684	0.347711	0.541691
O29	O	1.115768	-0.191229	-0.339067
O30	O	1.365768	0.058771	-0.089067
O31	O	1.615768	0.308771	0.160933
O32	O	1.865768	0.558771	0.410933
O33	O	1.345423	-0.402268	-0.339048
O34	O	1.595423	-0.152268	-0.089048
O35	O	1.845423	0.097732	0.160952
O36	O	2.095423	0.347732	0.410952
O37	O	1.214827	-0.191213	-0.438126
O38	O	1.464827	0.058787	-0.188126
O39	O	1.714827	0.308787	0.061874
O40	O	1.964827	0.558787	0.311874
O41	O	1.115687	-0.311316	-0.208317
O42	O	1.365687	-0.061316	0.041683
O43	O	1.615687	0.188684	0.291683
O44	O	1.865687	0.438684	0.541683
O45	O	0.984997	-0.311277	-0.339008
O46	O	1.234997	-0.061277	-0.089008
O47	O	1.484997	0.188723	0.160992
O48	O	1.734997	0.438723	0.410992
O49	O	1.115712	-0.402198	-0.568760
O50	O	1.365712	-0.152198	-0.318760
O51	O	1.615712	0.097802	-0.068760
O52	O	1.865712	0.347802	0.181240
O53	O	0.984973	-0.402219	-0.438022
O54	O	1.234973	-0.152219	-0.188022
O55	O	1.484973	0.097781	0.061978
O56	O	1.734973	0.347781	0.311978
O57	O	1.214795	-0.311240	-0.568805
O58	O	1.464795	-0.061240	-0.318805
O59	O	1.714795	0.188760	-0.068805
O60	O	1.964795	0.438760	0.181195
O61	O	1.214652	-0.522316	-0.338988
O62	O	1.464652	-0.272316	-0.088988
O63	O	1.714652	-0.022316	0.161012
O64	O	1.964652	0.227684	0.411012
O65	O	1.115631	-0.522286	-0.438010
O66	O	1.365631	-0.272286	-0.188010
O67	O	1.615631	-0.022286	0.061990
O68	O	1.865631	0.227714	0.311990
C69	C	0.955729	-0.356746	-0.388510
C70	C	1.205729	-0.106746	-0.138510
C71	C	1.455729	0.143254	0.111490
C72	C	1.705729	0.393254	0.361490
C73	C	0.866108	-0.356758	-0.388513
C74	C	1.116108	-0.106758	-0.138513
C75	C	1.366108	0.143242	0.111487
C76	C	1.616108	0.393242	0.361487
C77	C	0.793325	-0.356760	-0.388523
C78	C	1.043325	-0.106760	-0.138523
C79	C	1.293325	0.143240	0.111477
C80	C	1.543325	0.393240	0.361477
C81	C	0.702017	-0.356763	-0.388543
C82	C	0.952017	-0.106763	-0.138543
C83	C	1.202017	0.143237	0.111457
C84	C	1.452017	0.393237	0.361457
C85	C	0.629240	-0.356770	-0.388563
C86	C	0.879240	-0.106770	-0.138563
C87	C	1.129240	0.143230	0.111437
C88	C	1.379240	0.393230	0.361437
C89	C	0.537926	-0.356775	-0.388583
C90	C	0.787926	-0.106775	-0.138583
C91	C	1.037926	0.143225	0.111417
C92	C	1.287926	0.393225	0.361417
C93	C	1.165151	-0.549171	-0.388509
C94	C	1.415151	-0.299171	-0.138509
C95	C	1.665151	-0.049171	0.111491
C96	C	1.915151	0.200829	0.361491
C97	C	1.165195	-0.631485	-0.388519
C98	C	1.415195	-0.381485	-0.138519
C99	C	1.665195	-0.131485	0.111481
C100	C	1.915195	0.118515	0.361481
C101	C	1.165298	-0.930576	-0.388593
C102	C	1.415298	-0.680576	-0.138593
C103	C	1.665298	-0.430576	0.111407
C104	C	1.915298	-0.180576	0.361407
C105	C	1.227426	-0.899239	-0.326124
C106	C	1.477426	-0.649239	-0.076124
C107	C	1.727426	-0.399239	0.173876
C108	C	1.977426	-0.149239	0.423876
C109	C	1.227641	-0.813621	-0.326286
C110	C	1.477641	-0.563621	-0.076286
C111	C	1.727641	-0.313621	0.173714
C112	C	1.977641	-0.063621	0.423714
C113	C	1.165247	-0.782194	-0.388556
C114	C	1.415247	-0.532194	-0.138556
C115	C	1.665247	-0.282194	0.111444
C116	C	1.915247	-0.032194	0.361444
C117	C	1.188278	-0.813202	-0.473547
C118	C	1.438278	-0.563202	-0.223547
C119	C	1.688278	-0.313202	0.026453
C120	C	1.938278	-0.063202	0.276453
C121	C	1.188759	-0.898847	-0.473207
C122	C	1.438759	-0.648847	-0.223207
C123	C	1.688759	-0.398847	0.026793
C124	C	1.938759	-0.148847	0.276793
C125	C	1.079973	-0.899085	-0.366805
C126	C	1.329973	-0.649085	-0.116805
C127	C	1.579973	-0.399085	0.133195
C128	C	1.829973	-0.149085	0.383195
C129	C	1.080394	-0.813436	-0.364908
C130	C	1.330394	-0.563436	-0.114908
C131	C	1.580394	-0.313436	0.135092
C132	C	1.830394	-0.063436	0.385092
C133	C	1.165216	-0.698334	-0.388540
C134	C	1.415216	-0.448334	-0.138540
C135	C	1.665216	-0.198334	0.111460
C136	C	1.915216	0.051666	0.361460
C137	C	1.165330	-1.014436	-0.388614
C138	C	1.415330	-0.764436	-0.138614
C139	C	1.665330	-0.514436	0.111386
C140	C	1.915330	-0.264436	0.361386
C141	C	1.375528	-0.356776	-0.388587
C142	C	1.625528	-0.106776	-0.138587
C143	C	1.875528	0.143224	0.111413
C144	C	2.125528	0.393224	0.361413
C145	C	1.465150	-0.356782	-0.388603
C146	C	1.715150	-0.106782	-0.138603
C147	C	1.965150	0.143218	0.111397
C148	C	2.215150	0.393218	0.361397
C149	C	1.165259	-0.356712	-0.598857
C150	C	1.415259	-0.106712	-0.348857
C151	C	1.665259	0.143288	-0.098857
C152	C	1.915259	0.393288	0.151143
C153	C	1.165276	-0.356691	-0.688478
C154	C	1.415276	-0.106691	-0.438478
C155	C	1.665276	0.143309	-0.188478
C156	C	1.915276	0.393309	0.061522
C157	C	1.165311	-0.163599	-0.388605
C158	C	1.415311	0.086401	-0.138605
C159	C	1.665311	0.336401	0.111395
C160	C	1.915311	0.586401	0.361395
C161	C	1.165350	-0.081285	-0.388629
C162	C	1.415350	0.168715	-0.138629
C163	C	1.665350	0.418715	0.111371
C164	C	1.915350	0.668715	0.361371
C165	C	1.165289	-0.356675	-0.761261
C166	C	1.415289	-0.106675	-0.511261
C167	C	1.665289	0.143325	-0.261261
C168	C	1.915289	0.393325	-0.011261
C169	C	1.165308	-0.356647	-0.852569
C170	C	1.415308	-0.106647	-0.602569
C171	C	1.665308	0.143353	-0.352569
C172	C	1.915308	0.393353	-0.102569
C173	C	1.165327	-0.356621	-0.925346
C174	C	1.415327	-0.106621	-0.675346
C175	C	1.665327	0.143379	-0.425346
C176	C	1.915327	0.393379	-0.175346
C177	C	1.165347	-0.356594	-1.016660
C178	C	1.415347	-0.106594	-0.766660
C179	C	1.665347	0.143406	-0.516660
C180	C	1.915347	0.393406	-0.266660
C181	C	1.165227	-0.356756	-0.179057
C182	C	1.415227	-0.106756	0.070943
C183	C	1.665227	0.143244	0.320943
C184	C	1.915227	0.393244	0.570943
C185	C	1.165366	-0.356568	-0.089437
C186	C	1.415366	-0.106568	0.160563
C187	C	1.665366	0.143432	0.410563
C188	C	1.915366	0.393432	0.660563
H189	H	1.213233	-0.792658	-0.263266
H190	H	1.463233	-0.542658	-0.013266
H191	H	1.713233	-0.292658	0.236734
H192	H	1.963233	-0.042658	0.486734
C193	C	1.273019	-0.925759	-0.498128
C194	C	1.523019	-0.675759	-0.248128
C195	C	1.773019	-0.425759	0.001872
C196	C	2.023019	-0.175759	0.251872
N197	N	1.336486	-0.946025	-0.516896
N198	N	1.586486	-0.696025	-0.266896
N199	N	1.836486	-0.446025	-0.016896
N200	N	2.086486	-0.196025	0.233104
H201	H	1.213191	-0.919882	-0.262915
H202	H	1.463191	-0.669882	-0.012915
H203	H	1.713191	-0.419882	0.237085
H204	H	1.963191	-0.169882	0.487085
C205	C	1.312343	-0.928255	-0.345362
C206	C	1.562343	-0.678255	-0.095362
C207	C	1.812343	-0.428255	0.154638
C208	C	2.062343	-0.178255	0.404638
N209	N	1.376301	-0.950117	-0.359849
N210	N	1.626301	-0.700117	-0.109849
N211	N	1.876301	-0.450117	0.140151
N212	N	2.126301	-0.200117	0.390151
H213	H	1.033683	-0.919351	-0.412304
H214	H	1.283683	-0.669351	-0.162304
H215	H	1.533683	-0.419351	0.087696
H216	H	1.783683	-0.169351	0.337696
H217	H	1.059020	-0.920745	-0.305904
H218	H	1.309020	-0.670745	-0.055904
H219	H	1.559020	-0.420745	0.194096
H220	H	1.809020	-0.170745	0.444096
H221	H	1.290845	-0.793077	-0.340701
H222	H	1.540845	-0.543077	-0.090701
H223	H	1.790845	-0.293077	0.159299
H224	H	2.040845	-0.043077	0.409299
C225	C	1.130290	-0.926850	-0.538239
C226	C	1.380290	-0.676850	-0.288239
C227	C	1.630290	-0.426850	-0.038239
C228	C	1.880290	-0.176850	0.211761
N229	N	1.086257	-0.947939	-0.587226
N230	N	1.336257	-0.697939	-0.337226
N231	N	1.586257	-0.447939	-0.087226
N232	N	1.836257	-0.197939	0.162774
H233	H	1.144410	-0.792843	-0.521344
H234	H	1.394410	-0.542843	-0.271344
H235	H	1.644410	-0.292843	-0.021344
H236	H	1.894410	-0.042843	0.228656
H237	H	1.249948	-0.791695	-0.492314
H238	H	1.499948	-0.541695	-0.242314
H239	H	1.749948	-0.291695	0.007686
H240	H	1.999948	-0.041695	0.257686
C241	C	1.056925	-0.786057	-0.280415
C242	C	1.306925	-0.536057	-0.030415
C243	C	1.556925	-0.286057	0.219585
C244	C	1.806925	-0.036057	0.469585
N245	N	1.039249	-0.765428	-0.216775
N246	N	1.289249	-0.515428	0.033225
N247	N	1.539249	-0.265428	0.283225
N248	N	1.789249	-0.015428	0.533225
H249	H	1.031615	-0.792051	-0.407075
H250	H	1.281615	-0.542051	-0.157075
H251	H	1.531615	-0.292051	0.092925
H252	H	1.781615	-0.042051	0.342925
