data_functionalizedCrystal
_audit_creation_method	'MofGen! by Chris Wilmer'
_symmetry_space_group_name_H-M	'P1'
_symmetry_Int_Tables_number	1
_symmetry_cell_setting	triclinic
loop_
_symmetry_equiv_pos_as_xyz
  x,y,z
_cell_length_a	23.532407
_cell_length_b	15.995350
_cell_length_c	15.072220
_cell_angle_alpha	89.993871
_cell_angle_beta	89.990343
_cell_angle_gamma	83.170562
loop_
_atom_site_label
_atom_site_type_symbol
_atom_site_fract_x
_atom_site_fract_y
_atom_site_fract_z
O1	O	0.073404	1.110385	-0.073668
O2	O	0.323404	1.360385	0.176332
O3	O	0.573404	1.610385	0.426332
O4	O	0.823404	1.860385	0.676332
O5	O	0.082469	0.866535	-0.073701
O6	O	0.332469	1.116535	0.176299
O7	O	0.582469	1.366535	0.426299
O8	O	0.832469	1.616535	0.676299
O9	O	-0.004967	0.995813	-0.073659
O10	O	0.245033	1.245813	0.176341
O11	O	0.495033	1.495813	0.426341
O12	O	0.745033	1.745813	0.676341
O13	O	0.160840	0.981107	-0.073711
O14	O	0.410840	1.231107	0.176289
O15	O	0.660840	1.481107	0.426289
O16	O	0.910840	1.731107	0.676289
O17	O	-0.004962	0.995781	0.073906
O18	O	0.245038	1.245781	0.323906
O19	O	0.495038	1.495781	0.573906
O20	O	0.745038	1.745781	0.823906
O21	O	0.082474	0.866503	0.073864
O22	O	0.332474	1.116503	0.323864
O23	O	0.582474	1.366503	0.573864
O24	O	0.832474	1.616503	0.823864
O25	O	0.073409	1.110354	0.073897
O26	O	0.323409	1.360354	0.323897
O27	O	0.573409	1.610354	0.573897
O28	O	0.823409	1.860354	0.823897
Zn29	Zn	0.077942	0.988423	0.097310
Zn30	Zn	0.327942	1.238423	0.347310
Zn31	Zn	0.577942	1.488423	0.597310
Zn32	Zn	0.827942	1.738423	0.847310
Zn33	Zn	0.077935	0.988465	-0.097114
Zn34	Zn	0.327935	1.238465	0.152886
Zn35	Zn	0.577935	1.488465	0.402886
Zn36	Zn	0.827935	1.738465	0.652886
O37	O	0.160845	0.981075	0.073855
O38	O	0.410845	1.231075	0.323855
O39	O	0.660845	1.481075	0.573855
O40	O	0.910845	1.731075	0.823855
C41	C	0.082096	0.835327	0.000078
C42	C	0.332096	1.085327	0.250078
C43	C	0.582096	1.335327	0.500078
C44	C	0.832096	1.585327	0.750078
C45	C	0.080973	0.742386	0.000067
C46	C	0.330973	0.992386	0.250067
C47	C	0.580973	1.242386	0.500067
C48	C	0.830973	1.492386	0.750067
C49	C	-0.026182	0.995423	0.000128
C50	C	0.223818	1.245423	0.250128
C51	C	0.473818	1.495423	0.500128
C52	C	0.723818	1.745423	0.750128
C53	C	-0.089404	0.994297	0.000141
C54	C	0.160596	1.244297	0.250141
C55	C	0.410596	1.494297	0.500141
C56	C	0.660596	1.744297	0.750141
N57	N	0.077946	0.988401	0.229998
N58	N	0.327946	1.238401	0.479998
N59	N	0.577946	1.488401	0.729998
N60	N	0.827946	1.738401	0.979998
C61	C	-0.355883	0.913149	0.000075
C62	C	-0.105883	1.163149	0.250075
C63	C	0.144117	1.413149	0.500075
C64	C	0.394117	1.663149	0.750075
C65	C	-0.296479	0.914195	0.000082
C66	C	-0.046479	1.164195	0.250082
C67	C	0.203521	1.414195	0.500082
C68	C	0.453521	1.664195	0.750082
O69	O	-0.259982	0.849822	0.000046
O70	O	-0.009982	1.099822	0.250046
O71	O	0.240018	1.349822	0.500046
O72	O	0.490018	1.599822	0.750046
N73	N	-0.273557	0.991051	0.000103
N74	N	-0.023557	1.241051	0.250103
N75	N	0.226443	1.491051	0.500103
N76	N	0.476443	1.741051	0.750103
C77	C	-0.310043	1.066866	0.000107
C78	C	-0.060043	1.316866	0.250107
C79	C	0.189957	1.566866	0.500107
C80	C	0.439957	1.816866	0.750107
O81	O	-0.285091	1.132334	0.000125
O82	O	-0.035091	1.382334	0.250125
O83	O	0.214909	1.632334	0.500125
O84	O	0.464909	1.882334	0.750125
C85	C	-0.369446	1.065819	0.000094
C86	C	-0.119446	1.315819	0.250094
C87	C	0.130554	1.565819	0.500094
C88	C	0.380554	1.815819	0.750094
C89	C	-0.392364	0.988958	0.000082
C90	C	-0.142364	1.238958	0.250082
C91	C	0.107636	1.488958	0.500082
C92	C	0.357636	1.738958	0.750082
C93	C	-0.378802	0.836294	0.000063
C94	C	-0.128802	1.086294	0.250063
C95	C	0.121198	1.336294	0.500063
C96	C	0.371198	1.586294	0.750063
C97	C	-0.438202	0.835249	0.000058
C98	C	-0.188202	1.085249	0.250058
C99	C	0.061798	1.335249	0.500058
C100	C	0.311798	1.585249	0.750058
C101	C	-0.474684	0.911058	0.000065
C102	C	-0.224684	1.161058	0.250065
C103	C	0.025316	1.411058	0.500065
C104	C	0.275316	1.661058	0.750065
C105	C	-0.451765	0.987913	0.000077
C106	C	-0.201765	1.237913	0.250077
C107	C	0.048235	1.487913	0.500077
C108	C	0.298235	1.737913	0.750077
C109	C	-0.405931	1.141634	0.000092
C110	C	-0.155931	1.391634	0.250092
C111	C	0.094069	1.641634	0.500092
C112	C	0.344069	1.891634	0.750092
C113	C	-0.465337	1.140580	0.000078
C114	C	-0.215337	1.390580	0.250078
C115	C	0.034663	1.640580	0.500078
C116	C	0.284663	1.890580	0.750078
C117	C	-0.488256	1.063719	0.000067
C118	C	-0.238256	1.313719	0.250067
C119	C	0.011744	1.563719	0.500067
C120	C	0.261744	1.813719	0.750067
C121	C	-0.547646	1.062676	0.000079
C122	C	-0.297646	1.312676	0.250079
C123	C	-0.047646	1.562676	0.500079
C124	C	0.202354	1.812676	0.750079
N125	N	-0.570568	0.985820	0.000059
N126	N	-0.320568	1.235820	0.250059
N127	N	-0.070568	1.485820	0.500059
N128	N	0.179432	1.735820	0.750059
C129	C	-0.534087	0.910011	0.000051
C130	C	-0.284087	1.160011	0.250051
C131	C	-0.034087	1.410011	0.500051
C132	C	0.215913	1.660011	0.750051
C133	C	-0.185292	1.069059	0.000134
C134	C	0.064708	1.319059	0.250134
C135	C	0.314708	1.569059	0.500134
C136	C	0.564708	1.819059	0.750134
C137	C	-0.125890	1.070107	0.000153
C138	C	0.124110	1.320107	0.250153
C139	C	0.374110	1.570107	0.500153
C140	C	0.624110	1.820107	0.750153
C141	C	-0.112330	0.917435	0.000127
C142	C	0.137670	1.167435	0.250127
C143	C	0.387670	1.417435	0.500127
C144	C	0.637670	1.667435	0.750127
C145	C	-0.171733	0.916388	0.000113
C146	C	0.078267	1.166388	0.250113
C147	C	0.328267	1.416388	0.500113
C148	C	0.578267	1.666388	0.750113
C149	C	-0.208214	0.992203	0.000113
C150	C	0.041786	1.242203	0.250113
C151	C	0.291786	1.492203	0.500113
C152	C	0.541786	1.742203	0.750113
C153	C	-0.658832	0.907821	0.000041
C154	C	-0.408832	1.157821	0.250041
C155	C	-0.158832	1.407821	0.500041
C156	C	0.091168	1.657821	0.750041
C157	C	-0.718238	0.906782	0.000039
C158	C	-0.468238	1.156782	0.250039
C159	C	-0.218238	1.406782	0.500039
C160	C	0.031762	1.656782	0.750039
C161	C	-0.731792	1.059453	0.000061
C162	C	-0.481792	1.309453	0.250061
C163	C	-0.231792	1.559453	0.500061
C164	C	0.018208	1.809453	0.750061
C165	C	-0.672392	1.060493	0.000068
C166	C	-0.422392	1.310493	0.250068
C167	C	-0.172392	1.560493	0.500068
C168	C	0.077608	1.810493	0.750068
C169	C	-0.635912	0.984670	0.000054
C170	C	-0.385912	1.234670	0.250054
C171	C	-0.135912	1.484670	0.500054
C172	C	0.114088	1.734670	0.750054
O173	O	-0.584177	1.127016	0.000112
O174	O	-0.334177	1.377016	0.250112
O175	O	-0.084177	1.627016	0.500112
O176	O	0.165823	1.877016	0.750112
O177	O	-0.559047	0.844554	0.000022
O178	O	-0.309047	1.094554	0.250022
O179	O	-0.059047	1.344554	0.500022
O180	O	0.190953	1.594554	0.750022
C181	C	0.182060	0.981465	0.000066
C182	C	0.432060	1.231465	0.250066
C183	C	0.682060	1.481465	0.500066
C184	C	0.932060	1.731465	0.750066
C185	C	0.245281	0.982591	0.000047
C186	C	0.495281	1.232591	0.250047
C187	C	0.745281	1.482591	0.500047
C188	C	0.995281	1.732591	0.750047
C189	C	0.073781	1.141561	0.000116
C190	C	0.323781	1.391561	0.250116
C191	C	0.573781	1.641561	0.500116
C192	C	0.823781	1.891561	0.750116
C193	C	0.074905	1.234502	0.000122
C194	C	0.324905	1.484502	0.250122
C195	C	0.574905	1.734502	0.500122
C196	C	0.824905	1.984502	0.750122
C197	C	0.078939	1.572216	0.000085
C198	C	0.328939	1.822216	0.250085
C199	C	0.578939	2.072216	0.500085
C200	C	0.828939	2.322216	0.750085
C201	C	0.141210	1.524264	0.000399
C202	C	0.391210	1.774264	0.250399
C203	C	0.641210	2.024264	0.500399
C204	C	0.891210	2.274264	0.750399
C205	C	0.140086	1.427583	0.000076
C206	C	0.390086	1.677583	0.250076
C207	C	0.640086	1.927583	0.500076
C208	C	0.890086	2.177583	0.750076
C209	C	0.076938	1.404672	0.000103
C210	C	0.326938	1.654672	0.250103
C211	C	0.576938	1.904672	0.500103
C212	C	0.826938	2.154672	0.750103
C213	C	0.046221	1.446006	-0.084155
C214	C	0.296221	1.696006	0.165845
C215	C	0.546221	1.946006	0.415845
C216	C	0.796221	2.196006	0.665845
C217	C	0.047785	1.542629	-0.084236
C218	C	0.297785	1.792629	0.165764
C219	C	0.547785	2.042629	0.415764
C220	C	0.797785	2.292629	0.665764
C221	C	0.046505	1.542995	0.083574
C222	C	0.296505	1.792995	0.333574
C223	C	0.546505	2.042995	0.583574
C224	C	0.796505	2.292995	0.833574
C225	C	0.046520	1.446050	0.084697
C226	C	0.296520	1.696050	0.334697
C227	C	0.546520	1.946050	0.584697
C228	C	0.796520	2.196050	0.834697
C229	C	0.075804	1.309984	0.000111
C230	C	0.325804	1.559984	0.250111
C231	C	0.575804	1.809984	0.500111
C232	C	0.825804	2.059984	0.750111
C233	C	0.080072	1.666904	0.000071
C234	C	0.330072	1.916904	0.250071
C235	C	0.580072	2.166904	0.500071
C236	C	0.830072	2.416904	0.750071
N237	N	0.077927	0.988494	-0.229803
N238	N	0.327927	1.238494	0.020197
N239	N	0.577927	1.488494	0.270197
N240	N	0.827927	1.738494	0.520197
C241	C	0.077933	0.988463	0.589200
C242	C	0.327933	1.238463	0.839200
C243	C	0.577933	1.488463	1.089200
C244	C	0.827933	1.738463	1.339200
C245	C	0.124562	0.919059	0.551570
C246	C	0.374562	1.169059	0.801570
C247	C	0.624562	1.419059	1.051570
C248	C	0.874562	1.669059	1.301570
C249	C	0.124732	0.919216	0.448745
C250	C	0.374732	1.169216	0.698745
C251	C	0.624732	1.419216	0.948745
C252	C	0.874732	1.669216	1.198745
C253	C	0.077940	0.988432	0.410996
C254	C	0.327940	1.238432	0.660996
C255	C	0.577940	1.488432	0.910996
C256	C	0.827940	1.738432	1.160996
C257	C	0.090918	1.075689	0.448294
C258	C	0.340918	1.325689	0.698294
C259	C	0.590918	1.575689	0.948294
C260	C	0.840918	1.825689	1.198294
C261	C	0.091250	1.075299	0.551152
C262	C	0.341250	1.325299	0.801152
C263	C	0.591250	1.575299	1.051152
C264	C	0.841250	1.825299	1.301152
C265	C	0.018188	0.971391	0.551316
C266	C	0.268188	1.221391	0.801316
C267	C	0.518188	1.471391	1.051316
C268	C	0.768188	1.721391	1.301316
C269	C	0.018587	0.969383	0.448452
C270	C	0.268587	1.219383	0.698452
C271	C	0.518587	1.469383	0.948452
C272	C	0.768587	1.719383	1.198452
C273	C	0.077942	0.988419	0.310282
C274	C	0.327942	1.238419	0.560282
C275	C	0.577942	1.488419	0.810282
C276	C	0.827942	1.738419	1.060282
C277	C	0.077932	0.988482	0.689913
C278	C	0.327932	1.238482	0.939913
C279	C	0.577932	1.488482	1.189913
C280	C	0.827932	1.738482	1.439913
H281	H	-0.736894	0.844190	0.000034
H282	H	-0.486894	1.094190	0.250034
H283	H	-0.236894	1.344190	0.500034
H284	H	0.013106	1.594190	0.750034
Cl285	Cl	-0.332950	0.740978	0.000052
Cl286	Cl	-0.082950	0.990978	0.250052
Cl287	Cl	0.167050	1.240978	0.500052
Cl288	Cl	0.417050	1.490978	0.750052
H289	H	0.070182	1.560745	-0.147236
H290	H	0.320182	1.810745	0.102764
H291	H	0.570182	2.060745	0.352764
H292	H	0.820182	2.310745	0.602764
H293	H	-0.190389	0.853801	0.000108
H294	H	0.059611	1.103801	0.250108
H295	H	0.309611	1.353801	0.500108
H296	H	0.559611	1.603801	0.750108
H297	H	-0.082616	0.855707	0.000121
H298	H	0.167384	1.105707	0.250121
H299	H	0.417384	1.355707	0.500121
H300	H	0.667384	1.605707	0.750121
Cl301	Cl	-0.025407	1.424795	-0.088969
Cl302	Cl	0.224593	1.674795	0.161031
Cl303	Cl	0.474593	1.924795	0.411031
Cl304	Cl	0.724593	2.174795	0.661031
Cl305	Cl	0.179464	1.554192	-0.092396
Cl306	Cl	0.429464	1.804192	0.157604
Cl307	Cl	0.679464	2.054192	0.407604
Cl308	Cl	0.929464	2.304192	0.657604
Cl309	Cl	-0.024579	1.422923	0.092588
Cl310	Cl	0.225421	1.672923	0.342588
Cl311	Cl	0.475421	1.922923	0.592588
Cl312	Cl	0.725421	2.172923	0.842588
Cl313	Cl	-0.097086	1.166736	0.000181
Cl314	Cl	0.152914	1.416736	0.250181
Cl315	Cl	0.402914	1.666736	0.500181
Cl316	Cl	0.652914	1.916736	0.750181
H317	H	0.168648	0.929757	0.577397
H318	H	0.418648	1.179757	0.827397
H319	H	0.668648	1.429757	1.077397
H320	H	0.918648	1.679757	1.327397
Cl321	Cl	0.179801	1.553093	0.093279
Cl322	Cl	0.429801	1.803093	0.343279
Cl323	Cl	0.679801	2.053093	0.593279
Cl324	Cl	0.929801	2.303093	0.843279
Cl325	Cl	-0.231148	1.164379	0.000145
Cl326	Cl	0.018852	1.414379	0.250145
Cl327	Cl	0.268852	1.664379	0.500145
Cl328	Cl	0.518852	1.914379	0.750145
Cl329	Cl	0.193190	0.935935	0.410717
Cl330	Cl	0.443190	1.185935	0.660717
Cl331	Cl	0.693190	1.435935	0.910717
Cl332	Cl	0.943190	1.685935	1.160717
H333	H	0.066866	1.563366	0.147433
H334	H	0.316866	1.813366	0.397433
H335	H	0.566866	2.063366	0.647433
H336	H	0.816866	2.313366	0.897433
H337	H	-0.629137	0.846079	0.000030
H338	H	-0.379137	1.096079	0.250030
H339	H	-0.129137	1.346079	0.500030
H340	H	0.120863	1.596079	0.750030
H341	H	0.164387	1.399518	-0.060439
H342	H	0.414387	1.649518	0.189561
H343	H	0.664387	1.899518	0.439561
H344	H	0.914387	2.149518	0.689561
H345	H	0.002068	1.575257	-0.088058
H346	H	0.252068	1.825257	0.161942
H347	H	0.502068	2.075257	0.411942
H348	H	0.752068	2.325257	0.661942
Cl349	Cl	0.158521	1.098641	0.588164
Cl350	Cl	0.408521	1.348641	0.838164
Cl351	Cl	0.658521	1.598641	1.088164
Cl352	Cl	0.908521	1.848641	1.338164
H353	H	0.008737	0.905198	0.424075
H354	H	0.258737	1.155198	0.674075
H355	H	0.508737	1.405198	0.924075
H356	H	0.758737	1.655198	1.174075
Cl357	Cl	-0.035385	1.049540	0.588888
Cl358	Cl	0.214615	1.299540	0.838888
Cl359	Cl	0.464615	1.549540	1.088888
Cl360	Cl	0.714615	1.799540	1.338888
Cl361	Cl	-0.467005	0.738618	0.000032
Cl362	Cl	-0.217005	0.988618	0.250032
Cl363	Cl	0.032995	1.238618	0.500032
Cl364	Cl	0.282995	1.488618	0.750032
Cl365	Cl	0.112812	0.818563	0.589770
Cl366	Cl	0.362812	1.068563	0.839770
Cl367	Cl	0.612812	1.318563	1.089770
Cl368	Cl	0.862812	1.568563	1.339770
H369	H	0.058627	1.128531	0.576043
H370	H	0.308627	1.378531	0.826043
H371	H	0.558627	1.628531	1.076043
H372	H	0.808627	1.878531	1.326043
Cl373	Cl	-0.643579	1.157119	0.000114
Cl374	Cl	-0.393579	1.407119	0.250114
Cl375	Cl	-0.143579	1.657119	0.500114
Cl376	Cl	0.106421	1.907119	0.750114
H377	H	0.067537	1.417425	-0.146870
H378	H	0.317537	1.667425	0.103130
H379	H	0.567537	1.917425	0.353130
H380	H	0.817537	2.167425	0.603130
H381	H	-0.761506	1.121175	0.000071
H382	H	-0.511506	1.371175	0.250071
H383	H	-0.261506	1.621175	0.500071
H384	H	-0.011506	1.871175	0.750071
H385	H	-0.387281	1.204222	0.000101
H386	H	-0.137281	1.454222	0.250101
H387	H	0.112719	1.704222	0.500101
H388	H	0.362719	1.954222	0.750101
H389	H	0.068949	1.418563	0.147030
H390	H	0.318949	1.668563	0.397030
H391	H	0.568949	1.918563	0.647030
H392	H	0.818949	2.168563	0.897030
Cl393	Cl	0.039879	1.157302	0.410547
Cl394	Cl	0.289879	1.407302	0.660547
Cl395	Cl	0.539879	1.657302	0.910547
Cl396	Cl	0.789879	1.907302	1.160547
Cl397	Cl	-0.024375	1.592632	0.084482
Cl398	Cl	0.225625	1.842632	0.334482
Cl399	Cl	0.475625	2.092632	0.584482
Cl400	Cl	0.725625	2.342632	0.834482
Cl401	Cl	-0.037497	1.042426	0.408801
Cl402	Cl	0.212503	1.292426	0.658801
Cl403	Cl	0.462503	1.542426	0.908801
Cl404	Cl	0.712503	1.792426	1.158801
H405	H	-0.495038	1.202319	0.000073
H406	H	-0.245038	1.452319	0.250073
H407	H	0.004962	1.702319	0.500073
H408	H	0.254962	1.952319	0.750073
H409	H	0.116999	0.854341	0.423528
H410	H	0.366999	1.104341	0.673528
H411	H	0.616999	1.354341	0.923528
H412	H	0.866999	1.604341	1.173528
Cl413	Cl	0.157423	1.099613	0.408495
Cl414	Cl	0.407423	1.349613	0.658495
Cl415	Cl	0.657423	1.599613	0.908495
Cl416	Cl	0.907423	1.849613	1.158495
Cl417	Cl	0.177374	1.383385	0.093318
Cl418	Cl	0.427374	1.633385	0.343318
Cl419	Cl	0.677374	1.883385	0.593318
Cl420	Cl	0.927374	2.133385	0.843318
H421	H	0.005708	0.909172	0.577303
H422	H	0.255708	1.159172	0.827303
H423	H	0.505708	1.409172	1.077303
H424	H	0.755708	1.659172	1.327303
