data_functionalizedCrystal
_audit_creation_method	'MofGen! by Chris Wilmer'
_symmetry_space_group_name_H-M	'P1'
_symmetry_Int_Tables_number	1
_symmetry_cell_setting	triclinic
loop_
_symmetry_equiv_pos_as_xyz
  x,y,z
_cell_length_a	15.944545
_cell_length_b	15.944493
_cell_length_c	14.421503
_cell_angle_alpha	90.010165
_cell_angle_beta	89.995153
_cell_angle_gamma	83.485608
loop_
_atom_site_label
_atom_site_type_symbol
_atom_site_fract_x
_atom_site_fract_y
_atom_site_fract_z
O1	O	1.114510	0.108298	-0.077039
O2	O	0.869957	0.121660	-0.077053
O3	O	0.998937	-0.007299	-0.077053
O4	O	0.985530	0.237258	-0.077039
O5	O	0.998916	-0.007280	0.077170
O6	O	0.869935	0.121680	0.077171
O7	O	1.114489	0.108317	0.077184
Cu8	Cu	0.992210	0.115000	0.091259
Cu9	Cu	0.992235	0.114978	-0.091128
O10	O	0.985508	0.237277	0.077185
C11	C	0.838652	0.121116	0.000057
C12	C	0.745406	0.119456	0.000051
C13	C	0.474791	0.034560	0.000056
C14	C	0.525354	0.075499	0.076101
C15	C	0.409764	0.113535	0.000067
C16	C	0.525355	0.075502	-0.075951
C17	C	0.574677	0.116440	0.000057
C18	C	0.459098	0.154453	0.076174
C19	C	0.459096	0.154444	-0.075946
C20	C	0.509626	0.195442	0.000117
C21	C	0.314762	0.111860	0.000073
C22	C	0.669676	0.118122	0.000058
C23	C	0.998378	-0.038584	0.000054
C24	C	0.996735	-0.131833	0.000042
C25	C	1.072656	-0.367594	0.000064
C26	C	1.031726	-0.418171	-0.075978
C27	C	0.993691	-0.302554	0.000054
C28	C	1.031686	-0.418128	0.076074
C29	C	0.990757	-0.467463	0.000068
C30	C	0.952782	-0.351902	-0.076051
C31	C	0.952754	-0.351856	0.076069
C32	C	0.911766	-0.402400	0.000009
C33	C	0.995384	-0.207554	0.000044
C34	C	0.989058	-0.562460	0.000071
C35	C	1.145793	0.108862	0.000072
C36	C	1.239039	0.110522	0.000072
C37	C	0.986067	0.268562	0.000075
C38	C	0.987710	0.361811	0.000081
N39	N	0.992198	0.115016	0.219540
N40	N	0.992254	0.114956	-0.219409
C41	C	0.932548	0.174620	0.469194
C42	C	1.008444	0.190926	0.531003
C43	C	0.992219	0.114996	0.408702
C44	C	0.916342	0.098709	0.530987
C45	C	0.992232	0.114978	0.591423
C46	C	1.068154	0.131339	0.469149
C47	C	0.976001	0.039090	0.469129
C48	C	1.051953	0.055364	0.530909
C49	C	0.992210	0.115008	0.303441
C50	C	0.992249	0.114965	0.696682
H51	H	0.459152	-0.033454	0.000126
O52	O	0.839748	0.082228	0.563234
C53	C	0.698991	0.052899	0.524460
C54	C	0.785700	0.071529	0.487820
H55	H	0.655264	0.044261	0.463506
H56	H	0.706946	-0.007214	0.567890
H57	H	0.670554	0.107924	0.569121
H58	H	0.814185	0.016556	0.443121
H59	H	0.777691	0.131671	0.444441
O60	O	0.913116	-0.317343	0.152856
C61	C	0.909904	-0.312125	0.319823
C62	C	0.954877	-0.351263	0.232931
H63	H	0.943639	-0.339546	0.384585
H64	H	0.911052	-0.240770	0.318777
H65	H	0.841680	-0.327127	0.320430
H66	H	1.023118	-0.336325	0.232268
H67	H	0.953660	-0.422607	0.234011
O68	O	0.424645	0.194308	-0.152612
C69	C	0.404145	0.323721	-0.240158
C70	C	0.443221	0.278682	-0.153299
H71	H	0.419134	0.391950	-0.240732
H72	H	0.431518	0.290004	-0.304972
H73	H	0.332794	0.322563	-0.239041
H74	H	0.514572	0.279827	-0.154326
H75	H	0.415782	0.312412	-0.088523
H76	H	1.022174	0.255110	0.558180
H77	H	1.140674	-0.351967	-0.000009
H78	H	0.919462	-0.323090	-0.140407
O79	O	0.872499	0.234926	0.436899
C80	C	0.821763	0.383082	0.431833
C81	C	0.889827	0.314873	0.468454
H82	H	0.835739	0.447733	0.457346
H83	H	0.821914	0.382196	0.352788
H84	H	0.757205	0.369799	0.458309
H85	H	0.954419	0.328110	0.442047
H86	H	0.889601	0.315775	0.547498
O87	O	1.144652	0.147940	0.436733
C88	C	1.230462	0.166586	0.302381
C89	C	1.143799	0.147758	0.338969
H90	H	1.229807	0.166428	0.223335
H91	H	1.244370	0.231107	0.328375
H92	H	1.281391	0.116098	0.328359
H93	H	1.092814	0.198193	0.313006
H94	H	1.129963	0.083212	0.312983
O95	O	1.071652	-0.452699	-0.152599
C96	C	1.201522	-0.474439	-0.239262
C97	C	1.156407	-0.435313	-0.152445
H98	H	1.270049	-0.460382	-0.239175
H99	H	1.199389	-0.545665	-0.238871
H100	H	1.168501	-0.446182	-0.304052
H101	H	1.189393	-0.463503	-0.087608
H102	H	1.158533	-0.364087	-0.152917
H103	H	0.843695	-0.417864	-0.000037
O104	O	1.112331	-0.004713	0.562999
C105	C	1.260502	-0.055431	0.567682
C106	C	1.192211	0.012666	0.531293
H107	H	1.325098	-0.041414	0.542046
H108	H	1.259773	-0.055371	0.646729
H109	H	1.247177	-0.119962	0.541155
H110	H	1.205489	0.077231	0.557751
H111	H	1.192956	0.012531	0.452247
O112	O	1.071589	-0.452546	0.152742
C113	C	1.201479	-0.474312	0.239332
C114	C	1.156379	-0.435277	0.152486
H115	H	1.270044	-0.460380	0.239144
H116	H	1.168554	-0.445993	0.304166
H117	H	1.199235	-0.545521	0.238947
H118	H	1.158610	-0.364069	0.152782
H119	H	1.189317	-0.463662	0.087691
H120	H	0.554289	0.042127	-0.140237
O121	O	0.959644	-0.037417	0.436515
C122	C	0.941982	-0.123278	0.301944
C123	C	0.960549	-0.036604	0.338756
H124	H	0.942690	-0.122644	0.222902
H125	H	0.992204	-0.174278	0.328331
H126	H	0.877241	-0.137062	0.327357
H127	H	1.025266	-0.022739	0.313359
H128	H	0.910276	0.014348	0.312376
H129	H	0.430273	0.187790	0.140533
O130	O	0.559980	0.035646	0.152696
C131	C	0.657885	-0.077777	0.212301
C132	C	0.618759	-0.032704	0.125484
H133	H	0.705403	-0.133057	0.190332
H134	H	0.691226	-0.031516	0.255279
H135	H	0.605938	-0.102159	0.255572
H136	H	0.670655	-0.008320	0.082142
H137	H	0.585398	-0.078996	0.082576
O138	O	0.528057	0.276655	0.000334
C139	C	0.514880	0.410027	0.080676
C140	C	0.493963	0.318071	0.080551
H141	H	0.487309	0.443544	0.145514
H142	H	0.586293	0.410747	0.080122
H143	H	0.486472	0.443886	0.016437
H144	H	0.522316	0.284157	0.144780
H145	H	0.422542	0.317411	0.081057
