data_functionalizedCrystal
_audit_creation_method	'MofGen! by Chris Wilmer'
_symmetry_space_group_name_H-M	'P1'
_symmetry_Int_Tables_number	1
_symmetry_cell_setting	triclinic
loop_
_symmetry_equiv_pos_as_xyz
  x,y,z
_cell_length_a	11.026607
_cell_length_b	10.065918
_cell_length_c	17.699083
_cell_angle_alpha	80.166489
_cell_angle_beta	84.065484
_cell_angle_gamma	97.708363
loop_
_atom_site_label
_atom_site_type_symbol
_atom_site_fract_x
_atom_site_fract_y
_atom_site_fract_z
O1	O	1.625120	0.113513	-0.328852
O2	O	2.125120	0.613513	0.171148
O3	O	1.271920	0.113513	-0.292777
O4	O	1.771920	0.613513	0.207223
O5	O	1.458497	0.113501	-0.201995
O6	O	1.958497	0.613501	0.298005
O7	O	1.438543	0.113525	-0.419634
O8	O	1.938543	0.613525	0.080366
O9	O	1.426704	-0.113490	-0.177907
O10	O	1.926704	0.386510	0.322093
O11	O	1.240127	-0.113478	-0.268689
O12	O	1.740127	0.386522	0.231311
O13	O	1.593327	-0.113478	-0.304764
O14	O	2.093327	0.386522	0.195236
Zn15	Zn	1.411679	-0.149517	-0.282902
Zn16	Zn	1.911679	0.350483	0.217098
Zn17	Zn	1.453568	0.149553	-0.314639
Zn18	Zn	1.953568	0.649553	0.185361
O19	O	1.406750	-0.113466	-0.395546
O20	O	1.906750	0.386534	0.104454
C21	C	1.210833	0.000017	-0.274078
C22	C	1.710833	0.500017	0.225922
C23	C	1.076177	0.000017	-0.254239
C24	C	1.576177	0.500017	0.245761
N25	N	1.383100	-0.353625	-0.261243
N26	N	1.883100	0.146375	0.238757
C27	C	1.441886	0.000005	-0.161656
C28	C	1.941886	0.500005	0.338344
C29	C	1.439740	0.000005	-0.077343
C30	C	1.939740	0.500005	0.422657
C31	C	1.002211	0.000024	-0.309019
C32	C	1.502211	0.500024	0.190981
C33	C	0.863037	0.000023	-0.288515
C34	C	1.363037	0.500023	0.211485
C35	C	1.654415	0.000021	-0.323464
C36	C	2.154415	0.500021	0.176536
C37	C	1.789072	0.000030	-0.343304
C38	C	2.289072	0.500030	0.156696
C39	C	1.443617	-0.421400	-0.307103
C40	C	1.943617	0.078600	0.192897
C41	C	1.421632	-0.578569	-0.290427
C42	C	1.921632	-0.078569	0.209573
N43	N	1.482157	0.353660	-0.336293
N44	N	1.982157	0.853660	0.163707
C45	C	1.423362	0.000033	-0.435886
C46	C	1.923362	0.500033	0.064114
C47	C	1.425509	0.000042	-0.520200
C48	C	1.925509	0.500042	-0.020200
C49	C	1.549258	0.000003	-0.043769
C50	C	2.049258	0.500003	0.456231
C51	C	1.547236	0.000015	0.035451
C52	C	2.047236	0.500015	0.535451
C53	C	1.435695	0.000019	0.081097
C54	C	1.935695	0.500019	0.581097
C55	C	1.326170	0.000025	0.047517
C56	C	1.826170	0.500025	0.547517
C57	C	1.328194	0.000023	-0.031703
C58	C	1.828194	0.500023	0.468297
C59	C	1.318005	0.000036	0.367001
C60	C	1.818005	0.500036	0.867001
C61	C	1.315989	0.000034	0.446226
C62	C	1.815989	0.500034	0.946226
C63	C	1.537048	0.000028	0.434155
C64	C	2.037048	0.500028	0.934155
C65	C	1.539072	0.000026	0.354935
C66	C	2.039072	0.500026	0.854935
C67	C	1.429548	0.000039	0.321361
C68	C	1.929548	0.500039	0.821361
C69	C	1.431742	0.000029	0.235462
C70	C	1.931742	0.500029	0.735462
C71	C	1.433499	0.000020	0.166996
C72	C	1.933499	0.500020	0.666996
H73	H	1.041919	0.000023	-0.371097
H74	H	1.541919	0.500023	0.128903
O75	O	1.331464	-0.655821	-0.222050
O76	O	1.831464	-0.155821	0.277950
H77	H	1.290494	-0.582267	-0.190986
H78	H	1.790494	-0.082267	0.309014
H79	H	1.315017	-0.411956	-0.209635
H80	H	1.815017	0.088044	0.290365
O81	O	1.572349	-0.569102	-0.404662
O82	O	2.072349	-0.069102	0.095338
H83	H	1.575458	-0.457777	-0.407037
H84	H	2.075458	0.042223	0.092963
O85	O	1.669565	-0.000005	-0.092998
O86	O	2.169565	0.499995	0.407002
H87	H	1.688725	0.092507	-0.139205
H88	H	2.188725	0.592507	0.360795
O89	O	0.810463	0.000014	-0.206276
O90	O	1.310463	0.500014	0.293724
H91	H	0.709402	0.000023	-0.203078
H92	H	1.209402	0.500023	0.296922
H93	H	1.636416	0.000011	0.062783
H94	H	2.136416	0.500011	0.562783
O95	O	1.023597	-0.000001	-0.172002
O96	O	1.523597	0.499999	0.327998
H97	H	0.979603	0.092519	-0.170164
H98	H	1.479603	0.592519	0.329836
H99	H	0.828773	0.000028	-0.405387
H100	H	1.328773	0.500028	0.094613
H101	H	1.235352	0.000037	0.084687
H102	H	1.735352	0.500037	0.584687
O103	O	1.533801	-0.344154	-0.375469
O104	O	2.033801	0.155846	0.124531
H105	H	1.536906	-0.232829	-0.377843
H106	H	2.036906	0.267171	0.122157
H107	H	1.629899	0.000016	0.317774
H108	H	2.129899	0.500016	0.817774
H109	H	1.626228	0.000025	0.461499
H110	H	2.126228	0.500025	0.961499
H111	H	1.225153	0.000035	0.483390
H112	H	1.725153	0.500035	0.983390
O113	O	1.199878	0.000016	0.330796
O114	O	1.699878	0.500016	0.830796
H115	H	1.121977	-0.000006	0.375850
H116	H	1.621977	0.499994	0.875850
O117	O	1.210071	0.000010	-0.067919
O118	O	1.710071	0.500010	0.432081
H119	H	1.132165	-0.000003	-0.022870
H120	H	1.632165	0.499997	0.477130
