data_functionalizedCrystal
_audit_creation_method	'MofGen! by Chris Wilmer'
_symmetry_space_group_name_H-M	'P1'
_symmetry_Int_Tables_number	1
_symmetry_cell_setting	triclinic
loop_
_symmetry_equiv_pos_as_xyz
  x,y,z
_cell_length_a	20.875621
_cell_length_b	21.606444
_cell_length_c	21.606444
_cell_angle_alpha	59.998659
_cell_angle_beta	87.030131
_cell_angle_gamma	58.317150
loop_
_atom_site_label
_atom_site_type_symbol
_atom_site_fract_x
_atom_site_fract_y
_atom_site_fract_z
Zr1	Zr	0.617957	0.677451	-0.112180
O2	O	0.515536	0.806572	-0.205877
O3	O	0.649352	0.548332	-0.083456
O4	O	0.649350	0.677456	-0.212579
O5	O	0.515543	0.677445	0.025100
O6	O	0.754909	0.677456	-0.217866
O7	O	0.515537	0.677449	-0.076754
O8	O	0.754912	0.446478	0.013112
O9	O	0.515540	0.908423	-0.205878
O10	O	0.741523	0.601440	-0.075152
O11	O	0.662749	0.601437	0.004806
O12	O	0.662747	0.753463	-0.147220
O13	O	0.583974	0.753459	-0.067261
Zr14	Zr	0.786320	0.677445	0.041833
Zr15	Zr	0.786312	0.677452	-0.120612
Zr16	Zr	0.617966	0.677444	0.050266
Zr17	Zr	0.617964	0.839891	-0.112181
Zr18	Zr	0.786314	0.515006	0.041834
O19	O	0.754926	0.806564	0.013109
O20	O	0.754914	0.806574	-0.217867
O21	O	0.515548	0.806563	0.025099
O22	O	0.888742	0.548324	0.135530
O23	O	0.888730	0.548334	-0.095446
O24	O	0.649364	0.548322	0.147520
O25	O	0.888735	0.677451	-0.095447
O26	O	0.754928	0.677441	0.142232
O27	O	0.649369	0.677440	0.147519
O28	O	0.888741	0.677447	0.006407
O29	O	0.649359	0.908424	-0.212580
O30	O	0.754919	0.446473	0.142234
O31	O	0.888738	0.446474	0.135531
O32	O	0.888732	0.446479	0.006409
O33	O	0.515546	0.908417	-0.076755
O34	O	0.649366	0.908418	-0.083458
O35	O	0.741531	0.601434	0.076873
O36	O	0.820304	0.601437	-0.003086
O37	O	0.741529	0.753460	-0.075153
O38	O	0.662755	0.753456	0.004805
C39	C	0.702131	0.474261	-0.035172
C40	C	0.702128	0.405301	-0.035171
C41	C	0.743269	-0.018005	-0.076911
C42	C	0.743264	0.046795	-0.076914
C43	C	0.702142	0.079190	-0.035176
C44	C	0.661017	0.046788	0.006561
C45	C	0.661019	-0.018007	0.006559
C46	C	0.661009	0.308099	0.006569
C47	C	0.661013	0.372896	0.006569
C48	C	0.743254	0.372901	-0.076905
C49	C	0.743256	0.308106	-0.076906
C50	C	0.702127	0.275712	-0.035172
C51	C	0.702133	0.205450	-0.035171
C52	C	0.702141	0.149447	-0.035173
C53	C	0.491553	0.677447	-0.024625
C54	C	0.420082	0.677446	-0.021045
C55	C	0.386502	0.677451	-0.075477
C56	C	0.319350	0.677446	-0.072110
C57	C	0.285776	0.677443	-0.014313
C58	C	0.319362	0.677436	0.040124
C59	C	0.386517	0.677434	0.036759
C60	C	0.084936	0.677441	0.001771
C61	C	0.017776	0.677445	0.005130
C62	C	0.017769	0.677454	-0.107103
C63	C	0.084922	0.677458	-0.110466
C64	C	0.118505	0.677446	-0.056026
N65	N	0.217134	0.677441	-0.010871
N66	N	0.187148	0.677442	-0.059466
C67	C	0.912725	0.677449	-0.045722
C68	C	0.984196	0.677450	-0.049301
C69	C	0.702128	0.677457	-0.238367
C70	C	0.702125	0.677460	-0.307330
C71	C	0.702147	0.880635	-0.035175
C72	C	0.702150	0.949595	-0.035175
C73	C	0.661004	0.756813	-0.377347
C74	C	0.661011	0.756811	-0.442142
C75	C	0.702134	0.677454	-0.436918
C76	C	0.743260	0.598094	-0.366894
C77	C	0.743257	0.598098	-0.302100
C78	C	0.743272	0.598079	-0.628197
C79	C	0.743270	0.598082	-0.692998
C80	C	0.661026	0.756792	-0.768239
C81	C	0.661023	0.756796	-0.703446
C82	C	0.702152	0.677437	-0.633427
C83	C	0.702145	0.677440	-0.563169
C84	C	0.702137	0.677450	-0.507174
C85	C	0.702150	0.677439	0.168021
C86	C	0.702153	0.677436	0.236983
C87	C	0.912717	0.474262	-0.045720
C88	C	0.984185	0.405303	-0.049299
C89	C	0.702142	0.474252	0.168022
C90	C	0.702143	0.405290	0.236985
C91	C	0.912728	0.474254	0.157474
C92	C	0.984199	0.405291	0.222857
C93	C	0.491550	0.880643	-0.227821
C94	C	0.420079	0.949605	-0.293204
C95	C	0.491561	0.880634	-0.024627
C96	C	0.420093	0.949593	-0.021047
C97	C	0.702136	0.880644	-0.238369
C98	C	0.702135	0.949607	-0.307332
C99	C	0.976624	0.372920	-0.088605
C100	C	1.043770	0.308135	-0.091983
C101	C	1.118475	0.275728	-0.056051
C102	C	1.126035	0.308117	-0.016744
C103	C	1.058890	0.372906	-0.013371
C104	C	0.743266	0.372903	0.306995
C105	C	0.743264	0.308114	0.371799
C106	C	0.702143	0.275709	0.366591
C107	C	0.661014	0.308102	0.296574
C108	C	0.661012	0.372894	0.231771
C109	C	1.058889	0.372908	0.211823
C110	C	1.126051	0.308119	0.273251
C111	C	1.118521	0.275711	0.345711
C112	C	1.043823	0.308101	0.356743
C113	C	0.976663	0.372893	0.295317
C114	C	0.345389	0.981996	-0.282170
C115	C	0.278227	1.046805	-0.343598
C116	C	0.285757	1.079216	-0.416058
C117	C	0.360454	1.046822	-0.427090
C118	C	0.427615	0.982019	-0.365663
C119	C	0.427654	0.981983	0.018252
C120	C	0.360508	1.046786	0.021612
C121	C	0.285803	1.079195	-0.014323
C122	C	0.278243	1.046803	-0.053627
C123	C	0.345388	0.982005	-0.056991
C124	C	0.743265	0.981991	-0.302100
C125	C	0.743279	1.046780	-0.366892
C126	C	0.702159	1.079188	-0.436915
C127	C	0.661028	1.046798	-0.442146
C128	C	0.661019	0.982005	-0.377354
H129	H	0.776746	0.073175	-0.110899
O130	O	0.783198	0.404445	0.311931
C131	C	0.774370	0.468596	0.239729
H132	H	0.759234	0.457954	0.197537
H133	H	0.831606	0.463339	0.237583
H134	H	0.725134	0.536369	0.225682
O135	O	0.419164	0.677299	-0.131563
C136	C	0.441801	0.601915	-0.129145
H137	H	0.450650	0.549218	-0.070404
H138	H	0.499075	0.576606	-0.144814
H139	H	0.393984	0.618962	-0.170260
H140	H	0.627539	0.821410	-0.825258
O141	O	1.036412	0.276604	0.427096
C142	C	0.995011	0.239093	0.437495
H143	H	0.957934	0.268367	0.381027
H144	H	0.955107	0.253285	0.473588
H145	H	1.038513	0.165296	0.466277
O146	O	0.621058	0.404221	0.163822
C147	C	0.584754	0.361733	0.173132
H148	H	0.617010	0.296065	0.229347
H149	H	0.586970	0.350548	0.126562
H150	H	0.520927	0.404227	0.171014
H151	H	1.173214	0.222954	0.395722
O152	O	0.783318	-0.049609	-0.117340
C153	C	0.841022	-0.140406	-0.069296
H154	H	0.856307	-0.158146	-0.010280
H155	H	0.895937	-0.159029	-0.089245
H156	H	0.817485	-0.177461	-0.069511
O157	O	0.783114	1.078394	-0.361892
C158	C	0.730323	1.169184	-0.394340
H159	H	0.676206	1.196670	-0.435802
H160	H	0.760163	1.202752	-0.424591
H161	H	0.711914	1.181544	-0.348870
O162	O	0.500277	0.950389	0.053143
C163	C	0.557931	0.886266	0.041739
H164	H	0.531764	0.857919	0.028447
H165	H	0.609718	0.831760	0.094372
H166	H	0.578932	0.917264	-0.006823
O167	O	1.066101	0.404469	0.024767
C168	C	0.990824	0.468582	0.020069
H169	H	0.946297	0.496949	-0.031296
H170	H	0.991582	0.523074	0.015510
H171	H	0.973725	0.437566	0.072192
H172	H	0.627549	1.073194	-0.499168
O173	O	0.904153	0.404353	0.306135
C174	C	0.895543	0.441845	0.346526
H175	H	0.955995	0.412589	0.379246
H176	H	0.860241	0.427613	0.386826
H177	H	0.863431	0.515648	0.306168
O178	O	0.783229	0.520915	-0.560246
C179	C	0.819537	0.450876	-0.569534
H180	H	0.787282	0.474144	-0.625741
H181	H	0.817323	0.395374	-0.522951
H182	H	0.883363	0.426475	-0.567420
O183	O	0.337923	0.950651	-0.211837
C184	C	0.257592	0.993139	-0.215286
H185	H	0.221784	1.058812	-0.271318
H186	H	0.248239	1.004312	-0.168351
H187	H	0.237795	0.950651	-0.208978
O188	O	0.205713	1.078133	-0.088472
C189	C	0.197090	1.008994	-0.058842
H190	H	0.257537	0.944174	-0.032827
H191	H	0.161745	1.018777	-0.105354
H192	H	0.165018	1.008124	-0.014389
H193	H	0.339221	0.955635	-0.088990
H194	H	0.627533	-0.044384	0.040543
H195	H	0.776740	0.399285	-0.110890
O196	O	0.783272	0.950364	-0.234047
C197	C	0.840994	0.859575	-0.197091
H198	H	0.823700	0.832098	-0.220966
H199	H	0.845978	0.825999	-0.134981
H200	H	0.899976	0.847212	-0.205442
H201	H	0.776759	0.281747	0.428804
H202	H	0.217411	1.073169	-0.334601
O203	O	0.621015	0.078406	0.046998
C204	C	0.563288	0.169196	-0.001052
H205	H	0.580569	0.196681	-0.054142
H206	H	0.558313	0.202765	0.027984
H207	H	0.504304	0.181556	-0.015850
H208	H	1.065035	0.399285	0.152828
H209	H	0.231064	1.131983	-0.466069
O210	O	-0.014900	0.677611	-0.160068
C211	C	-0.037542	0.752994	-0.230774
H212	H	-0.046390	0.805694	-0.223851
H213	H	-0.094818	0.778299	-0.266014
H214	H	0.010271	0.735947	-0.259632
O215	O	1.198566	0.276608	0.018279
C216	C	1.207187	0.239089	0.095306
H217	H	1.146741	0.268374	0.104828
H218	H	1.242535	0.253263	0.117859
H219	H	1.239258	0.165295	0.125516
O220	O	0.702312	1.142048	-0.499803
C221	C	0.780122	1.110369	-0.503582
H222	H	0.822550	1.055244	-0.445196
H223	H	0.787921	1.165701	-0.527801
H224	H	0.792815	1.084546	-0.540805
H225	H	0.627523	0.955645	-0.381625
O226	O	0.367622	1.078375	-0.497530
C227	C	0.292323	1.142528	-0.549372
H228	H	0.247822	1.131881	-0.521873
H229	H	0.293041	1.137277	-0.599378
H230	H	0.275219	1.210300	-0.568785
H231	H	0.627522	0.399273	0.040557
O232	O	0.500108	0.950619	-0.376519
C233	C	0.492342	0.993142	-0.453648
H234	H	0.432407	1.019851	-0.485190
H235	H	0.540488	0.944544	-0.465106
H236	H	0.497852	1.049413	-0.473015
H237	H	1.186867	0.281754	0.264255
H238	H	0.776744	0.281729	-0.110890
H239	H	0.292009	0.677449	-0.116432
H240	H	0.702151	0.222951	0.419363
H241	H	0.366679	1.073149	0.053620
H242	H	0.112256	0.677461	-0.157528
H243	H	0.627523	0.281729	0.040554
H244	H	0.231135	1.131957	-0.011578
H245	H	-0.009557	0.677443	0.052198
H246	H	0.292026	0.677428	0.087187
O247	O	0.621119	0.833953	-0.510117
C248	C	0.651361	0.882226	-0.519943
H249	H	0.681475	0.859660	-0.463122
H250	H	0.601312	0.954822	-0.551517
H251	H	0.695751	0.871233	-0.553135
H252	H	0.112273	0.677434	0.046096
H253	H	0.627534	0.281709	0.292344
H254	H	0.627512	0.821435	-0.381609
O255	O	0.419011	0.677484	0.089669
C256	C	0.374987	0.677468	0.141410
H257	H	0.312838	0.705021	0.114295
H258	H	0.372484	0.719743	0.159637
H259	H	0.404039	0.607630	0.192138
H260	H	0.627533	0.821416	-0.707706
H261	H	0.776760	0.533456	-0.688737
H262	H	0.776747	0.533481	-0.362645
H263	H	0.776741	0.533480	-0.245089
H264	H	1.037599	0.281771	-0.123991
O265	O	0.904119	0.404324	-0.123583
C266	C	0.911860	0.361826	-0.158982
H267	H	0.971784	0.335131	-0.169839
H268	H	0.863697	0.410437	-0.214209
H269	H	0.906359	0.305548	-0.121526
H270	H	1.173143	0.222972	-0.058803
