data_functionalizedCrystal
_audit_creation_method	'MofGen! by Chris Wilmer'
_symmetry_space_group_name_H-M	'P1'
_symmetry_Int_Tables_number	1
_symmetry_cell_setting	triclinic
loop_
_symmetry_equiv_pos_as_xyz
  x,y,z
_cell_length_a	19.188930
_cell_length_b	14.971486
_cell_length_c	14.048226
_cell_angle_alpha	90.006640
_cell_angle_beta	90.020343
_cell_angle_gamma	83.379454
loop_
_atom_site_label
_atom_site_type_symbol
_atom_site_fract_x
_atom_site_fract_y
_atom_site_fract_z
O1	O	-0.926506	-0.111670	-0.079467
O2	O	-0.426506	0.388330	0.420533
O3	O	-0.723243	-0.126703	-0.079402
O4	O	-0.223243	0.373297	0.420598
O5	O	-0.830323	0.011042	-0.079430
O6	O	-0.330323	0.511042	0.420570
O7	O	-0.819427	-0.249416	-0.079440
O8	O	-0.319427	0.250584	0.420560
O9	O	-0.830310	0.011050	0.078892
O10	O	-0.330310	0.511050	0.578892
O11	O	-0.723230	-0.126695	0.078919
O12	O	-0.223230	0.373305	0.578919
O13	O	-0.926493	-0.111662	0.078854
O14	O	-0.426493	0.388338	0.578854
Zn15	Zn	-0.824860	-0.119177	0.104024
Zn16	Zn	-0.324860	0.380823	0.604024
Zn17	Zn	-0.824877	-0.119188	-0.104572
Zn18	Zn	-0.324877	0.380812	0.395428
O19	O	-0.819414	-0.249408	0.078882
O20	O	-0.319414	0.250592	0.578882
C21	C	-0.697224	-0.126212	-0.000233
C22	C	-0.197224	0.373788	0.499767
C23	C	-0.619715	-0.124751	-0.000208
C24	C	-0.119715	0.375249	0.499792
C25	C	-0.952512	-0.112153	-0.000317
C26	C	-0.452512	0.387847	0.499683
C27	C	-1.030021	-0.113615	-0.000348
C28	C	-0.530021	0.386385	0.499652
C29	C	-0.575051	-0.205575	-0.000226
C30	C	-0.075051	0.294425	0.499774
C31	C	-0.502223	-0.204202	-0.000236
C32	C	-0.002223	0.295798	0.499764
C33	C	-0.474062	-0.122000	-0.000248
C34	C	0.025938	0.378000	0.499752
C35	C	-0.518735	-0.041166	-0.000224
C36	C	-0.018735	0.458834	0.499776
C37	C	-0.591562	-0.042541	-0.000204
C38	C	-0.091562	0.457459	0.499796
N39	N	-0.365884	-0.059170	-0.054167
N40	N	0.134116	0.440830	0.445833
N41	N	-0.296701	-0.057869	-0.054188
N42	N	0.203299	0.442131	0.445812
C43	C	-0.254640	-0.117852	-0.000306
C44	C	0.245360	0.382148	0.499694
N45	N	-0.284374	-0.179199	0.053586
N46	N	0.215626	0.320801	0.553586
N47	N	-0.353562	-0.180502	0.053603
N48	N	0.146438	0.319498	0.553603
C49	C	-0.395094	-0.120500	-0.000269
C50	C	0.104906	0.379500	0.499731
C51	C	-0.131007	-0.197193	-0.000334
C52	C	0.368993	0.302807	0.499666
C53	C	-0.058178	-0.195817	-0.000338
C54	C	0.441822	0.304183	0.499662
C55	C	-0.074692	-0.032778	-0.000336
C56	C	0.425308	0.467222	0.499664
C57	C	-0.147519	-0.034157	-0.000322
C58	C	0.352481	0.465843	0.499678
C59	C	-0.175672	-0.116367	-0.000325
C60	C	0.324328	0.383633	0.499675
C61	C	-0.829829	0.044368	-0.000269
C62	C	-0.329829	0.544368	0.499731
C63	C	-0.828369	0.143658	-0.000269
C64	C	-0.328369	0.643658	0.499731
C65	C	-0.819907	-0.282734	-0.000281
C66	C	-0.319907	0.217266	0.499719
C67	C	-0.821368	-0.382023	-0.000287
C68	C	-0.321368	0.117977	0.499713
N69	N	-0.824853	-0.119170	0.246384
N70	N	-0.324853	0.380830	0.746384
C71	C	-0.891275	0.201215	-0.000289
C72	C	-0.391275	0.701215	0.499711
C73	C	-0.889899	0.294507	-0.000298
C74	C	-0.389899	0.794507	0.499702
C75	C	-0.825615	0.330240	-0.000281
C76	C	-0.325615	0.830240	0.499719
C77	C	-0.762704	0.272675	-0.000264
C78	C	-0.262704	0.772675	0.499736
C79	C	-0.764081	0.179385	-0.000262
C80	C	-0.264081	0.679385	0.499738
C81	C	-0.759839	0.467123	-0.000267
C82	C	-0.259839	0.967123	0.499733
C83	C	-0.758461	0.560419	-0.000267
C84	C	-0.258461	1.060419	0.499733
C85	C	-0.885656	0.582245	-0.000303
C86	C	-0.385656	1.082245	0.499697
C87	C	-0.887033	0.488955	-0.000301
C88	C	-0.387033	0.988955	0.499699
C89	C	-0.824122	0.431396	-0.000282
C90	C	-0.324122	0.931396	0.499718
N91	N	-0.824889	-0.119189	-0.246932
N92	N	-0.324889	0.380811	0.253068
C93	C	-0.872283	-0.058201	0.296190
C94	C	-0.372283	0.441799	0.796190
C95	C	-0.872288	-0.058201	0.395848
C96	C	-0.372288	0.441799	0.895848
C97	C	-0.824865	-0.119174	0.445698
C98	C	-0.324865	0.380826	0.945698
C99	C	-0.777431	-0.180145	0.395885
C100	C	-0.277431	0.319855	0.895885
C101	C	-0.777423	-0.180140	0.296229
C102	C	-0.277423	0.319860	0.796229
C103	C	-0.777451	-0.180151	0.603599
C104	C	-0.277451	0.319849	1.103599
C105	C	-0.777459	-0.180157	0.703262
C106	C	-0.277459	0.319843	1.203262
C107	C	-0.872315	-0.058211	0.703218
C108	C	-0.372315	0.441789	1.203218
C109	C	-0.872308	-0.058207	0.603562
C110	C	-0.372308	0.441793	1.103562
C111	C	-0.824874	-0.119180	0.553756
C112	C	-0.324874	0.380820	1.053756
H113	H	-0.597968	-0.272517	-0.000231
H114	H	-0.097968	0.227483	0.499769
H115	H	-0.910902	-0.008554	0.255609
H116	H	-0.410902	0.491446	0.755609
N117	N	-0.728977	-0.242433	0.245365
N118	N	-0.228977	0.257567	0.745365
N119	N	-0.729999	-0.325107	0.256481
N120	N	-0.229999	0.174893	0.756481
H121	H	-0.695781	-0.369103	0.220560
H122	H	-0.195781	0.130897	0.720560
H123	H	-0.910926	-0.008563	0.562974
H124	H	-0.410926	0.491437	1.062974
N125	N	-0.952690	0.452439	-0.000305
N126	N	-0.452690	0.952439	0.499695
N127	N	-0.967636	0.402824	0.066431
N128	N	-0.467636	0.902824	0.566431
H129	H	-1.014007	0.377033	0.066428
H130	H	-0.514007	0.877033	0.566428
H131	H	-0.051764	0.034152	-0.000404
H132	H	0.448236	0.534152	0.499596
N133	N	-0.699817	0.120601	-0.000254
N134	N	-0.199817	0.620601	0.499746
N135	N	-0.642426	0.152513	-0.000244
N136	N	-0.142426	0.652513	0.499756
H137	H	-0.597036	0.110998	-0.000245
H138	H	-0.097036	0.610998	0.499755
H139	H	-0.153930	-0.264134	-0.000323
H140	H	0.346070	0.235866	0.499677
N141	N	-0.456599	-0.286774	-0.000250
N142	N	0.043401	0.213226	0.499750
N143	N	-0.481745	-0.360167	-0.000247
N144	N	0.018255	0.139833	0.499753
H145	H	-0.449526	-0.418484	-0.000257
H146	H	0.050474	0.081516	0.499743
N147	N	-0.012561	-0.278390	-0.000345
N148	N	0.487439	0.221610	0.499655
N149	N	-0.037711	-0.351780	-0.000346
N150	N	0.462289	0.148220	0.499654
H151	H	-0.005495	-0.410100	-0.000350
H152	H	0.494505	0.089900	0.499650
N153	N	-0.949918	0.641038	-0.000347
N154	N	-0.449918	1.141038	0.499653
N155	N	-0.992661	0.637918	-0.067097
N156	N	-0.492661	1.137918	0.432903
H157	H	-1.038044	0.679445	-0.067126
H158	H	-0.538044	1.179445	0.432874
H159	H	-0.495802	0.025764	-0.000247
H160	H	0.004198	0.525764	0.499753
H161	H	-0.910908	-0.008555	0.436399
H162	H	-0.410908	0.491445	0.936399
H163	H	-0.738842	-0.229807	0.743845
H164	H	-0.238842	0.270193	1.243845
H165	H	-0.910937	-0.008565	0.743776
H166	H	-0.410937	0.491435	1.243776
H167	H	-0.183886	0.031659	-0.000312
H168	H	0.316114	0.531659	0.499688
H169	H	-0.706116	0.589510	-0.000238
H170	H	-0.206116	1.089510	0.499762
H171	H	-0.943622	0.172130	-0.000297
H172	H	-0.443622	0.672130	0.499703
N173	N	-0.728991	-0.242436	0.552737
N174	N	-0.228991	0.257564	1.052737
N175	N	-0.686655	-0.296874	0.597254
N176	N	-0.186655	0.203126	1.097254
H177	H	-0.652433	-0.340865	0.561333
H178	H	-0.152433	0.159135	1.061333
N179	N	-0.695585	0.408311	-0.000256
N180	N	-0.195585	0.908311	0.499744
N181	N	-0.682172	0.353808	-0.066986
N182	N	-0.182172	0.853808	0.433014
H183	H	-0.636795	0.312270	-0.066976
H184	H	-0.136795	0.812270	0.433024
H185	H	-0.710364	0.301776	-0.000256
H186	H	-0.210364	0.801776	0.499744
H187	H	-0.627928	0.023278	-0.000190
H188	H	-0.127928	0.523278	0.499810
H189	H	-0.738815	-0.229787	0.436479
H190	H	-0.238815	0.270213	0.936479
H191	H	-0.941123	0.341368	-0.000312
H192	H	-0.441123	0.841368	0.499688
