data_functionalizedCrystal
_audit_creation_method	'MofGen! by Chris Wilmer'
_symmetry_space_group_name_H-M	'P1'
_symmetry_Int_Tables_number	1
_symmetry_cell_setting	triclinic
loop_
_symmetry_equiv_pos_as_xyz
  x,y,z
_cell_length_a	21.395362
_cell_length_b	18.215405
_cell_length_c	21.395356
_cell_angle_alpha	89.973047
_cell_angle_beta	89.964230
_cell_angle_gamma	90.040762
loop_
_atom_site_label
_atom_site_type_symbol
_atom_site_fract_x
_atom_site_fract_y
_atom_site_fract_z
Zn1	Zn	0.957834	-0.292706	-0.354580
Zn2	Zn	1.291168	0.040627	-0.021246
Zn3	Zn	1.624501	0.373961	0.312087
Zn4	Zn	0.957762	-0.415770	-0.249800
Zn5	Zn	1.291096	-0.082436	0.083533
Zn6	Zn	1.624429	0.250897	0.416867
Zn7	Zn	0.853064	-0.292756	-0.249781
Zn8	Zn	1.186398	0.040578	0.083552
Zn9	Zn	1.519731	0.373911	0.416886
Zn10	Zn	0.853029	-0.415769	-0.354505
Zn11	Zn	1.186362	-0.082436	-0.021171
Zn12	Zn	1.519696	0.250897	0.312162
O13	O	0.905422	-0.354250	-0.302166
O14	O	1.238756	-0.020917	0.031167
O15	O	1.572089	0.312417	0.364500
O16	O	1.045503	-0.309010	-0.340720
O17	O	1.378836	0.024323	-0.007387
O18	O	1.712169	0.357657	0.325947
O19	O	0.943859	-0.399472	-0.162119
O20	O	1.277192	-0.066139	0.171214
O21	O	1.610525	0.267194	0.504547
O22	O	0.867007	-0.189765	-0.263706
O23	O	1.200340	0.143569	0.069627
O24	O	1.533674	0.476902	0.402960
O25	O	1.045450	-0.399424	-0.263738
O26	O	1.378783	-0.066091	0.069595
O27	O	1.712116	0.267242	0.402928
O28	O	0.943981	-0.189728	-0.340702
O29	O	1.277314	0.143605	-0.007368
O30	O	1.610648	0.476938	0.325965
O31	O	0.866937	-0.309094	-0.162106
O32	O	1.200271	0.024239	0.171228
O33	O	1.533604	0.357572	0.504561
O34	O	0.765382	-0.309094	-0.263634
O35	O	1.098715	0.024239	0.069700
O36	O	1.432048	0.357572	0.403033
O37	O	0.866947	-0.399424	-0.442192
O38	O	1.200280	-0.066091	-0.108859
O39	O	1.533614	0.267243	0.224474
O40	O	0.765356	-0.399472	-0.340573
O41	O	1.098689	-0.066139	-0.007240
O42	O	1.432022	0.267195	0.326093
O43	O	0.943947	-0.309010	-0.442248
O44	O	1.277280	0.024323	-0.108914
O45	O	1.610614	0.357657	0.224419
O46	O	0.943824	-0.518754	-0.263666
O47	O	1.277158	-0.185421	0.069668
O48	O	1.610491	0.147913	0.403001
O49	O	0.866877	-0.518754	-0.340592
O50	O	1.200211	-0.185420	-0.007258
O51	O	1.533544	0.147913	0.326075
C52	C	0.742635	-0.354289	-0.302094
C53	C	1.075968	-0.020956	0.031240
C54	C	1.409301	0.312378	0.364573
C55	C	0.672994	-0.354323	-0.302077
C56	C	1.006327	-0.020990	0.031256
C57	C	1.339660	0.312343	0.364589
C58	C	0.640283	-0.401446	-0.342080
C59	C	0.973617	-0.068112	-0.008747
C60	C	1.306950	0.265221	0.324587
C61	C	0.574848	-0.401428	-0.342108
C62	C	0.908181	-0.068094	-0.008775
C63	C	1.241515	0.265239	0.324559
C64	C	0.542125	-0.354295	-0.302122
C65	C	0.875459	-0.020962	0.031211
C66	C	1.208792	0.312372	0.364545
C67	C	0.574843	-0.307164	-0.262117
C68	C	0.908177	0.026169	0.071217
C69	C	1.241510	0.359503	0.404550
C70	C	0.640277	-0.307178	-0.262094
C71	C	0.973611	0.026155	0.071239
C72	C	1.306944	0.359489	0.404572
C73	C	0.438408	-0.348375	-0.245717
C74	C	0.771741	-0.015041	0.087616
C75	C	1.105075	0.318292	0.420950
C76	C	0.372975	-0.348366	-0.245738
C77	C	0.706308	-0.015032	0.087595
C78	C	1.039642	0.318301	0.420928
C79	C	0.340305	-0.354247	-0.302191
C80	C	0.673638	-0.020914	0.031142
C81	C	1.006971	0.312420	0.364475
C82	C	0.373075	-0.360153	-0.358625
C83	C	0.706408	-0.026820	-0.025291
C84	C	1.039742	0.306514	0.308042
C85	C	0.438509	-0.360167	-0.358602
C86	C	0.771842	-0.026834	-0.025269
C87	C	1.105176	0.306500	0.308064
C88	C	0.471173	-0.354274	-0.302142
C89	C	0.804506	-0.020941	0.031191
C90	C	1.137840	0.312393	0.364525
C91	C	0.236642	-0.401352	-0.342227
C92	C	0.569975	-0.068019	-0.008894
C93	C	0.903309	0.265315	0.324439
C94	C	0.171205	-0.401329	-0.342256
C95	C	0.504539	-0.067996	-0.008923
C96	C	0.837872	0.265338	0.324410
C97	C	0.171202	-0.307069	-0.262260
C98	C	0.504535	0.026264	0.071074
C99	C	0.837869	0.359598	0.404407
C100	C	0.236637	-0.307088	-0.262236
C101	C	0.569971	0.026245	0.071097
C102	C	0.903304	0.359578	0.404430
C103	C	0.269353	-0.354234	-0.302219
C104	C	0.602687	-0.020901	0.031114
C105	C	0.936020	0.312433	0.364447
C106	C	0.905356	-0.545456	-0.302136
C107	C	1.238690	-0.212123	0.031197
C108	C	1.572023	0.121210	0.364531
C109	C	0.905385	-0.627255	-0.302144
C110	C	1.238719	-0.293922	0.031189
C111	C	1.572052	0.039411	0.364522
C112	C	0.945546	-0.815425	-0.262163
C113	C	1.278879	-0.482091	0.071171
C114	C	1.612212	-0.148758	0.404504
C115	C	0.945574	-0.892284	-0.262178
C116	C	1.278907	-0.558950	0.071156
C117	C	1.612240	-0.225617	0.404489
C118	C	0.865379	-0.892323	-0.342215
C119	C	1.198713	-0.558990	-0.008882
C120	C	1.532046	-0.225657	0.324452
C121	C	0.865355	-0.815466	-0.342203
C122	C	1.198688	-0.482133	-0.008869
C123	C	1.532022	-0.148799	0.324464
C124	C	0.905437	-0.777019	-0.302173
C125	C	1.238771	-0.443685	0.031161
C126	C	1.572104	-0.110352	0.364494
C127	C	0.905490	-0.930735	-0.302200
C128	C	1.238823	-0.597401	0.031133
C129	C	1.572156	-0.264068	0.364466
C130	C	0.905520	-1.014068	-0.302217
C131	C	1.238853	-0.680735	0.031116
C132	C	1.572186	-0.347402	0.364449
C133	C	0.905408	-0.693680	-0.302157
C134	C	1.238741	-0.360347	0.031177
C135	C	1.572075	-0.027013	0.364510
C136	C	1.068846	-0.354212	-0.302240
C137	C	1.402179	-0.020878	0.031094
C138	C	1.735512	0.312455	0.364427
C139	C	1.138487	-0.354195	-0.302271
C140	C	1.471820	-0.020862	0.031062
C141	C	1.805154	0.312471	0.364396
C142	C	0.905451	-0.354211	-0.465590
C143	C	1.238785	-0.020878	-0.132256
C144	C	1.572118	0.312455	0.201077
C145	C	0.905463	-0.354195	-0.535231
C146	C	1.238797	-0.020862	-0.201898
C147	C	1.572130	0.312472	0.131436
C148	C	0.905506	-0.162297	-0.302210
C149	C	1.238839	0.171036	0.031123
C150	C	1.572173	0.504369	0.364456
C151	C	0.905542	-0.080498	-0.302229
C152	C	1.238875	0.252835	0.031104
C153	C	1.572208	0.586168	0.364438
C154	C	0.945587	-0.401100	-1.037035
C155	C	1.278920	-0.067767	-0.703702
C156	C	1.612253	0.265566	-0.370368
C157	C	0.945575	-0.401124	-0.971600
C158	C	1.278909	-0.067790	-0.638266
C159	C	1.612242	0.265543	-0.304933
C160	C	0.905523	-0.354078	-0.938870
C161	C	1.238856	-0.020745	-0.605536
C162	C	1.572190	0.312588	-0.272203
C163	C	0.865468	-0.307019	-0.971580
C164	C	1.198801	0.026314	-0.638247
C165	C	1.532134	0.359647	-0.304914
C166	C	0.865476	-0.307002	-1.037014
C167	C	1.198809	0.026331	-0.703681
C168	C	1.532142	0.359664	-0.370348
C169	C	0.900592	-0.287802	-0.835214
C170	C	1.233925	0.045531	-0.501881
C171	C	1.567259	0.378865	-0.168547
C172	C	0.900588	-0.287818	-0.769781
C173	C	1.233922	0.045516	-0.436448
C174	C	1.567255	0.378849	-0.103114
C175	C	0.905495	-0.354130	-0.737049
C176	C	1.238828	-0.020797	-0.403715
C177	C	1.572162	0.312536	-0.070382
C178	C	0.910418	-0.420430	-0.769757
C179	C	1.243752	-0.087097	-0.436424
C180	C	1.577085	0.246237	-0.103091
C181	C	0.910426	-0.420413	-0.835192
C182	C	1.243760	-0.087080	-0.501858
C183	C	1.577093	0.246254	-0.168525
C184	C	0.905510	-0.354092	-0.867917
C185	C	1.238843	-0.020758	-0.534584
C186	C	1.572176	0.312575	-0.201250
C187	C	0.945533	-0.401216	-0.633393
C188	C	1.278866	-0.067882	-0.300060
C189	C	1.612199	0.265451	0.033273
C190	C	0.945517	-0.401240	-0.567957
C191	C	1.278850	-0.067907	-0.234623
C192	C	1.612184	0.265427	0.098710
C193	C	0.865412	-0.307129	-0.567938
C194	C	1.198746	0.026204	-0.234605
C195	C	1.532079	0.359538	0.098728
C196	C	0.865425	-0.307111	-0.633374
C197	C	1.198758	0.026222	-0.300040
C198	C	1.532092	0.359556	0.033293
C199	C	0.905488	-0.354153	-0.666097
C200	C	1.238822	-0.020820	-0.332764
C201	C	1.572155	0.312513	0.000569
C202	C	0.905430	-0.354236	-0.139379
C203	C	1.238763	-0.020902	0.193955
C204	C	1.572097	0.312431	0.527288
C205	C	0.905539	-0.354045	-0.069738
C206	C	1.238872	-0.020711	0.263595
C207	C	1.572206	0.312622	0.596929
H208	H	0.666910	-0.268803	-0.229519
H209	H	1.000243	0.064530	0.103814
H210	H	1.333576	0.397863	0.437147
H211	H	0.978153	-0.439522	-0.660038
H212	H	1.311486	-0.106189	-0.326705
H213	H	1.644820	0.227145	0.006629
H214	H	0.832816	-0.268790	-0.660001
H215	H	1.166149	0.064543	-0.326667
H216	H	1.499483	0.397876	0.006666
O217	O	0.822145	-0.933800	-0.385379
O218	O	1.155478	-0.600467	-0.052045
O219	O	1.488812	-0.267134	0.281288
H220	H	0.832853	-0.919008	-0.434567
H221	H	1.166187	-0.585674	-0.101233
H222	H	1.499520	-0.252341	0.232100
O223	O	0.895281	-0.216313	-0.734504
O224	O	1.228614	0.117020	-0.401171
O225	O	1.561948	0.450354	-0.067838
H226	H	0.937258	-0.208795	-0.704722
H227	H	1.270591	0.124538	-0.371389
H228	H	1.603924	0.457872	-0.038056
O229	O	0.988720	-0.451987	-0.532679
O230	O	1.322054	-0.118653	-0.199346
O231	O	1.655387	0.214680	0.133988
H232	H	1.016585	-0.484684	-0.566430
H233	H	1.349918	-0.151351	-0.233096
H234	H	1.683252	0.181982	0.100237
H235	H	0.978196	-0.439434	-0.944968
H236	H	1.311530	-0.106100	-0.611635
H237	H	1.644863	0.227233	-0.278301
H238	H	0.896637	-0.233794	-0.861859
H239	H	1.229971	0.099539	-0.528526
H240	H	1.563304	0.432873	-0.195193
H241	H	0.914415	-0.474428	-0.743108
H242	H	1.247748	-0.141095	-0.409775
H243	H	1.581082	0.192239	-0.076442
H244	H	0.832800	-0.268825	-0.541290
H245	H	1.166133	0.064508	-0.207957
H246	H	1.499466	0.397841	0.125377
H247	H	0.832694	-0.784194	-0.374787
H248	H	1.166027	-0.450860	-0.041453
H249	H	1.499360	-0.117527	0.291880
H250	H	0.666917	-0.439834	-0.374638
H251	H	1.000250	-0.106501	-0.041305
H252	H	1.333583	0.226833	0.292028
O253	O	0.988832	-0.933715	-0.219027
O254	O	1.322166	-0.600381	0.114307
O255	O	1.655499	-0.267048	0.447640
H256	H	0.978111	-0.919026	-0.169835
H257	H	1.311444	-0.585693	0.163499
H258	H	1.644778	-0.252359	0.496832
H259	H	0.978208	-0.439408	-1.063675
H260	H	1.311541	-0.106075	-0.730341
H261	H	1.644874	0.227259	-0.397008
O262	O	0.915722	-0.491915	-0.870473
O263	O	1.249055	-0.158582	-0.537140
O264	O	1.582389	0.174751	-0.203807
H265	H	0.919126	-0.538034	-0.836725
H266	H	1.252460	-0.204701	-0.503391
H267	H	1.585793	0.128633	-0.170058
H268	H	0.832856	-0.268715	-0.944927
H269	H	1.166189	0.064618	-0.611594
H270	H	1.499523	0.397951	-0.278260
H271	H	0.144560	-0.268690	-0.229705
H272	H	0.477893	0.064644	0.103628
H273	H	0.811226	0.397977	0.436961
O274	O	0.539555	-0.452282	-0.385230
O275	O	0.872888	-0.118949	-0.051897
O276	O	1.206222	0.214385	0.281436
H277	H	0.573298	-0.485079	-0.413018
H278	H	0.906631	-0.151745	-0.079685
H279	H	1.239965	0.181588	0.253648
O280	O	0.473854	-0.366520	-0.419466
O281	O	0.807188	-0.033187	-0.086133
O282	O	1.140521	0.300147	0.247200
H283	H	0.461279	-0.418909	-0.442774
H284	H	0.794612	-0.085575	-0.109441
H285	H	1.127946	0.247758	0.223892
O286	O	0.337850	-0.366491	-0.419521
O287	O	0.671183	-0.033158	-0.086188
O288	O	1.004516	0.300176	0.247145
H289	H	0.286844	-0.365478	-0.410060
H290	H	0.620177	-0.032145	-0.076727
H291	H	0.953511	0.301188	0.256607
O292	O	0.271936	-0.452188	-0.385357
O293	O	0.605270	-0.118855	-0.052024
O294	O	0.938603	0.214478	0.281310
H295	H	0.238194	-0.484944	-0.413188
H296	H	0.571528	-0.151611	-0.079854
H297	H	0.904861	0.181723	0.253479
O298	O	0.135878	-0.452156	-0.385370
O299	O	0.469212	-0.118822	-0.052037
O300	O	0.802545	0.214511	0.281296
H301	H	0.106014	-0.489502	-0.357233
H302	H	0.439347	-0.156168	-0.023900
H303	H	0.772680	0.177165	0.309434
O304	O	0.271924	-0.256283	-0.219074
O305	O	0.605258	0.077050	0.114259
O306	O	0.938591	0.410384	0.447593
H307	H	0.238179	-0.223513	-0.191266
H308	H	0.571512	0.109820	0.142068
H309	H	0.904846	0.443153	0.475401
O310	O	0.337635	-0.341991	-0.184873
O311	O	0.670969	-0.008658	0.148461
O312	O	1.004302	0.324675	0.481794
H313	H	0.350135	-0.388731	-0.154026
H314	H	0.683469	-0.055398	0.179308
H315	H	1.016802	0.277935	0.512641
O316	O	0.473645	-0.342033	-0.184825
O317	O	0.806978	-0.008699	0.148509
O318	O	1.140311	0.324634	0.481842
H319	H	0.439866	-0.337936	-0.145588
H320	H	0.773200	-0.004603	0.187745
H321	H	1.106533	0.328731	0.521079
O322	O	0.539555	-0.256342	-0.218974
O323	O	0.872889	0.076991	0.114360
O324	O	1.206222	0.410324	0.447693
H325	H	0.488559	-0.264260	-0.225700
H326	H	0.821892	0.069074	0.107633
H327	H	1.155225	0.402407	0.440967
H328	H	0.978184	-0.784123	-0.229569
H329	H	1.311517	-0.450789	0.103765
H330	H	1.644851	-0.117456	0.437098
O331	O	0.822286	-0.256241	-1.072293
O332	O	1.155620	0.077093	-0.738960
O333	O	1.488953	0.410426	-0.405627
H334	H	0.794435	-0.223526	-1.038544
H335	H	1.127768	0.109807	-0.705210
H336	H	1.461101	0.443141	-0.371877
