data_functionalizedCrystal
_audit_creation_method	'MofGen! by Chris Wilmer'
_symmetry_space_group_name_H-M	'P1'
_symmetry_Int_Tables_number	1
_symmetry_cell_setting	triclinic
loop_
_symmetry_equiv_pos_as_xyz
  x,y,z
_cell_length_a	11.169417
_cell_length_b	19.120786
_cell_length_c	11.169409
_cell_angle_alpha	92.479283
_cell_angle_beta	90.019824
_cell_angle_gamma	92.466141
loop_
_atom_site_label
_atom_site_type_symbol
_atom_site_fract_x
_atom_site_fract_y
_atom_site_fract_z
Zn1	Zn	1.814456	-0.279559	0.658103
Zn2	Zn	2.314456	0.220441	1.158103
Zn3	Zn	1.805728	-0.397041	0.448830
Zn4	Zn	2.305728	0.102959	0.948830
Zn5	Zn	1.613739	-0.279602	0.457434
Zn6	Zn	2.113739	0.220398	0.957434
Zn7	Zn	1.605136	-0.396983	0.649479
Zn8	Zn	2.105136	0.103017	1.149479
O9	O	1.709765	-0.338296	0.553462
O10	O	2.209765	0.161704	1.053462
O11	O	1.981248	-0.295149	0.630351
O12	O	2.481248	0.204851	1.130351
O13	O	1.780208	-0.381504	0.282019
O14	O	2.280208	0.118496	0.782019
O15	O	1.647618	-0.181305	0.491263
O16	O	2.147618	0.318695	0.991263
O17	O	1.974835	-0.381462	0.476599
O18	O	2.474835	0.118538	0.976599
O19	O	1.795084	-0.181274	0.638694
O20	O	2.295084	0.318726	1.138694
O21	O	1.639154	-0.295222	0.288340
O22	O	2.139154	0.204778	0.788340
O23	O	1.444649	-0.295167	0.482901
O24	O	1.944649	0.204833	0.982901
O25	O	1.632956	-0.381365	0.818576
O26	O	2.132956	0.118635	1.318576
O27	O	1.438328	-0.381407	0.623996
O28	O	1.938328	0.118593	1.123996
O29	O	1.786742	-0.295094	0.824912
O30	O	2.286742	0.204906	1.324912
O31	O	1.771866	-0.495324	0.468237
O32	O	2.271866	0.004676	0.968237
O33	O	1.624492	-0.495282	0.615653
O34	O	2.124492	0.004718	1.115653
C35	C	1.397941	-0.338286	0.553447
C36	C	1.897941	0.161714	1.053447
C37	C	1.264540	-0.338298	0.553468
C38	C	1.764540	0.161702	1.053468
C39	C	1.696331	-0.520789	0.540102
C40	C	2.196331	-0.020789	1.040102
C41	C	1.690694	-0.598860	0.534427
C42	C	2.190694	-0.098860	1.034427
C43	C	1.764766	-0.635461	0.608582
C44	C	2.264766	-0.135461	1.108582
C45	C	1.759465	-0.708817	0.603251
C46	C	2.259465	-0.208817	1.103251
C47	C	1.680096	-0.745571	0.523759
C48	C	2.180096	-0.245571	1.023759
C49	C	1.606016	-0.708965	0.449601
C50	C	2.106016	-0.208965	0.949601
C51	C	1.611312	-0.635610	0.454938
C52	C	2.111312	-0.135610	0.954938
C53	C	1.660261	-0.967059	0.503806
C54	C	2.160261	-0.467059	1.003806
C55	C	1.654973	-1.040419	0.498471
C56	C	2.154973	-0.540419	0.998471
C57	C	1.808420	-1.040266	0.652125
C58	C	2.308420	-0.540266	1.152125
C59	C	1.813715	-0.966910	0.657450
C60	C	2.313715	-0.466910	1.157450
C61	C	1.739630	-0.930310	0.583296
C62	C	2.239630	-0.430310	1.083296
C63	C	1.674678	-0.820553	0.518306
C64	C	2.174678	-0.320553	1.018306
C65	C	1.745043	-0.855330	0.588756
C66	C	2.245043	-0.355330	1.088756
C67	C	2.022806	-0.338307	0.553477
C68	C	2.522806	0.161693	1.053477
C69	C	2.156206	-0.338312	0.553484
C70	C	2.656206	0.161688	1.053484
C71	C	1.709863	-0.338218	0.866510
C72	C	2.209863	0.161782	1.366510
C73	C	1.709904	-0.338185	0.999913
C74	C	2.209904	0.161815	1.499913
C75	C	1.723284	-0.155091	0.566900
C76	C	2.223284	0.344909	1.066900
C77	C	1.729045	-0.077020	0.572627
C78	C	2.229045	0.422980	1.072627
C79	C	1.709740	-0.338323	0.241635
C80	C	2.209740	0.161677	0.741635
C81	C	1.709945	-0.338159	0.108248
C82	C	2.209945	0.161841	0.608248
H83	H	1.829402	-0.605541	0.673308
H84	H	2.329402	-0.105541	1.173308
C85	C	1.578737	-0.926808	0.422261
C86	C	2.078737	-0.426808	0.922261
N87	N	1.517319	-0.896489	0.360848
N88	N	2.017319	-0.396489	0.860848
H89	H	1.550993	-0.605810	0.394554
H90	H	2.050993	-0.105810	0.894554
C91	C	1.889900	-1.080532	0.733696
C92	C	2.389900	-0.580532	1.233696
N93	N	1.951269	-1.110861	0.795144
N94	N	2.451269	-0.610861	1.295144
H95	H	1.819791	-0.738615	0.663627
H96	H	2.319791	-0.238615	1.163627
C97	C	1.901048	-0.926487	0.744876
C98	C	2.401048	-0.426487	1.244876
N99	N	1.966840	-0.896040	0.810716
N100	N	2.466840	-0.396040	1.310716
C101	C	1.518782	-0.749396	0.362085
C102	C	2.018782	-0.249396	0.862085
N103	N	1.453106	-0.779849	0.296136
N104	N	1.953106	-0.279849	0.796136
C105	C	1.567652	-1.080846	0.411024
C106	C	2.067652	-0.580846	0.911024
N107	N	1.501886	-1.111296	0.345162
N108	N	2.001886	-0.611296	0.845162
C109	C	1.832349	-0.814899	0.676193
C110	C	2.332349	-0.314899	1.176193
N111	N	1.898112	-0.784440	0.742046
N112	N	2.398112	-0.284440	1.242046
H113	H	1.610059	-0.850486	0.453579
H114	H	2.110059	-0.350486	0.953579
