data_functionalizedCrystal
_audit_creation_method	'MofGen! by Chris Wilmer'
_symmetry_space_group_name_H-M	'P1'
_symmetry_Int_Tables_number	1
_symmetry_cell_setting	triclinic
loop_
_symmetry_equiv_pos_as_xyz
  x,y,z
_cell_length_a	13.339070
_cell_length_b	12.376457
_cell_length_c	13.339070
_cell_angle_alpha	104.398083
_cell_angle_beta	64.370706
_cell_angle_gamma	104.410245
loop_
_atom_site_label
_atom_site_type_symbol
_atom_site_fract_x
_atom_site_fract_y
_atom_site_fract_z
O1	O	1.511964	0.094035	-0.535384
O2	O	1.197153	0.094030	-0.463125
O3	O	1.318428	0.094029	-0.341851
O4	O	1.390689	0.094037	-0.656659
O5	O	1.288108	-0.093983	-0.372116
O6	O	1.166834	-0.093982	-0.493391
O7	O	1.481644	-0.093976	-0.565650
Zn8	Zn	1.319425	-0.123830	-0.534326
Zn9	Zn	1.359372	0.123884	-0.494450
O10	O	1.360369	-0.093975	-0.686924
C11	C	1.140878	0.000024	-0.466052
C12	C	1.018364	0.000022	-0.429669
N13	N	1.292170	-0.292888	-0.561541
C14	C	0.732980	0.000047	-0.712564
C15	C	0.848090	0.000052	-0.746750
C16	C	0.890664	0.000044	-0.667483
C17	C	0.818117	0.000031	-0.554023
C18	C	0.702998	0.000035	-0.519831
C19	C	0.860682	0.000032	-0.474751
C20	C	0.788135	0.000020	-0.361291
C21	C	0.673027	0.000022	-0.327105
C22	C	0.630453	0.000030	-0.406372
C23	C	0.975801	0.000029	-0.508942
C24	C	0.945819	0.000017	-0.316210
C25	C	0.830709	0.000012	-0.282023
C26	C	1.449896	-0.647875	-0.404029
C27	C	1.468966	-0.529535	-0.384979
C28	C	1.424768	-0.470367	-0.429117
C29	C	1.361498	-0.529551	-0.492310
C30	C	1.342434	-0.647902	-0.511370
C31	C	1.317306	-0.470395	-0.536458
C32	C	1.254035	-0.529579	-0.599651
C33	C	1.234974	-0.647918	-0.618707
C34	C	1.279171	-0.707086	-0.574568
C35	C	1.336370	-0.352044	-0.517399
C36	C	1.228907	-0.352071	-0.624740
C37	C	1.209837	-0.470411	-0.643790
C38	C	1.537920	0.000033	-0.562723
C39	C	1.660435	0.000042	-0.599105
C40	C	1.291062	0.000024	-0.315868
C41	C	1.254679	0.000028	-0.193353
N42	N	1.386634	0.292942	-0.467227
C43	C	1.387736	0.000032	-0.712907
C44	C	1.424120	0.000035	-0.835420
C45	C	1.537579	0.000032	0.092035
C46	C	1.571765	0.000022	-0.023075
C47	C	1.492496	0.000024	-0.065651
C48	C	1.379036	0.000035	0.006896
C49	C	1.344845	0.000037	0.122016
C50	C	1.299763	0.000028	-0.035669
C51	C	1.186303	0.000040	0.036877
C52	C	1.152118	0.000042	0.151986
C53	C	1.231386	0.000040	0.194561
C54	C	1.333954	0.000027	-0.150790
C55	C	1.141220	0.000031	-0.120808
C56	C	1.107034	0.000042	-0.005698
H57	H	0.984393	0.000051	-0.695324
H58	H	0.536722	0.000025	-0.378543
H59	H	1.203558	0.000052	0.288293
H60	H	1.426333	0.000018	-0.209846
N61	N	1.055723	0.000037	-0.166725
H62	H	1.018883	0.069732	-0.128925
H63	H	0.996473	-0.069706	-0.151359
H64	H	1.602105	0.000021	0.126710
H65	H	0.771627	0.000011	-0.189640
N66	N	0.926336	0.000082	-0.869112
H67	H	0.881902	0.000090	-0.914140
H68	H	0.963518	-0.069611	-0.898727
N69	N	1.141608	-0.534246	-0.711958
H70	H	1.063426	-0.513669	-0.674073
H71	H	1.136327	-0.618172	-0.717315
H72	H	0.698306	0.000063	-0.777089
N73	N	1.258608	-0.834727	-0.595125
H74	H	1.174912	-0.863250	-0.562758
H75	H	1.296270	-0.863131	-0.557575
H76	H	0.613963	0.000025	-0.234717
H77	H	1.183466	-0.696106	-0.670173
N78	N	1.529374	0.000029	-0.189803
H79	H	1.511020	0.069731	-0.200423
H80	H	1.488521	-0.069707	-0.222793
H81	H	1.520481	-0.481352	-0.333529
N82	N	1.497553	-0.711701	-0.356431
H83	H	1.466352	-0.691119	-0.271620
H84	H	1.582366	-0.691070	-0.387763
H85	H	1.387885	-0.303867	-0.465947
N86	N	1.694128	0.000004	-0.101319
H87	H	1.739158	0.000005	-0.056884
H88	H	1.723757	0.069699	-0.138521
N89	N	1.445332	-0.342730	-0.408572
H90	H	1.492117	-0.314215	-0.361841
H91	H	1.370774	-0.314333	-0.367057
H92	H	0.980482	0.000015	-0.251662
N93	N	1.181236	-0.288271	-0.672358
H94	H	1.202910	-0.204320	-0.650693
H95	H	1.096430	-0.308973	-0.641096
H96	H	1.059730	0.000042	0.211050
H97	H	1.034857	0.000035	-0.601322
H98	H	1.014653	0.000050	0.053385
