data_functionalizedCrystal
_audit_creation_method	'MofGen! by Chris Wilmer'
_symmetry_space_group_name_H-M	'P1'
_symmetry_Int_Tables_number	1
_symmetry_cell_setting	triclinic
loop_
_symmetry_equiv_pos_as_xyz
  x,y,z
_cell_length_a	9.065218
_cell_length_b	9.065215
_cell_length_c	7.540329
_cell_angle_alpha	89.997358
_cell_angle_beta	89.996962
_cell_angle_gamma	85.015291
loop_
_atom_site_label
_atom_site_type_symbol
_atom_site_fract_x
_atom_site_fract_y
_atom_site_fract_z
O1	O	1.960396	0.216355	-0.147483
O2	O	2.460396	0.716355	0.352517
O3	O	1.531111	0.234101	-0.147485
O4	O	2.031111	0.734101	0.352515
O5	O	1.754629	0.010586	-0.147477
O6	O	2.254629	0.510586	0.352523
O7	O	1.736878	0.439871	-0.147492
O8	O	2.236878	0.939871	0.352508
O9	O	1.754616	0.010583	0.147489
O10	O	2.254616	0.510583	0.647489
O11	O	1.531098	0.234099	0.147480
O12	O	2.031098	0.734099	0.647480
O13	O	1.960383	0.216352	0.147482
O14	O	2.460383	0.716352	0.647482
Cu15	Cu	1.745739	0.225225	0.174414
Cu16	Cu	2.245739	0.725225	0.674414
Cu17	Cu	1.745755	0.225228	-0.174417
Cu18	Cu	2.245755	0.725228	0.325583
O19	O	1.736865	0.439868	0.147473
O20	O	2.236865	0.939868	0.647473
C21	C	1.476118	0.232394	-0.000003
C22	C	1.976118	0.732394	0.499997
C23	C	1.312275	0.227295	-0.000004
C24	C	1.812275	0.727295	0.499996
C25	C	1.752917	-0.044403	0.000004
C26	C	2.252917	0.455597	0.500004
C27	C	1.747819	-0.208246	-0.000001
C28	C	2.247819	0.291754	0.499999
C29	C	2.015376	0.218059	-0.000004
C30	C	2.515376	0.718059	0.499996
C31	C	2.179219	0.223159	-0.000015
C32	C	2.679219	0.723159	0.499985
C33	C	1.738576	0.494856	-0.000011
C34	C	2.238576	0.994856	0.499989
C35	C	1.743674	0.658699	-0.000018
C36	C	2.243674	1.158699	0.499982
N37	N	1.745739	0.225222	0.419762
N38	N	2.245739	0.725222	0.919762
N39	N	1.745767	0.225220	-0.419765
N40	N	2.245767	0.725220	0.080235
