data_functionalizedCrystal
_audit_creation_method	'MofGen! by Chris Wilmer'
_symmetry_space_group_name_H-M	'P1'
_symmetry_Int_Tables_number	1
_symmetry_cell_setting	triclinic
loop_
_symmetry_equiv_pos_as_xyz
  x,y,z
_cell_length_a	12.594517
_cell_length_b	29.839131
_cell_length_c	12.594510
_cell_angle_alpha	89.951258
_cell_angle_beta	89.978880
_cell_angle_gamma	90.035028
loop_
_atom_site_label
_atom_site_type_symbol
_atom_site_fract_x
_atom_site_fract_y
_atom_site_fract_z
Zn1	Zn	1.627123	-0.178815	-0.601754
Zn2	Zn	2.127123	0.321185	-0.101754
Zn3	Zn	1.626955	-0.253958	-0.423730
Zn4	Zn	2.126955	0.246042	0.076270
Zn5	Zn	1.449127	-0.178842	-0.423782
Zn6	Zn	1.949127	0.321158	0.076218
Zn7	Zn	1.449049	-0.253919	-0.601660
Zn8	Zn	1.949049	0.246081	-0.101660
O9	O	1.538064	-0.216383	-0.512732
O10	O	2.038064	0.283617	-0.012732
O11	O	1.776046	-0.188788	-0.578156
O12	O	2.276046	0.311212	-0.078156
O13	O	1.603328	-0.244021	-0.274791
O14	O	2.103328	0.255979	0.225209
O15	O	1.472842	-0.115972	-0.447452
O16	O	1.972842	0.384028	0.052548
O17	O	1.775923	-0.243995	-0.447363
O18	O	2.275923	0.256005	0.052637
O19	O	1.603614	-0.115952	-0.578206
O20	O	2.103614	0.384048	-0.078206
O21	O	1.472679	-0.188834	-0.274830
O22	O	1.972679	0.311166	0.225170
O23	O	1.300171	-0.188796	-0.447361
O24	O	1.800171	0.311204	0.052639
O25	O	1.472709	-0.243928	-0.750619
O26	O	1.972709	0.256072	-0.250619
O27	O	1.300114	-0.243954	-0.578047
O28	O	1.800114	0.256046	-0.078047
O29	O	1.603539	-0.188750	-0.750687
O30	O	2.103539	0.311250	-0.250687
O31	O	1.603252	-0.316820	-0.447272
O32	O	2.103252	0.183180	0.052728
O33	O	1.472546	-0.316791	-0.577997
O34	O	1.972546	0.183209	-0.077997
C35	C	1.261523	-0.216374	-0.512700
C36	C	1.761523	0.283626	-0.012700
C37	C	1.143217	-0.216381	-0.512712
C38	C	1.643217	0.283619	-0.012712
C39	C	1.073964	-0.186340	-0.441768
C40	C	1.573964	0.313660	0.058232
C41	C	1.003121	-0.227320	-0.415563
C42	C	1.503121	0.272680	0.084437
C43	C	1.003262	-0.175421	-0.538935
C44	C	1.503262	0.324579	-0.038935
C45	C	1.073932	-0.257383	-0.486457
C46	C	1.573932	0.242617	0.013543
C47	C	1.074079	-0.205456	-0.609874
C48	C	1.574079	0.294544	-0.109874
C49	C	1.003268	-0.246465	-0.583706
C50	C	1.503268	0.253535	-0.083706
C51	C	1.537901	-0.333106	-0.512642
C52	C	2.037901	0.166894	-0.012642
C53	C	1.537929	-0.383040	-0.512639
C54	C	2.037929	0.116960	-0.012639
C55	C	1.606142	-0.692638	-0.580913
C56	C	2.106142	-0.192638	-0.080913
C57	C	1.606258	-0.880311	-0.580977
C58	C	2.106258	-0.380311	-0.080977
O59	O	1.664096	-0.904538	-0.638959
O60	O	2.164096	-0.404538	-0.138959
N61	N	1.538244	-0.903825	-0.512850
N62	N	2.038244	-0.403825	-0.012850
C63	C	1.470193	-0.880418	-0.444707
C64	C	1.970193	-0.380418	0.055293
O65	O	1.412338	-0.904725	-0.386770
O66	O	1.912338	-0.404725	0.113230
C67	C	1.470073	-0.692746	-0.444649
C68	C	1.970073	-0.192746	0.055351
C69	C	1.538098	-0.669235	-0.512773
C70	C	2.038098	-0.169235	-0.012773
C71	C	1.674161	-0.669127	-0.649032
C72	C	2.174161	-0.169127	-0.149032
C73	C	1.674136	-0.622211	-0.649011
C74	C	2.174136	-0.122211	-0.149011
C75	C	1.606091	-0.598808	-0.580871
C76	C	2.106091	-0.098808	-0.080871
C77	C	1.538072	-0.622319	-0.512752
C78	C	2.038072	-0.122319	-0.012752
C79	C	1.402016	-0.669340	-0.376513
C80	C	1.902016	-0.169340	0.123487
C81	C	1.401990	-0.622419	-0.376506
C82	C	1.901990	-0.122419	0.123494
C83	C	1.470015	-0.598907	-0.444630
C84	C	1.970015	-0.098907	0.055370
C85	C	1.470002	-0.552000	-0.444592
C86	C	1.970002	-0.052000	0.055408
N87	N	1.538016	-0.528486	-0.512719
N88	N	2.038016	-0.028486	-0.012719
C89	C	1.606060	-0.551890	-0.580858
C90	C	2.106060	-0.051890	-0.080858
C91	C	1.470262	-0.978949	-0.444741
C92	C	1.970262	-0.478949	0.055259
C93	C	1.470293	-1.025867	-0.444754
C94	C	1.970293	-0.525867	0.055246
C95	C	1.606357	-1.025757	-0.581025
C96	C	2.106357	-0.525757	-0.081025
C97	C	1.606330	-0.978838	-0.581006
C98	C	2.106330	-0.478838	-0.081006
C99	C	1.538275	-0.955435	-0.512868
C100	C	2.038275	-0.455435	-0.012868
C101	C	1.606002	-0.453364	-0.580809
C102	C	2.106002	0.046636	-0.080809
C103	C	1.605974	-0.406444	-0.580779
C104	C	2.105974	0.093556	-0.080779
C105	C	1.469906	-0.406558	-0.444512
C106	C	1.969906	0.093442	0.055488
C107	C	1.469938	-0.453474	-0.444538
C108	C	1.969938	0.046526	0.055462
C109	C	1.537990	-0.476876	-0.512695
C110	C	2.037990	0.023124	-0.012695
O111	O	1.412186	-0.527745	-0.386649
O112	O	1.912186	-0.027745	0.113351
O113	O	1.663889	-0.527575	-0.638803
O114	O	2.163889	-0.027575	-0.138803
C115	C	1.606168	-0.739554	-0.580933
C116	C	2.106168	-0.239554	-0.080933
C117	C	1.538149	-0.763065	-0.512814
C118	C	2.038149	-0.263065	-0.012814
C119	C	1.470104	-0.739662	-0.444675
C120	C	1.970104	-0.239662	0.055325
C121	C	1.538180	-0.809983	-0.512827
C122	C	2.038180	-0.309983	-0.012827
C123	C	1.606224	-0.833387	-0.580967
C124	C	2.106224	-0.333387	-0.080967
C125	C	1.674237	-0.809873	-0.649094
C126	C	2.174237	-0.309873	-0.149094
C127	C	1.674212	-0.762958	-0.649073
C128	C	2.174212	-0.262958	-0.149073
C129	C	1.402091	-0.763176	-0.376548
C130	C	1.902091	-0.263176	0.123452
C131	C	1.402123	-0.810091	-0.376573
C132	C	1.902123	-0.310091	0.123427
C133	C	1.470167	-0.833495	-0.444713
C134	C	1.970167	-0.333495	0.055287
C135	C	1.815684	-0.216393	-0.512764
C136	C	2.315684	0.283607	-0.012764
C137	C	1.933990	-0.216397	-0.512777
C138	C	2.433990	0.283603	-0.012777
C139	C	1.538134	-0.216332	-0.790353
C140	C	2.038134	0.283668	-0.290353
C141	C	1.538164	-0.216309	-0.908658
C142	C	2.038164	0.283691	-0.408658
C143	C	1.538256	-0.099205	-0.512845
C144	C	2.038256	0.400795	-0.012845
C145	C	1.538337	-0.049271	-0.512893
C146	C	2.038337	0.450729	-0.012893
C147	C	1.609344	-0.186296	-0.977949
C148	C	2.109344	0.313704	-0.477949
C149	C	1.512276	-0.175299	-1.048746
C150	C	2.012276	0.324701	-0.548746
C151	C	1.635288	-0.227275	-1.048660
C152	C	2.135288	0.272725	-0.548660
C153	C	1.441045	-0.205292	-0.977898
C154	C	1.941045	0.294708	-0.477898
C155	C	1.564122	-0.257286	-0.977805
C156	C	2.064122	0.242714	-0.477805
C157	C	1.466988	-0.246305	-1.048571
C158	C	1.966988	0.253695	-0.548571
C159	C	1.538055	-0.216403	-0.236191
C160	C	2.038055	0.283597	0.263809
C161	C	1.538231	-0.216298	-0.117886
C162	C	2.038231	0.283702	0.382114
H163	H	0.972162	-0.140779	-0.561050
H164	H	1.472162	0.359221	-0.061050
H165	H	1.406753	-0.271682	-1.079385
H166	H	1.906753	0.228318	-0.579385
H167	H	1.105006	-0.160960	-0.381698
H168	H	1.605006	0.339040	0.118302
H169	H	1.414912	-1.045006	-0.389269
H170	H	1.914912	-0.545006	0.110731
H171	H	0.972421	-0.271906	-0.643730
H172	H	1.472421	0.228094	-0.143730
H173	H	0.971955	-0.236570	-0.333424
H174	H	1.471955	0.263430	0.166576
H175	H	1.669432	-0.160900	-0.946935
H176	H	2.169432	0.339100	-0.446935
H177	H	1.346680	-0.744124	-0.321062
H178	H	1.846680	-0.244124	0.178938
C179	C	1.116226	-0.192944	-0.720800
C180	C	1.616226	0.307056	-0.220800
H181	H	1.092074	-0.163811	-0.739305
H182	H	1.592074	0.336189	-0.239305
H183	H	1.090969	-0.213992	-0.771401
H184	H	1.590969	0.286008	-0.271401
H185	H	1.191647	-0.193298	-0.720119
H186	H	1.691647	0.306702	-0.220119
C187	C	1.115685	-0.304200	-0.456398
C188	C	1.615685	0.195800	0.043602
H189	H	1.191115	-0.303905	-0.456522
H190	H	1.691115	0.196095	0.043478
H191	H	1.090913	-0.325561	-0.506500
H192	H	1.590913	0.174439	-0.006500
H193	H	1.090800	-0.312013	-0.387610
H194	H	1.590800	0.187987	0.112390
H195	H	1.661372	-0.387303	-0.636253
H196	H	2.161372	0.112697	-0.136253
C197	C	1.482646	-0.128482	-1.090849
C198	C	1.982646	0.371518	-0.590849
H199	H	1.533265	-0.107195	-1.066677
H200	H	2.033265	0.392805	-0.566677
H201	H	1.414163	-0.120482	-1.065581
H202	H	1.914163	0.379518	-0.565581
H203	H	1.482256	-0.128886	-1.166271
H204	H	1.982256	0.371114	-0.666271
H205	H	1.414842	-0.959897	-0.389252
H206	H	1.914842	-0.459897	0.110748
H207	H	1.661409	-0.472412	-0.636316
H208	H	2.161409	0.027588	-0.136316
C209	C	1.330094	-0.192699	-0.936092
C210	C	1.830094	0.307301	-0.436092
H211	H	1.330757	-0.192764	-0.860662
H212	H	1.830757	0.307236	-0.360662
H213	H	1.279516	-0.213880	-0.960836
H214	H	1.779516	0.286120	-0.460836
H215	H	1.311571	-0.163675	-0.960972
H216	H	1.811571	0.336325	-0.460972
C217	C	1.748960	-0.596355	-0.723951
C218	C	2.248960	-0.096355	-0.223951
H219	H	1.789477	-0.617018	-0.764535
H220	H	2.289477	-0.117018	-0.264535
H221	H	1.795353	-0.578052	-0.683279
H222	H	2.295353	-0.078052	-0.183279
H223	H	1.708206	-0.578048	-0.770293
H224	H	2.208206	-0.078048	-0.270293
C225	C	1.749023	-0.694864	-0.723986
C226	C	2.249023	-0.194864	-0.223986
H227	H	1.789527	-0.674136	-0.764540
H228	H	2.289527	-0.174136	-0.264540
H229	H	1.708310	-0.713165	-0.770338
H230	H	2.208310	-0.213165	-0.270338
H231	H	1.795442	-0.713163	-0.683309
H232	H	2.295442	-0.213163	-0.183309
H233	H	1.661722	-0.959698	-0.636478
H234	H	2.161722	-0.459698	-0.136478
C235	C	1.327179	-0.695192	-0.301583
C236	C	1.827179	-0.195192	0.198417
H237	H	1.286646	-0.674528	-0.261017
H238	H	1.786646	-0.174528	0.238983
H239	H	1.367914	-0.713501	-0.255240
H240	H	1.867914	-0.213501	0.244760
H241	H	1.280785	-0.713492	-0.342273
H242	H	1.780785	-0.213492	0.157727
H243	H	1.661763	-1.044820	-0.636506
H244	H	2.161763	-0.544820	-0.136506
C245	C	1.593792	-0.304090	-0.935669
C246	C	2.093792	0.195910	-0.435669
H247	H	1.662834	-0.311842	-0.959854
H248	H	2.162834	0.188158	-0.459854
H249	H	1.543958	-0.325483	-0.960900
H250	H	2.043958	0.174517	-0.460900
H251	H	1.592914	-0.303818	-0.860247
H252	H	2.092914	0.196182	-0.360247
H253	H	1.717396	-0.236553	-1.079747
H254	H	2.217396	0.263447	-0.579747
H255	H	1.729604	-0.743818	-0.704546
H256	H	2.229604	-0.243818	-0.204546
H257	H	1.729645	-0.828937	-0.704572
H258	H	2.229645	-0.328937	-0.204572
C259	C	1.327130	-0.596676	-0.301553
C260	C	1.827130	-0.096676	0.198447
H261	H	1.336845	-0.565365	-0.311299
H262	H	1.836845	-0.065365	0.188701
H263	H	1.342745	-0.604391	-0.230056
H264	H	1.842745	-0.104391	0.269944
H265	H	1.255610	-0.604386	-0.317081
H266	H	1.755610	-0.104386	0.182919
C267	C	1.395115	-0.479338	-0.369602
C268	C	1.895115	0.020662	0.130398
H269	H	1.354584	-0.458678	-0.329022
H270	H	1.854584	0.041322	0.170978
H271	H	1.435857	-0.497650	-0.323272
H272	H	1.935857	0.002350	0.176728
H273	H	1.348720	-0.497635	-0.410296
H274	H	1.848720	0.002365	0.089704
H275	H	1.414508	-0.387496	-0.389030
H276	H	1.914508	0.112504	0.110970
H277	H	1.346730	-0.829230	-0.321089
H278	H	1.846730	-0.329230	0.178911
