data_functionalizedCrystal
_audit_creation_method	'MofGen! by Chris Wilmer'
_symmetry_space_group_name_H-M	'P1'
_symmetry_Int_Tables_number	1
_symmetry_cell_setting	triclinic
loop_
_symmetry_equiv_pos_as_xyz
  x,y,z
_cell_length_a	15.944499
_cell_length_b	15.944545
_cell_length_c	13.596369
_cell_angle_alpha	89.991909
_cell_angle_beta	89.992083
_cell_angle_gamma	83.486891
loop_
_atom_site_label
_atom_site_type_symbol
_atom_site_fract_x
_atom_site_fract_y
_atom_site_fract_z
O1	O	1.114550	0.108127	-0.081855
O2	O	0.869994	0.121529	-0.081845
O3	O	0.998953	-0.007449	-0.081838
O4	O	0.985591	0.237104	-0.081861
O5	O	0.998940	-0.007455	0.081745
O6	O	0.869981	0.121522	0.081738
O7	O	1.114537	0.108120	0.081728
Zn8	Zn	0.992257	0.114820	0.107705
Zn9	Zn	0.992274	0.114829	-0.107822
O10	O	0.985578	0.237097	0.081722
C11	C	0.838693	0.120977	-0.000052
C12	C	0.745444	0.119332	-0.000047
C13	C	0.453907	0.194264	-0.000069
C14	C	0.514943	0.155316	-0.080722
C15	C	0.409808	0.113355	-0.000069
C16	C	0.514916	0.155287	0.080558
C17	C	0.574717	0.116296	-0.000057
C18	C	0.469616	0.074385	-0.080789
C19	C	0.469583	0.074367	0.080563
C20	C	0.530602	0.035360	-0.000110
C21	C	0.314808	0.111664	-0.000078
C22	C	0.669716	0.117981	-0.000056
C23	C	0.998393	-0.038746	-0.000046
C24	C	0.996732	-0.131992	-0.000043
C25	C	0.911837	-0.402609	-0.000059
C26	C	0.952773	-0.352028	-0.080717
C27	C	0.990811	-0.467635	-0.000071
C28	C	0.952781	-0.352062	0.080563
C29	C	0.993716	-0.302722	-0.000056
C30	C	1.031727	-0.418282	-0.080795
C31	C	1.031724	-0.418319	0.080558
C32	C	1.072718	-0.367771	-0.000119
C33	C	0.989136	-0.562637	-0.000080
C34	C	0.995398	-0.207723	-0.000053
C35	C	1.145838	0.108672	-0.000067
C36	C	1.239086	0.110317	-0.000078
C37	C	0.986138	0.268395	-0.000073
C38	C	0.987798	0.361641	-0.000082
N39	N	0.992251	0.114813	0.254797
N40	N	0.992286	0.114829	-0.254914
C41	C	0.992273	0.114830	0.656088
C42	C	0.992264	0.114828	0.544437
C43	C	0.992262	0.114822	0.455446
C44	C	0.992253	0.114819	0.343788
H45	H	0.449643	0.040198	-0.149051
F46	F	0.443281	0.029670	0.169698
F47	F	1.075297	-0.455934	-0.170022
F48	F	0.573977	-0.052480	-0.000158
F49	F	0.541151	0.200030	0.169677
H50	H	0.843822	-0.418249	-0.000135
H51	H	0.919409	-0.323144	0.148751
H52	H	0.919425	-0.323084	-0.148904
F53	F	0.410338	0.282027	-0.000176
H54	H	1.140785	-0.352292	-0.000167
F55	F	1.075274	-0.456173	0.169687
H56	H	0.535046	0.189542	-0.148910
