data_functionalizedCrystal
_audit_creation_method	'MofGen! by Chris Wilmer'
_symmetry_space_group_name_H-M	'P1'
_symmetry_Int_Tables_number	1
_symmetry_cell_setting	triclinic
loop_
_symmetry_equiv_pos_as_xyz
  x,y,z
_cell_length_a	11.169417
_cell_length_b	18.050590
_cell_length_c	11.169409
_cell_angle_alpha	89.962075
_cell_angle_beta	89.979747
_cell_angle_gamma	90.019802
loop_
_atom_site_label
_atom_site_type_symbol
_atom_site_fract_x
_atom_site_fract_y
_atom_site_fract_z
Zn1	Zn	1.834903	-0.295575	-0.678486
Zn2	Zn	2.334903	0.204425	-0.178486
Zn3	Zn	1.834761	-0.419790	-0.477783
Zn4	Zn	2.334761	0.080210	0.022217
Zn5	Zn	1.634186	-0.295621	-0.477821
Zn6	Zn	2.134186	0.204379	0.022179
Zn7	Zn	1.634167	-0.419730	-0.678429
Zn8	Zn	2.134167	0.080270	-0.178429
O9	O	1.734504	-0.357679	-0.578130
O10	O	2.234504	0.142321	-0.078130
O11	O	2.002833	-0.312058	-0.651870
O12	O	2.502833	0.187942	-0.151870
O13	O	1.808102	-0.403363	-0.309838
O14	O	2.308102	0.096637	0.190162
O15	O	1.660879	-0.191690	-0.504480
O16	O	2.160879	0.308310	-0.004480
O17	O	2.002729	-0.403318	-0.504414
O18	O	2.502729	0.096682	-0.004414
O19	O	1.808344	-0.191656	-0.651907
O20	O	2.308344	0.308344	-0.151907
O21	O	1.660741	-0.312136	-0.309866
O22	O	2.160741	0.187864	0.190134
O23	O	1.466234	-0.312079	-0.504424
O24	O	1.966234	0.187921	-0.004424
O25	O	1.660847	-0.403217	-0.846386
O26	O	2.160847	0.096783	-0.346386
O27	O	1.466220	-0.403261	-0.651810
O28	O	1.966220	0.096739	-0.151810
O29	O	1.808326	-0.312000	-0.846428
O30	O	2.308326	0.188000	-0.346428
O31	O	1.808084	-0.523707	-0.504359
O32	O	2.308084	-0.023707	-0.004359
O33	O	1.660709	-0.523663	-0.651773
O34	O	2.160709	-0.023663	-0.151773
C35	C	1.422679	-0.357669	-0.578116
C36	C	1.922679	0.142331	-0.078116
C37	C	1.289279	-0.357683	-0.578138
C38	C	1.789279	0.142317	-0.078138
C39	C	1.734412	-0.550631	-0.578082
C40	C	2.234412	-0.050631	-0.078082
C41	C	1.734482	-0.633177	-0.578101
C42	C	2.234482	-0.133177	-0.078101
C43	C	1.814791	-0.832624	-0.498050
C44	C	2.314791	-0.332624	0.001950
C45	C	1.844117	-0.881945	-0.607586
C46	C	2.344117	-0.381945	-0.107586
C47	C	1.734550	-0.784307	-0.578149
C48	C	2.234550	-0.284307	-0.078149
C49	C	1.705347	-0.882068	-0.468663
C50	C	2.205347	-0.382068	0.031337
C51	C	1.734618	-0.930292	-0.578186
C52	C	2.234618	-0.430292	-0.078186
C53	C	1.763932	-0.832541	-0.687743
C54	C	2.263932	-0.332541	-0.187743
C55	C	1.625111	-0.832659	-0.548746
C56	C	2.125111	-0.332659	-0.048746
C57	C	1.654395	-0.881958	-0.658357
C58	C	2.154395	-0.381958	-0.158357
C59	C	1.734514	-0.700209	-0.578127
C60	C	2.234514	-0.200209	-0.078127
C61	C	1.734654	-1.014389	-0.578221
C62	C	2.234654	-0.514389	-0.078221
C63	C	2.047546	-0.357690	-0.578144
C64	C	2.547546	0.142310	-0.078144
C65	C	2.180946	-0.357694	-0.578150
C66	C	2.680946	0.142306	-0.078150
C67	C	1.734600	-0.357597	-0.891172
C68	C	2.234600	0.142403	-0.391172
C69	C	1.734641	-0.357562	-1.024572
C70	C	2.234641	0.142438	-0.524572
C71	C	1.734629	-0.163973	-0.578204
C72	C	2.234629	0.336027	-0.078204
C73	C	1.734683	-0.081428	-0.578236
C74	C	2.234683	0.418572	-0.078236
C75	C	1.734477	-0.357707	-0.266305
C76	C	2.234477	0.142293	0.233695
C77	C	1.734669	-0.357533	-0.132905
C78	C	2.234669	0.142467	0.367095
H79	H	1.882672	-0.810962	-0.430382
H80	H	2.382672	-0.310962	0.069618
H81	H	1.586567	-0.903483	-0.726189
H82	H	2.086567	-0.403483	-0.226189
H83	H	1.532558	-0.810992	-0.523820
H84	H	2.032558	-0.310992	-0.023820
H85	H	1.680619	-0.903822	-0.376056
H86	H	2.180619	-0.403822	0.123944
H87	H	1.788568	-0.810879	-0.780429
H88	H	2.288568	-0.310879	-0.280429
F89	F	1.965128	-0.910232	-0.640140
F90	F	2.465128	-0.410232	-0.140140
