data_functionalizedCrystal
_audit_creation_method	'MofGen! by Chris Wilmer'
_symmetry_space_group_name_H-M	'P1'
_symmetry_Int_Tables_number	1
_symmetry_cell_setting	triclinic
loop_
_symmetry_equiv_pos_as_xyz
  x,y,z
_cell_length_a	19.805407
_cell_length_b	13.897448
_cell_length_c	19.805399
_cell_angle_alpha	90.025019
_cell_angle_beta	90.019573
_cell_angle_gamma	90.017692
loop_
_atom_site_label
_atom_site_type_symbol
_atom_site_fract_x
_atom_site_fract_y
_atom_site_fract_z
Zn1	Zn	1.034777	-0.384037	0.382732
Zn2	Zn	1.034709	-0.545343	0.269549
Zn3	Zn	0.921591	-0.384064	0.269556
Zn4	Zn	0.921572	-0.545292	0.382695
O5	O	0.978162	-0.464684	0.326133
O6	O	1.129484	-0.405445	0.367730
O7	O	1.019683	-0.523982	0.174833
O8	O	0.936642	-0.249079	0.284588
O9	O	1.129434	-0.523956	0.284575
O10	O	1.019799	-0.249059	0.367737
O11	O	0.936576	-0.405490	0.174839
O12	O	0.826872	-0.405441	0.284552
O13	O	0.936609	-0.523869	0.477417
O14	O	0.826858	-0.523894	0.367675
O15	O	1.019780	-0.405395	0.477443
O16	O	1.019664	-0.680318	0.284539
O17	O	0.936543	-0.680280	0.367668
C18	C	0.802306	-0.464666	0.326111
C19	C	0.727074	-0.464681	0.326118
C20	C	0.978113	-0.715298	0.326113
C21	C	0.978154	-0.822512	0.326128
C22	C	0.691740	-0.526453	0.369330
C23	C	0.621052	-0.526454	0.369339
C24	C	0.585699	-0.464688	0.326133
C25	C	0.621037	-0.402910	0.282919
C26	C	0.691725	-0.402904	0.282913
C27	C	0.335964	-0.402931	0.282941
C28	C	0.265272	-0.402944	0.282949
C29	C	0.265292	-0.526481	0.369367
C30	C	0.335979	-0.526476	0.369362
C31	C	0.371311	-0.464694	0.326151
C32	C	0.447960	-0.464692	0.326142
C33	C	0.509051	-0.464695	0.326138
C34	C	0.978225	-1.018807	0.326170
C35	C	0.978183	-0.909575	0.326149
C36	C	1.154705	-0.464703	0.326155
C37	C	1.229937	-0.464711	0.326165
C38	C	0.978200	-0.464623	0.502676
C39	C	0.978216	-0.464597	0.577908
C40	C	0.978230	-0.213091	0.326167
C41	C	0.978259	-0.105877	0.326182
C42	C	0.978163	-0.464675	0.150277
C43	C	0.978278	-0.464429	0.075045
C44	C	1.021524	-0.402905	0.613267
C45	C	1.021531	-0.402877	0.683955
C46	C	0.978233	-0.464547	0.719283
C47	C	0.934920	-0.526242	0.683919
C48	C	0.934910	-0.526264	0.613232
C49	C	0.934958	-0.526152	0.968993
C50	C	0.934973	-0.526127	1.039685
C51	C	1.021579	-0.402765	1.039716
C52	C	1.021570	-0.402787	0.969029
C53	C	0.978255	-0.464478	0.933671
C54	C	0.978247	-0.464507	0.857022
C55	C	0.978244	-0.464524	0.795931
H56	H	0.720520	-0.576753	0.404511
H57	H	0.899664	-0.576451	0.712689
H58	H	0.592286	-0.576756	0.404526
Cl59	Cl	0.880462	-0.603820	0.568780
Cl60	Cl	0.880505	-0.603707	0.924552
Cl61	Cl	1.076008	-0.325361	0.728404
Cl62	Cl	0.380419	-0.604130	0.423678
Cl63	Cl	1.076031	-0.325206	1.084170
Cl64	Cl	0.880536	-0.603659	1.084096
Cl65	Cl	0.220869	-0.604150	0.423691
Cl66	Cl	0.576593	-0.325255	0.228607
Cl67	Cl	0.220829	-0.325288	0.228629
Cl68	Cl	0.380373	-0.325260	0.228621
H69	H	0.720492	-0.352598	0.247729
H70	H	1.056785	-0.352690	0.584508
H71	H	1.056830	-0.352573	0.940268
