data_functionalizedCrystal
_audit_creation_method	'MofGen! by Chris Wilmer'
_symmetry_space_group_name_H-M	'P1'
_symmetry_Int_Tables_number	1
_symmetry_cell_setting	triclinic
loop_
_symmetry_equiv_pos_as_xyz
  x,y,z
_cell_length_a	11.792241
_cell_length_b	16.974829
_cell_length_c	15.455313
_cell_angle_alpha	83.671566
_cell_angle_beta	87.311612
_cell_angle_gamma	96.204706
loop_
_atom_site_label
_atom_site_type_symbol
_atom_site_fract_x
_atom_site_fract_y
_atom_site_fract_z
O1	O	-0.134618	1.056752	-0.146300
O2	O	0.365382	1.556752	0.353700
O3	O	-0.154151	0.825851	-0.130092
O4	O	0.345849	1.325851	0.369908
O5	O	0.020871	0.946905	-0.138595
O6	O	0.520871	1.446905	0.361405
O7	O	-0.309640	0.935698	-0.137798
O8	O	0.190360	1.435698	0.362202
O9	O	0.010904	0.939982	0.006154
O10	O	0.510904	1.439982	0.506154
O11	O	-0.164118	0.818928	0.014656
O12	O	0.335882	1.318928	0.514656
O13	O	-0.144586	1.049829	-0.001552
O14	O	0.355414	1.549829	0.498448
Cu15	Cu	-0.155262	0.933747	0.019769
Cu16	Cu	0.344738	1.433747	0.519769
Cu17	Cu	-0.143474	0.941934	-0.151413
Cu18	Cu	0.356526	1.441934	0.348587
O19	O	-0.319608	0.928775	0.006951
O20	O	0.180392	1.428775	0.506951
C21	C	-0.158575	0.792829	-0.055643
C22	C	0.341425	1.292829	0.444357
C23	C	-0.156896	0.704748	-0.049461
C24	C	0.343104	1.204748	0.450539
C25	C	-0.148063	0.208538	-0.006193
C26	C	0.351937	0.708538	0.493807
C27	C	-0.149641	0.291299	-0.012003
C28	C	0.350359	0.791299	0.487997
C29	C	-0.144988	0.336454	-0.093812
C30	C	0.355012	0.836454	0.406188
C31	C	-0.138768	0.298843	-0.169815
C32	C	0.361232	0.798843	0.330185
C33	C	-0.137198	0.216083	-0.164004
C34	C	0.362802	0.716083	0.335996
C35	C	-0.149106	0.584376	-0.119653
C36	C	0.350894	1.084376	0.380347
C37	C	-0.150673	0.667143	-0.125459
C38	C	0.349327	1.167143	0.374541
C39	C	-0.161548	0.659593	0.032354
C40	C	0.338452	1.159593	0.532354
C41	C	-0.159971	0.576832	0.038158
C42	C	0.340029	1.076832	0.538158
C43	C	-0.153757	0.539227	-0.037845
C44	C	0.346243	1.039227	0.462155
N45	N	-0.146597	0.421050	-0.099753
N46	N	0.353403	0.921050	0.400247
N47	N	-0.152156	0.454632	-0.031903
N48	N	0.347844	0.954632	0.468097
C49	C	-0.356904	0.932940	-0.065472
C50	C	0.143096	1.432940	0.434528
C51	C	-0.482886	0.935047	-0.065616
C52	C	0.017114	1.435047	0.434384
C53	C	-0.713538	0.938923	-0.065910
C54	C	-0.213538	1.438923	0.434090
C55	C	-0.585187	0.936769	-0.065746
C56	C	-0.085187	1.436769	0.434254
C57	C	0.058168	0.942740	-0.066174
C58	C	0.558168	1.442740	0.433826
C59	C	0.184151	0.940633	-0.066036
C60	C	0.684151	1.440633	0.433964
C61	C	-0.140161	1.082851	-0.076002
C62	C	0.359839	1.582851	0.423998
C63	C	-0.141840	1.170932	-0.082190
C64	C	0.358160	1.670932	0.417810
N65	N	-0.163552	0.927994	0.140168
N66	N	0.336448	1.427994	0.640168
N67	N	-0.135175	0.947692	-0.271813
N68	N	0.364825	1.447692	0.228187
C69	C	-0.089224	0.979441	0.181949
C70	C	0.410776	1.479441	0.681949
C71	C	-0.095504	0.975098	0.273062
C72	C	0.404496	1.475098	0.773062
C73	C	-0.176118	0.919312	0.322392
C74	C	0.323882	1.419312	0.822392
C75	C	-0.250450	0.867860	0.280606
C76	C	0.249550	1.367860	0.780606
C77	C	-0.244164	0.872200	0.189495
C78	C	0.255836	1.372200	0.689495
C79	C	-0.203221	0.900580	0.595289
C80	C	0.296779	1.400580	1.095289
C81	C	-0.209504	0.896246	0.686406
C82	C	0.290496	1.396246	1.186406
C83	C	-0.054555	1.003483	0.678857
C84	C	0.445445	1.503483	1.178857
C85	C	-0.048281	1.007821	0.587744
C86	C	0.451719	1.507821	1.087744
C87	C	-0.122608	0.956367	0.545965
C88	C	0.377392	1.456367	1.045965
N89	N	-0.182542	0.914873	0.415524
N90	N	0.317458	1.414873	0.915524
N91	N	-0.116179	0.960802	0.452835
N92	N	0.383821	1.460802	0.952835
H93	H	-0.144043	0.553769	-0.181541
H94	H	0.355957	1.053769	0.318459
H95	H	-0.163735	0.540074	0.104776
H96	H	0.336265	1.040074	0.604776
N97	N	-0.156341	0.331850	0.069973
N98	N	0.343659	0.831850	0.569973
H99	H	-0.086885	0.372146	0.070648
H100	H	0.413115	0.872146	0.570648
H101	H	-0.227630	0.359845	0.071472
H102	H	0.272370	0.859845	0.571472
N103	N	-0.296457	0.836066	0.739604
N104	N	0.203543	1.336066	1.239604
H105	H	-0.255887	0.798960	0.779900
H106	H	0.244113	1.298960	1.279900
H107	H	-0.349134	0.864853	0.775195
H108	H	0.150866	1.364853	1.275195
H109	H	-0.166609	0.690220	0.094231
H110	H	0.333391	1.190220	0.594231
N111	N	-0.283379	0.845081	0.550235
N112	N	0.216621	1.345081	1.050235
H113	H	-0.335400	0.809085	0.595313
H114	H	0.164600	1.309085	1.095313
H115	H	-0.330782	0.877459	0.510270
H116	H	0.169218	1.377459	1.010270
H117	H	-0.146893	0.703906	-0.192081
H118	H	0.353107	1.203906	0.307919
N119	N	-0.133755	0.347541	-0.258054
N120	N	0.366245	0.847541	0.241946
H121	H	-0.135688	0.405677	-0.250205
H122	H	0.364312	0.905677	0.249795
H123	H	-0.060751	0.340845	-0.291922
H124	H	0.439249	0.840845	0.208078
N125	N	-0.130492	0.175518	-0.245972
N126	N	0.369508	0.675518	0.254028
H127	H	-0.127780	0.216680	-0.298680
H128	H	0.372220	0.716680	0.201320
H129	H	-0.059252	0.147467	-0.247429
H130	H	0.440748	0.647467	0.252571
H131	H	-0.304688	0.830306	0.155478
H132	H	0.195312	1.330306	0.655478
H133	H	-0.023584	1.024871	0.141790
H134	H	0.476416	1.524871	0.641790
N135	N	-0.015374	1.030613	0.318125
N136	N	0.484626	1.530613	0.818125
H137	H	0.036630	1.066624	0.273048
H138	H	0.536630	1.566624	0.773048
H139	H	-0.061286	1.064054	0.353426
H140	H	0.438714	1.564054	0.853426
N141	N	0.038668	1.067993	0.534544
N142	N	0.538668	1.567993	1.034544
H143	H	0.024807	1.123595	0.546436
H144	H	0.524807	1.623595	1.046436
H145	H	0.118038	1.057690	0.551097
H146	H	0.618038	1.557690	1.051097
N147	N	-0.153071	0.159840	0.082046
N148	N	0.346929	0.659840	0.582046
H149	H	-0.156463	0.196293	0.129300
H150	H	0.343537	0.696293	0.629300
H151	H	-0.223429	0.119578	0.088562
H152	H	0.276571	0.619578	0.588562
N153	N	0.025609	1.058977	0.723917
N154	N	0.525609	1.558977	1.223917
H155	H	0.009399	1.047765	0.789121
H156	H	0.509399	1.547765	1.289121
H157	H	0.107171	1.050227	0.708665
H158	H	0.607171	1.550227	1.208665
H159	H	-0.316084	0.822434	0.320776
H160	H	0.183916	1.322434	0.820776
