data_functionalizedCrystal
_audit_creation_method	'MofGen! by Chris Wilmer'
_symmetry_space_group_name_H-M	'P1'
_symmetry_Int_Tables_number	1
_symmetry_cell_setting	triclinic
loop_
_symmetry_equiv_pos_as_xyz
  x,y,z
_cell_length_a	11.026607
_cell_length_b	15.944551
_cell_length_c	9.482900
_cell_angle_alpha	99.334197
_cell_angle_beta	78.636152
_cell_angle_gamma	96.042377
loop_
_atom_site_label
_atom_site_type_symbol
_atom_site_fract_x
_atom_site_fract_y
_atom_site_fract_z
O1	O	1.629108	0.341447	-0.120915
O2	O	1.275798	0.301394	-0.120914
O3	O	1.462099	0.200605	-0.120901
O4	O	1.442807	0.442235	-0.120927
O5	O	1.424257	0.221183	0.120889
O6	O	1.237956	0.321972	0.120876
O7	O	1.591266	0.362024	0.120875
Cu8	Cu	1.411156	0.343877	0.142953
Cu9	Cu	1.455908	0.319541	-0.142992
O10	O	1.404965	0.462813	0.120862
C11	C	1.211666	0.304294	-0.000019
C12	C	1.076950	0.282267	-0.000019
C13	C	1.003151	0.343086	-0.000026
C14	C	0.863914	0.320322	-0.000026
C15	C	1.442377	0.179479	-0.000006
C16	C	1.439975	0.085870	-0.000005
C17	C	1.318759	-0.147313	-0.000025
C18	C	1.356391	-0.189675	0.119192
C19	C	1.435632	-0.085514	-0.000016
C20	C	1.393728	-0.209942	-0.119194
C21	C	1.431430	-0.251064	-0.000034
C22	C	1.473281	-0.126634	0.119299
C23	C	1.510618	-0.146907	-0.119194
C24	C	1.548331	-0.189236	0.000052
C25	C	1.438050	0.009855	-0.000005
C26	C	1.429020	-0.346429	-0.000034
C27	C	1.655399	0.359124	-0.000023
C28	C	1.790116	0.381150	-0.000033
C29	C	1.424688	0.483939	-0.000036
C30	C	1.427091	0.577547	-0.000046
N31	N	1.379688	0.360994	0.344071
N32	N	1.487386	0.302419	-0.344110
C33	C	1.446618	0.324584	0.416275
C34	C	1.420446	0.338834	0.583690
H35	H	0.824028	0.251392	-0.000055
N36	N	0.842959	0.472449	-0.000054
H37	H	0.828697	0.493743	-0.089693
H38	H	0.800622	0.508944	0.089629
H39	H	1.343758	0.380554	0.645809
H40	H	1.303006	0.402711	0.406195
H41	H	1.523292	0.282860	0.354152
N42	N	1.055982	0.434386	-0.000026
H43	H	1.147959	0.437706	-0.000025
H44	H	1.041631	0.455629	-0.089665
N45	N	1.024115	0.190970	0.000009
H46	H	0.932137	0.187649	0.000012
H47	H	1.066519	0.154466	-0.089620
H48	H	1.221729	-0.128660	0.000094
N49	N	1.596939	-0.121714	-0.252706
H50	H	1.549107	-0.094404	-0.311391
H51	H	1.665616	-0.079840	-0.222225
H52	H	1.564064	0.260692	0.593771
H53	H	1.291183	-0.208678	0.219980
H54	H	1.506881	-0.090590	0.220198
N55	N	1.349122	-0.257822	-0.252691
H56	H	1.262396	-0.242754	-0.252577
H57	H	1.406562	-0.241612	-0.342663
N58	N	1.676921	-0.213724	0.000144
H59	H	1.704482	-0.255449	-0.089900
H60	H	1.736453	-0.161056	0.001095
