data_functionalizedCrystal
_audit_creation_method	'MofGen! by Chris Wilmer'
_symmetry_space_group_name_H-M	'P1'
_symmetry_Int_Tables_number	1
_symmetry_cell_setting	triclinic
loop_
_symmetry_equiv_pos_as_xyz
  x,y,z
_cell_length_a	17.637651
_cell_length_b	19.805407
_cell_length_c	19.805399
_cell_angle_alpha	90.021064
_cell_angle_beta	78.757390
_cell_angle_gamma	78.782727
loop_
_atom_site_label
_atom_site_type_symbol
_atom_site_fract_x
_atom_site_fract_y
_atom_site_fract_z
Zn1	Zn	-0.314799	-0.980300	-0.328199
Zn2	Zn	-0.447014	-0.957352	-0.192102
Zn3	Zn	-0.314818	-0.867111	-0.215018
Zn4	Zn	-0.446969	-0.844223	-0.305253
O5	O	-0.380900	-0.912246	-0.260143
O6	O	-0.332348	-1.071971	-0.310158
O7	O	-0.429504	-0.945356	-0.100420
O8	O	-0.204178	-0.901309	-0.249225
O9	O	-0.429486	-1.055111	-0.210168
O10	O	-0.204163	-0.984468	-0.332379
O11	O	-0.332381	-0.879057	-0.117257
O12	O	-0.332338	-0.769360	-0.226975
O13	O	-0.429410	-0.862299	-0.403018
O14	O	-0.429429	-0.752544	-0.293270
O15	O	-0.332305	-0.962274	-0.419877
O16	O	-0.557646	-0.923162	-0.187918
O17	O	-0.557613	-0.840047	-0.271050
C18	C	-0.380881	-0.736394	-0.260120
C19	C	-0.380892	-0.661160	-0.260123
C20	C	-0.431523	-0.617064	-0.294559
C21	C	-0.431523	-0.546376	-0.294566
C22	C	-0.380896	-0.519784	-0.260133
C23	C	-0.330259	-0.563885	-0.225697
C24	C	-0.330256	-0.634573	-0.225693
C25	C	-0.330271	-0.278810	-0.225709
C26	C	-0.330280	-0.208116	-0.225714
C27	C	-0.431538	-0.190613	-0.294582
C28	C	-0.431534	-0.261300	-0.294579
C29	C	-0.380896	-0.305396	-0.260146
C30	C	-0.380895	-0.382045	-0.260139
C31	C	-0.380899	-0.443136	-0.260136
C32	C	-0.586317	-0.876649	-0.224522
C33	C	-0.674195	-0.861482	-0.209305
C34	C	-0.962884	-1.027907	-0.375953
C35	C	-1.045459	-1.013634	-0.361643
C36	C	-1.045581	-0.927097	-0.274971
C37	C	-0.963005	-0.941366	-0.289271
C38	C	-0.921662	-0.991770	-0.339763
C39	C	-0.921783	-0.905229	-0.253082
C40	C	-0.839214	-0.919494	-0.267383
C41	C	-0.797866	-0.969895	-0.317875
C42	C	-0.839093	-1.006035	-0.354065
C43	C	-0.963127	-0.854821	-0.202593
C44	C	-0.921905	-0.818685	-0.166404
C45	C	-0.839334	-0.832953	-0.180702
C46	C	-0.797986	-0.883354	-0.231193
C47	C	-0.798107	-0.796813	-0.144511
C48	C	-0.715537	-0.811078	-0.158813
C49	C	-0.715417	-0.897619	-0.245495
C50	C	-0.174681	-0.948001	-0.295918
C51	C	-0.086803	-0.963238	-0.311163
C52	C	-0.380850	-0.912293	-0.436694
C53	C	-0.380829	-0.912313	-0.511930
C54	C	-0.380914	-0.088787	-0.260161
C55	C	-0.380907	-0.164020	-0.260154
C56	C	-0.330264	-0.964371	-0.556054
C57	C	-0.330241	-0.964382	-0.626747
C58	C	-0.380788	-0.912337	-0.653313
C59	C	-0.431355	-0.860273	-0.609184
C60	C	-0.431374	-0.860260	-0.538493
C61	C	-0.431281	-0.860324	-0.894270
C62	C	-0.431261	-0.860342	-0.964965
C63	C	-0.330149	-0.964446	-0.982523
C64	C	-0.330167	-0.964433	-0.911833
C65	C	-0.380731	-0.912368	-0.867710
C66	C	-0.380755	-0.912356	-0.791058
C67	C	-0.380769	-0.912351	-0.729963
C68	C	-0.380893	-0.912249	-0.084288
C69	C	-0.380691	-0.912399	-0.009092
H70	H	-0.472767	-0.154702	-0.322623
C71	C	-0.274657	-1.021626	-0.526839
N72	N	-0.232769	-1.064750	-0.504836
C73	C	-0.274560	-0.683078	-0.187809
N74	N	-0.232607	-0.719612	-0.159275
C75	C	-0.486864	-0.803082	-0.994187
N76	N	-0.528741	-0.759955	-1.016197
H77	H	-0.831780	-0.755769	-0.103406
C78	C	-0.967391	-0.763284	-0.110821
N79	N	-1.001650	-0.721572	-0.068939
H80	H	-0.289068	-1.006775	-0.662670
H81	H	-0.681974	-0.781651	-0.129344
C82	C	-0.274559	-1.021685	-0.882615
N83	N	-0.232670	-1.064806	-0.860610
H84	H	-0.472465	-0.817937	-0.858351
H85	H	-0.472508	-0.817895	-0.630820
H86	H	-0.730632	-0.981509	-0.329518
C87	C	-0.487218	-0.646308	-0.332438
N88	N	-0.529167	-0.668333	-0.360972
C89	C	-0.487236	-0.497870	-0.332433
N90	N	-0.529206	-0.461335	-0.360951
H91	H	-0.681754	-0.938668	-0.286606
C92	C	-1.053956	-0.839127	-0.186866
N93	N	-1.122369	-0.827307	-0.175021
H94	H	-0.288974	-1.006839	-1.018457
H95	H	-0.289048	-0.186469	-0.197675
C96	C	-0.487001	-0.802993	-0.489956
N97	N	-0.528899	-0.759856	-0.453399
C98	C	-0.487229	-0.290547	-0.332457
N99	N	-0.529178	-0.312575	-0.360989
C100	C	-0.274572	-0.327305	-0.187826
N101	N	-0.232618	-0.363835	-0.159289
H102	H	-0.805431	-1.047085	-0.395176
C103	C	-0.274567	-0.534632	-0.187822
N104	N	-0.232620	-0.512598	-0.159292
C105	C	-0.917403	-1.083354	-0.431498
N106	N	-0.883147	-1.125112	-0.473335
H107	H	-1.079018	-1.043054	-0.391126
H108	H	-1.079253	-0.886056	-0.233862
