data_functionalizedCrystal
_audit_creation_method	'MofGen! by Chris Wilmer'
_symmetry_space_group_name_H-M	'P1'
_symmetry_Int_Tables_number	1
_symmetry_cell_setting	triclinic
loop_
_symmetry_equiv_pos_as_xyz
  x,y,z
_cell_length_a	6.817900
_cell_length_b	11.102289
_cell_length_c	17.982968
_cell_angle_alpha	94.232897
_cell_angle_beta	102.451960
_cell_angle_gamma	108.605707
loop_
_atom_site_label
_atom_site_type_symbol
_atom_site_fract_x
_atom_site_fract_y
_atom_site_fract_z
V1	V	-4.041372	-0.177030	-0.237548
O2	O	-4.001741	0.007282	-0.233027
O3	O	-4.018629	-0.349842	-0.235924
O4	O	-3.987555	-0.174844	-0.341151
O5	O	-4.033030	-0.168927	-0.127070
V6	V	-4.522378	-0.154920	-0.224334
O7	O	-4.308154	-0.225528	-0.266534
O8	O	-4.705794	-0.106422	-0.195348
O9	O	-4.321914	0.017892	-0.225959
O10	O	-4.679407	-0.339232	-0.228856
O11	O	-4.648117	-0.163023	-0.334812
O12	O	-4.352988	-0.157106	-0.120731
C13	C	-3.870047	-0.391953	-0.232176
C14	C	-3.932702	-0.533232	-0.231538
C15	C	-4.145023	-0.606098	-0.235039
C16	C	-4.203886	-0.738847	-0.234446
C17	C	-3.838085	-0.725851	-0.226848
C18	C	-3.779228	-0.593106	-0.227447
C19	C	-4.356214	-0.613601	-0.239423
C20	C	-4.415077	-0.746350	-0.238830
C21	C	-3.830408	-0.168724	-0.366404
C22	C	-3.867860	-0.168081	-0.451100
C23	C	-4.068320	-0.174147	-0.494771
C24	C	-4.103498	-0.173542	-0.574352
C25	C	-3.938217	-0.166879	-0.610260
C26	C	-3.737738	-0.160808	-0.566583
C27	C	-3.702558	-0.161405	-0.487003
C28	C	-3.879608	-0.158402	-0.887520
C29	C	-3.914806	-0.157810	-0.967106
C30	C	-4.280548	-0.170538	-0.974869
C31	C	-4.245368	-0.171135	-0.895289
C32	C	-4.044890	-0.165057	-0.851618
C33	C	-4.006747	-0.165712	-0.765327
C34	C	-3.976361	-0.166234	-0.696550
C35	C	-4.133840	0.059996	-0.229704
C36	C	-4.050423	0.201275	-0.230347
C37	C	-4.173479	-0.163230	-0.095475
C38	C	-4.115265	-0.163867	-0.010778
H39	H	-3.713141	-0.774616	-0.223518
H40	H	-4.451716	-0.594659	-0.294832
H41	H	-4.379964	-0.176566	-0.866057
H42	H	-4.530215	-0.804500	-0.295274
H43	H	-4.372148	-0.560105	-0.185704
H44	H	-4.481755	-0.771058	-0.186786
H45	H	-4.266726	-0.178474	-0.609906
C46	C	-4.501074	-0.177206	-1.022913
N47	N	-4.667170	-0.182229	-1.059099
C48	C	-3.482040	-0.154736	-0.438964
N49	N	-3.315938	-0.149710	-0.402782
H50	H	-3.716394	-0.153498	-0.851976
H51	H	-4.202920	-0.179581	-0.465542
H52	H	-3.780200	-0.152381	-0.996339
H53	H	-3.606347	-0.533785	-0.224605
C54	C	-3.555861	-0.153344	-0.606072
N55	N	-3.418846	-0.147678	-0.635810
