data_functionalizedCrystal
_audit_creation_method	'MofGen! by Chris Wilmer'
_symmetry_space_group_name_H-M	'P1'
_symmetry_Int_Tables_number	1
_symmetry_cell_setting	triclinic
loop_
_symmetry_equiv_pos_as_xyz
  x,y,z
_cell_length_a	17.038272
_cell_length_b	15.500215
_cell_length_c	17.038272
_cell_angle_alpha	87.012587
_cell_angle_beta	88.888444
_cell_angle_gamma	92.981713
loop_
_atom_site_label
_atom_site_type_symbol
_atom_site_fract_x
_atom_site_fract_y
_atom_site_fract_z
O1	O	1.052223	0.071837	-0.174004
O2	O	0.824412	0.071862	-0.171298
O3	O	0.936963	0.071843	-0.058745
O4	O	0.939672	0.071856	-0.286557
O5	O	0.930006	-0.072046	-0.051795
O6	O	0.817455	-0.072027	-0.164348
O7	O	1.045265	-0.072052	-0.167054
Cu8	Cu	0.930725	-0.085177	-0.165067
Cu9	Cu	0.938953	0.084988	-0.173286
O10	O	0.932715	-0.072033	-0.279607
C11	C	0.791641	-0.000079	-0.165360
C12	C	0.704358	-0.000069	-0.158012
N13	N	0.924944	-0.204862	-0.159286
C14	C	0.658749	-0.000066	-0.225476
C15	C	0.576736	-0.000078	-0.218567
C16	C	0.540335	-0.000088	-0.144193
C17	C	0.585950	-0.000094	-0.076724
C18	C	0.667961	-0.000088	-0.083634
C19	C	0.292946	-0.000112	-0.119781
C20	C	0.210929	-0.000116	-0.112876
C21	C	0.201721	-0.000102	-0.254720
C22	C	0.283734	-0.000091	-0.261623
C23	C	0.329342	-0.000101	-0.194154
C24	C	0.456505	-0.000098	-0.137129
C25	C	0.413170	-0.000098	-0.201219
C26	C	0.973555	-0.250138	-0.207927
C27	C	0.969193	-0.340711	-0.203551
C28	C	0.916215	-0.386007	-0.150536
C29	C	0.867602	-0.340725	-0.101889
C30	C	0.871969	-0.250154	-0.106262
C31	C	0.900493	-0.659474	-0.134787
C32	C	0.896129	-0.750052	-0.130419
C33	C	0.997721	-0.750032	-0.232080
C34	C	1.002079	-0.659458	-0.236452
C35	C	0.953469	-0.614184	-0.187802
C36	C	0.911753	-0.478587	-0.146064
C37	C	0.957936	-0.521606	-0.192271
C38	C	1.078037	-0.000109	-0.172992
C39	C	1.165320	-0.000113	-0.180340
C40	C	0.931022	-0.000101	-0.025977
C41	C	0.923674	-0.000100	0.061306
N42	N	0.944740	0.204673	-0.179061
C43	C	0.938656	-0.000087	-0.312375
C44	C	0.946004	-0.000082	-0.399659
C45	C	0.991137	-0.000109	0.106916
C46	C	0.984228	-0.000100	0.188927
C47	C	0.909856	-0.000088	0.225328
C48	C	0.842388	-0.000077	0.179712
C49	C	0.849297	-0.000080	0.097702
C50	C	0.885446	-0.000074	0.472715
C51	C	0.878541	-0.000074	0.554732
C52	C	1.020383	-0.000094	0.563941
C53	C	1.027286	-0.000102	0.481929
C54	C	0.959818	-0.000087	0.436320
C55	C	0.902792	-0.000082	0.309157
C56	C	0.966882	-0.000087	0.352493
H57	H	0.539605	-0.000075	-0.273503
H58	H	0.164579	-0.000096	-0.309649
O59	O	1.024975	-0.206237	-0.259532
C60	C	1.065736	-0.178477	-0.395107
C61	C	1.007460	-0.228259	-0.336751
H62	H	1.051586	-0.196250	-0.457553
H63	H	1.128211	-0.196300	-0.381128
H64	H	1.060521	-0.105969	-0.389840
H65	H	1.012605	-0.300778	-0.341986
H66	H	0.945010	-0.210365	-0.350747
O67	O	0.819827	-0.000108	0.428537
C68	C	0.678413	-0.000053	0.428063
C69	C	0.752663	-0.000029	0.478193
H70	H	0.624093	0.000030	0.468188
H71	H	0.675135	-0.060286	0.392370
H72	H	0.681050	0.060149	0.386506
H73	H	0.750077	-0.060190	0.519794
H74	H	0.755915	0.060243	0.513833
O75	O	0.783712	0.000042	0.053471
C76	C	0.668230	0.074635	0.016861
C77	C	0.742469	0.074587	0.067007
H78	H	0.634873	0.134907	0.027774
H79	H	0.628930	0.014464	0.033633
H80	H	0.685961	0.074592	-0.047999
H81	H	0.724810	0.074661	0.131880
H82	H	0.781750	0.134752	0.050168
H83	H	0.705095	-0.000090	-0.028697
H84	H	0.832384	-0.213291	-0.066653
H85	H	1.045221	-0.622585	-0.279620
H86	H	0.817974	-0.000078	0.584367
O87	O	1.085980	0.000015	0.608157
C88	C	1.208676	0.074581	0.637548
C89	C	1.134431	0.074549	0.587410
H90	H	1.247862	0.134844	0.620804
H91	H	1.242156	0.014401	0.626594
H92	H	1.190945	0.074544	0.702412
H93	H	1.152093	0.074617	0.522529
H94	H	1.100970	0.134723	0.598430
O95	O	1.016496	-0.384726	-0.250690
C96	C	1.117883	-0.487002	-0.257408
C97	C	1.064365	-0.437196	-0.203932
H98	H	1.156588	-0.529450	-0.219626
H99	H	1.156548	-0.439105	-0.296035
H100	H	1.080087	-0.529369	-0.296161
H101	H	1.102101	-0.394828	-0.165131
H102	H	1.025696	-0.485140	-0.165357
O103	O	0.853190	-0.615637	-0.087502
C104	C	0.751992	-0.625223	0.013821
C105	C	0.805509	-0.674981	-0.039697
H106	H	0.713440	-0.673181	0.052497
H107	H	0.713175	-0.582842	-0.023899
H108	H	0.789790	-0.582799	0.052525
H109	H	0.767772	-0.717451	-0.078411
H110	H	0.844330	-0.717307	-0.001930
O111	O	0.770190	0.000049	0.215154
C112	C	0.683661	0.074630	0.298758
C113	C	0.765460	0.074588	0.258682
H114	H	0.679804	0.134897	0.333946
H115	H	0.673954	0.014454	0.339884
H116	H	0.636641	0.074595	0.252059
H117	H	0.812531	0.074653	0.305326
H118	H	0.775099	0.134758	0.217540
H119	H	1.027437	-0.000077	0.322851
O120	O	1.099497	0.000008	0.446481
C121	C	1.193245	0.074568	0.355673
C122	C	1.111439	0.074544	0.395745
H123	H	1.202932	0.134833	0.314657
H124	H	1.197134	0.014390	0.320367
H125	H	1.240257	0.074522	0.402379
H126	H	1.064379	0.074620	0.349091
H127	H	1.107616	0.134717	0.431068
H128	H	0.688381	-0.000058	-0.286039
H129	H	1.039164	-0.000108	0.226060
O130	O	0.448483	-0.000240	-0.273473
C131	C	0.462090	-0.074732	-0.393245
C132	C	0.422046	-0.074695	-0.311429
H133	H	0.440718	-0.134914	-0.423963
H134	H	0.528543	-0.074784	-0.386631
H135	H	0.446614	-0.014482	-0.429733
H136	H	0.437459	-0.134935	-0.274897
H137	H	0.355603	-0.074598	-0.318101
O138	O	1.009285	-0.477572	-0.243854
C139	C	1.025783	-0.375255	-0.355100
C140	C	0.967546	-0.425094	-0.296742
H141	H	0.992062	-0.332801	-0.397865
H142	H	1.059767	-0.423129	-0.389181
H143	H	1.068648	-0.332890	-0.321416
H144	H	0.924633	-0.467460	-0.330365
H145	H	0.933620	-0.377173	-0.262661
H146	H	0.842237	-0.000075	0.338803
O147	O	0.550562	0.000050	-0.004502
C148	C	0.466872	0.074558	0.082001
C149	C	0.506916	0.074510	0.000187
H150	H	0.431562	0.134744	0.085813
H151	H	0.513529	0.074611	0.129065
H152	H	0.425836	0.014312	0.091677
H153	H	0.547948	0.134746	-0.009565
H154	H	0.460218	0.074412	-0.046835
O155	O	1.063445	-0.000079	0.071684
C156	C	1.203400	-0.000138	0.089486
C157	C	1.121559	-0.000157	0.129483
H158	H	1.250406	-0.000220	0.136199
H159	H	1.213144	0.060092	0.048434
H160	H	1.207233	-0.060342	0.054208
H161	H	1.117668	0.060006	0.164802
H162	H	1.111851	-0.060427	0.170490
H163	H	0.868619	-0.515477	-0.102899
H164	H	0.330070	-0.000122	-0.064842
O165	O	0.421113	0.000053	-0.064909
C166	C	0.337406	0.074561	0.021578
C167	C	0.377461	0.074510	-0.060231
H168	H	0.302090	0.134743	0.025381
H169	H	0.384055	0.074620	0.068648
H170	H	0.296372	0.014312	0.031251
H171	H	0.418490	0.134749	-0.069980
H172	H	0.330769	0.074406	-0.107259
H173	H	0.313367	-0.000073	-0.322187
H174	H	0.181294	-0.000123	-0.052309
H175	H	1.037297	-0.786903	-0.271688
H176	H	0.852984	-0.786929	-0.087248
H177	H	0.824471	-0.377612	-0.058720
