data_functionalizedCrystal
_audit_creation_method	'MofGen! by Chris Wilmer'
_symmetry_space_group_name_H-M	'P1'
_symmetry_Int_Tables_number	1
_symmetry_cell_setting	triclinic
loop_
_symmetry_equiv_pos_as_xyz
  x,y,z
_cell_length_a	14.519710
_cell_length_b	12.837942
_cell_length_c	11.892083
_cell_angle_alpha	94.299957
_cell_angle_beta	93.908773
_cell_angle_gamma	90.745458
loop_
_atom_site_label
_atom_site_type_symbol
_atom_site_fract_x
_atom_site_fract_y
_atom_site_fract_z
O1	O	1.240930	-0.129297	0.093978
O2	O	1.740930	0.370703	0.593978
O3	O	0.973836	-0.145301	0.093986
O4	O	1.473836	0.354699	0.593986
O5	O	1.101460	0.013614	0.093975
O6	O	1.601460	0.513614	0.593975
O7	O	1.113306	-0.288212	0.093989
O8	O	1.613306	0.211788	0.593989
O9	O	1.090808	0.000392	-0.094032
O10	O	1.590808	0.500392	0.405968
O11	O	0.963184	-0.158523	-0.094021
O12	O	1.463184	0.341477	0.405979
O13	O	1.230278	-0.142519	-0.094029
O14	O	1.730278	0.357481	0.405971
Zn15	Zn	1.095040	-0.152620	-0.123875
Zn16	Zn	1.595040	0.347380	0.376125
Zn17	Zn	1.109074	-0.135200	0.123832
Zn18	Zn	1.609074	0.364800	0.623832
O19	O	1.102654	-0.301434	-0.094018
O20	O	1.602654	0.198566	0.405982
C21	C	0.934086	-0.151166	-0.000017
C22	C	1.434086	0.348834	0.499983
C23	C	0.831512	-0.148931	-0.000014
C24	C	1.331512	0.351069	0.499986
C25	C	1.270028	-0.136654	-0.000024
C26	C	1.770028	0.363346	0.499976
C27	C	1.372603	-0.138888	-0.000019
C28	C	1.872603	0.361112	0.499981
C29	C	1.092133	0.045631	-0.000028
C30	C	1.592133	0.545631	0.499972
C31	C	1.080199	0.160731	-0.000026
C32	C	1.580199	0.660731	0.499974
C33	C	1.748210	-0.147117	-0.000018
C34	C	2.248210	0.352883	0.499982
C35	C	1.643704	-0.144832	-0.000018
C36	C	2.143704	0.355168	0.499982
C37	C	1.560410	-0.143003	-0.000018
C38	C	2.060410	0.356997	0.499982
C39	C	1.455898	-0.140718	-0.000020
C40	C	1.955898	0.359282	0.499980
C41	C	1.111982	-0.333451	-0.000013
C42	C	1.611982	0.166549	0.499987
C43	C	1.123916	-0.448550	-0.000008
C44	C	1.623916	0.051450	0.499992
N45	N	1.085468	-0.164509	-0.292929
N46	N	1.585468	0.335491	0.207071
C47	C	1.223670	0.401424	-0.000006
C48	C	1.723670	0.901424	0.499994
C49	C	1.212462	0.509571	-0.000004
C50	C	1.712462	1.009571	0.499996
C51	C	1.046574	0.485174	-0.000011
C52	C	1.546574	0.985174	0.499989
C53	C	1.057783	0.377027	-0.000013
C54	C	1.557783	0.877027	0.499987
C55	C	1.146334	0.335156	-0.000012
C56	C	1.646334	0.835156	0.499988
C57	C	1.157541	0.227007	-0.000023
C58	C	1.657541	0.727007	0.499977
C59	C	0.991654	0.202612	-0.000022
C60	C	1.491654	0.702612	0.499978
C61	C	0.980446	0.310759	-0.000019
C62	C	1.480446	0.810759	0.499981
C63	C	1.018930	-0.247341	-0.470461
C64	C	1.518930	0.252659	0.029539
C65	C	1.025602	-0.239015	-0.352120
C66	C	1.525602	0.260985	0.147880
C67	C	1.138664	-0.098321	-0.352088
C68	C	1.638664	0.401679	0.147912
C69	C	1.131992	-0.106647	-0.470429
C70	C	1.631992	0.393353	0.029571
C71	C	1.072124	-0.181161	-0.529612
C72	C	1.572124	0.318839	-0.029612
C73	C	1.065457	-0.189491	-0.647956
C74	C	1.565457	0.310509	-0.147956
C75	C	1.178513	-0.048793	-0.647921
C76	C	1.678513	0.451207	-0.147921
C77	C	1.185185	-0.040467	-0.529580
C78	C	1.685185	0.459533	-0.029580
N79	N	1.118653	-0.123303	0.292885
N80	N	1.618653	0.376697	0.792885
H81	H	1.229644	0.192918	-0.000026
H82	H	1.729644	0.692918	0.499974
Cl83	Cl	1.334986	0.348781	-0.000033
Cl84	Cl	1.834986	0.848781	0.499967
Cl85	Cl	1.309690	0.592877	0.000007
Cl86	Cl	1.809690	1.092877	0.500007
H87	H	0.974480	0.519285	0.000001
H88	H	1.474480	1.019285	0.500001
H89	H	0.908350	0.344865	-0.000016
H90	H	1.408350	0.844865	0.499984
Cl91	Cl	0.894424	0.119296	-0.000044
Cl92	Cl	1.394424	0.619296	0.499956
H93	H	1.016712	-0.250166	-0.696141
H94	H	1.516712	0.249834	-0.196141
H95	H	0.970190	-0.308020	-0.518649
H96	H	1.470190	0.191980	-0.018649
Cl97	Cl	0.958725	-0.322215	-0.277762
Cl98	Cl	1.458725	0.177785	0.222238
Cl99	Cl	1.245394	0.034403	-0.722293
Cl100	Cl	1.745394	0.534403	-0.222293
H101	H	1.187400	-0.037647	-0.303886
H102	H	1.687400	0.462353	0.196114
Cl103	Cl	1.260442	0.053205	-0.455171
Cl104	Cl	1.760442	0.553205	0.044829
