data_functionalizedCrystal
_audit_creation_method	'MofGen! by Chris Wilmer'
_symmetry_space_group_name_H-M	'P1'
_symmetry_Int_Tables_number	1
_symmetry_cell_setting	triclinic
loop_
_symmetry_equiv_pos_as_xyz
  x,y,z
_cell_length_a	16.120530
_cell_length_b	29.839125
_cell_length_c	16.120484
_cell_angle_alpha	87.117439
_cell_angle_beta	89.832673
_cell_angle_gamma	87.091446
loop_
_atom_site_label
_atom_site_type_symbol
_atom_site_fract_x
_atom_site_fract_y
_atom_site_fract_z
Zn1	Zn	1.254394	-0.299056	0.395737
Zn2	Zn	1.247256	-0.227530	0.534766
Zn3	Zn	1.115354	-0.219950	0.388670
Zn4	Zn	1.108246	-0.298644	0.527690
O5	O	1.181313	-0.261295	0.461716
O6	O	1.369812	-0.292912	0.420099
O7	O	1.229747	-0.163657	0.515389
O8	O	1.139760	-0.227444	0.273243
O9	O	1.364568	-0.240362	0.522242
O10	O	1.241912	-0.285562	0.278435
O11	O	1.132839	-0.158088	0.408053
O12	O	0.998047	-0.227045	0.401192
O13	O	1.127645	-0.361566	0.510183
O14	O	0.992824	-0.284861	0.503330
O15	O	1.235019	-0.361868	0.413238
O16	O	1.222854	-0.239964	0.650192
O17	O	1.120724	-0.292211	0.644993
C18	C	0.965264	-0.255086	0.450727
C19	C	0.872836	-0.252441	0.446046
C20	C	1.181335	-0.378474	0.461710
C21	C	1.181345	-0.428409	0.461707
C22	C	0.703610	-0.247616	0.437480
C23	C	0.659853	-0.275009	0.486013
C24	C	0.565690	-0.272324	0.481247
C25	C	0.797782	-0.250300	0.442245
C26	C	1.237318	-0.738210	0.411091
C27	C	1.237363	-0.925883	0.411022
O28	O	1.284887	-0.950283	0.368062
N29	N	1.181467	-0.949191	0.461490
C30	C	1.125552	-0.925579	0.511974
O31	O	1.078004	-0.949710	0.554892
C32	C	1.125504	-0.737907	0.512038
C33	C	1.181409	-0.714601	0.461573
C34	C	1.293218	-0.714905	0.360630
C35	C	1.293209	-0.667989	0.360651
C36	C	1.237300	-0.644380	0.411133
C37	C	1.181400	-0.667686	0.461594
C38	C	1.069586	-0.714295	0.562517
C39	C	1.069577	-0.667374	0.562527
C40	C	1.125482	-0.644068	0.512062
C41	C	1.125483	-0.597161	0.512098
N42	N	1.181379	-0.573853	0.461630
C43	C	1.237288	-0.597462	0.411148
C44	C	1.125582	-1.024109	0.511938
C45	C	1.125595	-1.071027	0.511924
C46	C	1.237405	-1.071328	0.410970
C47	C	1.237396	-1.024409	0.410990
C48	C	1.181478	-1.000801	0.461471
C49	C	1.237266	-0.498937	0.411197
C50	C	1.237254	-0.452018	0.411225
C51	C	1.125442	-0.451721	0.512174
C52	C	1.125455	-0.498636	0.512150
C53	C	1.181371	-0.522243	0.461654
O54	O	1.077977	-0.572733	0.555028
O55	O	1.284816	-0.573322	0.368223
C56	C	1.237327	-0.785126	0.411070
C57	C	1.181427	-0.808431	0.461531
C58	C	1.125518	-0.784822	0.512013
C59	C	1.181439	-0.855349	0.461516
C60	C	1.237348	-0.878958	0.411034
C61	C	1.293244	-0.855650	0.360567
C62	C	1.293236	-0.808735	0.360588
C63	C	1.069622	-0.808130	0.562481
C64	C	1.069636	-0.855046	0.562456
C65	C	1.125544	-0.878655	0.511974
C66	C	1.398205	-0.267528	0.472748
C67	C	1.490632	-0.270185	0.477450
C68	C	1.170266	-0.266876	0.677766
C69	C	1.165616	-0.269281	0.770197
C70	C	1.181341	-0.144572	0.461665
C71	C	1.181504	-0.094636	0.461441
C72	C	1.192425	-0.255703	0.244824
C73	C	1.197161	-0.253320	0.152397
C74	C	1.157131	-0.273680	0.939430
C75	C	1.205643	-0.248922	0.983169
C76	C	1.200922	-0.251370	1.077336
C77	C	1.161851	-0.271233	0.845254
H78	H	0.693109	-0.300478	0.531141
H79	H	1.250720	-0.225887	0.949894
H80	H	1.282917	-1.005437	0.369896
H81	H	0.670355	-0.222149	0.392355
Cl82	Cl	1.307542	-0.422722	0.347780
Cl83	Cl	1.055323	-1.100320	0.575381
H84	H	1.282794	-0.518152	0.370075
H85	H	1.338732	-0.649018	0.319556
H86	H	1.338746	-0.734122	0.319517
H87	H	1.024112	-0.874017	0.603559
Cl88	Cl	1.087537	-0.309241	0.990801
H89	H	1.282929	-1.090559	0.369866
Cl90	Cl	1.055280	-0.994436	0.575408
Cl91	Cl	0.999302	-0.743582	0.625966
H92	H	1.024033	-0.648153	0.603626
H93	H	1.079940	-0.517613	0.553250
H94	H	1.079924	-0.432490	0.553278
H95	H	1.338770	-0.874881	0.319465
Cl96	Cl	1.363519	-0.779443	0.297141
Cl97	Cl	0.999328	-0.778457	0.625951
