data_functionalizedCrystal
_audit_creation_method	'MofGen! by Chris Wilmer'
_symmetry_space_group_name_H-M	'P1'
_symmetry_Int_Tables_number	1
_symmetry_cell_setting	triclinic
loop_
_symmetry_equiv_pos_as_xyz
  x,y,z
_cell_length_a	6.817900
_cell_length_b	11.168121
_cell_length_c	11.102193
_cell_angle_alpha	91.985837
_cell_angle_beta	108.604059
_cell_angle_gamma	108.508496
loop_
_atom_site_label
_atom_site_type_symbol
_atom_site_fract_x
_atom_site_fract_y
_atom_site_fract_z
V1	V	-4.111009	-0.174714	-0.396268
O2	O	-4.070572	0.008386	-0.388714
O3	O	-4.087289	-0.346419	-0.393568
O4	O	-4.087791	-0.172030	-0.569089
O5	O	-4.070066	-0.167209	-0.211978
V6	V	-4.588176	-0.152812	-0.374224
O7	O	-4.386209	-0.222756	-0.444623
O8	O	-4.763172	-0.104770	-0.325869
O9	O	-4.388689	0.018893	-0.376924
O10	O	-4.746009	-0.335912	-0.381778
O11	O	-4.746515	-0.160317	-0.558515
O12	O	-4.388187	-0.155496	-0.201403
C13	C	-3.937478	-0.388277	-0.387320
C14	C	-3.999539	-0.528648	-0.386264
C15	C	-4.202064	-0.597341	-0.391822
C16	C	-4.266211	-0.742422	-0.390731
C17	C	-3.938117	-0.165825	-0.611213
C18	C	-4.000581	-0.164767	-0.752495
C19	C	-4.120240	-0.396044	-0.788836
C20	C	-4.209406	-0.511180	-0.873379
C21	C	-4.268095	-0.510179	-1.006125
C22	C	-4.237619	-0.394029	-1.054329
C23	C	-4.148453	-0.278893	-0.969786
C24	C	-4.089763	-0.279907	-0.837039
C25	C	-4.028810	-0.047620	-0.933446
C26	C	-3.970105	-0.048618	-0.800699
C27	C	-3.998334	0.068529	-0.981650
C28	C	-3.909152	0.183668	-0.897106
C29	C	-3.850459	0.182663	-0.764353
C30	C	-3.880939	0.066518	-0.716156
C31	C	-4.201842	0.060744	-0.383169
C32	C	-4.119021	0.201114	-0.384233
C33	C	-4.201202	-0.161705	-0.159273
C34	C	-4.117976	-0.162756	-0.017989
H35	H	-4.234219	-0.605747	-0.834117
H36	H	-3.873644	-0.577247	-0.380706
H37	H	-4.327967	-0.548744	-0.397394
H38	H	-3.884361	0.278227	-0.936367
H39	H	-4.340704	-0.603933	-1.074961
H40	H	-3.945518	-0.739842	-0.379471
H41	H	-3.777866	0.276421	-0.695524
C42	C	-4.302197	-0.392930	-1.200351
C43	C	-4.192115	-0.449967	-1.277198
C44	C	-4.256694	-0.448866	-1.423221
C45	C	-4.431356	-0.390728	-1.492397
C46	C	-4.541448	-0.333686	-1.415550
C47	C	-4.476869	-0.334787	-1.269527
H48	H	-4.062811	-0.493008	-1.225990
H49	H	-4.175195	-0.491092	-1.480108
H50	H	-4.479161	-0.389913	-1.600492
H51	H	-4.670753	-0.290645	-1.466758
H52	H	-4.558368	-0.292561	-1.212640
C53	C	-3.816382	0.065410	-0.570136
C54	C	-3.926491	0.122436	-0.493299
C55	C	-3.861942	0.121323	-0.347278
C56	C	-3.687285	0.063185	-0.278095
C57	C	-3.577165	0.006156	-0.354933
C58	C	-3.641713	0.007268	-0.500954
H59	H	-4.055792	0.165477	-0.544512
H60	H	-3.943461	0.163540	-0.290398
H61	H	-3.639502	0.062361	-0.170002
H62	H	-3.447863	-0.036885	-0.303720
H63	H	-3.560195	-0.034949	-0.557834
H64	H	-4.439699	-0.801470	-0.395474
H65	H	-4.072427	-0.396870	-0.680748
H66	H	-4.046142	0.069336	-1.089741
