data_functionalizedCrystal
_audit_creation_method	'MofGen! by Chris Wilmer'
_symmetry_space_group_name_H-M	'P1'
_symmetry_Int_Tables_number	1
_symmetry_cell_setting	triclinic
loop_
_symmetry_equiv_pos_as_xyz
  x,y,z
_cell_length_a	6.817900
_cell_length_b	15.301126
_cell_length_c	16.418042
_cell_angle_alpha	95.179687
_cell_angle_beta	103.389568
_cell_angle_gamma	104.177575
loop_
_atom_site_label
_atom_site_type_symbol
_atom_site_fract_x
_atom_site_fract_y
_atom_site_fract_z
V1	V	-4.029051	-0.125492	-0.261410
O2	O	-4.012948	0.005276	-0.256172
O3	O	-3.983989	-0.248105	-0.259874
O4	O	-3.980081	-0.123893	-0.375305
O5	O	-4.016883	-0.119796	-0.139942
V6	V	-4.512320	-0.109812	-0.246851
O7	O	-4.290866	-0.159889	-0.293346
O8	O	-4.700703	-0.075415	-0.214914
O9	O	-4.334176	0.012801	-0.248386
O10	O	-4.645821	-0.240581	-0.252089
O11	O	-4.641886	-0.115509	-0.368319
O12	O	-4.338084	-0.111411	-0.132956
C13	C	-3.829821	-0.277985	-0.255815
C14	C	-3.874260	-0.378224	-0.255318
C15	C	-4.077354	-0.429922	-0.259272
C16	C	-4.119101	-0.524108	-0.258811
C17	C	-3.957747	-0.566594	-0.254389
C18	C	-3.754637	-0.514891	-0.250437
C19	C	-3.712897	-0.420707	-0.250905
C20	C	-3.841649	-0.711199	-0.249461
C21	C	-3.883391	-0.805388	-0.248991
C22	C	-4.247853	-0.814599	-0.257366
C23	C	-4.206113	-0.720416	-0.257834
C24	C	-4.003004	-0.668719	-0.253881
C25	C	-3.824834	-0.119539	-0.403057
C26	C	-3.866102	-0.119043	-0.496169
C27	C	-4.143216	-0.122397	-0.714661
C28	C	-4.181971	-0.121923	-0.802148
C29	C	-3.817512	-0.112903	-0.793587
C30	C	-3.778756	-0.113370	-0.706101
C31	C	-3.941617	-0.118122	-0.666641
C32	C	-4.019129	-0.117180	-0.841614
C33	C	-4.061148	-0.116666	-0.936470
C34	C	-3.899595	-0.118635	-0.571778
C35	C	-4.151687	0.042676	-0.252443
C36	C	-4.086485	0.142915	-0.252945
C37	C	-4.156673	-0.115768	-0.105199
C38	C	-4.094644	-0.116260	-0.012086
H39	H	-4.337502	-0.685826	-0.261430
H40	H	-3.623266	-0.549491	-0.246842
H41	H	-4.208749	-0.395335	-0.262865
O42	O	-4.377688	-0.125917	-0.848807
C43	C	-4.370679	-0.047436	-0.888156
H44	H	-4.227403	0.009844	-0.851305
H45	H	-4.518753	-0.025077	-0.889063
H46	H	-4.360215	-0.063612	-0.955917
H47	H	-4.413226	-0.856694	-0.260573
O48	O	-3.583062	-0.109378	-0.659398
C49	C	-3.590135	-0.187898	-0.620105
H50	H	-3.755990	-0.218020	-0.614543
H51	H	-3.476646	-0.168700	-0.554189
H52	H	-3.543489	-0.240466	-0.659809
H53	H	-3.684923	-0.109036	-0.825726
H54	H	-3.547521	-0.378617	-0.247689
O55	O	-4.316345	-0.574251	-0.262494
C56	C	-4.378729	-0.541572	-0.192257
H57	H	-4.233872	-0.504300	-0.138985
H58	H	-4.476013	-0.601418	-0.169373
H59	H	-4.476745	-0.492577	-0.211615
O60	O	-3.726659	-0.846682	-0.244555
C61	C	-3.701676	-0.888466	-0.171142
H62	H	-3.765736	-0.853994	-0.122697
H63	H	-3.528140	-0.881296	-0.142971
H64	H	-3.790944	-0.963893	-0.188392
O65	O	-3.644212	-0.661106	-0.245575
C66	C	-3.510753	-0.718802	-0.241589
H67	H	-3.579953	-0.782745	-0.215838
H68	H	-3.349805	-0.681393	-0.197922
H69	H	-3.494579	-0.738922	-0.307782
H70	H	-4.275829	-0.126265	-0.682536
