data_functionalizedCrystal
_audit_creation_method	'MofGen! by Chris Wilmer'
_symmetry_space_group_name_H-M	'P1'
_symmetry_Int_Tables_number	1
_symmetry_cell_setting	triclinic
loop_
_symmetry_equiv_pos_as_xyz
  x,y,z
_cell_length_a	11.169417
_cell_length_b	19.077068
_cell_length_c	11.169409
_cell_angle_alpha	92.259065
_cell_angle_beta	89.980487
_cell_angle_gamma	92.328150
loop_
_atom_site_label
_atom_site_type_symbol
_atom_site_fract_x
_atom_site_fract_y
_atom_site_fract_z
Zn1	Zn	1.815630	-0.280119	-0.697655
Zn2	Zn	1.807395	-0.397840	-0.505008
Zn3	Zn	1.614913	-0.280163	-0.496993
Zn4	Zn	1.606803	-0.397783	-0.705650
O5	O	1.711185	-0.338976	-0.601326
O6	O	1.982487	-0.295741	-0.672108
O7	O	1.781810	-0.382271	-0.335998
O8	O	1.648379	-0.181667	-0.516911
O9	O	1.976437	-0.382229	-0.530571
O10	O	1.795845	-0.181635	-0.664337
O11	O	1.640394	-0.295815	-0.330109
O12	O	1.445888	-0.295760	-0.524664
O13	O	1.634557	-0.382133	-0.872536
O14	O	1.439929	-0.382175	-0.677963
O15	O	1.787981	-0.295686	-0.866662
O16	O	1.773946	-0.496323	-0.538323
O17	O	1.626572	-0.496281	-0.685734
C18	C	1.399361	-0.338967	-0.601312
C19	C	1.265960	-0.338980	-0.601335
C20	C	1.698518	-0.521839	-0.613792
C21	C	1.693208	-0.600069	-0.619165
C22	C	1.767503	-0.636820	-0.545004
C23	C	1.762516	-0.710325	-0.550065
C24	C	1.683228	-0.747077	-0.629281
C25	C	1.608930	-0.710322	-0.703451
C26	C	1.613923	-0.636818	-0.698395
C27	C	1.660064	-0.966910	-0.652630
C28	C	1.655073	-1.040419	-0.657677
C29	C	1.808662	-1.040417	-0.504293
C30	C	1.813644	-0.966912	-0.499239
C31	C	1.739350	-0.930162	-0.573413
N32	N	1.678126	-0.822211	-0.634453
N33	N	1.744459	-0.855030	-0.568246
C34	C	2.024227	-0.338986	-0.601342
C35	C	2.157627	-0.338991	-0.601348
C36	C	1.711283	-0.338898	-0.914364
C37	C	1.711324	-0.338865	-1.047761
C38	C	1.723935	-0.155399	-0.588838
C39	C	1.729368	-0.077170	-0.583516
C40	C	1.711161	-0.339003	-0.289503
C41	C	1.711365	-0.338838	-0.156093
H42	H	1.832063	-0.606900	-0.480493
H43	H	1.878207	-0.936989	-0.434735
H44	H	1.553426	-0.606896	-0.758786
H45	H	1.823014	-0.740244	-0.489674
C46	C	1.890391	-1.080842	-0.422716
C47	C	1.884910	-1.161693	-0.428272
C48	C	1.966647	-1.202118	-0.346695
C49	C	2.053865	-1.161691	-0.259562
C50	C	2.059349	-1.080835	-0.254002
C51	C	1.977612	-1.040411	-0.335579
H52	H	1.820343	-1.191623	-0.492776
H53	H	1.962587	-1.261973	-0.350811
H54	H	2.114372	-1.191616	-0.199173
H55	H	2.123916	-1.050905	-0.189498
H56	H	1.981672	-0.980556	-0.331463
C57	C	1.567859	-1.080853	-0.744824
C58	C	1.432105	-1.070824	-0.734241
C59	C	1.344895	-1.111260	-0.821379
C60	C	1.393439	-1.161726	-0.919101
C61	C	1.529199	-1.171758	-0.929688
C62	C	1.616409	-1.131321	-0.842550
H63	H	1.396163	-1.033464	-0.661897
H64	H	1.244395	-1.103834	-0.813541
H65	H	1.328881	-1.191660	-0.983606
H66	H	1.565141	-1.209118	-1.002032
H67	H	1.716909	-1.138748	-0.850388
C68	C	1.521709	-0.750748	-0.790590
C69	C	1.439987	-0.710321	-0.872168
C70	C	1.352760	-0.750745	-0.959305
C71	C	1.347257	-0.831596	-0.964865
C72	C	1.428982	-0.872027	-0.883284
C73	C	1.516208	-0.831603	-0.796146
H74	H	1.444058	-0.650466	-0.868055
H75	H	1.292262	-0.720814	-1.019697
H76	H	1.282686	-0.861520	-1.029369
H77	H	1.424910	-0.931882	-0.887397
H78	H	1.576706	-0.861534	-0.735755
H79	H	1.599569	-0.936994	-0.713023
