data_functionalizedCrystal
_audit_creation_method	'MofGen! by Chris Wilmer'
_symmetry_space_group_name_H-M	'P1'
_symmetry_Int_Tables_number	1
_symmetry_cell_setting	triclinic
loop_
_symmetry_equiv_pos_as_xyz
  x,y,z
_cell_length_a	14.560438
_cell_length_b	14.560438
_cell_length_c	14.560438
_cell_angle_alpha	59.996693
_cell_angle_beta	90.001334
_cell_angle_gamma	60.001327
loop_
_atom_site_label
_atom_site_type_symbol
_atom_site_fract_x
_atom_site_fract_y
_atom_site_fract_z
Zr1	Zr	0.884769	1.005307	-0.120581
O2	O	0.738118	1.196919	-0.267244
O3	O	0.929724	0.813698	-0.075612
O4	O	0.929720	1.005310	-0.267229
O5	O	0.738126	1.005306	0.075514
O6	O	1.080861	1.005308	-0.267227
O7	O	0.738122	1.005308	-0.075627
O8	O	1.080867	0.662550	0.075540
O9	O	0.738119	1.348063	-0.267253
O10	O	1.061692	0.892508	-0.056443
O11	O	0.948901	0.892507	0.056350
O12	O	0.948897	1.118105	-0.169253
O13	O	0.836105	1.118104	-0.056460
Zr14	Zr	1.125826	1.005301	0.120474
Zr15	Zr	1.125820	1.005305	-0.120578
Zr16	Zr	0.884775	1.005303	0.120471
Zr17	Zr	0.884770	1.246364	-0.120596
Zr18	Zr	1.125824	0.764244	0.120489
O19	O	1.080871	1.196910	0.075505
O20	O	1.080862	1.196916	-0.267240
O21	O	0.738127	1.196914	0.075502
O22	O	1.272476	0.813689	0.267136
O23	O	1.272468	0.813695	-0.075609
O24	O	0.929733	0.813692	0.267133
O25	O	1.272469	1.005303	-0.075621
O26	O	1.080874	1.005299	0.267122
O27	O	0.929734	1.005301	0.267120
O28	O	1.272473	1.005301	0.075520
O29	O	0.929723	1.348061	-0.267251
O30	O	1.080872	0.662547	0.267144
O31	O	1.272475	0.662545	0.267146
O32	O	1.272470	0.662549	0.075542
O33	O	0.738124	1.348060	-0.075649
O34	O	0.929728	1.348058	-0.075647
O35	O	1.061698	0.892504	0.169146
O36	O	1.174489	0.892505	0.056353
O37	O	1.061694	1.118102	-0.056458
O38	O	0.948903	1.118101	0.056336
C39	C	1.005295	0.703779	-0.000034
C40	C	1.005294	0.601444	-0.000028
C41	C	0.922026	0.636660	-0.083311
C42	C	0.922031	0.540520	-0.083340
C43	C	1.088577	0.373949	0.083208
C44	C	1.088576	0.470088	0.083231
C45	C	0.703779	1.005307	-0.000057
C46	C	0.601446	1.005308	-0.000058
C47	C	0.553368	1.005312	-0.083325
C48	C	0.457220	1.005304	-0.083318
C49	C	0.457235	1.005292	0.083226
C50	C	0.553386	1.005292	0.083223
C51	C	0.363653	0.929622	-0.145507
C52	C	0.315560	0.929649	-0.228790
C53	C	0.308910	1.005353	-0.340163
C54	C	0.350336	1.081063	-0.368274
C55	C	0.398418	1.081048	-0.284996
C56	C	0.405084	1.005313	-0.173611
C57	C	0.646950	1.080984	0.145401
C58	C	0.695029	1.080979	0.228675
C59	C	0.701677	1.005282	0.340053
C60	C	0.660238	0.929591	0.368163
C61	C	0.612159	0.929597	0.284889
C62	C	0.605519	1.005291	0.173512
C63	C	1.306816	1.005301	-0.000050
C64	C	1.409148	1.005301	-0.000049
C65	C	1.005290	1.005309	-0.301573
C66	C	1.005287	1.005311	-0.403906
C67	C	1.005300	1.306830	-0.000073
C68	C	1.005300	1.409165	-0.000080
C69	C	0.946410	1.123068	-0.510868
C70	C	0.946423	1.123062	-0.607017
C71	C	1.064192	0.887531	-0.489228
C72	C	1.064185	0.887539	-0.393081
C73	C	1.005305	1.005299	0.301466
C74	C	1.005308	1.005298	0.403799
C75	C	1.306814	0.703776	-0.000031
C76	C	1.409145	0.601440	-0.000023
C77	C	1.005303	0.703774	0.301485
C78	C	1.005305	0.601437	0.403825
C79	C	1.306821	0.703771	0.301489
C80	C	1.409156	0.601433	0.403829
C81	C	0.703774	1.306838	-0.301596
C82	C	0.601439	1.409175	-0.403936
C83	C	0.703781	1.306833	-0.000076
C84	C	0.601449	1.409169	-0.000084
C85	C	1.005292	1.306835	-0.301592
C86	C	1.005290	1.409172	-0.403932
C87	C	1.398345	0.553361	-0.058895
C88	C	1.494501	0.457214	-0.058892
C89	C	1.612253	0.457228	0.058865
C90	C	1.516099	0.553380	0.058854
C91	C	1.064183	0.553356	0.510782
C92	C	1.064172	0.457208	0.606937
C93	C	0.946402	0.457229	0.489163
C94	C	0.946407	0.553381	0.393011
C95	C	1.516108	0.553353	0.393035
C96	C	1.612259	0.457204	0.489199
C97	C	1.494489	0.457221	0.606948
C98	C	1.398342	0.553374	0.510785
H99	H	0.592498	1.005323	-0.151136
H100	H	1.699344	0.418084	0.106802
C101	C	1.180170	0.431356	0.174849
H102	H	1.168246	0.507428	0.162930
H103	H	1.176722	0.381368	0.246729
H104	H	1.252054	0.381396	0.171388
C105	C	0.443993	1.164308	-0.315904
H106	H	0.433150	1.209399	-0.394164
H107	H	0.404978	1.225150	-0.298041
H108	H	0.521988	1.109724	-0.274586
C109	C	0.256013	1.005385	-0.431774
H110	H	0.257975	1.061326	-0.502136
H111	H	0.297216	0.919724	-0.413126
H112	H	0.180201	1.035145	-0.436586
H113	H	1.524901	0.592530	0.106795
H114	H	1.112116	0.418066	0.694024
C115	C	0.566580	0.846336	0.315803
H116	H	0.536987	0.857190	0.250255
H117	H	0.625815	0.757521	0.369845
H118	H	0.508797	0.872954	0.346364
C119	C	0.667543	0.846325	0.490676
H120	H	0.702120	0.857154	0.536246
H121	H	0.594009	0.872939	0.493945
H122	H	0.711028	0.757506	0.517427
H123	H	0.898456	0.592532	0.305915
C124	C	1.528003	0.606224	0.275390
H125	H	1.605475	0.563823	0.282738
H126	H	1.492946	0.590464	0.235432
H127	H	1.492945	0.697010	0.235426
C128	C	0.881635	0.404350	0.477276
H129	H	0.890074	0.340188	0.549859
H130	H	0.804173	0.473378	0.437319
H131	H	0.910722	0.366835	0.437328
C132	C	0.404357	1.005292	0.174819
H133	H	0.340200	1.005307	0.162889
H134	H	0.457781	0.929957	0.246705
H135	H	0.382448	1.080637	0.171351
H136	H	1.485697	0.418074	-0.106834
C137	C	0.370971	0.846343	-0.022994
H138	H	0.405551	0.857162	0.022583
H139	H	0.297438	0.872952	-0.019721
H140	H	0.414455	0.757527	0.003747
H141	H	0.740818	1.005295	0.407852
C142	C	1.482602	0.404340	0.724596
H143	H	1.555182	0.340178	0.780323
H144	H	1.442651	0.473367	0.733027
H145	H	1.442651	0.366825	0.733026
H146	H	0.854226	0.569206	-0.151159
H147	H	1.112137	0.592485	0.519594
C148	C	0.881653	1.252595	-0.724671
H149	H	0.846570	1.322731	-0.717342
H150	H	0.932470	1.257498	-0.764628
H151	H	0.825936	1.257480	-0.764625
C152	C	0.343013	1.164344	-0.490789
H153	H	0.308453	1.153502	-0.536358
H154	H	0.299531	1.253155	-0.517533
H155	H	0.416551	1.137731	-0.494061
C156	C	1.280687	0.606264	0.522658
H157	H	1.288015	0.563859	0.600128
H158	H	1.240732	0.697045	0.487585
H159	H	1.240734	0.590495	0.487597
H160	H	1.112135	0.791641	-0.305982
H161	H	0.728759	1.142625	0.205777
H162	H	0.641546	1.142623	0.054710
C163	C	1.180171	0.229463	0.174794
H164	H	1.168240	0.177247	0.162861
H165	H	1.252052	0.211006	0.171351
H166	H	1.176710	0.210992	0.246682
H167	H	1.311262	0.592500	-0.106849
C168	C	0.881643	1.252611	-0.522775
H169	H	0.846591	1.322741	-0.600251
H170	H	0.825922	1.257520	-0.487722
H171	H	0.932473	1.257502	-0.487713
H172	H	1.112143	0.791645	-0.480428
H173	H	1.699342	0.418062	0.480402
H174	H	0.854206	0.743612	-0.151100
H175	H	0.281835	0.867997	-0.205892
