data_functionalizedCrystal
_audit_creation_method	'MofGen! by Chris Wilmer'
_symmetry_space_group_name_H-M	'P1'
_symmetry_Int_Tables_number	1
_symmetry_cell_setting	triclinic
loop_
_symmetry_equiv_pos_as_xyz
  x,y,z
_cell_length_a	19.121414
_cell_length_b	13.897447
_cell_length_c	13.897433
_cell_angle_alpha	90.067446
_cell_angle_beta	92.388631
_cell_angle_gamma	87.537521
loop_
_atom_site_label
_atom_site_type_symbol
_atom_site_fract_x
_atom_site_fract_y
_atom_site_fract_z
Zn1	Zn	1.073912	0.320729	-0.482652
Zn2	Zn	1.573912	0.820729	0.017348
Zn3	Zn	1.073771	0.482174	-0.321373
Zn4	Zn	1.573771	0.982174	0.178627
Zn5	Zn	0.956404	0.327765	-0.328237
Zn6	Zn	1.456404	0.827765	0.171763
Zn7	Zn	0.956441	0.488861	-0.489483
Zn8	Zn	1.456441	0.988861	0.010517
O9	O	1.015132	0.404882	-0.405436
O10	O	1.515132	0.904882	0.094564
O11	O	1.172174	0.336402	-0.455527
O12	O	1.672174	0.836402	0.044473
O13	O	1.058128	0.461838	-0.187306
O14	O	1.558128	0.961838	0.312694
O15	O	0.972036	0.191848	-0.348735
O16	O	1.472036	0.691848	0.151265
O17	O	1.172070	0.455015	-0.337036
O18	O	1.672070	0.955015	0.162964
O19	O	1.058369	0.186678	-0.462183
O20	O	1.558369	0.686678	0.037817
O21	O	0.971899	0.348395	-0.192349
O22	O	1.471899	0.848395	0.307651
O23	O	0.858129	0.354878	-0.355358
O24	O	1.358129	0.854878	0.144642
O25	O	0.972098	0.466411	-0.623554
O26	O	1.472098	0.966411	-0.123554
O27	O	0.858155	0.473234	-0.473824
O28	O	1.358155	0.973234	0.026176
O29	O	1.058404	0.342886	-0.618536
O30	O	1.558404	0.842886	-0.118536
O31	O	1.058163	0.618046	-0.343659
O32	O	1.558163	1.118046	0.156341
O33	O	0.971961	0.622958	-0.467168
O34	O	1.471961	1.122958	0.032832
C35	C	0.832659	0.415546	-0.416078
C36	C	1.332659	0.915546	0.083922
C37	C	0.754596	0.420131	-0.420653
C38	C	1.254596	0.920131	0.079347
C39	C	1.015070	0.655500	-0.405430
C40	C	1.515070	1.155500	0.094570
C41	C	1.015107	0.762712	-0.405456
C42	C	1.515107	1.262712	0.094544
C43	C	0.717887	0.360570	-0.361225
C44	C	1.217887	0.860570	0.138775
C45	C	0.644539	0.364887	-0.365524
C46	C	1.144539	0.864887	0.134476
C47	C	0.607901	0.428759	-0.429256
C48	C	1.107901	0.928759	0.070744
C49	C	0.644614	0.488326	-0.488686
C50	C	1.144614	0.988326	0.011314
C51	C	0.717961	0.484014	-0.484382
C52	C	1.217961	0.984014	0.015618
C53	C	0.386442	0.444872	-0.445328
C54	C	0.886442	0.944872	0.054672
C55	C	0.313090	0.449177	-0.449630
C56	C	0.813090	0.949177	0.050370
C57	C	0.313019	0.325738	-0.326465
C58	C	0.813019	0.825738	0.173535
C59	C	0.386368	0.321427	-0.322171
C60	C	0.886368	0.821427	0.177829
C61	C	0.423075	0.380998	-0.381598
C62	C	0.923075	0.880998	0.118402
C63	C	0.532927	0.433171	-0.433654
C64	C	1.032927	0.933171	0.066346
C65	C	0.498047	0.376591	-0.377195
C66	C	0.998047	0.876591	0.122805
C67	C	1.015139	0.849780	-0.405480
C68	C	1.515139	1.349780	0.094520
C69	C	1.015186	0.959010	-0.405507
C70	C	1.515186	1.459010	0.094493
C71	C	1.198318	0.394178	-0.394754
C72	C	1.698318	0.894178	0.105246
C73	C	1.276381	0.389617	-0.390202
C74	C	1.776381	0.889617	0.109798
C75	C	1.015271	0.404609	-0.657022
C76	C	1.515271	0.904609	-0.157022
C77	C	1.015330	0.404493	-0.764232
C78	C	1.515330	0.904493	-0.264232
C79	C	1.015209	1.153285	-0.405475
C80	C	1.515209	1.653285	0.094525
C81	C	1.015228	1.046070	-0.405524
C82	C	1.515228	1.546070	0.094476
C83	C	1.015034	0.405082	-0.154827
C84	C	1.515034	0.905082	0.345173
C85	C	1.015111	0.404919	-0.047609
C86	C	1.515111	0.904919	0.452391
C87	C	1.015268	0.404627	0.148694
C88	C	1.515268	0.904627	0.648694
C89	C	1.015183	0.404792	0.039457
C90	C	1.515183	0.904792	0.539457
H91	H	0.614654	0.316392	-0.317125
H92	H	1.114654	0.816392	0.182875
C93	C	0.710668	0.606450	-0.606567
C94	C	1.210668	1.106450	-0.106567
C95	C	0.758314	0.549480	-0.549713
C96	C	1.258314	1.049480	-0.049713
H97	H	0.735582	0.646864	-0.646902
H98	H	1.235582	1.146864	-0.146902
H99	H	0.682026	0.645009	-0.566160
H100	H	1.182026	1.145009	-0.066160
H101	H	0.682092	0.566111	-0.645208
H102	H	1.182092	1.066111	-0.145208
H103	H	0.786887	0.589819	-0.511066
H104	H	1.286887	1.089819	-0.011066
H105	H	0.786969	0.510918	-0.590124
H106	H	1.286969	1.010918	-0.090124
C107	C	0.540357	0.554727	-0.554995
C108	C	1.040357	1.054727	-0.054995
C109	C	0.492652	0.503362	-0.503726
C110	C	0.992652	1.003362	-0.003726
H111	H	0.515490	0.598061	-0.598252
H112	H	1.015490	1.098061	-0.098252
H113	H	0.569001	0.511031	-0.590269
H114	H	1.069001	1.011031	-0.090269
H115	H	0.568927	0.589938	-0.511230
H116	H	1.068927	1.089938	-0.011230
H117	H	0.464085	0.468145	-0.547491
H118	H	0.964085	0.968145	-0.047491
H119	H	0.463996	0.547064	-0.468450
H120	H	0.963996	1.047064	0.031550
C121	C	0.580442	0.358285	-0.242643
C122	C	1.080442	0.858285	0.257357
C123	C	0.538321	0.306384	-0.307143
C124	C	1.038321	0.806384	0.192857
H125	H	0.605313	0.314938	-0.199403
H126	H	1.105313	0.814938	0.300597
H127	H	0.551794	0.401959	-0.207352
H128	H	1.051794	0.901959	0.292648
H129	H	0.612794	0.393145	-0.277435
H130	H	1.112794	0.893145	0.222565
H131	H	0.505966	0.271530	-0.272352
H132	H	1.005966	0.771530	0.227648
H133	H	0.566972	0.262692	-0.342437
H134	H	1.066972	0.762692	0.157563
C135	C	0.320522	0.570754	-0.570958
C136	C	0.820522	1.070754	-0.070958
C137	C	0.272815	0.519380	-0.519701
C138	C	0.772815	1.019380	-0.019701
H139	H	0.295657	0.614089	-0.614215
H140	H	0.795657	1.114089	-0.114215
H141	H	0.349170	0.527063	-0.606231
H142	H	0.849170	1.027063	-0.106231
H143	H	0.349087	0.605964	-0.527186
H144	H	0.849087	1.105964	-0.027186
H145	H	0.244253	0.484164	-0.563473
H146	H	0.744253	0.984164	-0.063473
H147	H	0.244155	0.563077	-0.484426
H148	H	0.744155	1.063077	0.015574
H149	H	0.416194	0.269422	-0.270266
H150	H	0.916194	0.769422	0.229734
C151	C	0.710443	0.239005	-0.239902
C152	C	1.210443	0.739005	0.260098
C153	C	0.758157	0.290364	-0.291161
C154	C	1.258157	0.790364	0.208839
H155	H	0.735304	0.195669	-0.196640
H156	H	1.235304	0.695669	0.303360
H157	H	0.681875	0.203805	-0.283665
H158	H	1.181875	0.703805	0.216335
H159	H	0.681798	0.282711	-0.204624
H160	H	1.181798	0.782711	0.295376
H161	H	0.786798	0.246658	-0.326444
H162	H	1.286798	0.746658	0.173556
H163	H	0.786736	0.325566	-0.247392
H164	H	1.286736	0.825566	0.252608
H165	H	0.416320	0.493378	-0.493718
H166	H	0.916320	0.993378	0.006282
C167	C	0.290422	0.163708	-0.281078
C168	C	0.790422	0.663708	0.218922
C169	C	0.272667	0.260269	-0.261140
C170	C	0.772667	0.760269	0.238860
H171	H	0.265506	0.123293	-0.240748
H172	H	0.765506	0.623293	0.259252
H173	H	0.339341	0.152006	-0.269390
H174	H	0.839341	0.652006	0.230610
H175	H	0.278447	0.150338	-0.346615
H176	H	0.778447	0.650338	0.153385
H177	H	0.284647	0.273642	-0.195604
H178	H	0.784647	0.773642	0.304396
H179	H	0.223736	0.271976	-0.272820
H180	H	0.723736	0.771976	0.227180
H181	H	0.614778	0.540338	-0.540574
H182	H	1.114778	1.040338	-0.040574
