data_functionalizedCrystal
_audit_creation_method	'MofGen! by Chris Wilmer'
_symmetry_space_group_name_H-M	'P1'
_symmetry_Int_Tables_number	1
_symmetry_cell_setting	triclinic
loop_
_symmetry_equiv_pos_as_xyz
  x,y,z
_cell_length_a	16.109301
_cell_length_b	10.654549
_cell_length_c	9.730223
_cell_angle_alpha	89.997532
_cell_angle_beta	89.998336
_cell_angle_gamma	96.026871
loop_
_atom_site_label
_atom_site_type_symbol
_atom_site_fract_x
_atom_site_fract_y
_atom_site_fract_z
O1	O	-0.116771	1.666256	-0.114243
O2	O	-0.127896	1.300626	-0.114251
O3	O	-0.001362	1.493485	-0.114254
O4	O	-0.243305	1.473397	-0.114240
O5	O	-0.001362	1.493472	0.114326
O6	O	-0.127896	1.300613	0.114329
O7	O	-0.116771	1.666242	0.114337
Zn8	Zn	-0.122334	1.483425	0.150625
Zn9	Zn	-0.122333	1.483443	-0.150539
O10	O	-0.243305	1.473383	0.114340
C11	C	-0.127080	1.253833	0.000038
C12	C	-0.124636	1.114422	0.000034
C13	C	-0.196834	0.902928	0.000044
C14	C	-0.199137	1.033918	0.000036
C15	C	-0.047827	1.063932	0.000027
C16	C	-0.045525	0.932945	0.000025
C17	C	-0.274284	1.474204	0.000052
C18	C	-0.366594	1.476643	0.000057
C19	C	-0.588220	1.367877	0.000035
C20	C	-0.674954	1.370179	0.000024
C21	C	-0.656440	1.599000	0.000036
C22	C	-0.569708	1.596697	0.000036
C23	C	-0.535600	1.481132	0.000043
C24	C	-0.709067	1.485737	0.000032
C25	C	-0.803108	1.488234	0.000021
C26	C	-0.441553	1.478634	0.000051
C27	C	0.029617	1.492665	0.000032
C28	C	0.121927	1.490225	0.000017
C29	C	-0.117587	1.713036	0.000046
C30	C	-0.120031	1.852446	0.000040
N31	N	-0.122333	1.483422	0.356162
N32	N	-0.122327	1.483456	-0.356075
C33	C	-0.173228	1.559563	0.428087
C34	C	-0.173223	1.559584	0.571970
C35	C	-0.071427	1.407312	0.571989
C36	C	-0.071428	1.407299	0.428109
H37	H	-0.560453	1.273777	0.000045
O38	O	-0.021963	1.333213	0.358444
C39	C	0.079044	1.182240	0.373634
C40	C	0.023052	1.266048	0.452700
H41	H	0.115467	1.127935	0.449805
H42	H	0.038618	1.112777	0.306320
H43	H	0.124545	1.244042	0.306225
H44	H	-0.022457	1.204346	0.520183
H45	H	0.063531	1.335518	0.519926
H46	H	-0.214678	1.621548	0.369512
H47	H	0.017021	0.891843	0.000018
H48	H	-0.257502	0.837389	0.000055
H49	H	-0.684221	1.693089	0.000044
H50	H	-0.526862	1.688927	0.000037
H51	H	-0.261677	1.075013	0.000037
H52	H	-0.214666	1.621587	0.630526
O53	O	0.024488	1.142260	-0.000159
C54	C	0.109726	1.307527	-0.118616
C55	C	0.027789	1.218916	-0.118566
H56	H	0.112429	1.369507	-0.214351
H57	H	0.112440	1.369681	-0.023017
H58	H	0.165003	1.248918	-0.118554
H59	H	-0.027534	1.277425	-0.118676
H60	H	0.025148	1.156757	-0.214155
H61	H	-0.717794	1.277956	0.000016
H62	H	-0.029982	1.345334	0.630586
