data_functionalizedCrystal
_audit_creation_method	'MofGen! by Chris Wilmer'
_symmetry_space_group_name_H-M	'P1'
_symmetry_Int_Tables_number	1
_symmetry_cell_setting	triclinic
loop_
_symmetry_equiv_pos_as_xyz
  x,y,z
_cell_length_a	12.759401
_cell_length_b	25.639240
_cell_length_c	12.759393
_cell_angle_alpha	90.044235
_cell_angle_beta	90.018567
_cell_angle_gamma	90.031802
loop_
_atom_site_label
_atom_site_type_symbol
_atom_site_fract_x
_atom_site_fract_y
_atom_site_fract_z
Zn1	Zn	1.606124	-0.208133	0.593891
Zn2	Zn	2.106124	0.291867	1.093891
Zn3	Zn	1.605962	-0.295580	0.418172
Zn4	Zn	2.105962	0.204420	0.918172
Zn5	Zn	1.430425	-0.208159	0.418230
Zn6	Zn	1.930425	0.291841	0.918230
Zn7	Zn	1.430359	-0.295538	0.593813
Zn8	Zn	1.930359	0.204462	1.093813
O9	O	1.518218	-0.251853	0.506027
O10	O	2.018218	0.248147	1.006027
O11	O	1.753123	-0.219740	0.570590
O12	O	2.253123	0.280260	1.070590
O13	O	1.582638	-0.284012	0.271159
O14	O	2.082638	0.215988	0.771159
O15	O	1.453828	-0.134990	0.441588
O16	O	1.953828	0.365010	0.941588
O17	O	1.753005	-0.283987	0.441490
O18	O	2.253005	0.216013	0.941490
O19	O	1.582912	-0.134971	0.570646
O20	O	2.082912	0.365029	1.070646
O21	O	1.453671	-0.219784	0.271201
O22	O	1.953671	0.280216	0.771201
O23	O	1.283396	-0.219743	0.441513
O24	O	1.783396	0.280257	0.941513
O25	O	1.453714	-0.283915	0.740845
O26	O	1.953714	0.216085	1.240845
O27	O	1.283347	-0.283940	0.570514
O28	O	1.783347	0.216060	1.070514
O29	O	1.582847	-0.219699	0.740902
O30	O	2.082847	0.280301	1.240902
O31	O	1.582573	-0.368740	0.441415
O32	O	2.082573	0.131260	0.941415
O33	O	1.453558	-0.368709	0.570457
O34	O	1.953558	0.131291	1.070457
C35	C	1.245250	-0.251840	0.506012
C36	C	1.745250	0.248160	1.006012
C37	C	1.128474	-0.251848	0.506031
C38	C	1.628474	0.248152	1.006031
C39	C	1.073666	-0.218458	0.573357
C40	C	1.573666	0.281542	1.073357
C41	C	0.963942	-0.218468	0.573364
C42	C	1.463942	0.281532	1.073364
C43	C	0.963843	-0.285262	0.438714
C44	C	1.463843	0.214738	0.938714
C45	C	1.073565	-0.285249	0.438703
C46	C	1.573565	0.214751	0.938703
C47	C	1.128575	-0.185056	0.640684
C48	C	1.628575	0.314944	1.140684
C49	C	1.073768	-0.151663	0.708017
C50	C	1.573768	0.348337	1.208017
C51	C	0.964044	-0.151673	0.708023
C52	C	1.464044	0.348327	1.208023
C53	C	0.909127	-0.185076	0.640697
C54	C	1.409127	0.314924	1.140697
C55	C	1.518069	-0.387695	0.505944
C56	C	2.018069	0.112305	1.005944
C57	C	1.518102	-0.445809	0.505944
C58	C	2.018102	0.054191	1.005944
C59	C	1.585465	-0.806124	0.573348
C60	C	2.085465	-0.306124	1.073348
C61	C	1.585496	-0.860728	0.573369
C62	C	2.085496	-0.360728	1.073369
O63	O	1.642595	-0.888924	0.630594
O64	O	2.142595	-0.388924	1.130594
N65	N	1.518363	-0.888092	0.506128
N66	N	2.018363	-0.388092	1.006128
C67	C	1.451188	-0.860848	0.438869
C68	C	1.951188	-0.360848	0.938869
O69	O	1.394088	-0.889137	0.381678
O70	O	1.894088	-0.389137	0.881678
C71	C	1.451152	-0.806245	0.438853
C72	C	1.951152	-0.306245	0.938853
C73	C	1.518297	-0.778884	0.506091
C74	C	2.018297	-0.278884	1.006091
C75	C	1.652604	-0.778763	0.640581
C76	C	2.152604	-0.278763	1.140581
C77	C	1.652574	-0.724163	0.640558
C78	C	2.152574	-0.224163	1.140558
C79	C	1.585406	-0.696923	0.573302
C80	C	2.085406	-0.196923	1.073302
C81	C	1.518267	-0.724283	0.506068
C82	C	2.018267	-0.224283	1.006068
C83	C	1.383972	-0.779002	0.371600
C84	C	1.883972	-0.279002	0.871600
C85	C	1.383941	-0.724395	0.371591
C86	C	1.883941	-0.224395	0.871591
C87	C	1.451086	-0.697034	0.438829
C88	C	1.951086	-0.197034	0.938829
C89	C	1.451069	-0.642443	0.438789
C90	C	1.951069	-0.142443	0.938789
N91	N	1.518202	-0.615080	0.506030
N92	N	2.018202	-0.115080	1.006030
C93	C	1.585370	-0.642320	0.573287
C94	C	2.085370	-0.142320	1.073287
C95	C	1.451266	-0.975518	0.438907
C96	C	1.951266	-0.475518	0.938907
C97	C	1.451306	-1.030121	0.438916
C98	C	1.951306	-0.530121	0.938916
C99	C	1.585614	-1.029997	0.573419
C100	C	2.085614	-0.529997	1.073419
C101	C	1.585578	-0.975394	0.573403
C102	C	2.085578	-0.475394	1.073403
C103	C	1.518399	-0.948155	0.506148
C104	C	2.018399	-0.448155	1.006148
C105	C	1.585303	-0.527655	0.573233
C106	C	2.085303	-0.027655	1.073233
C107	C	1.585270	-0.473049	0.573201
C108	C	2.085270	0.026951	1.073201
C109	C	1.450959	-0.473177	0.438703
C110	C	1.950959	0.026823	0.938703
C111	C	1.450995	-0.527778	0.438730
C112	C	1.950995	-0.027778	0.938730
C113	C	1.518171	-0.555015	0.506004
C114	C	2.018171	-0.055015	1.006004
O115	O	1.393996	-0.614213	0.381597
O116	O	1.893996	-0.114213	0.881597
O117	O	1.642450	-0.614024	0.630478
O118	O	2.142450	-0.114024	1.130478
C119	C	1.792251	-0.251865	0.506042
C120	C	2.292251	0.248135	1.006042
C121	C	1.909027	-0.251871	0.506048
C122	C	2.409027	0.248129	1.006048
C123	C	1.518291	-0.251800	0.780060
C124	C	2.018291	0.248200	1.280060
C125	C	1.518323	-0.251777	0.896837
C126	C	2.018323	0.248223	1.396837
C127	C	1.518395	-0.115480	0.506132
C128	C	2.018395	0.384520	1.006132
C129	C	1.518471	-0.057365	0.506177
C130	C	2.018471	0.442635	1.006177
C131	C	1.518205	-0.251867	0.233059
C132	C	2.018205	0.248133	0.733059
C133	C	1.518377	-0.251743	0.116283
C134	C	2.018377	0.248257	0.616283
C135	C	1.585572	-0.218337	0.951730
C136	C	2.085572	0.281663	1.451730
C137	C	1.585597	-0.218318	1.061454
C138	C	2.085597	0.281682	1.561454
C139	C	1.451120	-0.285185	1.061382
C140	C	1.951120	0.214815	1.561382
C141	C	1.451091	-0.285200	0.951660
C142	C	1.951091	0.214800	1.451660
C143	C	1.652803	-0.184914	0.896907
C144	C	2.152803	0.315086	1.396907
C145	C	1.720059	-0.151471	0.951801
C146	C	2.220059	0.348529	1.451801
C147	C	1.720084	-0.151452	1.061525
C148	C	2.220084	0.348548	1.561525
C149	C	1.652853	-0.184876	1.116355
C150	C	2.152853	0.315124	1.616355
H151	H	0.919422	-0.124480	0.762841
H152	H	1.419422	0.375520	1.262841
H153	H	1.329295	-0.801269	0.316847
H154	H	1.829295	-0.301269	0.816847
O155	O	1.246920	-0.185047	0.640673
O156	O	1.746920	0.314953	1.140673
H157	H	1.275822	-0.174433	0.561467
H158	H	1.775822	0.325567	1.061467
H159	H	1.396384	-0.312396	1.106034
H160	H	1.896384	0.187604	1.606034
O161	O	1.311492	-0.695014	0.299041
O162	O	1.811492	-0.195014	0.799041
H163	H	1.264821	-0.723217	0.252287
H164	H	1.764821	-0.223217	0.752287
O165	O	1.378580	-0.557294	0.366210
O166	O	1.878580	-0.057294	0.866210
H167	H	1.331866	-0.529176	0.319443
H168	H	1.831866	-0.029176	0.819443
O169	O	1.792614	-0.115377	1.120722
O170	O	2.292614	0.384623	1.620722
H171	H	1.745637	-0.088760	1.170718
H172	H	2.245637	0.411240	1.670718
O173	O	1.132682	-0.321262	0.366082
O174	O	1.632682	0.178738	0.866082
H175	H	1.218203	-0.315635	0.377377
H176	H	1.718203	0.184365	0.877377
H177	H	1.396274	-0.450990	0.383940
H178	H	1.896274	0.049010	0.883940
H179	H	0.819782	-0.185070	0.640686
H180	H	1.319782	0.314930	1.140686
H181	H	1.652793	-0.184927	0.807564
H182	H	2.152793	0.315073	1.307564
O183	O	0.904619	-0.321291	0.366107
O184	O	1.404619	0.178709	0.866107
H185	H	0.819114	-0.315693	0.377433
H186	H	1.319114	0.184307	0.877433
O187	O	1.657705	-0.443537	0.645712
O188	O	2.157705	0.056463	1.145712
H189	H	1.704412	-0.471656	0.692484
H190	H	2.204412	0.028344	1.192484
O191	O	1.378825	-0.946139	0.366343
O192	O	1.878825	-0.446139	0.866343
H193	H	1.332165	-0.974345	0.319584
H194	H	1.832165	-0.474345	0.819584
O195	O	1.657761	-0.557029	0.645782
O196	O	2.157761	-0.057029	1.145782
H197	H	1.704443	-0.528822	0.692516
H198	H	2.204443	-0.028822	1.192516
H199	H	1.707246	-0.701889	0.695312
H200	H	2.207246	-0.201889	1.195312
H201	H	1.707300	-0.800936	0.695356
H202	H	2.207300	-0.300936	1.195356
O203	O	1.658001	-0.945884	0.645919
O204	O	2.158001	-0.445884	1.145919
H205	H	1.704709	-0.974005	0.692684
H206	H	2.204709	-0.474005	1.192684
O207	O	1.378559	-0.321266	0.892441
O208	O	1.878559	0.178734	1.392441
H209	H	1.331823	-0.344510	0.948994
H210	H	1.831823	0.155490	1.448994
O211	O	1.658051	-1.059382	0.645977
O212	O	2.158051	-0.559382	1.145977
H213	H	1.646779	-1.101947	0.634696
H214	H	2.146779	-0.601947	1.134696
H215	H	1.774789	-0.124256	0.907150
H216	H	2.274789	0.375744	1.407150
O217	O	1.378900	-1.059631	0.366385
O218	O	1.878900	-0.559631	0.866385
H219	H	1.296427	-1.049179	0.384333
H220	H	1.796427	-0.549179	0.884333
O221	O	1.132989	-0.115636	0.780628
O222	O	1.632989	0.384364	1.280628
H223	H	1.218494	-0.121240	0.769321
H224	H	1.718494	0.378760	1.269321
H225	H	1.652867	-0.184852	1.205700
H226	H	2.152867	0.315148	1.705700
