data_functionalizedCrystal
_audit_creation_method	'MofGen! by Chris Wilmer'
_symmetry_space_group_name_H-M	'P1'
_symmetry_Int_Tables_number	1
_symmetry_cell_setting	triclinic
loop_
_symmetry_equiv_pos_as_xyz
  x,y,z
_cell_length_a	8.497374
_cell_length_b	12.759401
_cell_length_c	12.759399
_cell_angle_alpha	89.983359
_cell_angle_beta	89.991562
_cell_angle_gamma	90.001753
loop_
_atom_site_label
_atom_site_type_symbol
_atom_site_fract_x
_atom_site_fract_y
_atom_site_fract_z
Zn1	Zn	0.891958	1.606064	0.418406
Zn2	Zn	0.628160	1.606013	0.594052
Zn3	Zn	0.628185	1.430422	0.418393
Zn4	Zn	0.891892	1.430354	0.594048
O5	O	0.760048	1.518213	0.506225
O6	O	0.856982	1.753079	0.441713
O7	O	0.407401	1.582728	0.570747
O8	O	0.663213	1.453771	0.271373
O9	O	0.663171	1.753041	0.570760
O10	O	0.857005	1.582815	0.271383
O11	O	0.407419	1.453722	0.441691
O12	O	0.663149	1.283392	0.441686
O13	O	1.112663	1.453655	0.570752
O14	O	0.856893	1.283342	0.570739
O15	O	1.112711	1.582749	0.441709
O16	O	0.663107	1.582661	0.741073
O17	O	0.856869	1.453605	0.741069
C18	C	0.760017	1.245246	0.506212
C19	C	0.760041	1.128469	0.506232
C20	C	0.860765	1.073609	0.573532
C21	C	0.860796	0.963885	0.573536
C22	C	0.659366	0.963891	0.438937
C23	C	0.659344	1.073613	0.438928
C24	C	0.760013	1.518149	0.779192
C25	C	0.760050	1.518217	0.895969
C26	C	1.171529	1.518205	0.506226
C27	C	1.350173	1.518208	0.506237
C28	C	0.760081	1.792246	0.506238
C29	C	0.760095	1.909023	0.506244
C30	C	0.760119	1.518307	0.232191
C31	C	0.760149	1.518346	0.115415
C32	C	0.659273	1.585494	0.950797
C33	C	0.659326	1.585561	1.060521
C34	C	0.860938	1.451067	1.060578
C35	C	0.860891	1.451006	0.950856
H36	H	0.577380	0.919214	0.384142
O37	O	0.561109	1.650734	0.897593
C38	C	0.292809	1.701825	0.864009
C39	C	0.403800	1.627888	0.924342
H40	H	0.165600	1.683366	0.885597
H41	H	0.320505	1.786555	0.885522
H42	H	0.310163	1.690242	0.776174
H43	H	0.386508	1.639377	1.012191
H44	H	0.376077	1.543186	0.902742
O45	O	0.958417	0.910478	0.638965
C46	C	0.979291	0.786618	0.780884
C47	C	0.868552	0.847016	0.706834
H48	H	0.906679	0.735311	0.835790
H49	H	1.061899	0.735201	0.732800
H50	H	1.051289	0.844696	0.828934
H51	H	0.796452	0.789013	0.658769
H52	H	0.786048	0.898448	0.754979
O53	O	0.958573	1.385597	0.897473
C54	C	0.979556	1.243636	0.773748
C55	C	0.868757	1.317651	0.834120
H56	H	0.906984	1.188669	0.722529
H57	H	1.062058	1.291744	0.722245
H58	H	1.051665	1.195652	0.831842
H59	H	0.796546	1.365652	0.776101
H60	H	0.786359	1.269483	0.885638
O61	O	0.561507	1.651084	1.113634
C62	C	0.485285	1.829891	1.147012
C63	C	0.596139	1.755781	1.086801
H64	H	0.513268	1.914555	1.125357
H65	H	0.358021	1.811594	1.125458
H66	H	0.502570	1.818382	1.234866
H67	H	0.578994	1.767248	0.998934
H68	H	0.723362	1.774096	1.108443
H69	H	0.943037	1.396344	1.105281
O70	O	0.958816	1.126850	0.638788
C71	C	1.227025	1.160388	0.690102
C72	C	1.116156	1.100050	0.616121
H73	H	1.354255	1.138726	0.671818
H74	H	1.209847	1.248246	0.678536
H75	H	1.199028	1.138805	0.774785
H76	H	1.144083	1.121545	0.531410
H77	H	1.133353	1.012207	0.627779
O78	O	0.561344	1.126749	0.373516
C79	C	0.361623	1.115187	0.239968
C80	C	0.472487	1.054880	0.314009
H81	H	0.289777	1.057106	0.191821
H82	H	0.278894	1.166509	0.288061
H83	H	0.434217	1.166603	0.185153
H84	H	0.400020	1.003407	0.368838
H85	H	0.555220	1.003623	0.265850
