data_functionalizedCrystal
_audit_creation_method	'MofGen! by Chris Wilmer'
_symmetry_space_group_name_H-M	'P1'
_symmetry_Int_Tables_number	1
_symmetry_cell_setting	triclinic
loop_
_symmetry_equiv_pos_as_xyz
  x,y,z
_cell_length_a	19.805407
_cell_length_b	12.594516
_cell_length_c	19.805399
_cell_angle_alpha	90.021665
_cell_angle_beta	90.020409
_cell_angle_gamma	90.020113
loop_
_atom_site_label
_atom_site_type_symbol
_atom_site_fract_x
_atom_site_fract_y
_atom_site_fract_z
Zn1	Zn	1.034774	-0.423712	0.382763
Zn2	Zn	1.034706	-0.601705	0.269586
Zn3	Zn	0.921589	-0.423747	0.269586
Zn4	Zn	0.921569	-0.601655	0.382731
O5	O	0.978159	-0.512705	0.326166
O6	O	1.129482	-0.447329	0.367763
O7	O	1.019680	-0.578135	0.174869
O8	O	0.936641	-0.274797	0.284612
O9	O	1.129431	-0.578100	0.284613
O10	O	1.019797	-0.274771	0.367762
O11	O	0.936574	-0.447390	0.174869
O12	O	0.826870	-0.447341	0.284581
O13	O	0.936606	-0.578014	0.477452
O14	O	0.826855	-0.578048	0.367709
O15	O	1.019778	-0.447280	0.477475
O16	O	1.019660	-0.750644	0.284582
O17	O	0.936539	-0.750607	0.367709
C18	C	0.802303	-0.512694	0.326142
C19	C	0.727071	-0.512715	0.326147
C20	C	0.265310	-0.444739	0.369555
C21	C	0.335999	-0.444741	0.369550
C22	C	0.371310	-0.512721	0.326188
C23	C	0.335929	-0.580710	0.282833
C24	C	0.265242	-0.580713	0.282842
C25	C	0.621002	-0.580702	0.282797
C26	C	0.691694	-0.580692	0.282790
C27	C	0.691759	-0.444731	0.369506
C28	C	0.621072	-0.444733	0.369514
C29	C	0.585697	-0.512726	0.326162
C30	C	0.509049	-0.512725	0.326169
C31	C	0.447957	-0.512718	0.326178
C32	C	0.978109	-0.789246	0.326157
C33	C	0.978149	-0.907551	0.326176
C34	C	0.932976	-1.047586	0.371366
C35	C	0.994681	-0.976674	0.387974
C36	C	0.916450	-0.976891	0.309598
C37	C	1.039997	-1.047424	0.342841
C38	C	0.961724	-1.047648	0.264436
C39	C	1.023472	-0.976768	0.281021
C40	C	1.154702	-0.512716	0.326191
C41	C	1.229934	-0.512721	0.326202
C42	C	0.978197	-0.512638	0.502709
C43	C	0.978214	-0.512609	0.577941
C44	C	0.978229	-0.235084	0.326190
C45	C	0.978259	-0.116778	0.326201
C46	C	0.978161	-0.512695	0.150310
C47	C	0.978276	-0.512423	0.075079
C48	C	1.021522	-0.444532	0.613298
C49	C	1.021529	-0.444502	0.683987
C50	C	0.978230	-0.512553	0.719317
C51	C	0.934917	-0.580633	0.683955
C52	C	0.934907	-0.580658	0.613267
C53	C	0.934955	-0.580534	0.969028
C54	C	0.934970	-0.580506	1.039720
C55	C	1.021577	-0.444378	1.039748
C56	C	1.021567	-0.444402	0.969060
C57	C	0.978252	-0.512477	0.933704
C58	C	0.978244	-0.512509	0.857056
C59	C	0.978241	-0.512528	0.795964
H60	H	0.720442	-0.636054	0.247478
H61	H	0.236439	-0.636073	0.247540
Br62	Br	0.739772	-0.352455	0.428344
Br63	Br	1.017923	-0.924719	0.475013
Br64	Br	0.573002	-0.672946	0.223941
Br65	Br	0.383850	-0.672977	0.223988
H66	H	1.092237	-1.078280	0.356934
Br67	Br	0.384007	-0.352485	0.428395
H68	H	0.894776	-1.078677	0.409600
Br69	Br	0.573153	-0.352468	0.428362
Br70	Br	1.087289	-0.925264	0.217341
Br71	Br	1.080363	-0.351986	1.087734
Br72	Br	0.876125	-0.673044	0.565281
H73	H	0.947763	-1.078845	0.212229
Br74	Br	0.217395	-0.352468	0.428402
Br75	Br	0.829407	-0.925239	0.286209
H76	H	1.056783	-0.389120	0.584538
H77	H	1.056797	-0.389069	0.712772
Br78	Br	1.080335	-0.352049	0.921116
Br79	Br	0.876205	-0.672870	1.087668
H80	H	0.899695	-0.635980	0.940250
Br81	Br	0.876150	-0.672984	0.731901
