data_functionalizedCrystal
_audit_creation_method	'MofGen! by Chris Wilmer'
_symmetry_space_group_name_H-M	'P1'
_symmetry_Int_Tables_number	1
_symmetry_cell_setting	triclinic
loop_
_symmetry_equiv_pos_as_xyz
  x,y,z
_cell_length_a	15.298708
_cell_length_b	15.297327
_cell_length_c	12.759393
_cell_angle_alpha	80.357027
_cell_angle_beta	80.355485
_cell_angle_gamma	107.405650
loop_
_atom_site_label
_atom_site_type_symbol
_atom_site_fract_x
_atom_site_fract_y
_atom_site_fract_z
Zn1	Zn	1.357709	-0.123858	0.345798
Zn2	Zn	1.330664	-0.279429	0.206887
Zn3	Zn	1.202172	-0.150853	0.206862
Zn4	Zn	1.175237	-0.306294	0.419205
O5	O	1.266446	-0.215109	0.294688
O6	O	1.484261	-0.121955	0.296660
O7	O	1.313574	-0.262428	0.059883
O8	O	1.245396	-0.017112	0.194560
O9	O	1.464391	-0.236252	0.194603
O10	O	1.359668	0.002721	0.296636
O11	O	1.219171	-0.167963	0.059864
O12	O	1.068460	-0.194013	0.265741
O13	O	1.199488	-0.282039	0.556468
O14	O	1.048670	-0.308215	0.421748
O15	O	1.333549	-0.148004	0.502536
O16	O	1.287455	-0.413153	0.265783
O17	O	1.173263	-0.432890	0.421772
C18	C	1.024821	-0.256959	0.351708
C19	C	0.921449	-0.274885	0.376132
C20	C	0.671237	-0.087221	0.120441
C21	C	0.768361	-0.070373	0.097494
C22	C	0.806638	-0.121500	0.167151
C23	C	0.747781	-0.189477	0.259760
C24	C	0.650649	-0.206321	0.282714
C25	C	0.786049	-0.240600	0.329424
C26	C	0.727193	-0.308578	0.422034
C27	C	0.630070	-0.325419	0.444983
C28	C	0.591793	-0.274293	0.375326
C29	C	0.883182	-0.223756	0.306470
C30	C	0.862594	-0.342857	0.468743
C31	C	0.765470	-0.359704	0.491691
C32	C	1.224527	-0.456766	0.351763
C33	C	1.206679	-0.560133	0.376195
C34	C	1.394390	-0.810243	0.120336
C35	C	1.411158	-0.713124	0.097376
C36	C	1.360040	-0.674871	0.167079
C37	C	1.292150	-0.733747	0.259746
C38	C	1.275375	-0.830876	0.282704
C39	C	1.241026	-0.695505	0.329446
C40	C	1.173136	-0.754381	0.422113
C41	C	1.156364	-0.851500	0.445067
C42	C	1.207482	-0.889753	0.375365
C43	C	1.257801	-0.598376	0.306488
C44	C	1.138786	-0.619010	0.468856
C45	C	1.122018	-0.716129	0.491816
C46	C	1.509013	-0.173095	0.237446
C47	C	1.612381	-0.155192	0.213052
C48	C	1.266531	-0.215007	0.568684
C49	C	1.266567	-0.214964	0.685445
C50	C	1.308553	0.027497	0.237407
C51	C	1.326497	0.130881	0.212997
C52	C	1.266426	-0.215133	0.021729
C53	C	1.266615	-0.214883	-0.095135
C54	C	1.336379	-0.145162	0.712222
C55	C	1.336401	-0.145119	0.821933
C56	C	1.196796	-0.284689	0.878081
C57	C	1.196771	-0.284727	0.768372
C58	C	1.388705	-0.029617	0.938129
C59	C	1.458531	0.040180	0.964909
C60	C	1.551744	0.070163	0.904526
C61	C	1.575148	0.030340	0.817363
C62	C	1.505327	-0.039463	0.790589
C63	C	1.412104	-0.069431	0.850970
C64	C	1.144476	-0.400229	0.652172
C65	C	1.074658	-0.470036	0.625397
C66	C	0.981441	-0.500030	0.685781
C67	C	0.958037	-0.460222	0.772950
C68	C	1.027855	-0.390414	0.799726
C69	C	1.121071	-0.360420	0.739334
H70	H	0.717536	-0.415052	0.567095
F71	F	1.626056	0.144445	0.933033
H72	H	0.816274	-0.015028	0.022089
F73	F	1.099571	-0.512411	0.532629
F74	F	0.945810	-0.151412	0.207911
F75	F	0.630495	-0.032807	0.046326
F76	F	1.378088	-0.571474	0.142818
F77	F	0.488422	-0.292217	0.399747
F78	F	1.122521	-0.358935	0.966346
F79	F	0.910006	-0.103566	0.142726
F80	F	1.410660	-0.070912	0.623968
H81	H	1.220379	-0.375805	0.602992
F82	F	0.907139	-0.574341	0.657293
H83	H	0.893758	-0.384485	0.525467
F84	F	0.858825	-0.492145	0.837222
F85	F	1.189343	-0.993169	0.399532
H86	H	1.313077	-0.550448	0.231038
F87	F	1.084105	-0.914159	0.543689
F88	F	1.433619	0.082560	1.057673
F89	F	1.002944	-0.348046	0.892500
H90	H	1.466433	-0.665191	0.021927
H91	H	1.097159	-0.587866	0.525612
F92	F	0.567434	-0.397758	0.543555
H93	H	1.524384	-0.071890	0.719626
H94	H	1.435997	-0.841399	0.063589
H95	H	1.066741	-0.764079	0.567266
H96	H	1.651055	0.054753	0.768209
H97	H	1.312804	-0.054018	0.987296
