data_functionalizedCrystal
_audit_creation_method	'MofGen! by Chris Wilmer'
_symmetry_space_group_name_H-M	'P1'
_symmetry_Int_Tables_number	1
_symmetry_cell_setting	triclinic
loop_
_symmetry_equiv_pos_as_xyz
  x,y,z
_cell_length_a	14.519709
_cell_length_b	10.489716
_cell_length_c	12.996460
_cell_angle_alpha	89.997908
_cell_angle_beta	90.000034
_cell_angle_gamma	84.104640
loop_
_atom_site_label
_atom_site_type_symbol
_atom_site_fract_x
_atom_site_fract_y
_atom_site_fract_z
O1	O	1.224769	0.167206	-0.085423
O2	O	0.956398	0.186896	-0.085454
O3	O	1.096702	-0.008613	-0.085441
O4	O	1.084465	0.362714	-0.085435
O5	O	1.096687	-0.008624	0.085692
O6	O	0.956384	0.186885	0.085680
O7	O	1.224754	0.167195	0.085710
Cu8	Cu	1.090568	0.177039	0.101321
Cu9	Cu	1.090585	0.177052	-0.101064
O10	O	1.084450	0.362704	0.085698
C11	C	0.922026	0.185973	0.000109
C12	C	0.819630	0.183223	0.000097
C13	C	0.444680	0.173100	0.000144
C14	C	0.549003	0.175911	0.000131
C15	C	0.632152	0.178161	0.000120
C16	C	0.736481	0.180973	0.000108
C17	C	1.095775	-0.056141	0.000122
C18	C	1.093025	-0.197743	0.000113
C19	C	1.179063	-0.296314	0.000132
C20	C	1.133606	-0.373195	-0.084249
C21	C	1.133571	-0.373170	0.084476
C22	C	1.047603	-0.272759	-0.084338
C23	C	1.047581	-0.272729	0.084463
C24	C	1.002060	-0.349560	0.000062
C25	C	1.259126	0.168118	0.000145
C26	C	1.361523	0.170868	0.000151
C27	C	1.085377	0.410232	0.000132
C28	C	1.088128	0.551834	0.000135
N29	N	1.090562	0.177029	0.243668
N30	N	1.090598	0.177051	-0.243411
C31	C	1.090584	0.177053	0.663483
C32	C	1.090575	0.177051	0.546677
C33	C	1.090573	0.177042	0.453579
C34	C	1.090564	0.177038	0.336767
H35	H	1.253902	-0.272417	0.000054
H36	H	1.011309	-0.229073	-0.155753
H37	H	1.169904	-0.417026	0.155811
C38	C	0.999036	-0.214345	0.179543
C39	C	0.906909	-0.242785	0.180186
C40	C	0.862173	-0.189038	0.267773
H41	H	1.000566	-0.124040	0.178598
H42	H	1.029647	-0.248923	0.239472
H43	H	0.876306	-0.208202	0.120272
H44	H	0.905353	-0.333079	0.181146
H45	H	0.892784	-0.223616	0.327702
H46	H	0.863709	-0.098735	0.266820
H47	H	0.799663	-0.208336	0.268226
C48	C	1.181860	-0.431733	-0.179450
C49	C	1.118802	-0.493810	-0.237823
C50	C	1.163222	-0.547728	-0.325532
H51	H	1.231980	-0.491912	-0.159298
H52	H	1.204634	-0.366008	-0.219515
H53	H	1.096042	-0.559527	-0.197765
H54	H	1.068680	-0.433658	-0.258001
H55	H	1.185997	-0.482003	-0.365597
H56	H	1.213342	-0.607901	-0.305371
H57	H	1.120443	-0.589842	-0.365154
C58	C	0.902182	-0.381034	-0.000216
C59	C	0.857575	-0.329759	-0.088725
C60	C	0.765572	-0.358744	-0.089027
H61	H	0.871297	-0.345116	0.059082
H62	H	0.900918	-0.471406	0.000301
H63	H	0.858833	-0.239406	-0.089232
H64	H	0.888433	-0.365669	-0.148037
H65	H	0.764309	-0.449115	-0.088510
H66	H	0.734696	-0.322824	-0.029726
H67	H	0.735297	-0.323969	-0.149083
