data_functionalizedCrystal
_audit_creation_method	'MofGen! by Chris Wilmer'
_symmetry_space_group_name_H-M	'P1'
_symmetry_Int_Tables_number	1
_symmetry_cell_setting	triclinic
loop_
_symmetry_equiv_pos_as_xyz
  x,y,z
_cell_length_a	10.654550
_cell_length_b	14.048226
_cell_length_c	10.654551
_cell_angle_alpha	90.004645
_cell_angle_beta	84.485180
_cell_angle_gamma	90.003199
loop_
_atom_site_label
_atom_site_type_symbol
_atom_site_fract_x
_atom_site_fract_y
_atom_site_fract_z
O1	O	1.667845	0.079086	0.176402
O2	O	1.302367	0.079103	0.193208
O3	O	1.493508	0.079092	0.002066
O4	O	1.476704	0.079097	0.367544
O5	O	1.493485	-0.079230	0.002054
O6	O	1.302344	-0.079219	0.193196
O7	O	1.667822	-0.079236	0.176390
Zn8	Zn	1.485079	-0.104364	0.184791
Zn9	Zn	1.485110	0.104231	0.184807
O10	O	1.476681	-0.079225	0.367532
C11	C	1.255557	-0.000056	0.191968
C12	C	1.116114	-0.000049	0.188276
N13	N	1.485067	-0.246725	0.184780
C14	C	1.036629	-0.000050	0.300818
C15	C	0.905608	-0.000067	0.297341
C16	C	0.933570	-0.000077	0.068772
C17	C	1.064589	-0.000067	0.072249
C18	C	1.569732	-0.296548	0.100178
C19	C	1.569740	-0.396205	0.100177
C20	C	1.485089	-0.446038	0.184786
C21	C	1.400416	-0.396208	0.269392
C22	C	1.400402	-0.296553	0.269386
C23	C	1.400452	-0.603923	0.269402
C24	C	1.400467	-0.703585	0.269410
C25	C	1.569790	-0.703576	0.100193
C26	C	1.569777	-0.603920	0.100187
C27	C	1.485104	-0.554097	0.184795
C28	C	1.714632	-0.000075	0.177630
C29	C	1.854075	-0.000076	0.181322
C30	C	1.492262	-0.000068	-0.044738
C31	C	1.488570	-0.000063	-0.184181
N32	N	1.485131	0.246592	0.184808
C33	C	1.486850	0.086239	-0.249679
C34	C	1.483370	0.086240	-0.380699
C35	C	1.483336	-0.086371	-0.380714
C36	C	1.486807	-0.086371	-0.249695
C37	C	1.477926	-0.000064	0.414336
C38	C	1.481619	-0.000062	0.553779
H39	H	0.840896	-0.000070	0.388984
H40	H	1.638712	-0.563346	0.031298
C41	C	1.308345	-0.757649	0.361103
C42	C	1.184761	-0.733450	0.339536
C43	C	1.099861	-0.783246	0.423961
H44	H	1.322512	-0.741356	0.445113
H45	H	1.320405	-0.824143	0.348972
H46	H	1.172706	-0.666970	0.351677
H47	H	1.170554	-0.749745	0.255542
H48	H	1.111922	-0.849741	0.411831
H49	H	1.114040	-0.766950	0.507966
H50	H	1.016001	-0.766841	0.409333
C51	C	0.877382	-0.000040	-0.057069
C52	C	0.745629	-0.000021	-0.036031
C53	C	0.693830	0.000030	-0.151928
H54	H	0.904460	-0.055235	-0.103557
H55	H	0.904527	0.055193	-0.103465
H56	H	0.718495	-0.055247	0.010345
H57	H	0.718516	0.055170	0.010437
H58	H	0.720974	0.055262	-0.198324
H59	H	0.720916	-0.055166	-0.198407
H60	H	0.604430	0.000052	-0.137669
C61	C	1.661729	-0.450427	0.008533
C62	C	1.739159	-0.507643	0.076164
C63	C	1.823905	-0.557617	-0.008218
H64	H	1.712273	-0.406590	-0.041891
H65	H	1.616141	-0.489368	-0.044152
H66	H	1.784744	-0.468706	0.128827
H67	H	1.688650	-0.551498	0.126584
H68	H	1.778317	-0.596558	-0.060903
H69	H	1.874440	-0.513773	-0.058637
H70	H	1.876443	-0.596450	0.037657
H71	H	1.129309	-0.000069	-0.019401
C72	C	1.308726	-0.549704	0.361326
C73	C	1.376286	-0.492457	0.438802
C74	C	1.291838	-0.442487	0.523487
H75	H	1.258279	-0.593543	0.411843
H76	H	1.256069	-0.510784	0.315692
H77	H	1.428921	-0.531374	0.484432
H78	H	1.426728	-0.448600	0.388319
H79	H	1.239182	-0.403567	0.477853
H80	H	1.241396	-0.486333	0.573995
H81	H	1.337665	-0.403633	0.576057
C82	C	1.661696	-0.242620	0.008174
C83	C	1.735819	-0.307588	-0.065940
C84	C	1.820538	-0.257949	-0.150724
H85	H	1.714481	-0.203729	0.053689
H86	H	1.616092	-0.203776	-0.044600
H87	H	1.781420	-0.346416	-0.013174
H88	H	1.683069	-0.346481	-0.111482
H89	H	1.774934	-0.219105	-0.203498
H90	H	1.873313	-0.219059	-0.105199
H91	H	1.870832	-0.302022	-0.201028
H92	H	1.638733	-0.744147	0.031302
H93	H	1.481903	-0.156639	-0.434071
C94	C	1.488680	0.180041	-0.178766
C95	C	1.486393	0.255620	-0.264171
C96	C	1.488057	0.342046	-0.198894
H97	H	1.563124	0.183763	-0.136587
H98	H	1.416896	0.183683	-0.118738
H99	H	1.558171	0.251979	-0.324176
H100	H	1.411955	0.251929	-0.306353
H101	H	1.416273	0.345688	-0.138866
H102	H	1.562502	0.345758	-0.156718
H103	H	1.486494	0.393336	-0.256829
H104	H	1.488200	-0.156652	-0.196364
H105	H	1.078576	-0.000043	0.395294
H106	H	1.331485	-0.436788	0.338278
C107	C	1.308684	-0.242333	0.361307
C108	C	1.376236	-0.185083	0.438787
C109	C	1.291781	-0.135115	0.523467
H110	H	1.258236	-0.286173	0.411823
H111	H	1.256028	-0.203415	0.315669
H112	H	1.428870	-0.223998	0.484421
H113	H	1.426679	-0.141226	0.388307
H114	H	1.239126	-0.096197	0.477829
H115	H	1.241338	-0.178962	0.573973
H116	H	1.337603	-0.096259	0.576039
H117	H	1.481966	0.156516	-0.434021
