data_functionalizedCrystal
_audit_creation_method	'MofGen! by Chris Wilmer'
_symmetry_space_group_name_H-M	'P1'
_symmetry_Int_Tables_number	1
_symmetry_cell_setting	triclinic
loop_
_symmetry_equiv_pos_as_xyz
  x,y,z
_cell_length_a	18.215407
_cell_length_b	18.101395
_cell_length_c	18.215399
_cell_angle_alpha	89.973573
_cell_angle_beta	89.980167
_cell_angle_gamma	90.031552
loop_
_atom_site_label
_atom_site_type_symbol
_atom_site_fract_x
_atom_site_fract_y
_atom_site_fract_z
Zn1	Zn	1.125040	-0.294828	-0.416124
Zn2	Zn	1.124935	-0.418675	-0.293061
Zn3	Zn	1.001973	-0.294853	-0.293071
Zn4	Zn	1.001925	-0.418634	-0.416086
O5	O	1.063468	-0.356747	-0.354585
O6	O	1.228010	-0.311264	-0.399811
O7	O	1.108600	-0.402277	-0.190078
O8	O	1.018362	-0.191216	-0.309415
O9	O	1.227933	-0.402253	-0.309397
O10	O	1.108779	-0.191199	-0.399821
O11	O	1.018260	-0.311305	-0.190085
O12	O	0.898982	-0.311265	-0.309378
O13	O	1.018281	-0.402183	-0.519075
O14	O	0.898947	-0.402207	-0.399756
O15	O	1.108733	-0.311224	-0.519103
O16	O	1.108554	-0.522302	-0.309360
O17	O	1.018179	-0.522272	-0.399746
C18	C	0.872262	-0.356735	-0.354564
C19	C	0.790463	-0.356747	-0.354572
C20	C	0.602270	-0.404175	-0.401573
C21	C	0.525412	-0.404177	-0.401583
C22	C	0.525418	-0.309333	-0.307613
C23	C	0.602276	-0.309328	-0.307608
C24	C	0.640700	-0.356753	-0.354587
C25	C	0.486984	-0.356761	-0.354601
C26	C	0.403650	-0.356763	-0.354611
C27	C	0.724039	-0.356750	-0.354579
C28	C	1.063370	-0.549158	-0.354564
C29	C	1.063395	-0.631472	-0.354579
C30	C	1.063557	-0.930563	-0.354619
C31	C	1.006827	-0.899249	-0.411628
C32	C	1.006557	-0.813632	-0.411450
C33	C	1.063476	-0.782180	-0.354600
C34	C	1.042479	-0.813331	-0.277038
C35	C	1.042113	-0.898976	-0.277380
C36	C	1.141408	-0.898906	-0.374487
C37	C	1.140950	-0.813255	-0.376188
C38	C	1.063432	-0.698321	-0.354584
C39	C	1.063599	-1.014422	-0.354629
C40	C	1.255421	-0.356761	-0.354607
C41	C	1.337220	-0.356766	-0.354616
C42	C	1.063513	-0.356696	-0.546538
C43	C	1.063532	-0.356675	-0.628337
C44	C	1.063587	-0.163585	-0.354623
C45	C	1.063638	-0.081271	-0.354639
C46	C	1.110648	-0.309268	-0.816547
C47	C	1.110656	-0.309246	-0.893406
C48	C	1.016469	-0.403967	-0.893365
C49	C	1.016457	-0.403984	-0.816508
C50	C	1.063551	-0.356636	-0.778101
C51	C	1.063571	-0.356597	-0.931817
C52	C	1.063580	-0.356574	-1.015151
C53	C	1.063541	-0.356657	-0.694762
C54	C	1.063466	-0.356745	-0.163379
C55	C	1.063590	-0.356558	-0.081580
H56	H	0.633553	-0.442789	-0.439829
H57	H	0.978100	-0.442556	-0.785204
H58	H	0.978129	-0.442518	-0.924646
N59	N	1.092672	-0.787788	-0.222284
N60	N	1.129446	-0.833159	-0.185918
H61	H	1.164895	-0.815119	-0.147247
H62	H	0.494124	-0.270723	-0.269363
H63	H	0.494126	-0.442792	-0.439845
N64	N	0.641524	-0.260875	-0.259611
N65	N	0.607210	-0.218538	-0.217667
H66	H	0.634929	-0.184316	-0.183772
H67	H	1.019695	-0.792568	-0.468960
N68	N	1.023187	-0.924979	-0.484016
N69	N	1.076843	-0.966700	-0.494438
H70	H	1.088413	-0.984857	-0.545567
H71	H	1.148992	-0.270712	-0.785278
N72	N	1.194444	-0.924295	-0.322408
N73	N	1.229703	-0.878805	-0.284705
H74	H	1.267156	-0.896738	-0.247922
N75	N	0.934880	-0.926337	-0.395324
N76	N	0.925203	-0.968603	-0.341900
H77	H	0.874391	-0.987735	-0.330383
H78	H	0.985204	-0.919019	-0.260549
N79	N	0.934164	-0.788016	-0.394942
N80	N	0.883682	-0.833392	-0.383510
H81	H	0.832550	-0.815303	-0.371850
N82	N	1.091672	-0.924979	-0.222260
N83	N	1.068503	-0.964583	-0.171007
H84	H	1.103497	-0.982948	-0.132074
N85	N	0.971844	-0.786500	-0.255550
N86	N	0.936846	-0.744446	-0.297224
H87	H	0.886959	-0.725495	-0.282052
H88	H	1.160552	-0.920455	-0.430081
H89	H	1.156785	-0.792893	-0.433269
H90	H	1.185453	-0.791842	-0.337692
N91	N	1.158766	-0.260852	-0.932666
N92	N	1.200804	-0.218580	-0.898362
H93	H	1.234783	-0.184398	-0.926088
