data_functionalizedCrystal
_audit_creation_method	'MofGen! by Chris Wilmer'
_symmetry_space_group_name_H-M	'P1'
_symmetry_Int_Tables_number	1
_symmetry_cell_setting	triclinic
loop_
_symmetry_equiv_pos_as_xyz
  x,y,z
_cell_length_a	10.654550
_cell_length_b	14.971486
_cell_length_c	9.130313
_cell_angle_alpha	89.995272
_cell_angle_beta	89.999724
_cell_angle_gamma	84.049530
loop_
_atom_site_label
_atom_site_type_symbol
_atom_site_fract_x
_atom_site_fract_y
_atom_site_fract_z
O1	O	1.666492	0.125631	-0.121691
O2	O	1.300885	0.137600	-0.121718
O3	O	1.493487	0.001469	-0.121693
O4	O	1.473889	0.261762	-0.121716
O5	O	1.493474	0.001465	0.121906
O6	O	1.300872	0.137596	0.121881
O7	O	1.666479	0.125627	0.121908
Cu8	Cu	1.483674	0.131611	0.144137
Cu9	Cu	1.483689	0.131616	-0.143947
O10	O	1.473876	0.261758	0.121883
C11	C	1.254090	0.136720	0.000078
C12	C	1.114675	0.134090	0.000068
C13	C	1.492604	-0.031863	0.000106
C14	C	1.489978	-0.131174	0.000104
C15	C	1.034329	0.214242	0.000065
C16	C	0.903335	0.211766	0.000091
C17	C	0.933044	0.048979	0.000116
C18	C	1.064036	0.051456	0.000101
C19	C	1.603127	-0.187783	0.000114
C20	C	1.600651	-0.281096	0.000099
C21	C	1.485026	-0.317798	0.000085
C22	C	1.371868	-0.261181	0.000071
C23	C	1.374345	-0.167870	0.000075
C24	C	1.366714	-0.455672	0.000065
C25	C	1.364237	-0.548989	0.000064
C26	C	1.593020	-0.568898	0.000089
C27	C	1.595497	-0.475587	0.000093
C28	C	1.482339	-0.418976	0.000082
C29	C	1.713274	0.126508	0.000109
C30	C	1.852689	0.129137	0.000109
C31	C	1.474759	0.295090	0.000081
C32	C	1.477385	0.394401	0.000073
N33	N	1.483672	0.131608	0.346760
N34	N	1.483701	0.131613	-0.346570
C35	C	1.568985	0.071354	0.423422
C36	C	1.568997	0.071354	0.576759
C37	C	1.398379	0.191869	0.576757
C38	C	1.398362	0.191864	0.423423
H39	H	1.075554	0.281528	0.000050
H40	H	1.692789	-0.327185	0.000110
H41	H	1.328884	0.240930	0.361000
O42	O	0.883997	-0.031341	-0.000064
C43	C	0.869239	-0.171205	-0.126299
C44	C	0.924888	-0.080281	-0.126253
H45	H	0.902255	-0.210791	-0.228327
H46	H	0.902358	-0.210920	-0.024422
H47	H	0.761816	-0.159185	-0.126224
H48	H	1.032312	-0.092219	-0.126380
H49	H	0.891669	-0.040596	-0.228121
O50	O	1.707923	-0.440081	0.000048
C51	C	1.934584	-0.469670	0.000164
C52	C	1.807351	-0.509998	0.000183
H53	H	2.015005	-0.526178	0.000305
H54	H	1.941553	-0.426506	-0.101802
H55	H	1.941380	-0.426457	0.102089
H56	H	1.800469	-0.553252	-0.101673
H57	H	1.800436	-0.553111	0.102217
O58	O	1.256711	-0.400769	-0.000141
C59	C	1.061971	-0.355146	-0.126397
C60	C	1.186481	-0.417389	-0.126336
H61	H	1.005167	-0.368548	-0.228430
H62	H	1.004982	-0.368597	-0.024525
H63	H	1.083635	-0.282158	-0.126322
H64	H	1.164932	-0.490399	-0.126463
H65	H	1.243434	-0.403861	-0.228200
O66	O	1.259469	-0.296723	0.000248
C67	C	1.063192	-0.308298	0.126469
C68	C	1.190430	-0.267975	0.126430
H69	H	1.007349	-0.285087	0.228491
H70	H	1.007193	-0.285010	0.024586
H71	H	1.080883	-0.384713	0.126399
H72	H	1.172853	-0.191559	0.126551
H73	H	1.246388	-0.291334	0.228304
O74	O	1.651719	0.012676	0.349049
C75	C	1.725092	-0.142389	0.302339
C76	C	1.631307	-0.076021	0.386604
H77	H	1.708639	-0.214115	0.332694
H78	H	1.710458	-0.132149	0.179551
H79	H	1.825680	-0.130028	0.332468
H80	H	1.530682	-0.088341	0.356598
H81	H	1.646051	-0.086276	0.509372
O82	O	1.315346	0.250311	0.651169
C83	C	1.097071	0.301307	0.698050
C84	C	1.190966	0.235055	0.613716
H85	H	0.996490	0.289008	0.667777
H86	H	1.111631	0.290961	0.820828
H87	H	1.113592	0.373051	0.667901
H88	H	1.174503	0.163284	0.643743
H89	H	1.176384	0.245479	0.490959
H90	H	0.837922	0.277034	0.000092
H91	H	1.129457	-0.013817	0.000107
H92	H	1.697282	-0.157909	0.000134
H93	H	1.685158	-0.614995	0.000093
H94	H	1.270084	-0.578868	0.000076
H95	H	1.282207	-0.121779	0.000068
H96	H	1.638465	0.022290	0.639174
