data_functionalizedCrystal
_audit_creation_method	'MofGen! by Chris Wilmer'
_symmetry_space_group_name_H-M	'P1'
_symmetry_Int_Tables_number	1
_symmetry_cell_setting	triclinic
loop_
_symmetry_equiv_pos_as_xyz
  x,y,z
_cell_length_a	8.597213
_cell_length_b	13.339070
_cell_length_c	7.088929
_cell_angle_alpha	97.913532
_cell_angle_beta	91.336194
_cell_angle_gamma	100.340273
loop_
_atom_site_label
_atom_site_type_symbol
_atom_site_fract_x
_atom_site_fract_y
_atom_site_fract_z
O1	O	2.111428	0.184427	0.506775
O2	O	1.664934	0.191303	0.433232
O3	O	1.836938	0.039542	0.461557
O4	O	1.939424	0.336188	0.478449
O5	O	1.859905	0.019214	0.147364
O6	O	1.687900	0.170974	0.119039
O7	O	2.134395	0.164099	0.192582
Cu8	Cu	1.913244	0.165680	0.127122
Cu9	Cu	1.886084	0.189721	0.498692
O10	O	1.962390	0.315859	0.164256
C11	C	1.618103	0.179268	0.266530
C12	C	1.444341	0.173681	0.237909
C13	C	1.831109	-0.008669	0.301612
C14	C	1.779506	-0.122037	0.293120
C15	C	2.180742	-0.478538	0.359208
C16	C	2.229232	-0.372025	0.367176
C17	C	2.116804	-0.309522	0.348664
C18	C	1.955879	-0.353544	0.322179
C19	C	1.907386	-0.460069	0.314195
C20	C	1.843448	-0.291053	0.303651
C21	C	1.682523	-0.335075	0.277167
C22	C	1.634038	-0.441590	0.269185
C23	C	1.746465	-0.504092	0.287698
C24	C	1.891941	-0.184528	0.311635
C25	C	1.618585	-0.166059	0.266623
C26	C	1.570096	-0.272573	0.258654
C27	C	2.181225	0.176134	0.359288
C28	C	2.354986	0.181721	0.387921
C29	C	1.968219	0.364071	0.324206
C30	C	2.019821	0.477439	0.332710
N31	N	1.932359	0.148771	-0.134218
N32	N	1.866979	0.206623	0.760033
H33	H	1.387902	0.162527	0.087580
O34	O	1.477763	-0.484427	0.243119
C35	C	1.453428	-0.556041	0.074457
H36	H	1.553904	-0.536541	-0.024107
H37	H	1.450719	-0.636869	0.111245
C38	C	1.171373	-0.575373	0.094728
C39	C	1.294773	-0.551418	-0.026337
H40	H	1.073505	-0.572527	0.032556
H41	H	1.187767	-0.527129	0.208363
H42	H	1.169136	-0.642729	0.125376
H43	H	1.297021	-0.484060	-0.056963
H44	H	1.278376	-0.599651	-0.139980
H45	H	2.022967	-0.148697	0.333198
H46	H	1.411421	0.192886	0.538241
H47	H	1.799217	0.266574	-0.169479
O48	O	2.164164	-0.206068	0.356545
C49	C	2.330309	-0.180617	0.383846
H50	H	2.375418	-0.243386	0.451460
H51	H	2.385467	-0.173870	0.240378
C52	C	2.320950	-0.000048	0.433088
C53	C	2.376352	-0.077137	0.516149
H54	H	2.349355	0.063785	0.514691
H55	H	2.209016	-0.017193	0.414688
H56	H	2.366920	0.005561	0.313534
H57	H	2.330367	-0.082755	0.635688
H58	H	2.488281	-0.059991	0.534572
H59	H	2.360256	-0.336190	0.388737
O60	O	1.413752	-0.315238	0.232660
C61	C	1.354342	-0.294150	0.058172
H62	H	1.432367	-0.222947	0.016108
H63	H	1.354326	-0.362757	-0.057143
C64	C	1.088239	-0.362074	0.131827
C65	C	1.184063	-0.274616	0.080172
H66	H	0.983201	-0.350029	0.145392
H67	H	1.128264	-0.376286	0.249379
H68	H	1.088244	-0.419238	0.035722
H69	H	1.184073	-0.217457	0.176286
H70	H	1.144034	-0.260394	-0.037365
O71	O	2.289853	-0.539274	0.377505
C72	C	2.258066	-0.590936	0.536922
H73	H	2.186821	-0.546231	0.640302
H74	H	2.187272	-0.671559	0.488027
C75	C	2.502720	-0.653755	0.510488
C76	C	2.415226	-0.598843	0.637469
H77	H	2.599662	-0.658637	0.572506
H78	H	2.524133	-0.618953	0.403081
H79	H	2.443707	-0.720936	0.469751
H80	H	2.474230	-0.531660	0.678184
H81	H	2.393826	-0.633634	0.744885
O82	O	2.013068	0.077118	-0.218119
C83	C	1.940743	-0.021327	-0.181307
H84	H	1.870331	-0.013185	-0.047532
H85	H	1.857730	-0.061589	-0.307616
C86	C	2.155473	-0.095471	-0.315483
C87	C	2.069002	-0.085472	-0.151169
H88	H	2.234587	-0.135042	-0.296901
H89	H	2.204198	-0.029148	-0.340292
H90	H	2.086279	-0.129020	-0.420725
H91	H	2.138192	-0.051912	-0.045937
H92	H	2.020292	-0.151791	-0.126342
H93	H	1.706992	-0.590824	0.281218
H94	H	1.527038	-0.115170	0.251539
