data_functionalizedCrystal
_audit_creation_method	'MofGen! by Chris Wilmer'
_symmetry_space_group_name_H-M	'P1'
_symmetry_Int_Tables_number	1
_symmetry_cell_setting	triclinic
loop_
_symmetry_equiv_pos_as_xyz
  x,y,z
_cell_length_a	15.944545
_cell_length_b	15.944493
_cell_length_c	9.730217
_cell_angle_alpha	90.002625
_cell_angle_beta	90.001375
_cell_angle_gamma	83.485608
loop_
_atom_site_label
_atom_site_type_symbol
_atom_site_fract_x
_atom_site_fract_y
_atom_site_fract_z
O1	O	1.114501	0.108308	-0.114183
O2	O	0.869948	0.121671	-0.114203
O3	O	0.998928	-0.007289	-0.114204
O4	O	0.985521	0.237268	-0.114182
O5	O	0.998924	-0.007290	0.114376
O6	O	0.869944	0.121669	0.114377
O7	O	1.114497	0.108307	0.114397
Zn8	Zn	0.992220	0.114988	0.150679
Zn9	Zn	0.992225	0.114990	-0.150485
O10	O	0.985517	0.237267	0.114398
C11	C	0.838652	0.121116	0.000084
C12	C	0.745406	0.119456	0.000076
C13	C	0.474791	0.034560	0.000083
C14	C	0.525362	0.075489	0.112792
C15	C	0.409764	0.113535	0.000099
C16	C	0.525347	0.075512	-0.112570
C17	C	0.574677	0.116440	0.000085
C18	C	0.459107	0.154443	0.112901
C19	C	0.459088	0.154454	-0.112563
C20	C	0.509626	0.195442	0.000174
C21	C	0.314762	0.111859	0.000108
C22	C	0.669676	0.118122	0.000086
C23	C	0.998378	-0.038584	0.000080
C24	C	0.996735	-0.131833	0.000063
C25	C	1.072656	-0.367594	0.000095
C26	C	1.031717	-0.418161	-0.112609
C27	C	0.993691	-0.302554	0.000079
C28	C	1.031695	-0.418138	0.112753
C29	C	0.990757	-0.467463	0.000101
C30	C	0.952773	-0.351892	-0.112718
C31	C	0.952763	-0.351866	0.112745
C32	C	0.911766	-0.402400	0.000013
C33	C	0.995384	-0.207554	0.000065
C34	C	0.989058	-0.562460	0.000105
C35	C	1.145793	0.108862	0.000107
C36	C	1.239039	0.110522	0.000107
C37	C	0.986067	0.268562	0.000111
C38	C	0.987710	0.361811	0.000120
N39	N	0.992223	0.114987	0.356216
N40	N	0.992229	0.114985	-0.356021
C41	C	1.106481	0.000826	0.356206
C42	C	1.163616	-0.056252	0.428140
C43	C	1.163624	-0.056253	0.572020
C44	C	1.106490	0.000829	0.643968
C45	C	1.049356	0.057907	0.572034
C46	C	1.049355	0.057903	0.428151
C47	C	0.935095	0.172063	0.572044
C48	C	0.935089	0.172068	0.428164
C49	C	0.877961	0.229144	0.643992
C50	C	0.820829	0.286228	0.572057
C51	C	0.820823	0.286226	0.428169
C52	C	0.877954	0.229146	0.356229
H53	H	0.554299	0.042136	0.208072
N54	N	1.075879	-0.456462	0.238962
H55	H	1.136615	-0.444090	0.238859
H56	H	1.046615	-0.431394	0.324014
H57	H	1.106487	0.000828	0.239051
H58	H	0.877957	0.229143	0.239075
N59	N	1.225217	-0.117837	0.350542
H60	H	1.216541	-0.109183	0.248479
H61	H	1.284806	-0.108107	0.375673
H62	H	0.774310	0.332696	0.630646
N63	N	0.454059	-0.055525	0.000249
H64	H	0.390772	-0.055998	-0.000614
H65	H	0.479262	-0.085631	-0.083994
N66	N	0.420944	0.198591	0.239257
H67	H	0.357777	0.197180	0.238504
H68	H	0.445725	0.168973	0.324204
N69	N	0.908638	-0.313734	-0.239085
H70	H	0.848059	-0.326603	-0.239476
H71	H	0.910122	-0.250579	-0.238269
H72	H	1.140674	-0.351967	-0.000013
N73	N	0.530121	0.285605	0.000243
H74	H	0.505779	0.315324	0.085406
H75	H	0.593394	0.286174	-0.000620
N76	N	1.225251	-0.117812	0.649607
H77	H	1.262428	-0.085680	0.709300
H78	H	1.193109	-0.155012	0.709229
H79	H	0.430136	0.187779	-0.207846
H80	H	1.065066	-0.447107	-0.207889
N81	N	0.821614	-0.422929	-0.000099
H82	H	0.791904	-0.398601	-0.085277
H83	H	0.821085	-0.486206	0.000752
H84	H	0.919442	-0.322905	0.208028
H85	H	1.106494	0.000818	0.761123
H86	H	0.877966	0.229138	0.761147
N87	N	0.563668	0.031321	-0.238779
H88	H	0.551286	-0.029412	-0.238679
H89	H	0.538609	0.060589	-0.323832
H90	H	0.774294	0.332703	0.369607
