data_functionalizedCrystal
_audit_creation_method	'MofGen! by Chris Wilmer'
_symmetry_space_group_name_H-M	'P1'
_symmetry_Int_Tables_number	1
_symmetry_cell_setting	triclinic
loop_
_symmetry_equiv_pos_as_xyz
  x,y,z
_cell_length_a	18.101398
_cell_length_b	18.101395
_cell_length_c	18.101389
_cell_angle_alpha	89.983159
_cell_angle_beta	90.024327
_cell_angle_gamma	89.973629
loop_
_atom_site_label
_atom_site_type_symbol
_atom_site_fract_x
_atom_site_fract_y
_atom_site_fract_z
Zn1	Zn	1.132121	0.295001	0.418847
Zn2	Zn	1.632121	0.795001	0.918847
Zn3	Zn	1.132017	0.418826	0.295009
Zn4	Zn	1.632017	0.918826	0.795009
Zn5	Zn	1.008280	0.294993	0.295008
Zn6	Zn	1.508280	0.794993	0.795008
Zn7	Zn	1.008231	0.418795	0.418797
Zn8	Zn	1.508231	0.918795	0.918797
O9	O	1.070162	0.356904	0.356915
O10	O	1.570162	0.856904	0.856915
O11	O	1.235740	0.311443	0.402440
O12	O	1.735740	0.811443	0.902440
O13	O	1.115580	0.402410	0.191376
O14	O	1.615580	0.902410	0.691376
O15	O	1.024772	0.191361	0.311456
O16	O	1.524772	0.691361	0.811456
O17	O	1.235664	0.402417	0.311457
O18	O	1.735664	0.902417	0.811457
O19	O	1.115757	0.191367	0.402440
O20	O	1.615757	0.691367	0.902440
O21	O	1.024671	0.311430	0.191375
O22	O	1.524671	0.811430	0.691375
O23	O	0.904641	0.311399	0.311408
O24	O	1.404641	0.811399	0.811408
O25	O	1.024688	0.402363	0.522437
O26	O	1.524688	0.902363	1.022437
O27	O	0.904604	0.402356	0.402355
O28	O	1.404604	0.902356	0.902355
O29	O	1.115710	0.311412	0.522473
O30	O	1.615710	0.811412	1.022473
O31	O	1.115532	0.522455	0.311409
O32	O	1.615532	1.022455	0.811409
O33	O	1.024587	0.522432	0.402356
O34	O	1.524587	1.022432	0.902356
C35	C	0.877752	0.356874	0.356877
C36	C	1.377752	0.856874	0.856877
C37	C	0.795437	0.356879	0.356878
C38	C	1.295437	0.856879	0.856878
C39	C	1.070205	0.356885	0.550077
C40	C	1.570205	0.856885	1.050077
C41	C	1.070223	0.356877	0.632391
C42	C	1.570223	0.856877	1.132391
C43	C	1.070063	0.549314	0.356893
C44	C	1.570063	1.049314	0.856893
C45	C	1.070088	0.631628	0.356909
C46	C	1.570088	1.131628	0.856909
C47	C	0.496347	0.356925	0.356940
C48	C	0.996347	0.856925	0.856940
C49	C	0.527670	0.299412	0.299997
C50	C	1.027670	0.799412	0.799997
C51	C	0.613288	0.299566	0.299754
C52	C	1.113288	0.799566	0.799754
C53	C	0.644729	0.356901	0.356909
C54	C	1.144729	0.856901	0.856909
C55	C	0.613611	0.434909	0.335587
C56	C	1.113611	0.934909	0.835587
C57	C	0.527966	0.434590	0.335191
C58	C	1.027966	0.934590	0.835191
C59	C	0.527961	0.337109	0.435339
C60	C	1.027961	0.837109	0.935339
C61	C	0.613612	0.335371	0.434911
C62	C	1.113612	0.835371	0.934911
C63	C	0.728589	0.356893	0.356893
C64	C	1.228589	0.856893	0.856893
C65	C	0.412487	0.356939	0.356954
C66	C	0.912487	0.856939	0.856954
C67	C	1.263324	0.356934	0.356954
C68	C	1.763324	0.856934	0.856954
C69	C	1.345638	0.356948	0.356971
C70	C	1.845638	0.856948	0.856971
C71	C	1.070282	0.163742	0.356953
C72	C	1.570282	0.663742	0.856953
C73	C	1.070333	0.081428	0.356970
C74	C	1.570333	0.581428	0.856970
C75	C	1.070251	0.930719	0.356949
C76	C	1.570251	1.430719	0.856949
C77	C	1.013163	0.899410	0.414312
C78	C	1.513163	1.399410	0.914312
C79	C	1.012892	0.813792	0.414133
C80	C	1.512892	1.313792	0.914133
C81	C	1.070170	0.782337	0.356930
C82	C	1.570170	1.282337	0.856930
C83	C	1.049041	0.813472	0.278878
C84	C	1.549041	1.313472	0.778878
C85	C	1.048673	0.899117	0.279221
C86	C	1.548673	1.399117	0.779221
C87	C	1.148593	0.899073	0.376950
C88	C	1.648593	1.399073	0.876950
C89	C	1.148132	0.813422	0.378661
C90	C	1.648132	1.313422	0.878661
C91	C	1.070126	0.698477	0.356914
C92	C	1.570126	1.198477	0.856914
C93	C	1.070293	1.014579	0.356959
C94	C	1.570293	1.514579	0.856959
C95	C	1.070162	0.356869	0.164505
C96	C	1.570162	0.856869	0.664505
C97	C	1.070287	0.356668	0.082191
C98	C	1.570287	0.856668	0.582191
C99	C	1.070266	0.356738	0.931482
C100	C	1.570266	0.856738	1.431482
C101	C	1.012801	0.413780	0.900134
C102	C	1.512801	0.913780	1.400134
C103	C	1.012956	0.414045	0.814516
C104	C	1.512956	0.914045	1.314516
C105	C	1.070244	0.356807	0.783100
C106	C	1.570244	0.856807	1.283100
C107	C	1.148270	0.377998	0.814206
C108	C	1.648270	0.877998	1.314206
C109	C	1.147949	0.378372	0.899851
C110	C	1.647949	0.878372	1.399851
C111	C	1.050385	0.278379	0.899905
C112	C	1.550385	0.778379	1.399905
C113	C	1.048649	0.278832	0.814254
C114	C	1.548649	0.778832	1.314254
C115	C	1.070237	0.356845	0.699240
C116	C	1.570237	0.856845	1.199240
C117	C	1.070279	0.356702	1.015342
C118	C	1.570279	0.856702	1.515342
H119	H	0.634329	0.241719	0.313119
H120	H	1.134329	0.741719	0.813119
H121	H	1.164065	0.793071	0.436103
H122	H	1.664065	1.293071	0.936103
C123	C	0.934791	0.396127	0.786100
C124	C	1.434791	0.896127	1.286100
N125	N	0.875913	0.382634	0.764700
N126	N	1.375913	0.882634	1.264700
C127	C	0.500592	0.393698	0.492657
C128	C	1.000592	0.893698	0.992657
N129	N	0.479972	0.436322	0.535824
N130	N	0.979972	0.936322	1.035824
H131	H	1.026082	0.472127	0.794035
H132	H	1.526082	0.972127	1.294035
H133	H	1.165415	0.434671	0.792765
H134	H	1.665415	0.934671	1.292765
H135	H	1.026111	0.792740	0.472007
H136	H	1.526111	1.292740	0.972007
C137	C	1.103441	0.785942	0.219560
C138	C	1.603441	1.285942	0.719560
N139	N	1.144415	0.765203	0.174882
N140	N	1.644415	1.265203	0.674882
C141	C	0.640923	0.317266	0.221274
C142	C	1.140923	0.817266	0.721274
N143	N	0.661737	0.330602	0.162159
N144	N	1.161737	0.830602	0.662159
H145	H	0.507954	0.451397	0.277877
H146	H	1.007954	0.951397	0.777877
H147	H	1.088449	0.919830	0.235023
H148	H	1.588449	1.419830	0.735023
C149	C	1.207669	0.323638	0.786715
C150	C	1.707669	0.823638	1.286715
N151	N	1.252408	0.282695	0.766006
N152	N	1.752408	0.782695	1.266006
H153	H	0.994478	0.259074	0.921490
H154	H	1.494478	0.759074	1.421490
C155	C	0.971306	0.926186	0.256339
C156	C	1.471306	1.426186	0.756339
N157	N	0.913030	0.946570	0.239105
N158	N	1.413030	1.446570	0.739105
C159	C	1.206053	0.926429	0.320511
C160	C	1.706053	1.426429	0.820511
N161	N	1.249327	0.947038	0.278000
N162	N	1.749327	1.447038	0.778000
H163	H	0.991229	0.262852	0.793921
H164	H	1.491229	0.762852	1.293921
H165	H	1.026252	0.919970	0.472374
H166	H	1.526252	1.419970	0.972374
C167	C	1.208634	0.784494	0.326331
C168	C	1.708634	1.284494	0.826331
N169	N	1.254202	0.762706	0.286908
N170	N	1.754202	1.262706	0.786908
H171	H	0.955448	0.920990	0.401230
H172	H	1.455448	1.420990	0.901230
H173	H	0.507244	0.478892	0.374857
H174	H	1.007244	0.978892	0.874857
C175	C	0.641132	0.494355	0.389854
C176	C	1.141132	0.994355	0.889854
N177	N	0.661865	0.539129	0.430728
N178	N	1.161865	1.039129	0.930728
C179	C	0.642533	0.458007	0.258991
C180	C	1.142533	0.958007	0.758991
N181	N	0.664315	0.475400	0.201297
N182	N	1.164315	0.975400	0.701297
C183	C	1.170713	0.455759	0.926852
C184	C	1.670713	0.955759	1.426852
N185	N	1.187856	0.514049	0.947185
N186	N	1.687856	1.014049	1.447185
H187	H	1.087450	0.234076	0.792868
H188	H	1.587450	0.734076	1.292868
H189	H	1.092240	0.235880	0.920179
H190	H	1.592240	0.735880	1.420179
H191	H	0.506120	0.312363	0.242242
H192	H	1.006120	0.812363	0.742242
C193	C	1.030363	0.491771	0.929205
C194	C	1.530363	0.991771	1.429205
N195	N	1.043596	0.550514	0.951098
N196	N	1.543596	1.050514	1.451098
H197	H	0.992380	0.792080	0.261633
H198	H	1.492380	1.292080	0.761633
C199	C	0.499877	0.221023	0.317850
C200	C	0.999877	0.721023	0.817850
N201	N	0.478938	0.161978	0.331297
N202	N	0.978938	0.661978	0.831297
C203	C	0.934397	0.396045	0.927937
C204	C	1.434397	0.896045	1.427937
N205	N	0.875341	0.382686	0.948884
N206	N	1.375341	0.882686	1.448884
H207	H	0.506389	0.281216	0.454725
H208	H	1.006389	0.781216	0.954725
H209	H	0.633956	0.277966	0.450989
H210	H	1.133956	0.777966	0.950989
C211	C	0.642522	0.387845	0.495299
C212	C	1.142522	0.887845	0.995299
N213	N	0.664296	0.427375	0.540782
N214	N	1.164296	0.927375	1.040782
C215	C	0.934431	0.786189	0.396288
C216	C	1.434431	1.286189	0.896288
N217	N	0.875326	0.765398	0.382865
N218	N	1.375326	1.265398	0.882865
C219	C	1.207763	0.324695	0.927871
C220	C	1.707763	0.824695	1.427871
N221	N	1.252819	0.284271	0.948972
N222	N	1.752819	0.784271	1.448972
C223	C	1.174615	0.928194	0.452533
C224	C	1.674615	1.428194	0.952533
N225	N	1.194206	0.950128	0.509465
N226	N	1.694206	1.450128	1.009465
