data_functionalizedCrystal
_audit_creation_method	'MofGen! by Chris Wilmer'
_symmetry_space_group_name_H-M	'P1'
_symmetry_Int_Tables_number	1
_symmetry_cell_setting	triclinic
loop_
_symmetry_equiv_pos_as_xyz
  x,y,z
_cell_length_a	10.723024
_cell_length_b	17.038272
_cell_length_c	9.798715
_cell_angle_alpha	89.996584
_cell_angle_beta	89.996609
_cell_angle_gamma	87.789713
loop_
_atom_site_label
_atom_site_type_symbol
_atom_site_fract_x
_atom_site_fract_y
_atom_site_fract_z
O1	O	1.667337	0.109720	-0.113484
O2	O	1.305156	0.120222	-0.113489
O3	O	1.484094	0.001144	-0.113475
O4	O	1.488399	0.228799	-0.113497
O5	O	1.484079	0.001144	0.113507
O6	O	1.305141	0.120222	0.113494
O7	O	1.667322	0.109720	0.113498
Zn8	Zn	1.486230	0.114971	0.149534
Zn9	Zn	1.486248	0.114971	-0.149525
O10	O	1.488384	0.228798	0.113485
C11	C	1.258578	0.119458	0.000002
C12	C	1.119813	0.117171	0.000000
C13	C	1.050993	0.183801	-0.000007
C14	C	0.907571	0.181440	-0.000008
C15	C	1.480171	-0.028006	0.000015
C16	C	1.468489	-0.114864	0.000015
C17	C	1.575744	-0.164385	0.000018
C18	C	1.564760	-0.245996	0.000005
C19	C	1.446520	-0.278084	-0.000002
C20	C	1.339256	-0.228557	-0.000009
C21	C	1.350241	-0.146947	-0.000005
C22	C	1.407711	-0.524057	-0.000021
C23	C	1.396734	-0.605673	-0.000020
C24	C	1.622239	-0.623107	-0.000009
C25	C	1.633214	-0.541495	0.000002
C26	C	1.525950	-0.491974	-0.000012
C27	C	1.435289	-0.361504	-0.000011
C28	C	1.537182	-0.408556	-0.000013
C29	C	1.713900	0.110484	0.000005
C30	C	1.852666	0.112771	-0.000003
C31	C	1.492307	0.257948	-0.000009
C32	C	1.503989	0.344806	-0.000017
N33	N	1.486226	0.114970	0.353634
N34	N	1.486261	0.114966	-0.353624
C35	C	1.561337	0.064752	0.421416
C36	C	1.561356	0.064749	0.578579
H37	H	1.672028	-0.138265	0.000031
H38	H	0.911814	0.055727	-0.000005
O39	O	1.113580	0.261685	0.000000
H40	H	1.085117	0.295435	-0.092510
O41	O	1.057231	0.039286	0.000016
H42	H	0.998178	0.034944	-0.092501
O43	O	1.680441	-0.299411	0.000030
H44	H	1.764506	-0.263388	0.000060
O45	O	1.401078	0.171923	0.569178
H46	H	1.346080	0.208711	0.642756
O47	O	1.646463	0.007785	0.344162
H48	H	1.710738	0.040969	0.279030
O49	O	0.829216	0.256999	-0.000008
H50	H	0.850657	0.291566	-0.092528
O51	O	1.646542	0.007793	0.655774
H52	H	1.633183	0.016725	0.767101
H53	H	1.729498	-0.515375	0.000007
H54	H	1.709567	-0.663435	-0.000000
H55	H	1.300443	-0.631796	-0.000003
O56	O	1.292026	-0.470650	-0.000001
H57	H	1.207964	-0.506676	0.000018
H58	H	1.421930	0.157959	0.411954
H59	H	1.262902	-0.106627	-0.000008
O60	O	1.211720	-0.263160	-0.000001
H61	H	1.222098	-0.328228	0.000017
O62	O	1.664713	-0.373954	-0.000012
H63	H	1.675101	-0.337197	0.092508
H64	H	1.339017	-0.387640	-0.000013
