data_functionalizedCrystal
_audit_creation_method	'MofGen! by Chris Wilmer'
_symmetry_space_group_name_H-M	'P1'
_symmetry_Int_Tables_number	1
_symmetry_cell_setting	triclinic
loop_
_symmetry_equiv_pos_as_xyz
  x,y,z
_cell_length_a	25.639240
_cell_length_b	25.639242
_cell_length_c	25.639234
_cell_angle_alpha	89.986377
_cell_angle_beta	90.016087
_cell_angle_gamma	89.977011
loop_
_atom_site_label
_atom_site_type_symbol
_atom_site_fract_x
_atom_site_fract_y
_atom_site_fract_z
Zn1	Zn	-0.208329	-0.799237	0.295675
Zn2	Zn	-0.295751	-0.799174	0.208247
Zn3	Zn	-0.208318	-0.711817	0.208248
Zn4	Zn	-0.295721	-0.711768	0.295646
O5	O	-0.252030	-0.755499	0.251954
O6	O	-0.219943	-0.872394	0.284089
O7	O	-0.284161	-0.787580	0.135082
O8	O	-0.135154	-0.723460	0.219858
O9	O	-0.284172	-0.872347	0.219856
O10	O	-0.135162	-0.787687	0.284090
O11	O	-0.219924	-0.723399	0.135083
O12	O	-0.219895	-0.638645	0.219830
O13	O	-0.284120	-0.723377	0.368815
O14	O	-0.284110	-0.638609	0.284041
O15	O	-0.219914	-0.787640	0.368836
O16	O	-0.368912	-0.787533	0.219828
O17	O	-0.368890	-0.723316	0.284040
C18	C	-0.387872	-0.755427	0.251942
C19	C	-0.445986	-0.755444	0.251954
C20	C	-0.251998	-0.619656	0.251933
C21	C	-0.251997	-0.561542	0.251937
C22	C	-0.252015	-0.755510	0.388327
C23	C	-0.252009	-0.755515	0.446441
C24	C	-0.697133	-0.788939	0.285434
C25	C	-0.642528	-0.788923	0.285430
O26	O	-0.614252	-0.817342	0.313878
N27	N	-0.615260	-0.755501	0.251961
C28	C	-0.642599	-0.722096	0.218490
O29	O	-0.614391	-0.693666	0.190021
C30	C	-0.697202	-0.722114	0.218492
C31	C	-0.724468	-0.755535	0.251966
C32	C	-0.724398	-0.822358	0.318905
C33	C	-0.778999	-0.822372	0.318910
C34	C	-0.806334	-0.788969	0.285443
C35	C	-0.779068	-0.755550	0.251971
C36	C	-0.724540	-0.688712	0.185018
C37	C	-0.779147	-0.688734	0.185023
C38	C	-0.806413	-0.722155	0.218498
C39	C	-0.861004	-0.722161	0.218508
N40	N	-0.888272	-0.755584	0.251977
C41	C	-0.860937	-0.788987	0.285444
C42	C	-0.527928	-0.722060	0.218488
C43	C	-0.473326	-0.722038	0.218489
C44	C	-0.473259	-0.788866	0.285428
C45	C	-0.527863	-0.788885	0.285430
C46	C	-0.555197	-0.755482	0.251957
C47	C	-0.975602	-0.789016	0.285452
C48	C	-1.030208	-0.789026	0.285455
C49	C	-1.030270	-0.722200	0.218514
C50	C	-0.975669	-0.722187	0.218512
C51	C	-0.948337	-0.755600	0.251983
O52	O	-0.889315	-0.693759	0.190073
O53	O	-0.889151	-0.817417	0.313903
C54	C	-0.115657	-0.755586	0.251978
C55	C	-0.057543	-0.755623	0.251988
C56	C	-0.218634	-0.310381	0.285448
C57	C	-0.218631	-0.364985	0.285447
O58	O	-0.190247	-0.393249	0.313943
N59	N	-0.252015	-0.392268	0.251949
C60	C	-0.285409	-0.364944	0.218455
O61	O	-0.313805	-0.393165	0.189963
C62	C	-0.285415	-0.310341	0.218459
C63	C	-0.252025	-0.283061	0.251955
C64	C	-0.185247	-0.283100	0.318942
C65	C	-0.185251	-0.228500	0.318942
C66	C	-0.218641	-0.201180	0.285449
C67	C	-0.252028	-0.228460	0.251956
C68	C	-0.318811	-0.283018	0.184968
C69	C	-0.318815	-0.228411	0.184975
C70	C	-0.285425	-0.201131	0.218471
C71	C	-0.285422	-0.146540	0.218463
N72	N	-0.252038	-0.119256	0.251961
C73	C	-0.218647	-0.146576	0.285454
C74	C	-0.285394	-0.479615	0.218449
C75	C	-0.285386	-0.534217	0.218441
C76	C	-0.218608	-0.534254	0.285434
C77	C	-0.218614	-0.479651	0.285438
C78	C	-0.252010	-0.452332	0.251946
C79	C	-0.218656	-0.031911	0.285452
C80	C	-0.218661	0.022694	0.285448
C81	C	-0.285440	0.022726	0.218458
C82	C	-0.285434	-0.031874	0.218459
C83	C	-0.252040	-0.059192	0.251961
O84	O	-0.313792	-0.118241	0.189983
O85	O	-0.190261	-0.118349	0.313946
C86	C	-0.252056	0.108128	0.251968
C87	C	-0.252051	0.050014	0.251955
C88	C	-0.252007	-0.755518	0.116111
C89	C	-0.251866	-0.755614	0.057998
C90	C	-0.285375	-0.722088	0.697618
C91	C	-0.285387	-0.722079	0.643014
O92	O	-0.313809	-0.693608	0.614763
N93	N	-0.251966	-0.755535	0.615715
C94	C	-0.218528	-0.788998	0.643024
O95	O	-0.190102	-0.817454	0.614790
C96	C	-0.218514	-0.789004	0.697627
C97	C	-0.251941	-0.755550	0.724923
C98	C	-0.318799	-0.688636	0.724914
C99	C	-0.318788	-0.688646	0.779514
C100	C	-0.285353	-0.722108	0.806819
C101	C	-0.251929	-0.755560	0.779523
C102	C	-0.185073	-0.822465	0.724935
C103	C	-0.185062	-0.822468	0.779542
C104	C	-0.218488	-0.789013	0.806837
C105	C	-0.218483	-0.789032	0.861429
N106	N	-0.251904	-0.755576	0.888727
C107	C	-0.285339	-0.722114	0.861422
C108	C	-0.218559	-0.788982	0.528353
C109	C	-0.218576	-0.788979	0.473751
C110	C	-0.285434	-0.722059	0.473744
C111	C	-0.285420	-0.722065	0.528348
C112	C	-0.251980	-0.755526	0.555652
C113	C	-0.285313	-0.722138	0.976088
C114	C	-0.285300	-0.722153	1.030693
C115	C	-0.218440	-0.789070	1.030694
C116	C	-0.218454	-0.789058	0.976094
C117	C	-0.251893	-0.755588	0.948792
O118	O	-0.190075	-0.817487	0.889714
O119	O	-0.313755	-0.693659	0.889663
H120	H	-0.953354	-0.816224	0.312706
H121	H	-0.312624	0.044980	0.191186
H122	H	-0.191424	-0.457443	0.312713
H123	H	-0.312537	-0.694879	0.953865
H124	H	-0.346012	-0.206171	0.157703
H125	H	-0.312658	-0.694811	0.451503
N126	N	-0.182594	-0.563726	0.321562
H127	H	-0.187662	-0.602456	0.316475
H128	H	-0.190789	-0.554192	0.358889
H129	H	-0.191464	-0.054147	0.312732
H130	H	-0.191220	-0.816316	1.052936
N131	N	-0.557260	-0.824937	0.321535
H132	H	-0.579903	-0.849194	0.300315
H133	H	-0.579893	-0.803646	0.345741
H134	H	-0.801193	-0.849591	0.346165
N135	N	-0.321347	-0.686064	1.060137
H136	H	-0.345579	-0.707297	1.082792
H137	H	-0.342493	-0.664868	1.034520
H138	H	-0.158063	-0.206293	0.346220
N139	N	-0.354838	-0.652561	0.808951
H140	H	-0.376017	-0.631363	0.783361
H141	H	-0.333545	-0.628380	0.831603
N142	N	-0.321391	-0.563638	0.182306
H143	H	-0.342541	-0.538041	0.161089
H144	H	-0.345619	-0.586292	0.203542
H145	H	-0.450993	-0.816066	0.312678
N146	N	-0.354854	-0.652533	0.695469
H147	H	-0.376019	-0.631342	0.721054
H148	H	-0.379067	-0.673787	0.672812
N149	N	-0.808626	-0.652707	0.148916
H150	H	-0.799147	-0.615341	0.156998
H151	H	-0.847346	-0.657830	0.154011
H152	H	-0.312618	-0.054087	0.191180
N153	N	-0.321467	-0.685972	0.557778
H154	H	-0.300206	-0.661756	0.580427
H155	H	-0.345695	-0.707234	0.580408
N156	N	-1.059613	-0.825080	0.321557
H157	H	-1.098353	-0.820023	0.316484
H158	H	-1.050060	-0.816914	0.358889
N159	N	-0.557404	-0.686022	0.182388
H160	H	-0.580070	-0.661783	0.203612
H161	H	-0.580021	-0.707328	0.158182
N162	N	-0.695141	-0.652671	0.148907
H163	H	-0.672495	-0.628412	0.170120
H164	H	-0.720784	-0.631555	0.127714
H165	H	-0.702147	-0.849561	0.346158
H166	H	-0.191362	-0.816226	0.451531
N167	N	-0.182489	-0.825074	0.557801
H168	H	-0.161321	-0.846264	0.532218
H169	H	-0.203767	-0.849262	0.580459
H170	H	-0.312588	-0.457375	0.191171
H171	H	-0.451130	-0.694818	0.191236
N172	N	-0.946257	-0.686135	0.182416
H173	H	-0.971862	-0.664974	0.161218
H174	H	-0.923598	-0.707428	0.158237
N175	N	-0.149020	-0.858548	0.695503
H176	H	-0.127838	-0.879741	0.721094
H177	H	-0.124823	-0.837278	0.672848
H178	H	-0.158057	-0.305339	0.346218
H179	H	-0.346001	-0.305221	0.157692
H180	H	-1.052536	-0.695002	0.191267
H181	H	-0.191468	0.044903	0.312724
N182	N	-0.148990	-0.858555	0.808991
H183	H	-0.127818	-0.879744	0.783410
H184	H	-0.170269	-0.882745	0.831647
N185	N	-0.182409	-0.825146	0.946649
H186	H	-0.161229	-0.846347	0.972235
H187	H	-0.158211	-0.803874	0.923997
