data_functionalizedCrystal
_audit_creation_method	'MofGen! by Chris Wilmer'
_symmetry_space_group_name_H-M	'P1'
_symmetry_Int_Tables_number	1
_symmetry_cell_setting	triclinic
loop_
_symmetry_equiv_pos_as_xyz
  x,y,z
_cell_length_a	10.540514
_cell_length_b	10.654550
_cell_length_c	9.130313
_cell_angle_alpha	89.997153
_cell_angle_beta	90.004248
_cell_angle_gamma	95.499955
loop_
_atom_site_label
_atom_site_type_symbol
_atom_site_fract_x
_atom_site_fract_y
_atom_site_fract_z
O1	O	1.685841	-0.176838	0.121817
O2	O	1.316418	-0.193547	0.121816
O3	O	1.509623	-0.002456	0.121808
O4	O	1.492636	-0.367930	0.121826
O5	O	1.509609	-0.002456	-0.121791
O6	O	1.316403	-0.193547	-0.121783
O7	O	1.685827	-0.176838	-0.121781
Cu8	Cu	1.501114	-0.185193	-0.144025
Cu9	Cu	1.501131	-0.185193	0.144059
O10	O	1.492621	-0.367930	-0.121773
C11	C	1.269108	-0.192301	0.000017
C12	C	1.128159	-0.188572	0.000016
C13	C	1.057405	-0.325238	0.000026
C14	C	0.910793	-0.321405	0.000586
C15	C	0.935857	-0.114246	0.138857
C16	C	1.082394	-0.119048	0.138966
C17	C	1.082781	-0.117026	-0.138061
C18	C	0.935803	-0.115707	-0.139878
C19	C	1.508369	0.044343	0.000009
C20	C	1.504637	0.183787	0.000011
C21	C	1.733137	-0.178084	0.000021
C22	C	1.874085	-0.181813	0.000032
C23	C	1.493876	-0.414728	0.000029
C24	C	1.497608	-0.554172	0.000036
N25	N	1.501111	-0.185192	-0.346647
C26	C	1.618393	0.263243	0.000012
C27	C	1.614879	0.394264	0.000030
C28	C	1.383843	0.366362	0.000040
C29	C	1.387358	0.235343	0.000033
C30	C	1.578771	-0.262094	-0.423289
C31	C	1.578792	-0.262087	-0.576626
C32	C	1.423480	-0.108272	-0.576665
C33	C	1.423468	-0.108274	-0.423331
N34	N	1.501144	-0.185183	0.346682
H35	H	1.114253	-0.162519	-0.243319
H36	H	1.085919	-0.380679	-0.099512
N37	N	1.662533	-0.345033	-0.340582
H38	H	1.650743	-0.333368	-0.231815
H39	H	1.638259	-0.436140	-0.367384
H40	H	1.713889	0.221271	-0.000002
N41	N	1.339696	-0.025322	-0.340666
H42	H	1.278038	-0.079412	-0.277052
H43	H	1.394517	0.035614	-0.277129
H44	H	0.894784	-0.165085	-0.242583
N45	N	1.662585	-0.345018	-0.659265
H46	H	1.638351	-0.436164	-0.632586
H47	H	1.650805	-0.333247	-0.768016
N48	N	0.854251	-0.391798	-0.131207
H49	H	0.875135	-0.482292	-0.127226
H50	H	0.758703	-0.389350	-0.131025
N51	N	1.097416	-0.397612	0.131702
H52	H	1.161176	-0.342256	0.191348
H53	H	1.020190	-0.424102	0.193828
N54	N	0.855482	-0.391483	0.133194
H55	H	0.876483	-0.481942	0.129281
H56	H	0.893030	-0.350074	0.224974
N57	N	1.339740	-0.025321	-0.659386
H58	H	1.278089	-0.079415	-0.723010
H59	H	1.290626	0.023388	-0.587474
N60	N	1.119780	-0.184408	0.276957
H61	H	1.041102	-0.209837	0.337142
H62	H	1.162797	-0.261965	0.250188
H63	H	1.130437	-0.018657	0.144889
N64	N	0.906361	0.021564	0.145182
H65	H	0.852541	0.040642	0.057909
H66	H	0.858300	0.036220	0.238359
N67	N	0.903738	0.019042	-0.151614
H68	H	0.848518	0.039241	-0.066009
H69	H	0.984967	0.077601	-0.150697
N70	N	1.737571	0.479968	0.000013
H71	H	1.741278	0.534941	0.090319
H72	H	1.812325	0.427337	-0.000059
N73	N	0.879474	-0.175643	0.276242
H74	H	0.919834	-0.131508	0.364974
H75	H	0.784512	-0.169179	0.277683
N76	N	1.145423	0.016502	-0.139858
H77	H	1.202920	0.030636	-0.051715
H78	H	1.197471	0.030750	-0.232269
N79	N	1.257354	0.421969	0.000057
H80	H	1.272386	0.517026	0.000056
H81	H	1.207519	0.392979	-0.090249
H82	H	1.294718	0.170646	0.000036
