data_functionalizedCrystal
_audit_creation_method	'MofGen! by Chris Wilmer'
_symmetry_space_group_name_H-M	'P1'
_symmetry_Int_Tables_number	1
_symmetry_cell_setting	triclinic
loop_
_symmetry_equiv_pos_as_xyz
  x,y,z
_cell_length_a	6.817900
_cell_length_b	12.200863
_cell_length_c	14.858340
_cell_angle_alpha	93.924527
_cell_angle_beta	104.519754
_cell_angle_gamma	107.143441
loop_
_atom_site_label
_atom_site_type_symbol
_atom_site_fract_x
_atom_site_fract_y
_atom_site_fract_z
V1	V	-4.056885	-0.159444	-0.290055
V2	V	-3.723551	0.173889	0.043278
V3	V	-3.390218	0.507222	0.376611
O4	O	-4.024763	0.006909	-0.284437
O5	O	-3.691430	0.340242	0.048897
O6	O	-3.358096	0.673576	0.382230
O7	O	-4.026528	-0.315427	-0.288165
O8	O	-3.693195	0.017906	0.045168
O9	O	-3.359862	0.351240	0.378502
O10	O	-4.013258	-0.157322	-0.416516
O11	O	-3.679925	0.176011	-0.083182
O12	O	-3.346591	0.509345	0.250151
O13	O	-4.038125	-0.152291	-0.155197
O14	O	-3.704792	0.181043	0.178136
O15	O	-3.371459	0.514376	0.511469
V16	V	-4.537556	-0.139507	-0.273914
V17	V	-4.204223	0.193826	0.059419
V18	V	-3.870889	0.527159	0.392753
O19	O	-4.324398	-0.203177	-0.325463
O20	O	-3.991065	0.130156	0.007870
O21	O	-3.657732	0.463489	0.341204
O22	O	-4.720240	-0.095774	-0.238506
O23	O	-4.386906	0.237559	0.094827
O24	O	-4.053573	0.570892	0.428160
O25	O	-4.344706	0.016475	-0.275804
O26	O	-4.011373	0.349809	0.057529
O27	O	-3.678039	0.683142	0.390863
O28	O	-4.687075	-0.305861	-0.279533
O29	O	-4.353741	0.027473	0.053801
O30	O	-4.020408	0.360806	0.387134
O31	O	-4.673712	-0.146661	-0.408772
O32	O	-4.340379	0.186672	-0.075438
O33	O	-4.007046	0.520006	0.257895
O34	O	-4.357976	-0.141630	-0.147453
O35	O	-4.024643	0.191704	0.185880
O36	O	-3.691310	0.525037	0.519213
C37	C	-3.875764	-0.353442	-0.283613
C38	C	-3.542431	-0.020109	0.049720
C39	C	-3.209098	0.313225	0.383053
C40	C	-3.932263	-0.480962	-0.282911
C41	C	-3.598930	-0.147629	0.050422
C42	C	-3.265596	0.185704	0.383756
C43	C	-4.035667	-0.714436	-0.281632
C44	C	-3.702334	-0.381102	0.051701
C45	C	-3.369001	-0.047769	0.385035
C46	C	-3.978118	-0.584514	-0.282344
C47	C	-3.644784	-0.251181	0.050990
C48	C	-3.311451	0.082152	0.384323
C49	C	-3.858835	-0.151762	-0.447336
C50	C	-3.525502	0.181572	-0.114003
C51	C	-3.192169	0.514905	0.219330
C52	C	-3.904568	-0.151059	-0.550719
C53	C	-3.571235	0.182275	-0.217386
C54	C	-3.237902	0.515608	0.115948
C55	C	-3.941706	-0.150486	-0.634677
C56	C	-3.608373	0.182847	-0.301344
C57	C	-3.275040	0.516180	0.031989
C58	C	-3.988312	-0.149764	-0.740006
C59	C	-3.654979	0.183570	-0.406673
C60	C	-3.321646	0.516903	-0.073339
C61	C	-4.025474	-0.149188	-0.823957
C62	C	-3.692140	0.184146	-0.490624
C63	C	-3.358807	0.517479	-0.157291
C64	C	-4.072085	-0.148467	-0.929293
C65	C	-3.738751	0.184866	-0.595960
C66	C	-3.405418	0.518200	-0.262626
C67	C	-4.158813	0.054484	-0.280353
C68	C	-3.825479	0.387818	0.052980
C69	C	-3.492146	0.721151	0.386314
C70	C	-4.081553	0.182003	-0.281062
C71	C	-3.748219	0.515337	0.052272
C72	C	-3.414886	0.848670	0.385605
C73	C	-4.175741	-0.147194	-0.116628
C74	C	-3.842408	0.186140	0.216705
C75	C	-3.509075	0.519473	0.550039
C76	C	-4.109246	-0.147891	-0.013244
C77	C	-3.775913	0.185442	0.320089
C78	C	-3.442579	0.518776	0.653422
