data_functionalizedCrystal
_audit_creation_method	'MofGen! by Chris Wilmer'
_symmetry_space_group_name_H-M	'P1'
_symmetry_Int_Tables_number	1
_symmetry_cell_setting	triclinic
loop_
_symmetry_equiv_pos_as_xyz
  x,y,z
_cell_length_a	14.971486
_cell_length_b	11.026607
_cell_length_c	14.048226
_cell_angle_alpha	89.996210
_cell_angle_beta	89.998499
_cell_angle_gamma	96.100073
loop_
_atom_site_label
_atom_site_type_symbol
_atom_site_fract_x
_atom_site_fract_y
_atom_site_fract_z
O1	O	1.212292	0.158180	-0.079046
O2	O	0.954927	0.177123	-0.079071
O3	O	1.062279	-0.009032	-0.079057
O4	O	1.104939	0.344336	-0.079060
O5	O	1.062261	-0.009043	0.079264
O6	O	0.954908	0.177112	0.079250
O7	O	1.212274	0.158169	0.079275
Zn8	Zn	1.083588	0.167639	0.104399
Zn9	Zn	1.083612	0.167653	-0.104196
O10	O	1.104921	0.344325	0.079261
C11	C	0.921457	0.176270	0.000086
C12	C	0.821753	0.173732	0.000076
C13	C	1.054400	-0.054260	0.000101
C14	C	1.030939	-0.189008	0.000096
C15	C	0.782051	0.283093	0.000077
C16	C	0.688368	0.280700	0.000091
C17	C	0.634389	0.168945	0.000098
C18	C	0.674098	0.059576	0.000100
C19	C	0.767779	0.061969	0.000093
C20	C	0.478837	0.054594	0.000113
C21	C	0.385150	0.052200	0.000119
C22	C	0.399426	0.273325	0.000111
C23	C	0.493107	0.275718	0.000104
C24	C	0.532809	0.166348	0.000105
C25	C	1.095719	-0.262720	0.000101
C26	C	1.071472	-0.401989	0.000095
C27	C	1.245743	0.159022	0.000116
C28	C	1.345447	0.161561	0.000119
C29	C	1.112800	0.389552	0.000100
C30	C	1.136261	0.524300	0.000100
N31	N	1.083578	0.167628	0.246760
N32	N	1.083628	0.167654	-0.246556
C33	C	1.131138	0.085233	0.296584
C34	C	1.131144	0.085232	0.396242
C35	C	1.083595	0.167634	0.446074
C36	C	1.036029	0.250033	0.396242
C37	C	1.036018	0.250027	0.296587
C38	C	1.036056	0.250042	0.603957
C39	C	1.036068	0.250050	0.703619
C40	C	1.131182	0.085247	0.703612
C41	C	1.131171	0.085241	0.603956
C42	C	1.083607	0.167642	0.554132
H43	H	0.656047	0.369753	0.000090
C44	C	0.522510	-0.065714	0.000110
C45	C	0.584948	-0.094465	-0.082109
C46	C	0.628620	-0.214770	-0.082119
C47	C	0.609856	-0.306324	0.000090
C48	C	0.547415	-0.277575	0.082315
C49	C	0.503742	-0.157270	0.082325
H50	H	0.598841	-0.026690	-0.142971
H51	H	0.674843	-0.236051	-0.142988
H52	H	0.642185	-0.395381	0.000083
H53	H	0.533522	-0.345350	0.143177
H54	H	0.457520	-0.135989	0.143194
C55	C	0.811457	-0.058329	0.000090
C56	C	0.792691	-0.149873	0.082305
C57	C	0.836367	-0.270175	0.082308
C58	C	0.898810	-0.298933	0.000095
C59	C	0.917579	-0.207387	-0.082126
C60	C	0.873902	-0.087085	-0.082129
H61	H	0.746465	-0.128587	0.143169
H62	H	0.822473	-0.337943	0.143174
H63	H	0.931142	-0.387987	0.000097
H64	H	0.963805	-0.228673	-0.142990
H65	H	0.887796	-0.019316	-0.142995
H66	H	1.169871	0.018139	0.436809
C67	C	1.183445	-0.005413	0.241775
C68	C	1.235755	-0.096051	0.296586
C69	C	1.288060	-0.186702	0.241780
C70	C	1.288055	-0.186715	0.132163
C71	C	1.235743	-0.096074	0.077345
C72	C	1.183438	-0.005422	0.132151
H73	H	1.235760	-0.096044	0.377737
H74	H	1.326785	-0.253801	0.282360
H75	H	1.326775	-0.253821	0.091592
H76	H	1.235738	-0.096080	-0.003806
H77	H	1.144713	0.061676	0.091571
C78	C	1.235444	-0.421691	0.000109
C79	C	1.297759	-0.450838	0.082324
C80	C	1.396940	-0.396831	0.082331
C81	C	1.433806	-0.313676	0.000123
C82	C	1.371491	-0.284525	-0.082099
C83	C	1.272310	-0.338532	-0.082106
H84	H	1.270469	-0.512398	0.143185
H85	H	1.443070	-0.418411	0.143198
H86	H	1.507226	-0.273697	0.000128
H87	H	1.398781	-0.222965	-0.142960
H88	H	1.226180	-0.316952	-0.142972
C89	C	1.183476	-0.005397	0.549136
C90	C	1.259526	0.042189	0.480609
C91	C	1.311828	-0.048452	0.425787
C92	C	1.288080	-0.186679	0.439494
C93	C	1.212026	-0.234273	0.508024
C94	C	1.159724	-0.143632	0.562846
H95	H	1.277109	0.144519	0.470460
H96	H	1.368129	-0.013220	0.375056
H97	H	1.326797	-0.253777	0.398911
H98	H	1.194442	-0.336603	0.518173
H99	H	1.103423	-0.178864	0.613577
H100	H	1.169129	-0.222722	0.000114
C101	C	0.983755	0.340686	0.758431
C102	C	0.931427	0.431308	0.703624
C103	C	0.879113	0.521945	0.758433
C104	C	0.879125	0.521960	0.868051
C105	C	0.931454	0.431335	0.922865
C106	C	0.983769	0.340697	0.868055
H107	H	0.931416	0.431300	0.622473
H108	H	0.840375	0.589033	0.717856
H109	H	0.840398	0.589056	0.908624
H110	H	0.931465	0.431343	1.004016
H111	H	1.022507	0.273610	0.908633
H112	H	1.169911	0.018153	0.744185
H113	H	0.825994	0.374096	0.000070
H114	H	0.537055	0.366719	0.000089
H115	H	0.630141	-0.031417	0.000119
H116	H	0.367096	0.362378	0.000115
H117	H	0.997320	0.317138	0.563393
H118	H	0.341202	-0.038801	0.000126
H119	H	0.998057	-0.441982	0.000081
H120	H	0.957528	-0.229006	0.000082
H121	H	0.997308	0.317122	0.436821
H122	H	0.997288	0.317120	0.256021
