data_functionalizedCrystal
_audit_creation_method	'MofGen! by Chris Wilmer'
_symmetry_space_group_name_H-M	'P1'
_symmetry_Int_Tables_number	1
_symmetry_cell_setting	triclinic
loop_
_symmetry_equiv_pos_as_xyz
  x,y,z
_cell_length_a	16.959455
_cell_length_b	17.640280
_cell_length_c	16.959447
_cell_angle_alpha	78.773258
_cell_angle_beta	89.985678
_cell_angle_gamma	78.797529
loop_
_atom_site_label
_atom_site_type_symbol
_atom_site_fract_x
_atom_site_fract_y
_atom_site_fract_z
Zn1	Zn	1.272058	-0.314718	-0.383358
Zn2	Zn	1.772058	0.185282	0.116642
Zn3	Zn	1.298725	-0.446906	-0.224487
Zn4	Zn	1.798725	0.053094	0.275513
Zn5	Zn	1.139892	-0.314743	-0.251191
Zn6	Zn	1.639892	0.185257	0.248809
Zn7	Zn	1.166584	-0.446847	-0.356638
Zn8	Zn	1.666584	0.053153	0.143362
O9	O	1.219315	-0.380803	-0.303918
O10	O	1.719315	0.119197	0.196082
O11	O	1.386210	-0.332268	-0.362291
O12	O	1.886210	0.167732	0.137709
O13	O	1.277645	-0.429409	-0.117412
O14	O	1.777645	0.070591	0.382588
O15	O	1.135093	-0.204133	-0.291081
O16	O	1.635093	0.295867	0.208919
O17	O	1.405802	-0.429385	-0.245569
O18	O	1.905802	0.070615	0.254431
O19	O	1.232195	-0.204115	-0.388184
O20	O	1.732195	0.295885	0.111816
O21	O	1.160951	-0.332310	-0.137030
O22	O	1.660951	0.167690	0.362970
O23	O	1.032819	-0.332252	-0.265171
O24	O	1.532819	0.167748	0.234829
O25	O	1.180586	-0.429284	-0.470800
O26	O	1.680586	0.070716	0.029200
O27	O	1.052429	-0.429308	-0.342643
O28	O	1.552429	0.070692	0.157357
O29	O	1.258077	-0.332210	-0.490432
O30	O	1.758077	0.167790	0.009568
O31	O	1.303527	-0.557504	-0.219659
O32	O	1.803527	-0.057504	0.280341
O33	O	1.206444	-0.557461	-0.316750
O34	O	1.706444	-0.057461	0.183250
C35	C	1.013943	-0.380777	-0.303906
C36	C	1.513943	0.119223	0.196094
C37	C	0.926088	-0.380785	-0.303915
C38	C	1.426088	0.119215	0.196085
C39	C	0.544372	-0.330225	-0.263693
C40	C	1.044372	0.169775	0.236307
C41	C	0.564874	-0.431447	-0.344176
C42	C	1.064874	0.068553	0.155824
C43	C	0.647417	-0.431435	-0.344174
C44	C	1.147417	0.068565	0.155826
C45	C	0.678442	-0.380819	-0.303929
C46	C	1.178442	0.119181	0.196071
C47	C	0.626924	-0.330214	-0.263687
C48	C	1.126924	0.169786	0.236313
C49	C	0.698943	-0.482045	-0.384408
C50	C	1.198943	0.017955	0.115592
C51	C	0.781492	-0.482037	-0.384406
C52	C	1.281492	0.017963	0.115594
C53	C	0.812518	-0.431416	-0.344166
C54	C	1.312518	0.068584	0.155834
C55	C	0.760993	-0.380808	-0.303923
C56	C	1.260993	0.119192	0.196077
C57	C	0.792018	-0.330191	-0.263679
C58	C	1.292018	0.169809	0.236321
C59	C	0.740495	-0.279579	-0.223440
C60	C	1.240495	0.220421	0.276560
C61	C	0.657949	-0.279593	-0.223447
C62	C	1.157949	0.220407	0.276553
C63	C	0.895063	-0.431402	-0.344159
C64	C	1.395063	0.068598	0.155841
C65	C	0.874570	-0.330180	-0.263673
C66	C	1.374570	0.169820	0.236327
C67	C	1.260797	-0.586162	-0.262425
C68	C	1.760797	-0.086162	0.237575
C69	C	1.278616	-0.674015	-0.244700
C70	C	1.778616	-0.174015	0.255300
C71	C	1.084273	-0.962977	-0.438860
C72	C	1.584273	-0.462977	0.061140
C73	C	1.101018	-1.045529	-0.422179
C74	C	1.601018	-0.545529	0.077821
C75	C	1.202174	-1.045509	-0.321181
C76	C	1.702174	-0.545509	0.178819
C77	C	1.185440	-0.962956	-0.337856
C78	C	1.685440	-0.462956	0.162144
C79	C	1.126488	-0.921696	-0.396695
C80	C	1.626488	-0.421696	0.103305
C81	C	1.227655	-0.921675	-0.295692
C82	C	1.727655	-0.421675	0.204308
C83	C	1.210920	-0.839129	-0.312362
C84	C	1.710920	-0.339129	0.187638
C85	C	1.151969	-0.797864	-0.371197
C86	C	1.651969	-0.297864	0.128803
C87	C	1.109753	-0.839151	-0.413366
C88	C	1.609753	-0.339151	0.086634
C89	C	1.286603	-0.962935	-0.236849
C90	C	1.786603	-0.462935	0.263151
C91	C	1.328818	-0.921654	-0.194684
C92	C	1.828818	-0.421654	0.305316
C93	C	1.312087	-0.839107	-0.211358
C94	C	1.812087	-0.339107	0.288642
C95	C	1.253136	-0.797842	-0.270193
C96	C	1.753136	-0.297842	0.229807
C97	C	1.354303	-0.797820	-0.169190
C98	C	1.854303	-0.297820	0.330810
C99	C	1.337568	-0.715274	-0.185860
C100	C	1.837568	-0.215274	0.314140
C101	C	1.236401	-0.715296	-0.286864
C102	C	1.736401	-0.215296	0.213136
C103	C	1.425488	-0.380830	-0.303932
C104	C	1.925488	0.119170	0.196068
C105	C	1.513347	-0.380841	-0.303937
C106	C	2.013347	0.119159	0.196063
C107	C	1.219334	-0.380738	-0.510100
C108	C	1.719334	0.119262	-0.010100
C109	C	1.219343	-0.380710	-0.597962
C110	C	1.719343	0.119290	-0.097962
C111	C	1.177692	-0.174643	-0.345592
C112	C	1.677692	0.325357	0.154408
C113	C	1.159955	-0.086790	-0.363350
C114	C	1.659955	0.413210	0.136650
C115	C	1.179074	-0.431169	-0.959236
C116	C	1.679074	0.068831	-0.459236
C117	C	1.259767	-0.330085	-0.979674
C118	C	1.759767	0.169915	-0.479674
C119	C	1.259749	-0.330101	-0.897124
C120	C	1.759749	0.169899	-0.397124
C121	C	1.219394	-0.380653	-0.845627
C122	C	1.719394	0.119347	-0.345627
C123	C	1.179057	-0.431189	-0.876679
C124	C	1.679057	0.068811	-0.376679
C125	C	1.300092	-0.279573	-0.866065
C126	C	1.800092	0.220427	-0.366065
C127	C	1.300077	-0.279588	-0.783511
C128	C	1.800077	0.220412	-0.283511
C129	C	1.259717	-0.330137	-0.732013
C130	C	1.759717	0.169863	-0.232013
C131	C	1.219377	-0.380673	-0.763069
C132	C	1.719377	0.119327	-0.263069
C133	C	1.179023	-0.431225	-0.711572
C134	C	1.679023	0.068775	-0.211572
C135	C	1.138678	-0.481759	-0.742628
C136	C	1.638678	0.018241	-0.242628
C137	C	1.138697	-0.481737	-0.825180
C138	C	1.638697	0.018263	-0.325180
C139	C	1.259698	-0.330158	-0.649460
C140	C	1.759698	0.169842	-0.149460
C141	C	1.179006	-0.431245	-0.629014
C142	C	1.679006	0.068755	-0.129014
C143	C	1.219329	-0.380811	-0.098551
C144	C	1.719329	0.119189	0.401449
C145	C	1.219429	-0.380617	-0.010734
C146	C	1.719429	0.119383	0.489266
H147	H	1.188402	-0.681701	-0.334783
H148	H	1.688402	-0.181701	0.165217
C149	C	0.951735	-0.487072	-0.388419
C150	C	1.451735	0.012928	0.111581
N151	N	0.994419	-0.529004	-0.421760
N152	N	1.494419	-0.029004	0.078240
H153	H	1.292548	-0.289017	-0.624177
H154	H	1.792548	0.210983	-0.124177
H155	H	1.376814	-0.955259	-0.146775
H156	H	1.876814	-0.455259	0.353225
H157	H	1.138338	-0.730650	-0.384764
H158	H	1.638338	-0.230650	0.115236
C159	C	1.419140	-0.843216	-0.104460
C160	C	1.919140	-0.343216	0.395540
N161	N	1.467975	-0.877409	-0.055704
N162	N	1.967975	-0.377409	0.444296
H163	H	1.371943	-0.681663	-0.151525
H164	H	1.871943	-0.181663	0.348475
C165	C	1.304148	-0.274476	-1.036324
C166	C	1.804148	0.225524	-0.536324
N167	N	1.337573	-0.232584	-1.078998
N168	N	1.837573	0.267416	-0.578998
C169	C	1.019412	-0.917588	-0.503576
C170	C	1.519412	-0.417588	-0.003576
N171	N	0.970555	-0.883400	-0.552312
N172	N	1.470555	-0.383400	-0.052312
C173	C	0.908689	-0.274496	-0.219400
C174	C	1.408689	0.225504	0.280600
N175	N	0.934388	-0.232556	-0.186052
N176	N	1.434388	0.267444	0.313948
H177	H	0.615992	-0.238388	-0.190686
H178	H	1.115992	0.261612	0.309314
H179	H	1.066646	-1.079137	-0.456529
H180	H	1.566646	-0.579137	0.043471
C181	C	0.487697	-0.274553	-0.219433
C182	C	0.987697	0.225447	0.280567
N183	N	0.445008	-0.232621	-0.186096
N184	N	0.945008	0.267379	0.313904
H185	H	0.539609	-0.472661	-0.376936
H186	H	1.039609	0.027339	0.123064
C187	C	1.305014	-1.053739	-0.218515
C188	C	1.805014	-0.553739	0.281485
N189	N	1.318882	-1.122132	-0.204708
N190	N	1.818882	-0.622132	0.295292
C191	C	0.664810	-0.537722	-0.428671
C192	C	1.164810	-0.037722	0.071329
N193	N	0.639098	-0.579658	-0.462013
N194	N	1.139098	-0.079658	0.037987
H195	H	0.765767	-0.238370	-0.190669
H196	H	1.265767	0.261630	0.309331
H197	H	1.332953	-0.238421	-0.907999
H198	H	1.832953	0.261579	-0.407999
C199	C	1.134609	-0.486856	-0.572373
C200	C	1.634609	0.013144	-0.072373
N201	N	1.101170	-0.528743	-0.529711
N202	N	1.601170	-0.028743	-0.029711
H203	H	1.061754	-0.805556	-0.461285
H204	H	1.561754	-0.305556	0.038715
H205	H	0.823436	-0.523248	-0.417171
H206	H	1.323436	-0.023248	0.082829
H207	H	1.146224	-0.472309	-0.984526
H208	H	1.646224	0.027691	-0.484526
H209	H	1.105825	-0.522921	-0.700687
H210	H	1.605825	-0.022921	-0.200687
C211	C	1.094317	-0.537315	-0.859350
C212	C	1.594317	-0.037315	-0.359350
N213	N	1.060889	-0.579174	-0.885089
N214	N	1.560889	-0.079174	-0.385089
H215	H	1.332928	-0.238440	-0.758233
H216	H	1.832928	0.261560	-0.258233
H217	H	1.250170	-1.079113	-0.273272
H218	H	1.750170	-0.579113	0.226728
