data_functionalizedCrystal
_audit_creation_method	'MofGen! by Chris Wilmer'
_symmetry_space_group_name_H-M	'P1'
_symmetry_Int_Tables_number	1
_symmetry_cell_setting	triclinic
loop_
_symmetry_equiv_pos_as_xyz
  x,y,z
_cell_length_a	10.540539
_cell_length_b	11.026607
_cell_length_c	10.065875
_cell_angle_alpha	100.697662
_cell_angle_beta	98.880198
_cell_angle_gamma	83.444246
loop_
_atom_site_label
_atom_site_type_symbol
_atom_site_fract_x
_atom_site_fract_y
_atom_site_fract_z
O1	O	0.517971	-1.632406	-0.113482
O2	O	0.457324	-1.278575	-0.113485
O3	O	0.304709	-1.463562	-0.113482
O4	O	0.670585	-1.447418	-0.113485
O5	O	0.333960	-1.428289	0.113506
O6	O	0.486575	-1.243301	0.113503
O7	O	0.547222	-1.597132	0.113506
Zn8	Zn	0.521543	-1.414616	0.149544
Zn9	Zn	0.483003	-1.461091	-0.149523
O10	O	0.699836	-1.412145	0.113503
C11	C	0.271766	-1.444715	0.000010
C12	C	0.130024	-1.441094	0.000002
C13	C	0.460761	-1.215630	0.000009
C14	C	0.427408	-1.080627	0.000007
C15	C	0.543784	-1.660077	0.000010
C16	C	0.577136	-1.795082	0.000002
C17	C	-0.083873	-1.302369	-0.000508
C18	C	0.063616	-1.305961	0.000003
C19	C	0.099314	-1.485983	0.129624
C20	C	-0.048226	-1.481354	0.129734
C21	C	-0.081406	-1.524215	-0.128394
C22	C	0.065627	-1.525726	-0.130108
C23	C	0.732779	-1.430992	0.000008
C24	C	0.874520	-1.434615	0.000007
N25	N	0.547846	-1.382908	0.353649
C26	C	0.519500	-1.007620	0.000005
C27	C	0.485031	-0.868087	0.000004
N28	N	0.456692	-1.492809	-0.353628
C29	C	0.492145	-1.450050	0.421429
C30	C	0.512401	-1.425656	0.578596
H31	H	0.083037	-1.269230	-0.092915
H32	H	0.429456	-1.525590	0.363106
C33	C	0.597084	-1.323589	0.657380
N34	N	0.660866	-1.246714	0.716722
C35	C	0.120988	-1.216812	0.125743
N36	N	0.164200	-1.149663	0.220458
H37	H	0.323041	-1.039837	-0.000027
H38	H	0.623863	-1.048415	0.000012
H39	H	0.393999	-1.568352	0.588053
C40	C	0.632525	-1.280846	0.432438
N41	N	0.696307	-1.203970	0.491781
H42	H	-0.074467	-1.418236	0.226628
H43	H	0.380657	-0.827302	-0.000030
C44	C	0.718136	-0.850180	-0.000000
N45	N	0.824335	-0.891683	-0.000005
H46	H	-0.136144	-1.263433	-0.093462
C47	C	-0.083248	-1.611406	0.137700
N48	N	-0.109621	-1.709358	0.143710
H49	H	-0.113813	-1.234841	0.091924
C50	C	0.159744	-1.619026	0.136159
N51	N	0.205271	-1.719231	0.141084
H52	H	0.144449	-1.425819	0.226084
H53	H	0.083706	-1.493044	-0.225999
C54	C	-0.154073	-1.485751	-0.261120
N55	N	-0.208805	-1.456765	-0.361082
H56	H	0.110420	-1.625464	-0.137935
H57	H	-0.107365	-1.621956	-0.129265
