data_functionalizedCrystal
_audit_creation_method	'MofGen! by Chris Wilmer'
_symmetry_space_group_name_H-M	'P1'
_symmetry_Int_Tables_number	1
_symmetry_cell_setting	triclinic
loop_
_symmetry_equiv_pos_as_xyz
  x,y,z
_cell_length_a	15.298709
_cell_length_b	15.297327
_cell_length_c	15.296720
_cell_angle_alpha	107.319222
_cell_angle_beta	72.673665
_cell_angle_gamma	72.593810
loop_
_atom_site_label
_atom_site_type_symbol
_atom_site_fract_x
_atom_site_fract_y
_atom_site_fract_z
Zn1	Zn	1.290660	0.190878	0.320097
Zn2	Zn	1.290550	0.319523	0.191514
Zn3	Zn	1.162063	0.190943	0.191490
Zn4	Zn	1.093954	0.387545	0.388045
O5	O	1.209307	0.272222	0.272786
O6	O	1.426740	0.179449	0.274613
O7	O	1.301963	0.274026	0.055440
O8	O	1.207671	0.054817	0.180103
O9	O	1.426658	0.273964	0.180144
O10	O	1.302151	0.054770	0.274590
O11	O	1.207564	0.179559	0.055422
O12	O	1.016934	0.245517	0.245990
O13	O	1.091591	0.389897	0.515103
O14	O	0.966895	0.389960	0.390398
O15	O	1.236109	0.245407	0.465181
O16	O	1.235921	0.464663	0.246031
O17	O	1.091483	0.514639	0.390421
C18	C	0.956626	0.325127	0.325565
C19	C	0.848519	0.347789	0.348172
C20	C	0.771706	0.433712	0.433898
C21	C	0.670133	0.455000	0.455147
C22	C	0.645362	0.390372	0.390668
C23	C	0.722175	0.304451	0.304936
C24	C	0.823759	0.283156	0.283690
C25	C	0.697415	0.239817	0.240459
C26	C	0.774228	0.153896	0.154728
C27	C	0.875800	0.132605	0.133485
C28	C	0.900571	0.197233	0.197964
C29	C	0.595831	0.261111	0.261706
C30	C	0.647884	0.110556	0.111497
C31	C	0.749457	0.089267	0.090249
C32	C	1.156322	0.524944	0.325618
C33	C	1.133737	0.633047	0.348233
C34	C	1.156265	0.325233	0.526410
C35	C	1.133662	0.347822	0.634490
C36	C	1.462973	0.219112	0.219802
C37	C	1.571071	0.196479	0.197223
C38	C	1.262521	0.018513	0.219765
C39	C	1.285197	-0.089602	0.197170
C40	C	1.371057	0.833559	0.111399
C41	C	1.392277	0.731990	0.090146
C42	C	1.327644	0.707249	0.154666
C43	C	1.241787	0.784088	0.240443
C44	C	1.220560	0.885667	0.261693
C45	C	1.177147	0.759357	0.304960
C46	C	1.091289	0.836196	0.390737
C47	C	1.070067	0.937765	0.411984
C48	C	1.134700	0.962506	0.347464
C49	C	1.198374	0.657777	0.283709
C50	C	1.047877	0.709885	0.434004
C51	C	1.026656	0.811455	0.455257
C52	C	1.262213	0.219337	0.020123
C53	C	1.285061	0.196433	-0.088053
C54	C	1.370927	0.110592	0.835182
C55	C	1.392169	0.089368	0.733635
C56	C	1.327544	0.153979	0.708844
C57	C	1.241673	0.239819	0.785609
C58	C	1.220433	0.261049	0.887166
C59	C	1.177050	0.304437	0.760828
C60	C	1.091179	0.390276	0.837593
C61	C	1.069942	0.411502	0.939140
C62	C	1.134567	0.346891	0.963931
C63	C	1.198291	0.283207	0.659271
C64	C	1.047796	0.433664	0.711255
C65	C	1.026554	0.454888	0.812802
H66	H	0.533299	0.331068	0.331510
H67	H	1.423540	0.057999	0.855379
H68	H	0.607599	0.524957	0.524950
F69	F	1.111966	0.369478	1.072009
F70	F	1.483556	-0.001985	0.651944
H71	H	0.791887	0.486319	0.486392
F72	F	0.537258	0.413032	0.413284
F73	F	1.008677	0.174582	0.175351
H74	H	1.000026	0.481405	1.001642
H75	H	0.995175	0.486278	0.691072
F76	F	0.957549	0.041150	0.042252
F77	F	1.350396	0.599148	0.132209
F78	F	0.831217	-0.002174	-0.000990
F79	F	1.111875	1.070606	0.369834
F80	F	0.621527	0.041767	0.042871
F81	F	1.483655	0.650220	-0.001134
F82	F	1.289747	0.576011	0.192422
H83	H	1.000147	1.000326	0.481820
F84	F	1.439832	0.859899	0.042741
F85	F	0.935283	0.893243	0.546544
F86	F	0.979081	0.683561	0.502671
H87	H	1.268207	0.213314	0.596777
F88	F	1.350154	0.131387	0.600767
H89	H	0.956636	0.524779	0.875318
