data_functionalizedCrystal
_audit_creation_method	'MofGen! by Chris Wilmer'
_symmetry_space_group_name_H-M	'P1'
_symmetry_Int_Tables_number	1
_symmetry_cell_setting	triclinic
loop_
_symmetry_equiv_pos_as_xyz
  x,y,z
_cell_length_a	15.944551
_cell_length_b	15.944493
_cell_length_c	15.021413
_cell_angle_alpha	90.009890
_cell_angle_beta	89.997174
_cell_angle_gamma	83.486891
loop_
_atom_site_label
_atom_site_type_symbol
_atom_site_fract_x
_atom_site_fract_y
_atom_site_fract_z
O1	O	1.114506	0.108324	-0.073927
O2	O	0.869954	0.121680	-0.073948
O3	O	0.998934	-0.007276	-0.073945
O4	O	0.985527	0.237280	-0.073931
O5	O	0.998913	-0.007258	0.074120
O6	O	0.869933	0.121699	0.074116
O7	O	1.114486	0.108342	0.074137
Zn8	Zn	0.992206	0.115023	0.097635
Zn9	Zn	0.992233	0.114999	-0.097446
O10	O	0.985506	0.237299	0.074133
C11	C	0.838650	0.121135	0.000081
C12	C	0.745404	0.119473	0.000073
C13	C	0.998375	-0.038562	0.000084
C14	C	0.996733	-0.131810	0.000072
C15	C	0.530565	0.035566	0.000085
C16	C	0.469547	0.074520	-0.072916
C17	C	0.574679	0.116465	0.000083
C18	C	0.469549	0.074558	0.073064
C19	C	0.409767	0.113555	0.000097
C20	C	0.514889	0.155442	-0.072979
C21	C	0.514897	0.155468	0.073067
C22	C	0.453897	0.194481	0.000048
C23	C	0.669681	0.118140	0.000074
C24	C	0.314766	0.111886	0.000099
C25	C	1.072653	-0.367570	0.000095
C26	C	1.031722	-0.418147	-0.072911
C27	C	0.993688	-0.302531	0.000083
C28	C	1.031683	-0.418105	0.073069
C29	C	0.990754	-0.467441	0.000097
C30	C	0.952779	-0.351880	-0.072984
C31	C	0.952752	-0.351835	0.073061
C32	C	0.911763	-0.402379	0.000037
C33	C	0.995381	-0.207531	0.000074
C34	C	0.989055	-0.562438	0.000100
C35	C	1.145790	0.108888	0.000106
C36	C	1.239036	0.110550	0.000108
C37	C	0.986064	0.268584	0.000103
C38	C	0.987707	0.361833	0.000109
N39	N	0.992194	0.115039	0.230772
N40	N	0.992252	0.114976	-0.230584
C41	C	0.932545	0.174641	0.470454
C42	C	1.008442	0.190948	0.529796
C43	C	0.992215	0.115018	0.412379
C44	C	0.916339	0.098730	0.529779
C45	C	0.992229	0.115000	0.587803
C46	C	1.068151	0.131364	0.470415
C47	C	0.975998	0.039112	0.470392
C48	C	1.051950	0.055387	0.529708
C49	C	0.992206	0.115031	0.311322
C50	C	0.992247	0.114987	0.688859
H51	H	0.563912	-0.031574	-0.000009
H52	H	0.852166	0.084961	0.555857
H53	H	0.420724	0.261690	0.000011
H54	H	1.065039	-0.447029	0.134786
H55	H	1.022171	0.255133	0.555888
H56	H	0.962245	-0.025052	0.444279
H57	H	0.843692	-0.417845	-0.000009
H58	H	0.919424	-0.322866	0.134780
Cl59	Cl	1.167253	0.152739	0.430331
H60	H	1.102473	0.004956	0.555562
Cl61	Cl	0.854716	0.252546	0.430279
H62	H	0.919459	-0.323068	-0.134771
Cl63	Cl	0.438523	0.021684	-0.168211
H64	H	1.065078	-0.447101	-0.134628
H65	H	1.140671	-0.351942	0.000028
Cl66	Cl	0.545959	0.208265	0.168365
Cl67	Cl	0.438537	0.021721	0.168348
Cl68	Cl	0.545745	0.208218	-0.168370
