data_functionalizedCrystal
_audit_creation_method	'MofGen! by Chris Wilmer'
_symmetry_space_group_name_H-M	'P1'
_symmetry_Int_Tables_number	1
_symmetry_cell_setting	triclinic
loop_
_symmetry_equiv_pos_as_xyz
  x,y,z
_cell_length_a	12.759401
_cell_length_b	12.645330
_cell_length_c	12.645331
_cell_angle_alpha	90.001899
_cell_angle_beta	90.000296
_cell_angle_gamma	90.017853
loop_
_atom_site_label
_atom_site_type_symbol
_atom_site_fract_x
_atom_site_fract_y
_atom_site_fract_z
Zn1	Zn	1.606045	-0.422267	0.599350
Zn2	Zn	2.106045	0.077733	1.099350
Zn3	Zn	1.605986	-0.599484	0.422090
Zn4	Zn	2.105986	-0.099484	0.922090
Zn5	Zn	1.430403	-0.422235	0.422105
Zn6	Zn	1.930403	0.077765	0.922105
Zn7	Zn	1.430326	-0.599489	0.599316
Zn8	Zn	1.930326	-0.099489	1.099316
O9	O	1.518190	-0.510869	0.510715
O10	O	2.018190	-0.010869	1.010715
O11	O	1.753058	-0.445786	0.575844
O12	O	2.253058	0.054214	1.075844
O13	O	1.582702	-0.575956	0.273745
O14	O	2.082702	-0.075956	0.773745
O15	O	1.453759	-0.273892	0.445637
O16	O	1.953759	0.226108	0.945637
O17	O	1.753015	-0.575986	0.445612
O18	O	2.253015	-0.075986	0.945612
O19	O	1.582802	-0.273915	0.575859
O20	O	2.082802	0.226085	1.075859
O21	O	1.453701	-0.445732	0.273756
O22	O	1.953701	0.054268	0.773756
O23	O	1.283371	-0.445737	0.445604
O24	O	1.783371	0.054263	0.945604
O25	O	1.453628	-0.575996	0.747668
O26	O	1.953628	-0.075996	1.247668
O27	O	1.283315	-0.575965	0.575801
O28	O	1.783315	-0.075965	1.075801
O29	O	1.582728	-0.445791	0.747693
O30	O	2.082728	0.054209	1.247693
O31	O	1.582628	-0.747832	0.445579
O32	O	2.082628	-0.247832	0.945579
O33	O	1.453571	-0.747836	0.575786
O34	O	1.953571	-0.247836	1.075786
C35	C	1.245222	-0.510849	0.510701
C36	C	1.745222	-0.010849	1.010701
C37	C	1.128446	-0.510866	0.510720
C38	C	1.628446	-0.010866	1.010720
C39	C	1.073582	-0.578784	0.578401
C40	C	1.573582	-0.078784	1.078401
C41	C	0.963858	-0.578798	0.578413
C42	C	1.463858	-0.078798	1.078413
C43	C	0.963871	-0.442972	0.443053
C44	C	1.463871	0.057028	0.943053
C45	C	1.073593	-0.442954	0.443048
C46	C	1.573593	0.057046	0.943048
C47	C	1.128435	-0.646697	0.646073
C48	C	1.628435	-0.146697	1.146073
C49	C	1.073571	-0.714621	0.713759
C50	C	1.573571	-0.214621	1.213759
C51	C	0.963847	-0.714634	0.713771
C52	C	1.463847	-0.214634	1.213771
C53	C	0.908987	-0.646723	0.646096
C54	C	1.408987	-0.146723	1.146096
C55	C	1.518113	-0.786298	0.510701
C56	C	2.018113	-0.286298	1.010701
C57	C	1.518176	-0.904128	0.510730
C58	C	2.018176	-0.404128	1.010730
C59	C	1.437322	-1.071739	0.592895
C60	C	1.937322	-0.571739	1.092895
C61	C	1.436908	-0.949180	0.592631
C62	C	1.936908	-0.449180	1.092631
C63	C	1.488238	-0.948678	0.399010
C64	C	1.988238	-0.448678	0.899010
C65	C	1.487745	-1.071276	0.399508
C66	C	1.987745	-0.571276	0.899508
C67	C	1.629464	-1.071229	0.539378
C68	C	2.129464	-0.571229	1.039378
C69	C	1.628781	-0.948623	0.541821
C70	C	2.128781	-0.448623	1.041821
C71	C	1.792223	-0.510889	0.510730
C72	C	2.292223	-0.010889	1.010730
C73	C	1.909000	-0.510898	0.510737
C74	C	2.409000	-0.010898	1.010737
C75	C	1.518176	-0.510898	0.787221
C76	C	2.018176	-0.010898	1.287221
C77	C	1.518171	-0.510910	0.905051
C78	C	2.018171	-0.010910	1.405051
C79	C	1.518295	-0.234363	0.510754
C80	C	2.018295	0.265637	1.010754
C81	C	1.518340	-0.116533	0.510770
C82	C	2.018340	0.383467	1.010770
C83	C	1.436945	-0.592824	0.949917
C84	C	1.936945	-0.092824	1.449917
C85	C	1.436620	-0.592570	1.072477
C86	C	1.936620	-0.092570	1.572477
C87	C	1.488516	-0.399085	1.072954
C88	C	1.988516	0.100915	1.572954
C89	C	1.487932	-0.399572	0.950356
C90	C	1.987932	0.100428	1.450356
C91	C	1.629243	-0.539817	0.950235
C92	C	2.129243	-0.039817	1.450235
C93	C	1.628641	-0.542269	1.072841
C94	C	2.128641	-0.042269	1.572841
C95	C	1.518185	-0.510873	1.235286
C96	C	2.018185	-0.010873	1.735286
C97	C	1.518160	-0.510888	1.117456
C98	C	2.018160	-0.010888	1.617456
H99	H	1.217778	-0.646695	0.646070
H100	H	1.717778	-0.146695	1.146070
H101	H	1.692365	-0.486985	1.103463
H102	H	2.192365	0.013015	1.603463
F103	F	1.131986	-0.370668	0.371014
F104	F	1.631986	0.129332	0.871014
F105	F	1.383168	-0.908660	0.366758
F106	F	1.883168	-0.408660	0.866758
H107	H	1.354526	-0.919938	0.573679
H108	H	1.854526	-0.419938	1.073679
H109	H	1.118245	-0.769905	0.768863
H110	H	1.618245	-0.269905	1.268863
F111	F	0.905460	-0.786916	0.785814
F112	F	1.405460	-0.286916	1.285814
F113	F	1.461383	-0.909806	0.700909
F114	F	1.961383	-0.409806	1.200909
F115	F	1.665170	-1.111585	0.644050
F116	F	2.165170	-0.611585	1.144050
F117	F	0.792207	-0.646733	0.646120
F118	F	1.292207	-0.146733	1.146120
H119	H	1.455877	-1.101184	0.676007
H120	H	1.955877	-0.601184	1.176007
F121	F	1.708340	-0.461843	0.912305
F122	F	2.208340	0.038157	1.412305
F123	F	1.561521	-1.110011	0.316796
F124	F	2.061521	-0.610011	0.816796
H125	H	1.651359	-0.919505	0.624041
H126	H	2.151359	-0.419505	1.124041
H127	H	0.919195	-0.387683	0.387955
H128	H	1.419195	0.112317	0.887955
H129	H	1.355110	-0.573896	0.919109
H130	H	1.855110	-0.073896	1.419109
F131	F	1.381570	-1.108769	0.367831
F132	F	1.881570	-0.608769	0.867831
F133	F	1.330317	-1.112137	0.568458
F134	F	1.830317	-0.612137	1.068458
F135	F	1.562924	-0.910535	0.316841
F136	F	2.062924	-0.410535	0.816841
F137	F	1.711836	-0.908525	0.469337
F138	F	2.211836	-0.408525	0.969337
F139	F	1.329033	-0.567547	1.110819
F140	F	1.829033	-0.067547	1.610819
H141	H	1.689824	-1.100193	0.479562
H142	H	2.189824	-0.600193	0.979562
F143	F	1.460804	-0.700917	1.111808
F144	F	1.960804	-0.200917	1.611808
H145	H	1.455235	-0.675982	0.920440
H146	H	1.955235	-0.175982	1.420440
H147	H	1.406752	-0.375116	0.921763
H148	H	1.906752	0.124884	1.421763
H149	H	1.544541	-0.336437	0.920675
H150	H	2.044541	0.163563	1.420675
F151	F	1.563468	-0.317118	1.111032
F152	F	2.063468	0.182882	1.611032
F153	F	1.383569	-0.366558	1.113086
F154	F	1.883569	0.133442	1.613086
H155	H	1.656304	-0.619967	0.919318
H156	H	2.156304	-0.119967	1.419318
H157	H	1.651000	-0.624551	1.101924
H158	H	2.151000	-0.124551	1.601924
