data_functionalizedCrystal
_audit_creation_method	'MofGen! by Chris Wilmer'
_symmetry_space_group_name_H-M	'P1'
_symmetry_Int_Tables_number	1
_symmetry_cell_setting	triclinic
loop_
_symmetry_equiv_pos_as_xyz
  x,y,z
_cell_length_a	6.817900
_cell_length_b	14.125369
_cell_length_c	14.125465
_cell_angle_alpha	96.221150
_cell_angle_beta	100.398878
_cell_angle_gamma	100.397648
loop_
_atom_site_label
_atom_site_type_symbol
_atom_site_fract_x
_atom_site_fract_y
_atom_site_fract_z
V1	V	-3.975802	-0.132288	-0.299601
O2	O	-3.980353	0.007207	-0.294287
O3	O	-3.912214	-0.263123	-0.297177
O4	O	-3.912227	-0.129880	-0.430437
O5	O	-3.980341	-0.126958	-0.160104
V6	V	-4.463364	-0.115647	-0.282961
O7	O	-4.228200	-0.168792	-0.336101
O8	O	-4.661164	-0.079143	-0.246461
O9	O	-4.303746	0.015188	-0.285384
O10	O	-4.576210	-0.255142	-0.288275
O11	O	-4.576223	-0.120977	-0.422458
O12	O	-4.303733	-0.118055	-0.152124
C13	C	-3.754011	-0.295029	-0.292354
C14	C	-3.783206	-0.401986	-0.291245
C15	C	-3.754026	-0.125063	-0.462340
C16	C	-3.783229	-0.123960	-0.569297
C17	C	-4.021785	-0.650121	-0.293315
C18	C	-3.836760	-0.597814	-0.289250
C19	C	-3.806963	-0.488845	-0.290360
C20	C	-4.051590	-0.759100	-0.292205
C21	C	-3.836757	-0.121937	-0.765126
C22	C	-4.021778	-0.125995	-0.817436
C23	C	-4.051564	-0.124870	-0.926402
C24	C	-3.806964	-0.123063	-0.656150
C25	C	-4.125291	0.047089	-0.290205
C26	C	-4.075333	0.154045	-0.291320
C27	C	-4.125276	-0.122874	-0.120217
C28	C	-4.075312	-0.123973	-0.013258
H29	H	-4.157801	-0.613066	-0.297627
C30	C	-4.202937	-0.131816	-0.767870
C31	C	-4.136938	-0.131834	-0.668085
C32	C	-4.303759	-0.137215	-0.622393
H33	H	-4.263907	-0.077301	-0.777547
H34	H	-4.299893	-0.189985	-0.794878
H35	H	-4.040017	-0.073671	-0.641085
H36	H	-4.075989	-0.186346	-0.658380
H37	H	-4.400715	-0.195384	-0.649402
H38	H	-4.364717	-0.082698	-0.632077
H39	H	-4.259005	-0.137236	-0.554686
C40	C	-3.655652	-0.116241	-0.814711
C41	C	-3.721688	-0.116281	-0.914503
C42	C	-3.554927	-0.111052	-0.960226
H43	H	-3.558558	-0.058114	-0.787777
H44	H	-3.594848	-0.170809	-0.804980
H45	H	-3.782461	-0.061718	-0.924227
H46	H	-3.818760	-0.174403	-0.941464
H47	H	-3.494123	-0.165621	-0.950496
H48	H	-3.457844	-0.052925	-0.933285
H49	H	-3.599712	-0.111088	-1.027941
H50	H	-3.700733	-0.634871	-0.284937
