data_functionalizedCrystal
_audit_creation_method	'MofGen! by Chris Wilmer'
_symmetry_space_group_name_H-M	'P1'
_symmetry_Int_Tables_number	1
_symmetry_cell_setting	triclinic
loop_
_symmetry_equiv_pos_as_xyz
  x,y,z
_cell_length_a	16.120484
_cell_length_b	13.897449
_cell_length_c	16.120256
_cell_angle_alpha	87.125877
_cell_angle_beta	95.616173
_cell_angle_gamma	87.074300
loop_
_atom_site_label
_atom_site_type_symbol
_atom_site_fract_x
_atom_site_fract_y
_atom_site_fract_z
Zn1	Zn	-0.356769	-1.424977	-0.489549
Zn2	Zn	0.143231	-0.924977	0.010451
Zn3	Zn	-0.489455	-1.424856	-0.356858
Zn4	Zn	0.010545	-0.924856	0.143142
Zn5	Zn	-0.349700	-1.272287	-0.349784
Zn6	Zn	0.150300	-0.772287	0.150216
Zn7	Zn	-0.496500	-1.255016	-0.496571
Zn8	Zn	0.003500	-0.755016	0.003429
O9	O	-0.423106	-1.344284	-0.423190
O10	O	0.076894	-0.844284	0.076810
O11	O	-0.374380	-1.559941	-0.471969
O12	O	0.125620	-1.059941	0.028031
O13	O	-0.465009	-1.411794	-0.238958
O14	O	0.034991	-0.911794	0.261042
O15	O	-0.233673	-1.299820	-0.362425
O16	O	0.266327	-0.799820	0.137575
O17	O	-0.471864	-1.559851	-0.374482
O18	O	0.028136	-1.059851	0.125518
O19	O	-0.238866	-1.412001	-0.465109
O20	O	0.261134	-0.912001	0.034891
O21	O	-0.362332	-1.299703	-0.233760
O22	O	0.137668	-0.799703	0.266240
O23	O	-0.369163	-1.135016	-0.369234
O24	O	0.130837	-0.635016	0.130766
O25	O	-0.483871	-1.270385	-0.612601
O26	O	0.016129	-0.770385	-0.112601
O27	O	-0.477016	-1.122327	-0.477077
O28	O	0.022984	-0.622327	0.022923
O29	O	-0.381211	-1.395254	-0.607442
O30	O	0.118789	-0.895254	-0.107442
O31	O	-0.607355	-1.395047	-0.381291
O32	O	-0.107355	-0.895047	0.118709
O33	O	-0.612530	-1.270267	-0.483937
O34	O	-0.112530	-0.770267	0.016063
C35	C	-0.423088	-1.093673	-0.423150
C36	C	0.076912	-0.593673	0.076850
C37	C	-0.423101	-0.986458	-0.423154
C38	C	0.076899	-0.486458	0.076846
C39	C	-0.423103	-0.899388	-0.423165
C40	C	0.076897	-0.399388	0.076835
C41	C	-0.423109	-0.790153	-0.423186
C42	C	0.076891	-0.290153	0.076814
C43	C	-0.640271	-1.330795	-0.434162
C44	C	-0.140271	-0.830795	0.065838
C45	C	-0.733177	-1.325111	-0.438883
C46	C	-0.233177	-0.825111	0.061117
C47	C	-0.903277	-1.314738	-0.447521
C48	C	-0.403277	-0.814738	0.052479
C49	C	-0.942095	-1.374002	-0.398874
C50	C	-0.442095	-0.874002	0.101126
C51	C	-1.036744	-1.368230	-0.403680
C52	C	-0.536744	-0.868230	0.096320
C53	C	-0.808619	-1.320508	-0.442716
C54	C	-0.308619	-0.820508	0.057284
C55	C	-0.205094	-1.357850	-0.412195
C56	C	0.294906	-0.857850	0.087805
C57	C	-0.112190	-1.363632	-0.407509
C58	C	0.387810	-0.863632	0.092491
C59	C	-0.434115	-1.330906	-0.641197
C60	C	0.065885	-0.830906	-0.141197
C61	C	-0.438807	-1.325206	-0.734098
C62	C	0.061193	-0.825206	-0.234098
C63	C	-0.423121	-0.595874	-0.423221
C64	C	0.076879	-0.095874	0.076779
C65	C	-0.423117	-0.703089	-0.423207
C66	C	0.076883	-0.203089	0.076793
C67	C	-0.398619	-1.374012	-0.943027
C68	C	0.101381	-0.874012	-0.443027
C69	C	-0.447338	-1.314768	-0.904182
C70	C	0.052662	-0.814768	-0.404182
C71	C	-0.442590	-1.320577	-0.809538
C72	C	0.057410	-0.820577	-0.309538
C73	C	-0.403366	-1.368204	-1.037679
C74	C	0.096634	-0.868204	-0.537679
C75	C	-0.412079	-1.357669	-0.206029
C76	C	0.087921	-0.857669	0.293971
C77	C	-0.407152	-1.363571	-0.113117
C78	C	0.092848	-0.863571	0.386883
H79	H	-0.904243	-1.429073	-0.353616
H80	H	-0.404243	-0.929073	0.146384
H81	H	-0.353347	-1.429092	-0.905206
H82	H	0.146653	-0.929092	-0.405206
H83	H	-0.492609	-1.259679	-0.942006
H84	H	0.007391	-0.759679	-0.442006
H85	H	-0.941126	-1.259670	-0.492774
H86	H	-0.441126	-0.759670	0.007226
