data_functionalizedCrystal
_audit_creation_method	'MofGen! by Chris Wilmer'
_symmetry_space_group_name_H-M	'P1'
_symmetry_Int_Tables_number	1
_symmetry_cell_setting	triclinic
loop_
_symmetry_equiv_pos_as_xyz
  x,y,z
_cell_length_a	9.065215
_cell_length_b	23.532357
_cell_length_c	8.140239
_cell_angle_alpha	89.990966
_cell_angle_beta	89.997810
_cell_angle_gamma	83.921494
loop_
_atom_site_label
_atom_site_type_symbol
_atom_site_fract_x
_atom_site_fract_y
_atom_site_fract_z
O1	O	1.956247	0.083491	-0.136618
O2	O	1.526621	0.090342	-0.136627
O3	O	1.754428	0.004078	-0.136588
O4	O	1.728441	0.169755	-0.136657
O5	O	1.754416	0.004077	0.136639
O6	O	1.526609	0.090341	0.136600
O7	O	1.956235	0.083490	0.136609
Zn8	Zn	1.741420	0.086915	0.179985
Zn9	Zn	1.741436	0.086917	-0.180003
O10	O	1.728428	0.169754	0.136571
C11	C	1.471661	0.089683	-0.000014
C12	C	1.307916	0.087716	-0.000016
C13	C	1.753772	-0.017144	0.000030
C14	C	1.751818	-0.080377	0.000046
C15	C	1.739555	-0.472477	-0.148979
C16	C	1.737697	-0.531890	-0.148989
O17	O	1.736692	-0.562614	-0.275653
N18	N	1.736769	-0.561609	-0.000055
C19	C	1.737684	-0.531911	0.148898
O20	O	1.736723	-0.562644	0.275577
C21	C	1.739531	-0.472498	0.148906
C22	C	1.740474	-0.442783	-0.000038
C23	C	1.740496	-0.442762	-0.297911
C24	C	1.742357	-0.383354	-0.297901
C25	C	1.743276	-0.353660	-0.148959
C26	C	1.742335	-0.383374	-0.000028
C27	C	1.740435	-0.442800	0.297857
C28	C	1.742282	-0.383384	0.297852
C29	C	1.743225	-0.353669	0.148909
C30	C	1.745114	-0.294272	0.148924
N31	N	1.746042	-0.264553	-0.000010
C32	C	1.745123	-0.294247	-0.148952
C33	C	1.733802	-0.656681	0.148871
C34	C	1.731966	-0.716093	0.148865
C35	C	1.731976	-0.716068	-0.149023
C36	C	1.733823	-0.656656	-0.149015
C37	C	1.734730	-0.626962	-0.000063
C38	C	1.749032	-0.169484	-0.148919
C39	C	1.750898	-0.110070	-0.148896
C40	C	1.750880	-0.110100	0.148991
C41	C	1.749021	-0.169509	0.148968
C42	C	1.748092	-0.199199	0.000000
O43	O	1.746114	-0.263510	0.275524
O44	O	1.746065	-0.263506	-0.275609
C45	C	2.011195	0.084149	-0.000007
C46	C	2.174940	0.086116	-0.000016
C47	C	1.729084	0.190976	-0.000052
C48	C	1.731039	0.254209	-0.000078
N49	N	1.741419	0.086914	0.425668
N50	N	1.741448	0.086914	-0.425686
H51	H	1.751670	-0.085880	-0.270189
Br52	Br	1.747770	-0.209769	-0.351092
H53	H	1.739743	-0.466933	-0.419204
Br54	Br	1.730721	-0.756414	0.351011
H55	H	1.734589	-0.632466	-0.270299
Br56	Br	1.747776	-0.209839	0.351107
Br57	Br	1.730720	-0.756378	-0.351161
H58	H	1.742998	-0.359209	0.419150
Br59	Br	1.735043	-0.616389	0.351040
H60	H	1.743119	-0.359165	-0.419187
Br61	Br	1.752131	-0.069790	0.351116
H62	H	1.739670	-0.466984	0.419144
