data_functionalizedCrystal
_audit_creation_method	'MofGen! by Chris Wilmer'
_symmetry_space_group_name_H-M	'P1'
_symmetry_Int_Tables_number	1
_symmetry_cell_setting	triclinic
loop_
_symmetry_equiv_pos_as_xyz
  x,y,z
_cell_length_a	14.853567
_cell_length_b	14.853567
_cell_length_c	8.140239
_cell_angle_alpha	90.000276
_cell_angle_beta	90.000249
_cell_angle_gamma	83.634930
loop_
_atom_site_label
_atom_site_type_symbol
_atom_site_fract_x
_atom_site_fract_y
_atom_site_fract_z
O1	O	1.196363	0.117703	-0.136486
O2	O	0.933903	0.131724	-0.136512
O3	O	1.072144	-0.006516	-0.136503
O4	O	1.058122	0.255943	-0.136495
O5	O	1.072136	-0.006518	0.136724
O6	O	0.933895	0.131723	0.136715
O7	O	1.196355	0.117701	0.136741
Zn8	Zn	1.065124	0.124712	0.180109
Zn9	Zn	1.065134	0.124714	-0.179880
O10	O	1.058115	0.255942	0.136732
C11	C	0.900311	0.131088	0.000097
C12	C	0.800227	0.129184	0.000087
C13	C	1.071504	-0.040106	0.000105
C14	C	1.069601	-0.140189	0.000091
C15	C	0.387693	0.039019	0.000121
C16	C	0.366412	0.203251	0.000124
C17	C	0.460446	0.205042	0.000119
C18	C	0.518108	0.123819	0.000112
C19	C	0.481736	0.040806	0.000110
C20	C	0.496825	0.288053	0.000104
C21	C	0.590864	0.289846	0.000097
C22	C	0.648528	0.208623	0.000102
C23	C	0.612150	0.125607	0.000102
C24	C	0.669812	0.044384	0.000095
C25	C	0.633437	-0.038633	0.000107
C26	C	0.539399	-0.040417	0.000115
C27	C	0.742565	0.210407	0.000094
C28	C	0.763855	0.046172	0.000085
C29	C	0.979435	-0.552723	0.000113
C30	C	1.143668	-0.574004	0.000129
C31	C	1.145458	-0.479971	0.000120
C32	C	1.064235	-0.422309	0.000109
C33	C	0.981223	-0.458680	0.000108
C34	C	1.228469	-0.443591	0.000138
C35	C	1.230262	-0.349552	0.000130
C36	C	1.149039	-0.291889	0.000108
C37	C	1.066023	-0.328266	0.000105
C38	C	0.984800	-0.270604	0.000094
C39	C	0.901783	-0.306979	0.000080
C40	C	0.899999	-0.401017	0.000086
C41	C	1.150823	-0.197851	0.000101
C42	C	0.986588	-0.176561	0.000090
C43	C	1.229947	0.118337	0.000128
C44	C	1.330031	0.120241	0.000127
C45	C	1.058754	0.289531	0.000120
C46	C	1.060657	0.389615	0.000123
N47	N	1.065124	0.124710	0.425791
N48	N	1.065141	0.124709	-0.425562
H49	H	0.810798	-0.019971	0.000086
F50	F	0.694815	-0.125073	0.000088
F51	F	0.500679	-0.128762	0.000122
H52	H	1.218414	-0.168238	0.000124
H53	H	0.449870	0.354180	0.000093
H54	H	0.358072	-0.028572	0.000137
F55	F	1.318615	-0.310847	0.000125
F56	F	0.305043	0.289689	0.000112
H57	H	0.620472	0.357443	0.000087
F58	F	0.815343	-0.245601	0.000081
H59	H	0.772178	0.277998	0.000087
F60	F	0.900137	-0.115200	0.000067
H61	H	0.832411	-0.430643	0.000076
H62	H	0.911844	-0.582344	0.000095
H63	H	1.209795	-0.620958	0.000151
H64	H	1.294596	-0.490546	0.000161
