data_functionalizedCrystal
_audit_creation_method	'MofGen! by Chris Wilmer'
_symmetry_space_group_name_H-M	'P1'
_symmetry_Int_Tables_number	1
_symmetry_cell_setting	triclinic
loop_
_symmetry_equiv_pos_as_xyz
  x,y,z
_cell_length_a	13.339070
_cell_length_b	11.792254
_cell_length_c	11.804365
_cell_angle_alpha	101.913421
_cell_angle_beta	74.875130
_cell_angle_gamma	99.913946
loop_
_atom_site_label
_atom_site_type_symbol
_atom_site_fract_x
_atom_site_fract_y
_atom_site_fract_z
O1	O	1.365787	0.553464	-0.099073
O2	O	1.070845	0.478652	-0.099065
O3	O	1.225465	0.353092	-0.099061
O4	O	1.211167	0.679024	-0.099077
O5	O	1.184760	0.386101	0.098994
O6	O	1.030140	0.511661	0.098989
O7	O	1.325082	0.586473	0.098982
Cu8	Cu	1.173894	0.552081	0.117070
Cu9	Cu	1.222033	0.513044	-0.117153
O10	O	1.170462	0.712033	0.098977
C11	C	1.012733	0.482519	-0.000037
C12	C	0.900223	0.444850	-0.000034
C13	C	1.204212	0.327029	-0.000034
C14	C	1.201515	0.200185	-0.000035
C15	C	0.537055	0.737741	-0.000068
C16	C	0.642765	0.773135	-0.000074
C17	C	0.707134	0.691067	-0.000064
C18	C	0.665784	0.573598	-0.000047
C19	C	0.560066	0.538199	-0.000050
C20	C	0.730145	0.491525	-0.000046
C21	C	0.688795	0.374056	-0.000030
C22	C	0.583087	0.338663	-0.000032
C23	C	0.518717	0.420731	-0.000042
C24	C	0.835863	0.526925	-0.000044
C25	C	0.858874	0.327383	-0.000026
C26	C	0.753165	0.291988	-0.000020
C27	C	1.199325	0.097173	-0.000039
C28	C	1.196588	-0.032059	-0.000050
C29	C	1.383194	0.582606	-0.000049
C30	C	1.495707	0.620273	-0.000060
C31	C	1.191716	0.738096	-0.000052
C32	C	1.194414	0.864938	-0.000059
N33	N	1.140043	0.579539	0.281809
N34	N	1.255892	0.485580	-0.281893
C35	C	1.337181	0.419621	0.655764
C36	C	1.362789	0.398844	0.531103
C37	C	1.307104	0.444016	0.468773
C38	C	1.225808	0.509969	0.531117
C39	C	1.200204	0.530756	0.655790
C40	C	1.170127	0.555150	0.468800
C41	C	1.088831	0.621103	0.531143
C42	C	1.063230	0.641885	0.655804
C43	C	1.118915	0.596714	0.718134
C44	C	1.195731	0.534363	0.344126
C45	C	1.058754	0.645497	0.344153
C46	C	1.033147	0.666274	0.468814
H47	H	0.793208	0.719892	-0.000072
O48	O	1.441609	0.334669	0.470301
C49	C	1.608388	0.329792	0.328846
C50	C	1.519371	0.402807	0.397777
H51	H	1.671270	0.384844	0.270175
H52	H	1.643941	0.300828	0.394527
H53	H	1.575808	0.249609	0.270741
H54	H	1.551868	0.483039	0.455884
H55	H	1.483830	0.431681	0.332032
O56	O	1.391416	0.375886	0.716250
C57	C	1.559431	0.371149	0.754302
C58	C	1.498129	0.420798	0.685753
H59	H	1.645724	0.407421	0.729651
H60	H	1.527255	0.397359	0.854127
H61	H	1.550699	0.271830	0.729811
H62	H	1.506836	0.520120	0.710143
H63	H	1.530319	0.394497	0.585944
O64	O	0.713145	0.177821	-0.000173
C65	C	0.721506	-0.020651	-0.102806
C66	C	0.766942	0.108594	-0.102766
H67	H	0.764967	-0.076655	-0.185756
H68	H	0.730964	-0.049159	-0.019973
H69	H	0.634885	-0.031807	-0.102751
H70	H	0.853573	0.119847	-0.102862
H71	H	0.757403	0.137042	-0.185591
O72	O	0.474457	0.817315	-0.000240
C73	C	0.362888	0.876070	-0.102905
C74	C	0.433734	0.785846	-0.102842
H75	H	0.329960	0.850674	-0.185863
H76	H	0.295721	0.878281	-0.020080
H77	H	0.410601	0.966108	-0.102853
H78	H	0.386109	0.695762	-0.102937
H79	H	0.500904	0.783737	-0.185660
H80	H	1.013412	0.682283	0.293405
H81	H	1.327957	0.427096	0.367269
O82	O	1.093873	0.616963	0.839233
C83	C	0.982010	0.707815	1.018150
C84	C	1.010245	0.684953	0.881006
H85	H	0.914410	0.762807	1.051965
H86	H	0.957864	0.621029	1.052063
H87	H	1.052919	0.756601	1.051953
H88	H	0.939379	0.636204	0.847101
H89	H	1.034431	0.771776	0.847174
O90	O	0.984209	0.705942	0.716182
C91	C	0.851095	0.814044	0.703048
C92	C	0.940544	0.741496	0.634525
H93	H	0.815781	0.842831	0.637058
H94	H	0.788152	0.758750	0.761400
H95	H	0.883189	0.894337	0.761428
H96	H	0.908547	0.661197	0.576081
H97	H	1.003472	0.796873	0.576248
O98	O	0.954052	0.730177	0.529329
C99	C	0.770383	0.747584	0.567473
C100	C	0.859856	0.675092	0.498886
H101	H	0.694209	0.703090	0.542867
H102	H	0.761563	0.754648	0.667293
H103	H	0.789164	0.838738	0.542974
H104	H	0.841142	0.583902	0.523285
H105	H	0.868655	0.668124	0.399083
H106	H	0.432639	0.391918	-0.000037
H107	H	1.261922	0.480665	0.293377
O108	O	0.921256	0.247572	0.000144
C109	C	0.952223	0.105009	0.102797
C110	C	0.881465	0.195329	0.102744
H111	H	0.920091	0.062763	0.185752
H112	H	0.954132	0.034963	0.019969
H113	H	1.034883	0.150504	0.102742
H114	H	0.798772	0.149937	0.102840
H115	H	0.879646	0.265368	0.185564
O116	O	0.542918	0.224531	-0.000239
C117	C	0.457966	0.051679	-0.102811
C118	C	0.503437	0.180918	-0.102736
H119	H	0.426015	0.016386	-0.185658
H120	H	0.522105	-0.000967	-0.102880
H121	H	0.392045	0.043965	-0.019891
H122	H	0.569344	0.188742	-0.185642
H123	H	0.439238	0.233504	-0.102605
H124	H	0.869519	0.622569	-0.000052
H125	H	0.676426	0.868777	-0.000097
