data_functionalizedCrystal
_audit_creation_method	'MofGen! by Chris Wilmer'
_symmetry_space_group_name_H-M	'P1'
_symmetry_Int_Tables_number	1
_symmetry_cell_setting	triclinic
loop_
_symmetry_equiv_pos_as_xyz
  x,y,z
_cell_length_a	16.974800
_cell_length_b	14.044190
_cell_length_c	16.053802
_cell_angle_alpha	92.795827
_cell_angle_beta	91.074188
_cell_angle_gamma	88.281173
loop_
_atom_site_label
_atom_site_type_symbol
_atom_site_fract_x
_atom_site_fract_y
_atom_site_fract_z
O1	O	1.057576	0.120850	0.002046
O2	O	0.829135	0.135362	-0.013398
O3	O	0.939923	-0.009887	-0.005891
O4	O	0.946788	0.266098	-0.005460
O5	O	0.933823	-0.001925	0.132554
O6	O	0.823035	0.143324	0.125048
O7	O	1.051476	0.128811	0.140492
Zn8	Zn	0.936287	0.137332	0.154751
Zn9	Zn	0.944324	0.126842	-0.027657
O10	O	0.940688	0.274060	0.132986
C11	C	0.796673	0.138645	0.053837
C12	C	0.709033	0.136555	0.047913
C13	C	0.664539	0.139911	0.120598
C14	C	0.582193	0.137931	0.115034
C15	C	0.544342	0.132603	0.036784
C16	C	0.588842	0.129244	-0.035907
C17	C	0.671187	0.131217	-0.030342
C18	C	0.298424	0.126232	0.012048
C19	C	0.216072	0.124263	0.006489
C20	C	0.209429	0.132948	0.157431
C21	C	0.291776	0.134926	0.162988
C22	C	0.336269	0.131562	0.090298
N23	N	0.460171	0.130583	0.031095
N24	N	0.420439	0.133575	0.095988
C25	C	0.933871	-0.041228	0.063131
C26	C	0.924914	-0.146476	0.062533
C27	C	0.972062	-0.396645	0.065687
C28	C	0.908554	-0.339176	0.061400
C29	C	0.917659	-0.231948	0.062030
C30	C	0.962958	-0.503883	0.065057
C31	C	1.083938	0.125528	0.073255
C32	C	1.171578	0.127618	0.079174
C33	C	0.946741	0.305401	0.063961
C34	C	0.955698	0.410649	0.064554
N35	N	0.930807	0.144491	0.279240
N36	N	0.949810	0.119676	-0.152146
C37	C	0.977968	0.082709	0.326129
C38	C	0.974143	0.087726	0.413277
C39	C	0.923161	0.154529	0.453534
C40	C	0.875995	0.216313	0.406638
C41	C	0.879816	0.211291	0.319492
C42	C	0.906465	0.176438	0.713812
C43	C	0.902649	0.181457	0.800965
C44	C	1.000797	0.052868	0.807598
C45	C	1.004617	0.047856	0.720450
C46	C	0.957448	0.109636	0.673562
N47	N	0.919251	0.159660	0.542613
N48	N	0.961354	0.104500	0.584484
H49	H	0.545970	0.140648	0.174222
H50	H	0.847344	-0.370506	0.057257
H51	H	1.012544	0.037418	0.451454
H52	H	0.868060	0.226744	0.675643
C53	C	1.092556	-0.380852	0.145226
C54	C	1.054690	-0.354364	0.071286
H55	H	1.143568	-0.354746	0.148679
H56	H	1.062598	-0.357367	0.191614
H57	H	1.097193	-0.448411	0.145521
H58	H	1.050048	-0.286805	0.070994
H59	H	1.084655	-0.377844	0.024886
C60	C	0.276934	0.143306	0.311630
C61	C	0.333379	0.140780	0.249004
H62	H	0.302621	0.146918	0.364731
H63	H	0.242827	0.197586	0.306169
H64	H	0.247084	0.087116	0.306467
H65	H	0.363226	0.196974	0.254163
H66	H	0.367500	0.086495	0.254468
C67	C	1.004530	-0.070456	0.906163
C68	C	1.052633	-0.015048	0.859140
H69	H	1.036533	-0.112392	0.937978
H70	H	0.973630	-0.029950	0.942605
H71	H	0.970814	-0.106616	0.869791
H72	H	1.086346	0.021118	0.895512
H73	H	1.083547	-0.055560	0.822694
C74	C	1.101240	-0.078755	0.735763
C75	C	1.060654	-0.025582	0.676202
H76	H	1.135832	-0.124095	0.708443
H77	H	1.130878	-0.037244	0.771839
H78	H	1.064531	-0.111002	0.767390
H79	H	1.097363	0.006670	0.644578
H80	H	1.031014	-0.067100	0.640111
H81	H	0.173194	0.135685	0.216611
H82	H	0.834479	0.270703	0.439420
C83	C	1.074591	-0.043897	0.341447
C84	C	1.034009	0.009274	0.281883
H85	H	1.109183	-0.089239	0.314131
H86	H	1.104229	-0.002385	0.377523
H87	H	1.037881	-0.076141	0.373075
H88	H	1.070719	0.041523	0.250260
H89	H	1.004369	-0.032245	0.245793
C90	C	0.805991	0.308040	0.785659
C91	C	0.846593	0.254879	0.845217
H92	H	0.771382	0.353358	0.812980
H93	H	0.842683	0.340301	0.754036
H94	H	0.776361	0.266510	0.749577
H95	H	0.876227	0.296409	0.881295
H96	H	0.809896	0.222616	0.876853
H97	H	0.707414	0.128486	-0.089530
H98	H	0.841412	0.261599	0.281315
H99	H	0.185257	0.119926	-0.057235
C100	C	0.687367	0.066487	0.251182
C101	C	0.706144	0.145763	0.206613
H102	H	0.713055	0.070097	0.304283
H103	H	0.631964	0.065800	0.258269
H104	H	0.704361	0.009801	0.221225
H105	H	0.689144	0.202450	0.236568
H106	H	0.761559	0.146459	0.199530
C107	C	0.296707	0.117452	-0.137707
C108	C	0.347323	0.122539	-0.067853
H109	H	0.326900	0.115177	-0.187036
H110	H	0.266579	0.061635	-0.136583
H111	H	0.262323	0.172105	-0.136882
H112	H	0.381703	0.067882	-0.068675
H113	H	0.377465	0.178362	-0.068977
H114	H	0.558018	0.124899	-0.099620
