data_functionalizedCrystal
_audit_creation_method	'MofGen! by Chris Wilmer'
_symmetry_space_group_name_H-M	'P1'
_symmetry_Int_Tables_number	1
_symmetry_cell_setting	triclinic
loop_
_symmetry_equiv_pos_as_xyz
  x,y,z
_cell_length_a	16.992694
_cell_length_b	10.489741
_cell_length_c	16.053802
_cell_angle_alpha	92.592148
_cell_angle_beta	87.249047
_cell_angle_gamma	87.603699
loop_
_atom_site_label
_atom_site_type_symbol
_atom_site_fract_x
_atom_site_fract_y
_atom_site_fract_z
O1	O	1.045194	0.265584	-0.069324
O2	O	0.816893	0.262613	-0.069348
O3	O	0.936238	0.078953	-0.069330
O4	O	0.925849	0.449244	-0.069341
O5	O	0.929669	0.089018	0.069528
O6	O	0.810324	0.272678	0.069510
O7	O	1.038624	0.275649	0.069534
Zn8	Zn	0.923431	0.275761	0.091569
Zn9	Zn	0.932086	0.262501	-0.091383
O10	O	0.919279	0.459309	0.069516
C11	C	0.784374	0.263826	0.000078
C12	C	0.697266	0.252430	0.000068
C13	C	0.647647	0.362379	0.000066
C14	C	0.565799	0.351666	0.000078
C15	C	0.533573	0.231001	0.000086
C16	C	0.583199	0.121044	0.000091
C17	C	0.665044	0.131759	0.000085
C18	C	0.289723	0.186590	0.000110
C19	C	0.207871	0.175882	0.000113
C20	C	0.190477	0.406505	0.000101
C21	C	0.272325	0.417210	0.000090
C22	C	0.321944	0.307253	0.000100
N23	N	0.449912	0.220047	0.000096
N24	N	0.405603	0.318209	0.000096
C25	C	0.932169	0.036385	0.000098
C26	C	0.929821	-0.105448	0.000096
C27	C	0.853885	-0.180196	0.000082
C28	C	0.886518	-0.264235	0.068550
C29	C	0.893013	-0.274131	-0.068353
C30	C	0.962482	-0.187615	0.068621
C31	C	0.968969	-0.197507	-0.068344
C32	C	1.001656	-0.281513	0.000141
C33	C	1.071143	0.274436	0.000107
C34	C	1.158252	0.285831	0.000110
C35	C	0.923349	0.501876	0.000086
C36	C	0.925697	0.643710	0.000083
N37	N	0.917530	0.284811	0.216428
N38	N	0.937994	0.253441	-0.216242
C39	C	0.968330	0.206695	0.260130
C40	C	0.964209	0.213038	0.347536
C41	C	0.909292	0.297505	0.391239
C42	C	0.858486	0.375625	0.347531
C43	C	0.862603	0.369274	0.260127
C44	C	0.891306	0.325210	0.652646
C45	C	0.887193	0.331557	0.740056
C46	C	0.992917	0.168969	0.740055
C47	C	0.997032	0.162631	0.652649
C48	C	0.946224	0.240745	0.608949
N49	N	0.905080	0.303994	0.480582
N50	N	0.950432	0.234249	0.519607
H51	H	0.525402	0.441198	0.000074
O52	O	1.010425	-0.162184	-0.137478
C53	C	0.973607	-0.206209	-0.209529
H54	H	0.908810	-0.221814	-0.193132
H55	H	1.003928	-0.300171	-0.234506
C56	C	1.059542	-0.087126	-0.296779
C57	C	0.979956	-0.106282	-0.276642
H58	H	1.063461	-0.025491	-0.338180
H59	H	1.084349	-0.057469	-0.248238
H60	H	1.084801	-0.165435	-0.317589
H61	H	0.954701	-0.027978	-0.255823
H62	H	0.955144	-0.135923	-0.325182
H63	H	0.851649	-0.293846	0.126428
H64	H	0.842470	0.400346	0.775635
H65	H	0.863611	-0.312087	-0.126243
O66	O	0.303496	0.534525	0.000124
C67	C	0.242149	0.629274	0.000103
H68	H	0.185116	0.589740	0.026397
H69	H	0.233912	0.658760	-0.066514
C70	C	0.333355	0.794900	0.022258
C71	C	0.263308	0.746347	0.054559
H72	H	0.346408	0.867120	0.055845
H73	H	0.374687	0.731068	0.022268
H74	H	0.326482	0.819462	-0.033256
H75	H	0.270186	0.721772	0.110068
H76	H	0.221978	0.810179	0.054559
O77	O	1.050102	0.079998	0.610294
C78	C	1.009724	-0.006704	0.560034
H79	H	0.949404	0.037323	0.546763
H80	H	1.001889	-0.098749	0.594054
C81	C	1.131767	-0.090623	0.493403
C82	C	1.057684	-0.036544	0.477098
H83	H	1.161352	-0.109035	0.442246
H84	H	1.158972	-0.032214	0.527266
H85	H	1.125228	-0.167320	0.521755
H86	H	1.064224	0.040160	0.448757
H87	H	1.030481	-0.094941	0.443228
H88	H	0.150069	0.496026	0.000095
H89	H	1.013053	0.137919	0.224552
O90	O	0.176532	0.058681	-0.000021
C91	C	0.133087	0.040381	-0.071924
H92	H	0.155194	0.105387	-0.122197
H93	H	0.067955	0.064435	-0.055666
C94	C	0.116597	-0.179757	-0.042773
C95	C	0.143754	-0.099923	-0.104521
H96	H	0.123174	-0.266304	-0.062879
H97	H	0.145864	-0.167428	0.005672
H98	H	0.062322	-0.159697	-0.029230
H99	H	0.198031	-0.119973	-0.118055
H100	H	0.114497	-0.112259	-0.152969
O101	O	0.337887	0.079730	-0.000035
C102	C	0.326553	0.001737	-0.071937
H103	H	0.301341	0.062622	-0.122204
H104	H	0.283695	-0.075192	-0.055674
C105	C	0.437089	-0.136563	-0.042806
C106	C	0.406130	-0.061782	-0.104548
H107	H	0.486174	-0.175750	-0.062920
H108	H	0.444723	-0.084022	0.005638
H109	H	0.401366	-0.200661	-0.029259
H110	H	0.441847	0.002323	-0.118086
H111	H	0.398503	-0.114314	-0.152994
H112	H	0.556953	0.022797	0.000110
H113	H	0.705444	0.042226	0.000087
O114	O	0.841921	0.401224	0.610332
C115	C	0.792558	0.477116	0.667652
H116	H	0.821801	0.486390	0.729950
H117	H	0.733609	0.430356	0.676964
C118	C	0.742849	0.599261	0.557015
C119	C	0.778769	0.610661	0.633529
H120	H	0.734340	0.681637	0.535966
H121	H	0.776104	0.548129	0.518397
H122	H	0.693729	0.560290	0.564786
H123	H	0.827892	0.649617	0.625755
H124	H	0.745522	0.661804	0.672145
H125	H	0.813766	0.444395	0.383119
O126	O	0.813370	0.445216	0.217580
C127	C	0.858206	0.524623	0.167021
H128	H	0.919927	0.479159	0.153925
H129	H	0.862477	0.621943	0.200694
C130	C	0.742231	0.597151	0.100085
C131	C	0.818035	0.541306	0.083993
H132	H	0.717451	0.607448	0.048871
H133	H	0.712023	0.543657	0.134149
H134	H	0.745801	0.678245	0.128148
H135	H	0.814464	0.460207	0.055941
H136	H	0.848242	0.594787	0.049922
H137	H	0.673878	0.460637	0.000058
H138	H	1.005574	0.149429	0.383117
H139	H	1.034282	0.105370	0.775644
H140	H	0.791448	-0.135972	0.000144
H141	H	1.064144	-0.325497	0.000186
O142	O	0.997637	-0.142582	0.137696
C143	C	1.075278	-0.195493	0.137873
H144	H	1.096595	-0.226684	0.071367
H145	H	1.076367	-0.281727	0.178616
C146	C	1.103638	-0.056359	0.254552
C147	C	1.129823	-0.094658	0.172867
H148	H	1.137284	0.005837	0.276141
H149	H	1.051330	-0.020714	0.254435
H150	H	1.104547	-0.128230	0.288494
H151	H	1.128904	-0.022791	0.138924
H152	H	1.182133	-0.130288	0.172979
