data_functionalizedCrystal
_audit_creation_method	'MofGen! by Chris Wilmer'
_symmetry_space_group_name_H-M	'P1'
_symmetry_Int_Tables_number	1
_symmetry_cell_setting	triclinic
loop_
_symmetry_equiv_pos_as_xyz
  x,y,z
_cell_length_a	17.699077
_cell_length_b	15.944551
_cell_length_c	16.776229
_cell_angle_alpha	89.992397
_cell_angle_beta	89.993415
_cell_angle_gamma	83.389657
loop_
_atom_site_label
_atom_site_type_symbol
_atom_site_fract_x
_atom_site_fract_y
_atom_site_fract_z
O1	O	1.004263	0.106198	-0.066279
O2	O	0.783907	0.120023	-0.066283
O3	O	0.900102	-0.009177	-0.066274
O4	O	0.888068	0.235398	-0.066289
O5	O	0.900087	-0.009185	0.066302
O6	O	0.783892	0.120015	0.066293
O7	O	1.004247	0.106190	0.066297
Zn8	Zn	0.894067	0.113101	0.087345
Zn9	Zn	0.894087	0.113112	-0.087331
O10	O	0.888052	0.235390	0.066288
C11	C	0.755702	0.119524	0.000004
C12	C	0.671681	0.118041	0.000003
C13	C	0.632204	0.117337	0.072271
C14	C	0.553259	0.115930	0.072272
C15	C	0.513792	0.115232	0.000004
C16	C	0.553274	0.115933	-0.072270
C17	C	0.632219	0.117334	-0.072270
C18	C	0.234902	0.110280	-0.072271
C19	C	0.155951	0.108882	-0.072265
C20	C	0.155942	0.108876	0.072271
C21	C	0.234886	0.110277	0.072271
C22	C	0.274362	0.110974	-0.000002
C23	C	0.359964	0.112498	-0.000002
C24	C	0.428191	0.113714	0.000003
C25	C	0.899595	-0.040474	0.000014
C26	C	0.898097	-0.133717	0.000015
C27	C	0.822494	-0.348413	0.000002
C28	C	0.857594	-0.409509	0.065371
C29	C	0.895388	-0.304437	0.000009
C30	C	0.857626	-0.409484	-0.065339
C31	C	0.892765	-0.469344	-0.000001
C32	C	0.930508	-0.364305	0.065431
C33	C	0.930530	-0.364274	-0.065337
C34	C	0.965683	-0.425352	0.000048
C35	C	0.896896	-0.209438	0.000015
C36	C	0.891261	-0.564342	-0.000001
C37	C	1.032453	0.106689	0.000008
C38	C	1.116474	0.108172	0.000004
C39	C	0.888559	0.266687	-0.000002
C40	C	0.890057	0.359930	-0.000008
N41	N	0.894059	0.113094	0.206556
N42	N	0.894102	0.113113	-0.206542
C43	C	0.945526	0.055907	0.248277
C44	C	0.945530	0.055907	0.331729
C45	C	0.894070	0.113097	0.373459
C46	C	0.842598	0.170286	0.331732
C47	C	0.842591	0.170282	0.248281
C48	C	0.842625	0.170302	0.668279
C49	C	0.842638	0.170304	0.751735
C50	C	0.945564	0.055927	0.751727
C51	C	0.945557	0.055923	0.668276
C52	C	0.894083	0.113109	0.626557
C53	C	0.894078	0.113108	0.536068
C54	C	0.894078	0.113103	0.463945
H55	H	0.123820	0.108312	-0.131118
H56	H	0.664360	0.117909	-0.131118
H57	H	0.664332	0.117913	0.131121
C58	C	0.509835	0.115176	0.151773
N59	N	0.477129	0.114614	0.211657
C60	C	1.002136	-0.007008	0.202382
N61	N	1.044774	-0.054401	0.167817
C62	C	0.112512	0.108100	0.151774
N63	N	0.079801	0.107517	0.211654
H64	H	0.800695	0.216849	0.365712
H65	H	0.800680	0.216848	0.214312
H66	H	0.267034	0.110845	-0.131121
C67	C	1.002130	-0.007023	0.377619
N68	N	1.044756	-0.054433	0.412182
C69	C	1.002165	-0.006992	0.622379
N70	N	1.044801	-0.054385	0.587810
H71	H	0.267016	0.110850	0.131119
H72	H	0.987476	0.009360	0.785704
H73	H	0.800730	0.216877	0.785710
H74	H	0.521135	0.115359	-0.131112
C75	C	0.740757	-0.303235	0.000090
N76	N	0.679195	-0.269204	0.000161
C77	C	0.786100	0.233317	0.622398
N78	N	0.743557	0.280822	0.587838
H79	H	0.826756	-0.429555	0.120634
H80	H	0.961306	-0.344383	0.120756
H81	H	0.826792	-0.429492	-0.120607
C82	C	1.047491	-0.470331	0.000101
N83	N	1.109108	-0.504212	0.000146
H84	H	0.961341	-0.344206	-0.120603
