data_functionalizedCrystal
_audit_creation_method	'MofGen! by Chris Wilmer'
_symmetry_space_group_name_H-M	'P1'
_symmetry_Int_Tables_number	1
_symmetry_cell_setting	triclinic
loop_
_symmetry_equiv_pos_as_xyz
  x,y,z
_cell_length_a	14.971482
_cell_length_b	14.971486
_cell_length_c	14.048226
_cell_angle_alpha	89.993360
_cell_angle_beta	89.994098
_cell_angle_gamma	83.613368
loop_
_atom_site_label
_atom_site_type_symbol
_atom_site_fract_x
_atom_site_fract_y
_atom_site_fract_z
O1	O	1.186949	0.116549	-0.079149
O2	O	0.926548	0.130511	-0.079153
O3	O	1.063728	-0.006670	-0.079144
O4	O	1.049769	0.253730	-0.079158
O5	O	1.063712	-0.006678	0.079177
O6	O	0.926532	0.130503	0.079168
O7	O	1.186933	0.116541	0.079173
Zn8	Zn	1.056730	0.123521	0.104307
Zn9	Zn	1.056751	0.123531	-0.104288
O10	O	1.049753	0.253722	0.079163
C11	C	1.063096	-0.039999	0.000016
C12	C	1.061225	-0.139296	0.000015
C13	C	0.893215	0.129883	0.000007
C14	C	0.793918	0.128014	0.000005
C15	C	1.141814	-0.196522	0.000017
C16	C	1.140051	-0.289822	0.000008
C17	C	1.057698	-0.325893	0.000003
C18	C	0.977102	-0.268659	-0.000002
C19	C	0.978866	-0.175362	0.000001
C20	C	0.973431	-0.463122	-0.000006
C21	C	0.971667	-0.556426	-0.000007
C22	C	1.134616	-0.577582	0.000001
C23	C	1.136380	-0.484284	0.000004
C24	C	1.055784	-0.427057	0.000001
C25	C	0.747265	0.127129	0.086307
C26	C	0.653966	0.125358	0.086308
C27	C	0.607322	0.124479	0.000006
C28	C	0.653983	0.125361	-0.086302
C29	C	0.747280	0.127125	-0.086303
C30	C	0.459521	0.121686	-0.086296
C31	C	0.366216	0.119923	-0.086296
C32	C	0.366207	0.119918	0.086315
C33	C	0.459504	0.121683	0.086315
C34	C	0.506158	0.122567	0.000005
C35	C	1.220266	0.117168	0.000010
C36	C	1.319563	0.119038	0.000006
C37	C	1.050385	0.287051	0.000001
C38	C	1.052256	0.386348	-0.000005
N39	N	1.056721	0.123513	0.246668
N40	N	1.056767	0.123532	-0.246649
C41	C	1.117484	0.062794	0.296490
C42	C	1.117490	0.062793	0.396148
C43	C	1.056737	0.123517	0.445981
C44	C	0.995968	0.184238	0.396152
C45	C	0.995959	0.184234	0.296496
C46	C	0.995994	0.184245	0.603866
C47	C	0.996005	0.184251	0.703529
C48	C	1.117525	0.062804	0.703518
C49	C	1.117515	0.062800	0.603862
C50	C	1.056748	0.123523	0.554040
H51	H	1.205675	-0.336413	0.000012
C52	C	1.231255	-0.157413	-0.000176
C53	C	1.279974	-0.186464	-0.081643
C54	C	1.362367	-0.150448	-0.081865
H55	H	1.264547	-0.177033	0.054968
H56	H	1.220803	-0.093649	-0.000226
H57	H	1.290429	-0.250215	-0.081585
H58	H	1.246709	-0.166845	-0.136800
H59	H	1.351915	-0.086683	-0.081915
H60	H	1.395651	-0.170070	-0.026718
H61	H	1.395430	-0.170146	-0.137143
H62	H	1.200240	-0.624181	0.000001
H63	H	0.946479	0.233676	0.255932
H64	H	0.328241	0.119207	-0.156571
H65	H	0.910049	-0.298036	-0.000012
C66	C	1.225882	-0.445292	-0.000035
C67	C	1.296088	-0.515376	-0.000058
C68	C	1.378550	-0.479490	-0.000108
H69	H	1.230075	-0.409356	0.055162
H70	H	1.230010	-0.409354	-0.055266
H71	H	1.291962	-0.551298	0.055167
H72	H	1.291925	-0.551318	-0.055251
H73	H	1.382677	-0.443553	-0.055339
H74	H	1.382733	-0.443555	0.055089
H75	H	1.426194	-0.527036	-0.000133
C76	C	1.183506	-0.003015	0.242314
C77	C	1.238322	0.044685	0.185068
C78	C	1.299141	-0.015921	0.135149
H79	H	1.151352	-0.040303	0.203392
H80	H	1.219747	-0.039187	0.286212
H81	H	1.202086	0.080842	0.141175
H82	H	1.270497	0.081970	0.223966
H83	H	1.335382	-0.052093	0.179047
H84	H	1.266979	-0.053206	0.096233
H85	H	1.336346	0.016435	0.096309
H86	H	1.166966	0.013351	0.436712
H87	H	0.907801	-0.416529	-0.000011
C88	C	0.510007	0.122697	-0.180102
C89	C	0.449188	0.121579	-0.255683
C90	C	0.495661	0.122531	-0.342107
H91	H	0.553177	0.071283	-0.183830
H92	H	0.539608	0.175529	-0.183737
H93	H	0.419602	0.068753	-0.252050
H94	H	0.406017	0.172989	-0.251987
H95	H	0.525262	0.175362	-0.345742
H96	H	0.538829	0.071116	-0.345825
H97	H	0.454402	0.121781	-0.393399
H98	H	0.946498	0.233677	0.436733
H99	H	0.904607	-0.585792	0.000005
H100	H	0.615999	0.124638	-0.156571
H101	H	0.785264	0.127847	-0.156579
H102	H	1.166989	0.013359	0.563287
C103	C	1.183605	-0.003164	0.757433
C104	C	1.236828	-0.056321	0.692461
C105	C	1.297721	-0.117084	0.742097
H106	H	1.151508	-0.040541	0.796327
H107	H	1.220918	0.029060	0.796274
H108	H	1.199520	-0.088542	0.653638
H109	H	1.268944	-0.018969	0.653565
H110	H	1.335034	-0.084861	0.780938
H111	H	1.265617	-0.154455	0.780990
H112	H	1.333846	-0.153153	0.698022
C113	C	0.891271	-0.113375	0.000046
C114	C	0.818771	-0.164931	0.000066
C115	C	0.738063	-0.107861	0.000115
H116	H	0.888454	-0.076516	-0.055150
H117	H	0.888515	-0.076557	0.055278
H118	H	0.821526	-0.201734	-0.055160
H119	H	0.821559	-0.201789	0.055258
H120	H	0.735306	-0.071043	0.055346
H121	H	0.735255	-0.071005	-0.055082
H122	H	0.688862	-0.142833	0.000137
C123	C	0.797747	0.128033	0.180109
C124	C	0.736919	0.126853	0.255688
C125	C	0.783390	0.127669	0.342114
H126	H	0.827380	0.180826	0.183833
H127	H	0.840894	0.076579	0.183749
H128	H	0.693789	0.178302	0.252049
H129	H	0.707285	0.074064	0.251995
H130	H	0.826537	0.076216	0.345754
H131	H	0.813021	0.180463	0.345828
H132	H	0.742127	0.126860	0.393404
H133	H	0.497478	0.122404	0.156589
C134	C	0.603299	0.124203	0.179985
C135	C	0.559753	0.046278	0.185045
C136	C	0.513085	0.045171	0.271337
H137	H	0.560063	0.175567	0.183673
H138	H	0.644425	0.124932	0.231405
H139	H	0.518632	0.045558	0.133639
H140	H	0.602969	-0.005098	0.181373
H141	H	0.554211	0.045900	0.322757
H142	H	0.469854	0.096538	0.275017
H143	H	0.483541	-0.007704	0.274785
H144	H	0.328217	0.119199	0.156591
H145	H	0.946532	0.233697	0.744099
C146	C	0.929981	0.250275	0.549944
C147	C	0.876796	0.303475	0.614913
C148	C	0.815989	0.364321	0.565274
H149	H	0.892626	0.218144	0.511077
H150	H	0.962171	0.287609	0.511076
H151	H	0.844608	0.266146	0.653764
H152	H	0.914126	0.335626	0.653782
H153	H	0.848179	0.401655	0.526407
H154	H	0.778640	0.332183	0.526409
H155	H	0.779902	0.400430	0.609348
