data_functionalizedCrystal
_audit_creation_method	'MofGen! by Chris Wilmer'
_symmetry_space_group_name_H-M	'P1'
_symmetry_Int_Tables_number	1
_symmetry_cell_setting	triclinic
loop_
_symmetry_equiv_pos_as_xyz
  x,y,z
_cell_length_a	11.792241
_cell_length_b	7.540329
_cell_length_c	9.065218
_cell_angle_alpha	89.998243
_cell_angle_beta	84.604650
_cell_angle_gamma	90.001242
loop_
_atom_site_label
_atom_site_type_symbol
_atom_site_fract_x
_atom_site_fract_y
_atom_site_fract_z
O1	O	1.508028	-0.147302	0.202222
O2	O	2.008028	0.352698	0.702222
O3	O	1.177802	-0.147343	0.223063
O4	O	1.677802	0.352657	0.723063
O5	O	1.349741	-0.147318	-0.002064
O6	O	1.849741	0.352682	0.497936
O7	O	1.336089	-0.147327	0.427349
O8	O	1.836089	0.352673	0.927349
O9	O	1.349730	0.147647	-0.002067
O10	O	1.849730	0.647647	0.497933
O11	O	1.177792	0.147622	0.223060
O12	O	1.677792	0.647622	0.723060
O13	O	1.508018	0.147663	0.202219
O14	O	2.008018	0.647663	0.702219
Cu15	Cu	1.342904	0.174575	0.212639
Cu16	Cu	1.842904	0.674575	0.712639
Cu17	Cu	1.342916	-0.174255	0.212643
Cu18	Cu	1.842916	0.325745	0.712643
O19	O	1.336079	0.147638	0.427346
O20	O	1.836079	0.647638	0.927346
C21	C	1.135499	0.000134	0.221752
C22	C	1.635499	0.500134	0.721752
C23	C	1.009464	0.000119	0.217834
C24	C	1.509464	0.500119	0.717834
N25	N	1.342903	0.419923	0.212636
N26	N	1.842903	0.919923	0.712636
N27	N	1.342925	-0.419604	0.212634
N28	N	1.842925	0.080396	0.712634
C29	C	0.778711	0.000170	0.210629
C30	C	1.278711	0.500170	0.710629
C31	C	0.907119	0.000142	0.214632
C32	C	1.407119	0.500142	0.714632
C33	C	1.550321	0.000181	0.203529
C34	C	2.050321	0.500181	0.703529
C35	C	1.676356	0.000185	0.207448
C36	C	2.176356	0.500185	0.707448
C37	C	1.348424	0.000161	-0.057040
C38	C	1.848424	0.500161	0.442960
C39	C	1.344501	0.000152	-0.220846
C40	C	1.844501	0.500152	0.279154
C41	C	1.337396	0.000154	0.482322
C42	C	1.837396	0.500154	0.982322
C43	C	1.341319	0.000152	0.646128
C44	C	1.841319	0.500152	1.146128
