data_functionalizedCrystal
_audit_creation_method	'MofGen! by Chris Wilmer'
_symmetry_space_group_name_H-M	'P1'
_symmetry_Int_Tables_number	1
_symmetry_cell_setting	triclinic
loop_
_symmetry_equiv_pos_as_xyz
  x,y,z
_cell_length_a	6.817900
_cell_length_b	19.551136
_cell_length_c	9.514088
_cell_angle_alpha	92.292231
_cell_angle_beta	118.843545
_cell_angle_gamma	101.650842
loop_
_atom_site_label
_atom_site_type_symbol
_atom_site_fract_x
_atom_site_fract_y
_atom_site_fract_z
V1	V	-4.208640	-0.097917	-0.501544
O2	O	-4.201672	0.003431	-0.491183
O3	O	-4.150275	-0.192928	-0.498897
O4	O	-4.243503	-0.096970	-0.719928
O5	O	-4.107799	-0.093191	-0.268622
V6	V	-4.682770	-0.085729	-0.473590
O7	O	-4.490502	-0.124654	-0.562864
O8	O	-4.851104	-0.058992	-0.412269
O9	O	-4.517928	0.009281	-0.476237
O10	O	-4.807135	-0.187077	-0.483951
O11	O	-4.901008	-0.090455	-0.706512
O12	O	-4.424700	-0.086676	-0.255206
C13	C	-3.990158	-0.216072	-0.491186
C14	C	-4.024280	-0.293747	-0.490478
C15	C	-3.944977	-0.319873	-0.342965
C16	C	-3.977091	-0.392855	-0.342250
C17	C	-4.088471	-0.439710	-0.489053
C18	C	-4.167794	-0.413577	-0.636586
C19	C	-4.135698	-0.340596	-0.637298
C20	C	-4.093566	-0.560984	-0.595498
C21	C	-4.125644	-0.633963	-0.594779
C22	C	-4.187477	-0.664808	-0.486864
C23	C	-4.217183	-0.622663	-0.379639
C24	C	-4.185088	-0.549682	-0.380351
C25	C	-4.123285	-0.518847	-0.488298
C26	C	-4.142992	-0.770069	-0.338566
C27	C	-4.175123	-0.843054	-0.337857
C28	C	-4.365807	-0.863774	-0.632196
C29	C	-4.333695	-0.790791	-0.632902
C30	C	-4.222276	-0.743942	-0.486081
C31	C	-4.109077	-0.093668	-0.773131
C32	C	-4.218800	-0.093522	-0.951666
C33	C	-4.341385	0.032422	-0.483943
C34	C	-4.286505	0.110097	-0.484662
C35	C	-4.222464	-0.089981	-0.201994
C36	C	-4.091980	-0.090123	-0.023457
H37	H	-3.854268	-0.281733	-0.223413
H38	H	-3.912507	-0.414131	-0.222124
O39	O	-4.448446	-0.096772	-1.041072
C40	C	-4.494877	-0.038081	-0.982920
H41	H	-4.353931	-0.016896	-0.851317
H42	H	-4.669843	-0.054984	-0.989861
H43	H	-4.498404	0.005096	-1.060556
O44	O	-4.276222	-0.459163	-0.779098
C45	C	-4.476130	-0.505369	-0.795149
H46	H	-4.456702	-0.508434	-0.669815
H47	H	-4.499551	-0.560314	-0.855212
H48	H	-4.633787	-0.484725	-0.873397
H49	H	-4.398258	-0.769520	-0.753022
O50	O	-4.213098	-0.315305	-0.780714
C51	C	-4.454566	-0.342805	-0.877692
H52	H	-4.509316	-0.393974	-0.837878
H53	H	-4.503390	-0.354020	-1.010579
H54	H	-4.546247	-0.302658	-0.863042
O55	O	-4.214383	-0.508790	-0.276379
C56	C	-4.442811	-0.532112	-0.306469
H57	H	-4.559572	-0.561718	-0.436114
H58	H	-4.507168	-0.484546	-0.290291
H59	H	-4.446406	-0.568931	-0.217334
O60	O	-4.277649	-0.652669	-0.275032
C61	C	-4.491686	-0.703472	-0.363912
H62	H	-4.590759	-0.690914	-0.492071
H63	H	-4.597232	-0.702297	-0.300898
H64	H	-4.460145	-0.758286	-0.370637
O65	O	-4.034857	-0.724657	-0.195813
C66	C	-3.971732	-0.763369	-0.065455
H67	H	-4.086746	-0.819667	-0.110894
H68	H	-3.994264	-0.736935	0.032963
H69	H	-3.783148	-0.764809	-0.013023
H70	H	-3.899468	-0.087330	-0.948339
H71	H	-4.110554	-0.864323	-0.217730
O72	O	-4.474244	-0.909353	-0.774713
C73	C	-4.674164	-0.955555	-0.790769
H74	H	-4.654739	-0.958621	-0.665436
H75	H	-4.697600	-1.010501	-0.850839
H76	H	-4.831809	-0.934906	-0.869014
O77	O	-4.096328	-0.674970	-0.698558
C78	C	-3.919434	-0.708578	-0.608608
H79	H	-3.801099	-0.677065	-0.480951
H80	H	-3.814525	-0.711492	-0.671503
H81	H	-3.999635	-0.764354	-0.600633
H82	H	-4.043218	-0.535877	-0.683382
