data_functionalizedCrystal
_audit_creation_method	'MofGen! by Chris Wilmer'
_symmetry_space_group_name_H-M	'P1'
_symmetry_Int_Tables_number	1
_symmetry_cell_setting	triclinic
loop_
_symmetry_equiv_pos_as_xyz
  x,y,z
_cell_length_a	29.839134
_cell_length_b	25.639242
_cell_length_c	25.639217
_cell_angle_alpha	89.918438
_cell_angle_beta	90.100538
_cell_angle_gamma	89.998458
loop_
_atom_site_label
_atom_site_type_symbol
_atom_site_fract_x
_atom_site_fract_y
_atom_site_fract_z
Zn1	Zn	0.178543	0.799650	-0.295789
Zn2	Zn	0.678543	1.299650	0.204211
Zn3	Zn	0.253781	0.799533	-0.208372
Zn4	Zn	0.753781	1.299533	0.291628
Zn5	Zn	0.178660	0.712136	-0.208353
Zn6	Zn	0.678660	1.212136	0.291647
Zn7	Zn	0.253641	0.712222	-0.295763
Zn8	Zn	0.753641	1.212222	0.204237
O9	O	0.216156	0.755885	-0.252069
O10	O	0.716156	1.255885	0.247931
O11	O	0.188533	0.872800	-0.284212
O12	O	0.688533	1.372800	0.215788
O13	O	0.243924	0.787855	-0.135204
O14	O	0.743924	1.287855	0.364796
O15	O	0.115777	0.723758	-0.219954
O16	O	0.615777	1.223758	0.280046
O17	O	0.243810	0.872714	-0.219988
O18	O	0.743810	1.372714	0.280012
O19	O	0.115691	0.788055	-0.284193
O20	O	0.615691	1.288055	0.215807
O21	O	0.188733	0.723645	-0.135190
O22	O	0.688733	1.223645	0.364810
O23	O	0.188597	0.638982	-0.219929
O24	O	0.688597	1.138982	0.280071
O25	O	0.243571	0.723904	-0.368932
O26	O	0.743571	1.223904	0.131068
O27	O	0.243685	0.639045	-0.284148
O28	O	0.743685	1.139045	0.215852
O29	O	0.188397	0.788138	-0.368951
O30	O	0.688397	1.288138	0.131049
O31	O	0.316629	0.787938	-0.219962
O32	O	0.816629	1.287938	0.280038
O33	O	0.316526	0.723790	-0.284167
O34	O	0.816526	1.223790	0.215833
C35	C	0.216138	0.620043	-0.252034
C36	C	0.716138	1.120043	0.247966
C37	C	0.216142	0.561929	-0.252031
C38	C	0.716142	1.061929	0.247969
C39	C	0.098978	0.755910	-0.252075
C40	C	0.598978	1.255910	0.247925
C41	C	0.049043	0.755921	-0.252077
C42	C	0.549043	1.255921	0.247923
C43	C	0.244888	0.201607	-0.285477
C44	C	0.744888	0.701607	0.214523
C45	C	0.244891	0.147003	-0.285485
C46	C	0.744891	0.647003	0.214515
O47	O	0.269311	0.118802	-0.313892
O48	O	0.769311	0.618802	0.186108
N49	N	0.216168	0.119646	-0.252103
N50	N	0.716168	0.619646	0.247897
C51	C	0.187438	0.146897	-0.218715
C52	C	0.687438	0.646897	0.281285
O53	O	0.163007	0.118614	-0.190323
O54	O	0.663007	0.618614	0.309677
C55	C	0.187433	0.201500	-0.218710
C56	C	0.687433	0.701500	0.281290
C57	C	0.216161	0.228854	-0.252090
C58	C	0.716161	0.728854	0.247910
C59	C	0.273614	0.228961	-0.318854
C60	C	0.773614	0.728961	0.181146
C61	C	0.273611	0.283562	-0.318845
C62	C	0.773611	0.783562	0.181155
C63	C	0.244884	0.310808	-0.285459
C64	C	0.744884	0.810808	0.214541
C65	C	0.216159	0.283454	-0.252081
C66	C	0.716159	0.783454	0.247919
C67	C	0.158701	0.228750	-0.185325
C68	C	0.658701	0.728750	0.314675
C69	C	0.158698	0.283357	-0.185323
C70	C	0.658698	0.783357	0.314677
C71	C	0.187426	0.310710	-0.218703
C72	C	0.687426	0.810710	0.281297
C73	C	0.187429	0.365302	-0.218685
C74	C	0.687429	0.865302	0.281315
N75	N	0.216152	0.392658	-0.252067
N76	N	0.716152	0.892658	0.247933
C77	C	0.244879	0.365412	-0.285453
C78	C	0.744879	0.865412	0.214547
C79	C	0.187449	0.032226	-0.218729
C80	C	0.687449	0.532226	0.281271
C81	C	0.187456	-0.022376	-0.218731
C82	C	0.687456	0.477624	0.281269
C83	C	0.244909	-0.022266	-0.285502
C84	C	0.744909	0.477734	0.214498
C85	C	0.244904	0.032337	-0.285497
C86	C	0.744904	0.532337	0.214503
C87	C	0.216172	0.059583	-0.252111
C88	C	0.716172	0.559583	0.247889
C89	C	0.244873	0.480077	-0.285431
C90	C	0.744873	0.980077	0.214569
C91	C	0.244869	0.534682	-0.285418
C92	C	0.744869	1.034682	0.214582
C93	C	0.187415	0.534567	-0.218649
C94	C	0.687415	1.034567	0.281351
C95	C	0.187420	0.479967	-0.218661
C96	C	0.687420	0.979967	0.281339
C97	C	0.216150	0.452723	-0.252056
C98	C	0.716150	0.952723	0.247944
O99	O	0.163021	0.393538	-0.190294
O100	O	0.663021	0.893538	0.309706
O101	O	0.269302	0.393701	-0.313846
O102	O	0.769302	0.893701	0.186154
C103	C	-0.260558	0.722433	-0.218643
C104	C	0.239442	1.222433	0.281357
C105	C	-0.448231	0.722436	-0.218648
C106	C	0.051769	1.222436	0.281352
O107	O	-0.472461	0.693952	-0.190222
O108	O	0.027539	1.193952	0.309778
N109	N	-0.471742	0.755913	-0.252093
N110	N	0.028258	1.255913	0.247907
C111	C	-0.448331	0.789389	-0.285542
C112	C	0.051669	1.289389	0.214458
O113	O	-0.472635	0.817860	-0.313993
O114	O	0.027365	1.317860	0.186007
C115	C	-0.260659	0.789383	-0.285539
C116	C	0.239341	1.289383	0.214461
C117	C	-0.237151	0.755908	-0.252088
C118	C	0.262849	1.255908	0.247912
C119	C	-0.237050	0.688959	-0.185196
C120	C	0.262950	1.188959	0.314804
C121	C	-0.190135	0.688961	-0.185193
C122	C	0.309865	1.188961	0.314807
C123	C	-0.166727	0.722436	-0.218638
C124	C	0.333273	1.222436	0.281362
C125	C	-0.190235	0.755909	-0.252085
C126	C	0.309765	1.255909	0.247915
C127	C	-0.237249	0.822857	-0.318990
C128	C	0.262751	1.322857	0.181010
C129	C	-0.190328	0.822851	-0.318987
C130	C	0.309672	1.322851	0.181013
C131	C	-0.166820	0.789376	-0.285536
C132	C	0.333180	1.289376	0.214464
C133	C	-0.119913	0.789386	-0.285527
C134	C	0.380087	1.289386	0.214473
N135	N	-0.096402	0.755908	-0.252082
N136	N	0.403598	1.255908	0.247918
C137	C	-0.119810	0.722434	-0.218638
C138	C	0.380190	1.222434	0.281362
C139	C	-0.546862	0.789391	-0.285540
C140	C	-0.046862	1.289391	0.214460
C141	C	-0.593780	0.789393	-0.285540
C142	C	-0.093780	1.289393	0.214460
C143	C	-0.593677	0.722439	-0.218647
C144	C	-0.093677	1.222439	0.281353
C145	C	-0.546758	0.722440	-0.218645
C146	C	-0.046758	1.222440	0.281355
C147	C	-0.523351	0.755914	-0.252095
C148	C	-0.023351	1.255914	0.247905
C149	C	-0.021284	0.722440	-0.218634
C150	C	0.478716	1.222440	0.281366
C151	C	0.025636	0.722446	-0.218632
C152	C	0.525636	1.222446	0.281368
C153	C	0.025529	0.789398	-0.285527
C154	C	0.525529	1.289398	0.214473
C155	C	-0.021387	0.789394	-0.285526
C156	C	0.478613	1.289394	0.214474
C157	C	-0.044792	0.755911	-0.252078
C158	C	0.455208	1.255911	0.247922
O159	O	-0.095654	0.817851	-0.313943
O160	O	0.404346	1.317851	0.186057
O161	O	-0.095498	0.693959	-0.190199
O162	O	0.404502	1.193959	0.309801
C163	C	-0.307474	0.722431	-0.218646
C164	C	0.192526	1.222431	0.281354
C165	C	-0.330982	0.755904	-0.252094
C166	C	0.169018	1.255904	0.247906
C167	C	-0.307575	0.789379	-0.285539
C168	C	0.192425	1.289379	0.214461
C169	C	-0.377900	0.755907	-0.252094
C170	C	0.122100	1.255907	0.247906
C171	C	-0.401307	0.722432	-0.218649
C172	C	0.098693	1.222432	0.281351
C173	C	-0.377797	0.688955	-0.185204
C174	C	0.122203	1.188955	0.314796
C175	C	-0.330881	0.688956	-0.185202
C176	C	0.169119	1.188956	0.314798
C177	C	-0.331085	0.822857	-0.318984
C178	C	0.168915	1.322857	0.181016
C179	C	-0.378000	0.822853	-0.318983
C180	C	0.122000	1.322853	0.181017
C181	C	-0.401408	0.789378	-0.285539
C182	C	0.098592	1.289378	0.214461
C183	C	0.332879	0.755875	-0.252075
C184	C	0.832879	1.255875	0.247925
C185	C	0.382813	0.755918	-0.252095
C186	C	0.882813	1.255918	0.247905
C187	C	0.215955	0.756044	-0.388443
C188	C	0.715955	1.256044	0.111557
C189	C	0.215869	0.756111	-0.446557
C190	C	0.715869	1.256111	0.053443
C191	C	0.216174	0.892258	-0.252105
C192	C	0.716174	1.392258	0.247895
C193	C	0.216182	0.950372	-0.252120
C194	C	0.716182	1.450372	0.247880
C195	C	0.216324	0.755758	-0.116226
C196	C	0.716324	1.255758	0.383774
C197	C	0.216283	0.755792	-0.058112
C198	C	0.716283	1.255792	0.441888
C199	C	0.187171	0.789119	0.192918
C200	C	0.687171	1.289119	0.692918
C201	C	0.187208	0.789089	0.138314
C202	C	0.687208	1.289089	0.638314
O203	O	0.162610	0.817294	0.109939
O204	O	0.662610	1.317294	0.609939
N205	N	0.216162	0.755877	0.111161
N206	N	0.716162	1.255877	0.611161
C207	C	0.245078	0.722689	0.138616
C208	C	0.745078	1.222689	0.638616
O209	O	0.269709	0.694437	0.110507
O210	O	0.769709	1.194437	0.610507
C211	C	0.245039	0.722716	0.193219
C212	C	0.745039	1.222716	0.693219
C213	C	0.216086	0.755934	0.220369
C214	C	0.716086	1.255934	0.720369
C215	C	0.158220	0.822333	0.220067
C216	C	0.658220	1.322333	0.720067
C217	C	0.158184	0.822363	0.274668
C218	C	0.658184	1.322363	0.774668
C219	C	0.187099	0.789179	0.302119
C220	C	0.687099	1.289179	0.802119
C221	C	0.216050	0.755964	0.274969
C222	C	0.716050	1.255964	0.774969
C223	C	0.273953	0.689526	0.220673
C224	C	0.773953	1.189526	0.720673
C225	C	0.273911	0.689556	0.275280
C226	C	0.773911	1.189556	0.775280
C227	C	0.244958	0.722773	0.302429
C228	C	0.744958	1.222773	0.802429
C229	C	0.244929	0.722810	0.357020
C230	C	0.744929	1.222810	0.857020
N231	N	0.215975	0.756021	0.384173
N232	N	0.715975	1.256021	0.884173
C233	C	0.187060	0.789206	0.356722
C234	C	0.687060	1.289206	0.856722
C235	C	0.245158	0.722634	0.023945
C236	C	0.745158	1.222634	0.523945
C237	C	0.245200	0.722609	-0.030657
C238	C	0.745200	1.222609	0.469343
C239	C	0.187328	0.789008	-0.030955
C240	C	0.687328	1.289008	0.469045
C241	C	0.187289	0.789035	0.023648
C242	C	0.687289	1.289035	0.523648
C243	C	0.216204	0.755846	0.051098
C244	C	0.716204	1.255846	0.551098
C245	C	0.186986	0.789267	0.471387
C246	C	0.686986	1.289267	0.971387
C247	C	0.186954	0.789296	0.525992
C248	C	0.686954	1.289296	1.025992
C249	C	0.244824	0.722894	0.526286
C250	C	0.744824	1.222894	1.026286
C251	C	0.244858	0.722868	0.471685
C252	C	0.744858	1.222868	0.971685
C253	C	0.215936	0.756055	0.444237
C254	C	0.715936	1.256055	0.944237
O255	O	0.269513	0.694618	0.385430
O256	O	0.769513	1.194618	0.885430
O257	O	0.162429	0.817449	0.384838
O258	O	0.662429	1.317449	0.884838
H259	H	0.268264	0.556951	-0.312600
H260	H	0.768264	1.056951	0.187400
Br261	Br	0.284503	0.677536	-0.067496
Br262	Br	0.784503	1.177536	0.432504
Br263	Br	0.283893	-0.059254	-0.330818
Br264	Br	0.783893	0.440746	0.169182
Br265	Br	0.148474	-0.059492	-0.173420
Br266	Br	0.648474	0.440508	0.326580
H267	H	0.163377	0.816347	0.548095
H268	H	0.663377	1.316347	1.048095
Br269	Br	0.119708	0.191640	-0.140023
Br270	Br	0.619708	0.691640	0.359977
Br271	Br	0.313153	0.644508	0.312530
Br272	Br	0.813153	1.144508	0.812530
H273	H	0.268706	0.695606	0.046292
H274	H	0.768706	1.195606	0.546292
Br275	Br	-0.158565	0.868282	-0.364387
Br276	Br	0.341435	1.368282	0.135613
H277	H	0.164053	0.054406	-0.191539
H278	H	0.664053	0.554406	0.308461
H279	H	0.135298	0.305537	-0.158138
H280	H	0.635298	0.805537	0.341862
H281	H	0.268438	0.695824	0.449579
H282	H	0.768438	1.195824	0.949579
H283	H	0.163434	0.816290	0.449045
H284	H	0.663434	1.316290	0.949045
H285	H	0.297004	0.305828	-0.346028
H286	H	0.797004	0.805828	0.153972
H287	H	0.044774	0.695185	-0.191391
H288	H	0.544774	1.195185	0.308609
H289	H	0.164028	0.457694	-0.191479
H290	H	0.664028	0.957694	0.308521
Br291	Br	0.148430	0.571555	-0.173341
Br292	Br	0.648430	1.071555	0.326659
Br293	Br	0.148086	0.834045	-0.068220
Br294	Br	0.648086	1.334045	0.431780
H295	H	0.268367	0.695878	0.548646
H296	H	0.768367	1.195878	1.048646
H297	H	-0.612917	0.816658	-0.312773
H298	H	-0.112917	1.316658	0.187227
H299	H	0.297529	0.662476	0.198577
H300	H	0.797529	1.162476	0.698577
H301	H	-0.311745	0.661697	-0.157963
H302	H	0.188255	1.161697	0.342037
H303	H	-0.040335	0.695174	-0.191398
H304	H	0.459665	1.195174	0.308602
H305	H	0.134671	0.849356	0.197723
H306	H	0.634671	1.349356	0.697723
Br307	Br	0.118886	0.867444	0.311505
Br308	Br	0.618886	1.367444	0.811505
Br309	Br	-0.158238	0.643523	-0.139796
Br310	Br	0.341762	1.143523	0.360204
H311	H	0.163712	0.816083	0.045750
H312	H	0.663712	1.316083	0.545750
Br313	Br	-0.268808	0.643520	-0.139803
Br314	Br	0.231192	1.143520	0.360197
H315	H	0.297007	0.206783	-0.346045
H316	H	0.797007	0.706783	0.153955
Br317	Br	0.283893	0.069455	-0.330800
Br318	Br	0.783893	0.569455	0.169200
Br319	Br	-0.514859	0.677007	-0.173246
Br320	Br	-0.014859	1.177007	0.326754
Br321	Br	-0.625453	0.677009	-0.173258
Br322	Br	-0.125453	1.177009	0.326742
H323	H	0.268267	0.457901	-0.312626
H324	H	0.768267	0.957901	0.187374
H325	H	-0.527809	0.816653	-0.312779
H326	H	-0.027809	1.316653	0.187221
H327	H	-0.256383	0.850115	-0.346229
H328	H	0.243617	1.350115	0.153771
H329	H	-0.040527	0.816658	-0.312760
H330	H	0.459473	1.316658	0.187240
H331	H	0.044595	0.816654	-0.312755
H332	H	0.544595	1.316654	0.187245
H333	H	-0.397138	0.850117	-0.346222
H334	H	0.102862	1.350117	0.153778
Br335	Br	-0.409573	0.643527	-0.139813
Br336	Br	0.090427	1.143527	0.360187
Br337	Br	-0.299325	0.868288	-0.364382
Br338	Br	0.200675	1.368288	0.135618
