data_functionalizedCrystal
_audit_creation_method	'MofGen! by Chris Wilmer'
_symmetry_space_group_name_H-M	'P1'
_symmetry_Int_Tables_number	1
_symmetry_cell_setting	triclinic
loop_
_symmetry_equiv_pos_as_xyz
  x,y,z
_cell_length_a	19.121102
_cell_length_b	25.639239
_cell_length_c	19.120904
_cell_angle_alpha	92.410104
_cell_angle_beta	90.088173
_cell_angle_gamma	87.592882
loop_
_atom_site_label
_atom_site_type_symbol
_atom_site_fract_x
_atom_site_fract_y
_atom_site_fract_z
Zn1	Zn	1.054765	-0.255751	-0.442042
Zn2	Zn	1.554765	0.244249	0.057958
Zn3	Zn	1.059658	-0.339618	-0.324799
Zn4	Zn	1.559658	0.160382	0.175201
Zn5	Zn	0.942536	-0.248315	-0.319827
Zn6	Zn	1.442536	0.251685	0.180173
Zn7	Zn	0.937469	-0.339266	-0.437001
Zn8	Zn	1.437469	0.160734	0.062999
O9	O	0.998607	-0.295738	-0.380917
O10	O	1.498607	0.204262	0.119083
O11	O	1.153518	-0.270136	-0.430680
O12	O	1.653518	0.229864	0.069320
O13	O	1.048290	-0.324541	-0.226035
O14	O	1.548290	0.175459	0.273965
O15	O	0.957496	-0.176139	-0.336067
O16	O	1.457496	0.323861	0.163933
O17	O	1.157113	-0.331752	-0.344542
O18	O	1.657113	0.168248	0.155458
O19	O	1.039950	-0.181603	-0.425859
O20	O	1.539950	0.318397	0.074141
O21	O	0.962241	-0.257461	-0.222382
O22	O	1.462241	0.242539	0.277618
O23	O	0.843760	-0.257121	-0.331180
O24	O	1.343760	0.242879	0.168820
O25	O	0.948861	-0.331153	-0.535775
O26	O	1.448861	0.168847	-0.035775
O27	O	0.840037	-0.323942	-0.417267
O28	O	1.340037	0.176058	0.082733
O29	O	1.035037	-0.269795	-0.539478
O30	O	1.535037	0.230205	-0.039478
O31	O	1.043377	-0.412733	-0.339654
O32	O	1.543377	0.087267	0.160346
O33	O	0.953605	-0.412475	-0.422089
O34	O	1.453605	0.087525	0.077911
C35	C	0.816461	-0.289687	-0.373137
C36	C	1.316461	0.210313	0.126863
C37	C	0.738537	-0.287111	-0.369826
C38	C	1.238537	0.212889	0.130174
C39	C	0.700012	-0.320740	-0.413021
C40	C	1.200012	0.179260	0.086979
C41	C	0.626794	-0.318313	-0.409912
C42	C	1.126794	0.181687	0.090088
C43	C	0.592104	-0.282260	-0.363605
C44	C	1.092104	0.217740	0.136395
C45	C	0.630634	-0.248627	-0.320408
C46	C	1.130634	0.251373	0.179592
C47	C	0.703850	-0.251052	-0.323520
C48	C	1.203850	0.248948	0.176480
C49	C	0.371134	-0.273194	-0.351972
C50	C	0.871134	0.226806	0.148028
C51	C	0.297913	-0.270773	-0.348862
C52	C	0.797913	0.229227	0.151138
C53	C	0.294078	-0.340458	-0.438367
C54	C	0.794078	0.159542	0.061633
C55	C	0.367296	-0.342882	-0.441472
C56	C	0.867296	0.157118	0.058528
C57	C	0.405820	-0.309247	-0.398278
C58	C	0.905820	0.190753	0.101722
C59	C	0.517264	-0.279779	-0.360425
C60	C	1.017264	0.220221	0.139575
C61	C	0.480658	-0.311726	-0.401462
C62	C	0.980658	0.188274	0.098538
C63	C	0.998491	-0.431575	-0.380880
C64	C	1.498491	0.068425	0.119120
C65	C	0.998504	-0.489690	-0.380890
C66	C	1.498504	0.010310	0.119110
C67	C	1.045465	-0.850185	-0.338075
C68	C	1.545465	-0.350185	0.161925
C69	C	1.045491	-0.904791	-0.338085
C70	C	1.545491	-0.404791	0.161915
O71	O	1.085298	-0.933135	-0.301642
O72	O	1.585298	-0.433135	0.198358
N73	N	0.998728	-0.931982	-0.380969
N74	N	1.498728	-0.431982	0.119031
C75	C	0.951940	-0.904565	-0.423850
C76	C	1.451940	-0.404565	0.076150
O77	O	0.912167	-0.932708	-0.460327
O78	O	1.412167	-0.432708	0.039673
C79	C	0.951917	-0.849961	-0.423843
C80	C	1.451917	-0.349961	0.076157
C81	C	0.998679	-0.822772	-0.380951
C82	C	1.498679	-0.322772	0.119049
C83	C	1.092223	-0.822997	-0.295188
C84	C	1.592223	-0.322997	0.204812
C85	C	1.092195	-0.768395	-0.295176
C86	C	1.592195	-0.268395	0.204824
C87	C	1.045409	-0.740982	-0.338052
C88	C	1.545409	-0.240982	0.161948
C89	C	0.998651	-0.768171	-0.380940
C90	C	1.498651	-0.268171	0.119060
C91	C	0.905133	-0.822546	-0.466727
C92	C	1.405133	-0.322546	0.033273
C93	C	0.905115	-0.767938	-0.466716
C94	C	1.405115	-0.267938	0.033284
C95	C	0.951876	-0.740749	-0.423825
C96	C	1.451876	-0.240749	0.076175
C97	C	0.951837	-0.686156	-0.423805
C98	C	1.451837	-0.186156	0.076195
N99	N	0.998600	-0.658965	-0.380921
N100	N	1.498600	-0.158965	0.119079
C101	C	1.045386	-0.686378	-0.338045
C102	C	1.545386	-0.186378	0.161955
C103	C	0.951992	-1.019238	-0.423863
C104	C	1.451992	-0.519238	0.076137
C105	C	0.952011	-1.073841	-0.423867
C106	C	1.452011	-0.573841	0.076133
C107	C	1.045564	-1.074063	-0.338103
C108	C	1.545564	-0.574063	0.161897
C109	C	1.045541	-1.019459	-0.338096
C110	C	1.545541	-0.519459	0.161904
C111	C	0.998756	-0.992047	-0.380980
C112	C	1.498756	-0.492047	0.119020
C113	C	1.045324	-0.571710	-0.338024
C114	C	1.545324	-0.071710	0.161976
C115	C	1.045290	-0.517103	-0.338014
C116	C	1.545290	-0.017103	0.161986
C117	C	0.951740	-0.516886	-0.423780
C118	C	1.451740	-0.016886	0.076220
C119	C	0.951771	-0.571488	-0.423788
C120	C	1.451771	-0.071488	0.076212
C121	C	0.998569	-0.598899	-0.380907
C122	C	1.498569	-0.098899	0.119093
O123	O	0.912052	-0.657777	-0.460232
O124	O	1.412052	-0.157777	0.039768
O125	O	1.085159	-0.658229	-0.301581
O126	O	1.585159	-0.158229	0.198419
C127	C	1.181464	-0.301813	-0.388728
C128	C	1.681464	0.198187	0.111272
C129	C	1.259387	-0.304401	-0.392057
C130	C	1.759387	0.195599	0.107943
C131	C	0.990838	-0.301264	-0.563775
C132	C	1.490838	0.198736	-0.063775
C133	C	0.987527	-0.303619	-0.641698
C134	C	1.487527	0.196381	-0.141698
C135	C	0.998742	-0.159371	-0.380971
C136	C	1.498742	0.340629	0.119029
C137	C	0.998800	-0.101259	-0.380993
C138	C	1.498800	0.398741	0.119007
C139	C	1.030837	-0.272781	-0.680236
C140	C	1.530837	0.227219	-0.180236
C141	C	1.027718	-0.274992	-0.753453
C142	C	1.527718	0.225008	-0.253453
C143	C	0.981292	-0.308044	-0.788130
C144	C	1.481292	0.191956	-0.288130
C145	C	0.937977	-0.338883	-0.749587
C146	C	1.437977	0.161117	-0.249587
C147	C	0.941093	-0.336669	-0.676372
C148	C	1.441093	0.163331	-0.176372
C149	C	0.969635	-0.316324	-1.009097
C150	C	1.469635	0.183676	-0.509097
C151	C	0.966523	-0.318536	-1.082318
C152	C	1.466523	0.181464	-0.582318
C153	C	1.056263	-0.254644	-1.086178
C154	C	1.556263	0.245356	-0.586178
C155	C	1.059378	-0.252436	-1.012961
C156	C	1.559378	0.247564	-0.512961
C157	C	1.016061	-0.283273	-0.974424
C158	C	1.516061	0.216727	-0.474424
C159	C	0.978104	-0.310306	-0.862970
C160	C	1.478104	0.189694	-0.362970
C161	C	1.019246	-0.281008	-0.899586
C162	C	1.519246	0.218992	-0.399586
C163	C	1.006386	-0.290196	-0.198772
C164	C	1.506386	0.209804	0.301228
C165	C	1.009833	-0.287698	-0.120856
C166	C	1.509833	0.212302	0.379144
H167	H	0.508906	-0.341078	-0.439168
H168	H	1.008906	0.158922	0.060832
H169	H	1.062987	-0.249882	-0.784827
H170	H	1.562987	0.250118	-0.284827
H171	H	0.595430	-0.345698	-0.445086
H172	H	1.095430	0.154302	0.054914
N173	N	0.254725	-0.374802	-0.482501
N174	N	0.754725	0.125198	0.017499
N175	N	0.260171	-0.373632	-0.547547
N176	N	0.760171	0.126368	-0.047547
H177	H	0.232378	-0.397887	-0.578721
H178	H	0.732378	0.102113	-0.078721
H179	H	0.900174	-0.365793	-0.777828
H180	H	1.400174	0.134207	-0.277828
N181	N	1.106812	-0.218676	-0.977552
N182	N	1.606812	0.281324	-0.477552
N183	N	1.145482	-0.191146	-1.011970
N184	N	1.645482	0.308854	-0.511970
H185	H	1.178986	-0.167305	-0.986963
H186	H	1.678986	0.332695	-0.486963
H187	H	0.928715	-0.345452	-1.110550
H188	H	1.428715	0.154548	-0.610550
N189	N	0.930675	-0.344055	-0.898403
N190	N	1.430675	0.155945	-0.398403
N191	N	0.884289	-0.325399	-0.937353
N192	N	1.384289	0.174601	-0.437353
H193	H	0.850789	-0.349231	-0.962384
H194	H	1.350789	0.150769	-0.462384
H195	H	0.269669	-0.241408	-0.311157
H196	H	0.769669	0.258592	0.188843
H197	H	0.395536	-0.372241	-0.479179
H198	H	0.895536	0.127759	0.020821
N199	N	0.896844	-0.368169	-0.637015
N200	N	1.396844	0.131831	-0.137015
N201	N	0.855393	-0.397677	-0.667983
N202	N	1.355393	0.102323	-0.167983
H203	H	0.824137	-0.419923	-0.640188
H204	H	1.324137	0.080077	-0.140188
N205	N	0.925400	-0.347827	-0.969735
N206	N	1.425400	0.152173	-0.469735
N207	N	0.951766	-0.380727	-0.929917
N208	N	1.451766	0.119273	-0.429917
H209	H	0.920523	-0.402976	-0.902113
H210	H	1.420523	0.097024	-0.402113
H211	H	0.402492	-0.245810	-0.316795
H212	H	0.902492	0.254190	0.183205
H213	H	1.057043	-0.254095	-0.871348
H214	H	1.557043	0.245905	-0.371348
H215	H	1.091528	-0.229538	-1.117562
H216	H	1.591528	0.270462	-0.617562
H217	H	0.728252	-0.350100	-0.450727
H218	H	1.228252	0.149900	0.049273
H219	H	0.913696	-0.593627	-0.458716
H220	H	1.413696	-0.093627	0.041284
N221	N	1.139957	-0.740633	-0.251351
N222	N	1.639957	-0.240633	0.248649
N223	N	1.138105	-0.744658	-0.186464
N224	N	1.638105	-0.244658	0.313536
H225	H	1.171840	-0.725056	-0.155507
H226	H	1.671840	-0.225056	0.344493
H227	H	0.489010	-0.250426	-0.322720
H228	H	0.989010	0.249574	0.177280
N229	N	0.595202	-0.211806	-0.273096
N230	N	1.095202	0.288194	0.226904
N231	N	0.606113	-0.213514	-0.208745
N232	N	1.106113	0.286486	0.291255
H233	H	0.581091	-0.187509	-0.175328
H234	H	1.081091	0.312491	0.324672
N235	N	0.743207	-0.216694	-0.279410
N236	N	1.243207	0.283306	0.220590
N237	N	0.734867	-0.168330	-0.283838
N238	N	1.234867	0.331670	0.216162
H239	H	0.762663	-0.144060	-0.252688
H240	H	1.262663	0.355940	0.247312
N241	N	1.093059	-0.489339	-0.294191
N242	N	1.593059	0.010661	0.205809
N243	N	1.134828	-0.513826	-0.255914
N244	N	1.634828	-0.013826	0.244086
H245	H	1.168564	-0.494219	-0.224964
H246	H	1.668564	0.005781	0.275036
N247	N	1.093129	-0.599696	-0.294218
N248	N	1.593129	-0.099696	0.205782
N249	N	1.134868	-0.575404	-0.255930
N250	N	1.634868	-0.075404	0.244070
H251	H	1.168627	-0.595168	-0.224987
H252	H	1.668627	-0.095168	0.275013
N253	N	1.140026	-0.850985	-0.251386
N254	N	1.640026	-0.350985	0.248614
N255	N	1.181768	-0.826692	-0.213103
N256	N	1.681768	-0.326692	0.286897
H257	H	1.215530	-0.846455	-0.182162
H258	H	1.715530	-0.346455	0.317838
N259	N	1.093300	-0.991689	-0.294276
N260	N	1.593300	-0.491689	0.205724
N261	N	1.091448	-0.995703	-0.229387
N262	N	1.591448	-0.495703	0.270613
H263	H	1.125180	-0.976093	-0.198436
H264	H	1.625180	-0.476093	0.301564
N265	N	1.093350	-1.102078	-0.294308
N266	N	1.593350	-0.602078	0.205692
N267	N	1.093360	-1.150832	-0.294327
N268	N	1.593360	-0.650832	0.205673
H269	H	1.127106	-1.170620	-0.263397
H270	H	1.627106	-0.670620	0.236603
N271	N	0.904230	-1.101602	-0.467672
N272	N	1.404230	-0.601602	0.032328
N273	N	0.862460	-1.077112	-0.505946
N274	N	1.362460	-0.577112	-0.005946
H275	H	0.828714	-1.096716	-0.536887
H276	H	1.328714	-0.596716	-0.036887
H277	H	0.913888	-0.996922	-0.458781
H278	H	1.413888	-0.496922	0.041219
N279	N	0.857361	-0.850301	-0.510544
N280	N	1.357361	-0.350301	-0.010544
N281	N	0.815600	-0.825809	-0.548823
N282	N	1.315600	-0.325809	-0.048823
H283	H	0.781859	-0.845410	-0.579773
H284	H	1.281859	-0.345410	-0.079773
N285	N	0.857322	-0.739947	-0.510531
N286	N	1.357322	-0.239947	-0.010531
N287	N	0.815580	-0.764233	-0.548821
N288	N	1.315580	-0.264233	-0.048821
H289	H	0.781826	-0.744466	-0.579765
H290	H	1.281826	-0.244466	-0.079765
H291	H	0.913645	-0.494558	-0.458687
H292	H	1.413645	0.005442	0.041313
N293	N	1.078269	-0.239020	-0.644828
N294	N	1.578269	0.260980	-0.144828
N295	N	1.116934	-0.211488	-0.679249
N296	N	1.616934	0.288512	-0.179249
H297	H	1.150433	-0.187642	-0.654244
H298	H	1.650433	0.312358	-0.154244
