data_functionalizedCrystal
_audit_creation_method	'MofGen! by Chris Wilmer'
_symmetry_space_group_name_H-M	'P1'
_symmetry_Int_Tables_number	1
_symmetry_cell_setting	triclinic
loop_
_symmetry_equiv_pos_as_xyz
  x,y,z
_cell_length_a	19.902436
_cell_length_b	23.196402
_cell_length_c	23.196401
_cell_angle_alpha	60.008822
_cell_angle_beta	90.009915
_cell_angle_gamma	60.002618
loop_
_atom_site_label
_atom_site_type_symbol
_atom_site_fract_x
_atom_site_fract_y
_atom_site_fract_z
Zr1	Zr	0.647243	0.631064	-0.075693
O2	O	0.539942	0.751320	-0.167728
O3	O	0.680134	0.510802	-0.047482
O4	O	0.680105	0.631069	-0.167747
O5	O	0.539998	0.631052	0.047408
O6	O	0.790670	0.631080	-0.167759
O7	O	0.539972	0.631053	-0.047463
O8	O	0.790723	0.415944	0.047374
O9	O	0.539945	0.846188	-0.167724
O10	O	0.776679	0.560278	-0.035455
O11	O	0.694185	0.560269	0.035355
O12	O	0.694150	0.701868	-0.106242
O13	O	0.611656	0.701859	-0.035432
Zr14	Zr	0.823625	0.631080	0.075599
Zr15	Zr	0.823583	0.631082	-0.075710
Zr16	Zr	0.647286	0.631062	0.075616
Zr17	Zr	0.647248	0.782367	-0.075686
Zr18	Zr	0.823620	0.479777	0.075592
O19	O	0.790734	0.751342	0.047388
O20	O	0.790674	0.751346	-0.167753
O21	O	0.540002	0.751317	0.047414
O22	O	0.930927	0.510824	0.167634
O23	O	0.930867	0.510827	-0.047507
O24	O	0.680194	0.510799	0.167660
O25	O	0.930870	0.631093	-0.047502
O26	O	0.790764	0.631075	0.167654
O27	O	0.680198	0.631064	0.167665
O28	O	0.930897	0.631091	0.047369
O29	O	0.680111	0.846202	-0.167738
O30	O	0.790757	0.415943	0.167644
O31	O	0.930923	0.415957	0.167630
O32	O	0.930890	0.415959	0.047360
O33	O	0.539979	0.846186	-0.047454
O34	O	0.680145	0.846200	-0.047468
O35	O	0.776719	0.560276	0.106148
O36	O	0.859213	0.560286	0.035338
O37	O	0.776684	0.701875	-0.035449
O38	O	0.694189	0.701866	0.035361
C39	C	0.735428	0.441816	-0.000055
C40	C	0.735426	0.377584	-0.000058
C41	C	0.514860	0.631050	-0.000025
C42	C	0.439999	0.631042	-0.000017
C43	C	0.778482	0.347419	-0.037022
C44	C	0.778490	0.287058	-0.037017
C45	C	0.735426	0.256876	-0.000056
C46	C	0.692369	0.287045	0.036917
C47	C	0.692369	0.347399	0.036916
C48	C	0.663279	0.194839	-0.005323
C49	C	0.663276	0.134490	-0.005327
C50	C	0.735427	0.070721	-0.000049
C51	C	0.807579	0.067317	0.005219
C52	C	0.807579	0.127671	0.005218
C53	C	0.735422	0.191432	-0.000050
C54	C	0.778495	-0.024896	-0.037009
C55	C	0.778505	-0.085261	-0.036998
C56	C	0.692376	-0.085267	0.036931
C57	C	0.692374	-0.024908	0.036924
C58	C	0.735431	0.005277	-0.000049
C59	C	0.167951	0.631082	-0.000057
C60	C	0.248502	0.541765	0.044384
C61	C	0.326405	0.541709	0.044635
C62	C	0.302918	0.631062	-0.000037
C63	C	0.248809	0.675418	0.032538
C64	C	0.171247	0.674847	0.032863
C65	C	0.170076	0.676683	-0.077092
C66	C	0.248954	0.675004	-0.076970
C67	C	0.379192	0.631055	-0.000027
C68	C	0.091675	0.631092	-0.000065
C69	C	0.956008	0.631094	-0.000069
C70	C	1.030869	0.631102	-0.000077
C71	C	0.735381	0.631075	-0.189311
C72	C	0.735364	0.631076	-0.253546
C73	C	0.735440	0.820328	-0.000039
C74	C	0.735442	0.884560	-0.000036
C75	C	0.692288	0.704982	-0.320669
C76	C	0.692309	0.704983	-0.381024
C77	C	0.735394	0.631074	-0.374252
C78	C	0.778479	0.557158	-0.307117
C79	C	0.778464	0.557159	-0.246764
C80	C	0.729274	0.574445	-0.441571
C81	C	0.729283	0.574448	-0.501925
C82	C	0.735446	0.631068	-0.560400
C83	C	0.741583	0.687700	-0.558521
C84	C	0.741568	0.687701	-0.498168
C85	C	0.735416	0.631065	-0.439691
C86	C	0.692391	0.704980	-0.692970
C87	C	0.692418	0.704978	-0.753325
C88	C	0.778583	0.557151	-0.679415
C89	C	0.778561	0.557155	-0.619062
C90	C	0.735461	0.631072	-0.625844
C91	C	0.735487	0.631069	0.189217
C92	C	0.735505	0.631068	0.253452
C93	C	0.956002	0.441838	-0.000077
C94	C	1.030861	0.377614	-0.000088
C95	C	0.735481	0.441813	0.189209
C96	C	0.735497	0.377580	0.253441
C97	C	0.956055	0.441835	0.189187
C98	C	1.030932	0.377610	0.253411
C99	C	0.514814	0.820309	-0.189281
C100	C	0.439937	0.884534	-0.253505
C101	C	0.514866	0.820306	-0.000017
C102	C	0.440008	0.884530	-0.000006
C103	C	0.735388	0.820331	-0.189303
C104	C	0.735372	0.884564	-0.253535
C105	C	1.022934	0.347450	-0.037052
C106	C	1.093265	0.287113	-0.037076
C107	C	1.171522	0.256937	-0.000131
C108	C	1.179448	0.287107	0.036835
C109	C	1.109118	0.347447	0.036854
C110	C	0.778586	0.347420	0.320565
C111	C	0.778598	0.287074	0.380923
C112	C	0.735525	0.256887	0.374156
C113	C	0.692430	0.287053	0.307026
C114	C	0.692414	0.347402	0.246669
C115	C	1.109163	0.347454	0.246610
C116	C	1.179524	0.287116	0.306950
C117	C	1.171652	0.256931	0.374090
C118	C	1.093413	0.287093	0.380890
C119	C	1.023053	0.347434	0.320551
C120	C	0.361705	0.914698	-0.246704
C121	C	0.291344	0.975054	-0.307044
C122	C	0.299216	1.005243	-0.374184
C123	C	0.377456	0.975077	-0.380984
C124	C	0.447815	0.914725	-0.320645
C125	C	0.447935	0.914701	0.036952
C126	C	0.377604	0.975055	0.036959
C127	C	0.299346	1.005233	0.000012
C128	C	0.291421	0.975060	-0.036951
C129	C	0.361751	0.914711	-0.036962
C130	C	0.778453	0.914733	-0.246746
C131	C	0.778454	0.975078	-0.307093
C132	C	0.735369	1.005258	-0.374228
C133	C	0.692286	0.975084	-0.381016
C134	C	0.692290	0.914735	-0.320670
H135	H	0.813544	0.371991	-0.067126
Br136	Br	0.837071	0.456843	-0.670216
H137	H	0.813634	0.496973	-0.564406
Br138	Br	1.267150	0.175038	0.455973
H139	H	0.657207	0.999666	-0.435686
Br140	Br	0.836933	0.873788	-0.155641
H141	H	1.086795	0.262555	-0.067177
Br142	Br	0.633933	0.388323	0.155575
Br143	Br	1.119869	0.388411	0.155498
Br144	Br	1.285696	0.246193	0.297704
Br145	Br	1.082743	0.246119	0.472016
Br146	Br	0.565355	0.139120	-0.012483
Br147	Br	0.350999	0.873739	-0.155592
Br148	Br	0.916884	0.388349	0.329795
Br149	Br	0.565351	0.281380	-0.012486
Br150	Br	1.266963	0.175045	-0.000164
H151	H	0.171456	0.643324	0.089550
H152	H	0.227645	0.999605	-0.301493
Br153	Br	0.203905	1.087136	0.000034
Br154	Br	0.185207	1.016023	-0.087089
H155	H	0.250190	0.506705	0.022649
H156	H	0.241918	1.054385	-0.423310
H157	H	0.383855	0.999664	-0.435657
Br158	Br	1.285661	0.246142	0.086974
Br159	Br	0.749944	0.764549	-0.637876
Br160	Br	0.076170	0.784066	-0.017604
Br161	Br	0.916736	0.388392	-0.087200
H162	H	0.365514	0.506588	0.101467
Br163	Br	1.119891	0.388373	0.087030
Br164	Br	0.735370	1.087162	-0.456120
Br165	Br	0.633774	0.805297	-0.329875
Br166	Br	0.837054	0.388371	0.329768
Br167	Br	0.633809	0.873806	-0.329897
H168	H	0.229037	0.741116	0.001728
Br169	Br	0.350977	0.873769	-0.087121
Br170	Br	0.553984	0.873793	-0.329889
H171	H	0.657344	0.765164	-0.807981
Br172	Br	0.836938	0.246099	-0.087176
Br173	Br	0.905496	0.123050	0.012371
Br174	Br	0.836924	1.016019	-0.297864
H175	H	0.866334	0.015389	0.009526
H176	H	0.511650	0.890134	0.067043
H177	H	0.813558	-0.000321	-0.067113
H178	H	0.384073	0.999611	0.067061
Br179	Br	0.837089	0.246146	0.472020
Br180	Br	0.735555	0.174985	0.456078
Br181	Br	0.633920	0.805293	-0.702169
Br182	Br	0.836941	-0.126200	-0.087171
Br183	Br	0.633933	-0.126222	0.087094
H184	H	0.657310	-0.000344	0.067022
H185	H	0.657361	0.262466	0.301527
H186	H	0.657307	0.262467	0.067011
Br187	Br	0.720988	0.497547	-0.362190
Br188	Br	0.392059	0.483702	0.008221
Br189	Br	0.633934	0.388339	0.087088
H190	H	0.249265	0.506882	0.100869
H191	H	0.286278	0.644612	0.088687
H192	H	0.167079	0.648100	-0.104302
H193	H	0.286272	0.642663	-0.101305
Br194	Br	0.218054	0.783663	-0.136805
H195	H	0.113298	0.742481	-0.110359
H196	H	0.657230	0.765168	-0.435686
H197	H	0.746566	0.733811	-0.496641
Br198	Br	0.836958	0.456852	-0.297924
Br199	Br	0.720943	0.497599	-0.504473
H200	H	0.813542	0.496974	-0.192107
