data_functionalizedCrystal
_audit_creation_method	'MofGen! by Chris Wilmer'
_symmetry_space_group_name_H-M	'P1'
_symmetry_Int_Tables_number	1
_symmetry_cell_setting	triclinic
loop_
_symmetry_equiv_pos_as_xyz
  x,y,z
_cell_length_a	25.639242
_cell_length_b	29.839126
_cell_length_c	25.639240
_cell_angle_alpha	89.969504
_cell_angle_beta	90.028283
_cell_angle_gamma	89.971322
loop_
_atom_site_label
_atom_site_type_symbol
_atom_site_fract_x
_atom_site_fract_y
_atom_site_fract_z
Zn1	Zn	0.799280	-0.254094	-0.208253
Zn2	Zn	1.132614	0.079240	0.125080
Zn3	Zn	1.465947	0.412573	0.458413
Zn4	Zn	0.799203	-0.178955	-0.295679
Zn5	Zn	1.132536	0.154378	0.037654
Zn6	Zn	1.465869	0.487711	0.370988
Zn7	Zn	0.711847	-0.178965	-0.208253
Zn8	Zn	1.045180	0.154369	0.125081
Zn9	Zn	1.378513	0.487702	0.458414
Zn10	Zn	0.711811	-0.254045	-0.295653
Zn11	Zn	1.045144	0.079288	0.037681
Zn12	Zn	1.378477	0.412622	0.371014
O13	O	0.755535	-0.216515	-0.251959
O14	O	1.088868	0.116819	0.081374
O15	O	1.422202	0.450152	0.414707
O16	O	0.872435	-0.244143	-0.219862
O17	O	1.205768	0.089190	0.113472
O18	O	1.539102	0.422524	0.446805
O19	O	0.787597	-0.116089	-0.284092
O20	O	1.120931	0.217244	0.049241
O21	O	1.454264	0.550577	0.382574
O22	O	0.723492	-0.188955	-0.135087
O23	O	1.056826	0.144379	0.198246
O24	O	1.390159	0.477712	0.531579
O25	O	0.872378	-0.188939	-0.284093
O26	O	1.205712	0.144394	0.049240
O27	O	1.539045	0.477728	0.382574
O28	O	0.787729	-0.244152	-0.135088
O29	O	1.121063	0.089181	0.198245
O30	O	1.454396	0.422515	0.531579
O31	O	0.723417	-0.116096	-0.219861
O32	O	1.056751	0.217237	0.113473
O33	O	1.390084	0.550570	0.446806
O34	O	0.638677	-0.188908	-0.219835
O35	O	0.972010	0.144426	0.113498
O36	O	1.305343	0.477759	0.446832
O37	O	0.723431	-0.316919	-0.284048
O38	O	1.056764	0.016415	0.049285
O39	O	1.390098	0.349748	0.382619
O40	O	0.638650	-0.244069	-0.284047
O41	O	0.971984	0.089264	0.049286
O42	O	1.305317	0.422598	0.382619
O43	O	0.787695	-0.316954	-0.219836
O44	O	1.121028	0.016379	0.113497
O45	O	1.454361	0.349712	0.446831
O46	O	0.787563	-0.188892	-0.368841
O47	O	1.120896	0.144441	-0.035507
O48	O	1.454229	0.477775	0.297826
O49	O	0.723356	-0.244060	-0.368821
O50	O	1.056689	0.089273	-0.035488
O51	O	1.390023	0.422607	0.297845
C52	C	0.619693	-0.216484	-0.251939
C53	C	0.953026	0.116849	0.081395
C54	C	1.286359	0.450182	0.414728
C55	C	0.561578	-0.216482	-0.251942
C56	C	0.894912	0.116851	0.081391
C57	C	1.228245	0.450185	0.414724
C58	C	0.201211	-0.245210	-0.285451
C59	C	0.534544	0.088123	0.047883
C60	C	0.867877	0.421457	0.381216
C61	C	0.146606	-0.245217	-0.285454
C62	C	0.479940	0.088116	0.047880
C63	C	0.813273	0.421450	0.381213
O64	O	0.118365	-0.269617	-0.313918
O65	O	0.451699	0.063716	0.019415
O66	O	0.785032	0.397050	0.352749
N67	N	0.119296	-0.216544	-0.251974
N68	N	0.452629	0.116789	0.081360
N69	N	0.785963	0.450123	0.414693
C70	C	0.146593	-0.187865	-0.218484
C71	C	0.479926	0.145468	0.114849
C72	C	0.813260	0.478801	0.448182
O73	O	0.118349	-0.163477	-0.190007
O74	O	0.451683	0.169856	0.143326
O75	O	0.785016	0.503189	0.476660
C76	C	0.201196	-0.187861	-0.218479
C77	C	0.534530	0.145473	0.114854
C78	C	0.867863	0.478806	0.448188
C79	C	0.228504	-0.216532	-0.251965
C80	C	0.561837	0.116801	0.081368
C81	C	0.895170	0.450134	0.414702
C82	C	0.228518	-0.273880	-0.318934
C83	C	0.561851	0.059454	0.014400
C84	C	0.895185	0.392787	0.347733
C85	C	0.283119	-0.273872	-0.318931
C86	C	0.616452	0.059461	0.014402
C87	C	0.949785	0.392795	0.347736
C88	C	0.310412	-0.245194	-0.285445
C89	C	0.643745	0.088139	0.047888
C90	C	0.977078	0.421472	0.381221
C91	C	0.283104	-0.216525	-0.251962
C92	C	0.616437	0.116809	0.081371
C93	C	0.949771	0.450142	0.414704
C94	C	0.228492	-0.159185	-0.184988
C95	C	0.561825	0.174149	0.148346
C96	C	0.895159	0.507482	0.481679
C97	C	0.283099	-0.159183	-0.184985
C98	C	0.616432	0.174151	0.148349
C99	C	0.949766	0.507484	0.481682
C100	C	0.310407	-0.187854	-0.218471
C101	C	0.643740	0.145479	0.114863
C102	C	0.977073	0.478812	0.448196
C103	C	0.364998	-0.187839	-0.218474
C104	C	0.698331	0.145494	0.114859
C105	C	1.031664	0.478827	0.448192
N106	N	0.392308	-0.216512	-0.251954
N107	N	0.725641	0.116821	0.081379
N108	N	1.058975	0.450154	0.414712
C109	C	0.365015	-0.245190	-0.285440
C110	C	0.698348	0.088143	0.047893
C111	C	1.031682	0.421477	0.381227
C112	C	0.031922	-0.187877	-0.218498
C113	C	0.365256	0.145456	0.114836
C114	C	0.698589	0.478789	0.448169
C115	C	-0.022680	-0.187879	-0.218506
C116	C	0.310653	0.145454	0.114828
C117	C	0.643987	0.478787	0.448161
C118	C	-0.022663	-0.245232	-0.285474
C119	C	0.310670	0.088102	0.047859
C120	C	0.644004	0.421435	0.381192
C121	C	0.031940	-0.245227	-0.285469
C122	C	0.365274	0.088106	0.047864
C123	C	0.698607	0.421439	0.381198
C124	C	0.059233	-0.216550	-0.251978
C125	C	0.392566	0.116783	0.081355
C126	C	0.725899	0.450116	0.414689
C127	C	0.479680	-0.245171	-0.285432
C128	C	0.813013	0.088162	0.047901
C129	C	1.146347	0.421496	0.381235
C130	C	0.534285	-0.245159	-0.285428
C131	C	0.867619	0.088174	0.047905
C132	C	1.200952	0.421507	0.381239
C133	C	0.534264	-0.187809	-0.218458
C134	C	0.867597	0.145525	0.114876
C135	C	1.200930	0.478858	0.448209
C136	C	0.479663	-0.187818	-0.218463
C137	C	0.812996	0.145515	0.114870
C138	C	1.146330	0.478848	0.448203
C139	C	0.452373	-0.216503	-0.251952
C140	C	0.785706	0.116830	0.081381
C141	C	1.119039	0.450163	0.414714
O142	O	0.393273	-0.163453	-0.190023
O143	O	0.726607	0.169880	0.143310
O144	O	1.059940	0.503213	0.476644
O145	O	0.393265	-0.269578	-0.313908
O146	O	0.726598	0.063756	0.019426
O147	O	1.059932	0.397089	0.352759
C148	C	0.755567	-0.333693	-0.251939
C149	C	1.088901	-0.000360	0.081394
C150	C	1.422234	0.332974	0.414727
C151	C	0.755581	-0.383627	-0.251931
C152	C	1.088915	-0.050294	0.081403
C153	C	1.422248	0.283039	0.414736
C154	C	0.722173	-0.693277	-0.218433
C155	C	1.055506	-0.359944	0.114900
C156	C	1.388840	-0.026611	0.448234
C157	C	0.722188	-0.880951	-0.218397
C158	C	1.055521	-0.547617	0.114937
C159	C	1.388854	-0.214284	0.448270
O160	O	0.693757	-0.905221	-0.189968
O161	O	1.027090	-0.571887	0.143366
O162	O	1.360423	-0.238554	0.476699
N163	N	0.755606	-0.904413	-0.251833
N164	N	1.088939	-0.571079	0.081501
N165	N	1.422273	-0.237746	0.414834
C166	C	0.789020	-0.880954	-0.285283
C167	C	1.122354	-0.547621	0.048051
C168	C	1.455687	-0.214287	0.381384
O169	O	0.817441	-0.905216	-0.313725
O170	O	1.150775	-0.571883	0.019608
O171	O	1.484108	-0.238550	0.352942
C172	C	0.789003	-0.693282	-0.285321
C173	C	1.122336	-0.359948	0.048012
C174	C	1.455669	-0.026615	0.381346
C175	C	0.755586	-0.669822	-0.251879
C176	C	1.088919	-0.336488	0.081454
C177	C	1.422253	-0.003155	0.414788
C178	C	0.688759	-0.669818	-0.184994
C179	C	1.022092	-0.336484	0.148339
C180	C	1.355425	-0.003151	0.481673
C181	C	0.688757	-0.622902	-0.185002
C182	C	1.022091	-0.289569	0.148332
C183	C	1.355424	0.043765	0.481665
C184	C	0.722170	-0.599446	-0.218448
C185	C	1.055504	-0.266113	0.114886
C186	C	1.388837	0.067220	0.448219
C187	C	0.755585	-0.622906	-0.251887
C188	C	1.088918	-0.289573	0.081447
C189	C	1.422251	0.043760	0.414780
C190	C	0.822414	-0.669824	-0.318773
C191	C	1.155747	-0.336490	0.014560
C192	C	1.489081	-0.003157	0.347893
C193	C	0.822406	-0.622903	-0.318781
C194	C	1.155739	-0.289569	0.014553
C195	C	1.489072	0.043764	0.347886
C196	C	0.788989	-0.599443	-0.285339
C197	C	1.122322	-0.266109	0.047994
C198	C	1.455656	0.067224	0.381328
C199	C	0.788996	-0.552535	-0.285340
C200	C	1.122330	-0.219202	0.047993
C201	C	1.455663	0.114131	0.381327
N202	N	0.755578	-0.529073	-0.251904
N203	N	1.088911	-0.195740	0.081429
N204	N	1.422245	0.137594	0.414763
C205	C	0.722165	-0.552529	-0.218458
C206	C	1.055498	-0.219195	0.114875
C207	C	1.388832	0.114138	0.448209
C208	C	0.789028	-0.979485	-0.285259
C209	C	1.122362	-0.646151	0.048074
C210	C	1.455695	-0.312818	0.381407
C211	C	0.789033	-1.026402	-0.285249
C212	C	1.122367	-0.693069	0.048084
C213	C	1.455700	-0.359736	0.381418
C214	C	0.722200	-1.026396	-0.218364
C215	C	1.055533	-0.693062	0.114970
C216	C	1.388867	-0.359729	0.448303
C217	C	0.722198	-0.979477	-0.218372
C218	C	1.055531	-0.646144	0.114962
C219	C	1.388864	-0.312810	0.448295
C220	C	0.755610	-0.956022	-0.251823
C221	C	1.088943	-0.622689	0.081510
C222	C	1.422277	-0.289356	0.414843
C223	C	0.722165	-0.454003	-0.218476
C224	C	1.055498	-0.120669	0.114858
C225	C	1.388832	0.212664	0.448191
C226	C	0.722168	-0.407083	-0.218485
C227	C	1.055502	-0.073750	0.114849
C228	C	1.388835	0.259584	0.448182
C229	C	0.789000	-0.407094	-0.285372
C230	C	1.122333	-0.073760	0.047962
C231	C	1.455666	0.259573	0.381295
C232	C	0.788999	-0.454009	-0.285361
C233	C	1.122332	-0.120676	0.047972
C234	C	1.455665	0.212657	0.381306
C235	C	0.755577	-0.477463	-0.251911
C236	C	1.088910	-0.144129	0.081422
C237	C	1.422244	0.189204	0.414755
O238	O	0.817408	-0.528236	-0.313758
O239	O	1.150742	-0.194903	0.019575
O240	O	1.484075	0.138431	0.352908
O241	O	0.693740	-0.528258	-0.190028
O242	O	1.027074	-0.194925	0.143305
O243	O	1.360407	0.138409	0.476639
C244	C	0.722174	-0.740193	-0.218426
C245	C	1.055508	-0.406860	0.114908
C246	C	1.388841	-0.073526	0.448241
C247	C	0.755589	-0.763653	-0.251864
C248	C	1.088922	-0.430319	0.081469
C249	C	1.422255	-0.096986	0.414802
C250	C	0.789002	-0.740197	-0.285311
C251	C	1.122335	-0.406864	0.048023
C252	C	1.455668	-0.073530	0.381356
C253	C	0.755594	-0.810571	-0.251854
C254	C	1.088927	-0.477237	0.081479
C255	C	1.422261	-0.143904	0.414813
C256	C	0.722181	-0.834026	-0.218408
C257	C	1.055514	-0.500693	0.114925
C258	C	1.388848	-0.167360	0.448259
C259	C	0.688763	-0.810564	-0.184972
C260	C	1.022096	-0.477231	0.148361
C261	C	1.355429	-0.143897	0.481695
C262	C	0.688761	-0.763648	-0.184979
C263	C	1.022095	-0.430315	0.148354
C264	C	1.355428	-0.096982	0.481687
C265	C	0.822420	-0.763659	-0.318747
C266	C	1.155753	-0.430326	0.014587
C267	C	1.489087	-0.096993	0.347920
C268	C	0.822419	-0.810575	-0.318736
C269	C	1.155752	-0.477242	0.014597
C270	C	1.489086	-0.143908	0.347931
C271	C	0.789006	-0.834031	-0.285290
C272	C	1.122339	-0.500697	0.048044
C273	C	1.455673	-0.167364	0.381377
C274	C	0.891908	-0.216545	-0.251980
C275	C	1.225241	0.116788	0.081353
C276	C	1.558575	0.450121	0.414686
C277	C	0.950022	-0.216559	-0.251989
C278	C	1.283355	0.116775	0.081344
C279	C	1.616689	0.450108	0.414677
C280	C	0.755461	-0.216479	-0.387802
C281	C	1.088795	0.116854	-0.054469
C282	C	1.422128	0.450187	0.278865
C283	C	0.755477	-0.216479	-0.445916
C284	C	1.088811	0.116854	-0.112583
C285	C	1.422144	0.450187	0.220751
C286	C	0.755533	-0.099792	-0.251942
C287	C	1.088866	0.233541	0.081392
C288	C	1.422200	0.566875	0.414725
C289	C	0.755620	-0.049858	-0.251803
C290	C	1.088954	0.283475	0.081531
C291	C	1.422287	0.616809	0.414864
C292	C	0.789000	-0.245308	-0.806241
C293	C	1.122333	0.088026	-0.472907
C294	C	1.455667	0.421359	-0.139574
C295	C	0.789015	-0.245317	-0.860845
C296	C	1.122349	0.088017	-0.527512
C297	C	1.455682	0.421350	-0.194178
O298	O	0.817430	-0.269791	-0.889049
O299	O	1.150763	0.063542	-0.555716
O300	O	1.484096	0.396875	-0.222383
N301	N	0.755608	-0.216558	-0.888198
N302	N	1.088941	0.116775	-0.554865
N303	N	1.422274	0.450109	-0.221532
C304	C	0.722179	-0.187792	-0.860945
C305	C	1.055512	0.145542	-0.527611
C306	C	1.388845	0.478875	-0.194278
O307	O	0.693764	-0.163331	-0.889225
O308	O	1.027097	0.170002	-0.555891
O309	O	1.360430	0.503335	-0.222558
C310	C	0.722161	-0.187785	-0.806341
C311	C	1.055494	0.145548	-0.473008
C312	C	1.388828	0.478882	-0.139675
C313	C	0.755575	-0.216542	-0.778991
C314	C	1.088908	0.116791	-0.445657
C315	C	1.422241	0.450124	-0.112324
C316	C	0.822410	-0.274063	-0.778890
C317	C	1.155744	0.059270	-0.445557
C318	C	1.489077	0.392604	-0.112224
C319	C	0.822396	-0.274053	-0.724290
C320	C	1.155729	0.059280	-0.390956
C321	C	1.489062	0.392614	-0.057623
C322	C	0.788970	-0.245288	-0.697040
C323	C	1.122304	0.088045	-0.363706
C324	C	1.455637	0.421379	-0.030373
C325	C	0.755560	-0.216533	-0.724390
C326	C	1.088893	0.116801	-0.391057
C327	C	1.422226	0.450134	-0.057724
C328	C	0.688730	-0.159021	-0.779088
C329	C	1.022063	0.174312	-0.445755
C330	C	1.355396	0.507645	-0.112422
C331	C	0.688714	-0.159017	-0.724481
C332	C	1.022048	0.174316	-0.391148
C333	C	1.355381	0.507649	-0.057815
C334	C	0.722128	-0.187775	-0.697131
C335	C	1.055461	0.145559	-0.363798
C336	C	1.388795	0.478892	-0.030464
C337	C	0.722119	-0.187758	-0.642540
C338	C	1.055453	0.145576	-0.309206
C339	C	1.388786	0.478909	0.024127
N340	N	0.755527	-0.216516	-0.615186
N341	N	1.088860	0.116817	-0.281853
N342	N	1.422194	0.450150	0.051480
C343	C	0.788953	-0.245281	-0.642436
C344	C	1.122286	0.088052	-0.309103
C345	C	1.455619	0.421385	0.024230
C346	C	0.722218	-0.187808	-0.975615
C347	C	1.055551	0.145525	-0.642282
C348	C	1.388884	0.478859	-0.308948
C349	C	0.722237	-0.187812	-1.030217
C350	C	1.055571	0.145521	-0.696884
C351	C	1.388904	0.478855	-0.363551
C352	C	0.789074	-0.245338	-1.030114
C353	C	1.122407	0.087995	-0.696781
C354	C	1.455740	0.421329	-0.363448
C355	C	0.789056	-0.245331	-0.975511
C356	C	1.122389	0.088002	-0.642178
C357	C	1.455723	0.421335	-0.308844
C358	C	0.755625	-0.216567	-0.948262
C359	C	1.088959	0.116767	-0.614928
C360	C	1.422292	0.450100	-0.281595
C361	C	0.788919	-0.245258	-0.527771
C362	C	1.122252	0.088075	-0.194438
C363	C	1.455586	0.421408	0.138895
C364	C	0.788903	-0.245245	-0.473166
C365	C	1.122236	0.088089	-0.139833
C366	C	1.455569	0.421422	0.193501
C367	C	0.722065	-0.187721	-0.473274
C368	C	1.055398	0.145613	-0.139941
C369	C	1.388731	0.478946	0.193393
C370	C	0.722083	-0.187732	-0.527875
C371	C	1.055416	0.145601	-0.194541
C372	C	1.388750	0.478934	0.138792
C373	C	0.755512	-0.216505	-0.555122
C374	C	1.088845	0.116828	-0.221789
C375	C	1.422178	0.450162	0.111545
O376	O	0.693718	-0.163297	-0.614301
O377	O	1.027052	0.170037	-0.280967
O378	O	1.360385	0.503370	0.052366
O379	O	0.817358	-0.269742	-0.614150
O380	O	1.150691	0.063591	-0.280816
O381	O	1.484024	0.396925	0.052517
C382	C	0.755623	-0.216560	-0.115586
C383	C	1.088957	0.116773	0.217747
C384	C	1.422290	0.450107	0.551080
C385	C	0.755661	-0.216579	-0.057472
C386	C	1.088994	0.116754	0.275861
C387	C	1.422328	0.450088	0.609194
H388	H	0.694956	-0.387984	-0.191250
H389	H	1.028290	-0.054651	0.142084
H390	H	1.361623	0.278682	0.475417
H391	H	0.816215	-0.473111	-0.312586
H392	H	1.149548	-0.139778	0.020747
H393	H	1.482882	0.193555	0.354080
O394	O	0.858467	-0.835873	-0.354808
O395	O	1.191800	-0.502540	-0.021475
O396	O	1.525133	-0.169206	0.311859
H397	H	0.852861	-0.872440	-0.349186
H398	H	1.186194	-0.539106	-0.015853
H399	H	1.519527	-0.205773	0.317480
H400	H	0.305318	-0.135833	-0.157709
H401	H	0.638651	0.197501	0.175625
H402	H	0.971984	0.530834	0.508958
H403	H	0.556517	-0.268508	-0.312698
H404	H	0.889850	0.064826	0.020635
H405	H	1.223183	0.398159	0.353968
O406	O	0.825093	-0.276350	-0.946014
O407	O	1.158426	0.056984	-0.612680
O408	O	1.491760	0.390317	-0.279347
H409	H	0.851702	-0.256263	-0.921134
H410	H	1.185035	0.077070	-0.587800
H411	H	1.518368	0.410404	-0.254467
H412	H	0.816290	-0.268761	-1.052311
H413	H	1.149623	0.064572	-0.718978
H414	H	1.482956	0.397906	-0.385644
H415	H	0.694852	-0.164299	-0.451078
H416	H	1.028185	0.169034	-0.117745
H417	H	1.361518	0.502368	0.215588
H418	H	-0.044909	-0.164527	-0.191243
H419	H	0.288424	0.168806	0.142090
H420	H	0.621757	0.502139	0.475424
O421	O	0.686157	-0.954175	-0.182302
O422	O	1.019490	-0.620842	0.151032
O423	O	1.352823	-0.287509	0.484365
H424	H	0.645117	-0.963163	-0.191261
H425	H	0.978450	-0.629830	0.142072
H426	H	1.311784	-0.296496	0.475406
H427	H	0.661550	-0.744552	-0.157747
H428	H	0.994883	-0.411218	0.175586
H429	H	1.328217	-0.077885	0.508919
H430	H	0.457467	-0.268530	-0.312701
H431	H	0.790800	0.064803	0.020632
H432	H	1.124133	0.398137	0.353966
H433	H	0.661489	-0.135594	-0.702298
H434	H	0.994823	0.197739	-0.368964
H435	H	1.328156	0.531072	-0.035631
O436	O	0.061359	-0.156934	-0.182387
O437	O	0.394692	0.176399	0.150947
O438	O	0.728025	0.509732	0.484280
H439	H	0.033190	-0.136994	-0.159115
H440	H	0.366524	0.196339	0.174218
H441	H	0.699857	0.529672	0.507551
H442	H	0.849625	-0.688917	-0.346006
H443	H	1.182958	-0.355583	-0.012672
H444	H	1.516292	-0.022250	0.320661
O445	O	0.652689	-0.128004	-0.808578
O446	O	0.986022	0.205329	-0.475245
O447	O	1.319355	0.538663	-0.141912
H448	H	0.626084	-0.148090	-0.833462
H449	H	0.959417	0.185243	-0.500129
H450	H	1.292750	0.518576	-0.166795
H451	H	0.849627	-0.744567	-0.345985
H452	H	1.182961	-0.411233	-0.012652
H453	H	1.516294	-0.077900	0.320682
O454	O	0.563706	-0.156877	-0.182344
O455	O	0.897040	0.176457	0.150989
O456	O	1.230373	0.509790	0.484323
H457	H	0.553248	-0.164650	-0.141323
H458	H	0.886582	0.168683	0.192011
H459	H	1.219915	0.502016	0.525344
H460	H	0.816114	-0.268662	-0.450899
H461	H	1.149447	0.064671	-0.117565
H462	H	1.482781	0.398004	0.215768
O463	O	0.652730	-0.835866	-0.148890
O464	O	0.986063	-0.502533	0.184444
O465	O	1.319396	-0.169200	0.517777
H466	H	0.658349	-0.872431	-0.154507
H467	H	0.991682	-0.539098	0.178827
H468	H	1.325016	-0.205765	0.512160
H469	H	0.816137	-0.268691	-0.549950
H470	H	1.149470	0.064643	-0.216616
H471	H	1.482803	0.397976	0.116717
H472	H	0.816237	-0.960392	-0.312502
H473	H	1.149570	-0.627059	0.020831
H474	H	1.482903	-0.293725	0.354164
O475	O	-0.052109	-0.276113	-0.321649
O476	O	0.281224	0.057220	0.011684
O477	O	0.614557	0.390553	0.345018
H478	H	-0.023951	-0.296031	-0.344957
H479	H	0.309383	0.037302	-0.011624
H480	H	0.642716	0.370635	0.321709
H481	H	0.849618	-0.603808	-0.346018
H482	H	1.182951	-0.270475	-0.012685
H483	H	1.516285	0.062859	0.320648
H484	H	0.816205	-0.387988	-0.312601
H485	H	1.149538	-0.054654	0.020732
H486	H	1.482872	0.278679	0.354066
H487	H	0.694996	-0.164381	-0.953432
H488	H	1.028329	0.168953	-0.620098
H489	H	1.361662	0.502286	-0.286765
O490	O	0.825075	-1.051700	-0.321322
O491	O	1.158409	-0.718366	0.012011
O492	O	1.491742	-0.385033	0.345344
H493	H	0.866115	-1.042708	-0.312371
H494	H	1.199449	-0.709374	0.020962
H495	H	1.532782	-0.376041	0.354296
O496	O	0.686047	-0.156716	-0.557379
O497	O	1.019380	0.176617	-0.224046
O498	O	1.352713	0.509951	0.109287
H499	H	0.662800	-0.136714	-0.529255
H500	H	0.996133	0.196620	-0.195921
H501	H	1.329467	0.529953	0.137412
H502	H	0.206268	-0.135836	-0.157721
H503	H	0.539601	0.197498	0.175612
H504	H	0.872934	0.530831	0.508946
H505	H	0.457428	-0.164471	-0.191197
H506	H	0.790761	0.168863	0.142136
H507	H	1.124095	0.502196	0.475469
O508	O	0.686124	-0.479296	-0.182394
O509	O	1.019457	-0.145963	0.150939
O510	O	1.352791	0.187371	0.484272
H511	H	0.662896	-0.455094	-0.159142
H512	H	0.996229	-0.121761	0.174191
H513	H	1.329562	0.211572	0.507524
H514	H	0.305347	-0.297220	-0.346198
H515	H	0.638681	0.036113	-0.012864
H516	H	0.972014	0.369446	0.320469
O517	O	0.652718	-0.597601	-0.148930
O518	O	0.986051	-0.264268	0.184404
O519	O	1.319384	0.069066	0.517737
H520	H	0.629486	-0.621800	-0.125676
H521	H	0.962819	-0.288466	0.207658
H522	H	1.296153	0.044867	0.540991
H523	H	0.849602	-0.297471	-0.702024
H524	H	1.182936	0.035862	-0.368691
H525	H	1.516269	0.369196	-0.035357
H526	H	0.661547	-0.688910	-0.157758
H527	H	0.994880	-0.355577	0.175575
H528	H	1.328214	-0.022243	0.508909
O529	O	0.686202	-0.156793	-1.059715
O530	O	1.019536	0.176541	-0.726382
O531	O	1.352869	0.509874	-0.393049
H532	H	0.662956	-0.136793	-1.031588
H533	H	0.996290	0.196540	-0.698254
H534	H	1.329623	0.529874	-0.364921
H535	H	0.694995	-1.045501	-0.191129
H536	H	1.028328	-0.712168	0.142204
H537	H	1.361662	-0.378835	0.475537
H538	H	0.054170	-0.268575	-0.312735
H539	H	0.387504	0.064758	0.020598
H540	H	0.720837	0.398092	0.353931
O541	O	0.199084	-0.304761	-0.355113
O542	O	0.532418	0.028573	-0.021780
O543	O	0.865751	0.361906	0.311553
H544	H	0.227255	-0.324672	-0.378415
H545	H	0.560588	0.008661	-0.045082
H546	H	0.893921	0.341995	0.288252
O547	O	0.858467	-0.305089	-0.808278
O548	O	1.191800	0.028244	-0.474944
O549	O	1.525134	0.361578	-0.141611
H550	H	0.881695	-0.325078	-0.780077
H551	H	1.215028	0.008256	-0.446744
H552	H	1.548362	0.341589	-0.113410
