data_functionalizedCrystal
_audit_creation_method	'MofGen! by Chris Wilmer'
_symmetry_space_group_name_H-M	'P1'
_symmetry_Int_Tables_number	1
_symmetry_cell_setting	triclinic
loop_
_symmetry_equiv_pos_as_xyz
  x,y,z
_cell_length_a	13.032951
_cell_length_b	13.034248
_cell_length_c	13.032268
_cell_angle_alpha	74.856868
_cell_angle_beta	89.114265
_cell_angle_gamma	76.690196
loop_
_atom_site_label
_atom_site_type_symbol
_atom_site_fract_x
_atom_site_fract_y
_atom_site_fract_z
Zn1	Zn	-1.577859	0.728811	-0.883601
Zn2	Zn	-1.077859	1.228811	-0.383601
Zn3	Zn	-1.617113	0.889584	-0.734282
Zn4	Zn	-1.117113	1.389584	-0.234282
Zn5	Zn	-1.422807	0.683726	-0.683483
Zn6	Zn	-0.922807	1.183726	-0.183483
Zn7	Zn	-1.422725	0.883739	-0.883578
Zn8	Zn	-0.922725	1.383739	-0.383578
O9	O	-1.510126	0.796465	-0.796236
O10	O	-1.010126	1.296465	-0.296236
O11	O	-1.729308	0.771452	-0.885062
O12	O	-1.229308	1.271452	-0.385062
O13	O	-1.607800	0.845854	-0.581312
O14	O	-1.107800	1.345854	-0.081312
O15	O	-1.426981	0.538717	-0.688779
O16	O	-0.926981	1.038717	-0.188779
O17	O	-1.758147	0.889571	-0.775358
O18	O	-1.258147	1.389571	-0.275358
O19	O	-1.540897	0.571841	-0.835805
O20	O	-1.040897	1.071841	-0.335805
O21	O	-1.465044	0.694611	-0.543991
O22	O	-0.965044	1.194611	-0.043991
O23	O	-1.276554	0.688944	-0.688757
O24	O	-0.776554	1.188944	-0.188757
O25	O	-1.426842	0.879610	-1.029812
O26	O	-0.926842	1.379610	-0.529812
O27	O	-1.276494	0.835893	-0.835766
O28	O	-0.776494	1.335893	-0.335766
O29	O	-1.540818	0.765785	-1.029829
O30	O	-1.040818	1.265785	-0.529829
O31	O	-1.607721	1.039798	-0.775336
O32	O	-1.107721	1.539798	-0.275336
O33	O	-1.464905	1.035505	-0.885023
O34	O	-0.964905	1.535505	-0.385023
C35	C	-1.238605	0.756893	-0.756747
C36	C	-0.738605	1.256893	-0.256747
C37	C	-1.122448	0.739993	-0.739882
C38	C	-0.622448	1.239993	-0.239882
C39	C	-1.070681	0.805260	-0.805020
C40	C	-0.570681	1.305260	-0.305020
C41	C	-0.950626	0.787794	-0.787591
C42	C	-0.450626	1.287794	-0.287591
C43	C	-1.540589	1.076808	-0.835717
C44	C	-1.040589	1.576808	-0.335717
C45	C	-1.553713	1.196758	-0.852656
C46	C	-1.053713	1.696758	-0.352656
C47	C	-0.782706	0.836180	-0.835871
C48	C	-0.282706	1.336180	-0.335871
C49	C	-0.898862	0.853071	-0.852738
C50	C	-0.398862	1.353071	-0.352738
C51	C	-1.516827	1.357902	-0.804921
C52	C	-1.016827	1.857902	-0.304921
C53	C	-1.503262	1.233928	-0.787419
C54	C	-1.003262	1.733928	-0.287419
C55	C	-1.479442	0.827075	-1.068796
C56	C	-0.979442	1.327075	-0.568796
C57	C	-1.466366	0.840119	-1.184946
C58	C	-0.966366	1.340119	-0.684946
C59	C	-1.479528	1.515027	-0.756614
C60	C	-0.979528	2.015027	-0.256614
C61	C	-1.466383	1.395077	-0.739693
C62	C	-0.966383	1.895077	-0.239693
C63	C	-1.516930	0.789616	-1.236737
C64	C	-1.016930	1.289616	-0.736737
C65	C	-1.503417	0.803097	-1.356783
C66	C	-1.003417	1.303097	-0.856783
C67	C	-1.540742	0.765905	-0.524733
C68	C	-1.040742	1.265905	-0.024733
C69	C	-1.553987	0.752587	-0.408571
C70	C	-1.053987	1.252587	0.091429
H71	H	-1.570062	1.417857	-0.873718
H72	H	-1.070062	1.917857	-0.373718
H73	H	-1.115241	0.874065	-0.873694
H74	H	-0.615241	1.374065	-0.373694
H75	H	-1.450032	1.173977	-0.718610
H76	H	-0.950032	1.673977	-0.218610
O77	O	-1.617067	1.268307	-0.934839
O78	O	-1.117067	1.768307	-0.434839
C79	C	-1.557017	1.332441	-1.002754
C80	C	-1.057017	1.832441	-0.502754
H81	H	-1.470294	1.287216	-0.992410
H82	H	-0.970294	1.787216	-0.492410
H83	H	-1.566365	1.413671	-0.981894
H84	H	-1.066365	1.913671	-0.481894
C85	C	-1.702460	1.409408	-1.131795
C86	C	-1.202460	1.909408	-0.631795
C87	C	-1.595946	1.353858	-1.119097
C88	C	-1.095946	1.853858	-0.619097
H89	H	-1.726475	1.422624	-1.203561
H90	H	-1.226475	1.922624	-0.703561
H91	H	-1.742918	1.366203	-1.086038
H92	H	-1.242918	1.866203	-0.586038
H93	H	-1.710235	1.477093	-1.114405
H94	H	-1.210235	1.977093	-0.614405
H95	H	-1.588174	1.286168	-1.136473
H96	H	-1.088174	1.786168	-0.636473
H97	H	-1.555487	1.397052	-1.164859
H98	H	-1.055487	1.897052	-0.664859
H99	H	-1.413157	1.335123	-0.670889
H100	H	-0.913157	1.835123	-0.170889
H101	H	-0.943416	0.921878	-0.921419
H102	H	-0.443416	1.421878	-0.421419
H103	H	-1.570219	0.736395	-1.192202
H104	H	-1.070219	1.236395	-0.692202
H105	H	-0.906068	0.718978	-0.718920
H106	H	-0.406068	1.218978	-0.218920
H107	H	-1.077886	0.671181	-0.671216
H108	H	-0.577886	1.171181	-0.171216
H109	H	-1.450112	0.856310	-1.401310
H110	H	-0.950112	1.356310	-0.901310
O111	O	-1.617703	0.689176	-1.355592
O112	O	-1.117703	1.189176	-0.855592
C113	C	-1.721460	0.730908	-1.400620
C114	C	-1.221460	1.230908	-0.900620
H115	H	-1.719284	0.781538	-1.486048
H116	H	-1.219284	1.281538	-0.986048
H117	H	-1.769539	0.784665	-1.352139
H118	H	-1.269539	1.284665	-0.852139
C119	C	-1.775462	0.573299	-1.294974
C120	C	-1.275462	1.073299	-0.794974
C121	C	-1.772789	0.635476	-1.399901
C122	C	-1.272789	1.135476	-0.899901
H123	H	-1.807127	0.514434	-1.294527
H124	H	-1.307127	1.014434	-0.794527
H125	H	-1.705560	0.545185	-1.264634
H126	H	-1.205560	1.045185	-0.764634
H127	H	-1.815527	0.618108	-1.254585
H128	H	-1.315527	1.118108	-0.754585
H129	H	-1.732714	0.590671	-1.440285
H130	H	-1.232714	1.090671	-0.940285
H131	H	-1.842685	0.663581	-1.430248
H132	H	-1.342685	1.163581	-0.930248
H133	H	-1.413065	0.893328	-1.229477
H134	H	-0.913065	1.393328	-0.729477
