data_functionalizedCrystal
_audit_creation_method	'MofGen! by Chris Wilmer'
_symmetry_space_group_name_H-M	'P1'
_symmetry_Int_Tables_number	1
_symmetry_cell_setting	triclinic
loop_
_symmetry_equiv_pos_as_xyz
  x,y,z
_cell_length_a	10.654549
_cell_length_b	14.971494
_cell_length_c	9.730223
_cell_angle_alpha	89.997316
_cell_angle_beta	89.997731
_cell_angle_gamma	84.051167
loop_
_atom_site_label
_atom_site_type_symbol
_atom_site_fract_x
_atom_site_fract_y
_atom_site_fract_z
O1	O	1.666497	0.125629	-0.114253
O2	O	2.166497	0.625629	0.385747
O3	O	1.300890	0.137598	-0.114262
O4	O	1.800890	0.637598	0.385738
O5	O	1.493487	0.001467	-0.114254
O6	O	1.993487	0.501467	0.385746
O7	O	1.473900	0.261760	-0.114260
O8	O	1.973900	0.761760	0.385740
O9	O	1.493475	0.001464	0.114326
O10	O	1.993475	0.501464	0.614326
O11	O	1.300878	0.137595	0.114318
O12	O	1.800878	0.637595	0.614318
O13	O	1.666485	0.125625	0.114327
O14	O	2.166485	0.625625	0.614327
Zn15	Zn	1.483679	0.131609	0.150615
Zn16	Zn	1.983679	0.631609	0.650615
Zn17	Zn	1.483696	0.131614	-0.150549
Zn18	Zn	1.983696	0.631614	0.349451
O19	O	1.473888	0.261756	0.114320
O20	O	1.973888	0.761756	0.614320
C21	C	1.254096	0.136718	0.000027
C22	C	1.754096	0.636718	0.500027
C23	C	1.114681	0.134089	0.000023
C24	C	1.614681	0.634089	0.500023
C25	C	0.903336	0.211763	0.000027
C26	C	1.403336	0.711763	0.500027
C27	C	1.034330	0.214240	0.000019
C28	C	1.534330	0.714240	0.500019
C29	C	1.064031	0.051454	0.000023
C30	C	1.564031	0.551454	0.500023
C31	C	0.933039	0.048978	0.000021
C32	C	1.433039	0.548978	0.500021
C33	C	1.492603	-0.031864	0.000034
C34	C	1.992603	0.468136	0.500034
C35	C	1.489973	-0.131175	0.000028
C36	C	1.989973	0.368825	0.500028
C37	C	1.488746	-0.177824	-0.124573
C38	C	1.988746	0.322176	0.375427
C39	C	1.486266	-0.271137	-0.124575
C40	C	1.986266	0.228863	0.375425
C41	C	1.485022	-0.317799	0.000026
C42	C	1.985022	0.182201	0.500026
C43	C	1.486244	-0.271143	0.124636
C44	C	1.986244	0.228857	0.624636
C45	C	1.488715	-0.177831	0.124636
C46	C	1.988715	0.322169	0.624636
C47	C	1.481097	-0.465634	0.124626
C48	C	1.981097	0.034366	0.624626
C49	C	1.478629	-0.558952	0.124627
C50	C	1.978629	-0.058952	0.624627
C51	C	1.478648	-0.558940	-0.124584
C52	C	1.978648	-0.058940	0.375416
C53	C	1.481119	-0.465628	-0.124584
C54	C	1.981119	0.034372	0.375416
C55	C	1.482344	-0.418978	0.000027
C56	C	1.982344	0.081022	0.500027
C57	C	1.713279	0.126506	0.000036
C58	C	2.213279	0.626506	0.500036
C59	C	1.852694	0.129135	0.000030
C60	C	2.352694	0.629135	0.500030
C61	C	1.474772	0.295087	0.000029
C62	C	1.974772	0.795087	0.500029
C63	C	1.477402	0.394398	0.000026
C64	C	1.977402	0.894398	0.500026
N65	N	1.483677	0.131605	0.356151
N66	N	1.983677	0.631605	0.856151
N67	N	1.483708	0.131611	-0.356085
N68	N	1.983708	0.631611	0.143915
C69	C	1.568988	0.071352	0.428081
C70	C	2.068988	0.571352	0.928081
C71	C	1.569001	0.071353	0.571964
C72	C	2.069001	0.571353	1.071964
C73	C	1.398388	0.191867	0.571975
C74	C	1.898388	0.691867	1.071975
C75	C	1.398370	0.191862	0.428095
C76	C	1.898370	0.691862	0.928095
H77	H	1.075555	0.281524	0.000015
H78	H	1.575555	0.781524	0.500015
F79	F	1.659797	0.007221	0.648512
F80	F	2.159797	0.507221	1.148512
F81	F	1.477337	-0.608587	-0.257205
F82	F	1.977337	-0.108587	0.242795
F83	F	1.149550	-0.033850	0.000023
F84	F	1.649550	0.466150	0.500023
F85	F	0.817831	0.297074	0.000033
F86	F	1.317831	0.797074	0.500033
F87	F	1.484906	-0.320805	0.257245
F88	F	1.984906	0.179195	0.757245
H89	H	1.489696	-0.139849	0.226099
H90	H	1.989696	0.360151	0.726099
F91	F	0.879141	-0.038971	0.000010
F92	F	1.379141	0.461029	0.500010
F93	F	1.490080	-0.128172	-0.257192
F94	F	1.990080	0.371828	0.242808
H95	H	1.485273	-0.309115	-0.226037
H96	H	1.985273	0.190885	0.273963
F97	F	1.482455	-0.415969	-0.257197
F98	F	1.982455	0.084031	0.242803
H99	H	1.477605	-0.596941	0.226087
H100	H	1.977605	-0.096941	0.726087
H101	H	1.638449	0.022287	0.369508
H102	H	2.138449	0.522287	0.869508
F103	F	1.307605	0.255996	0.648552
F104	F	1.807605	0.755996	1.148552
H105	H	1.482067	-0.427652	0.226098
H106	H	1.982067	0.072348	0.726098
F107	F	1.307561	0.255991	0.351536
F108	F	1.807561	0.755991	0.851536
