data_functionalizedCrystal
_audit_creation_method	'MofGen! by Chris Wilmer'
_symmetry_space_group_name_H-M	'P1'
_symmetry_Int_Tables_number	1
_symmetry_cell_setting	triclinic
loop_
_symmetry_equiv_pos_as_xyz
  x,y,z
_cell_length_a	10.654550
_cell_length_b	17.038272
_cell_length_c	9.730223
_cell_angle_alpha	89.995299
_cell_angle_beta	89.999957
_cell_angle_gamma	87.798243
loop_
_atom_site_label
_atom_site_type_symbol
_atom_site_fract_x
_atom_site_fract_y
_atom_site_fract_z
O1	O	1.678042	0.109878	-0.114188
O2	O	1.313535	0.120346	-0.114214
O3	O	1.493622	0.001285	-0.114190
O4	O	1.497955	0.228940	-0.114212
O5	O	1.493609	0.001281	0.114390
O6	O	1.313523	0.120343	0.114366
O7	O	1.678029	0.109875	0.114392
Zn8	Zn	1.495774	0.115108	0.150671
Zn9	Zn	1.495791	0.115113	-0.150493
O10	O	1.497942	0.228936	0.114368
C11	C	1.266660	0.119576	0.000073
C12	C	1.127003	0.117276	0.000064
C13	C	1.054026	0.187378	0.000061
C14	C	0.922805	0.185213	0.000085
C15	C	0.937548	0.042838	0.000109
C16	C	1.068767	0.045004	0.000095
C17	C	1.489675	-0.027867	0.000099
C18	C	1.477918	-0.114726	0.000098
C19	C	1.585862	-0.164237	0.000107
C20	C	1.574808	-0.245849	0.000093
C21	C	1.455808	-0.277949	0.000080
C22	C	1.347855	-0.228431	0.000067
C23	C	1.358911	-0.146820	0.000071
C24	C	1.416750	-0.523925	0.000059
C25	C	1.405702	-0.605542	0.000059
C26	C	1.632655	-0.622955	0.000082
C27	C	1.643701	-0.541341	0.000094
C28	C	1.535748	-0.491831	0.000074
C29	C	1.444505	-0.361369	0.000070
C30	C	1.547052	-0.408412	0.000074
C31	C	1.724905	0.110645	0.000102
C32	C	1.864561	0.112945	0.000102
C33	C	1.501889	0.258088	0.000076
C34	C	1.513646	0.344947	0.000068
N35	N	1.495771	0.115105	0.356207
N36	N	1.495802	0.115110	-0.356029
C37	C	1.575545	0.062407	0.428144
C38	C	1.575558	0.062407	0.572027
C39	C	1.416020	0.167810	0.572024
C40	C	1.416002	0.167806	0.428144
H41	H	0.890116	-0.016004	0.000142
O42	O	1.139478	-0.023171	0.000035
C43	C	1.059943	-0.087425	0.000087
H44	H	0.964239	-0.068104	-0.043184
H45	H	1.103012	-0.136585	-0.066270
H46	H	1.048264	-0.109542	0.109754
O47	O	1.701556	-0.133189	0.000055
C48	C	1.794458	-0.194393	0.000090
H49	H	1.753309	-0.250012	-0.043186
H50	H	1.877016	-0.176902	-0.066272
H51	H	1.828171	-0.205757	0.109751
H52	H	1.662708	-0.286159	0.000103
H53	H	0.863392	0.242297	0.000086
O54	O	1.110397	0.257647	0.000104
C55	C	1.017840	0.319055	0.000074
H56	H	0.926469	0.296640	0.043362
H57	H	1.050603	0.369468	0.066428
H58	H	1.001607	0.340715	-0.109588
H59	H	1.740603	-0.515213	0.000105
O60	O	1.737385	-0.671161	0.000029
C61	C	1.702117	-0.750077	0.000057
H62	H	1.603088	-0.753738	-0.043222
H63	H	1.770390	-0.786649	-0.066306
H64	H	1.704357	-0.773656	0.109717
O65	O	1.652935	0.011247	0.642118
C66	C	1.635871	0.022559	0.784537
H67	H	1.539092	0.051217	0.804197
H68	H	1.643539	-0.036604	0.839228
H69	H	1.711181	0.062212	0.825350
O70	O	1.652817	0.011146	0.358143
C71	C	1.580314	-0.037520	0.275010
H72	H	1.485343	-0.006902	0.253429
H73	H	1.631422	-0.049647	0.173842
H74	H	1.565552	-0.095362	0.330533
H75	H	1.347615	-0.387514	0.000063
H76	H	1.351074	0.210719	0.630609
O77	O	1.290003	-0.636595	-0.000030
C78	C	1.197091	-0.575397	-0.000019
H79	H	1.238238	-0.519770	-0.043283
H80	H	1.114549	-0.592887	-0.066402
H81	H	1.163352	-0.564046	0.109634
H82	H	1.351034	0.210719	0.369569
O83	O	1.662714	-0.377327	0.000267
C84	C	1.729024	-0.402552	0.118677
H85	H	1.688737	-0.459335	0.158142
H86	H	1.832459	-0.413304	0.092066
H87	H	1.719500	-0.355416	0.201571
O88	O	1.311983	-0.475755	0.000230
C89	C	1.311562	-0.428044	0.118629
H90	H	1.411737	-0.423380	0.158106
H91	H	1.271312	-0.366969	0.091996
H92	H	1.251298	-0.455201	0.201521
O93	O	1.232327	-0.259703	-0.000129
C94	C	1.219139	-0.306369	-0.118530
H95	H	1.316008	-0.326154	-0.157991
H96	H	1.163339	-0.360074	-0.091908
H97	H	1.167405	-0.270617	-0.201432
H98	H	1.271011	-0.106509	0.000064
