data_functionalizedCrystal
_audit_creation_method	'MofGen! by Chris Wilmer'
_symmetry_space_group_name_H-M	'P1'
_symmetry_Int_Tables_number	1
_symmetry_cell_setting	triclinic
loop_
_symmetry_equiv_pos_as_xyz
  x,y,z
_cell_length_a	19.077105
_cell_length_b	18.101390
_cell_length_c	19.077068
_cell_angle_alpha	87.736754
_cell_angle_beta	89.884684
_cell_angle_gamma	87.683335
loop_
_atom_site_label
_atom_site_type_symbol
_atom_site_fract_x
_atom_site_fract_y
_atom_site_fract_z
Zn1	Zn	1.062992	-0.477246	0.322945
Zn2	Zn	1.312992	-0.227246	0.572945
Zn3	Zn	1.562992	0.022754	0.822945
Zn4	Zn	1.812992	0.272754	1.072945
Zn5	Zn	1.058178	-0.358162	0.440463
Zn6	Zn	1.308178	-0.108162	0.690463
Zn7	Zn	1.558178	0.141838	0.940463
Zn8	Zn	1.808178	0.391838	1.190463
Zn9	Zn	0.945483	-0.348259	0.318249
Zn10	Zn	1.195483	-0.098259	0.568249
Zn11	Zn	1.445483	0.151741	0.818249
Zn12	Zn	1.695483	0.401741	1.068249
Zn13	Zn	0.940727	-0.476801	0.435687
Zn14	Zn	1.190727	-0.226801	0.685687
Zn15	Zn	1.440727	0.023199	0.935687
Zn16	Zn	1.690727	0.273199	1.185687
O17	O	1.001845	-0.415117	0.379336
O18	O	1.251845	-0.165117	0.629336
O19	O	1.501845	0.084883	0.879336
O20	O	1.751845	0.334883	1.129336
O21	O	1.160685	-0.465780	0.342498
O22	O	1.410685	-0.215780	0.592498
O23	O	1.660685	0.034220	0.842498
O24	O	1.910685	0.284220	1.092498
O25	O	1.043205	-0.253216	0.424284
O26	O	1.293205	-0.003216	0.674284
O27	O	1.543205	0.246784	0.924284
O28	O	1.793205	0.496784	1.174284
O29	O	0.965076	-0.361411	0.220543
O30	O	1.215076	-0.111411	0.470543
O31	O	1.465076	0.138589	0.720543
O32	O	1.715076	0.388589	0.970543
O33	O	1.157148	-0.378289	0.428838
O34	O	1.407148	-0.128289	0.678838
O35	O	1.657148	0.121711	0.928838
O36	O	1.907148	0.371711	1.178838
O37	O	1.051409	-0.456178	0.223993
O38	O	1.301409	-0.206178	0.473993
O39	O	1.551409	0.043822	0.723993
O40	O	1.801409	0.293822	0.973993
O41	O	0.960409	-0.245940	0.334495
O42	O	1.210409	0.004060	0.584495
O43	O	1.460409	0.254060	0.834495
O44	O	1.710409	0.504060	1.084495
O45	O	0.846521	-0.360980	0.329863
O46	O	1.096521	-0.110980	0.579863
O47	O	1.346521	0.139020	0.829863
O48	O	1.596521	0.389020	1.079863
O49	O	0.956969	-0.580493	0.420698
O50	O	1.206969	-0.330493	0.670698
O51	O	1.456969	-0.080493	0.920698
O52	O	1.706969	0.169507	1.170698
O53	O	0.843026	-0.455419	0.416144
O54	O	1.093026	-0.205419	0.666144
O55	O	1.343026	0.044581	0.916144
O56	O	1.593026	0.294581	1.166144
O57	O	1.046797	-0.580820	0.337867
O58	O	1.296797	-0.330820	0.587867
O59	O	1.546797	-0.080820	0.837867
O60	O	1.796797	0.169180	1.087867
O61	O	1.038593	-0.377858	0.538159
O62	O	1.288593	-0.127858	0.788159
O63	O	1.538593	0.122142	1.038159
O64	O	1.788593	0.372142	1.288159
O65	O	0.952302	-0.465021	0.534650
O66	O	1.202302	-0.215021	0.784650
O67	O	1.452302	0.034979	1.034650
O68	O	1.702302	0.284979	1.284650
C69	C	0.819277	-0.407077	0.371977
C70	C	1.069277	-0.157077	0.621977
C71	C	1.319277	0.092923	0.871977
C72	C	1.569277	0.342923	1.121977
C73	C	0.741173	-0.403656	0.368845
C74	C	0.991173	-0.153656	0.618845
C75	C	1.241173	0.096344	0.868845
C76	C	1.491173	0.346344	1.118845
C77	C	0.702676	-0.451147	0.412364
C78	C	0.952676	-0.201147	0.662364
C79	C	1.202676	0.048853	0.912364
C80	C	1.452676	0.298853	1.162364
C81	C	0.629290	-0.447935	0.409412
C82	C	0.879290	-0.197935	0.659412
C83	C	1.129290	0.052065	0.909412
C84	C	1.379290	0.302065	1.159412
C85	C	0.594402	-0.397229	0.362945
C86	C	0.844402	-0.147229	0.612945
C87	C	1.094402	0.102771	0.862945
C88	C	1.344402	0.352771	1.112945
C89	C	0.632904	-0.349737	0.319422
C90	C	0.882904	-0.099737	0.569422
C91	C	1.132904	0.150263	0.819422
C92	C	1.382904	0.400263	1.069422
C93	C	0.706290	-0.352952	0.322370
C94	C	0.956290	-0.102952	0.572370
C95	C	1.206290	0.147048	0.822370
C96	C	1.456290	0.397048	1.072370
C97	C	0.375117	-0.382351	0.349299
C98	C	0.625117	-0.132351	0.599299
C99	C	0.875117	0.117649	0.849299
C100	C	1.125117	0.367649	1.099299
C101	C	0.301726	-0.379138	0.346355
C102	C	0.551726	-0.129138	0.596355
C103	C	0.801726	0.120862	0.846355
C104	C	1.051726	0.370862	1.096355
C105	C	0.298117	-0.477338	0.436345
C106	C	0.548117	-0.227338	0.686345
C107	C	0.798117	0.022662	0.936345
C108	C	1.048117	0.272662	1.186345
C109	C	0.371503	-0.480545	0.439292
C110	C	0.621503	-0.230545	0.689292
C111	C	0.871503	0.019455	0.939292
C112	C	1.121503	0.269455	1.189292
C113	C	0.410000	-0.433056	0.395766
C114	C	0.660000	-0.183056	0.645766
C115	C	0.910000	0.066944	0.895766
C116	C	1.160000	0.316944	1.145766
N117	N	0.519389	-0.393944	0.359928
N118	N	0.769389	-0.143944	0.609928
N119	N	1.019389	0.106056	0.859928
N120	N	1.269389	0.356056	1.109928
N121	N	0.485011	-0.436345	0.398780
N122	N	0.735011	-0.186345	0.648780
N123	N	0.985011	0.063655	0.898780
N124	N	1.235011	0.313655	1.148780
C125	C	1.001889	-0.608278	0.379274
C126	C	1.251889	-0.358278	0.629274
C127	C	1.501889	-0.108278	0.879274
C128	C	1.751889	0.141722	1.129274
C129	C	1.001908	-0.690592	0.379247
C130	C	1.251908	-0.440592	0.629247
C131	C	1.501908	-0.190592	0.879247
C132	C	1.751908	0.059408	1.129247
C133	C	1.001948	-0.989683	0.379205
C134	C	1.251948	-0.739683	0.629205
C135	C	1.501948	-0.489683	0.879205
C136	C	1.751948	-0.239683	1.129205
C137	C	1.058636	-0.958579	0.327288
C138	C	1.308636	-0.708579	0.577288
C139	C	1.558636	-0.458579	0.827288
C140	C	1.808636	-0.208579	1.077288
C141	C	1.058474	-0.872945	0.327080
C142	C	1.308474	-0.622945	0.577080
C143	C	1.558474	-0.372945	0.827080
C144	C	1.808474	-0.122945	1.077080
C145	C	1.001929	-0.841301	0.379226
C146	C	1.251929	-0.591301	0.629226
C147	C	1.501929	-0.341301	0.879226
C148	C	1.751929	-0.091301	1.129226
C149	C	0.928710	-0.868308	0.356128
C150	C	1.178710	-0.618308	0.606128
C151	C	1.428710	-0.368308	0.856128
C152	C	1.678710	-0.118308	1.106128
C153	C	0.929053	-0.953951	0.355736
C154	C	1.179053	-0.703951	0.605736
C155	C	1.429053	-0.453951	0.855736
C156	C	1.679053	-0.203951	1.105736
C157	C	1.017821	-0.961936	0.454331
C158	C	1.267821	-0.711936	0.704331
C159	C	1.517821	-0.461936	0.954331
C160	C	1.767821	-0.211936	1.204331
C161	C	1.019461	-0.876342	0.454018
C162	C	1.269461	-0.626342	0.704018
C163	C	1.519461	-0.376342	0.954018
C164	C	1.769461	-0.126342	1.204018
C165	C	1.001913	-0.757441	0.379239
C166	C	1.251913	-0.507441	0.629239
C167	C	1.501913	-0.257441	0.879239
C168	C	1.751913	-0.007441	1.129239
C169	C	1.001958	-1.073542	0.379190
C170	C	1.251958	-0.823542	0.629190
C171	C	1.501958	-0.573542	0.879190
C172	C	1.751958	-0.323542	1.129190
C173	C	1.185125	-0.423189	0.386725
C174	C	1.435125	-0.173189	0.636725
C175	C	1.685125	0.076811	0.886725
C176	C	1.935125	0.326811	1.136725
C177	C	1.263229	-0.426628	0.389873
C178	C	1.513229	-0.176628	0.639873
C179	C	1.763229	0.073372	0.889873
C180	C	2.013229	0.323372	1.139873
C181	C	0.994428	-0.422483	0.561901
C182	C	1.244428	-0.172483	0.811901
C183	C	1.494428	0.077517	1.061901
C184	C	1.744428	0.327517	1.311901
C185	C	0.991319	-0.425661	0.640006
C186	C	1.241319	-0.175661	0.890006
C187	C	1.491319	0.074339	1.140006
C188	C	1.741319	0.324339	1.390006
C189	C	1.001843	-0.222707	0.379349
C190	C	1.251843	0.027293	0.629349
C191	C	1.501843	0.277293	0.879349
C192	C	1.751843	0.527293	1.129349
C193	C	1.001969	-0.140392	0.379183
C194	C	1.251969	0.109608	0.629183
C195	C	1.501969	0.359608	0.879183
C196	C	1.751969	0.609608	1.129183
C197	C	1.009310	-0.407740	0.196059
C198	C	1.259310	-0.157740	0.446059
C199	C	1.509310	0.092260	0.696059
C200	C	1.759310	0.342260	0.946059
C201	C	1.012492	-0.404596	0.117957
C202	C	1.262492	-0.154596	0.367957
C203	C	1.512492	0.095404	0.617957
C204	C	1.762492	0.345404	0.867957
C205	C	1.034820	-0.381814	0.678504
C206	C	1.284820	-0.131814	0.928504
C207	C	1.534820	0.118186	1.178504
C208	C	1.784820	0.368186	1.428504
C209	C	1.031901	-0.384808	0.751892
C210	C	1.281901	-0.134808	1.001892
C211	C	1.531901	0.115192	1.251892
C212	C	1.781901	0.365192	1.501892
C213	C	0.985475	-0.431647	0.786779
C214	C	1.235475	-0.181647	1.036779
C215	C	1.485475	0.068353	1.286779
C216	C	1.735475	0.318353	1.536779
C217	C	0.941972	-0.475499	0.748276
C218	C	1.191972	-0.225499	0.998276
C219	C	1.441972	0.024501	1.248276
C220	C	1.691972	0.274501	1.498276
C221	C	0.944896	-0.472508	0.674889
C222	C	1.194896	-0.222508	0.924889
C223	C	1.444896	0.027492	1.174889
C224	C	1.694896	0.277492	1.424889
C225	C	0.971912	-0.445457	1.006067
C226	C	1.221912	-0.195457	1.256067
C227	C	1.471912	0.054543	1.506067
C228	C	1.721912	0.304543	1.756067
C229	C	0.968990	-0.448443	1.079458
C230	C	1.218990	-0.198443	1.329458
C231	C	1.468990	0.051557	1.579458
C232	C	1.718990	0.301557	1.829458
C233	C	1.058920	-0.357753	1.083070
C234	C	1.308920	-0.107753	1.333070
C235	C	1.558920	0.142247	1.583070
C236	C	1.808920	0.392247	1.833070
C237	C	1.061837	-0.354763	1.009682
C238	C	1.311837	-0.104763	1.259682
C239	C	1.561837	0.145237	1.509682
C240	C	1.811837	0.395237	1.759682
C241	C	1.018336	-0.398618	0.971185
C242	C	1.268336	-0.148618	1.221185
C243	C	1.518336	0.101382	1.471185
C244	C	1.768336	0.351382	1.721185
N245	N	0.982488	-0.434707	0.861793
N246	N	1.232488	-0.184707	1.111793
N247	N	1.482488	0.065293	1.361793
N248	N	1.732488	0.315293	1.611793
N249	N	1.021328	-0.395562	0.896172
N250	N	1.271328	-0.145562	1.146172
N251	N	1.521328	0.104438	1.396172
N252	N	1.771328	0.354438	1.646172
H253	H	0.266765	-0.516002	0.471780
H254	H	0.516765	-0.266002	0.721780
H255	H	0.766765	-0.016002	0.971780
H256	H	1.016765	0.233998	1.221780
H257	H	0.597948	-0.486606	0.444850
H258	H	0.847948	-0.236606	0.694850
H259	H	1.097948	0.013394	0.944850
H260	H	1.347948	0.263394	1.194850
H261	H	1.067324	-0.349102	0.783235
H262	H	1.317324	-0.099102	1.033235
H263	H	1.567324	0.150898	1.283235
H264	H	1.817324	0.400898	1.533235
H265	H	1.048203	-0.849692	0.271485
H266	H	1.298203	-0.599692	0.521485
H267	H	1.548203	-0.349692	0.771485
H268	H	1.798203	-0.099692	1.021485
H269	H	0.399904	-0.521834	0.477132
H270	H	0.649904	-0.271834	0.727132
H271	H	0.899904	-0.021834	0.977132
H272	H	1.149904	0.228166	1.227132
H273	H	1.113208	-0.982104	0.341947
H274	H	1.363208	-0.732104	0.591947
H275	H	1.613208	-0.482104	0.841947
H276	H	1.863208	-0.232104	1.091947
H277	H	0.273323	-0.337851	0.308508
H278	H	0.523323	-0.087851	0.558508
H279	H	0.773323	0.162149	0.808508
H280	H	1.023323	0.412149	1.058508
H281	H	1.072622	-0.343670	0.650104
H282	H	1.322622	-0.093670	0.900104
H283	H	1.572622	0.156330	1.150104
H284	H	1.822622	0.406330	1.400104
H285	H	1.073329	-0.859039	0.471380
H286	H	1.323329	-0.609039	0.721380
H287	H	1.573329	-0.359039	0.971380
H288	H	1.823329	-0.109039	1.221380
H289	H	0.915248	-0.971038	0.300730
H290	H	1.165248	-0.721038	0.550730
H291	H	1.415248	-0.471038	0.800730
H292	H	1.665248	-0.221038	1.050730
H293	H	0.931193	-0.486598	1.107862
H294	H	1.181193	-0.236598	1.357862
H295	H	1.431193	0.013402	1.607862
H296	H	1.681193	0.263402	1.857862
H297	H	0.885539	-0.974342	0.391743
H298	H	1.135539	-0.724342	0.641743
H299	H	1.385539	-0.474342	0.891743
H300	H	1.635539	-0.224342	1.141743
H301	H	0.731077	-0.492435	0.450204
H302	H	0.981077	-0.242435	0.700204
H303	H	1.231077	0.007565	0.950204
H304	H	1.481077	0.257565	1.200204
H305	H	1.094337	-0.322050	1.114422
H306	H	1.344337	-0.072050	1.364422
H307	H	1.594337	0.177950	1.614422
H308	H	1.844337	0.427950	1.864422
H309	H	1.099640	-0.316624	0.981278
H310	H	1.349640	-0.066624	1.231278
H311	H	1.599640	0.183376	1.481278
H312	H	1.849640	0.433376	1.731278
H313	H	0.976499	-0.982076	0.493052
H314	H	1.226499	-0.732076	0.743052
H315	H	1.476499	-0.482076	0.993052
H316	H	1.726499	-0.232076	1.243052
H317	H	0.936491	-0.481164	0.974728
H318	H	1.186491	-0.231164	1.224728
H319	H	1.436491	0.018836	1.474728
H320	H	1.686491	0.268836	1.724728
H321	H	0.904174	-0.513639	0.776687
H322	H	1.154174	-0.263639	1.026687
H323	H	1.404174	-0.013639	1.276687
H324	H	1.654174	0.236361	1.526687
H325	H	0.909473	-0.508214	0.643544
H326	H	1.159473	-0.258214	0.893544
H327	H	1.409473	-0.008214	1.143544
H328	H	1.659473	0.241786	1.393544
H329	H	0.406451	-0.343676	0.313862
H330	H	0.656451	-0.093676	0.563862
H331	H	0.906451	0.156324	0.813862
H332	H	1.156451	0.406324	1.063862
H333	H	0.604493	-0.308454	0.281584
H334	H	0.854493	-0.058454	0.531584
H335	H	1.104493	0.191546	0.781584
H336	H	1.354493	0.441546	1.031584
H337	H	0.737633	-0.314284	0.286929
H338	H	0.987633	-0.064284	0.536929
H339	H	1.237633	0.185716	0.786929
H340	H	1.487633	0.435716	1.036929
H341	H	1.048511	-0.977356	0.272006
H342	H	1.298511	-0.727356	0.522006
H343	H	1.548511	-0.477356	0.772006
H344	H	1.798511	-0.227356	1.022006
H345	H	0.885455	-0.847644	0.392647
H346	H	1.135455	-0.597644	0.642647
H347	H	1.385455	-0.347644	0.892647
H348	H	1.635455	-0.097644	1.142647
H349	H	1.112861	-0.854858	0.341888
H350	H	1.362861	-0.604858	0.591888
H351	H	1.612861	-0.354858	0.841888
H352	H	1.862861	-0.104858	1.091888
H353	H	0.914590	-0.843977	0.301715
H354	H	1.164590	-0.593977	0.551715
H355	H	1.414590	-0.343977	0.801715
H356	H	1.664590	-0.093977	1.051715
H357	H	1.070119	-0.986652	0.474785
H358	H	1.320119	-0.736652	0.724785
H359	H	1.570119	-0.486652	0.974785
H360	H	1.820119	-0.236652	1.224785
H361	H	0.980936	-0.855029	0.495019
H362	H	1.230936	-0.605029	0.745019
H363	H	1.480936	-0.355029	0.995019
H364	H	1.730936	-0.105029	1.245019
