data_functionalizedCrystal
_audit_creation_method	'MofGen! by Chris Wilmer'
_symmetry_space_group_name_H-M	'P1'
_symmetry_Int_Tables_number	1
_symmetry_cell_setting	triclinic
loop_
_symmetry_equiv_pos_as_xyz
  x,y,z
_cell_length_a	16.120530
_cell_length_b	12.759400
_cell_length_c	12.759393
_cell_angle_alpha	89.968436
_cell_angle_beta	87.081000
_cell_angle_gamma	87.110362
loop_
_atom_site_label
_atom_site_type_symbol
_atom_site_fract_x
_atom_site_fract_y
_atom_site_fract_z
Zn1	Zn	1.274626	-0.499755	-0.675426
Zn2	Zn	1.274542	-0.675468	-0.499741
Zn3	Zn	1.135203	-0.490889	-0.490856
Zn4	Zn	1.135194	-0.666471	-0.666478
O5	O	1.204891	-0.583146	-0.583125
O6	O	1.391282	-0.530539	-0.659583
O7	O	1.256027	-0.651038	-0.351539
O8	O	1.153736	-0.345047	-0.515367
O9	O	1.391220	-0.659635	-0.530508
O10	O	1.256170	-0.351560	-0.650969
O11	O	1.153655	-0.515429	-0.345012
O12	O	1.018535	-0.506705	-0.506690
O13	O	1.153721	-0.644301	-0.814688
O14	O	1.018528	-0.635704	-0.635719
O15	O	1.256161	-0.521815	-0.821262
O16	O	1.256019	-0.821293	-0.521832
O17	O	1.153640	-0.814683	-0.644333
C18	C	1.204842	-0.856110	-0.583100
C19	C	1.204897	-0.972890	-0.583129
C20	C	0.988281	-0.569267	-0.569270
C21	C	0.895614	-0.563355	-0.563368
C22	C	1.258265	-1.031163	-0.519421
C23	C	1.258316	-1.140890	-0.519457
C24	C	1.151624	-1.134062	-0.646912
C25	C	1.151578	-1.024337	-0.646881
C26	C	1.311583	-0.979716	-0.455670
C27	C	1.364955	-1.037989	-0.391955
C28	C	1.365006	-1.147717	-0.391991
C29	C	1.311686	-1.199171	-0.455741
C30	C	0.725951	-0.552536	-0.552601
C31	C	0.684672	-0.613833	-0.613726
C32	C	0.590265	-0.607813	-0.607735
C33	C	0.820366	-0.558555	-0.558590
C34	C	1.422347	-0.597080	-0.597035
C35	C	1.515014	-0.603017	-0.602962
C36	C	1.204950	-0.583044	-0.857162
C37	C	1.204974	-0.583000	-0.973941
C38	C	1.204964	-0.309117	-0.583175
C39	C	1.204994	-0.192343	-0.583196
C40	C	1.258322	-0.519216	-1.032228
C41	C	1.258342	-0.519179	-1.141953
C42	C	1.151664	-0.646720	-1.135095
C43	C	1.151640	-0.646750	-1.025371
C44	C	1.311656	-0.455465	-0.980798
C45	C	1.365009	-0.391677	-1.039085
C46	C	1.365029	-0.391640	-1.148811
C47	C	1.311696	-0.455392	-1.200249
C48	C	1.204881	-0.583175	-0.310157
C49	C	1.205018	-0.582933	-0.193390
H50	H	1.408371	-0.996090	-0.340058
H51	H	0.690392	-0.495544	-0.495775
N52	N	1.311653	-0.455496	-0.868719
N53	N	1.359276	-0.398578	-0.822808
H54	H	1.359275	-0.398602	-0.743652
N55	N	1.097047	-0.964808	-0.711935
N56	N	1.043911	-0.900269	-0.671496
H57	H	1.005397	-0.858226	-0.717443
H58	H	1.408426	-0.339765	-0.997197
H59	H	1.108213	-1.175965	-0.698813
H60	H	1.311545	-0.890371	-0.455630
N61	N	1.419520	-0.326467	-1.208335
N62	N	1.467129	-0.269551	-1.162397
H63	H	1.505618	-0.223522	-1.204434
N64	N	1.311697	-0.455356	-1.312330
N65	N	1.246677	-0.429216	-1.357144
H66	H	1.246678	-0.429193	-1.436300
H67	H	0.720233	-0.670829	-0.670558
N68	N	1.097193	-0.711829	-1.187650
N69	N	1.097222	-0.711791	-1.285617
H70	H	1.058752	-0.757777	-1.322736
N71	N	1.097137	-0.711902	-0.965840
N72	N	1.049525	-0.768820	-1.011770
H73	H	1.011027	-0.814832	-0.969727
H74	H	1.408469	-1.195160	-0.340119
N75	N	1.311752	-1.311256	-0.455772
N76	N	1.359409	-1.363276	-0.398887
H77	H	1.359454	-1.442435	-0.398903
