data_functionalizedCrystal
_audit_creation_method	'MofGen! by Chris Wilmer'
_symmetry_space_group_name_H-M	'P1'
_symmetry_Int_Tables_number	1
_symmetry_cell_setting	triclinic
loop_
_symmetry_equiv_pos_as_xyz
  x,y,z
_cell_length_a	15.944545
_cell_length_b	17.699083
_cell_length_c	16.176319
_cell_angle_alpha	90.000237
_cell_angle_beta	89.994591
_cell_angle_gamma	96.610406
loop_
_atom_site_label
_atom_site_type_symbol
_atom_site_fract_x
_atom_site_fract_y
_atom_site_fract_z
O1	O	0.106218	-1.004257	-0.068634
O2	O	0.120038	-0.783902	-0.068662
O3	O	-0.009160	-0.900100	-0.068638
O4	O	0.235416	-0.888060	-0.068659
O5	O	-0.009160	-0.900085	0.068855
O6	O	0.120038	-0.783888	0.068831
O7	O	0.106218	-1.004243	0.068859
Cu8	Cu	0.113128	-0.894064	0.081399
Cu9	Cu	0.113128	-0.894081	-0.081203
O10	O	0.235416	-0.888045	0.068834
C11	C	0.119543	-0.755697	0.000081
C12	C	0.118057	-0.671677	0.000071
C13	C	-0.040453	-0.899593	0.000110
C14	C	-0.133696	-0.898097	0.000112
C15	C	0.106713	-1.032448	0.000114
C16	C	0.108199	-1.116468	0.000118
C17	C	-0.404168	-0.821603	0.000085
C18	C	-0.353660	-0.858490	-0.067702
C19	C	-0.469329	-0.892763	0.000088
C20	C	-0.353687	-0.858494	0.067856
C21	C	-0.304421	-0.895380	0.000101
C22	C	-0.420049	-0.929630	-0.067756
C23	C	-0.420079	-0.929625	0.067863
C24	C	-0.369604	-0.966563	0.000059
C25	C	-0.564328	-0.891253	0.000079
C26	C	-0.209424	-0.896895	0.000103
C27	C	0.266709	-0.888552	0.000085
C28	C	0.359952	-0.890048	0.000078
N29	N	0.113128	-0.894058	0.195764
C30	C	0.193894	-0.623184	0.000065
C31	C	0.192493	-0.544238	0.000075
C32	C	0.115255	-0.513787	0.000087
C33	C	0.039412	-0.562286	0.000095
C34	C	0.040814	-0.641230	0.000091
C35	C	0.033758	-0.243913	0.000116
C36	C	0.032362	-0.164963	0.000119
C37	C	0.185436	-0.146921	0.000101
C38	C	0.186838	-0.225865	0.000096
C39	C	0.110996	-0.274358	0.000110
C40	C	0.112516	-0.359959	0.000099
C41	C	0.113734	-0.428187	0.000091
C42	C	0.164011	-0.939958	0.239026
C43	C	0.164008	-0.939966	0.325573
C44	C	0.113126	-0.894068	0.368857
C45	C	0.062237	-0.848166	0.325589
C46	C	0.062236	-0.848163	0.239043
C47	C	0.062239	-0.848178	0.674617
C48	C	0.062246	-0.848183	0.761169
C49	C	0.164011	-0.939981	0.761147
C50	C	0.164010	-0.939978	0.674602
C51	C	0.113118	-0.894079	0.631341
C52	C	0.113121	-0.894072	0.537497
C53	C	0.113127	-0.894071	0.462700
N54	N	0.113125	-0.894088	0.804432
H55	H	-0.419691	-0.760319	0.000012
H56	H	-0.324662	-0.828443	-0.125018
C57	C	-0.049665	-0.297245	0.000125
H58	H	-0.095863	-0.267800	0.000124
H59	H	-0.052302	-0.328417	0.048071
H60	H	-0.052302	-0.328414	-0.047828
H61	H	-0.354242	-1.027895	0.000029
H62	H	0.247190	-0.107429	0.000095
C63	C	-0.045548	-0.528792	0.000106
H64	H	-0.035523	-0.474830	0.000099
H65	H	-0.076768	-0.545438	0.048055
H66	H	-0.076764	-0.545437	-0.047845
H67	H	-0.448918	-0.959666	-0.125128
C68	C	-0.459283	-0.970176	0.145293
H69	H	-0.436448	-0.944804	0.193414
H70	H	-0.446851	-1.021390	0.145788
H71	H	-0.518744	-0.969333	0.144457
C72	C	-0.052604	-0.131468	0.000139
H73	H	-0.097572	-0.171654	0.000155
H74	H	-0.056337	-0.101046	-0.047805
H75	H	-0.056322	-0.101048	0.048095
H76	H	-0.324710	-0.828424	0.125163
H77	H	0.205446	-0.977350	0.639364
C78	C	0.278854	-0.656677	0.000050
H79	H	0.268831	-0.710638	0.000040
H80	H	0.310075	-0.640034	0.047993
H81	H	0.310070	-0.640027	-0.047906
C82	C	0.275913	-0.490899	0.000066
H83	H	0.322113	-0.520341	0.000048
H84	H	0.278553	-0.459730	0.048015
H85	H	0.278545	-0.459725	-0.047885
H86	H	0.249733	-0.250654	0.000083
H87	H	-0.020940	-0.680713	0.000095
C88	C	0.219977	-0.990450	0.191422
H89	H	0.250273	-1.017794	0.229586
H90	H	0.258680	-0.959440	0.157655
H91	H	0.185497	-1.025283	0.157666
H92	H	0.205440	-0.977344	0.360793
H93	H	0.020809	-0.810806	0.796408
C94	C	0.219984	-0.990477	0.808736
H95	H	0.212693	-0.983915	0.866478
H96	H	0.277475	-0.976412	0.794547
H97	H	0.204301	-1.042262	0.794548
H98	H	0.020800	-0.810805	0.639405
C99	C	0.006269	-0.797679	0.373198
H100	H	0.013564	-0.804247	0.430938
H101	H	-0.051224	-0.811739	0.359023
H102	H	0.021955	-0.745893	0.359013
H103	H	0.020802	-0.810786	0.203821
