data_functionalizedCrystal
_audit_creation_method	'MofGen! by Chris Wilmer'
_symmetry_space_group_name_H-M	'P1'
_symmetry_Int_Tables_number	1
_symmetry_cell_setting	triclinic
loop_
_symmetry_equiv_pos_as_xyz
  x,y,z
_cell_length_a	18.050582
_cell_length_b	16.625548
_cell_length_c	16.625546
_cell_angle_alpha	90.023536
_cell_angle_beta	90.023778
_cell_angle_gamma	90.014893
loop_
_atom_site_label
_atom_site_type_symbol
_atom_site_fract_x
_atom_site_fract_y
_atom_site_fract_z
Zn1	Zn	-0.419906	-1.232635	0.321030
Zn2	Zn	0.080094	-0.732635	0.821030
Zn3	Zn	-0.295713	-1.232552	0.455857
Zn4	Zn	0.204287	-0.732552	0.955857
Zn5	Zn	-0.295730	-1.097810	0.321045
Zn6	Zn	0.204270	-0.597810	0.821045
Zn7	Zn	-0.419862	-1.097768	0.455827
Zn8	Zn	0.080138	-0.597768	0.955827
O9	O	-0.357803	-1.165191	0.388440
O10	O	0.142197	-0.665191	0.888440
O11	O	-0.403443	-1.345457	0.338922
O12	O	0.096557	-0.845457	0.838922
O13	O	-0.191791	-1.214661	0.437993
O14	O	0.308209	-0.714661	0.937993
O15	O	-0.312228	-1.115748	0.208211
O16	O	0.187772	-0.615748	0.708211
O17	O	-0.312199	-1.345395	0.437979
O18	O	0.187801	-0.845395	0.937979
O19	O	-0.403459	-1.214803	0.208199
O20	O	0.096541	-0.714803	0.708199
O21	O	-0.191803	-1.115667	0.338947
O22	O	0.308197	-0.615667	0.838947
O23	O	-0.312185	-0.984972	0.338918
O24	O	0.187815	-0.484972	0.838918
O25	O	-0.523792	-1.115675	0.437926
O26	O	-0.023792	-0.615675	0.937926
O27	O	-0.403384	-0.984941	0.437941
O28	O	0.096616	-0.484941	0.937941
O29	O	-0.523825	-1.214762	0.338892
O30	O	-0.023825	-0.714762	0.838892
O31	O	-0.312156	-1.214620	0.568686
O32	O	0.187844	-0.714620	1.068686
O33	O	-0.403368	-1.115594	0.568663
O34	O	0.096632	-0.615594	1.068663
C35	C	-0.357782	-0.955700	0.388428
C36	C	0.142218	-0.455700	0.888428
C37	C	-0.357791	-0.866079	0.388443
C38	C	0.142209	-0.366079	0.888443
C39	C	-0.357772	-1.165115	0.597931
C40	C	0.142228	-0.665115	1.097931
C41	C	-0.357783	-1.165156	0.687552
C42	C	0.142217	-0.665156	1.187552
C43	C	-0.551508	-1.165223	0.388404
C44	C	-0.051508	-0.665223	0.888404
C45	C	-0.634054	-1.165236	0.388389
C46	C	-0.134054	-0.665236	0.888389
C47	C	-0.833487	-1.111394	0.442170
C48	C	-0.333487	-0.611394	0.942170
C49	C	-0.882878	-1.184959	0.461878
C50	C	-0.382878	-0.684959	0.961878
C51	C	-0.785185	-1.165276	0.388327
C52	C	-0.285185	-0.665276	0.888327
C53	C	-0.882875	-1.091752	0.368597
C54	C	-0.382875	-0.591752	0.868597
C55	C	-0.931170	-1.165308	0.388269
C56	C	-0.431170	-0.665308	0.888269
C57	C	-0.833488	-1.238879	0.408074
C58	C	-0.333488	-0.738879	0.908074
C59	C	-0.833481	-1.145623	0.314758
C60	C	-0.333481	-0.645623	0.814758
C61	C	-0.882850	-1.219238	0.334438
C62	C	-0.382850	-0.719238	0.834438
C63	C	-0.701086	-1.165257	0.388363
C64	C	-0.201086	-0.665257	0.888363
C65	C	-1.015266	-1.165336	0.388234
C66	C	-0.515266	-0.665336	0.888234
C67	C	-0.164851	-1.165206	0.388417
C68	C	0.335149	-0.665206	0.888417
C69	C	-0.082305	-1.165349	0.388205
C70	C	0.417695	-0.665349	0.888205
C71	C	-0.357824	-1.375500	0.388452
C72	C	0.142176	-0.875500	0.888452
C73	C	-0.357833	-1.465121	0.388457
C74	C	0.142167	-0.965121	0.888457
C75	C	-0.357822	-0.537904	0.388448
C76	C	0.142178	-0.037904	0.888448
C77	C	-0.357811	-0.629212	0.388444
C78	C	0.142189	-0.129212	0.888444
C79	C	-0.357806	-0.701989	0.388446
C80	C	0.142194	-0.201989	0.888446
C81	C	-0.357796	-0.793303	0.388441
C82	C	0.142204	-0.293303	0.888441
C83	C	-0.357850	-1.165290	0.178131
C84	C	0.142150	-0.665290	0.678131
C85	C	-0.357870	-1.165332	0.088510
C86	C	0.142130	-0.665332	0.588510
C87	C	-0.357860	-1.165297	1.015727
C88	C	0.142140	-0.665297	1.515727
C89	C	-0.357841	-1.165255	0.924419
C90	C	0.142159	-0.665255	1.424419
C91	C	-0.357821	-1.165226	0.851642
C92	C	0.142179	-0.665226	1.351642
C93	C	-0.357803	-1.165185	0.760328
C94	C	0.142197	-0.665185	1.260328
H95	H	-0.904576	-1.201601	0.524070
H96	H	-0.404576	-0.701601	1.024070
C97	C	-0.804795	-1.321837	0.430527
C98	C	-0.304795	-0.821837	0.930527
C99	C	-0.830448	-1.342365	0.507289
C100	C	-0.330448	-0.842365	1.007289
C101	C	-0.804037	-1.418780	0.527998
C102	C	-0.304037	-0.918780	1.027998
H103	H	-0.752172	-1.321407	0.430503
H104	H	-0.252172	-0.821407	0.930503
H105	H	-0.822114	-1.360184	0.392533
H106	H	-0.322114	-0.860184	0.892533
H107	H	-0.813125	-1.304028	0.545274
H108	H	-0.313125	-0.804028	1.045274
H109	H	-0.883067	-1.342812	0.507334
H110	H	-0.383067	-0.842812	1.007334
H111	H	-0.821357	-1.457127	0.490003
H112	H	-0.321357	-0.957127	0.990003
H113	H	-0.751416	-1.418343	0.527969
H114	H	-0.251416	-0.918343	1.027969
H115	H	-0.821445	-1.432721	0.580079
H116	H	-0.321445	-0.932721	1.080079
C117	C	-0.911535	-1.280207	0.273798
C118	C	-0.411535	-0.780207	0.773798
C119	C	-0.886390	-1.357044	0.294798
C120	C	-0.386390	-0.857044	0.794798
C121	C	-0.912809	-1.413232	0.238965
C122	C	-0.412809	-0.913232	0.738965
H123	H	-0.893890	-1.266788	0.221683
H124	H	-0.393890	-0.766788	0.721683
H125	H	-0.964165	-1.279628	0.273806
H126	H	-0.464165	-0.779628	0.773806
H127	H	-0.833770	-1.357621	0.294781
H128	H	-0.333770	-0.857621	0.794781
H129	H	-0.904033	-1.370489	0.346903
H130	H	-0.404033	-0.870489	0.846903
H131	H	-0.965440	-1.412653	0.238973
H132	H	-0.465440	-0.912653	0.738973
H133	H	-0.895162	-1.399805	0.186853
H134	H	-0.395162	-0.899805	0.686853
H135	H	-0.895758	-1.465373	0.253210
H136	H	-0.395758	-0.965373	0.753210
C137	C	-0.804558	-1.123240	0.231887
C138	C	-0.304558	-0.623240	0.731887
C139	C	-0.829521	-1.046149	0.211570
C140	C	-0.329521	-0.546149	0.711570
C141	C	-0.802881	-1.025489	0.135240
C142	C	-0.302881	-0.525489	0.635240
H143	H	-0.822176	-1.160914	0.193399
H144	H	-0.322176	-0.660914	0.693399
H145	H	-0.751930	-1.123831	0.232384
H146	H	-0.251930	-0.623831	0.732384
H147	H	-0.882138	-1.045565	0.211066
H148	H	-0.382138	-0.545565	0.711066
H149	H	-0.811905	-1.008458	0.250036
H150	H	-0.311905	-0.508458	0.750036
H151	H	-0.750253	-1.026080	0.135738
H152	H	-0.250253	-0.526080	0.635738
H153	H	-0.820501	-1.063169	0.096760
H154	H	-0.320501	-0.563169	0.596760
H155	H	-0.819809	-0.973179	0.121448
H156	H	-0.319809	-0.473179	0.621448
C157	C	-0.911847	-1.008803	0.346534
C158	C	-0.411847	-0.508803	0.846534
C159	C	-0.955562	-0.979193	0.409472
C160	C	-0.455562	-0.479193	0.909472
C161	C	-0.982252	-0.902779	0.389188
C162	C	-0.482252	-0.402779	0.889188
H163	H	-0.940849	-1.012372	0.298978
H164	H	-0.440849	-0.512372	0.798978
H165	H	-0.871291	-0.973476	0.337651
H166	H	-0.371291	-0.473476	0.837651
H167	H	-0.996112	-1.014511	0.418345
H168	H	-0.496112	-0.514511	0.918345
H169	H	-0.926576	-0.975604	0.457034
H170	H	-0.426576	-0.475604	0.957034
H171	H	-0.941697	-0.867452	0.380305
H172	H	-0.441697	-0.367452	0.880305
H173	H	-1.011251	-0.906356	0.341631
H174	H	-0.511251	-0.406356	0.841631
H175	H	-1.011910	-0.882676	0.431891
H176	H	-0.511910	-0.382676	0.931891
C177	C	-0.804622	-1.050799	0.503086
C178	C	-0.304622	-0.550799	1.003086
C179	C	-0.829638	-1.071774	0.579974
C180	C	-0.329638	-0.571774	1.079974
C181	C	-0.803054	-1.015983	0.636112
C182	C	-0.303054	-0.515983	1.136112
H183	H	-0.822241	-0.998659	0.489710
H184	H	-0.322241	-0.498659	0.989710
H185	H	-0.751993	-1.050878	0.502395
H186	H	-0.251993	-0.550878	1.002395
H187	H	-0.882256	-1.071687	0.580663
H188	H	-0.382256	-0.571687	1.080663
H189	H	-0.812021	-1.123905	0.593375
H190	H	-0.312021	-0.623905	1.093375
H191	H	-0.750425	-1.016062	0.635421
H192	H	-0.250425	-0.516062	1.135421
H193	H	-0.820675	-0.963846	0.622728
H194	H	-0.320675	-0.463846	1.122728
H195	H	-0.820018	-1.030211	0.688287
H196	H	-0.320018	-0.530211	1.188287
