data_functionalizedCrystal
_audit_creation_method	'MofGen! by Chris Wilmer'
_symmetry_space_group_name_H-M	'P1'
_symmetry_Int_Tables_number	1
_symmetry_cell_setting	triclinic
loop_
_symmetry_equiv_pos_as_xyz
  x,y,z
_cell_length_a	16.120484
_cell_length_b	16.625548
_cell_length_c	16.625539
_cell_angle_alpha	90.017055
_cell_angle_beta	92.870299
_cell_angle_gamma	87.073374
loop_
_atom_site_label
_atom_site_type_symbol
_atom_site_fract_x
_atom_site_fract_y
_atom_site_fract_z
Zn1	Zn	-0.331898	-1.216358	-0.472168
Zn2	Zn	-0.081898	-0.966358	-0.222168
Zn3	Zn	0.168102	-0.716358	0.027832
Zn4	Zn	0.418102	-0.466358	0.277832
Zn5	Zn	-0.471318	-1.209425	-0.344164
Zn6	Zn	-0.221318	-0.959425	-0.094164
Zn7	Zn	0.028682	-0.709425	0.155836
Zn8	Zn	0.278682	-0.459425	0.405836
Zn9	Zn	-0.331926	-1.081527	-0.337349
Zn10	Zn	-0.081926	-0.831527	-0.087349
Zn11	Zn	0.168074	-0.581527	0.162651
Zn12	Zn	0.418074	-0.331527	0.412651
Zn13	Zn	-0.471275	-1.074648	-0.478952
Zn14	Zn	-0.221275	-0.824648	-0.228952
Zn15	Zn	0.028725	-0.574648	0.021048
Zn16	Zn	0.278725	-0.324648	0.271048
O17	O	-0.401604	-1.145490	-0.408158
O18	O	-0.151604	-0.895490	-0.158158
O19	O	0.098396	-0.645490	0.091842
O20	O	0.348396	-0.395490	0.341842
O21	O	-0.350399	-1.328271	-0.455200
O22	O	-0.100399	-1.078271	-0.205200
O23	O	0.149601	-0.828271	0.044800
O24	O	0.399601	-0.578271	0.294800
O25	O	-0.452857	-1.192436	-0.230429
O26	O	-0.202857	-0.942436	0.019571
O27	O	0.047143	-0.692436	0.269571
O28	O	0.297143	-0.442436	0.519571
O29	O	-0.215256	-1.105193	-0.349542
O30	O	0.034744	-0.855193	-0.099542
O31	O	0.284744	-0.605193	0.150458
O32	O	0.534744	-0.355193	0.400458
O33	O	-0.452831	-1.323177	-0.361157
O34	O	-0.202831	-1.073177	-0.111157
O35	O	0.047169	-0.823177	0.138843
O36	O	0.297169	-0.573177	0.388843
O37	O	-0.215236	-1.204253	-0.448592
O38	O	0.034764	-0.954253	-0.198592
O39	O	0.284764	-0.704253	0.051408
O40	O	0.534764	-0.454253	0.301408
O41	O	-0.350446	-1.098470	-0.225423
O42	O	-0.100446	-0.848470	0.024577
O43	O	0.149554	-0.598470	0.274577
O44	O	0.399554	-0.348470	0.524577
O45	O	-0.350404	-0.967782	-0.356121
O46	O	-0.100404	-0.717782	-0.106121
O47	O	0.149596	-0.467782	0.143879
O48	O	0.399596	-0.217782	0.393879
O49	O	-0.452757	-1.093469	-0.590883
O50	O	-0.202757	-0.843469	-0.340883
O51	O	0.047243	-0.593469	-0.090883
O52	O	0.297243	-0.343469	0.159117
O53	O	-0.452783	-0.962728	-0.460156
O54	O	-0.202783	-0.712728	-0.210156
O55	O	0.047217	-0.462728	0.039844
O56	O	0.297217	-0.212728	0.289844
O57	O	-0.350357	-1.197583	-0.585899
O58	O	-0.100357	-0.947583	-0.335899
O59	O	0.149643	-0.697583	-0.085899
O60	O	0.399643	-0.447583	0.164101
O61	O	-0.587979	-1.185766	-0.367736
O62	O	-0.337979	-0.935766	-0.117736
O63	O	-0.087979	-0.685766	0.132264
O64	O	0.162021	-0.435766	0.382264
O65	O	-0.587947	-1.086746	-0.466764
O66	O	-0.337947	-0.836746	-0.216764
O67	O	-0.087947	-0.586746	0.033236
O68	O	0.162053	-0.336746	0.283236
C69	C	-0.401592	-0.935999	-0.408135
C70	C	-0.151592	-0.685999	-0.158135
C71	C	0.098408	-0.435999	0.091865
C72	C	0.348408	-0.185999	0.341865
C73	C	-0.401607	-0.846377	-0.408146
C74	C	-0.151607	-0.596377	-0.158146
C75	C	0.098393	-0.346377	0.091854
C76	C	0.348393	-0.096377	0.341854
C77	C	-0.618213	-1.134779	-0.418743
C78	C	-0.368213	-0.884779	-0.168743
C79	C	-0.118213	-0.634779	0.081257
C80	C	0.131787	-0.384779	0.331257
C81	C	-0.710879	-1.130271	-0.423298
C82	C	-0.460879	-0.880271	-0.173298
C83	C	-0.210879	-0.630271	0.076702
C84	C	0.039121	-0.380271	0.326702
C85	C	-0.880541	-1.122045	-0.431631
C86	C	-0.630541	-0.872045	-0.181631
C87	C	-0.380541	-0.622045	0.068369
C88	C	-0.130541	-0.372045	0.318369
C89	C	-0.921827	-1.169079	-0.384699
C90	C	-0.671827	-0.919079	-0.134699
C91	C	-0.421827	-0.669079	0.115301
C92	C	-0.171827	-0.419079	0.365301
C93	C	-1.016233	-1.164502	-0.389335
C94	C	-0.766233	-0.914502	-0.139335
C95	C	-0.516233	-0.664502	0.110665
C96	C	-0.266233	-0.414502	0.360665
C97	C	-0.786127	-1.126621	-0.426996
C98	C	-0.536127	-0.876621	-0.176996
C99	C	-0.286127	-0.626621	0.073004
C100	C	-0.036127	-0.376621	0.323004
C101	C	-0.401549	-1.145532	-0.618465
C102	C	-0.151549	-0.895532	-0.368465
C103	C	0.098451	-0.645532	-0.118465
C104	C	0.348451	-0.395532	0.131535
C105	C	-0.401526	-1.145550	-0.708085
C106	C	-0.151526	-0.895550	-0.458085
C107	C	0.098474	-0.645550	-0.208085
C108	C	0.348474	-0.395550	0.041915
C109	C	-0.184150	-1.156264	-0.397550
C110	C	0.065850	-0.906264	-0.147550
C111	C	0.315850	-0.656264	0.102450
C112	C	0.565850	-0.406264	0.352450
C113	C	-0.091484	-1.160855	-0.393029
C114	C	0.158516	-0.910855	-0.143029
C115	C	0.408516	-0.660855	0.106971
C116	C	0.658516	-0.410855	0.356971
C117	C	-0.401617	-1.355798	-0.408182
C118	C	-0.151617	-1.105798	-0.158182
C119	C	0.098383	-0.855798	0.091818
C120	C	0.348383	-0.605798	0.341818
C121	C	-0.401622	-1.445419	-0.408192
C122	C	-0.151622	-1.195419	-0.158192
C123	C	0.098378	-0.945419	0.091808
C124	C	0.348378	-0.695419	0.341808
C125	C	-0.401613	-0.518202	-0.408180
C126	C	-0.151613	-0.268202	-0.158180
C127	C	0.098387	-0.018202	0.091820
C128	C	0.348387	0.231798	0.341820
C129	C	-0.401609	-0.609510	-0.408168
C130	C	-0.151609	-0.359510	-0.158168
C131	C	0.098391	-0.109510	0.091832
C132	C	0.348391	0.140490	0.341832
C133	C	-0.401611	-0.682287	-0.408162
C134	C	-0.151611	-0.432287	-0.158162
C135	C	0.098389	-0.182287	0.091838
C136	C	0.348389	0.067713	0.341838
C137	C	-0.401606	-0.773601	-0.408151
C138	C	-0.151606	-0.523601	-0.158151
C139	C	0.098394	-0.273601	0.091849
C140	C	0.348394	-0.023601	0.341849
C141	C	-0.401507	-1.145564	-0.780866
C142	C	-0.151507	-0.895564	-0.530866
C143	C	0.098493	-0.645564	-0.280866
C144	C	0.348493	-0.395564	-0.030866
C145	C	-0.401476	-1.145584	-0.872173
C146	C	-0.151476	-0.895584	-0.622173
C147	C	0.098524	-0.645584	-0.372173
C148	C	0.348524	-0.395584	-0.122173
C149	C	-0.401447	-1.145605	-0.944948
C150	C	-0.151447	-0.895605	-0.694948
C151	C	0.098553	-0.645605	-0.444948
C152	C	0.348553	-0.395605	-0.194948
C153	C	-0.401417	-1.145626	-1.036261
C154	C	-0.151417	-0.895626	-0.786261
C155	C	0.098583	-0.645626	-0.536261
C156	C	0.348583	-0.395626	-0.286261
C157	C	-0.401599	-1.145497	-0.198667
C158	C	-0.151599	-0.895497	0.051333
C159	C	0.098401	-0.645497	0.301333
C160	C	0.348401	-0.395497	0.551333
C161	C	-0.401388	-1.145647	-0.109036
C162	C	-0.151388	-0.895647	0.140964
C163	C	0.098612	-0.645647	0.390964
C164	C	0.348612	-0.395647	0.640964
H165	H	-0.886271	-1.212783	-0.341036
H166	H	-0.636271	-0.962783	-0.091036
H167	H	-0.386271	-0.712783	0.158964
H168	H	-0.136271	-0.462783	0.408964
N169	N	-0.925124	-1.067202	-0.486394
N170	N	-0.675124	-0.817202	-0.236394
N171	N	-0.425124	-0.567202	0.013606
N172	N	-0.175124	-0.317202	0.263606
N173	N	-0.886367	-1.022968	-0.530517
N174	N	-0.636367	-0.772968	-0.280517
N175	N	-0.386367	-0.522968	-0.030517
N176	N	-0.136367	-0.272968	0.219483
H177	H	-0.917861	-0.984232	-0.569190
H178	H	-0.667861	-0.734232	-0.319190
H179	H	-0.417861	-0.484232	-0.069190
H180	H	-0.167861	-0.234232	0.180810
