data_functionalizedCrystal
_audit_creation_method	'MofGen! by Chris Wilmer'
_symmetry_space_group_name_H-M	'P1'
_symmetry_Int_Tables_number	1
_symmetry_cell_setting	triclinic
loop_
_symmetry_equiv_pos_as_xyz
  x,y,z
_cell_length_a	17.699104
_cell_length_b	19.188924
_cell_length_c	16.776229
_cell_angle_alpha	89.991401
_cell_angle_beta	89.991556
_cell_angle_gamma	83.216741
loop_
_atom_site_label
_atom_site_type_symbol
_atom_site_fract_x
_atom_site_fract_y
_atom_site_fract_z
O1	O	1.003950	0.088364	-0.066308
O2	O	1.337284	0.421697	0.267025
O3	O	1.670617	0.755030	0.600359
O4	O	0.783559	0.099836	-0.066306
O5	O	1.116892	0.433169	0.267027
O6	O	1.450225	0.766502	0.600360
O7	O	0.900117	-0.007549	-0.066298
O8	O	1.233451	0.325785	0.267035
O9	O	1.566784	0.659118	0.600369
O10	O	0.887392	0.195748	-0.066317
O11	O	1.220725	0.529081	0.267017
O12	O	1.554058	0.862415	0.600350
O13	O	0.900101	-0.007555	0.066279
O14	O	1.233434	0.325778	0.399612
O15	O	1.566768	0.659112	0.732945
O16	O	0.783542	0.099830	0.066270
O17	O	1.116876	0.433163	0.399603
O18	O	1.450209	0.766496	0.732937
O19	O	1.003934	0.088357	0.066269
O20	O	1.337267	0.421691	0.399602
O21	O	1.670601	0.755024	0.732935
Zn22	Zn	0.893736	0.094093	0.087319
Zn23	Zn	1.227069	0.427426	0.420652
Zn24	Zn	1.560402	0.760759	0.753985
Zn25	Zn	0.893757	0.094101	-0.087357
Zn26	Zn	1.227090	0.427434	0.245977
Zn27	Zn	1.560424	0.760767	0.579310
O28	O	0.887375	0.195742	0.066260
O29	O	1.220709	0.529075	0.399593
O30	O	1.554042	0.862409	0.732927
C31	C	0.755354	0.099419	-0.000018
C32	C	1.088688	0.432752	0.333315
C33	C	1.422021	0.766086	0.666649
C34	C	0.671339	0.098178	-0.000017
C35	C	1.004672	0.431512	0.333316
C36	C	1.338005	0.764845	0.666650
C37	C	0.899698	-0.033563	-0.000009
C38	C	1.233031	0.299770	0.333324
C39	C	1.566364	0.633103	0.666658
C40	C	0.898463	-0.111070	-0.000007
C41	C	1.231797	0.222264	0.333327
C42	C	1.565130	0.555597	0.666660
C43	C	0.146393	0.154214	-0.000031
C44	C	0.479726	0.487548	0.333303
C45	C	0.813059	0.820881	0.666636
C46	C	0.225335	0.155376	-0.000033
C47	C	0.558668	0.488709	0.333300
C48	C	0.892001	0.822042	0.666634
C49	C	0.274037	0.092337	-0.000027
C50	C	0.607370	0.425670	0.333306
C51	C	0.940704	0.759004	0.666640
C52	C	0.243793	0.028133	-0.000027
C53	C	0.577127	0.361466	0.333307
C54	C	0.910460	0.694799	0.666640
C55	C	0.164853	0.026972	-0.000030
C56	C	0.498186	0.360305	0.333303
C57	C	0.831519	0.693638	0.666637
C58	C	0.562153	0.032812	-0.000014
C59	C	0.895486	0.366146	0.333319
C60	C	1.228820	0.699479	0.666652
C61	C	0.641099	0.033978	-0.000009
C62	C	0.974432	0.367312	0.333325
C63	C	1.307765	0.700645	0.666658
C64	C	0.622635	0.161216	-0.000017
C65	C	0.955969	0.494550	0.333316
C66	C	1.289302	0.827883	0.666649
C67	C	0.543694	0.160056	-0.000021
C68	C	0.877028	0.493389	0.333313
C69	C	1.210361	0.826722	0.666646
C70	C	0.513458	0.095852	-0.000025
C71	C	0.846791	0.429185	0.333309
C72	C	1.180124	0.762518	0.666642
C73	C	0.427860	0.094593	-0.000023
C74	C	0.761193	0.427926	0.333310
C75	C	1.094526	0.761260	0.666643
C76	C	0.359634	0.093595	-0.000022
C77	C	0.692967	0.426928	0.333311
C78	C	1.026300	0.760262	0.666644
C79	C	0.897896	-0.147466	-0.072274
C80	C	1.231230	0.185868	0.261059
C81	C	1.564563	0.519201	0.594392
C82	C	0.896726	-0.220290	-0.072280
C83	C	1.230059	0.113043	0.261053
C84	C	1.563392	0.446377	0.594386
C85	C	0.896137	-0.256717	-0.000015
C86	C	1.229471	0.076616	0.333319
C87	C	1.562804	0.409950	0.666652
C88	C	0.896700	-0.220311	0.072262
C89	C	1.230034	0.113022	0.405596
C90	C	1.563367	0.446355	0.738929
C91	C	0.897863	-0.147488	0.072266
C92	C	1.231197	0.185846	0.405600
C93	C	1.564530	0.519179	0.738933
N94	N	0.937375	-0.376334	0.053771
N95	N	1.270708	-0.043000	0.387104
N96	N	1.604042	0.290333	0.720437
N97	N	0.936272	-0.445513	0.053762
N98	N	1.269605	-0.112180	0.387095
N99	N	1.602938	0.221153	0.720429
C100	C	0.892632	-0.476130	-0.000022
C101	C	1.225965	-0.142797	0.333311
C102	C	1.559298	0.190536	0.666644
N103	N	0.850146	-0.434955	-0.053810
N104	N	1.183479	-0.101622	0.279523
N105	N	1.516813	0.231711	0.612857
N106	N	0.851253	-0.365770	-0.053803
N107	N	1.184586	-0.032437	0.279530
N108	N	1.517919	0.300897	0.612863
C109	C	0.894876	-0.335682	-0.000011
C110	C	1.228209	-0.002349	0.333322
C111	C	1.561542	0.330985	0.666656
C112	C	0.890794	-0.591490	-0.072302
C113	C	1.224127	-0.258157	0.261032
C114	C	1.557461	0.075176	0.594365
C115	C	0.889619	-0.664315	-0.072305
C116	C	1.222952	-0.330982	0.261029
C117	C	1.556285	0.002351	0.594362
C118	C	0.889601	-0.664336	0.072240
C119	C	1.222934	-0.331003	0.405574
C120	C	1.556268	0.002330	0.738907
C121	C	0.890769	-0.591512	0.072241
C122	C	1.224102	-0.258179	0.405575
C123	C	1.557436	0.075155	0.738908
C124	C	0.891369	-0.555094	-0.000032
C125	C	1.224702	-0.221761	0.333301
C126	C	1.558035	0.111573	0.666635
C127	C	1.032138	0.088774	-0.000022
C128	C	1.365472	0.422107	0.333312
C129	C	1.698805	0.755441	0.666645
C130	C	1.116154	0.090015	-0.000028
C131	C	1.449487	0.423348	0.333305
C132	C	1.782821	0.756681	0.666639
C133	C	0.887795	0.221757	-0.000031
C134	C	1.221128	0.555090	0.333303
C135	C	1.554461	0.888423	0.666636
C136	C	0.889029	0.299263	-0.000038
C137	C	1.222363	0.632596	0.333295
C138	C	1.555696	0.965930	0.666628
N139	N	0.893726	0.094086	0.206530
N140	N	1.227060	0.427420	0.539863
N141	N	1.560393	0.760753	0.873197
C142	C	0.945354	0.046556	0.248251
C143	C	1.278687	0.379890	0.581584
C144	C	1.612020	0.713223	0.914917
C145	C	0.945357	0.046556	0.331703
C146	C	1.278691	0.379889	0.665036
C147	C	1.612024	0.713223	0.998370
C148	C	0.893737	0.094090	0.373433
C149	C	1.227070	0.427423	0.706766
C150	C	1.560403	0.760756	1.040099
C151	C	0.842104	0.141622	0.331706
C152	C	1.175437	0.474956	0.665039
C153	C	1.508770	0.808289	0.998373
C154	C	0.842097	0.141619	0.248255
C155	C	1.175430	0.474952	0.581589
C156	C	1.508764	0.808285	0.914922
C157	C	0.842129	0.141637	0.668253
C158	C	1.175462	0.474970	1.001587
C159	C	1.508795	0.808303	1.334920
C160	C	0.842141	0.141638	0.751710
C161	C	1.175474	0.474971	1.085043
C162	C	1.508807	0.808305	1.418376
C163	C	0.945389	0.046574	0.751701
C164	C	1.278722	0.379907	1.085034
C165	C	1.612056	0.713241	1.418368
C166	C	0.945382	0.046570	0.668250
C167	C	1.278716	0.379904	1.001584
C168	C	1.612049	0.713237	1.334917
C169	C	0.893747	0.094100	0.626531
C170	C	1.227080	0.427434	0.959864
C171	C	1.560414	0.760767	1.293197
C172	C	0.893743	0.094099	0.536042
C173	C	1.227076	0.427432	0.869376
C174	C	1.560409	0.760766	1.202709
C175	C	0.893744	0.094095	0.463920
C176	C	1.227077	0.427428	0.797253
C177	C	1.560410	0.760761	1.130586
N178	N	0.893765	0.094104	0.793432
N179	N	1.227098	0.427437	1.126766
N180	N	1.560432	0.760771	1.460099
H181	H	0.106744	0.205548	-0.000029
H182	H	0.440077	0.538881	0.333304
H183	H	0.773410	0.872215	0.666637
H184	H	0.140234	-0.025306	-0.000029
H185	H	0.473568	0.308027	0.333304
H186	H	0.806901	0.641361	0.666637
N187	N	0.491186	0.228059	-0.000020
N188	N	0.824520	0.561393	0.333313
N189	N	1.157853	0.894726	0.666647
H190	H	0.458026	0.230430	-0.049165
H191	H	0.791360	0.563763	0.284168
H192	H	1.124693	0.897097	0.617502
H193	H	0.458067	0.230377	0.049160
H194	H	0.791400	0.563710	0.382493
H195	H	1.124734	0.897043	0.715827
H196	H	0.987431	0.007870	0.785678
H197	H	1.320764	0.341204	1.119011
H198	H	1.654098	0.674537	1.452344
H199	H	0.537544	-0.019466	-0.000015
H200	H	0.870878	0.313867	0.333318
H201	H	1.204211	0.647200	0.666651
H202	H	0.987392	0.007852	0.214280
H203	H	1.320726	0.341185	0.547613
H204	H	1.654059	0.674518	0.880947
H205	H	0.647263	0.213495	-0.000018
H206	H	0.980596	0.546828	0.333316
H207	H	1.313930	0.880161	0.666649
N208	N	0.786408	0.192883	0.203258
N209	N	1.119742	0.526216	0.536591
N210	N	1.453075	0.859549	0.869925
H211	H	0.794955	0.242430	0.217764
H212	H	1.128288	0.575763	0.551098
H213	H	1.461621	0.909096	0.884431
H214	H	0.794261	0.185606	0.144075
H215	H	1.127594	0.518940	0.477408
H216	H	1.460927	0.852273	0.810741
H217	H	0.987396	0.007853	0.365672
H218	H	1.320729	0.341186	0.699005
H219	H	1.654062	0.674519	1.032338
N220	N	0.786441	0.192909	0.623273
N221	N	1.119775	0.526243	0.956607
N222	N	1.453108	0.859576	1.289940
H223	H	0.815251	0.223793	0.588635
H224	H	1.148584	0.557126	0.921968
H225	H	1.481918	0.890460	1.255301
H226	H	0.753026	0.166219	0.588712
H227	H	1.086359	0.499552	0.922046
H228	H	1.419692	0.832886	1.255379
N229	N	0.693634	-0.034015	-0.000012
N230	N	1.026967	0.299319	0.333321
N231	N	1.360301	0.632652	0.666654
H232	H	0.726787	-0.036373	0.049137
H233	H	1.060121	0.296960	0.382470
H234	H	1.393454	0.630294	0.715804
H235	H	0.662451	-0.074827	-0.000048
H236	H	0.995784	0.258507	0.333285
H237	H	1.329117	0.591840	0.666618
H238	H	0.283453	-0.023195	-0.000027
H239	H	0.616786	0.310139	0.333307
H240	H	0.950120	0.643472	0.666640
H241	H	0.800102	0.180347	0.785685
H242	H	1.133435	0.513680	1.119018
H243	H	1.466769	0.847014	1.452351
H244	H	0.889116	-0.693994	0.131081
H245	H	1.222450	-0.360660	0.464414
H246	H	1.555783	-0.027327	0.797747
N247	N	0.898556	-0.108198	-0.150229
N248	N	1.231890	0.225135	0.183104
N249	N	1.565223	0.558469	0.516438
H250	H	0.945954	-0.083731	-0.153440
H251	H	1.279287	0.249602	0.179893
H252	H	1.612621	0.582936	0.513227
H253	H	0.897997	-0.142360	-0.195957
H254	H	1.231330	0.190973	0.137376
H255	H	1.564663	0.524307	0.470710
N256	N	0.896108	-0.259557	-0.150229
N257	N	1.229442	0.073776	0.183105
N258	N	1.562775	0.407109	0.516438
H259	H	0.896662	-0.225436	-0.196012
H260	H	1.229995	0.107898	0.137322
H261	H	1.563329	0.441231	0.470655
H262	H	0.942535	-0.295510	-0.153374
H263	H	1.275868	0.037823	0.179960
H264	H	1.609201	0.371157	0.513293
N265	N	0.896071	-0.259596	0.150207
N266	N	1.229404	0.073738	0.483541
N267	N	1.562737	0.407071	0.816874
H268	H	0.895253	-0.311253	0.139240
H269	H	1.228586	0.022080	0.472573
H270	H	1.561920	0.355413	0.805906
H271	H	0.943180	-0.252605	0.181762
H272	H	1.276513	0.080729	0.515096
H273	H	1.609847	0.414062	0.848429
H274	H	0.891237	-0.561879	0.131090
H275	H	1.224570	-0.228545	0.464423
H276	H	1.557904	0.104788	0.797756
H277	H	0.898322	-0.117854	0.131117
H278	H	1.231655	0.215479	0.464451
H279	H	1.564989	0.548813	0.797784
N280	N	0.891438	-0.552204	-0.150248
N281	N	1.224771	-0.218871	0.183086
N282	N	1.558105	0.114463	0.516419
H283	H	0.890895	-0.586314	-0.196032
H284	H	1.224228	-0.252980	0.137301
H285	H	1.557561	0.080353	0.470635
H286	H	0.845015	-0.516248	-0.153394
H287	H	1.178348	-0.182914	0.179939
H288	H	1.511682	0.150419	0.513273
H289	H	0.889153	-0.693947	-0.131156
H290	H	1.222486	-0.360614	0.202177
H291	H	1.555820	-0.027281	0.535511
H292	H	0.987419	0.007866	0.634276
H293	H	1.320753	0.341200	0.967610
H294	H	1.654086	0.674533	1.300943
H295	H	0.249951	0.207653	-0.000043
H296	H	0.583284	0.540987	0.333291
H297	H	0.916617	0.874320	0.666624
N298	N	0.786420	0.192887	0.376710
N299	N	1.119754	0.526220	0.710043
N300	N	1.453087	0.859554	1.043377
H301	H	0.794258	0.185679	0.435907
H302	H	1.127592	0.519013	0.769240
H303	H	1.460925	0.852346	1.102574
H304	H	0.794991	0.242409	0.362108
H305	H	1.128324	0.575743	0.695442
H306	H	1.461658	0.909076	1.028775
