data_functionalizedCrystal
_audit_creation_method	'MofGen! by Chris Wilmer'
_symmetry_space_group_name_H-M	'P1'
_symmetry_Int_Tables_number	1
_symmetry_cell_setting	triclinic
loop_
_symmetry_equiv_pos_as_xyz
  x,y,z
_cell_length_a	6.817900
_cell_length_b	11.102250
_cell_length_c	16.418042
_cell_angle_alpha	93.891219
_cell_angle_beta	103.389568
_cell_angle_gamma	108.605052
loop_
_atom_site_label
_atom_site_type_symbol
_atom_site_fract_x
_atom_site_fract_y
_atom_site_fract_z
V1	V	-4.051820	-0.176873	-0.261157
O2	O	-4.011990	0.007437	-0.256182
O3	O	-4.029005	-0.349687	-0.259375
O4	O	-4.002560	-0.174619	-0.375055
O5	O	-4.038618	-0.168844	-0.139701
V6	V	-4.532244	-0.154772	-0.246630
O7	O	-4.319876	-0.225352	-0.293025
O8	O	-4.714386	-0.106293	-0.214762
O9	O	-4.331853	0.018042	-0.248412
O10	O	-4.689471	-0.339082	-0.251605
O11	O	-4.662843	-0.162801	-0.368086
O12	O	-4.358298	-0.157026	-0.132732
C13	C	-3.880257	-0.391801	-0.255256
C14	C	-3.942884	-0.533081	-0.254558
C15	C	-3.988509	-0.713743	-0.176859
C16	C	-3.929665	-0.580997	-0.177520
C17	C	-4.014931	-0.617920	-0.330937
C18	C	-4.073759	-0.750664	-0.330274
C19	C	-3.939290	-0.692425	-0.088285
C20	C	-3.880446	-0.559678	-0.088947
C21	C	-3.846523	-0.168482	-0.402817
C22	C	-3.887700	-0.167782	-0.495929
C23	C	-4.165423	-0.172510	-0.714415
C24	C	-4.204092	-0.171842	-0.801903
C25	C	-3.837997	-0.159128	-0.793360
C26	C	-3.799325	-0.159788	-0.705873
C27	C	-3.963049	-0.166485	-0.666404
C28	C	-4.040389	-0.165158	-0.841378
C29	C	-4.082315	-0.164433	-0.936236
C30	C	-3.921120	-0.167208	-0.571540
C31	C	-4.143944	0.060149	-0.252529
C32	C	-4.060555	0.201428	-0.253233
C33	C	-4.177678	-0.163167	-0.104966
C34	C	-4.115738	-0.163860	-0.011853
H35	H	-4.025672	-0.578897	-0.393662
H36	H	-3.634516	-0.154872	-0.666779
H37	H	-4.298738	-0.177961	-0.682282
Cl38	Cl	-4.043587	-0.499107	-0.041680
Cl39	Cl	-3.632197	-0.150727	-0.842986
Cl40	Cl	-4.458515	-0.179417	-0.862257
H41	H	-4.132396	-0.819727	-0.392465
H42	H	-4.087265	-0.732129	-0.063909
Cl43	Cl	-3.604814	-0.477948	-0.041713
Cl44	Cl	-3.717789	-0.727718	-0.030545
