data_functionalizedCrystal
_audit_creation_method	'MofGen! by Chris Wilmer'
_symmetry_space_group_name_H-M	'P1'
_symmetry_Int_Tables_number	1
_symmetry_cell_setting	triclinic
loop_
_symmetry_equiv_pos_as_xyz
  x,y,z
_cell_length_a	21.295417
_cell_length_b	21.395362
_cell_length_c	21.395355
_cell_angle_alpha	90.048039
_cell_angle_beta	89.978549
_cell_angle_gamma	89.951233
loop_
_atom_site_label
_atom_site_type_symbol
_atom_site_fract_x
_atom_site_fract_y
_atom_site_fract_z
Zn1	Zn	-0.250375	-0.957860	-0.354641
Zn2	Zn	-0.355627	-0.957763	-0.249859
Zn3	Zn	-0.250409	-0.853075	-0.249835
Zn4	Zn	-0.355644	-0.853045	-0.354556
O5	O	-0.303014	-0.905436	-0.302223
O6	O	-0.264316	-1.045525	-0.340787
O7	O	-0.341676	-0.943848	-0.162177
O8	O	-0.162315	-0.867029	-0.263764
O9	O	-0.341644	-1.045454	-0.263804
O10	O	-0.162290	-0.944014	-0.340765
O11	O	-0.264373	-0.866935	-0.162160
O12	O	-0.264390	-0.765393	-0.263681
O13	O	-0.341673	-0.866977	-0.442245
O14	O	-0.341706	-0.765371	-0.340619
O15	O	-0.264333	-0.943984	-0.442308
O16	O	-0.443718	-0.943819	-0.263721
O17	O	-0.443731	-0.866883	-0.340641
C18	C	-0.303054	-0.742648	-0.302138
C19	C	-0.303086	-0.673007	-0.302117
C20	C	-0.343399	-0.640299	-0.342116
C21	C	-0.343387	-0.574863	-0.342140
C22	C	-0.303067	-0.542139	-0.302152
C23	C	-0.262747	-0.574855	-0.262150
C24	C	-0.262756	-0.640289	-0.262133
C25	C	-0.298001	-0.438414	-0.245740
C26	C	-0.297996	-0.372981	-0.245757
C27	C	-0.303035	-0.340318	-0.302207
C28	C	-0.308092	-0.373096	-0.358643
C29	C	-0.308102	-0.438530	-0.358625
C30	C	-0.303052	-0.471186	-0.302167
C31	C	-0.343336	-0.236657	-0.342235
C32	C	-0.343319	-0.171221	-0.342259
C33	C	-0.262682	-0.171214	-0.262265
C34	C	-0.262696	-0.236649	-0.262246
C35	C	-0.303026	-0.269367	-0.302230
C36	C	-0.466565	-0.905354	-0.302188
C37	C	-0.536534	-0.905376	-0.302194
C38	C	-0.569373	-0.945472	-0.262183
C39	C	-0.635115	-0.945502	-0.262197
C40	C	-0.668016	-0.905424	-0.302216
C41	C	-0.635169	-0.865325	-0.342235
C42	C	-0.569428	-0.865301	-0.342224
N43	N	-0.771300	-0.850614	-0.306964
N44	N	-0.833752	-0.850638	-0.306970
C45	C	-0.866091	-0.905494	-0.302252
N46	N	-0.833619	-0.960325	-0.297514
N47	N	-0.771162	-0.960300	-0.297504
C48	C	-0.739301	-0.905445	-0.302232
C49	C	-0.970215	-0.945625	-0.262253
C50	C	-1.035959	-0.945656	-0.262272
C51	C	-1.036012	-0.865473	-0.342307
C52	C	-0.970269	-0.865448	-0.342292
C53	C	-0.937375	-0.905523	-0.302262
C54	C	-0.138823	-0.905536	-0.302271
C55	C	-0.068855	-0.905578	-0.302292
C56	C	-0.303001	-0.905488	-0.465646
C57	C	-0.302996	-0.905510	-0.535287
C58	C	-0.302984	-0.068859	-0.302290
C59	C	-0.302999	-0.138501	-0.302272
C60	C	-0.262723	-0.945606	-0.568034
C61	C	-0.262696	-0.945605	-0.633470
C62	C	-0.302953	-0.905515	-0.666156
C63	C	-0.343228	-0.865411	-0.633401
C64	C	-0.343250	-0.865409	-0.567967
C65	C	-0.359634	-0.900539	-0.769816
C66	C	-0.359614	-0.900546	-0.835249
C67	C	-0.302886	-0.905519	-0.867977
C68	C	-0.246177	-0.910498	-0.835263
C69	C	-0.246198	-0.910496	-0.769829
C70	C	-0.302934	-0.905513	-0.737108
C71	C	-0.262580	-0.945616	-0.971676
C72	C	-0.262552	-0.945611	-1.037113
C73	C	-0.343091	-0.865420	-1.037043
C74	C	-0.343113	-0.865422	-0.971607
C75	C	-0.302859	-0.905523	-0.938928
C76	C	-0.302981	-0.905420	-0.139435
C77	C	-0.302809	-0.905520	-0.069794
H78	H	-0.229851	-0.144570	-0.229709
O79	O	-0.382582	-0.543015	-0.380909
C80	C	-0.467601	-0.469095	-0.389191
C81	C	-0.423242	-0.505108	-0.345214
H82	H	-0.500495	-0.438448	-0.360349
H83	H	-0.438784	-0.438482	-0.422006
H84	H	-0.496395	-0.503735	-0.417778
H85	H	-0.394439	-0.470513	-0.316586
H86	H	-0.452096	-0.535730	-0.312440
H87	H	-0.375912	-0.832775	-0.944945
H88	H	-0.943432	-0.978259	-0.229660
H89	H	-0.376044	-0.832755	-0.541305
O90	O	-0.223513	-0.984588	-1.068997
C91	C	-0.214999	-1.069203	-1.142924
C92	C	-0.259282	-1.025094	-1.106864
H93	H	-0.243901	-1.101971	-1.173539
H94	H	-0.182089	-1.040488	-1.173575
H95	H	-0.186217	-1.097834	-1.108316
H96	H	-0.288105	-0.996453	-1.141427
H97	H	-0.292150	-1.053844	-1.076204
H98	H	-0.943530	-0.832795	-0.374870
O99	O	-0.223557	-0.984575	-0.536388
C100	C	-0.143701	-1.064140	-0.543366
C101	C	-0.188015	-1.020032	-0.579285
H102	H	-0.114964	-1.092827	-0.578032
H103	H	-0.110759	-1.035423	-0.512728
H104	H	-0.172614	-1.096855	-0.512737
H105	H	-0.159154	-0.987307	-0.609947
H106	H	-0.220959	-1.048787	-0.609882
O107	O	-0.223566	-0.984633	-0.939901
C108	C	-0.215105	-1.069211	-0.866072
C109	C	-0.259359	-1.025072	-0.902026
H110	H	-0.244025	-1.101907	-0.835432
H111	H	-0.186324	-1.097911	-0.900695
H112	H	-0.182194	-1.040455	-0.835440
H113	H	-0.292308	-1.053779	-0.932659
H114	H	-0.288096	-0.996369	-0.867369
H115	H	-0.661858	-0.978155	-0.229615
H116	H	-0.229926	-0.666920	-0.229561
H117	H	-0.376238	-0.666933	-0.374676
H118	H	-0.312194	-0.346503	-0.404610
O119	O	-1.067895	-0.826455	-0.381151
C120	C	-1.088157	-0.719869	-0.411404
C121	C	-1.051995	-0.763985	-0.367380
H122	H	-1.075325	-0.669353	-0.400277
H123	H	-1.075177	-0.730791	-0.461948
H124	H	-1.140782	-0.726808	-0.404551
H125	H	-0.999361	-0.757071	-0.374177
H126	H	-1.065027	-0.753052	-0.316852
H127	H	-0.199984	-0.914548	-0.861908
O128	O	-0.667098	-0.826459	-0.381199
C129	C	-0.687166	-0.795977	-0.487737
C130	C	-0.650980	-0.840039	-0.443679
H131	H	-0.674138	-0.806932	-0.538261
H132	H	-0.739802	-0.802883	-0.480926
H133	H	-0.674314	-0.745460	-0.476635
H134	H	-0.663779	-0.890573	-0.454754
H135	H	-0.598353	-0.833080	-0.450498
H136	H	-0.542690	-0.832649	-0.374807
H137	H	-1.062695	-0.978311	-0.229691
O138	O	-0.223663	-0.984591	-0.665357
C139	C	-0.215171	-1.069219	-0.739273
C140	C	-0.259443	-1.025096	-0.703214
H141	H	-0.244082	-1.101987	-0.769879
H142	H	-0.182260	-1.040514	-0.769931
H143	H	-0.186391	-1.097849	-0.704663
H144	H	-0.288265	-0.996456	-0.737779
H145	H	-0.292313	-1.053837	-0.672546
H146	H	-0.376004	-0.832767	-0.660018
H147	H	-0.293882	-0.346298	-0.199803
O148	O	-0.382182	-0.826540	-1.068883
C149	C	-0.417825	-0.790986	-1.169657
C150	C	-0.373531	-0.835060	-1.133673
H151	H	-0.410837	-0.797850	-1.222046
H152	H	-0.468597	-0.801965	-1.156842
H153	H	-0.406802	-0.740475	-1.156716
H154	H	-0.384498	-0.885585	-1.146594
H155	H	-0.322773	-0.824027	-1.146491
H156	H	-0.376172	-0.263297	-0.374796
O157	O	-0.312985	-0.470274	-0.413501
C158	C	-0.323027	-0.463491	-0.525468
C159	C	-0.317490	-0.427464	-0.463368
H160	H	-0.326685	-0.428895	-0.565801
H161	H	-0.279739	-0.494158	-0.532194
H162	H	-0.366806	-0.494100	-0.524376
H163	H	-0.273737	-0.396821	-0.464416
H164	H	-0.360809	-0.396837	-0.456666
H165	H	-0.200024	-0.914548	-0.743196
H166	H	-0.405790	-0.896496	-0.861880
H167	H	-0.405817	-0.896322	-0.743175
H168	H	-0.376146	-0.144590	-0.374835
H169	H	-0.229872	-0.263280	-0.229671
H170	H	-0.229917	-0.548207	-0.229594
O171	O	-0.293135	-0.470042	-0.190841
C172	C	-0.283104	-0.463022	-0.078876
C173	C	-0.288622	-0.427127	-0.141000
H174	H	-0.279441	-0.428341	-0.038565
H175	H	-0.326404	-0.493586	-0.072137
H176	H	-0.239336	-0.493722	-0.079944
H177	H	-0.332365	-0.396393	-0.139976
H178	H	-0.245292	-0.396603	-0.147715
H179	H	-0.542592	-0.978105	-0.229589
