data_functionalizedCrystal
_audit_creation_method	'MofGen! by Chris Wilmer'
_symmetry_space_group_name_H-M	'P1'
_symmetry_Int_Tables_number	1
_symmetry_cell_setting	triclinic
loop_
_symmetry_equiv_pos_as_xyz
  x,y,z
_cell_length_a	17.038272
_cell_length_b	10.654541
_cell_length_c	9.130307
_cell_angle_alpha	90.003083
_cell_angle_beta	90.004095
_cell_angle_gamma	92.202257
loop_
_atom_site_label
_atom_site_type_symbol
_atom_site_fract_x
_atom_site_fract_y
_atom_site_fract_z
O1	O	1.038886	-0.272863	-0.121615
O2	O	0.811231	-0.268530	-0.121658
O3	O	0.930294	-0.088443	-0.121627
O4	O	0.919824	-0.452950	-0.121647
O5	O	0.930290	-0.088441	0.121972
O6	O	0.811227	-0.268528	0.121941
O7	O	1.038882	-0.272860	0.121984
Cu8	Cu	0.925054	-0.270694	0.144205
Cu9	Cu	0.925059	-0.270697	-0.143879
O10	O	0.919820	-0.452947	0.121952
C11	C	0.782079	-0.264588	0.000136
C12	C	0.695221	-0.252831	0.000119
C13	C	0.929524	-0.041572	0.000172
C14	C	0.927225	0.098085	0.000169
N15	N	0.925057	-0.270692	0.346827
C16	C	0.645709	-0.360775	0.000115
C17	C	0.564097	-0.349721	0.000135
C18	C	0.531998	-0.230721	0.000151
C19	C	0.581516	-0.122768	0.000160
C20	C	0.663127	-0.133824	0.000149
C21	C	0.286022	-0.191663	0.000192
C22	C	0.204405	-0.180615	0.000198
C23	C	0.186991	-0.407569	0.000176
C24	C	0.268604	-0.418614	0.000157
C25	C	0.318115	-0.310662	0.000174
C26	C	0.448577	-0.219418	0.000167
C27	C	0.401534	-0.321965	0.000168
C28	C	1.068034	-0.276802	0.000186
C29	C	1.154893	-0.288559	0.000193
C30	C	0.920590	-0.499818	0.000150
C31	C	0.922889	-0.639475	0.000144
C32	C	1.069596	0.112836	0.000214
C33	C	1.139699	0.185820	0.000240
C34	C	1.137534	0.317040	0.000235
C35	C	1.065259	0.375276	0.000200
C36	C	0.995156	0.302291	0.000174
C37	C	0.997329	0.171070	0.000184
C38	C	0.852786	0.287540	0.000118
C39	C	0.854949	0.156321	0.000134
C40	C	0.780511	0.345776	0.000083
C41	C	0.710407	0.272791	0.000068
C42	C	0.712575	0.141565	0.000075
C43	C	0.784847	0.083336	0.000108
N44	N	0.925063	-0.270689	-0.346502
C45	C	1.030530	-0.111278	0.346845
C46	C	1.083272	-0.031576	0.423521
C47	C	1.083280	-0.031576	0.576854
C48	C	1.030539	-0.111284	0.653516
C49	C	0.977797	-0.190987	0.576840
C50	C	0.977796	-0.190981	0.423503
C51	C	0.872321	-0.350392	0.576822
C52	C	0.872316	-0.350400	0.423489
C53	C	0.819580	-0.430100	0.653484
C54	C	0.766840	-0.509811	0.576808
C55	C	0.766835	-0.509809	0.423465
C56	C	0.819574	-0.430103	0.346813
H57	H	0.671837	-0.457678	0.000101
H58	H	0.523787	-0.437621	0.000130
Br59	Br	0.777571	0.523861	-0.000031
H60	H	0.294732	-0.515516	0.000128
Br61	Br	1.154852	0.076603	0.680919
H62	H	1.071366	0.005991	0.000238
H63	H	0.555375	-0.025876	0.000193
Br64	Br	0.119794	-0.554067	0.000155
H65	H	0.178274	-0.083706	0.000208
H66	H	0.427672	-0.418854	0.000164
H67	H	0.723883	-0.574707	0.361044
H68	H	0.819577	-0.430099	0.221961
Br69	Br	1.237782	0.106781	0.000272
H70	H	0.326324	-0.103760	0.000207
Br71	Br	1.232673	0.416096	0.000250
Br72	Br	0.405008	-0.057922	0.000186
Br73	Br	1.062322	0.553360	0.000078
H74	H	0.703439	-0.045924	0.000152
H75	H	1.126212	0.033325	0.361090
H76	H	0.651566	0.320218	0.000031
H77	H	0.655488	0.082147	0.000048
H78	H	0.786619	-0.023509	0.000123
Br79	Br	1.030538	-0.111292	0.138748
Br80	Br	1.030536	-0.111264	0.861613
H81	H	0.819585	-0.430091	0.778336
Br82	Br	0.695263	-0.617964	0.680850
