data_functionalizedCrystal
_audit_creation_method	'MofGen! by Chris Wilmer'
_symmetry_space_group_name_H-M	'P1'
_symmetry_Int_Tables_number	1
_symmetry_cell_setting	triclinic
loop_
_symmetry_equiv_pos_as_xyz
  x,y,z
_cell_length_a	19.805399
_cell_length_b	18.215407
_cell_length_c	18.215405
_cell_angle_alpha	89.968971
_cell_angle_beta	90.029242
_cell_angle_gamma	89.986462
loop_
_atom_site_label
_atom_site_type_symbol
_atom_site_fract_x
_atom_site_fract_y
_atom_site_fract_z
Zn1	Zn	-0.382603	1.125064	0.292881
Zn2	Zn	0.117397	1.625064	0.792881
Zn3	Zn	-0.269411	1.124975	0.415949
Zn4	Zn	0.230589	1.624975	0.915949
Zn5	Zn	-0.269439	1.001999	0.292914
Zn6	Zn	0.230561	1.501999	0.792914
Zn7	Zn	-0.382570	1.001963	0.415923
Zn8	Zn	0.117430	1.501963	0.915923
O9	O	-0.326006	1.063500	0.354417
O10	O	0.173994	1.563500	0.854417
O11	O	-0.367590	1.228037	0.309203
O12	O	0.132410	1.728037	0.809203
O13	O	-0.174698	1.108640	0.399653
O14	O	0.325302	1.608640	0.899653
O15	O	-0.284476	1.018377	0.189926
O16	O	0.215524	1.518377	0.689926
O17	O	-0.284428	1.227971	0.399621
O18	O	0.215572	1.727971	0.899621
O19	O	-0.367617	1.108792	0.189901
O20	O	0.132383	1.608792	0.689901
O21	O	-0.174719	1.018290	0.309260
O22	O	0.325281	1.518290	0.809260
O23	O	-0.284444	0.899010	0.309235
O24	O	0.215556	1.399010	0.809235
O25	O	-0.477291	1.018315	0.399577
O26	O	0.022709	1.518315	0.899577
O27	O	-0.367561	0.898983	0.399609
O28	O	0.132439	1.398983	0.899609
O29	O	-0.477315	1.108757	0.309178
O30	O	0.022685	1.608757	0.809178
O31	O	-0.284397	1.108604	0.518930
O32	O	0.215603	1.608604	1.018930
O33	O	-0.367534	1.018228	0.518911
O34	O	0.132466	1.518228	1.018911
C35	C	-0.325973	1.063423	0.545623
C36	C	0.174027	1.563423	1.045623
C37	C	-0.325982	1.063457	0.627422
C38	C	0.174018	1.563457	1.127422
C39	C	-0.326003	0.872294	0.354423
C40	C	0.173997	1.372294	0.854423
C41	C	-0.326017	0.790495	0.354444
C42	C	0.173983	1.290495	0.854444
C43	C	-0.502549	1.063542	0.354371
C44	C	-0.002549	1.563542	0.854371
C45	C	-0.577781	1.063559	0.354351
C46	C	-0.077781	1.563559	0.854351
C47	C	-0.613139	1.110653	0.307278
C48	C	-0.113139	1.610653	0.807278
C49	C	-0.683827	1.110661	0.307256
C50	C	-0.183827	1.610661	0.807256
C51	C	-0.719156	1.063577	0.354312
C52	C	-0.219156	1.563577	0.854312
C53	C	-0.683794	1.016478	0.401387
C54	C	-0.183794	1.516478	0.901387
C55	C	-0.613106	1.016467	0.401404
C56	C	-0.113106	1.516467	0.901404
C57	C	-0.968867	1.016519	0.401319
C58	C	-0.468867	1.516519	0.901319
C59	C	-1.039559	1.016535	0.401300
C60	C	-0.539559	1.516535	0.901300
C61	C	-1.039588	1.110713	0.307171
C62	C	-0.539588	1.610713	0.807171
C63	C	-0.968900	1.110703	0.307188
C64	C	-0.468900	1.610703	0.807188
C65	C	-0.933544	1.063601	0.354260
C66	C	-0.433544	1.563601	0.854260
C67	C	-0.856895	1.063592	0.354281
C68	C	-0.356895	1.563592	0.854281
C69	C	-0.795804	1.063589	0.354295
C70	C	-0.295804	1.563589	0.854295
C71	C	-0.150150	1.063501	0.354410
C72	C	0.349850	1.563501	0.854410
C73	C	-0.074918	1.063627	0.354222
C74	C	0.425082	1.563627	0.854222
C75	C	-0.326010	1.255453	0.354411
C76	C	0.173990	1.755453	0.854411
C77	C	-0.326011	1.337252	0.354408
C78	C	0.173989	1.837252	0.854408
C79	C	-0.369312	1.525481	0.307349
C80	C	0.130688	2.025481	0.807349
C81	C	-0.369315	1.602340	0.307356
C82	C	0.130685	2.102340	0.807356
C83	C	-0.282715	1.602260	0.401508
C84	C	0.217285	2.102260	0.901508
C85	C	-0.282716	1.525403	0.401504
C86	C	0.217284	2.025403	0.901504
C87	C	-0.326014	1.487016	0.354421
C88	C	0.173986	1.987016	0.854421
C89	C	-0.326015	1.640732	0.354431
C90	C	0.173985	2.140732	0.854431
C91	C	-0.326017	1.724065	0.354439
C92	C	0.173983	2.224065	0.854439
C93	C	-0.326012	1.403677	0.354414
C94	C	0.173988	1.903677	0.854414
C95	C	-0.326053	1.063598	0.162464
C96	C	0.173947	1.563598	0.662464
C97	C	-0.326074	1.063640	0.080665
C98	C	0.173926	1.563640	0.580665
C99	C	-0.282772	1.110626	0.815601
C100	C	0.217228	1.610626	1.315601
C101	C	-0.282789	1.110659	0.892460
C102	C	0.217211	1.610659	1.392460
C103	C	-0.369288	1.016468	0.892480
C104	C	0.130712	1.516468	1.392480
C105	C	-0.369275	1.016440	0.815623
C106	C	0.130725	1.516440	1.315623
C107	C	-0.326013	1.063518	0.777185
C108	C	0.173987	1.563518	1.277185
C109	C	-0.326043	1.063579	0.930902
C110	C	0.173957	1.563579	1.430902
C111	C	-0.326061	1.063614	1.014235
C112	C	0.173939	1.563614	1.514235
C113	C	-0.325996	1.063483	0.693847
C114	C	0.174004	1.563483	1.193847
H115	H	-0.584378	1.148997	0.268962
H116	H	-0.084378	1.648997	0.768962
Br117	Br	-0.920892	0.952594	0.465201
Br118	Br	-0.420892	1.452594	0.965201
H119	H	-0.404568	1.494228	0.269011
H120	H	0.095432	1.994228	0.769011
H121	H	-0.247456	1.494083	0.439840
H122	H	0.252544	1.994083	0.939840
Br123	Br	-0.920957	1.174608	0.243328
Br124	Br	-0.420957	1.674608	0.743328
Br125	Br	-0.427969	0.952508	0.763482
Br126	Br	0.072031	1.452508	1.263482
H127	H	-0.404573	1.633655	0.269027
H128	H	0.095427	2.133655	0.769027
Br129	Br	-0.223954	1.654362	0.465402
Br130	Br	0.276046	2.154362	0.965402
Br131	Br	-0.224060	1.174517	0.763438
Br132	Br	0.275940	1.674517	1.263438
H133	H	-0.247579	1.149021	0.923735
H134	H	0.252421	1.649021	1.423735
H135	H	-0.404510	0.978138	0.923785
H136	H	0.095490	1.478138	1.423785
H137	H	-0.712612	1.149012	0.268927
H138	H	-0.212612	1.649012	0.768927
Br139	Br	-1.087575	1.174638	0.243285
Br140	Br	-0.587575	1.674638	0.743285
Br141	Br	-0.731740	0.952573	0.465245
Br142	Br	-0.231740	1.452573	0.965245
H143	H	-0.584319	0.978111	0.439729
H144	H	-0.084319	1.478111	0.939729
Br145	Br	-1.087506	0.952633	0.465167
Br146	Br	-0.587506	1.452633	0.965167
