data_functionalizedCrystal
_audit_creation_method	'MofGen! by Chris Wilmer'
_symmetry_space_group_name_H-M	'P1'
_symmetry_Int_Tables_number	1
_symmetry_cell_setting	triclinic
loop_
_symmetry_equiv_pos_as_xyz
  x,y,z
_cell_length_a	18.050589
_cell_length_b	18.215407
_cell_length_c	18.215399
_cell_angle_alpha	89.986109
_cell_angle_beta	89.973988
_cell_angle_gamma	90.025680
loop_
_atom_site_label
_atom_site_type_symbol
_atom_site_fract_x
_atom_site_fract_y
_atom_site_fract_z
Zn1	Zn	-0.295700	1.125033	-0.416080
Zn2	Zn	-0.045700	1.375033	-0.166080
Zn3	Zn	0.204300	1.625033	0.083920
Zn4	Zn	0.454300	1.875033	0.333920
Zn5	Zn	-0.419900	1.124941	-0.293024
Zn6	Zn	-0.169900	1.374941	-0.043024
Zn7	Zn	0.080100	1.624941	0.206976
Zn8	Zn	0.330100	1.874941	0.456976
Zn9	Zn	-0.295723	1.001972	-0.293034
Zn10	Zn	-0.045723	1.251972	-0.043034
Zn11	Zn	0.204277	1.501972	0.206966
Zn12	Zn	0.454277	1.751972	0.456966
Zn13	Zn	-0.419847	1.001924	-0.416055
Zn14	Zn	-0.169847	1.251924	-0.166055
Zn15	Zn	0.080153	1.501924	0.083945
Zn16	Zn	0.330153	1.751924	0.333945
O17	O	-0.357792	1.063468	-0.354548
O18	O	-0.107792	1.313468	-0.104548
O19	O	0.142208	1.563468	0.145452
O20	O	0.392208	1.813468	0.395452
O21	O	-0.312188	1.228005	-0.399763
O22	O	-0.062188	1.478005	-0.149763
O23	O	0.187812	1.728005	0.100237
O24	O	0.437812	1.978005	0.350237
O25	O	-0.403459	1.108610	-0.190041
O26	O	-0.153459	1.358610	0.059959
O27	O	0.096541	1.608610	0.309959
O28	O	0.346541	1.858610	0.559959
O29	O	-0.191795	1.018355	-0.309372
O30	O	0.058205	1.268355	-0.059372
O31	O	0.308205	1.518355	0.190628
O32	O	0.558205	1.768355	0.440628
O33	O	-0.403437	1.227937	-0.309354
O34	O	-0.153437	1.477937	-0.059354
O35	O	0.096563	1.727937	0.190646
O36	O	0.346563	1.977937	0.440646
O37	O	-0.191778	1.108767	-0.399773
O38	O	0.058222	1.358767	-0.149773
O39	O	0.308222	1.608767	0.100227
O40	O	0.558222	1.858767	0.350227
O41	O	-0.312227	1.018265	-0.190048
O42	O	-0.062227	1.268265	0.059952
O43	O	0.187773	1.518265	0.309952
O44	O	0.437773	1.768265	0.559952
O45	O	-0.312176	0.898981	-0.309347
O46	O	-0.062176	1.148981	-0.059347
O47	O	0.187824	1.398981	0.190653
O48	O	0.437824	1.648981	0.440653
O49	O	-0.403347	1.018274	-0.519042
O50	O	-0.153347	1.268274	-0.269042
O51	O	0.096653	1.518274	-0.019042
O52	O	0.346653	1.768274	0.230958
O53	O	-0.403369	0.898946	-0.399729
O54	O	-0.153369	1.148946	-0.149729
O55	O	0.096631	1.398946	0.100271
O56	O	0.346631	1.648946	0.350271
O57	O	-0.312136	1.108721	-0.519061
O58	O	-0.062136	1.358721	-0.269061
O59	O	0.187864	1.608721	-0.019061
O60	O	0.437864	1.858721	0.230939
O61	O	-0.523818	1.108564	-0.309329
O62	O	-0.273818	1.358564	-0.059329
O63	O	-0.023818	1.608564	0.190671
O64	O	0.226182	1.858564	0.440671
O65	O	-0.523779	1.018184	-0.399719
O66	O	-0.273779	1.268184	-0.149719
O67	O	-0.023779	1.518184	0.100281
O68	O	0.226221	1.768184	0.350281
C69	C	-0.357770	0.872261	-0.354537
C70	C	-0.107770	1.122261	-0.104537
C71	C	0.142230	1.372261	0.145463
C72	C	0.392230	1.622261	0.395463
C73	C	-0.357778	0.790462	-0.354549
C74	C	-0.107778	1.040462	-0.104549
C75	C	0.142222	1.290462	0.145451
C76	C	0.392222	1.540462	0.395451
C77	C	-0.405355	0.525406	-0.401546
C78	C	-0.155355	0.775406	-0.151546
C79	C	0.094645	1.025406	0.098454
C80	C	0.344645	1.275406	0.348454
C81	C	-0.405348	0.602265	-0.401542
C82	C	-0.155348	0.852265	-0.151542
C83	C	0.094652	1.102265	0.098458
C84	C	0.344652	1.352265	0.348458
C85	C	-0.310247	0.602271	-0.307563
C86	C	-0.060247	0.852271	-0.057563
C87	C	0.189753	1.102271	0.192437
C88	C	0.439753	1.352271	0.442437
C89	C	-0.310257	0.525413	-0.307564
C90	C	-0.060257	0.775413	-0.057564
C91	C	0.189743	1.025413	0.192436
C92	C	0.439743	1.275413	0.442436
C93	C	-0.357810	0.486983	-0.354559
C94	C	-0.107810	0.736983	-0.104559
C95	C	0.142190	0.986983	0.145441
C96	C	0.392190	1.236983	0.395441
C97	C	-0.357793	0.640699	-0.354555
C98	C	-0.107793	0.890699	-0.104555
C99	C	0.142207	1.140699	0.145445
C100	C	0.392207	1.390699	0.395445
C101	C	-0.357786	0.724033	-0.354551
C102	C	-0.107786	0.974033	-0.104551
C103	C	0.142214	1.224033	0.145449
C104	C	0.392214	1.474033	0.395449
C105	C	-0.357819	0.403644	-0.354563
C106	C	-0.107819	0.653644	-0.104563
C107	C	0.142181	0.903644	0.145437
C108	C	0.392181	1.153644	0.395437
C109	C	-0.550745	1.063379	-0.354536
C110	C	-0.300745	1.313379	-0.104536
C111	C	-0.050745	1.563379	0.145464
C112	C	0.199255	1.813379	0.395464
C113	C	-0.633290	1.063408	-0.354555
C114	C	-0.383290	1.313408	-0.104555
C115	C	-0.133290	1.563408	0.145445
C116	C	0.116710	1.813408	0.395445
C117	C	-0.832747	1.014308	-0.403693
C118	C	-0.582747	1.264308	-0.153693
C119	C	-0.332747	1.514308	0.096307
C120	C	-0.082747	1.764308	0.346307
C121	C	-0.882189	0.996372	-0.336539
C122	C	-0.632189	1.246372	-0.086539
C123	C	-0.382189	1.496372	0.163461
C124	C	-0.132189	1.746372	0.413461
C125	C	-0.784421	1.063480	-0.354565
C126	C	-0.534421	1.313480	-0.104565
C127	C	-0.284421	1.563480	0.145435
C128	C	-0.034421	1.813480	0.395435
C129	C	-0.882060	1.081453	-0.421726
C130	C	-0.632060	1.331453	-0.171726
C131	C	-0.382060	1.581453	0.078274
C132	C	-0.132060	1.831453	0.328274
C133	C	-0.930406	1.063549	-0.354580
C134	C	-0.680406	1.313549	-0.104580
C135	C	-0.430406	1.563549	0.145420
C136	C	-0.180406	1.813549	0.395420
C137	C	-0.832776	1.045509	-0.287376
C138	C	-0.582776	1.295509	-0.037376
C139	C	-0.332776	1.545509	0.212624
C140	C	-0.082776	1.795509	0.462624
C141	C	-0.832642	1.130621	-0.372608
C142	C	-0.582642	1.380621	-0.122608
C143	C	-0.332642	1.630621	0.127392
C144	C	-0.082642	1.880621	0.377392
C145	C	-0.882062	1.112710	-0.305409
C146	C	-0.632062	1.362710	-0.055409
C147	C	-0.382062	1.612710	0.194591
C148	C	-0.132062	1.862710	0.444591
C149	C	-0.700322	1.063439	-0.354557
C150	C	-0.450322	1.313439	-0.104557
C151	C	-0.200322	1.563439	0.145443
C152	C	0.049678	1.813439	0.395443
C153	C	-1.014502	1.063590	-0.354580
C154	C	-0.764502	1.313590	-0.104580
C155	C	-0.514502	1.563590	0.145420
C156	C	-0.264502	1.813590	0.395420
C157	C	-0.164087	1.063577	-0.354577
C158	C	0.085913	1.313577	-0.104577
C159	C	0.335913	1.563577	0.145423
C160	C	0.585913	1.813577	0.395423
C161	C	-0.081541	1.063623	-0.354589
C162	C	0.168459	1.313623	-0.104589
C163	C	0.418459	1.563623	0.145411
C164	C	0.668459	1.813623	0.395411
C165	C	-0.357733	1.063502	-0.546501
C166	C	-0.107733	1.313502	-0.296501
C167	C	0.142267	1.563502	-0.046501
C168	C	0.392267	1.813502	0.203499
C169	C	-0.357708	1.063517	-0.628300
C170	C	-0.107708	1.313517	-0.378300
C171	C	0.142292	1.563517	-0.128300
C172	C	0.392292	1.813517	0.121700
C173	C	-0.357816	1.255420	-0.354560
C174	C	-0.107816	1.505420	-0.104560
C175	C	0.142184	1.755420	0.145440
C176	C	0.392184	2.005420	0.395440
C177	C	-0.357826	1.337219	-0.354565
C178	C	-0.107826	1.587219	-0.104565
C179	C	0.142174	1.837219	0.145435
C180	C	0.392174	2.087219	0.395435
C181	C	-0.310171	1.016514	-0.816499
C182	C	-0.060171	1.266514	-0.566499
C183	C	0.189829	1.516514	-0.316499
C184	C	0.439829	1.766514	-0.066499
C185	C	-0.310156	1.016527	-0.893358
C186	C	-0.060156	1.266527	-0.643358
C187	C	0.189844	1.516527	-0.393358
C188	C	0.439844	1.766527	-0.143358
C189	C	-0.405156	1.110608	-0.893339
C190	C	-0.155156	1.360608	-0.643339
C191	C	0.094844	1.610608	-0.393339
C192	C	0.344844	1.860608	-0.143339
C193	C	-0.405174	1.110591	-0.816482
C194	C	-0.155174	1.360591	-0.566482
C195	C	0.094826	1.610591	-0.316482
C196	C	0.344826	1.860591	-0.066482
C197	C	-0.357677	1.063545	-0.778064
C198	C	-0.107677	1.313545	-0.528064
C199	C	0.142323	1.563545	-0.278064
C200	C	0.392323	1.813545	-0.028064
C201	C	-0.357644	1.063575	-0.931780
C202	C	-0.107644	1.313575	-0.681780
C203	C	0.142356	1.563575	-0.431780
C204	C	0.392356	1.813575	-0.181780
C205	C	-0.357628	1.063589	-1.015114
C206	C	-0.107628	1.313589	-0.765114
C207	C	0.142372	1.563589	-0.515114
C208	C	0.392372	1.813589	-0.265114
C209	C	-0.357694	1.063530	-0.694725
C210	C	-0.107694	1.313530	-0.444725
C211	C	0.142306	1.563530	-0.194725
C212	C	0.392306	1.813530	0.055275
C213	C	-0.357798	1.063475	-0.163342
C214	C	-0.107798	1.313475	0.086658
C215	C	0.142202	1.563475	0.336658
C216	C	0.392202	1.813475	0.586658
C217	C	-0.357614	1.063603	-0.081543
C218	C	-0.107614	1.313603	0.168457
C219	C	0.142386	1.563603	0.418457
C220	C	0.392386	1.813603	0.668457
H221	H	-0.444076	0.494118	-0.439812
H222	H	-0.194076	0.744118	-0.189812
H223	H	0.055924	0.994118	0.060188
H224	H	0.305924	1.244118	0.310188
Br225	Br	-0.469880	0.654408	-0.465309
Br226	Br	-0.219880	0.904408	-0.215309
Br227	Br	0.030120	1.154408	0.034691
Br228	Br	0.280120	1.404408	0.284691
Br229	Br	-0.245711	0.654431	-0.243790
Br230	Br	0.004289	0.904431	0.006210
Br231	Br	0.254289	1.154431	0.256210
Br232	Br	0.504289	1.404431	0.506210
H233	H	-0.443826	1.148911	-0.924628
H234	H	-0.193826	1.398911	-0.674628
H235	H	0.056174	1.648911	-0.424628
H236	H	0.306174	1.898911	-0.174628
Br237	Br	-0.918459	0.901786	-0.311102
Br238	Br	-0.668459	1.151786	-0.061102
Br239	Br	-0.418459	1.401786	0.188898
Br240	Br	-0.168459	1.651786	0.438898
Br241	Br	-0.796848	1.020112	-0.192692
Br242	Br	-0.546848	1.270112	0.057308
Br243	Br	-0.296848	1.520112	0.307308
Br244	Br	-0.046848	1.770112	0.557308
Br245	Br	-0.469657	1.174417	-0.764314
Br246	Br	-0.219657	1.424417	-0.514314
Br247	Br	0.030343	1.674417	-0.264314
Br248	Br	0.280343	1.924417	-0.014314
Br249	Br	-0.918149	1.106742	-0.516379
Br250	Br	-0.668149	1.356742	-0.266379
Br251	Br	-0.418149	1.606742	-0.016379
Br252	Br	-0.168149	1.856742	0.233621
H253	H	-0.271540	0.494128	-0.269298
H254	H	-0.021540	0.744128	-0.019298
H255	H	0.228460	0.994128	0.230702
H256	H	0.478460	1.244128	0.480702
H257	H	-0.271496	0.978207	-0.785221
H258	H	-0.021496	1.228207	-0.535221
H259	H	0.228504	1.478207	-0.285221
H260	H	0.478504	1.728207	-0.035221
Br261	Br	-0.796652	0.944903	-0.472843
Br262	Br	-0.546652	1.194903	-0.222843
Br263	Br	-0.296652	1.444903	0.027157
Br264	Br	-0.046652	1.694903	0.277157
Br265	Br	-0.917927	1.182072	-0.236099
Br266	Br	-0.667927	1.432072	0.013901
Br267	Br	-0.417927	1.682072	0.263901
Br268	Br	-0.167927	1.932072	0.513901
H269	H	-0.810865	1.187355	-0.387887
H270	H	-0.560865	1.437355	-0.137887
H271	H	-0.310865	1.687355	0.112113
H272	H	-0.060865	1.937355	0.362113
H273	H	-0.271472	0.978229	-0.924649
H274	H	-0.021472	1.228229	-0.674649
H275	H	0.228528	1.478229	-0.424649
H276	H	0.478528	1.728229	-0.174649
