data_functionalizedCrystal
_audit_creation_method	'MofGen! by Chris Wilmer'
_symmetry_space_group_name_H-M	'P1'
_symmetry_Int_Tables_number	1
_symmetry_cell_setting	triclinic
loop_
_symmetry_equiv_pos_as_xyz
  x,y,z
_cell_length_a	19.121275
_cell_length_b	21.295418
_cell_length_c	19.121307
_cell_angle_alpha	87.572479
_cell_angle_beta	89.898049
_cell_angle_gamma	87.589984
loop_
_atom_site_label
_atom_site_type_symbol
_atom_site_fract_x
_atom_site_fract_y
_atom_site_fract_z
Zn1	Zn	1.088514	-0.305701	0.350644
Zn2	Zn	1.421848	0.027632	0.683978
Zn3	Zn	1.755181	0.360966	1.017311
Zn4	Zn	1.083455	-0.406271	0.233412
Zn5	Zn	1.416788	-0.072938	0.566746
Zn6	Zn	1.750122	0.260395	0.900079
Zn7	Zn	0.966316	-0.296736	0.238427
Zn8	Zn	1.299649	0.036598	0.571760
Zn9	Zn	1.632982	0.369931	0.905093
Zn10	Zn	0.971239	-0.406645	0.355612
Zn11	Zn	1.304572	-0.073312	0.688945
Zn12	Zn	1.637905	0.260022	1.022279
O13	O	1.027381	-0.353838	0.294524
O14	O	1.360714	-0.020505	0.627857
O15	O	1.694048	0.312828	0.961191
O16	O	1.185946	-0.322638	0.330916
O17	O	1.519280	0.010696	0.664249
O18	O	1.852613	0.344029	0.997583
O19	O	1.063739	-0.387833	0.135973
O20	O	1.397072	-0.054499	0.469306
O21	O	1.730405	0.278834	0.802640
O22	O	0.982583	-0.209838	0.253332
O23	O	1.315916	0.123495	0.586666
O24	O	1.649249	0.456828	0.919999
O25	O	1.182229	-0.396526	0.244786
O26	O	1.515563	-0.063193	0.578119
O27	O	1.848896	0.270141	0.911453
O28	O	1.072361	-0.216425	0.335778
O29	O	1.405695	0.116908	0.669112
O30	O	1.739028	0.450241	1.002445
O31	O	0.977677	-0.307357	0.139657
O32	O	1.311010	0.025976	0.472991
O33	O	1.644344	0.359309	0.806324
O34	O	0.868866	-0.307720	0.258149
O35	O	1.202199	0.025614	0.591482
O36	O	1.535532	0.358947	0.924816
O37	O	0.990973	-0.397163	0.453057
O38	O	1.324306	-0.063830	0.786391
O39	O	1.657640	0.269503	1.119724
O40	O	0.872482	-0.388470	0.344245
O41	O	1.205816	-0.055136	0.677578
O42	O	1.539149	0.278197	1.010911
O43	O	1.077135	-0.323000	0.449408
O44	O	1.410468	0.010333	0.782741
O45	O	1.743802	0.343667	1.116075
O46	O	1.068512	-0.494407	0.249603
O47	O	1.401846	-0.161074	0.582936
O48	O	1.735179	0.172259	0.916270
O49	O	0.986067	-0.494682	0.339382
O50	O	1.319401	-0.161349	0.672716
O51	O	1.652734	0.171985	1.006049
C52	C	0.845237	-0.347163	0.302280
C53	C	1.178570	-0.013830	0.635614
C54	C	1.511904	0.319504	0.968947
C55	C	0.767316	-0.344323	0.305615
C56	C	1.100649	-0.010990	0.638949
C57	C	1.433982	0.322344	0.972282
C58	C	1.027295	-0.517386	0.294502
C59	C	1.360628	-0.184052	0.627835
C60	C	1.693961	0.149281	0.961169
C61	C	1.027323	-0.587355	0.294513
C62	C	1.360656	-0.254022	0.627847
C63	C	1.693990	0.079311	0.961180
C64	C	0.728767	-0.381390	0.262272
C65	C	1.062100	-0.048057	0.595606
C66	C	1.395434	0.285276	0.928939
C67	C	0.655552	-0.378723	0.265415
C68	C	0.988885	-0.045389	0.598748
C69	C	1.322219	0.287944	0.932082
C70	C	0.620887	-0.338984	0.311898
C71	C	0.954220	-0.005650	0.645231
C72	C	1.287554	0.327683	0.978564
C73	C	0.659441	-0.301915	0.355246
C74	C	0.992774	0.031419	0.688579
C75	C	1.326107	0.364752	1.021912
C76	C	0.732655	-0.304586	0.352106
C77	C	1.065988	0.028747	0.685439
C78	C	1.399321	0.362080	1.018773
C79	C	0.399926	-0.328999	0.323628
C80	C	0.733259	0.004334	0.656961
C81	C	1.066593	0.337668	0.990294
C82	C	0.326707	-0.326329	0.326763
C83	C	0.660040	0.007005	0.660096
C84	C	0.993373	0.340338	0.993429
C85	C	0.322823	-0.403138	0.236932
C86	C	0.656156	-0.069804	0.570266
C87	C	0.989490	0.263529	0.903599
C88	C	0.396038	-0.405803	0.233794
C89	C	0.729372	-0.072470	0.567127
C90	C	1.062705	0.260864	0.900461
C91	C	0.434586	-0.368737	0.277144
C92	C	0.767919	-0.035403	0.610478
C93	C	1.101253	0.297930	0.943811
C94	C	0.546049	-0.336254	0.315110
C95	C	0.879383	-0.002921	0.648443
C96	C	1.212716	0.330413	0.981776
C97	C	0.509422	-0.371470	0.273935
C98	C	0.842756	-0.038136	0.607269
C99	C	1.176089	0.295197	0.940602
C100	C	1.074220	-1.090199	0.337540
C101	C	1.407553	-0.756866	0.670873
C102	C	1.740886	-0.423533	1.004206
C103	C	1.074199	-1.024456	0.337529
C104	C	1.407532	-0.691122	0.670863
C105	C	1.740865	-0.357789	1.004196
C106	C	1.027478	-0.988203	0.294564
C107	C	1.360812	-0.654869	0.627897
C108	C	1.694145	-0.321536	0.961230
C109	C	0.980788	-1.017698	0.251591
C110	C	1.314121	-0.684365	0.584925
C111	C	1.647454	-0.351032	0.918258
C112	C	0.980815	-1.083441	0.251598
C113	C	1.314148	-0.750108	0.584931
C114	C	1.647481	-0.416774	0.918264
N115	N	0.965843	-0.882569	0.291738
N116	N	1.299176	-0.549235	0.625072
N117	N	1.632510	-0.215902	0.958405
N118	N	0.965819	-0.820116	0.291736
N119	N	1.299153	-0.486783	0.625070
N120	N	1.632486	-0.153450	0.958403
C121	C	1.027395	-0.790124	0.294541
C122	C	1.360728	-0.456791	0.627874
C123	C	1.694061	-0.123457	0.961208
N124	N	1.088997	-0.824944	0.297361
N125	N	1.422330	-0.491610	0.630695
N126	N	1.755663	-0.158277	0.964028
N127	N	1.089019	-0.887402	0.297367
N128	N	1.422353	-0.554069	0.630700
N129	N	1.755686	-0.220735	0.964033
C130	C	1.027444	-0.916915	0.294552
C131	C	1.360777	-0.583582	0.627885
C132	C	1.694111	-0.250249	0.961218
C133	C	1.074063	-0.689349	0.337496
C134	C	1.407396	-0.356016	0.670829
C135	C	1.740730	-0.022682	1.004162
C136	C	1.074043	-0.623604	0.337480
C137	C	1.407376	-0.290270	0.670814
C138	C	1.740710	0.043063	1.004147
C139	C	0.980626	-0.616848	0.251546
C140	C	1.313959	-0.283515	0.584880
C141	C	1.647292	0.049819	0.918213
C142	C	0.980652	-0.682592	0.251558
C143	C	1.313985	-0.349258	0.584891
C144	C	1.647319	-0.015925	0.918224
C145	C	1.027370	-0.718838	0.294536
C146	C	1.360703	-0.385505	0.627869
C147	C	1.694036	-0.052172	0.961203
C148	C	1.210236	-0.360540	0.286738
C149	C	1.543570	-0.027207	0.620071
C150	C	1.876903	0.306127	0.953404
C151	C	1.288158	-0.363396	0.283419
C152	C	1.621492	-0.030063	0.616753
C153	C	1.954825	0.303271	0.950086
C154	C	1.035168	-0.361123	0.477381
C155	C	1.368501	-0.027790	0.810715
C156	C	1.701834	0.305543	1.144048
C157	C	1.038486	-0.364228	0.555304
C158	C	1.371819	-0.030895	0.888638
C159	C	1.705152	0.302439	1.221971
C160	C	1.027487	-0.189653	0.294561
C161	C	1.360821	0.143680	0.627894
C162	C	1.694154	0.477013	0.961227
C163	C	1.027533	-0.119688	0.294576
C164	C	1.360866	0.213646	0.627909
C165	C	1.694199	0.546979	0.961243
C166	C	1.059539	-0.383921	0.995923
C167	C	1.392873	-0.050588	1.329256
C168	C	1.726206	0.282745	1.662589
C169	C	1.056411	-0.381000	0.922706
C170	C	1.389745	-0.047667	1.256040
C171	C	1.723078	0.285667	1.589373
C172	C	1.010044	-0.337637	0.888024
C173	C	1.343377	-0.004304	1.221357
C174	C	1.676710	0.329029	1.554690
C175	C	0.966796	-0.297198	0.926562
C176	C	1.300130	0.036136	1.259895
C177	C	1.633463	0.369469	1.593228
C178	C	0.969921	-0.300123	0.999777
C179	C	1.303255	0.033211	1.333110
C180	C	1.636588	0.366544	1.666444
C181	C	0.998363	-0.326713	0.667057
C182	C	1.331697	0.006620	1.000391
C183	C	1.665030	0.339954	1.333724
C184	C	0.995243	-0.323790	0.593837
C185	C	1.328577	0.009543	0.927170
C186	C	1.661910	0.342877	1.260504
C187	C	1.084857	-0.407593	0.589987
C188	C	1.418191	-0.074260	0.923320
C189	C	1.751524	0.259073	1.256653
C190	C	1.087981	-0.410512	0.663203
C191	C	1.421315	-0.077178	0.996537
C192	C	1.754648	0.256155	1.329870
C193	C	1.044732	-0.370075	0.701735
C194	C	1.378065	-0.036741	1.035068
C195	C	1.711398	0.296592	1.368402
C196	C	1.006847	-0.334649	0.813185
C197	C	1.340180	-0.001316	1.146518
C198	C	1.673513	0.332018	1.479851
C199	C	1.047925	-0.373066	0.776573
C200	C	1.381259	-0.039733	1.109906
C201	C	1.714592	0.293600	1.443239
C202	C	1.019618	-0.346593	1.112378
C203	C	1.352952	-0.013260	1.445711
C204	C	1.686285	0.320073	1.779045
C205	C	1.016297	-0.343483	1.034455
C206	C	1.349630	-0.010150	1.367789
C207	C	1.682963	0.323183	1.701122
H208	H	0.756986	-0.413748	0.224418
H209	H	1.090319	-0.080414	0.557751
H210	H	1.423652	0.252919	0.891085
H211	H	0.942748	-0.988178	0.216607
H212	H	1.276082	-0.654845	0.549940
H213	H	1.609415	-0.321511	0.883273
O214	O	0.930231	-0.577757	0.205203
O215	O	1.263565	-0.244424	0.538536
O216	O	1.596898	0.088909	0.871870
H217	H	0.938052	-0.527087	0.212418
H218	H	1.271386	-0.193754	0.545752
H219	H	1.604719	0.139579	0.879085
O220	O	0.613971	-0.418694	0.218658
O221	O	0.947305	-0.085360	0.551991
O222	O	1.280638	0.247973	0.885325
H223	H	0.650376	-0.446767	0.185799
H224	H	0.983709	-0.113433	0.519133
H225	H	1.317043	0.219900	0.852466
H226	H	1.125738	-0.445823	0.691437
H227	H	1.459072	-0.112489	1.024770
H228	H	1.792405	0.220844	1.358103
O229	O	0.289310	-0.283468	0.376899
O230	O	0.622643	0.049866	0.710233
O231	O	0.955976	0.383199	1.043566
H232	H	0.305703	-0.297051	0.431299
H233	H	0.639036	0.036282	0.764633
H234	H	0.972369	0.369616	1.097966
H235	H	0.424258	-0.438162	0.195942
H236	H	0.757591	-0.104829	0.529275
H237	H	1.090924	0.228505	0.862608
O238	O	0.951716	-0.283094	0.708603
O239	O	1.285050	0.050239	1.041936
O240	O	1.618383	0.383573	1.375270
H241	H	0.917443	-0.311290	0.743464
H242	H	1.250776	0.022044	1.076797
H243	H	1.584110	0.355377	1.410131
H244	H	1.120068	-0.440516	0.558606
H245	H	1.453401	-0.107183	0.891940
H246	H	1.786735	0.226151	1.225273
H247	H	0.929040	-0.261894	0.898318
H248	H	1.262373	0.071440	1.231651
H249	H	1.595706	0.404773	1.564984
O250	O	0.441498	-0.289010	0.370369
O251	O	0.774832	0.044323	0.703702
O252	O	1.108165	0.377657	1.037035
H253	H	0.405091	-0.260921	0.403208
H254	H	0.738424	0.072412	0.736541
H255	H	1.071757	0.405746	1.069874
H256	H	0.934709	-0.267193	1.031149
H257	H	1.268043	0.066140	1.364483
H258	H	1.601376	0.399474	1.697816
H259	H	0.957486	-0.288475	0.565601
H260	H	1.290820	0.044859	0.898934
H261	H	1.624153	0.378192	1.232267
H262	H	1.097300	-0.419229	1.024156
H263	H	1.430633	-0.085896	1.357489
H264	H	1.763967	0.247438	1.690822
H265	H	1.112266	-1.119707	0.372530
H266	H	1.445600	-0.786374	0.705864
H267	H	1.778933	-0.453041	1.039197
H268	H	1.085676	-0.408373	0.804814
H269	H	1.419009	-0.075040	1.138148
H270	H	1.752343	0.258293	1.471481
O271	O	0.774232	-0.264603	0.398855
O272	O	1.107565	0.068730	0.732188
O273	O	1.440898	0.402063	1.065521
H274	H	0.830966	-0.273141	0.388868
H275	H	1.164299	0.060192	0.722201
H276	H	1.497632	0.393525	1.055535
H277	H	1.112219	-1.000442	0.372517
H278	H	1.445552	-0.667108	0.705850
H279	H	1.778885	-0.333775	1.039183
O280	O	1.124404	-0.591791	0.383817
O281	O	1.457737	-0.258458	0.717150
O282	O	1.791070	0.074875	1.050483
H283	H	1.158754	-0.561886	0.350939
H284	H	1.492087	-0.228553	0.684273
H285	H	1.825421	0.104780	1.017606
O286	O	0.281243	-0.443115	0.190181
O287	O	0.614577	-0.109781	0.523515
O288	O	0.947910	0.223552	0.856848
H289	H	0.317649	-0.471192	0.157328
H290	H	0.650982	-0.137859	0.490662
H291	H	0.984315	0.195474	0.823995
H292	H	0.942631	-0.706601	0.216575
H293	H	1.275965	-0.373268	0.549908
H294	H	1.609298	-0.039935	0.883242
O295	O	0.956845	-0.287876	0.775770
O296	O	1.290178	0.045458	1.109104
O297	O	1.623512	0.378791	1.442437
H298	H	0.902413	-0.297211	0.792158
H299	H	1.235746	0.036122	1.125492
H300	H	1.569079	0.369456	1.458825
O301	O	0.622057	-0.259047	0.405377
O302	O	0.955390	0.074287	0.738711
O303	O	1.288724	0.407620	1.072044
H304	H	0.564670	-0.263409	0.400273
H305	H	0.898003	0.069925	0.733606
H306	H	1.231337	0.403258	1.066939
H307	H	1.091615	-0.413936	0.891336
H308	H	1.424949	-0.080603	1.224670
H309	H	1.758282	0.252730	1.558003
H310	H	0.942795	-1.107450	0.216611
H311	H	1.276128	-0.774116	0.549944
H312	H	1.609462	-0.440783	0.883277
H313	H	0.537650	-0.403828	0.236093
H314	H	0.870983	-0.070495	0.569426
H315	H	1.204317	0.262839	0.902759
H316	H	0.517817	-0.303898	0.352955
H317	H	0.851150	0.029436	0.686289
H318	H	1.184483	0.362769	1.019622
O319	O	1.124456	-0.728451	0.383839
O320	O	1.457789	-0.395117	0.717172
O321	O	1.791123	-0.061784	1.050505
H322	H	1.156927	-0.696898	0.413704
H323	H	1.490260	-0.363564	0.747037
H324	H	1.823594	-0.030231	1.080371
