data_functionalizedCrystal
_audit_creation_method	'MofGen! by Chris Wilmer'
_symmetry_space_group_name_H-M	'P1'
_symmetry_Int_Tables_number	1
_symmetry_cell_setting	triclinic
loop_
_symmetry_equiv_pos_as_xyz
  x,y,z
_cell_length_a	11.169417
_cell_length_b	18.101395
_cell_length_c	11.169409
_cell_angle_alpha	90.035674
_cell_angle_beta	90.019824
_cell_angle_gamma	90.031983
loop_
_atom_site_label
_atom_site_type_symbol
_atom_site_fract_x
_atom_site_fract_y
_atom_site_fract_z
Zn1	Zn	1.834789	-0.294752	0.678515
Zn2	Zn	2.334789	0.205248	1.178515
Zn3	Zn	1.834606	-0.418619	0.477820
Zn4	Zn	2.334606	0.081381	0.977820
Zn5	Zn	1.634075	-0.294797	0.477849
Zn6	Zn	2.134075	0.205203	0.977849
Zn7	Zn	1.634010	-0.418558	0.678465
Zn8	Zn	2.134010	0.081442	1.178465
O9	O	1.734370	-0.356682	0.578162
O10	O	2.234370	0.143318	1.078162
O11	O	2.002715	-0.311190	0.651901
O12	O	2.502715	0.188810	1.151901
O13	O	1.807956	-0.402238	0.309874
O14	O	2.307956	0.097762	0.809874
O15	O	1.660804	-0.191159	0.504501
O16	O	2.160804	0.308841	1.004501
O17	O	2.002580	-0.402194	0.504451
O18	O	2.502580	0.097806	1.004451
O19	O	1.808268	-0.191125	0.651929
O20	O	2.308268	0.308875	1.151929
O21	O	1.660626	-0.311267	0.309896
O22	O	2.160626	0.188733	0.809896
O23	O	1.466117	-0.311208	0.504453
O24	O	1.966117	0.188792	1.004453
O25	O	1.660693	-0.402091	0.846421
O26	O	2.160693	0.097909	1.346421
O27	O	1.466069	-0.402135	0.651844
O28	O	1.966069	0.097865	1.151844
O29	O	1.808205	-0.311131	0.846458
O30	O	2.308205	0.188869	1.346458
O31	O	1.807892	-0.522244	0.504403
O32	O	2.307892	-0.022244	1.004403
O33	O	1.660515	-0.522199	0.651816
O34	O	2.160515	-0.022199	1.151816
C35	C	1.422545	-0.356670	0.578147
C36	C	1.922545	0.143330	1.078147
C37	C	1.289145	-0.356684	0.578169
C38	C	1.789145	0.143316	1.078169
C39	C	1.734209	-0.549092	0.578127
C40	C	2.234209	-0.049092	1.078127
C41	C	1.734250	-0.631406	0.578152
C42	C	2.234250	-0.131406	1.078152
C43	C	1.734514	-0.930497	0.578217
C44	C	2.234514	-0.430497	1.078217
C45	C	1.642003	-0.899175	0.671195
C46	C	2.142003	-0.399175	1.171195
C47	C	1.641564	-0.813557	0.670904
C48	C	2.141564	-0.313557	1.170904
C49	C	1.734383	-0.782115	0.578186
C50	C	2.234383	-0.282115	1.078186
C51	C	1.700132	-0.813278	0.451699
C52	C	2.200132	-0.313278	0.951699
C53	C	1.699535	-0.898923	0.452255
C54	C	2.199535	-0.398923	0.952255
C55	C	1.861478	-0.898837	0.610612
C56	C	2.361478	-0.398837	1.110612
C57	C	1.860732	-0.813186	0.613386
C58	C	2.360732	-0.313186	1.113386
C59	C	1.734311	-0.698255	0.578160
C60	C	2.234311	-0.198255	1.078160
C61	C	1.734583	-1.014357	0.578234
C62	C	2.234583	-0.514357	1.078234
C63	C	2.047412	-0.356694	0.578178
C64	C	2.547412	0.143306	1.078178
C65	C	2.180812	-0.356699	0.578185
C66	C	2.680812	0.143301	1.078185
C67	C	1.734462	-0.356599	0.891205
C68	C	2.234462	0.143401	1.391205
C69	C	1.734501	-0.356564	1.024605
C70	C	2.234501	0.143436	1.524605
C71	C	1.734564	-0.163520	0.578224
C72	C	2.234564	0.336480	1.078224
C73	C	1.734647	-0.081206	0.578250
C74	C	2.234647	0.418794	1.078250
C75	C	1.734347	-0.356710	0.266338
C76	C	2.234347	0.143290	0.766338
C77	C	1.734541	-0.356537	0.132938
C78	C	2.234541	0.143463	0.632938
H79	H	1.662994	-0.792484	0.764693
H80	H	2.162994	-0.292484	1.264693
H81	H	1.930402	-0.919092	0.542892
H82	H	2.430402	-0.419092	1.042892
N83	N	1.668582	-0.924942	0.789243
N84	N	2.168582	-0.424942	1.289243
N85	N	1.604367	-0.905711	0.875419
N86	N	2.104367	-0.405711	1.375419
H87	H	1.623137	-0.923914	0.958794
H88	H	2.123137	-0.423914	1.458794
H89	H	1.548466	-0.920764	0.650008
H90	H	2.048466	-0.420764	1.150008
N91	N	1.951780	-0.786351	0.534611
N92	N	2.451780	-0.286351	1.034611
N93	N	2.012635	-0.830775	0.474316
N94	N	2.512635	-0.330775	0.974316
H95	H	2.076938	-0.811827	0.418671
H96	H	2.576938	-0.311827	0.918671
H97	H	1.547455	-0.793137	0.649447
H98	H	2.047455	-0.293137	1.149447
H99	H	1.606724	-0.918969	0.424813
H100	H	2.106724	-0.418969	0.924813
N101	N	1.780381	-0.924931	0.362383
N102	N	2.280381	-0.424931	0.862383
N103	N	1.867435	-0.964514	0.391082
N104	N	2.367435	-0.464514	0.891082
H105	H	1.924525	-0.982878	0.327604
H106	H	2.424525	-0.482878	0.827604
N107	N	1.584936	-0.786451	0.416663
N108	N	2.084936	-0.286451	0.916663
N109	N	1.527865	-0.744390	0.484629
N110	N	2.027865	-0.244390	0.984629
H111	H	1.446506	-0.725443	0.459890
H112	H	1.946506	-0.225443	0.959890
H113	H	1.765392	-0.792913	0.380534
H114	H	2.265392	-0.292913	0.880534
N115	N	1.900644	-0.925866	0.724343
N116	N	2.400644	-0.425866	1.224343
N117	N	1.835447	-0.968797	0.782908
N118	N	2.335447	-0.468797	1.282908
H119	H	1.863096	-0.987889	0.863234
H120	H	2.363096	-0.487889	1.363234
N121	N	1.893125	-0.787627	0.730163
N122	N	2.393125	-0.287627	1.230163
N123	N	1.823483	-0.746678	0.787319
N124	N	2.323483	-0.246678	1.287319
H125	H	1.846355	-0.728624	0.869796
H126	H	2.346355	-0.228624	1.369796
