data_functionalizedCrystal
_audit_creation_method	'MofGen! by Chris Wilmer'
_symmetry_space_group_name_H-M	'P1'
_symmetry_Int_Tables_number	1
_symmetry_cell_setting	triclinic
loop_
_symmetry_equiv_pos_as_xyz
  x,y,z
_cell_length_a	17.699077
_cell_length_b	19.188925
_cell_length_c	16.776229
_cell_angle_alpha	89.993696
_cell_angle_beta	89.993415
_cell_angle_gamma	83.211563
loop_
_atom_site_label
_atom_site_type_symbol
_atom_site_fract_x
_atom_site_fract_y
_atom_site_fract_z
O1	O	1.003963	0.088275	-0.066277
O2	O	1.337297	0.421608	0.267056
O3	O	1.670630	0.754941	0.600390
O4	O	0.783569	0.099766	-0.066281
O5	O	1.116902	0.433100	0.267053
O6	O	1.450235	0.766433	0.600386
O7	O	0.900128	-0.007628	-0.066274
O8	O	1.233462	0.325705	0.267059
O9	O	1.566795	0.659038	0.600392
O10	O	0.887404	0.195669	-0.066284
O11	O	1.220737	0.529003	0.267050
O12	O	1.554070	0.862336	0.600383
O13	O	0.900113	-0.007635	0.066302
O14	O	1.233446	0.325698	0.399636
O15	O	1.566780	0.659032	0.732969
O16	O	0.783553	0.099760	0.066296
O17	O	1.116887	0.433093	0.399629
O18	O	1.450220	0.766426	0.732962
O19	O	1.003948	0.088268	0.066300
O20	O	1.337281	0.421601	0.399633
O21	O	1.670614	0.754935	0.732966
Zn22	Zn	0.893748	0.094013	0.087347
Zn23	Zn	1.227082	0.427346	0.420680
Zn24	Zn	1.560415	0.760680	0.754014
Zn25	Zn	0.893768	0.094022	-0.087328
Zn26	Zn	1.227102	0.427355	0.246005
Zn27	Zn	1.560435	0.760688	0.579338
O28	O	0.887388	0.195663	0.066293
O29	O	1.220722	0.528996	0.399626
O30	O	1.554055	0.862330	0.732960
C31	C	0.755365	0.099352	0.000007
C32	C	1.088698	0.432685	0.333340
C33	C	1.422031	0.766019	0.666674
C34	C	0.671348	0.098119	0.000006
C35	C	1.004681	0.431452	0.333339
C36	C	1.338015	0.764786	0.666672
C37	C	0.631873	0.097534	0.072274
C38	C	0.965206	0.430868	0.405607
C39	C	1.298540	0.764201	0.738941
C40	C	0.552932	0.096364	0.072275
C41	C	0.886265	0.429698	0.405608
C42	C	1.219599	0.763031	0.738941
C43	C	0.513467	0.095784	0.000007
C44	C	0.846800	0.429117	0.333340
C45	C	1.180133	0.762451	0.666673
C46	C	0.552948	0.096367	-0.072267
C47	C	0.886281	0.429700	0.261066
C48	C	1.219614	0.763033	0.594399
C49	C	0.631888	0.097532	-0.072267
C50	C	0.965221	0.430865	0.261066
C51	C	1.298554	0.764198	0.594399
C52	C	0.234591	0.091668	-0.072269
C53	C	0.567924	0.425002	0.261065
C54	C	0.901257	0.758335	0.594398
C55	C	0.155644	0.090505	-0.072263
C56	C	0.488978	0.423839	0.261070
C57	C	0.822311	0.757172	0.594404
C58	C	0.155635	0.090501	0.072274
C59	C	0.488968	0.423834	0.405607
C60	C	0.822301	0.757168	0.738940
C61	C	0.234575	0.091666	0.072274
C62	C	0.567908	0.424999	0.405607
C63	C	0.901242	0.758332	0.738940
C64	C	0.274049	0.092245	0.000000
C65	C	0.607383	0.425578	0.333333
C66	C	0.940716	0.758911	0.666667
C67	C	0.359646	0.093512	0.000000
C68	C	0.692980	0.426845	0.333333
C69	C	1.026313	0.760178	0.666667
C70	C	0.427870	0.094522	0.000006
C71	C	0.761204	0.427855	0.333339
C72	C	1.094537	0.761189	0.666672
C73	C	0.899709	-0.033643	0.000013
C74	C	1.233043	0.299690	0.333347
C75	C	1.566376	0.633024	0.666680
C76	C	0.898474	-0.111149	0.000012
C77	C	1.231808	0.222184	0.333345
C78	C	1.565141	0.555517	0.666678
C79	C	0.958599	-0.672853	-0.000007
C80	C	1.291932	-0.339520	0.333326
C81	C	1.625265	-0.006187	0.666659
C82	C	0.959766	-0.600029	-0.000000
C83	C	1.293099	-0.266695	0.333333
C84	C	1.626432	0.066638	0.666667
C85	C	0.891372	-0.555170	-0.000002
C86	C	1.224706	-0.221836	0.333332
C87	C	1.558039	0.111497	0.666665
C88	C	0.821807	-0.583140	0.000010
C89	C	1.155140	-0.249807	0.333344
C90	C	1.488473	0.083526	0.666677
C91	C	0.820642	-0.655964	0.000011
C92	C	1.153975	-0.322630	0.333344
C93	C	1.487308	0.010703	0.666678
N94	N	0.841863	-0.434541	-0.045128
N95	N	1.175197	-0.101208	0.288205
N96	N	1.508530	0.232125	0.621539
N97	N	0.842975	-0.365363	-0.045130
N98	N	1.176308	-0.032030	0.288203
N99	N	1.509641	0.301304	0.621536
C100	C	0.894878	-0.335757	-0.000002
C101	C	1.228211	-0.002423	0.333331
C102	C	1.561545	0.330910	0.666665
N103	N	0.945639	-0.377944	0.045119
N104	N	1.278973	-0.044610	0.378452
N105	N	1.612306	0.288723	0.711786
N106	N	0.944530	-0.447129	0.045118
N107	N	1.277863	-0.113795	0.378451
N108	N	1.611197	0.219538	0.711784
C109	C	0.892628	-0.476204	-0.000002
C110	C	1.225961	-0.142871	0.333332
C111	C	1.559294	0.190463	0.666665
C112	C	0.965704	-0.228830	-0.000000
C113	C	1.299038	0.104504	0.333333
C114	C	1.632371	0.437837	0.666666
C115	C	0.966868	-0.156003	0.000012
C116	C	1.300202	0.177330	0.333345
C117	C	1.633535	0.510663	0.666679
C118	C	0.828908	-0.139116	0.000014
C119	C	1.162241	0.194217	0.333348
C120	C	1.495574	0.527551	0.666681
C121	C	0.827746	-0.211941	0.000010
C122	C	1.161079	0.121392	0.333343
C123	C	1.494412	0.454726	0.666677
C124	C	0.896146	-0.256794	-0.000001
C125	C	1.229479	0.076540	0.333332
C126	C	1.562813	0.409873	0.666666
C127	C	1.032152	0.088682	0.000010
C128	C	1.365485	0.422016	0.333343
C129	C	1.698819	0.755349	0.666677
C130	C	1.116169	0.089916	0.000006
C131	C	1.449502	0.423249	0.333339
C132	C	1.782835	0.756582	0.666673
C133	C	0.887807	0.221678	0.000004
C134	C	1.221141	0.555011	0.333337
C135	C	1.554474	0.888344	0.666670
C136	C	0.889042	0.299184	-0.000000
C137	C	1.222376	0.632517	0.333333
C138	C	1.555709	0.965850	0.666667
N139	N	0.893740	0.094007	0.206558
N140	N	1.227073	0.427340	0.539892
N141	N	1.560407	0.760673	0.873225
N142	N	0.893783	0.094022	-0.206540
N143	N	1.227116	0.427356	0.126794
N144	N	1.560449	0.760689	0.460127
C145	C	0.945368	0.046472	0.248278
C146	C	1.278701	0.379805	0.581612
C147	C	1.612035	0.713138	0.914945
C148	C	0.945372	0.046471	0.331730
C149	C	1.278706	0.379804	0.665064
C150	C	1.612039	0.713138	0.998397
C151	C	0.893751	0.094009	0.373461
C152	C	1.227085	0.427343	0.706794
C153	C	1.560418	0.760676	1.040128
C154	C	0.842118	0.141546	0.331735
C155	C	1.175451	0.474880	0.665069
C156	C	1.508784	0.808213	0.998402
C157	C	0.842110	0.141543	0.248285
C158	C	1.175444	0.474877	0.581618
C159	C	1.508777	0.808210	0.914951
C160	C	0.842145	0.141560	0.668282
C161	C	1.175478	0.474894	1.001616
C162	C	1.508812	0.808227	1.334949
C163	C	0.842158	0.141561	0.751739
C164	C	1.175491	0.474895	1.085072
C165	C	1.508824	0.808228	1.418406
C166	C	0.945407	0.046488	0.751728
C167	C	1.278740	0.379821	1.085062
C168	C	1.612073	0.713155	1.418395
C169	C	0.945400	0.046485	0.668278
C170	C	1.278733	0.379818	1.001611
C171	C	1.612066	0.713151	1.334944
C172	C	0.893764	0.094019	0.626559
C173	C	1.227097	0.427352	0.959892
C174	C	1.560430	0.760686	1.293226
C175	C	0.893759	0.094018	0.536071
C176	C	1.227092	0.427352	0.869404
C177	C	1.560425	0.760685	1.202737
C178	C	0.893759	0.094014	0.463948
C179	C	1.227093	0.427347	0.797281
C180	C	1.560426	0.760681	1.130615
H181	H	0.123486	0.090026	0.131122
H182	H	0.456819	0.423360	0.464455
H183	H	0.790152	0.756693	0.797789
O184	O	1.001040	-0.004816	0.203282
O185	O	1.334373	0.328517	0.536615
O186	O	1.667707	0.661850	0.869948
H187	H	0.969282	-0.038710	0.165279
H188	H	1.302616	0.294624	0.498613
H189	H	1.635949	0.627957	0.831946
H190	H	1.016408	-0.577257	-0.000006
H191	H	1.349742	-0.243923	0.333327
H192	H	1.683075	0.089410	0.666661
O193	O	0.786485	0.192850	0.796745
O194	O	1.119819	0.526183	1.130078
O195	O	1.453152	0.859516	1.463411
H196	H	0.727511	0.184025	0.780757
H197	H	1.060844	0.517358	1.114090
H198	H	1.394177	0.850692	1.447423
O199	O	0.113077	0.089856	-0.150212
O200	O	0.446410	0.423189	0.183121
O201	O	0.779743	0.756522	0.516454
H202	H	0.153789	0.090440	-0.200470
H203	H	0.487122	0.423774	0.132864
H204	H	0.820456	0.757107	0.466197
O205	O	1.041897	-0.125844	0.000008
O206	O	1.375230	0.207489	0.333341
O207	O	1.708563	0.540823	0.666675
H208	H	1.031218	-0.067670	0.000020
H209	H	1.364551	0.265664	0.333354
H210	H	1.697884	0.598997	0.666687
O211	O	0.674435	0.098162	0.150223
O212	O	1.007769	0.431496	0.483556
O213	O	1.341102	0.764829	0.816889
H214	H	0.703484	0.146267	0.153677
H215	H	1.036817	0.479600	0.487011
H216	H	1.370151	0.812934	0.820344
H217	H	0.771105	-0.234708	0.000010
H218	H	1.104439	0.098625	0.333343
H219	H	1.437772	0.431959	0.666677
O220	O	1.032373	-0.721226	-0.000013
O221	O	1.365707	-0.387893	0.333320
O222	O	1.699040	-0.054559	0.666654
H223	H	1.019881	-0.776564	-0.000018
H224	H	1.353214	-0.443231	0.333316
H225	H	1.686547	-0.109897	0.666649
O226	O	0.277162	0.092300	-0.150216
O227	O	0.610495	0.425633	0.183117
O228	O	0.943829	0.758967	0.516450
H229	H	0.236453	0.091710	-0.200466
H230	H	0.569787	0.425043	0.132867
H231	H	0.903120	0.758376	0.466201
H232	H	0.766121	-0.546611	0.000012
H233	H	1.099454	-0.213278	0.333345
H234	H	1.432787	0.120055	0.666678
O235	O	0.786462	0.192833	0.623290
O236	O	1.119795	0.526166	0.956623
O237	O	1.453129	0.859500	1.289956
H238	H	0.750577	0.225894	0.666330
H239	H	1.083910	0.559228	0.999664
H240	H	1.417243	0.892561	1.332997
H241	H	0.520809	0.095889	-0.131109
H242	H	0.854143	0.429223	0.202224
H243	H	1.187476	0.762556	0.535557
O244	O	0.745618	-0.686131	0.000014
O245	O	1.078951	-0.352797	0.333347
O246	O	1.412285	-0.019464	0.666680
H247	H	0.698253	-0.642706	0.000012
H248	H	1.031586	-0.309372	0.333345
H249	H	1.364920	0.023961	0.666678
O250	O	1.039473	-0.277214	0.000003
O251	O	1.372807	0.056119	0.333337
O252	O	1.706140	0.389452	0.666670
H253	H	1.088038	-0.245532	0.000014
H254	H	1.421372	0.087801	0.333348
H255	H	1.754705	0.421135	0.666681
H256	H	0.987411	0.007764	0.365698
H257	H	1.320745	0.341098	0.699032
H258	H	1.654078	0.674431	1.032365
O259	O	0.674470	0.098167	-0.150213
O260	O	1.007803	0.431500	0.183120
O261	O	1.341137	0.764833	0.516454
H262	H	0.633766	0.097575	-0.200467
H263	H	0.967099	0.430908	0.132867
H264	H	1.300432	0.764241	0.466200
H265	H	0.520797	0.095877	0.131123
H266	H	0.854130	0.429210	0.464456
H267	H	1.187463	0.762543	0.797790
O268	O	0.786430	0.192816	0.203280
O269	O	1.119763	0.526149	0.536613
O270	O	1.453097	0.859482	0.869947
H271	H	0.750541	0.225878	0.246316
H272	H	1.083874	0.559211	0.579650
H273	H	1.417207	0.892545	0.912983
O274	O	0.755136	-0.090744	0.000012
O275	O	1.088470	0.242589	0.333345
O276	O	1.421803	0.575923	0.666679
H277	H	0.767631	-0.035406	0.000006
H278	H	1.100964	0.297927	0.333340
H279	H	1.434297	0.631260	0.666673
H280	H	0.987436	0.007777	0.634303
H281	H	1.320770	0.341110	0.967636
H282	H	1.654103	0.674444	1.300970
H283	H	0.266703	0.092142	0.131122
H284	H	0.600036	0.425475	0.464455
H285	H	0.933370	0.758808	0.797788
O286	O	1.001097	-0.004791	0.796723
O287	O	1.334430	0.328542	1.130056
O288	O	1.667763	0.661876	1.463390
H289	H	0.992427	0.003189	0.861762
H290	H	1.325760	0.336522	1.195096
H291	H	1.659093	0.669855	1.528429
H292	H	0.800083	0.180251	0.365717
H293	H	1.133416	0.513584	0.699051
H294	H	1.466750	0.846917	1.032384
