data_functionalizedCrystal
_audit_creation_method	'MofGen! by Chris Wilmer'
_symmetry_space_group_name_H-M	'P1'
_symmetry_Int_Tables_number	1
_symmetry_cell_setting	triclinic
loop_
_symmetry_equiv_pos_as_xyz
  x,y,z
_cell_length_a	8.559649
_cell_length_b	10.723024
_cell_length_c	7.088929
_cell_angle_alpha	83.718137
_cell_angle_beta	95.325015
_cell_angle_gamma	77.123267
loop_
_atom_site_label
_atom_site_type_symbol
_atom_site_fract_x
_atom_site_fract_y
_atom_site_fract_z
O1	O	2.103422	-0.027906	-0.158957
O2	O	1.638923	0.036470	-0.158966
O3	O	1.881888	-0.178393	-0.158954
O4	O	1.860458	0.186957	-0.158969
O5	O	1.914357	-0.207166	0.159022
O6	O	1.671392	0.007698	0.159011
O7	O	2.135892	-0.056678	0.159020
Cu8	Cu	1.906607	-0.027117	0.188049
Cu9	Cu	1.868208	0.006909	-0.187995
O10	O	1.892927	0.158185	0.159008
C11	C	1.595681	0.026962	0.000021
C12	C	1.418460	0.041484	0.000018
C13	C	1.896563	-0.239119	0.000032
C14	C	1.891897	-0.377194	0.000025
C15	C	2.027846	-0.466115	0.000025
C16	C	2.023026	-0.608824	0.000018
C17	C	2.179133	-0.047170	0.000028
C18	C	2.356353	-0.061691	0.000019
C19	C	1.878252	0.218911	0.000017
C20	C	1.882917	0.356987	0.000012
N21	N	1.933626	-0.051052	0.452538
N22	N	1.841202	0.030832	-0.452485
H23	H	2.147807	-0.436593	0.000039
H24	H	1.745415	0.115688	0.465864
H25	H	1.438759	-0.161133	0.000013
H26	H	1.766528	-0.566656	0.000025
H27	H	1.336043	0.140934	0.000003
C28	C	2.178316	-0.710475	-0.000283
C29	C	2.250373	-0.681558	-0.163849
C30	C	2.393443	-0.775163	-0.164179
H31	H	2.154668	-0.792914	-0.000385
H32	H	2.250153	-0.711131	0.110547
H33	H	2.178551	-0.680915	-0.274649
H34	H	2.274060	-0.599135	-0.163781
H35	H	2.465281	-0.775819	-0.053350
H36	H	2.369780	-0.857596	-0.164276
H37	H	2.442360	-0.755549	-0.275146
C38	C	1.732016	-0.416700	-0.000282
C39	C	1.704453	-0.474749	-0.163856
C40	C	1.557194	-0.511168	-0.164192
H41	H	1.647198	-0.342513	-0.000379
H42	H	1.735653	-0.476238	0.110542
H43	H	1.700803	-0.415214	-0.274651
H44	H	1.789233	-0.548948	-0.163794
H45	H	1.560831	-0.570707	-0.053368
H46	H	1.472388	-0.436976	-0.164284
H47	H	1.538480	-0.550569	-0.275165
H48	H	2.029431	-0.135906	0.534199
