data_functionalizedCrystal
_audit_creation_method	'MofGen! by Chris Wilmer'
_symmetry_space_group_name_H-M	'P1'
_symmetry_Int_Tables_number	1
_symmetry_cell_setting	triclinic
loop_
_symmetry_equiv_pos_as_xyz
  x,y,z
_cell_length_a	14.044220
_cell_length_b	14.044220
_cell_length_c	11.295483
_cell_angle_alpha	94.468632
_cell_angle_beta	85.525227
_cell_angle_gamma	93.188878
loop_
_atom_site_label
_atom_site_type_symbol
_atom_site_fract_x
_atom_site_fract_y
_atom_site_fract_z
O1	O	1.283048	0.224289	-0.098902
O2	O	1.616381	0.557622	0.234431
O3	O	1.949714	0.890956	0.567764
O4	O	1.006378	0.215982	-0.098932
O5	O	1.339711	0.549315	0.234401
O6	O	1.673045	0.882648	0.567734
O7	O	1.140559	0.081800	-0.098906
O8	O	1.473893	0.415134	0.234427
O9	O	1.807226	0.748467	0.567761
O10	O	1.148866	0.358470	-0.098929
O11	O	1.482200	0.691804	0.234405
O12	O	1.815533	1.025137	0.567738
O13	O	1.128772	0.093566	0.099143
O14	O	1.462106	0.426899	0.432476
O15	O	1.795439	0.760233	0.765809
O16	O	0.994591	0.227747	0.099116
O17	O	1.327924	0.561081	0.432450
O18	O	1.661258	0.894414	0.765783
O19	O	1.271261	0.236055	0.099146
O20	O	1.604594	0.569388	0.432480
O21	O	1.937927	0.902721	0.765813
Cu22	Cu	1.131850	0.232975	0.117215
Cu23	Cu	1.465183	0.566309	0.450548
Cu24	Cu	1.798516	0.899642	0.783881
Cu25	Cu	1.145789	0.219061	-0.117001
Cu26	Cu	1.479122	0.552394	0.216333
Cu27	Cu	1.812456	0.885728	0.549666
O28	O	1.137079	0.370236	0.099120
O29	O	1.470413	0.703569	0.432453
O30	O	1.803746	1.036903	0.765787
C31	C	0.964863	0.218229	0.000088
C32	C	1.298196	0.551562	0.333422
C33	C	1.631530	0.884895	0.666755
C34	C	0.858721	0.207383	0.000077
C35	C	1.192054	0.540717	0.333411
C36	C	1.525387	0.874050	0.666744
C37	C	1.131030	0.052061	0.000118
C38	C	1.464364	0.385395	0.333452
C39	C	1.797697	0.718728	0.666785
C40	C	1.120186	-0.054081	0.000119
C41	C	1.453519	0.279252	0.333452
C42	C	1.786852	0.612585	0.666785
C43	C	0.664382	0.187559	0.000102
C44	C	0.997715	0.520892	0.333436
C45	C	1.331048	0.854225	0.666769
C46	C	0.613252	0.264473	0.000101
C47	C	0.946585	0.597806	0.333434
C48	C	1.279918	0.931140	0.666768
C49	C	0.505115	0.253442	0.000115
C50	C	0.838448	0.586776	0.333449
C51	C	1.171781	0.920109	0.666782
C52	C	0.772528	0.198588	0.000088
C53	C	1.105862	0.531921	0.333422
C54	C	1.439195	0.865255	0.666755
C55	C	1.100360	-0.248420	0.000099
C56	C	1.433694	0.084913	0.333433
C57	C	1.767027	0.418246	0.666766
C58	C	1.177275	-0.299550	0.000104
C59	C	1.510608	0.033783	0.333437
C60	C	1.843941	0.367117	0.666771
C61	C	1.166244	-0.407687	0.000093
C62	C	1.499577	-0.074353	0.333427
C63	C	1.832910	0.258980	0.666760
C64	C	1.111390	-0.140274	0.000110
C65	C	1.444723	0.193060	0.333443
C66	C	1.778057	0.526393	0.666777
C67	C	1.312776	0.233808	0.000123
C68	C	1.646109	0.567141	0.333456
C69	C	1.979443	0.900474	0.666790
C70	C	1.418919	0.244652	0.000126
C71	C	1.752252	0.577986	0.333460
C72	C	2.085585	0.911319	0.666793
C73	C	1.146609	0.399975	0.000093
C74	C	1.479942	0.733308	0.333426
C75	C	1.813275	1.066642	0.666760
C76	C	1.157454	0.506117	0.000085
C77	C	1.490787	0.839451	0.333418
C78	C	1.824120	1.172784	0.666752
N79	N	1.122052	0.242762	0.281949
N80	N	1.455385	0.576095	0.615282
N81	N	1.788719	0.909429	0.948616
N82	N	1.155594	0.209268	-0.281735
N83	N	1.488927	0.542601	0.051598
N84	N	1.822260	0.875934	0.384932
C85	C	1.226117	0.138766	0.531259
C86	C	1.559450	0.472099	0.864592
C87	C	1.892783	0.805432	1.197926
C88	C	1.218720	0.146169	0.655921
C89	C	1.552053	0.479502	0.989254
C90	C	1.885387	0.812835	1.322588
C91	C	1.099858	0.264966	0.655938
C92	C	1.433191	0.598299	0.989271
C93	C	1.766524	0.931632	1.322605
C94	C	1.107254	0.257562	0.531276
C95	C	1.440588	0.590896	0.864609
C96	C	1.773921	0.924229	1.197942
C97	C	1.170387	0.194462	0.468941
C98	C	1.503720	0.527795	0.802274
C99	C	1.837054	0.861128	1.135607
C100	C	1.177788	0.187064	0.344276
C101	C	1.511121	0.520397	0.677609
C102	C	1.844455	0.853731	1.010943
C103	C	1.058921	0.305855	0.344295
C104	C	1.392255	0.639189	0.677628
C105	C	1.725588	0.972522	1.010962
C106	C	1.051525	0.313258	0.468957
C107	C	1.384858	0.646592	0.802291
C108	C	1.718191	0.979925	1.135624
H109	H	0.650692	0.338606	0.000089
H110	H	0.984025	0.671939	0.333423
H111	H	1.317358	1.005272	0.666756
H112	H	0.626944	0.113432	0.000115
H113	H	0.960277	0.446765	0.333448
H114	H	1.293611	0.780099	0.666782
H115	H	1.277529	0.087393	0.480505
H116	H	1.610862	0.420727	0.813838
H117	H	1.944195	0.754060	1.147171
H118	H	1.264099	0.100814	0.706657
H119	H	1.597433	0.434148	1.039991
H120	H	1.930766	0.767481	1.373324
H121	H	1.048450	0.316334	0.706707
H122	H	1.381783	0.649667	1.040041
H123	H	1.715116	0.983001	1.373374
H124	H	1.251412	-0.262115	0.000032
H125	H	1.584746	0.071218	0.333366
H126	H	1.918079	0.404552	0.666699
H127	H	1.026234	-0.285858	0.000089
H128	H	1.359567	0.047475	0.333422
H129	H	1.692900	0.380809	0.666755
H130	H	1.229196	0.135687	0.293524
H131	H	1.562530	0.469020	0.626857
H132	H	1.895863	0.802354	0.960191
H133	H	1.000120	0.364631	0.519725
H134	H	1.333454	0.697965	0.853058
H135	H	1.666787	1.031298	1.186392
H136	H	1.013545	0.351209	0.293541
H137	H	1.346879	0.684543	0.626875
H138	H	1.680212	1.017876	0.960208
