data_functionalizedCrystal
_audit_creation_method	'MofGen! by Chris Wilmer'
_symmetry_space_group_name_H-M	'P1'
_symmetry_Int_Tables_number	1
_symmetry_cell_setting	triclinic
loop_
_symmetry_equiv_pos_as_xyz
  x,y,z
_cell_length_a	27.732048
_cell_length_b	27.732048
_cell_length_c	26.809956
_cell_angle_alpha	90.024436
_cell_angle_beta	89.995970
_cell_angle_gamma	82.642655
loop_
_atom_site_label
_atom_site_type_symbol
_atom_site_fract_x
_atom_site_fract_y
_atom_site_fract_z
O1	O	0.640924	0.057528	0.041421
O2	O	0.974257	0.390861	0.374754
O3	O	1.307590	0.724194	0.708087
O4	O	0.500130	0.066273	0.041436
O5	O	0.833464	0.399607	0.374770
O6	O	1.166797	0.732940	0.708103
O7	O	0.574900	-0.008496	0.041419
O8	O	0.908233	0.324837	0.374752
O9	O	1.241566	0.658170	0.708085
O10	O	0.566154	0.132297	0.041439
O11	O	0.899487	0.465631	0.374772
O12	O	1.232821	0.798964	0.708105
O13	O	0.574900	-0.008520	-0.041541
O14	O	0.908234	0.324813	0.291793
O15	O	1.241567	0.658147	0.625126
O16	O	0.500131	0.066249	-0.041523
O17	O	0.833464	0.399583	0.291811
O18	O	1.166797	0.732916	0.625144
O19	O	0.640924	0.057504	-0.041539
O20	O	0.974258	0.390837	0.291795
O21	O	1.307591	0.724171	0.625128
Zn22	Zn	0.570528	0.061873	-0.054702
Zn23	Zn	0.903861	0.395206	0.278631
Zn24	Zn	1.237194	0.728540	0.611964
Zn25	Zn	0.570527	0.061904	0.054600
Zn26	Zn	0.903860	0.395238	0.387933
Zn27	Zn	1.237193	0.728571	0.721267
O28	O	0.566155	0.132273	-0.041521
O29	O	0.899488	0.465607	0.291813
O30	O	1.232821	0.798940	0.625146
C31	C	0.482124	0.066078	-0.000041
C32	C	0.815457	0.399411	0.333292
C33	C	1.148790	0.732744	0.666625
C34	C	0.428469	0.065525	-0.000036
C35	C	0.761802	0.398858	0.333298
C36	C	1.095135	0.732192	0.666631
C37	C	0.089654	0.106229	-0.000051
C38	C	0.422987	0.439562	0.333282
C39	C	0.756320	0.772895	0.666615
C40	C	-0.112006	0.104178	-0.000056
C41	C	0.221327	0.437511	0.333277
C42	C	0.554661	0.770844	0.666610
O43	O	-0.143262	0.141398	-0.000073
O44	O	0.190072	0.474732	0.333261
O45	O	0.523405	0.808065	0.666594
N46	N	-0.131130	0.059843	-0.000062
N47	N	0.202204	0.393176	0.333272
N48	N	0.535537	0.726509	0.666605
C49	C	-0.099835	0.016017	-0.000069
C50	C	0.233498	0.349350	0.333264
C51	C	0.566832	0.682684	0.666598
O52	O	-0.120728	-0.021740	-0.000079
O53	O	0.212605	0.311593	0.333254
O54	O	0.545938	0.644927	0.666588
C55	C	0.101824	0.018068	-0.000068
C56	C	0.435157	0.351402	0.333265
C57	C	0.768490	0.684735	0.666599
C58	C	0.120944	0.062407	-0.000057
C59	C	0.454278	0.395740	0.333276
C60	C	0.787611	0.729073	0.666609
C61	C	0.108775	0.150563	-0.000042
C62	C	0.442108	0.483897	0.333292
C63	C	0.775442	0.817230	0.666625
C64	C	0.159187	0.151075	-0.000038
C65	C	0.492520	0.484409	0.333296
C66	C	0.825853	0.817742	0.666629
C67	C	0.190477	0.107253	-0.000044
C68	C	0.523811	0.440587	0.333290
C69	C	0.857144	0.773920	0.666623
C70	C	0.171356	0.062919	-0.000054
C71	C	0.504690	0.396252	0.333280
C72	C	0.838023	0.729585	0.666613
C73	C	0.133117	-0.025757	-0.000079
C74	C	0.466451	0.307577	0.333254
C75	C	0.799784	0.640910	0.666588
C76	C	0.183535	-0.025240	-0.000080
C77	C	0.516868	0.308094	0.333253
C78	C	0.850201	0.641427	0.666587
C79	C	0.202655	0.019098	-0.000069
C80	C	0.535989	0.352432	0.333264
C81	C	0.869322	0.685765	0.666597
C82	C	0.253059	0.019609	-0.000056
C83	C	0.586392	0.352942	0.333278
C84	C	0.919725	0.686276	0.666611
N85	N	0.272183	0.063944	-0.000050
N86	N	0.605516	0.397277	0.333283
N87	N	0.938849	0.730611	0.666616
C88	C	0.240892	0.107766	-0.000044
C89	C	0.574225	0.441100	0.333289
C90	C	0.907559	0.774433	0.666622
C91	C	-0.205709	0.014943	-0.000069
C92	C	0.127624	0.348276	0.333265
C93	C	0.460957	0.681610	0.666598
C94	C	-0.256124	0.014430	-0.000068
C95	C	0.077210	0.347763	0.333265
C96	C	0.410543	0.681097	0.666599
C97	C	-0.268291	0.102591	-0.000056
C98	C	0.065042	0.435924	0.333277
C99	C	0.398376	0.769258	0.666610
C100	C	-0.217876	0.103103	-0.000053
C101	C	0.115458	0.436437	0.333280
C102	C	0.448791	0.769770	0.666613
C103	C	-0.186585	0.059278	-0.000063
C104	C	0.146748	0.392612	0.333270
C105	C	0.480081	0.725945	0.666603
C106	C	0.346761	0.108839	-0.000036
C107	C	0.680094	0.442172	0.333298
C108	C	1.013428	0.775505	0.666631
C109	C	0.397178	0.109347	-0.000030
C110	C	0.730511	0.442681	0.333304
C111	C	1.063845	0.776014	0.666637
C112	C	0.409341	0.021186	-0.000044
C113	C	0.742674	0.354520	0.333289
C114	C	1.076008	0.687853	0.666622
C115	C	0.358929	0.020678	-0.000048
C116	C	0.692262	0.354011	0.333286
C117	C	1.025595	0.687344	0.666619
C118	C	0.327639	0.064508	-0.000045
C119	C	0.660973	0.397841	0.333288
C120	C	0.994306	0.731175	0.666622
O121	O	0.284343	-0.017592	-0.000045
O122	O	0.617676	0.315741	0.333288
O123	O	0.951009	0.649075	0.666622
O124	O	0.261794	0.145518	-0.000045
O125	O	0.595128	0.478851	0.333288
O126	O	0.928461	0.812184	0.666621
C127	C	0.039242	0.105716	-0.000055
C128	C	0.372575	0.439050	0.333278
C129	C	0.705908	0.772383	0.666611
C130	C	0.020120	0.061382	-0.000065
C131	C	0.353454	0.394715	0.333268
C132	C	0.686787	0.728049	0.666601
C133	C	0.051411	0.017560	-0.000071
C134	C	0.384744	0.350893	0.333262
C135	C	0.718078	0.684226	0.666595
C136	C	-0.030294	0.060869	-0.000065
C137	C	0.303039	0.394202	0.333269
C138	C	0.636373	0.727536	0.666602
C139	C	-0.061585	0.104691	-0.000059
C140	C	0.271749	0.438025	0.333275
C141	C	0.605082	0.771358	0.666608
C142	C	-0.042461	0.149026	-0.000053
C143	C	0.290872	0.482360	0.333280
C144	C	0.624206	0.815693	0.666613
C145	C	0.007951	0.149539	-0.000049
C146	C	0.341284	0.482872	0.333284
C147	C	0.674618	0.816205	0.666617
C148	C	0.032287	-0.026775	-0.000077
C149	C	0.365621	0.306558	0.333257
C150	C	0.698954	0.639891	0.666590
C151	C	-0.018125	-0.027284	-0.000080
C152	C	0.315208	0.306049	0.333253
C153	C	0.648541	0.639383	0.666587
C154	C	-0.049416	0.016538	-0.000074
C155	C	0.283917	0.349871	0.333259
C156	C	0.617251	0.683205	0.666593
C157	C	0.574716	-0.026515	-0.000062
C158	C	0.908050	0.306818	0.333271
C159	C	1.241383	0.640152	0.666604
C160	C	0.574164	-0.080170	-0.000066
C161	C	0.907497	0.253163	0.333267
C162	C	1.240830	0.586497	0.666600
C163	C	0.614867	-0.418985	-0.000045
C164	C	0.948201	-0.085652	0.333288
C165	C	1.281534	0.247682	0.666621
C166	C	0.612816	-0.620645	-0.000038
C167	C	0.946150	-0.287311	0.333295
C168	C	1.279483	0.046022	0.666628
O169	O	0.650037	-0.651900	-0.000021
O170	O	0.983370	-0.318567	0.333313
O171	O	1.316704	0.014766	0.666646
N172	N	0.568481	-0.639768	-0.000034
N173	N	0.901814	-0.306435	0.333300
N174	N	1.235148	0.026898	0.666633
C175	C	0.524656	-0.608474	-0.000028
C176	C	0.857989	-0.275140	0.333306
C177	C	1.191322	0.058193	0.666639
O178	O	0.486899	-0.629367	-0.000019
O179	O	0.820232	-0.296033	0.333315
O180	O	1.153565	0.037300	0.666648
C181	C	0.526707	-0.406815	-0.000031
C182	C	0.860040	-0.073482	0.333302
C183	C	1.193374	0.259852	0.666635
C184	C	0.571045	-0.387694	-0.000041
C185	C	0.904378	-0.054361	0.333292
C186	C	1.237712	0.278972	0.666626
C187	C	0.659202	-0.399864	-0.000054
C188	C	0.992535	-0.066530	0.333279
C189	C	1.325868	0.266803	0.666612
C190	C	0.659714	-0.349452	-0.000059
C191	C	0.993047	-0.016118	0.333274
C192	C	1.326381	0.317215	0.666608
C193	C	0.615892	-0.318161	-0.000054
C194	C	0.949225	0.015172	0.333279
C195	C	1.282559	0.348506	0.666612
C196	C	0.571557	-0.337282	-0.000045
C197	C	0.904891	-0.003949	0.333288
C198	C	1.238224	0.329384	0.666621
C199	C	0.482882	-0.375521	-0.000022
C200	C	0.816215	-0.042188	0.333312
C201	C	1.149549	0.291145	0.666645
C202	C	0.483399	-0.325104	-0.000021
C203	C	0.816732	0.008229	0.333312
C204	C	1.150066	0.341563	0.666645
C205	C	0.527737	-0.305983	-0.000031
C206	C	0.861070	0.027350	0.333302
C207	C	1.194404	0.360683	0.666636
C208	C	0.528248	-0.255580	-0.000045
C209	C	0.861581	0.077754	0.333288
C210	C	1.194914	0.411087	0.666621
N211	N	0.572583	-0.236456	-0.000050
N212	N	0.905916	0.096877	0.333283
N213	N	1.239249	0.430211	0.666617
C214	C	0.616405	-0.267747	-0.000054
C215	C	0.949738	0.065587	0.333279
C216	C	1.283072	0.398920	0.666612
C217	C	0.523582	-0.714348	-0.000027
C218	C	0.856915	-0.381014	0.333307
C219	C	1.190248	-0.047681	0.666640
C220	C	0.523069	-0.764762	-0.000027
C221	C	0.856402	-0.431429	0.333307
C222	C	1.189735	-0.098096	0.666640
C223	C	0.611230	-0.776930	-0.000036
C224	C	0.944563	-0.443596	0.333297
C225	C	1.277896	-0.110263	0.666630
C226	C	0.611742	-0.726514	-0.000040
C227	C	0.945075	-0.393181	0.333293
C228	C	1.278409	-0.059848	0.666627
C229	C	0.567917	-0.695224	-0.000031
C230	C	0.901250	-0.361891	0.333302
C231	C	1.234583	-0.028557	0.666635
C232	C	0.617477	-0.161878	-0.000064
C233	C	0.950811	0.171456	0.333269
C234	C	1.284144	0.504789	0.666602
C235	C	0.617986	-0.111461	-0.000071
C236	C	0.951319	0.221873	0.333262
C237	C	1.284652	0.555206	0.666596
C238	C	0.529825	-0.099298	-0.000059
C239	C	0.863158	0.234036	0.333275
C240	C	1.196492	0.567369	0.666608
C241	C	0.529316	-0.149710	-0.000055
C242	C	0.862650	0.183623	0.333279
C243	C	1.195983	0.516957	0.666612
C244	C	0.573147	-0.180999	-0.000056
C245	C	0.906480	0.152334	0.333277
C246	C	1.239813	0.485667	0.666611
O247	O	0.491047	-0.224296	-0.000057
O248	O	0.824380	0.109038	0.333276
O249	O	1.157713	0.442371	0.666609
O250	O	0.654156	-0.246844	-0.000053
O251	O	0.987490	0.086489	0.333281
O252	O	1.320823	0.419823	0.666614
C253	C	0.614355	-0.469397	-0.000041
C254	C	0.947688	-0.136064	0.333292
C255	C	1.281022	0.197270	0.666626
C256	C	0.570021	-0.488518	-0.000032
C257	C	0.903354	-0.155185	0.333301
C258	C	1.236687	0.178148	0.666635
C259	C	0.526198	-0.457228	-0.000027
C260	C	0.859532	-0.123894	0.333306
C261	C	1.192865	0.209439	0.666639
C262	C	0.569508	-0.538933	-0.000032
C263	C	0.902841	-0.205599	0.333301
C264	C	1.236174	0.127734	0.666635
C265	C	0.613330	-0.570223	-0.000036
C266	C	0.946663	-0.236890	0.333297
C267	C	1.279996	0.096443	0.666630
C268	C	0.657665	-0.551100	-0.000041
C269	C	0.990998	-0.217766	0.333292
C270	C	1.324332	0.115567	0.666626
C271	C	0.658177	-0.500688	-0.000045
C272	C	0.991511	-0.167354	0.333288
C273	C	1.324844	0.165979	0.666621
C274	C	0.481863	-0.476351	-0.000023
C275	C	0.815197	-0.143018	0.333310
C276	C	1.148530	0.190315	0.666644
C277	C	0.481355	-0.526764	-0.000019
C278	C	0.814688	-0.193430	0.333314
C279	C	1.148021	0.139903	0.666648
C280	C	0.525177	-0.558054	-0.000023
C281	C	0.858510	-0.224721	0.333310
C282	C	1.191843	0.108612	0.666643
C283	C	0.658931	0.057699	-0.000060
C284	C	0.992264	0.391033	0.333274
C285	C	1.325598	0.724366	0.666607
C286	C	0.712586	0.058252	-0.000062
C287	C	1.045919	0.391586	0.333271
C288	C	1.379252	0.724919	0.666605
C289	C	0.566338	0.150292	-0.000039
C290	C	0.899671	0.483626	0.333295
C291	C	1.233005	0.816959	0.666628
C292	C	0.566891	0.203947	-0.000031
C293	C	0.900224	0.537280	0.333302
C294	C	1.233557	0.870614	0.666635
N295	N	0.570532	0.061851	-0.129298
N296	N	0.903865	0.395185	0.204035
N297	N	1.237198	0.728518	0.537368
N298	N	0.570527	0.061922	0.129196
N299	N	0.903860	0.395255	0.462529
N300	N	1.237193	0.728589	0.795863
C301	C	0.541500	0.032700	0.473821
C302	C	0.874833	0.366033	0.807154
C303	C	1.208167	0.699366	1.140488
C304	C	0.541501	0.032683	0.682699
C305	C	0.874834	0.366017	1.016032
C306	C	1.208168	0.699350	1.349365
O307	O	0.516826	0.007851	0.709702
O308	O	0.850160	0.341184	1.043035
O309	O	1.183493	0.674518	1.376368
N310	N	0.570533	0.061861	0.708823
N311	N	0.903866	0.395194	1.042157
N312	N	1.237199	0.728528	1.375490
C313	C	0.599569	0.091043	0.682725
C314	C	0.932902	0.424376	1.016058
C315	C	1.266235	0.757710	1.349392
O316	O	0.624266	0.115856	0.709738
O317	O	0.957599	0.449190	1.043072
O318	O	1.290932	0.782523	1.376405
C319	C	0.599570	0.091056	0.473848
C320	C	0.932903	0.424390	0.807182
C321	C	1.266237	0.757723	1.140515
C322	C	0.570533	0.061880	0.447727
C323	C	0.903866	0.395214	0.781060
C324	C	1.237199	0.728547	1.114393
C325	C	0.512465	0.003525	0.447699
C326	C	0.845799	0.336859	0.781033
C327	C	1.179132	0.670192	1.114366
C328	C	0.512463	0.003532	0.395483
C329	C	0.845797	0.336865	0.728816
C330	C	1.179130	0.670199	1.062150
C331	C	0.541496	0.032712	0.369388
C332	C	0.874829	0.366046	0.702722
C333	C	1.208163	0.699379	1.036055
C334	C	0.570531	0.061887	0.395510
C335	C	0.903864	0.395220	0.728844
C336	C	1.237197	0.728553	1.062177
C337	C	0.628608	0.120235	0.447751
C338	C	0.961942	0.453568	0.781084
C339	C	1.295275	0.786902	1.114418
C340	C	0.628607	0.120235	0.395529
C341	C	0.961940	0.453568	0.728862
C342	C	1.295274	0.786902	1.062195
C343	C	0.599570	0.091059	0.369407
C344	C	0.932903	0.424392	0.702740
C345	C	1.266236	0.757726	1.036073
C346	C	0.599561	0.091074	0.317199
C347	C	0.932895	0.424407	0.650533
C348	C	1.266228	0.757740	0.983866
N349	N	0.570530	0.061896	0.291075
N350	N	0.903863	0.395229	0.624408
N351	N	1.237196	0.728562	0.957742
C352	C	0.541497	0.032715	0.317170
C353	C	0.874830	0.366048	0.650503
C354	C	1.208164	0.699382	0.983836
C355	C	0.599565	0.091034	0.792388
C356	C	0.932899	0.424368	1.125722
C357	C	1.266232	0.757701	1.459055
C358	C	0.599564	0.091032	0.844607
C359	C	0.932898	0.424365	1.177941
C360	C	1.266231	0.757698	1.511274
C361	C	0.541497	0.032671	0.844577
C362	C	0.874830	0.366005	1.177911
C363	C	1.208164	0.699338	1.511244
C364	C	0.541496	0.032677	0.792357
C365	C	0.874829	0.366010	1.125691
C366	C	1.208162	0.699344	1.459024
C367	C	0.570533	0.061856	0.766264
C368	C	0.903867	0.395190	1.099597
C369	C	1.237200	0.728523	1.432931
C370	C	0.541495	0.032731	0.207512
C371	C	0.874828	0.366064	0.540845
C372	C	1.208161	0.699398	0.874178
C373	C	0.541494	0.032742	0.155291
C374	C	0.874827	0.366075	0.488624
C375	C	1.208161	0.699408	0.821957
C376	C	0.599563	0.091100	0.155325
C377	C	0.932896	0.424433	0.488658
C378	C	1.266230	0.757767	0.821992
C379	C	0.599562	0.091092	0.207541
C380	C	0.932895	0.424425	0.540875
C381	C	1.266229	0.757758	0.874208
C382	C	0.570527	0.061903	0.233633
C383	C	0.903860	0.395237	0.566967
C384	C	1.237193	0.728570	0.900300
O385	O	0.624227	0.115889	0.290164
O386	O	0.957561	0.449222	0.623498
O387	O	1.290894	0.782555	0.956831
O388	O	0.516812	0.007897	0.290147
O389	O	0.850145	0.341231	0.623481
O390	O	1.183478	0.674564	0.956814
C391	C	0.541502	0.032693	0.526037
C392	C	0.874835	0.366027	0.859371
C393	C	1.208169	0.699360	1.192704
C394	C	0.570537	0.061867	0.552159
C395	C	0.903870	0.395201	0.885492
C396	C	1.237203	0.728534	1.218826
C397	C	0.599569	0.091048	0.526065
C398	C	0.932903	0.424381	0.859398
C399	C	1.266236	0.757715	1.192731
C400	C	0.570536	0.061865	0.604378
C401	C	0.903869	0.395198	0.937711
C402	C	1.237202	0.728531	1.271045
C403	C	0.541503	0.032684	0.630473
C404	C	0.874836	0.366018	0.963806
C405	C	1.208170	0.699351	1.297139
C406	C	0.512471	0.003506	0.604348
C407	C	0.845805	0.336840	0.937682
C408	C	1.179138	0.670173	1.271015
C409	C	0.512469	0.003513	0.552132
C410	C	0.845803	0.336846	0.885465
C411	C	1.179136	0.670179	1.218799
C412	C	0.628601	0.120226	0.552189
C413	C	0.961934	0.453559	0.885522
C414	C	1.295268	0.786893	1.218856
C415	C	0.628600	0.120218	0.604405
C416	C	0.961933	0.453551	0.937739
C417	C	1.295267	0.786884	1.271072
C418	C	0.599567	0.091037	0.630500
C419	C	0.932901	0.424370	0.963833
C420	C	1.266234	0.757704	1.297167
H421	H	-0.067947	0.184708	-0.000046
H422	H	0.265386	0.518041	0.333287
H423	H	0.598720	0.851375	0.666620
F424	F	0.313468	0.155488	-0.000033
F425	F	0.646801	0.488821	0.333300
F426	F	0.980134	0.822154	0.666633
F427	F	0.442651	-0.025450	-0.000051
F428	F	0.775985	0.307884	0.333282
F429	F	1.109318	0.641217	0.666615
H430	H	0.652245	0.143981	0.625669
H431	H	0.985578	0.477314	0.959003
H432	H	1.318911	0.810648	1.292336
H433	H	0.653168	-0.187348	-0.000063
H434	H	0.986501	0.145985	0.333270
H435	H	1.319835	0.479319	0.666603
H436	H	0.647846	-0.710950	-0.000047
H437	H	0.981179	-0.377617	0.333286
H438	H	1.314513	-0.044283	0.666619
F439	F	0.417524	0.156540	-0.000017
F440	F	0.750858	0.489873	0.333317
F441	F	1.084191	0.823206	0.666650
F442	F	0.630461	0.122094	0.872402
F443	F	0.963794	0.455427	1.205736
F444	F	1.297127	0.788761	1.539069
F445	F	0.112779	-0.072948	-0.000083
F446	F	0.446112	0.260385	0.333250
F447	F	0.779445	0.593719	0.666584
F448	F	0.657869	-0.810240	-0.000040
F449	F	0.991202	-0.476907	0.333293
F450	F	1.324535	-0.143573	0.666626
H451	H	0.695819	-0.333889	-0.000065
H452	H	1.029152	-0.000555	0.333269
H453	H	1.362485	0.332778	0.666602
H454	H	0.654093	-0.095896	-0.000080
H455	H	0.987426	0.237438	0.333253
H456	H	1.320759	0.570771	0.666587
F457	F	0.481559	-0.027523	0.367689
F458	F	0.814893	0.305810	0.701022
F459	F	1.148226	0.639143	1.034355
H460	H	-0.033688	-0.063392	-0.000085
H461	H	0.299645	0.269941	0.333249
H462	H	0.632979	0.603275	0.666582
F463	F	0.435691	-0.395860	-0.000009
F464	F	0.769024	-0.062526	0.333324
F465	F	1.102357	0.270807	0.666657
F466	F	0.481559	-0.027532	0.475463
F467	F	0.814893	0.305801	0.808797
F468	F	1.148226	0.639134	1.142130
H469	H	0.174750	0.187180	-0.000029
H470	H	0.508083	0.520513	0.333304
H471	H	0.841417	0.853847	0.666638
F472	F	0.075480	0.197209	-0.000035
F473	F	0.408813	0.530542	0.333298
F474	F	0.742146	0.863876	0.666632
H475	H	0.694889	-0.425336	-0.000056
H476	H	1.028223	-0.092003	0.333277
H477	H	1.361556	0.241330	0.666610
H478	H	0.447710	-0.299629	-0.000014
H479	H	0.781043	0.033704	0.333320
H480	H	1.114377	0.367037	0.666653
H481	H	-0.202311	0.139207	-0.000047
H482	H	0.131022	0.472541	0.333286
H483	H	0.464355	0.805874	0.666619
H484	H	0.486964	-0.780325	-0.000028
H485	H	0.820298	-0.446992	0.333306
H486	H	1.153631	-0.113659	0.666639
F487	F	0.434160	-0.547107	-0.000012
F488	F	0.767494	-0.213774	0.333321
F489	F	1.100827	0.119559	0.666655
H490	H	0.517851	0.008963	0.228749
H491	H	0.851185	0.342297	0.562083
H492	H	1.184518	0.675630	0.895416
F493	F	0.216833	-0.071886	-0.000092
F494	F	0.550167	0.261447	0.333241
F495	F	0.883500	0.594781	0.666575
H496	H	0.023514	0.185643	-0.000042
H497	H	0.356847	0.518977	0.333292
H498	H	0.690181	0.852310	0.666625
H499	H	0.487892	-0.688875	-0.000020
H500	H	0.821225	-0.355542	0.333313
H501	H	1.154558	-0.022208	0.666647
H502	H	0.517851	0.008919	0.771093
H503	H	0.851184	0.342252	1.104426
H504	H	1.184518	0.675586	1.437759
H505	H	0.057760	-0.062462	-0.000083
H506	H	0.391093	0.270872	0.333251
H507	H	0.724427	0.604205	0.666584
F508	F	0.482127	-0.170060	-0.000054
F509	F	0.815461	0.163273	0.333280
F510	F	1.148794	0.496606	0.666613
F511	F	-0.172413	-0.031705	-0.000079
F512	F	0.160920	0.301628	0.333254
F513	F	0.494254	0.634961	0.666588
F514	F	0.659503	0.151286	0.524424
F515	F	0.992836	0.484620	0.857758
F516	F	1.326169	0.817953	1.191091
H517	H	0.446177	-0.450879	-0.000018
H518	H	0.779510	-0.117545	0.333315
H519	H	1.112844	0.215788	0.666649
H520	H	0.623212	0.114797	0.771148
H521	H	0.956546	0.448131	1.104481
H522	H	1.289879	0.781464	1.437814
H523	H	0.494146	-0.073812	-0.000057
H524	H	0.827480	0.259522	0.333276
H525	H	1.160813	0.592855	0.666610
H526	H	0.694282	-0.485125	-0.000053
H527	H	1.027615	-0.151791	0.333280
H528	H	1.360949	0.181542	0.666614
H529	H	0.693347	-0.576585	-0.000047
H530	H	1.026680	-0.243252	0.333287
H531	H	1.360013	0.090081	0.666620
F532	F	0.510586	0.001688	0.127493
F533	F	0.843919	0.335022	0.460826
F534	F	1.177252	0.668355	0.794160
H535	H	0.343360	-0.015426	-0.000049
H536	H	0.676693	0.317907	0.333285
H537	H	1.010027	0.651241	0.666618
H538	H	0.517856	0.008913	0.865832
H539	H	0.851189	0.342246	1.199166
H540	H	1.184523	0.675579	1.532499
F541	F	0.659506	0.151298	0.475541
F542	F	0.992839	0.484631	0.808874
F543	F	1.326172	0.817964	1.142207
F544	F	0.659515	0.151291	0.367761
F545	F	0.992849	0.484625	0.701094
F546	F	1.326182	0.817958	1.034428
F547	F	0.630470	0.122140	0.235343
F548	F	0.963804	0.455473	0.568676
F549	F	1.297137	0.788807	0.902010
F550	F	0.630457	0.122157	0.127544
F551	F	0.963791	0.455490	0.460878
F552	F	1.297124	0.788824	0.794211
H553	H	0.488830	-0.020251	0.625603
H554	H	0.822163	0.313082	0.958937
H555	H	1.155496	0.646415	1.292270
F556	F	-0.301601	0.149230	-0.000050
F557	F	0.031732	0.482563	0.333283
F558	F	0.365065	0.815897	0.666616
F559	F	-0.276468	-0.032761	-0.000068
F560	F	0.056866	0.300573	0.333265
F561	F	0.390199	0.633906	0.666599
F562	F	0.481563	-0.027541	0.524338
F563	F	0.814897	0.305792	0.857671
F564	F	1.148230	0.639126	1.191004
