data_functionalizedCrystal
_audit_creation_method	'MofGen! by Chris Wilmer'
_symmetry_space_group_name_H-M	'P1'
_symmetry_Int_Tables_number	1
_symmetry_cell_setting	triclinic
loop_
_symmetry_equiv_pos_as_xyz
  x,y,z
_cell_length_a	14.044191
_cell_length_b	10.654550
_cell_length_c	9.730223
_cell_angle_alpha	89.999807
_cell_angle_beta	90.002006
_cell_angle_gamma	88.838340
loop_
_atom_site_label
_atom_site_type_symbol
_atom_site_fract_x
_atom_site_fract_y
_atom_site_fract_z
O1	O	1.259695	0.303022	-0.114217
O2	O	1.759695	0.803022	0.385783
O3	O	0.983653	0.292080	-0.114234
O4	O	1.483653	0.792080	0.385766
O5	O	1.128021	0.115450	-0.114220
O6	O	1.628021	0.615450	0.385780
O7	O	1.115328	0.479652	-0.114231
O8	O	1.615328	0.979652	0.385769
O9	O	1.128019	0.115454	0.114360
O10	O	1.628019	0.615454	0.614360
O11	O	0.983652	0.292084	0.114346
O12	O	1.483652	0.792084	0.614346
O13	O	1.259693	0.303027	0.114363
O14	O	1.759693	0.803027	0.614363
Zn15	Zn	1.121672	0.297556	0.150647
Zn16	Zn	1.621672	0.797556	0.650647
Zn17	Zn	1.121675	0.297550	-0.150517
Zn18	Zn	1.621675	0.797550	0.349483
O19	O	1.115326	0.479657	0.114349
O20	O	1.615326	0.979657	0.614349
C21	C	1.127088	0.068560	0.000068
C22	C	1.627088	0.568560	0.500068
C23	C	1.124300	-0.071163	0.000063
C24	C	1.624300	0.428837	0.500063
C25	C	0.948307	0.287295	0.000054
C26	C	1.448307	0.787295	0.500054
C27	C	0.842987	0.273016	0.000047
C28	C	1.342987	0.773016	0.500047
C29	C	1.209301	-0.142104	0.000073
C30	C	1.709301	0.357896	0.500073
C31	C	1.206675	-0.273389	0.000063
C32	C	1.706675	0.226611	0.500063
C33	C	1.034039	-0.262779	0.000040
C34	C	1.534039	0.237221	0.500040
C35	C	1.036666	-0.131497	0.000040
C36	C	1.536666	0.368503	0.500040
C37	C	1.296934	-0.081770	0.000096
C38	C	1.796934	0.418230	0.500096
C39	C	1.381943	-0.152712	0.000108
C40	C	1.881943	0.347288	0.500108
C41	C	1.379317	-0.283997	0.000098
C42	C	1.879317	0.216003	0.500098
C43	C	1.291683	-0.344340	0.000077
C44	C	1.791683	0.155660	0.500077
C45	C	0.593195	0.348181	0.000058
C46	C	1.093195	0.848181	0.500058
C47	C	0.650158	0.246931	0.000059
C48	C	1.150158	0.746931	0.500059
C49	C	0.757458	0.261448	0.000052
C50	C	1.257458	0.761448	0.500052
C51	C	0.485885	0.333666	0.000065
C52	C	0.985885	0.833666	0.500065
C53	C	1.295040	0.307812	0.000073
C54	C	1.795040	0.807812	0.500073
C55	C	1.400360	0.322091	0.000070
C56	C	1.900360	0.822091	0.500070
C57	C	1.116259	0.526546	0.000058
C58	C	1.616259	1.026546	0.500058
C59	C	1.119047	0.666270	0.000054
C60	C	1.619047	1.166270	0.500054
N61	N	1.121678	0.297561	0.356183
N62	N	1.621678	0.797561	0.856183
N63	N	1.121677	0.297537	-0.356054
N64	N	1.621677	0.797537	0.143946
C65	C	1.185620	0.219379	0.428115
C66	C	1.685620	0.719379	0.928115
C67	C	1.185618	0.219364	0.571998
C68	C	1.685618	0.719364	1.071998
C69	C	1.057727	0.375721	0.572004
C70	C	1.557727	0.875721	1.072004
C71	C	1.057726	0.375730	0.428123
C72	C	1.557726	0.875730	0.928123
C73	C	1.249572	0.141211	0.356175
C74	C	1.749572	0.641211	0.856175
C75	C	1.313521	0.063024	0.428107
C76	C	1.813521	0.563024	0.928107
C77	C	1.313518	0.063009	0.571990
C78	C	1.813518	0.563009	1.071990
C79	C	1.249567	0.141179	0.643941
C80	C	1.749567	0.641179	1.143941
H81	H	1.453291	-0.103572	0.000090
H82	H	1.953291	0.396428	0.500090
H83	H	1.005657	0.439391	0.369556
H84	H	1.505657	0.939391	0.869556
H85	H	1.448535	-0.341754	0.000093
H86	H	1.948535	0.158246	0.500093
N87	N	0.608026	0.117662	0.000047
N88	N	1.108026	0.617662	0.500047
H89	H	0.629807	0.070446	0.084778
H90	H	1.129807	0.570446	0.584778
H91	H	0.536243	0.125579	-0.000005
H92	H	1.036243	0.625579	0.499995
H93	H	0.625010	0.445759	0.000051
H94	H	1.125010	0.945759	0.500051
H95	H	1.005662	0.439366	0.630595
H96	H	1.505662	0.939366	1.130595
H97	H	0.967451	-0.073735	0.000034
H98	H	1.467451	0.426265	0.500034
N99	N	1.249568	0.141233	0.200989
N100	N	1.749568	0.641233	0.700989
H101	H	1.314131	0.166800	0.166338
H102	H	1.814131	0.666800	0.666338
H103	H	1.235177	0.054271	0.166427
H104	H	1.735177	0.554271	0.666427
N105	N	1.249571	0.141171	0.799129
N106	N	1.749571	0.641171	1.299129
H107	H	1.199362	0.202560	0.833789
H108	H	1.699362	0.702560	1.333789
H109	H	1.235247	0.054182	0.833674
H110	H	1.735247	0.554182	1.333674
N111	N	1.382471	-0.021300	0.350494
N112	N	1.882471	0.478700	0.850494
H113	H	1.424784	0.031462	0.290800
H114	H	1.924784	0.531462	0.790800
H115	H	1.422913	-0.070830	0.417974
H116	H	1.922913	0.429170	0.917974
N117	N	1.299766	0.059828	0.000107
N118	N	1.799766	0.559828	0.500107
H119	H	1.368177	0.087287	0.000121
H120	H	1.868177	0.587287	0.500121
H121	H	1.266469	0.093436	-0.084638
H122	H	1.766469	0.593436	0.415362
N123	N	1.288847	-0.485940	0.000047
N124	N	1.788847	0.014060	0.500047
H125	H	1.355994	-0.521728	0.000049
H126	H	1.855994	-0.021728	0.500049
H127	H	1.254282	-0.515386	0.084779
H128	H	1.754282	-0.015386	0.584779
N129	N	0.939525	-0.327857	0.000021
N130	N	1.439525	0.172143	0.500021
H131	H	0.950760	-0.421789	0.000026
H132	H	1.450760	0.078211	0.500026
H133	H	0.902290	-0.302593	0.084756
H134	H	1.402290	0.197407	0.584756
H135	H	1.365581	-0.000663	0.630556
H136	H	1.865581	0.499337	1.130556
