data_functionalizedCrystal
_audit_creation_method	'MofGen! by Chris Wilmer'
_symmetry_space_group_name_H-M	'P1'
_symmetry_Int_Tables_number	1
_symmetry_cell_setting	triclinic
loop_
_symmetry_equiv_pos_as_xyz
  x,y,z
_cell_length_a	18.215407
_cell_length_b	21.295417
_cell_length_c	18.215399
_cell_angle_alpha	89.965438
_cell_angle_beta	89.983176
_cell_angle_gamma	90.030955
loop_
_atom_site_label
_atom_site_type_symbol
_atom_site_fract_x
_atom_site_fract_y
_atom_site_fract_z
Zn1	Zn	1.125021	-0.250593	-0.416094
Zn2	Zn	1.124924	-0.355869	-0.293019
Zn3	Zn	1.001960	-0.250618	-0.293042
Zn4	Zn	1.001908	-0.355829	-0.416044
O5	O	1.063453	-0.303227	-0.354550
O6	O	1.227993	-0.264564	-0.399780
O7	O	1.108594	-0.341934	-0.190038
O8	O	1.018347	-0.162525	-0.309396
O9	O	1.227921	-0.341910	-0.309357
O10	O	1.108760	-0.162507	-0.399802
O11	O	1.018253	-0.264607	-0.190054
O12	O	0.898969	-0.264569	-0.309347
O13	O	1.018258	-0.341843	-0.519035
O14	O	0.898930	-0.341867	-0.399716
O15	O	1.108709	-0.264526	-0.519072
O16	O	1.108543	-0.443953	-0.309308
O17	O	1.018163	-0.443924	-0.399694
C18	C	0.872247	-0.303217	-0.354529
C19	C	0.790448	-0.303227	-0.354537
C20	C	0.602253	-0.343540	-0.401533
C21	C	0.525395	-0.343542	-0.401542
C22	C	0.525405	-0.262927	-0.307582
C23	C	0.602263	-0.262922	-0.307577
C24	C	0.640685	-0.303232	-0.354552
C25	C	0.486969	-0.303239	-0.354566
C26	C	0.403635	-0.303240	-0.354575
C27	C	0.724024	-0.303229	-0.354543
C28	C	1.063357	-0.466779	-0.354509
C29	C	1.063383	-0.536747	-0.354516
C30	C	1.110485	-0.569608	-0.307500
C31	C	1.110520	-0.635350	-0.307517
C32	C	1.063439	-0.668230	-0.354542
C33	C	1.016333	-0.635361	-0.401566
C34	C	1.016305	-0.569620	-0.401554
N35	N	0.999060	-0.771496	-0.360145
N36	N	0.999088	-0.833947	-0.360153
C37	C	1.063521	-0.866304	-0.354584
N38	N	1.127926	-0.833851	-0.348993
N39	N	1.127896	-0.771394	-0.348981
C40	C	1.063464	-0.739515	-0.354561
C41	C	1.110665	-0.970451	-0.307584
C42	C	1.110701	-1.036194	-0.307605
C43	C	1.016507	-1.036203	-0.401651
C44	C	1.016478	-0.970461	-0.401633
C45	C	1.063556	-0.937589	-0.354595
C46	C	1.255406	-0.303239	-0.354571
C47	C	1.337205	-0.303243	-0.354581
C48	C	1.063488	-0.303177	-0.546503
C49	C	1.063503	-0.303156	-0.628302
C50	C	1.063570	-0.139037	-0.354607
C51	C	1.063620	-0.069069	-0.354631
C52	C	1.016502	-0.262864	-0.816505
C53	C	1.016515	-0.262852	-0.893364
C54	C	1.110592	-0.343372	-0.893336
C55	C	1.110575	-0.343387	-0.816479
C56	C	1.063531	-0.303130	-0.778065
C57	C	1.063561	-0.303102	-0.931781
C58	C	1.063575	-0.303088	-1.015115
C59	C	1.063516	-0.303144	-0.694726
C60	C	1.063461	-0.303232	-0.163344
C61	C	1.063589	-0.303076	-0.081545
H62	H	0.633554	-0.230095	-0.269319
O63	O	0.488177	-0.382757	-0.447202
C64	C	0.538573	-0.418320	-0.488673
H65	H	0.593346	-0.420465	-0.458518
H66	H	0.546783	-0.395326	-0.544614
C67	C	0.441271	-0.482694	-0.536176
C68	C	0.508542	-0.485334	-0.499136
H69	H	0.422745	-0.524031	-0.542634
H70	H	0.407317	-0.458734	-0.508239
H71	H	0.448121	-0.463531	-0.582790
H72	H	0.501689	-0.504490	-0.452520
H73	H	0.542494	-0.509299	-0.527066
H74	H	1.148821	-0.542845	-0.269202
H75	H	1.148873	-0.376179	-0.785180
H76	H	0.494113	-0.230108	-0.269336
H77	H	1.149001	-0.943685	-0.269285
O78	O	0.970876	-1.068202	-0.447370
C79	C	1.012764	-1.106151	-0.494962
H80	H	1.068555	-1.115975	-0.469058
H81	H	1.020807	-1.080770	-0.549499
C82	C	0.903769	-1.156556	-0.540083
C83	C	0.972290	-1.168625	-0.508265
H84	H	0.878802	-1.195092	-0.548292
H85	H	0.875547	-1.130987	-0.508022
H86	H	0.910481	-1.135403	-0.585528
H87	H	0.965578	-1.189770	-0.462817
H88	H	1.000510	-1.194199	-0.540319
H89	H	1.148879	-0.662111	-0.269231
H90	H	0.978001	-0.662135	-0.439855
H91	H	0.978219	-0.230064	-0.924659
O92	O	0.639691	-0.382670	-0.447098
C93	C	0.715769	-0.374014	-0.437035
H94	H	0.726259	-0.353341	-0.380283
H95	H	0.737613	-0.340533	-0.480755
C96	C	0.742311	-0.463101	-0.513352
C97	C	0.755195	-0.437715	-0.443645
H98	H	0.766632	-0.502394	-0.517432
H99	H	0.691056	-0.468932	-0.520134
H100	H	0.760514	-0.435194	-0.549777
H101	H	0.736984	-0.465618	-0.407222
H102	H	0.806449	-0.431891	-0.436857
H103	H	0.977948	-0.542864	-0.439840
O104	O	1.156483	-1.068020	-0.261863
C105	C	1.198038	-1.024905	-0.220359
H106	H	1.167874	-0.978069	-0.217775
H107	H	1.253913	-1.017850	-0.247354
C108	C	1.245748	-1.108134	-0.145224
C109	C	1.208697	-1.050610	-0.142044
H110	H	1.252326	-1.123990	-0.096916
H111	H	1.217754	-1.137182	-0.173187
H112	H	1.292306	-1.102246	-0.167723
H113	H	1.162136	-1.056499	-0.119554
H114	H	1.236683	-1.021563	-0.114075
H115	H	0.978120	-0.943704	-0.439914
H116	H	0.978196	-0.230084	-0.785231
O117	O	1.156267	-0.382414	-0.930766
C118	C	1.146187	-0.373777	-1.006846
H119	H	1.122120	-0.325194	-1.017362
H120	H	1.106976	-0.411110	-1.028638
C121	C	1.250213	-0.439211	-1.033391
C122	C	1.220660	-0.379539	-1.046308
H123	H	1.296150	-0.442768	-1.057734
H124	H	1.257003	-0.445032	-0.982135
H125	H	1.217530	-0.470315	-1.051551
H126	H	1.253338	-0.348437	-1.028139
H127	H	1.213877	-0.373713	-1.097562
