data_functionalizedCrystal
_audit_creation_method	'MofGen! by Chris Wilmer'
_symmetry_space_group_name_H-M	'P1'
_symmetry_Int_Tables_number	1
_symmetry_cell_setting	triclinic
loop_
_symmetry_equiv_pos_as_xyz
  x,y,z
_cell_length_a	25.639242
_cell_length_b	25.639239
_cell_length_c	12.827885
_cell_angle_alpha	89.964018
_cell_angle_beta	89.977793
_cell_angle_gamma	90.030990
loop_
_atom_site_label
_atom_site_type_symbol
_atom_site_fract_x
_atom_site_fract_y
_atom_site_fract_z
Zn1	Zn	0.799266	-0.208233	-0.590885
Zn2	Zn	1.299266	0.291767	-0.090885
Zn3	Zn	0.799177	-0.295678	-0.416127
Zn4	Zn	1.299177	0.204322	0.083873
Zn5	Zn	0.711830	-0.208247	-0.416150
Zn6	Zn	1.211830	0.291753	0.083850
Zn7	Zn	0.711787	-0.295627	-0.590818
Zn8	Zn	1.211787	0.204373	-0.090818
O9	O	0.755515	-0.251946	-0.503495
O10	O	1.255515	0.248054	-0.003495
O11	O	0.872419	-0.219848	-0.567722
O12	O	1.372419	0.280152	-0.067722
O13	O	0.787571	-0.284107	-0.269894
O14	O	1.287571	0.215893	0.230106
O15	O	0.723483	-0.135080	-0.439367
O16	O	1.223483	0.364920	0.060633
O17	O	0.872354	-0.284094	-0.439327
O18	O	1.372354	0.215906	0.060673
O19	O	0.787722	-0.135069	-0.567744
O20	O	1.287722	0.364931	-0.067744
O21	O	0.723398	-0.219871	-0.269911
O22	O	1.223398	0.280129	0.230089
O23	O	0.638659	-0.219822	-0.439302
O24	O	1.138659	0.280178	0.060698
O25	O	0.723410	-0.284007	-0.737063
O26	O	1.223410	0.215993	-0.237063
O27	O	0.638628	-0.284021	-0.567629
O28	O	1.138628	0.215979	-0.067629
O29	O	0.787680	-0.219799	-0.737113
O30	O	1.287680	0.280201	-0.237113
O31	O	0.787530	-0.368836	-0.439262
O32	O	1.287530	0.131164	0.060738
O33	O	0.723324	-0.368799	-0.567607
O34	O	1.223324	0.131201	-0.067607
C35	C	0.619672	-0.251918	-0.503461
C36	C	1.119672	0.248082	-0.003461
C37	C	0.561558	-0.251918	-0.503471
C38	C	1.061558	0.248082	-0.003471
C39	C	0.310407	-0.218553	-0.570472
C40	C	0.810407	0.281447	-0.070472
C41	C	0.365011	-0.218548	-0.570466
C42	C	0.865011	0.281452	-0.070466
O43	O	0.393283	-0.190156	-0.627425
O44	O	0.893283	0.309844	-0.127425
N45	N	0.392284	-0.251940	-0.503507
N46	N	0.892284	0.248060	-0.003507
C47	C	0.364951	-0.285344	-0.436557
C48	C	0.864951	0.214656	0.063443
O49	O	0.393163	-0.313746	-0.379603
O50	O	0.893163	0.186254	0.120397
C51	C	0.310347	-0.285351	-0.436569
C52	C	0.810347	0.214649	0.063431
C53	C	0.283077	-0.251953	-0.503525
C54	C	0.783077	0.248047	-0.003525
C55	C	0.283136	-0.185158	-0.637423
C56	C	0.783136	0.314842	-0.137423
C57	C	0.228536	-0.185162	-0.637428
C58	C	0.728536	0.314838	-0.137428
C59	C	0.201206	-0.218562	-0.570481
C60	C	0.701206	0.281438	-0.070481
C61	C	0.228476	-0.251957	-0.503529
C62	C	0.728476	0.248043	-0.003529
C63	C	0.283014	-0.318757	-0.369625
C64	C	0.783014	0.181243	0.130375
C65	C	0.228407	-0.318761	-0.369643
C66	C	0.728407	0.181239	0.130357
C67	C	0.201137	-0.285363	-0.436599
C68	C	0.701137	0.214637	0.063401
C69	C	0.146546	-0.285362	-0.436587
C70	C	0.646546	0.214638	0.063413
N71	N	0.119272	-0.251969	-0.503546
N72	N	0.619272	0.248031	-0.003546
C73	C	0.146602	-0.218570	-0.570493
C74	C	0.646602	0.281430	-0.070493
C75	C	0.479621	-0.285326	-0.436538
C76	C	0.979621	0.214674	0.063462
C77	C	0.534224	-0.285316	-0.436520
C78	C	1.034224	0.214684	0.063480
C79	C	0.534280	-0.218521	-0.570431
C80	C	1.034280	0.281479	-0.070431
C81	C	0.479677	-0.218529	-0.570443
C82	C	0.979677	0.281471	-0.070443
C83	C	0.452348	-0.251934	-0.503497
C84	C	0.952348	0.248066	-0.003497
C85	C	0.031937	-0.218581	-0.570496
C86	C	0.531937	0.281419	-0.070496
C87	C	-0.022668	-0.218587	-0.570491
C88	C	0.477332	0.281413	-0.070491
C89	C	-0.022720	-0.285384	-0.436585
C90	C	0.477280	0.214616	0.063415
C91	C	0.031881	-0.285377	-0.436585
C92	C	0.531881	0.214623	0.063415
C93	C	0.059208	-0.251973	-0.503549
C94	C	0.559208	0.248027	-0.003549
O95	O	0.118239	-0.313740	-0.379660
O96	O	0.618239	0.186260	0.120340
O97	O	0.118384	-0.190176	-0.627446
O98	O	0.618384	0.309824	-0.127446
C99	C	0.755427	-0.387789	-0.503447
C100	C	1.255427	0.112211	-0.003447
C101	C	0.755437	-0.445903	-0.503462
C102	C	1.255437	0.054097	-0.003462
C103	C	0.789034	-0.806273	-0.436780
C104	C	1.289034	-0.306273	0.063220
C105	C	0.789054	-0.860877	-0.436794
C106	C	1.289054	-0.360877	0.063206
O107	O	0.817528	-0.889119	-0.380046
O108	O	1.317528	-0.389119	0.119954
N109	N	0.755607	-0.888185	-0.503564
N110	N	1.255607	-0.388185	-0.003564
C111	C	0.722141	-0.860886	-0.570333
C112	C	1.222141	-0.360886	-0.070333
O113	O	0.693694	-0.889128	-0.627128
O114	O	1.193694	-0.389128	-0.127128
C115	C	0.722124	-0.806283	-0.570323
C116	C	1.222124	-0.306283	-0.070323
C117	C	0.755569	-0.778978	-0.503541
C118	C	1.255569	-0.278978	-0.003541
C119	C	0.822477	-0.778967	-0.370004
C120	C	1.322477	-0.278967	0.129996
C121	C	0.822456	-0.724367	-0.369989
C122	C	1.322456	-0.224367	0.130011
C123	C	0.788992	-0.697072	-0.436750
C124	C	1.288992	-0.197072	0.063250
C125	C	0.755548	-0.724377	-0.503526
C126	C	1.255548	-0.224377	-0.003526
C127	C	0.688661	-0.778985	-0.637096
C128	C	1.188661	-0.278985	-0.137096
C129	C	0.688647	-0.724378	-0.637081
C130	C	1.188647	-0.224378	-0.137081
C131	C	0.722092	-0.697073	-0.570299
C132	C	1.222092	-0.197073	-0.070299
C133	C	0.722063	-0.642481	-0.570272
C134	C	1.222063	-0.142481	-0.070272
N135	N	0.755510	-0.615173	-0.503501
N136	N	1.255510	-0.115173	-0.003501
C137	C	0.788974	-0.642468	-0.436740
C138	C	1.288974	-0.142468	0.063260
C139	C	0.722180	-0.975557	-0.570349
C140	C	1.222180	-0.475557	-0.070349
C141	C	0.722194	-1.030159	-0.570354
C142	C	1.222194	-0.530159	-0.070354
C143	C	0.789108	-1.030146	-0.436816
C144	C	1.289108	-0.530146	0.063184
C145	C	0.789091	-0.975543	-0.436806
C146	C	1.289091	-0.475543	0.063194
C147	C	0.755627	-0.948249	-0.503578
C148	C	1.255627	-0.448249	-0.003578
C149	C	0.788927	-0.527803	-0.436713
C150	C	1.288927	-0.027803	0.063287
C151	C	0.788902	-0.473198	-0.436701
C152	C	1.288902	0.026802	0.063299
C153	C	0.721990	-0.473216	-0.570242
C154	C	1.221990	0.026784	-0.070242
C155	C	0.722013	-0.527816	-0.570251
C156	C	1.222013	-0.027816	-0.070251
C157	C	0.755486	-0.555109	-0.503483
C158	C	1.255486	-0.055109	-0.003483
O159	O	0.693605	-0.614204	-0.626993
O160	O	1.193605	-0.114204	-0.126993
O161	O	0.817422	-0.614220	-0.379964
O162	O	1.317422	-0.114220	0.120036
C163	C	0.891888	-0.251975	-0.503529
C164	C	1.391888	0.248025	-0.003529
C165	C	0.950002	-0.251987	-0.503544
C166	C	1.450002	0.248013	-0.003544
C167	C	0.755550	-0.251896	-0.776065
C168	C	1.255550	0.248104	-0.276065
C169	C	0.755566	-0.251875	-0.892219
C170	C	1.255566	0.248125	-0.392219
C171	C	0.755617	-0.115573	-0.503566
C172	C	1.255617	0.384427	-0.003566
C173	C	0.755661	-0.057459	-0.503596
C174	C	1.255661	0.442541	-0.003596
C175	C	0.787372	-0.220096	-0.944028
C176	C	1.287372	0.279904	-0.444028
C177	C	0.787388	-0.220073	-1.064078
C178	C	1.287388	0.279927	-0.564078
C179	C	0.755510	-0.251958	-0.231985
C180	C	1.255510	0.248042	0.268015
C181	C	0.755596	-0.251833	-0.115832
C182	C	1.255596	0.248167	0.384168
H183	H	0.054085	-0.312568	-0.382055
H184	H	0.554085	0.187432	0.117945
N185	N	0.199120	-0.149148	-0.709652
N186	N	0.699120	0.350852	-0.209652
H187	H	0.176465	-0.124894	-0.667281
H188	H	0.676465	0.375106	-0.167281
H189	H	0.224754	-0.128025	-0.752049
H190	H	0.724754	0.371975	-0.252049
N191	N	0.450272	-0.182508	-0.642670
N192	N	0.950272	0.317492	-0.142670
H193	H	0.427621	-0.203785	-0.691031
H194	H	0.927621	0.296215	-0.191031
H195	H	0.427646	-0.158260	-0.600228
H196	H	0.927646	0.341740	-0.100228
H197	H	0.694781	-0.550050	-0.624633
H198	H	1.194781	-0.050050	-0.124633
N199	N	0.061405	-0.182555	-0.642723
N200	N	0.561405	0.317445	-0.142723
H201	H	0.084057	-0.203829	-0.691079
H202	H	0.584057	0.296171	-0.191079
H203	H	0.035802	-0.161412	-0.685060
H204	H	0.535802	0.338588	-0.185060
H205	H	0.305382	-0.157959	-0.691945
H206	H	0.805382	0.342041	-0.191945
N207	N	-0.052081	-0.182558	-0.642700
N208	N	0.447919	0.317442	-0.142700
H209	H	-0.026479	-0.161400	-0.685108
H210	H	0.473521	0.338600	-0.185108
H211	H	-0.074738	-0.203866	-0.690990
H212	H	0.425262	0.296134	-0.190990
N213	N	0.563763	-0.182497	-0.642644
N214	N	1.063763	0.317503	-0.142644
H215	H	0.602491	-0.187565	-0.632474
H216	H	1.102491	0.312435	-0.132474
H217	H	0.554234	-0.190683	-0.717249
H218	H	1.054234	0.309317	-0.217249
N219	N	0.563634	-0.321330	-0.364287
N220	N	1.063634	0.178670	0.135713
H221	H	0.538030	-0.342487	-0.321879
H222	H	1.038030	0.157513	0.178121
H223	H	0.586288	-0.345552	-0.406727
H224	H	1.086288	0.154448	0.093273
H225	H	0.694926	-0.953337	-0.624719
H226	H	1.194926	-0.453337	-0.124719
N227	N	0.652594	-0.808431	-0.709134
N228	N	1.152594	-0.308431	-0.209134
H229	H	0.628379	-0.831125	-0.666640
H230	H	1.128379	-0.331125	-0.166640
H231	H	0.631432	-0.782817	-0.751414
H232	H	1.131432	-0.282817	-0.251414
H233	H	0.814589	-0.192904	-0.899507
H234	H	1.314589	0.307096	-0.399507
N235	N	0.450147	-0.321354	-0.364320
N236	N	0.950147	0.178646	0.135680
H237	H	0.475713	-0.342504	-0.321904
H238	H	0.975713	0.157496	0.178096
H239	H	0.427489	-0.300046	-0.316039
H240	H	0.927489	0.199954	0.183961
N241	N	0.312419	-0.354778	-0.297404
N242	N	0.812419	0.145222	0.202596
H243	H	0.286812	-0.375936	-0.255006
H244	H	0.786812	0.124064	0.244994
H245	H	0.335073	-0.378998	-0.339848
H246	H	0.835073	0.121002	0.160152
N247	N	0.858538	-0.694920	-0.297976
N248	N	1.358538	-0.194920	0.202024
H249	H	0.850448	-0.704458	-0.223295
H250	H	1.350448	-0.204458	0.276705
H251	H	0.895876	-0.704403	-0.314386
H252	H	1.395876	-0.204403	0.185614
H253	H	0.814621	-0.192868	-1.108633
H254	H	1.314621	0.307132	-0.608633
H255	H	0.849731	-0.801185	-0.315638
H256	H	1.349731	-0.301185	0.184362
H257	H	0.728366	-0.279043	-1.071284
H258	H	1.228366	0.220957	-0.571284
H259	H	0.206159	-0.345966	-0.315130
H260	H	0.706159	0.154034	0.184870
H261	H	0.816185	-0.550018	-0.382346
H262	H	1.316185	-0.050018	0.117654
H263	H	-0.044982	-0.312575	-0.382074
H264	H	0.455018	0.187425	0.117926
N265	N	0.652547	-0.694945	-0.709098
N266	N	1.152547	-0.194945	-0.209098
H267	H	0.628319	-0.672329	-0.666581
H268	H	1.128319	-0.172329	-0.166581
H269	H	0.673808	-0.672282	-0.757550
H270	H	1.173808	-0.172282	-0.257550
H271	H	0.728344	-0.279061	-0.936739
H272	H	1.228344	0.220939	-0.436739
N273	N	0.824979	-0.443745	-0.364676
N274	N	1.324979	0.056255	0.135324
H275	H	0.816885	-0.453285	-0.289997
H276	H	1.316885	0.046715	0.210003
H277	H	0.862319	-0.453221	-0.381075
H278	H	1.362319	0.046779	0.118925
N279	N	0.685894	-0.443771	-0.642239
N280	N	1.185894	0.056229	-0.142239
H281	H	0.690960	-0.405037	-0.632092
H282	H	1.190960	0.094963	-0.132092
H283	H	0.694015	-0.453277	-0.716891
H284	H	1.194015	0.046723	-0.216891
H285	H	0.816326	-0.953314	-0.382427
H286	H	1.316326	-0.453314	0.117573
N287	N	0.825203	-1.059595	-0.364811
N288	N	1.325203	-0.559595	0.135189
H289	H	0.849425	-1.082212	-0.407338
H290	H	1.349425	-0.582212	0.092662
H291	H	0.846356	-1.033983	-0.322516
H292	H	1.346356	-0.533983	0.177484
N293	N	0.686112	-1.059607	-0.642365
N294	N	1.186112	-0.559607	-0.142365
H295	H	0.664910	-1.034025	-0.684649
H296	H	1.164910	-0.534025	-0.184649
H297	H	0.707386	-1.082226	-0.690778
H298	H	1.207386	-0.582226	-0.190778
