data_functionalizedCrystal
_audit_creation_method	'MofGen! by Chris Wilmer'
_symmetry_space_group_name_H-M	'P1'
_symmetry_Int_Tables_number	1
_symmetry_cell_setting	triclinic
loop_
_symmetry_equiv_pos_as_xyz
  x,y,z
_cell_length_a	6.817900
_cell_length_b	10.773890
_cell_length_c	14.858572
_cell_angle_alpha	96.150028
_cell_angle_beta	104.524003
_cell_angle_gamma	96.645716
loop_
_atom_site_label
_atom_site_type_symbol
_atom_site_fract_x
_atom_site_fract_y
_atom_site_fract_z
V1	V	-4.003650	-0.173375	-0.288438
V2	V	-3.503650	0.326625	0.211562
O3	O	-4.027117	0.007524	-0.284507
O4	O	-3.527117	0.507524	0.215493
O5	O	-3.921170	-0.342997	-0.284966
O6	O	-3.421170	0.157003	0.215034
O7	O	-3.960753	-0.171063	-0.414920
O8	O	-3.460753	0.328937	0.085080
O9	O	-3.987260	-0.165601	-0.153653
O10	O	-3.487260	0.334399	0.346347
V11	V	-4.490981	-0.151696	-0.272499
V12	V	-3.990981	0.348304	0.227501
O13	O	-4.256556	-0.220931	-0.323403
O14	O	-3.756556	0.279069	0.176597
O15	O	-4.688273	-0.104140	-0.237535
O16	O	-4.188273	0.395860	0.262465
O17	O	-4.350255	0.017926	-0.275971
O18	O	-3.850255	0.517926	0.224029
O19	O	-4.584911	-0.332595	-0.276431
O20	O	-4.084911	0.167405	0.223569
O21	O	-4.624768	-0.159470	-0.407284
O22	O	-4.124768	0.340530	0.092716
O23	O	-4.310672	-0.154008	-0.146017
O24	O	-3.810672	0.345992	0.353983
C25	C	-3.757702	-0.384337	-0.280029
C26	C	-3.257702	0.115663	0.219971
C27	C	-3.771588	-0.523007	-0.278034
C28	C	-3.271588	-0.023007	0.221966
C29	C	-3.949814	-0.590879	-0.281501
C30	C	-3.449814	-0.090879	0.218499
C31	C	-3.964170	-0.734203	-0.279439
C32	C	-3.464170	-0.234203	0.220561
C33	C	-3.808193	-0.165016	-0.445797
C34	C	-3.308193	0.334984	0.054203
C35	C	-3.854177	-0.164247	-0.549187
C36	C	-3.354177	0.335753	-0.049187
C37	C	-4.022481	-0.161439	-0.927780
C38	C	-3.522481	0.338561	-0.427780
C39	C	-3.975645	-0.162221	-0.822444
C40	C	-3.475645	0.337779	-0.322444
C41	C	-3.938330	-0.162845	-0.738487
C42	C	-3.438330	0.337155	-0.238487
C43	C	-3.891492	-0.163624	-0.633144
C44	C	-3.391492	0.336376	-0.133144
C45	C	-4.177064	0.059259	-0.280906
C46	C	-3.677064	0.559259	0.219094
C47	C	-4.142416	0.197928	-0.282907
C48	C	-3.642416	0.697928	0.217093
C49	C	-4.126573	-0.160060	-0.115135
C50	C	-3.626573	0.339940	0.384865
C51	C	-4.059828	-0.160822	-0.011745
C52	C	-3.559828	0.339178	0.488255
H53	H	-4.284390	-0.754082	-0.287407
H54	H	-3.784390	-0.254082	0.212593
O55	O	-4.137877	-0.527320	-0.287468
O56	O	-3.637877	-0.027320	0.212532
H57	H	-4.197319	-0.541827	-0.225754
H58	H	-3.697319	-0.041827	0.274246
H59	H	-3.629633	-0.571007	-0.273543
H60	H	-3.129633	-0.071007	0.226457
H61	H	-3.822202	-0.782197	-0.274948
H62	H	-3.322202	-0.282197	0.225052
