data_functionalizedCrystal
_audit_creation_method	'MofGen! by Chris Wilmer'
_symmetry_space_group_name_H-M	'P1'
_symmetry_Int_Tables_number	1
_symmetry_cell_setting	triclinic
loop_
_symmetry_equiv_pos_as_xyz
  x,y,z
_cell_length_a	11.169417
_cell_length_b	12.645330
_cell_length_c	11.169409
_cell_angle_alpha	90.034413
_cell_angle_beta	90.019824
_cell_angle_gamma	90.013525
loop_
_atom_site_label
_atom_site_type_symbol
_atom_site_fract_x
_atom_site_fract_y
_atom_site_fract_z
Zn1	Zn	1.834943	-0.421929	0.678525
Zn2	Zn	1.834824	-0.599240	0.477835
Zn3	Zn	1.634229	-0.421993	0.477860
Zn4	Zn	1.634228	-0.599153	0.678480
O5	O	1.734556	-0.510579	0.578175
O6	O	2.002877	-0.445458	0.651912
O7	O	1.808166	-0.575791	0.309889
O8	O	1.660904	-0.273637	0.504508
O9	O	2.002790	-0.575728	0.504466
O10	O	1.808368	-0.273590	0.651936
O11	O	1.660789	-0.445569	0.309907
O12	O	1.466279	-0.445485	0.504464
O13	O	1.660903	-0.575581	0.846436
O14	O	1.466279	-0.575644	0.651859
O15	O	1.808367	-0.445375	0.846469
O16	O	1.808165	-0.747575	0.504422
O17	O	1.660788	-0.747512	0.651835
C18	C	1.422732	-0.510563	0.578160
C19	C	1.289332	-0.510581	0.578181
C20	C	1.734496	-0.786008	0.578147
C21	C	1.734580	-0.903838	0.578175
C22	C	1.827146	-1.071398	0.485249
C23	C	1.827448	-0.948838	0.485476
C24	C	1.768886	-0.948206	0.704683
C25	C	1.769620	-1.070804	0.704190
C26	C	1.607672	-1.071171	0.545839
C27	C	1.608281	-0.948567	0.543001
C28	C	2.047599	-0.510596	0.578191
C29	C	2.180998	-0.510603	0.578198
C30	C	1.734648	-0.510461	0.891218
C31	C	1.734688	-0.510411	1.024618
C32	C	1.734649	-0.234073	0.578230
C33	C	1.734689	-0.116243	0.578253
C34	C	1.734533	-0.510619	0.266350
C35	C	1.734727	-0.510371	0.132951
H36	H	1.805984	-0.918846	0.391672
H37	H	1.576477	-1.102191	0.455196
H38	H	1.860680	-0.917413	0.732599
O39	O	1.577570	-0.913853	0.431947
C40	C	1.669869	-0.849450	0.386172
H41	H	1.724908	-0.816069	0.463417
H42	H	1.730159	-0.898561	0.325414
C43	C	1.547300	-0.798849	0.219025
C44	C	1.614894	-0.757843	0.313899
H45	H	1.513391	-0.742344	0.174439
H46	H	1.485118	-0.842242	0.249861
H47	H	1.597553	-0.839775	0.168406
H48	H	1.564638	-0.716930	0.364524
H49	H	1.677067	-0.714441	0.283069
O50	O	1.521811	-0.911977	0.618022
C51	C	1.573856	-0.844766	0.704328
H52	H	1.673020	-0.864351	0.713875
H53	H	1.563421	-0.758974	0.674809
C54	C	1.389056	-0.836729	0.813854
C55	C	1.510849	-0.860790	0.825588
H56	H	1.350188	-0.846609	0.888653
H57	H	1.353990	-0.882007	0.755707
H58	H	1.380376	-0.765237	0.789251
H59	H	1.519527	-0.932285	0.850176
H60	H	1.545915	-0.815524	0.883743
H61	H	1.538784	-1.100172	0.613577
H62	H	1.805950	-1.100962	0.391170
O63	O	1.938708	-1.108118	0.510721
C64	C	1.933563	-1.174220	0.612201
H65	H	1.850924	-1.153733	0.667403
H66	H	1.928288	-1.260321	0.582338
C67	C	2.148198	-1.182954	0.621026
C68	C	2.046705	-1.157786	0.688831
H69	H	2.217991	-1.172822	0.668293
H70	H	2.151666	-1.138423	0.552654
H71	H	2.143785	-1.254704	0.596144
H72	H	2.051111	-1.086034	0.713699
H73	H	2.043241	-1.202304	0.757209
H74	H	1.921524	-0.919426	0.506916
O75	O	1.880301	-1.104874	0.737135
C76	C	1.871030	-1.166892	0.841584
H77	H	1.785371	-1.145394	0.891428
H78	H	1.868636	-1.254166	0.816037
C79	C	2.085058	-1.172187	0.861638
C80	C	1.979854	-1.145776	0.922863
H81	H	2.152187	-1.159167	0.911773
H82	H	2.091305	-1.130408	0.791266
H83	H	2.083046	-1.244914	0.840352
H84	H	1.981860	-1.073048	0.944134
H85	H	1.973610	-1.187543	0.993240
O86	O	1.692928	-1.106149	0.789839
C87	C	1.729989	-1.068438	0.902744
H88	H	1.829585	-1.048898	0.899775
H89	H	1.677179	-0.994169	0.926377
C90	C	1.584947	-1.177966	1.001810
C91	C	1.707275	-1.153975	0.998166
H92	H	1.570932	-1.230726	1.060673
H93	H	1.559974	-1.203370	0.925744
H94	H	1.540953	-1.116068	1.021500
H95	H	1.751266	-1.215869	0.978462
H96	H	1.732255	-1.128583	1.074232
O97	O	1.691165	-0.913410	0.789715
C98	C	1.754170	-0.855229	0.877115
H99	H	1.852330	-0.879896	0.876559
H100	H	1.747050	-0.767196	0.856347
C101	C	1.579450	-0.846977	1.002075
C102	C	1.700010	-0.877280	1.001399
H103	H	1.546039	-0.860574	1.078738
H104	H	1.537000	-0.886171	0.943190
H105	H	1.573533	-0.773618	0.984762
H106	H	1.705923	-0.950640	1.018696
H107	H	1.742459	-0.838098	1.060290
