data_functionalizedCrystal
_audit_creation_method	'MofGen! by Chris Wilmer'
_symmetry_space_group_name_H-M	'P1'
_symmetry_Int_Tables_number	1
_symmetry_cell_setting	triclinic
loop_
_symmetry_equiv_pos_as_xyz
  x,y,z
_cell_length_a	12.837942
_cell_length_b	12.837943
_cell_length_c	11.295483
_cell_angle_alpha	94.538773
_cell_angle_beta	94.530417
_cell_angle_gamma	85.171060
loop_
_atom_site_label
_atom_site_type_symbol
_atom_site_fract_x
_atom_site_fract_y
_atom_site_fract_z
O1	O	0.265788	-1.408689	-0.099003
O2	O	0.252345	-1.105556	-0.099010
O3	O	0.107500	-1.250401	-0.098999
O4	O	0.410633	-1.263845	-0.099013
O5	O	0.120201	-1.237676	0.099051
O6	O	0.265045	-1.092832	0.099040
O7	O	0.278489	-1.395965	0.099047
Cu8	Cu	0.272927	-1.243237	0.117127
Cu9	Cu	0.257907	-1.258285	-0.117090
O10	O	0.423333	-1.251121	0.099037
C11	C	0.254153	-1.060125	0.000014
C12	C	0.240609	-0.943710	0.000012
C13	C	0.074781	-1.239497	0.000025
C14	C	-0.041634	-1.225953	0.000023
C15	C	0.276680	-1.441396	0.000021
C16	C	0.290224	-1.557812	0.000015
C17	C	-0.266509	-1.388784	0.000002
C18	C	-0.375892	-1.376062	-0.000000
C19	C	-0.369784	-1.187791	0.000008
C20	C	-0.260402	-1.200512	0.000010
C21	C	-0.208768	-1.301011	0.000009
C22	C	-0.099383	-1.313731	0.000020
C23	C	-0.093278	-1.125461	0.000019
C24	C	-0.202660	-1.112740	0.000017
C25	C	0.456052	-1.262024	0.000010
C26	C	0.572467	-1.275569	0.000004
N27	N	0.283491	-1.232661	0.281863
C28	C	0.403439	-0.718835	0.000021
C29	C	0.390717	-0.609453	0.000020
C30	C	0.202446	-0.615561	0.000016
C31	C	0.215167	-0.724943	0.000017
C32	C	0.315667	-0.776576	0.000018
C33	C	0.328387	-0.885961	0.000011
C34	C	0.140117	-0.892066	0.000016
C35	C	0.127396	-0.782684	0.000015
N36	N	0.247335	-1.268868	-0.281825
C37	C	0.171231	-1.344996	0.531161
C38	C	0.179223	-1.337012	0.655824
C39	C	0.307459	-1.208702	0.655854
C40	C	0.299467	-1.216687	0.531191
C41	C	0.231353	-1.284837	0.468849
C42	C	0.223367	-1.292826	0.344183
C43	C	0.351597	-1.164512	0.344216
C44	C	0.359589	-1.156528	0.468879
H45	H	-0.224468	-1.470613	0.000013
H46	H	-0.422901	-1.447536	-0.000010
H47	H	0.120630	-0.573495	0.000114
H48	H	0.362909	-1.153209	0.706630
O49	O	0.410059	-1.106227	0.283559
C50	C	0.475607	-1.173298	0.211468
H51	H	0.440843	-1.252289	0.192770
H52	H	0.482225	-1.136858	0.123815
H53	H	0.556757	-1.184983	0.259520
H54	H	-0.046252	-1.053990	0.000034
O55	O	0.054801	-0.948122	-0.000196
C56	C	-0.012157	-0.929813	-0.102754
H57	H	0.034834	-0.902561	-0.174442
H58	H	-0.048700	-1.005341	-0.137189
H59	H	-0.076748	-0.866734	-0.079563
O60	O	0.157094	-1.358856	0.283516
C61	C	0.082311	-1.300984	0.211482
H62	H	0.114716	-1.224411	0.192796
H63	H	0.064399	-1.348650	0.123820
H64	H	0.007347	-1.283097	0.259577
H65	H	0.410219	-0.928000	0.000014
H66	H	0.485269	-0.760876	0.000020
O67	O	0.476086	-0.553525	-0.000035
C68	C	0.567514	-0.622557	-0.000003
H69	H	0.546583	-0.703833	-0.037495
H70	H	0.625991	-0.592513	-0.057502
H71	H	0.603900	-0.627146	0.095013
H72	H	0.045572	-0.740628	0.000028
H73	H	0.115777	-1.400494	0.480401
H74	H	0.130265	-1.385998	0.706555
H75	H	0.415044	-1.101038	0.519653
H76	H	-0.057344	-1.395563	0.000023
O77	O	-0.420083	-1.090239	-0.000156
C78	C	-0.489719	-1.083837	-0.102749
H79	H	-0.510932	-1.165863	-0.136949
H80	H	-0.563876	-1.033582	-0.079689
H81	H	-0.450661	-1.046892	-0.174569
O82	O	-0.252950	-1.015184	-0.000138
C83	C	-0.322590	-1.008765	-0.102727
H84	H	-0.343817	-1.090784	-0.136934
H85	H	-0.396739	-0.958500	-0.079657
H86	H	-0.283529	-0.971819	-0.174544
