data_functionalizedCrystal
_audit_creation_method	'MofGen! by Chris Wilmer'
_symmetry_space_group_name_H-M	'P1'
_symmetry_Int_Tables_number	1
_symmetry_cell_setting	triclinic
loop_
_symmetry_equiv_pos_as_xyz
  x,y,z
_cell_length_a	12.594517
_cell_length_b	19.121063
_cell_length_c	12.594509
_cell_angle_alpha	87.594190
_cell_angle_beta	90.021327
_cell_angle_gamma	92.468805
loop_
_atom_site_label
_atom_site_type_symbol
_atom_site_fract_x
_atom_site_fract_y
_atom_site_fract_z
Zn1	Zn	1.609106	-0.279596	0.619881
Zn2	Zn	2.109106	0.220404	1.119881
Zn3	Zn	1.601367	-0.397059	0.449473
Zn4	Zn	2.101367	0.102941	0.949473
Zn5	Zn	1.431108	-0.279626	0.441911
Zn6	Zn	1.931108	0.220374	0.941911
Zn7	Zn	1.423466	-0.397010	0.627400
Zn8	Zn	1.923466	0.102990	1.127400
O9	O	1.516262	-0.338323	0.534666
O10	O	2.016262	0.161677	1.034666
O11	O	1.757025	-0.295185	0.597293
O12	O	2.257025	0.204815	1.097293
O13	O	1.578742	-0.381514	0.299526
O14	O	2.078742	0.118486	0.799526
O15	O	1.461157	-0.181338	0.459208
O16	O	1.961157	0.318662	0.959208
O17	O	1.751339	-0.381485	0.472096
O18	O	2.251339	0.118515	0.972096
O19	O	1.591931	-0.181315	0.589961
O20	O	2.091931	0.318685	1.089961
O21	O	1.453653	-0.295237	0.293971
O22	O	1.953653	0.204763	0.793971
O23	O	1.281149	-0.295189	0.466499
O24	O	1.781149	0.204811	0.966499
O25	O	1.448132	-0.381402	0.775346
O26	O	1.948132	0.118598	1.275346
O27	O	1.275534	-0.381431	0.602777
O28	O	1.775534	0.118569	1.102777
O29	O	1.584521	-0.295138	0.769822
O30	O	2.084521	0.204862	1.269822
O31	O	1.571331	-0.495337	0.479386
O32	O	2.071331	0.004663	0.979386
O33	O	1.440628	-0.495301	0.610109
O34	O	1.940628	0.004699	1.110109
C35	C	1.239722	-0.338309	0.534634
C36	C	1.739722	0.161691	1.034634
C37	C	1.121416	-0.338319	0.534646
C38	C	1.621416	0.161681	1.034646
C39	C	1.055190	-0.291349	0.460657
C40	C	1.555190	0.208651	0.960657
C41	C	0.980217	-0.355414	0.438606
C42	C	1.480217	0.144586	0.938606
C43	C	0.985587	-0.274285	0.556717
C44	C	1.485587	0.225715	1.056717
C45	C	1.047999	-0.402419	0.512547
C46	C	1.547999	0.097581	1.012547
C47	C	1.053378	-0.321246	0.630701
C48	C	1.553378	0.178754	1.130701
C49	C	0.978435	-0.385356	0.608690
C50	C	1.478435	0.114644	1.108690
C51	C	1.504339	-0.520803	0.546407
C52	C	2.004339	-0.020803	1.046407
C53	C	1.499336	-0.598868	0.551466
C54	C	1.999336	-0.098868	1.051466
C55	C	1.565089	-0.635539	0.485838
C56	C	2.065089	-0.135539	0.985838
C57	C	1.560390	-0.708890	0.490602
C58	C	2.060390	-0.208890	0.990602
C59	C	1.489932	-0.745569	0.560988
C60	C	1.989932	-0.245569	1.060988
C61	C	1.424176	-0.708893	0.626623
C62	C	1.924176	-0.208893	1.126623
C63	C	1.428881	-0.635544	0.621864
C64	C	1.928881	-0.135544	1.121864
C65	C	1.472323	-0.967038	0.578765
C66	C	1.972323	-0.467038	1.078765
C67	C	1.467620	-1.040393	0.583517
C68	C	1.967620	-0.540393	1.083517
C69	C	1.603835	-1.040385	0.447497
C70	C	2.103835	-0.540385	0.947497
C71	C	1.608530	-0.967034	0.442740
C72	C	2.108530	-0.467034	0.942740
C73	C	1.542779	-0.930365	0.508378
C74	C	2.042779	-0.430365	1.008378
C75	C	1.485124	-0.820546	0.565857
C76	C	1.985124	-0.320546	1.065857
C77	C	1.547592	-0.855389	0.503514
C78	C	2.047592	-0.355389	1.003514
C79	C	1.793882	-0.338337	0.534699
C80	C	2.293882	0.161663	1.034699
C81	C	1.912187	-0.338343	0.534713
C82	C	2.412187	0.161657	1.034713
C83	C	1.516337	-0.338261	0.812283
C84	C	2.016337	0.161739	1.312283
C85	C	1.516369	-0.338235	0.930587
C86	C	2.016369	0.161765	1.430587
C87	C	1.528260	-0.155130	0.522903
C88	C	2.028260	0.344870	1.022903
C89	C	1.533373	-0.077064	0.517890
C90	C	2.033373	0.422936	1.017890
C91	C	1.516251	-0.338333	0.258126
C92	C	2.016251	0.161667	0.758126
C93	C	1.516438	-0.338162	0.139810
C94	C	2.016438	0.161838	0.639810
C95	C	1.442211	-0.385127	1.002843
C96	C	1.942211	0.114873	1.502843
C97	C	1.538217	-0.402288	1.074740
C98	C	2.038217	0.097712	1.574740
C99	C	1.420442	-0.321032	1.069487
C100	C	1.920442	0.178968	1.569487
C101	C	1.612424	-0.355429	1.000927
C102	C	2.112424	0.144571	1.500927
C103	C	1.494585	-0.274143	0.995667
C104	C	1.994585	0.225857	1.495667
C105	C	1.590659	-0.291280	1.067530
C106	C	2.090659	0.208720	1.567530
H107	H	1.088788	-0.251666	0.398014
H108	H	1.588788	0.248334	0.898014
H109	H	1.075422	-0.456598	0.493817
H110	H	1.575422	0.043402	0.993817
O111	O	0.937684	-0.374565	0.331052
O112	O	1.437684	0.125435	0.831052
H113	H	0.968506	-0.335491	0.269741
H114	H	1.468506	0.164509	0.769741
H115	H	1.427755	-0.850418	0.623164
H116	H	1.927755	-0.350418	1.123164
H117	H	1.410257	-1.070255	0.640852
H118	H	1.910257	-0.570255	1.140852
H119	H	1.653471	-0.251593	1.095834
H120	H	2.153471	0.248407	1.595834
H121	H	0.945025	-0.425134	0.671292
H122	H	1.445025	0.074866	1.171292
H123	H	1.379541	-0.424844	0.974345
H124	H	1.879541	0.075156	1.474345
O125	O	1.095947	-0.302077	0.738226
O126	O	1.595947	0.197923	1.238226
H127	H	1.071128	-0.248864	0.756338
H128	H	1.571128	0.251136	1.256338
H129	H	1.622458	-0.605680	0.428518
H130	H	2.122458	-0.105680	0.928518
O131	O	1.674782	-1.079934	0.376734
O132	O	2.174782	-0.579934	0.876734
H133	H	1.659691	-1.137101	0.391879
H134	H	2.159691	-0.637101	0.891879
O135	O	1.401376	-0.927491	0.649524
O136	O	1.901376	-0.427491	1.149524
H137	H	1.351576	-0.965321	0.699246
H138	H	1.851576	-0.465321	1.199246
O139	O	1.562677	-0.474036	1.120584
O140	O	2.062677	0.025964	1.620584
H141	H	1.500983	-0.512899	1.094770
H142	H	2.000983	-0.012899	1.594770
O143	O	0.949091	-0.202543	0.581426
O144	O	1.449091	0.297457	1.081426
H145	H	0.979925	-0.163645	0.519870
H146	H	1.479925	0.336355	1.019870
H147	H	1.693597	-0.370011	0.970908
H148	H	2.193597	0.129989	1.470908
H149	H	1.613932	-0.738745	0.437161
H150	H	2.113932	-0.238745	0.937161
H151	H	1.665902	-0.937172	0.385426
H152	H	2.165902	-0.437172	0.885426
O153	O	1.348167	-0.748449	0.702530
O154	O	1.848167	-0.248449	1.202530
H155	H	1.355928	-0.805615	0.694803
H156	H	1.855928	-0.305615	1.194803
H157	H	1.339288	-0.306512	1.099641
H158	H	1.839288	0.193488	1.599641
O159	O	1.357964	-0.595986	0.692646
O160	O	1.857964	-0.095986	1.192646
H161	H	1.305987	-0.562615	0.642791
H162	H	1.805987	-0.062615	1.142791
O163	O	1.470083	-0.202421	0.949769
O164	O	1.970083	0.297579	1.449769
H165	H	1.390340	-0.188291	0.977142
H166	H	1.890340	0.311709	1.477142
O167	O	1.623598	-0.815829	0.427615
O168	O	2.123598	-0.315829	0.927615
H169	H	1.578133	-0.782461	0.371254
H170	H	2.078133	-0.282461	0.871254
