data_functionalizedCrystal
_audit_creation_method	'MofGen! by Chris Wilmer'
_symmetry_space_group_name_H-M	'P1'
_symmetry_Int_Tables_number	1
_symmetry_cell_setting	triclinic
loop_
_symmetry_equiv_pos_as_xyz
  x,y,z
_cell_length_a	14.971486
_cell_length_b	15.995350
_cell_length_c	13.448316
_cell_angle_alpha	89.995627
_cell_angle_beta	89.998199
_cell_angle_gamma	83.553252
loop_
_atom_site_label
_atom_site_type_symbol
_atom_site_fract_x
_atom_site_fract_y
_atom_site_fract_z
O1	O	1.186823	0.109116	-0.082572
O2	O	1.520156	0.442450	0.250761
O3	O	1.853489	0.775783	0.584094
O4	O	0.926408	0.122183	-0.082599
O5	O	1.259741	0.455517	0.250734
O6	O	1.593074	0.788850	0.584068
O7	O	1.063734	-0.006231	-0.082584
O8	O	1.397067	0.327103	0.250749
O9	O	1.730400	0.660436	0.584083
O10	O	1.049497	0.237530	-0.082587
O11	O	1.382830	0.570864	0.250746
O12	O	1.716163	0.904197	0.584079
O13	O	1.063717	-0.006239	0.082800
O14	O	1.397050	0.327095	0.416133
O15	O	1.730383	0.660428	0.749466
O16	O	0.926390	0.122175	0.082785
O17	O	1.259724	0.455509	0.416118
O18	O	1.593057	0.788842	0.749452
O19	O	1.186805	0.109109	0.082811
O20	O	1.520139	0.442442	0.416145
O21	O	1.853472	0.775775	0.749478
Cu22	Cu	1.056596	0.115641	0.097899
Cu23	Cu	1.389930	0.448975	0.431232
Cu24	Cu	1.723263	0.782308	0.764566
Cu25	Cu	1.056617	0.115651	-0.097687
Cu26	Cu	1.389950	0.448984	0.235647
Cu27	Cu	1.723283	0.782317	0.568980
O28	O	1.049479	0.237523	0.082796
O29	O	1.382813	0.570856	0.416130
O30	O	1.716146	0.904189	0.749463
C31	C	0.893075	0.121595	0.000090
C32	C	1.226408	0.454928	0.333423
C33	C	1.559742	0.788262	0.666756
C34	C	0.793780	0.119844	0.000079
C35	C	1.127113	0.453177	0.333413
C36	C	1.460447	0.786511	0.666746
C37	C	0.736468	0.195284	0.000080
C38	C	1.069802	0.528617	0.333413
C39	C	1.403135	0.861950	0.666746
C40	C	0.643171	0.193633	0.000095
C41	C	0.976504	0.526966	0.333428
C42	C	1.309838	0.860300	0.666761
C43	C	0.607187	0.116542	0.000102
C44	C	0.940520	0.449875	0.333435
C45	C	1.273853	0.783209	0.666769
C46	C	0.664505	0.041097	0.000104
C47	C	0.997839	0.374430	0.333438
C48	C	1.331172	0.707763	0.666771
C49	C	0.757801	0.042748	0.000097
C50	C	1.091135	0.376081	0.333430
C51	C	1.424468	0.709415	0.666763
C52	C	0.470047	0.037660	0.000118
C53	C	0.803380	0.370993	0.333452
C54	C	1.136714	0.704327	0.666785
C55	C	0.376745	0.036008	0.000124
C56	C	0.710078	0.369342	0.333457
C57	C	1.043411	0.702675	0.666791
C58	C	0.355417	0.188545	0.000116
C59	C	0.688750	0.521879	0.333449
C60	C	1.022083	0.855212	0.666783
C61	C	0.448712	0.190197	0.000108
C62	C	0.782046	0.523530	0.333442
C63	C	1.115379	0.856863	0.666775
C64	C	0.506025	0.114751	0.000109
C65	C	0.839358	0.448084	0.333442
C66	C	1.172691	0.781417	0.666776
C67	C	1.063137	-0.037430	0.000106
C68	C	1.396470	0.295903	0.333439
C69	C	1.729803	0.629237	0.666773
C70	C	1.061372	-0.130382	0.000100
C71	C	1.394705	0.202951	0.333433
C72	C	1.728039	0.536285	0.666767
C73	C	1.055035	-0.468136	0.000103
C74	C	1.388368	-0.134803	0.333436
C75	C	1.721702	0.198531	0.666769
C76	C	0.957234	-0.420800	-0.000278
C77	C	1.290567	-0.087466	0.333055
C78	C	1.623900	0.245867	0.666389
C79	C	0.958999	-0.324108	0.000095
C80	C	1.292332	0.009226	0.333428
C81	C	1.625665	0.342559	0.666762
C82	C	1.058178	-0.300572	0.000101
C83	C	1.391512	0.032761	0.333434
C84	C	1.724845	0.366094	0.666768
C85	C	1.106407	-0.341606	0.094546
C86	C	1.439741	-0.008273	0.427880
C87	C	1.773074	0.325061	0.761213
C88	C	1.103951	-0.438244	0.094625
C89	C	1.437284	-0.104911	0.427958
C90	C	1.770617	0.228423	0.761292
C91	C	1.105990	-0.438591	-0.093447
C92	C	1.439324	-0.105258	0.239886
C93	C	1.772657	0.228075	0.573220
C94	C	1.105967	-0.341646	-0.094695
C95	C	1.439301	-0.008312	0.238638
C96	C	1.772634	0.325021	0.571972
C97	C	1.059960	-0.205873	0.000103
C98	C	1.393293	0.127460	0.333436
C99	C	1.726627	0.460794	0.666770
C100	C	1.053256	-0.562835	0.000107
C101	C	1.386589	-0.229502	0.333441
C102	C	1.719923	0.103831	0.666774
C103	C	1.220138	0.109697	0.000121
C104	C	1.553471	0.443030	0.333454
C105	C	1.886805	0.776364	0.666787
C106	C	1.319433	0.111448	0.000124
C107	C	1.652767	0.444781	0.333458
C108	C	1.986100	0.778115	0.666791
C109	C	1.050077	0.268722	0.000104
C110	C	1.383410	0.602055	0.333438
C111	C	1.716743	0.935388	0.666771
C112	C	1.051841	0.361674	0.000104
C113	C	1.385174	0.695007	0.333437
C114	C	1.718508	1.028341	0.666770
N115	N	1.056589	0.115634	0.235463
N116	N	1.389922	0.448967	0.568797
N117	N	1.723255	0.782301	0.902130
N118	N	1.056632	0.115651	-0.235251
N119	N	1.389965	0.448984	0.098082
N120	N	1.723298	0.782318	0.431416
C121	C	1.117415	0.058796	0.287510
C122	C	1.450749	0.392129	0.620844
C123	C	1.784082	0.725463	0.954177
C124	C	1.117421	0.058795	0.391613
C125	C	1.450754	0.392129	0.724947
C126	C	1.784088	0.725462	1.058280
C127	C	1.056603	0.115637	0.443668
C128	C	1.389937	0.448971	0.777001
C129	C	1.723270	0.782304	1.110335
C130	C	0.995770	0.172478	0.391614
C131	C	1.329103	0.505812	0.724947
C132	C	1.662437	0.839145	1.058280
C133	C	0.995761	0.172474	0.287512
C134	C	1.329094	0.505808	0.620846
C135	C	1.662427	0.839141	0.954179
C136	C	0.995795	0.172484	0.608594
C137	C	1.329128	0.505817	0.941927
C138	C	1.662461	0.839151	1.275260
C139	C	0.995805	0.172489	0.712702
C140	C	1.329138	0.505823	1.046036
C141	C	1.662471	0.839156	1.379369
C142	C	1.117455	0.058805	0.712695
C143	C	1.450788	0.392138	1.046028
C144	C	1.784122	0.725471	1.379362
C145	C	1.117446	0.058801	0.608594
C146	C	1.450779	0.392134	0.941927
C147	C	1.784113	0.725468	1.275260
C148	C	1.056613	0.115643	0.556546
C149	C	1.389947	0.448976	0.889880
C150	C	1.723280	0.782310	1.223213
H151	H	0.596511	0.255064	0.000094
H152	H	0.929844	0.588397	0.333427
H153	H	1.263178	0.921731	0.666760
H154	H	0.918310	-0.440436	0.067066
H155	H	1.251643	-0.107103	0.400399
H156	H	1.584977	0.226231	0.733732
H157	H	0.635200	-0.021672	0.000125
H158	H	0.968533	0.311661	0.333458
H159	H	1.301866	0.644994	0.666791
H160	H	0.516709	-0.023776	0.000120
H161	H	0.850042	0.309557	0.333454
H162	H	1.183376	0.642891	0.666787
Cl163	Cl	0.919342	0.243950	0.778134
Cl164	Cl	1.252676	0.577283	1.111467
Cl165	Cl	1.586009	0.910617	1.444801
Cl166	Cl	0.919286	0.243929	0.222083
Cl167	Cl	1.252619	0.577262	0.555416
Cl168	Cl	1.585952	0.910596	0.888749
H169	H	0.804464	-0.018683	0.000096
H170	H	1.137797	0.314650	0.333429
H171	H	1.471131	0.647984	0.666762
H172	H	0.921087	-0.295720	-0.067608
H173	H	1.254420	0.037613	0.265726
H174	H	1.587753	0.370946	0.599059
Cl175	Cl	1.217635	-0.317813	-0.103500
Cl176	Cl	1.550968	0.015520	0.229834
Cl177	Cl	1.884301	0.348854	0.563167
H178	H	1.166986	0.012522	0.755078
H179	H	1.500320	0.345855	1.088411
H180	H	1.833653	0.679189	1.421744
H181	H	0.918151	-0.439367	-0.068007
H182	H	1.251484	-0.106034	0.265326
H183	H	1.584817	0.227299	0.598660
H184	H	0.347450	-0.026766	0.000131
H185	H	0.680783	0.306568	0.333465
H186	H	1.014116	0.639901	0.666798
Cl187	Cl	0.781696	0.292204	0.000064
Cl188	Cl	1.115029	0.625537	0.333397
Cl189	Cl	1.448362	0.958870	0.666731
Cl190	Cl	0.493948	0.287112	0.000088
Cl191	Cl	0.827282	0.620446	0.333421
Cl192	Cl	1.160615	0.953779	0.666755
Cl193	Cl	0.283367	0.283392	0.000117
Cl194	Cl	0.616701	0.616725	0.333451
Cl195	Cl	0.950034	0.950058	0.666784
H196	H	0.920818	-0.296284	0.067905
H197	H	1.254151	0.037049	0.401238
H198	H	1.587484	0.370382	0.734572
Cl199	Cl	0.919308	0.243935	0.457051
Cl200	Cl	1.252641	0.577268	0.790384
Cl201	Cl	1.585974	0.910602	1.123718
H202	H	1.166944	0.012512	0.245134
H203	H	1.500277	0.345845	0.578468
H204	H	1.833611	0.679179	0.911801
Cl205	Cl	1.051973	-0.299136	-0.202584
Cl206	Cl	1.385307	0.034198	0.130749
Cl207	Cl	1.718640	0.367531	0.464082
H208	H	1.068767	-0.456584	0.165220
H209	H	1.402101	-0.123251	0.498553
H210	H	1.735434	0.210082	0.831887
H211	H	1.178099	-0.470280	-0.094077
H212	H	1.511432	-0.136946	0.239256
H213	H	1.844766	0.196387	0.572589
H214	H	1.074022	-0.459159	-0.165031
H215	H	1.407355	-0.125826	0.168303
H216	H	1.740689	0.207507	0.501636
Cl217	Cl	0.919315	0.243943	0.543167
Cl218	Cl	1.252649	0.577276	0.876500
Cl219	Cl	1.585982	0.910610	1.209834
H220	H	1.175754	-0.470421	0.098915
H221	H	1.509088	-0.137087	0.432248
H222	H	1.842421	0.196246	0.765581
H223	H	1.179272	-0.327407	0.098063
H224	H	1.512605	0.005926	0.431396
H225	H	1.845938	0.339259	0.764730
H226	H	1.166950	0.012513	0.433990
H227	H	1.500284	0.345846	0.767323
H228	H	1.833617	0.679179	1.100656
H229	H	1.072896	-0.313261	0.164825
H230	H	1.406229	0.020072	0.498158
H231	H	1.739562	0.353405	0.831492
Cl232	Cl	1.193908	-0.012653	0.543152
Cl233	Cl	1.527241	0.320680	0.876485
Cl234	Cl	1.860574	0.654014	1.209818
