data_functionalizedCrystal
_audit_creation_method	'MofGen! by Chris Wilmer'
_symmetry_space_group_name_H-M	'P1'
_symmetry_Int_Tables_number	1
_symmetry_cell_setting	triclinic
loop_
_symmetry_equiv_pos_as_xyz
  x,y,z
_cell_length_a	14.971486
_cell_length_b	15.995350
_cell_length_c	13.448316
_cell_angle_alpha	89.995627
_cell_angle_beta	89.998199
_cell_angle_gamma	83.553252
loop_
_atom_site_label
_atom_site_type_symbol
_atom_site_fract_x
_atom_site_fract_y
_atom_site_fract_z
O1	O	1.186823	0.109116	-0.082572
O2	O	0.926408	0.122183	-0.082599
O3	O	1.063734	-0.006231	-0.082584
O4	O	1.049497	0.237530	-0.082587
O5	O	1.063717	-0.006239	0.082800
O6	O	0.926390	0.122175	0.082785
O7	O	1.186805	0.109109	0.082811
Cu8	Cu	1.056596	0.115641	0.097899
Cu9	Cu	1.056617	0.115651	-0.097687
O10	O	1.049479	0.237523	0.082796
C11	C	0.893075	0.121595	0.000090
C12	C	0.793780	0.119844	0.000079
C13	C	1.063137	-0.037430	0.000106
C14	C	1.061372	-0.130382	0.000100
C15	C	0.736468	0.195284	0.000080
C16	C	0.643171	0.193633	0.000095
C17	C	0.607187	0.116542	0.000102
C18	C	0.664505	0.041097	0.000104
C19	C	0.757801	0.042748	0.000097
C20	C	0.470047	0.037660	0.000118
C21	C	0.376745	0.036008	0.000124
C22	C	0.355417	0.188545	0.000116
C23	C	0.448712	0.190197	0.000108
C24	C	0.506025	0.114751	0.000109
C25	C	1.055035	-0.468136	0.000103
C26	C	0.957234	-0.420800	-0.000278
C27	C	0.958999	-0.324108	0.000095
C28	C	1.058178	-0.300572	0.000101
C29	C	1.106407	-0.341606	0.094546
C30	C	1.103951	-0.438244	0.094625
C31	C	1.105990	-0.438591	-0.093447
C32	C	1.105967	-0.341646	-0.094695
C33	C	1.059960	-0.205873	0.000103
C34	C	1.053256	-0.562835	0.000107
C35	C	1.220138	0.109697	0.000121
C36	C	1.319433	0.111448	0.000124
C37	C	1.050077	0.268722	0.000104
C38	C	1.051841	0.361674	0.000104
N39	N	1.056589	0.115634	0.235463
N40	N	1.056632	0.115651	-0.235251
C41	C	1.117415	0.058796	0.287510
C42	C	1.117421	0.058795	0.391613
C43	C	1.056603	0.115637	0.443668
C44	C	0.995770	0.172478	0.391614
C45	C	0.995761	0.172474	0.287512
C46	C	0.995795	0.172484	0.608594
C47	C	0.995805	0.172489	0.712702
C48	C	1.117455	0.058805	0.712695
C49	C	1.117446	0.058801	0.608594
C50	C	1.056613	0.115643	0.556546
H51	H	0.596511	0.255064	0.000094
O52	O	1.176391	0.003501	0.442211
C53	C	1.195471	-0.110794	0.559790
C54	C	1.128584	-0.048230	0.502538
H55	H	1.156846	-0.152623	0.608595
H56	H	1.238926	-0.151474	0.504743
H57	H	1.240169	-0.074554	0.608472
H58	H	1.083828	-0.084403	0.453855
H59	H	1.085192	-0.007551	0.557640
H60	H	0.946228	0.218757	0.245137
O61	O	1.176430	0.003614	0.557867
C62	C	1.298219	-0.014335	0.439894
C63	C	1.231607	0.048316	0.497372
H64	H	1.342835	0.021782	0.390954
H65	H	1.341779	-0.055080	0.494795
H66	H	1.259308	-0.056096	0.391328
H67	H	1.270446	0.090132	0.545940
H68	H	1.188048	0.089002	0.442418
H69	H	0.946280	0.218775	0.755080
H70	H	0.946255	0.218769	0.566220
O71	O	1.176670	0.003671	0.763206
C72	C	1.332199	-0.045168	0.795002
C73	C	1.265236	0.017322	0.737747
H74	H	1.403819	-0.034164	0.774424
H75	H	1.321834	-0.035404	0.878358
H76	H	1.320509	-0.112246	0.774558
H77	H	1.276885	0.084425	0.758108
H78	H	1.275617	0.007485	0.654405
H79	H	1.175754	-0.470421	0.098915
H80	H	1.074022	-0.459159	-0.165031
O81	O	0.483782	0.265026	0.000217
C82	C	0.576724	0.355428	0.085882
C83	C	0.537079	0.270649	0.085877
H84	H	0.619808	0.360009	0.155141
H85	H	0.619922	0.360009	0.016706
H86	H	0.519730	0.409059	0.085830
H87	H	0.594016	0.216968	0.085964
H88	H	0.493858	0.266140	0.155047
H89	H	0.946247	0.218758	0.434002
H90	H	0.921087	-0.295720	-0.067608
H91	H	0.920818	-0.296284	0.067905
O92	O	1.066428	-0.307943	0.178463
C93	C	0.987904	-0.333785	0.329847
C94	C	1.033177	-0.372018	0.234868
H95	H	0.960991	-0.385568	0.375466
H96	H	1.039147	-0.302881	0.375777
H97	H	0.929997	-0.284581	0.308573
H98	H	1.091078	-0.421254	0.256052
H99	H	0.981878	-0.402868	0.188963
O100	O	1.064027	-0.308983	-0.178026
C101	C	1.020019	-0.184399	-0.274879
C102	C	1.067563	-0.221290	-0.180486
H103	H	1.022845	-0.113493	-0.276889
H104	H	1.055075	-0.214437	-0.343434
H105	H	0.946875	-0.197958	-0.274162
H106	H	1.140708	-0.207743	-0.181107
H107	H	1.032437	-0.191251	-0.111973
H108	H	1.179272	-0.327407	0.098063
H109	H	1.068767	-0.456584	0.165220
H110	H	1.178294	-0.326211	-0.100393
H111	H	0.765759	0.258060	0.000073
O112	O	0.299837	0.261889	0.000253
C113	C	0.253022	0.391733	0.085954
C114	C	0.316037	0.308718	0.085918
H115	H	0.266084	0.429610	0.155217
H116	H	0.266109	0.429726	0.016782
H117	H	0.180168	0.377290	0.085918
H118	H	0.388913	0.323085	0.085989
H119	H	0.302873	0.270750	0.155084
O120	O	0.341936	-0.038949	0.000177
C121	C	0.372931	-0.190071	0.000131
C122	C	0.412470	-0.105241	0.000097
H123	H	0.429938	-0.243690	0.000045
H124	H	0.329815	-0.194711	0.069361
H125	H	0.329755	-0.194608	-0.069065
H126	H	0.455686	-0.100646	0.069246
H127	H	0.455534	-0.100637	-0.069179
H128	H	1.166944	0.012512	0.245134
H129	H	0.918151	-0.439367	-0.068007
H130	H	0.635200	-0.021672	0.000125
H131	H	0.516709	-0.023776	0.000120
O132	O	0.813441	-0.030556	-0.000085
C133	C	0.860183	-0.160442	-0.085733
C134	C	0.797136	-0.077446	-0.085668
H135	H	0.847011	-0.198383	-0.154909
H136	H	0.933062	-0.146068	-0.085802
H137	H	0.847109	-0.198344	-0.016487
H138	H	0.810130	-0.039503	-0.154903
H139	H	0.724279	-0.091878	-0.085548
O140	O	0.910850	-0.444366	0.080031
C141	C	0.853384	-0.558407	0.167600
C142	C	0.905941	-0.531834	0.076616
H143	H	0.849382	-0.629123	0.164858
H144	H	0.889211	-0.542045	0.238608
H145	H	0.782587	-0.523702	0.166656
H146	H	0.976743	-0.566523	0.077464
H147	H	0.870044	-0.548178	0.005649
H148	H	1.178099	-0.470280	-0.094077
