data_functionalizedCrystal
_audit_creation_method	'MofGen! by Chris Wilmer'
_symmetry_space_group_name_H-M	'P1'
_symmetry_Int_Tables_number	1
_symmetry_cell_setting	triclinic
loop_
_symmetry_equiv_pos_as_xyz
  x,y,z
_cell_length_a	16.992697
_cell_length_b	23.532407
_cell_length_c	15.455313
_cell_angle_alpha	92.643560
_cell_angle_beta	92.856959
_cell_angle_gamma	93.241435
loop_
_atom_site_label
_atom_site_type_symbol
_atom_site_fract_x
_atom_site_fract_y
_atom_site_fract_z
O1	O	-1.042900	0.118386	-0.072020
O2	O	-0.709567	0.451720	0.261314
O3	O	-0.376234	0.785053	0.594647
O4	O	-0.814627	0.117061	-0.072049
O5	O	-0.481294	0.450394	0.261284
O6	O	-0.147960	0.783727	0.594618
O7	O	-0.935647	0.035134	-0.072018
O8	O	-0.602313	0.368467	0.261316
O9	O	-0.268980	0.701801	0.594649
O10	O	-0.921881	0.200313	-0.072051
O11	O	-0.588548	0.533646	0.261282
O12	O	-0.255214	0.866980	0.594616
O13	O	-0.928726	0.039798	0.072243
O14	O	-0.595393	0.373132	0.405576
O15	O	-0.262060	0.706465	0.738909
O16	O	-0.807707	0.121725	0.072211
O17	O	-0.474373	0.455058	0.405545
O18	O	-0.141040	0.788392	0.738878
O19	O	-1.035980	0.123051	0.072240
O20	O	-0.702647	0.456384	0.405574
O21	O	-0.369314	0.789717	0.738907
Cu22	Cu	-0.921212	0.122814	0.085398
Cu23	Cu	-0.587878	0.456147	0.418731
Cu24	Cu	-0.254545	0.789480	0.752065
Cu25	Cu	-0.929396	0.117298	-0.085206
Cu26	Cu	-0.596062	0.450631	0.248127
Cu27	Cu	-0.262729	0.783964	0.581460
O28	O	-0.914961	0.204977	0.072209
O29	O	-0.581627	0.538311	0.405543
O30	O	-0.248294	0.871644	0.738876
C31	C	-0.781968	0.117689	0.000078
C32	C	-0.448634	0.451022	0.333411
C33	C	-0.115301	0.784356	0.666744
C34	C	-0.694964	0.112605	0.000067
C35	C	-0.361630	0.445939	0.333401
C36	C	-0.028297	0.779272	0.666734
C37	C	-0.644342	0.161651	0.000057
C38	C	-0.311008	0.494985	0.333391
C39	C	0.022325	0.828318	0.666724
C40	C	-0.562592	0.156872	0.000069
C41	C	-0.229258	0.490205	0.333402
C42	C	0.104075	0.823539	0.666736
C43	C	-0.531466	0.103046	0.000084
C44	C	-0.198132	0.436379	0.333418
C45	C	0.135201	0.769713	0.666751
C46	C	-0.582094	0.053996	0.000097
C47	C	-0.248761	0.387330	0.333430
C48	C	0.084573	0.720663	0.666764
C49	C	-0.663842	0.058776	0.000092
C50	C	-0.330509	0.392110	0.333425
C51	C	0.002825	0.725443	0.666758
C52	C	-0.288021	0.083234	0.000108
C53	C	0.045312	0.416568	0.333441
C54	C	0.378645	0.749901	0.666774
C55	C	-0.206267	0.078458	0.000110
C56	C	0.127066	0.411791	0.333444
C57	C	0.460400	0.745125	0.666777
C58	C	-0.186770	0.181334	0.000084
C59	C	0.146563	0.514667	0.333417
C60	C	0.479897	0.848001	0.666751
C61	C	-0.268521	0.186109	0.000073
C62	C	0.064813	0.519443	0.333407
C63	C	0.398146	0.852776	0.666740
C64	C	-0.319142	0.137060	0.000091
C65	C	0.014192	0.470393	0.333424
C66	C	0.347525	0.803727	0.666757
N67	N	-0.447905	0.098159	0.000094
N68	N	-0.114571	0.431493	0.333427
N69	N	0.218762	0.764826	0.666760
N70	N	-0.402701	0.141947	0.000088
N71	N	-0.069368	0.475281	0.333421
N72	N	0.263966	0.808614	0.666754
C73	C	-0.931836	0.016233	0.000115
C74	C	-0.598502	0.349566	0.333448
C75	C	-0.265169	0.682899	0.666781
C76	C	-0.930781	-0.047036	0.000121
C77	C	-0.597448	0.286297	0.333455
C78	C	-0.264115	0.619630	0.666788
C79	C	-0.995790	-0.442915	0.000082
C80	C	-0.662456	-0.109581	0.333415
C81	C	-0.329123	0.223752	0.666749
C82	C	-0.994811	-0.502364	0.000075
C83	C	-0.661478	-0.169031	0.333409
C84	C	-0.328144	0.164303	0.666742
O85	O	-1.055074	-0.536119	0.000051
O86	O	-0.721741	-0.202785	0.333384
O87	O	-0.388407	0.130548	0.666718
N88	N	-0.922864	-0.528561	0.000067
N89	N	-0.589531	-0.195227	0.333400
N90	N	-0.256198	0.138106	0.666733
C91	C	-0.851892	-0.495305	0.000056
C92	C	-0.518559	-0.161972	0.333389
C93	C	-0.185226	0.171361	0.666723
O94	O	-0.790606	-0.523046	0.000047
O95	O	-0.457273	-0.189713	0.333381
O96	O	-0.123940	0.143620	0.666714
C97	C	-0.852872	-0.435858	0.000057
C98	C	-0.519539	-0.102524	0.333390
C99	C	-0.186206	0.230809	0.666723
C100	C	-0.924823	-0.409664	0.000074
C101	C	-0.591490	-0.076331	0.333407
C102	C	-0.258157	0.257003	0.666741
C103	C	-1.067735	-0.416721	0.000098
C104	C	-0.734402	-0.083387	0.333432
C105	C	-0.401068	0.249946	0.666765
C106	C	-1.068713	-0.357276	0.000107
C107	C	-0.735380	-0.023942	0.333440
C108	C	-0.402047	0.309391	0.666773
C109	C	-0.997747	-0.324025	0.000099
C110	C	-0.664413	0.009309	0.333432
C111	C	-0.331080	0.342642	0.666765
C112	C	-0.925802	-0.350219	0.000082
C113	C	-0.592468	-0.016886	0.333416
C114	C	-0.259135	0.316448	0.666749
C115	C	-0.781902	-0.402604	0.000040
C116	C	-0.448568	-0.069270	0.333373
C117	C	-0.115235	0.264063	0.666706
C118	C	-0.782888	-0.343152	0.000040
C119	C	-0.449554	-0.009819	0.333373
C120	C	-0.116221	0.323515	0.666706
C121	C	-0.854839	-0.316958	0.000057
C122	C	-0.521505	0.016375	0.333390
C123	C	-0.188172	0.349708	0.666724
C124	C	-0.855813	-0.257523	0.000083
C125	C	-0.522480	0.075810	0.333416
C126	C	-0.189147	0.409144	0.666749
N127	N	-0.927760	-0.231326	0.000091
N128	N	-0.594427	0.102007	0.333424
N129	N	-0.261093	0.435341	0.666758
C130	C	-0.998727	-0.264577	0.000099
C131	C	-0.665393	0.068756	0.333432
C132	C	-0.332060	0.402090	0.666766
C133	C	-0.849840	-0.620150	0.000054
C134	C	-0.516507	-0.286816	0.333387
C135	C	-0.183173	0.046517	0.666720
C136	C	-0.848859	-0.679596	0.000059
C137	C	-0.515526	-0.346263	0.333393
C138	C	-0.182192	-0.012929	0.666726
C139	C	-0.991778	-0.686651	0.000077
C140	C	-0.658444	-0.353317	0.333410
C141	C	-0.325111	-0.019984	0.666743
C142	C	-0.992758	-0.627203	0.000077
C143	C	-0.659424	-0.293870	0.333411
C144	C	-0.326091	0.039464	0.666744
C145	C	-0.921787	-0.593953	0.000062
C146	C	-0.588453	-0.260620	0.333395
C147	C	-0.255120	0.072714	0.666729
C148	C	-1.000776	-0.139738	0.000117
C149	C	-0.667443	0.193595	0.333451
C150	C	-0.334109	0.526929	0.666784
C151	C	-1.001748	-0.080287	0.000129
C152	C	-0.668415	0.253046	0.333463
C153	C	-0.335081	0.586379	0.666796
C154	C	-0.858830	-0.073238	0.000107
C155	C	-0.525496	0.260095	0.333441
C156	C	-0.192163	0.593429	0.666774
C157	C	-0.857857	-0.132683	0.000100
C158	C	-0.524524	0.200650	0.333433
C159	C	-0.191190	0.533983	0.666767
C160	C	-0.928837	-0.165932	0.000102
C161	C	-0.595503	0.167401	0.333435
C162	C	-0.262170	0.500734	0.666769
O163	O	-0.795582	-0.223732	0.000103
O164	O	-0.462249	0.109601	0.333437
O165	O	-0.128916	0.442935	0.666770
O166	O	-1.060003	-0.236829	0.000096
O167	O	-0.726670	0.096505	0.333430
O168	O	-0.393336	0.429838	0.666763
C169	C	-0.068640	0.122422	0.000108
C170	C	0.264694	0.455755	0.333441
C171	C	0.598027	0.789088	0.666775
C172	C	-0.155645	0.127504	0.000100
C173	C	0.177688	0.460837	0.333434
C174	C	0.511022	0.794171	0.666767
C175	C	-0.918771	0.223879	0.000075
C176	C	-0.585438	0.557212	0.333408
C177	C	-0.252105	0.890545	0.666742
C178	C	-0.919826	0.287147	0.000063
C179	C	-0.586493	0.620481	0.333396
C180	C	-0.253159	0.953814	0.666729
N181	N	-0.915461	0.126693	0.205392
N182	N	-0.582128	0.460027	0.538725
N183	N	-0.248794	0.793360	0.872059
N184	N	-0.935152	0.113414	-0.205201
N185	N	-0.601819	0.446747	0.128133
N186	N	-0.268486	0.780080	0.461466
C187	C	-0.966892	0.091903	0.250800
C188	C	-0.633559	0.425236	0.584133
C189	C	-0.300225	0.758569	0.917466
C190	C	-0.962550	0.094842	0.341606
C191	C	-0.629217	0.428175	0.674940
C192	C	-0.295884	0.761509	1.008273
C193	C	-0.906781	0.132576	0.387004
C194	C	-0.573448	0.465909	0.720337
C195	C	-0.240114	0.799243	1.053671
C196	C	-0.855344	0.167368	0.341590
C197	C	-0.522011	0.500702	0.674924
C198	C	-0.188678	0.834035	1.008257
C199	C	-0.859683	0.164425	0.250785
C200	C	-0.526350	0.497759	0.584118
C201	C	-0.193016	0.831092	0.917452
C202	C	-0.888054	0.145263	0.658581
C203	C	-0.554721	0.478596	0.991914
C204	C	-0.221388	0.811930	1.325247
C205	C	-0.883721	0.148205	0.749392
C206	C	-0.550388	0.481538	1.082725
C207	C	-0.217055	0.814871	1.416059
C208	C	-0.990927	0.075677	0.749402
C209	C	-0.657593	0.409011	1.082735
C210	C	-0.324260	0.742344	1.416069
C211	C	-0.995264	0.072740	0.658595
C212	C	-0.661930	0.406074	0.991928
C213	C	-0.328597	0.739407	1.325262
C214	C	-0.943824	0.107530	0.613189
C215	C	-0.610491	0.440864	0.946523
C216	C	-0.277158	0.774197	1.279856
N217	N	-0.902343	0.135583	0.479823
N218	N	-0.569010	0.468916	0.813156
N219	N	-0.235677	0.802249	1.146490
N220	N	-0.948259	0.104520	0.520372
N221	N	-0.614925	0.437854	0.853705
N222	N	-0.281592	0.771187	1.187038
H223	H	-0.669677	0.205482	0.000044
H224	H	-0.336344	0.538815	0.333377
H225	H	-0.003011	0.872149	0.666711
H226	H	-1.051346	-0.605880	0.000091
H227	H	-0.718013	-0.272547	0.333424
H228	H	-0.384680	0.060786	0.666757
H229	H	-0.846172	0.173592	0.621618
H230	H	-0.512838	0.506925	0.954952
H231	H	-0.179505	0.840258	1.288285
Cl232	Cl	-1.065375	0.025304	0.601524
Cl233	Cl	-0.732042	0.358637	0.934857
Cl234	Cl	-0.398709	0.691971	1.268190
H235	H	-1.032805	0.047352	0.786380
H236	H	-0.699472	0.380686	1.119713
H237	H	-0.366139	0.714019	1.453046
Cl238	Cl	-0.785229	0.214803	0.398660
Cl239	Cl	-0.451896	0.548136	0.731993
Cl240	Cl	-0.118562	0.881470	1.065326
Cl241	Cl	-0.760609	-0.578355	0.000044
Cl242	Cl	-0.427276	-0.245022	0.333378
Cl243	Cl	-0.093942	0.088312	0.666711
H244	H	-0.521378	0.196810	0.000060
H245	H	-0.188045	0.530144	0.333393
H246	H	0.145289	0.863477	0.666726
Cl247	Cl	-0.307644	0.253779	0.000048
Cl248	Cl	0.025689	0.587112	0.333382
Cl249	Cl	0.359022	0.920445	0.666715
Cl250	Cl	-0.123128	0.242992	0.000066
Cl251	Cl	0.210205	0.576325	0.333399
Cl252	Cl	0.543538	0.909659	0.666733
Cl253	Cl	-0.167138	0.010786	0.000149
Cl254	Cl	0.166195	0.344120	0.333483
Cl255	Cl	0.499529	0.677453	0.666816
Cl256	Cl	-1.092207	-0.047362	0.000149
Cl257	Cl	-0.758874	0.285971	0.333483
Cl258	Cl	-0.425541	0.619304	0.666816
Cl259	Cl	-0.351648	0.021571	0.000128
Cl260	Cl	-0.018315	0.354905	0.333462
Cl261	Cl	0.315018	0.688238	0.666795
Cl262	Cl	-1.090009	-0.181527	0.000122
Cl263	Cl	-0.756676	0.151806	0.333455
Cl264	Cl	-0.423342	0.485139	0.666788
H265	H	-1.012309	0.061178	0.213843
H266	H	-0.678975	0.394512	0.547176
H267	H	-0.345642	0.727845	0.880509
H268	H	-0.556744	0.010170	0.000122
H269	H	-0.223411	0.343504	0.333455
H270	H	0.109922	0.676837	0.666789
H271	H	-0.705058	0.018838	0.000099
H272	H	-0.371725	0.352171	0.333433
H273	H	-0.038392	0.685505	0.666766
H274	H	-1.127303	-0.335955	0.000117
H275	H	-0.793970	-0.002621	0.333451
H276	H	-0.460636	0.330712	0.666784
H277	H	-0.838305	0.178934	0.786351
H278	H	-0.504971	0.512268	1.119684
H279	H	-0.171638	0.845601	1.453017
H280	H	-0.723312	-0.423920	0.000020
H281	H	-0.389979	-0.090587	0.333354
H282	H	-0.056645	0.242747	0.666687
Cl283	Cl	-1.027207	0.051104	0.398692
Cl284	Cl	-0.693874	0.384437	0.732025
Cl285	Cl	-0.360540	0.717770	1.065358
Cl286	Cl	-1.156963	-0.458512	0.000110
Cl287	Cl	-0.823629	-0.125179	0.333443
Cl288	Cl	-0.490296	0.208155	0.666777
H289	H	-1.049563	-0.713735	0.000080
H290	H	-0.716230	-0.380401	0.333413
H291	H	-0.382896	-0.047068	0.666747
H292	H	-0.790269	-0.700917	0.000060
H293	H	-0.456935	-0.367584	0.333393
H294	H	-0.123602	-0.034251	0.666727
Cl295	Cl	-0.693661	-0.301356	0.000019
Cl296	Cl	-0.360327	0.031978	0.333353
Cl297	Cl	-0.026994	0.365311	0.666686
H298	H	-0.799268	-0.154011	0.000110
H299	H	-0.465934	0.179323	0.333443
H300	H	-0.132601	0.512656	0.666777
H301	H	-0.801050	-0.046154	0.000104
H302	H	-0.467717	0.287179	0.333437
H303	H	-0.134384	0.620512	0.666770
H304	H	-0.817801	0.192755	0.213815
H305	H	-0.484468	0.526088	0.547149
H306	H	-0.151135	0.859422	0.880482
