data_functionalizedCrystal
_audit_creation_method	'MofGen! by Chris Wilmer'
_symmetry_space_group_name_H-M	'P1'
_symmetry_Int_Tables_number	1
_symmetry_cell_setting	triclinic
loop_
_symmetry_equiv_pos_as_xyz
  x,y,z
_cell_length_a	17.699104
_cell_length_b	19.288865
_cell_length_c	18.366186
_cell_angle_alpha	89.988521
_cell_angle_beta	90.009934
_cell_angle_gamma	96.786118
loop_
_atom_site_label
_atom_site_type_symbol
_atom_site_fract_x
_atom_site_fract_y
_atom_site_fract_z
O1	O	1.003947	-0.087906	0.060573
O2	O	0.783555	-0.099319	0.060572
O3	O	0.900119	0.007510	0.060558
O4	O	0.887383	-0.194735	0.060587
O5	O	0.900100	0.007515	-0.060541
O6	O	0.783535	-0.099313	-0.060527
O7	O	1.003927	-0.087901	-0.060527
Zn8	Zn	0.893728	-0.093606	-0.079754
Zn9	Zn	0.893754	-0.093613	0.079800
O10	O	0.887363	-0.194729	-0.060513
C11	C	0.755349	-0.098905	0.000022
C12	C	0.671333	-0.097670	0.000021
C13	C	0.146384	-0.153416	0.000037
C14	C	0.225326	-0.154572	0.000039
C15	C	0.274032	-0.091859	0.000030
C16	C	0.243792	-0.027987	0.000026
C17	C	0.164851	-0.026832	0.000029
C18	C	0.562151	-0.032643	0.000015
C19	C	0.641097	-0.033802	0.000010
C20	C	0.622626	-0.160382	0.000025
C21	C	0.543686	-0.159227	0.000028
C22	C	0.513453	-0.095356	0.000028
C23	C	0.427854	-0.094103	0.000027
C24	C	0.359629	-0.093111	0.000026
C25	C	0.899700	0.033390	0.000006
C26	C	0.898469	0.110495	-0.000000
C27	C	1.032133	-0.088315	0.000025
C28	C	1.116149	-0.089549	0.000031
C29	C	0.887783	-0.220609	0.000041
C30	C	0.889013	-0.297714	0.000052
N31	N	0.893716	-0.093601	-0.188645
C32	C	0.966864	0.155105	-0.000004
C33	C	0.965708	0.227554	0.000008
C34	C	0.896154	0.255389	0.000008
C35	C	0.827750	0.210768	0.000016
C36	C	0.828908	0.138321	0.000011
C37	C	0.841469	0.363746	-0.042410
C38	C	0.840314	0.436192	-0.042411
C39	C	0.892580	0.478839	0.000024
C40	C	0.946014	0.449032	0.042451
C41	C	0.947172	0.376585	0.042446
C42	C	0.894891	0.333944	0.000013
C43	C	0.959727	0.602007	0.000035
C44	C	0.958568	0.674456	0.000051
C45	C	0.820608	0.657669	0.000051
C46	C	0.821769	0.585221	0.000042
C47	C	0.891330	0.557395	0.000031
C48	C	0.945347	-0.046320	-0.226752
C49	C	0.945352	-0.046317	-0.302980
C50	C	0.893733	-0.093607	-0.341098
C51	C	0.842092	-0.140891	-0.302982
C52	C	0.842083	-0.140888	-0.226756
C53	C	0.883601	-0.156882	-0.461849
C54	C	0.883615	-0.156886	-0.538074
C55	C	0.893754	-0.093615	-0.576205
C56	C	0.903896	-0.030339	-0.538102
C57	C	0.903888	-0.030336	-0.461876
C58	C	0.893736	-0.093615	-0.423753
C59	C	0.945394	-0.046328	-0.696967
C60	C	0.945393	-0.046324	-0.773196
C61	C	0.842136	-0.140903	-0.773197
C62	C	0.842133	-0.140901	-0.696969
C63	C	0.893766	-0.093614	-0.658859
N64	N	0.893772	-0.093613	0.188691
H65	H	1.023506	0.132454	-0.000011
H66	H	0.796802	0.460455	-0.076952
H67	H	0.140236	0.025175	0.000025
C68	C	0.915055	0.039264	-0.580033
H69	H	0.921101	0.076946	-0.546423
H70	H	0.871830	0.043076	-0.609781
H71	H	0.959137	0.040712	-0.609756
C72	C	0.753673	0.089245	0.000013
H73	H	0.764325	0.042112	0.000014
H74	H	0.725130	0.097678	-0.042213
H75	H	0.725153	0.097658	0.042253
C76	C	0.872460	-0.226484	-0.579984
H77	H	0.873927	-0.217425	-0.630842
H78	H	0.824639	-0.251300	-0.567500
H79	H	0.911946	-0.253661	-0.567472
C80	C	0.915031	0.039261	-0.419963
H81	H	0.921175	0.076943	-0.453583
H82	H	0.959037	0.040674	-0.390133
H83	H	0.871741	0.043107	-0.390322
C84	C	1.040943	0.276637	-0.000001
H85	H	1.030289	0.323769	0.000007
H86	H	1.069464	0.268222	-0.042234
H87	H	1.069486	0.268207	0.042231
C88	C	0.785354	-0.192922	-0.815115
H89	H	0.754600	-0.221080	-0.781499
H90	H	0.812480	-0.221807	-0.844837
H91	H	0.753936	-0.167966	-0.844863
H92	H	0.249939	-0.206579	0.000051
C93	C	0.694672	0.035185	0.000010
H94	H	0.665361	0.073390	0.000018
H95	H	0.725844	0.037372	-0.042221
H96	H	0.725858	0.037353	0.042245
H97	H	0.988574	0.483753	0.077006
C98	C	0.297362	0.040997	0.000022
H99	H	0.268047	0.079200	0.000028
H100	H	0.328535	0.043185	-0.042207
H101	H	0.328547	0.043171	0.042258
H102	H	0.875331	-0.208408	-0.430809
H103	H	0.537546	0.019365	0.000013
H104	H	0.987388	-0.007815	-0.195724
H105	H	1.016368	0.579350	0.000028
H106	H	0.763975	0.680331	0.000055
C107	C	1.002186	0.005689	-0.815117
H108	H	0.994791	-0.001077	-0.865974
H109	H	1.052669	-0.001801	-0.802613
H110	H	0.994124	0.052041	-0.802635
C111	C	1.002175	0.005692	-0.655039
H112	H	0.994781	-0.001083	-0.604183
H113	H	0.994114	0.052039	-0.667545
H114	H	1.052663	-0.001797	-0.667516
C115	C	1.005936	0.343798	0.089119
H116	H	1.036897	0.379568	0.114398
H117	H	1.036942	0.319259	0.058533
H118	H	0.980216	0.312347	0.123233
H119	H	1.014266	0.710778	0.000052
H120	H	0.800093	-0.179404	-0.665941
H121	H	0.766074	0.548898	0.000041
H122	H	0.800061	-0.179394	-0.334022
H123	H	0.800038	-0.179390	-0.195729
H124	H	0.798906	0.329029	-0.076970
H125	H	0.106733	-0.204484	0.000039
H126	H	0.504032	-0.210294	0.000032
H127	H	0.647251	-0.212390	0.000028
C128	C	0.751241	0.241380	0.000019
H129	H	0.710671	0.204432	0.000026
H130	H	0.747910	0.269302	-0.042209
H131	H	0.747933	0.269282	0.042257
C132	C	1.002150	0.005689	-0.344909
H133	H	0.994757	-0.001084	-0.395765
H134	H	1.052631	-0.001803	-0.332401
H135	H	0.994092	0.052043	-0.332435
