data_functionalizedCrystal
_audit_creation_method	'MofGen! by Chris Wilmer'
_symmetry_space_group_name_H-M	'P1'
_symmetry_Int_Tables_number	1
_symmetry_cell_setting	triclinic
loop_
_symmetry_equiv_pos_as_xyz
  x,y,z
_cell_length_a	12.827893
_cell_length_b	12.827892
_cell_length_c	19.077579
_cell_angle_alpha	87.678907
_cell_angle_beta	87.688646
_cell_angle_gamma	90.015362
loop_
_atom_site_label
_atom_site_type_symbol
_atom_site_fract_x
_atom_site_fract_y
_atom_site_fract_z
Zn1	Zn	1.621345	-0.392316	-0.397941
Zn2	Zn	1.614237	-0.574093	-0.280253
Zn3	Zn	1.439585	-0.399366	-0.280261
Zn4	Zn	1.446570	-0.567017	-0.397914
O5	O	1.530434	-0.483198	-0.339092
O6	O	1.766639	-0.416440	-0.382337
O7	O	1.585171	-0.556826	-0.181763
O8	O	1.463747	-0.252193	-0.295887
O9	O	1.761417	-0.549990	-0.295872
O10	O	1.597286	-0.247014	-0.382346
O11	O	1.456855	-0.428455	-0.181769
O12	O	1.294275	-0.421594	-0.295861
O13	O	1.475652	-0.537931	-0.496409
O14	O	1.299407	-0.544767	-0.382300
O15	O	1.604059	-0.409579	-0.496429
O16	O	1.591945	-0.719391	-0.295846
O17	O	1.468760	-0.714192	-0.382291
C18	C	1.258924	-0.483178	-0.339079
C19	C	1.142771	-0.483194	-0.339090
C20	C	0.968380	-0.422174	-0.296405
C21	C	1.088430	-0.422156	-0.296393
C22	C	1.530368	-0.754708	-0.339080
C23	C	1.530437	-0.870860	-0.339098
C24	C	1.469537	-1.040152	-0.381861
C25	C	1.469465	-0.920103	-0.381843
C26	C	1.803005	-0.483218	-0.339106
C27	C	1.919159	-0.483226	-0.339112
C28	C	1.541427	-0.472179	-0.522670
C29	C	1.546112	-0.467484	-0.600901
C30	C	1.530530	-0.210626	-0.339120
C31	C	1.530571	-0.094472	-0.339132
C32	C	1.579712	-0.433883	-1.041254
C33	C	1.575303	-0.438300	-0.967749
C34	C	1.506240	-0.507328	-0.930989
C35	C	1.441588	-0.571952	-0.967739
C36	C	1.446002	-0.567539	-1.041243
C37	C	1.485874	-0.527695	-0.711154
C38	C	1.481463	-0.532100	-0.637645
C39	C	1.615180	-0.398449	-0.637660
C40	C	1.619584	-0.394038	-0.711165
C41	C	1.554936	-0.458665	-0.747909
N42	N	1.501730	-0.511842	-0.855855
N43	N	1.559451	-0.454156	-0.823042
C44	C	1.519544	-0.494098	-0.156228
C45	C	1.515062	-0.498499	-0.077999
H46	H	0.965895	-0.535478	-0.375669
C47	C	1.085583	-0.553814	-0.388489
N48	N	1.042501	-0.607003	-0.425697
C49	C	1.399012	-1.097388	-0.431298
N50	N	1.345887	-1.140497	-0.468534
H51	H	1.417207	-0.873400	-0.418422
H52	H	0.921645	-0.369913	-0.259854
C53	C	1.601032	-0.933946	-0.289673
N54	N	1.654205	-0.981469	-0.252446
H55	H	1.582775	-1.052102	-0.302540
C56	C	1.405494	-0.608050	-0.597211
N57	N	1.348279	-0.665255	-0.566756
C58	C	1.145625	-0.351536	-0.246998
N59	N	1.188708	-0.298340	-0.209794
H60	H	1.635944	-0.377666	-1.071178
C61	C	1.646414	-0.367207	-0.927333
N62	N	1.699975	-0.313654	-0.896892
C63	C	1.695560	-0.318103	-0.751595
N64	N	1.752785	-0.260905	-0.782047
H65	H	1.667814	-0.345834	-0.607736
H66	H	1.433232	-0.580317	-0.741062
C67	C	1.365615	-0.647882	-0.927301
N68	N	1.308387	-0.705071	-0.896844
C69	C	1.374880	-0.638620	-1.081662
N70	N	1.321310	-0.692162	-1.112104
