data_functionalizedCrystal
_audit_creation_method	'MofGen! by Chris Wilmer'
_symmetry_space_group_name_H-M	'P1'
_symmetry_Int_Tables_number	1
_symmetry_cell_setting	triclinic
loop_
_symmetry_equiv_pos_as_xyz
  x,y,z
_cell_length_a	12.837942
_cell_length_b	9.065218
_cell_length_c	8.140239
_cell_angle_alpha	90.002802
_cell_angle_beta	89.996939
_cell_angle_gamma	90.077587
loop_
_atom_site_label
_atom_site_type_symbol
_atom_site_fract_x
_atom_site_fract_y
_atom_site_fract_z
O1	O	0.152196	-1.978903	-0.136617
O2	O	0.164680	-1.551136	-0.136619
O3	O	0.007446	-1.755534	-0.136608
O4	O	0.309430	-1.774505	-0.136628
O5	O	0.007444	-1.755521	0.136619
O6	O	0.164678	-1.551123	0.136608
O7	O	0.152194	-1.978890	0.136610
Zn8	Zn	0.158436	-1.765005	0.179990
Zn9	Zn	0.158439	-1.765021	-0.179999
O10	O	0.309428	-1.774492	0.136599
C11	C	0.163479	-1.495997	-0.000006
C12	C	0.159892	-1.331718	-0.000007
C13	C	-0.031235	-1.749119	0.000004
C14	C	-0.146492	-1.730006	0.000002
C15	C	0.153395	-2.034029	-0.000007
C16	C	0.156983	-2.198308	-0.000017
C17	C	-0.385293	-1.959783	-0.000031
C18	C	-0.493587	-1.941831	-0.000034
C19	C	-0.471377	-1.676152	-0.000019
C20	C	-0.363083	-1.694104	-0.000016
C21	C	-0.320045	-1.835924	-0.000020
C22	C	-0.211748	-1.853874	-0.000005
C23	C	-0.189540	-1.588196	-0.000001
C24	C	-0.297835	-1.570245	-0.000004
C25	C	0.348110	-1.780907	-0.000017
C26	C	0.463366	-1.800020	-0.000025
N27	N	0.158434	-1.765004	0.425672
N28	N	0.158433	-1.765033	-0.425681
H29	H	-0.176709	-1.969351	-0.000002
Br30	Br	-0.529805	-1.483697	-0.000073
H31	H	-0.350251	-2.075258	-0.000019
H32	H	-0.546709	-2.042690	-0.000049
Br33	Br	-0.356253	-1.377784	-0.000020
Br34	Br	-0.100983	-1.420091	0.000044
