data_functionalizedCrystal
_audit_creation_method	'MofGen! by Chris Wilmer'
_symmetry_space_group_name_H-M	'P1'
_symmetry_Int_Tables_number	1
_symmetry_cell_setting	triclinic
loop_
_symmetry_equiv_pos_as_xyz
  x,y,z
_cell_length_a	18.215407
_cell_length_b	13.897441
_cell_length_c	18.215405
_cell_angle_alpha	90.033850
_cell_angle_beta	89.980602
_cell_angle_gamma	89.982122
loop_
_atom_site_label
_atom_site_type_symbol
_atom_site_fract_x
_atom_site_fract_y
_atom_site_fract_z
Zn1	Zn	1.125072	-0.545334	0.293076
Zn2	Zn	1.124981	-0.384024	0.416154
Zn3	Zn	1.002005	-0.384055	0.293094
Zn4	Zn	1.001971	-0.545278	0.416093
O5	O	1.063507	-0.464673	0.354604
O6	O	1.228044	-0.523947	0.309420
O7	O	1.108643	-0.249046	0.399863
O8	O	1.018383	-0.405485	0.190107
O9	O	1.227977	-0.405432	0.399845
O10	O	1.108800	-0.523977	0.190094
O11	O	1.018294	-0.249069	0.309451
O12	O	0.899016	-0.405431	0.309392
O13	O	1.018325	-0.680268	0.399741
O14	O	0.898991	-0.523881	0.399759
O15	O	1.108767	-0.680309	0.309361
O16	O	1.108611	-0.405378	0.519130
O17	O	1.018236	-0.523851	0.519086
C18	C	0.872301	-0.464654	0.354572
C19	C	0.790502	-0.464669	0.354576
C20	C	0.525474	-0.526481	0.307611
C21	C	0.602333	-0.526478	0.307599
C22	C	0.602282	-0.402885	0.401622
C23	C	0.525424	-0.402894	0.401637
C24	C	0.487022	-0.464690	0.354627
C25	C	0.640739	-0.464679	0.354600
C26	C	0.724072	-0.464675	0.354587
C27	C	0.403683	-0.464696	0.354640
C28	C	1.063552	-0.716266	0.354542
C29	C	1.063571	-0.823480	0.354516
C30	C	1.063587	-0.910550	0.354495
C31	C	1.063608	-1.019782	0.354462
C32	C	1.255460	-0.464692	0.354637
C33	C	1.337259	-0.464701	0.354651
C34	C	1.063429	-0.464626	0.545811
C35	C	1.063464	-0.464639	0.627609
C36	C	1.063505	-0.214058	0.354613
C37	C	1.063628	-0.106845	0.354432
C38	C	1.063605	-0.464740	0.162651
C39	C	1.063647	-0.464769	0.080852
C40	C	1.110632	-0.403063	0.815802
C41	C	1.110665	-0.403087	0.892661
C42	C	1.016476	-0.526352	0.892654
C43	C	1.016448	-0.526332	0.815797
C44	C	1.063524	-0.464683	0.777373
C45	C	1.063586	-0.464725	0.931089
C46	C	1.063621	-0.464751	1.014423
C47	C	1.063490	-0.464658	0.694034
H48	H	1.148966	-0.352866	0.784519
H49	H	1.149026	-0.352911	0.923947
O50	O	0.488088	-0.586562	0.262055
C51	C	0.443658	-0.648785	0.304021
H52	H	0.432125	-0.614635	0.359763
H53	H	0.389620	-0.661790	0.274067
H54	H	0.473300	-0.720244	0.312168
O55	O	0.970767	-0.586137	0.930095
C56	C	0.980903	-0.572957	1.006172
H57	H	1.005046	-0.498550	1.016696
H58	H	0.925786	-0.579437	1.035416
H59	H	1.020073	-0.630226	1.027923
O60	O	0.970615	-0.586224	0.778576
C61	C	0.929078	-0.640653	0.828969
H62	H	0.926565	-0.601156	0.883781
H63	H	0.871084	-0.650868	0.806793
H64	H	0.955998	-0.713945	0.837080
H65	H	0.633636	-0.576796	0.269314
O66	O	0.639701	-0.342884	0.447210
C67	C	0.715783	-0.356139	0.437128
H68	H	0.726297	-0.387861	0.380360
H69	H	0.744969	-0.283871	0.442047
H70	H	0.737605	-0.407401	0.480822
O71	O	0.488181	-0.342775	0.447335
C72	C	0.538555	-0.288241	0.488832
H73	H	0.593345	-0.284958	0.458676
H74	H	0.516320	-0.212228	0.496620
H75	H	0.546732	-0.323436	0.544754
