data_functionalizedCrystal
_audit_creation_method	'MofGen! by Chris Wilmer'
_symmetry_space_group_name_H-M	'P1'
_symmetry_Int_Tables_number	1
_symmetry_cell_setting	triclinic
loop_
_symmetry_equiv_pos_as_xyz
  x,y,z
_cell_length_a	19.077115
_cell_length_b	19.077068
_cell_length_c	12.759401
_cell_angle_alpha	87.717480
_cell_angle_beta	92.301210
_cell_angle_gamma	90.115280
loop_
_atom_site_label
_atom_site_type_symbol
_atom_site_fract_x
_atom_site_fract_y
_atom_site_fract_z
Zn1	Zn	1.062874	-0.323098	0.677038
Zn2	Zn	1.058089	-0.440578	0.508096
Zn3	Zn	0.945397	-0.318361	0.494050
Zn4	Zn	0.940609	-0.435839	0.676409
O5	O	1.001742	-0.379469	0.588899
O6	O	1.160569	-0.342647	0.660770
O7	O	1.043142	-0.424366	0.359212
O8	O	0.964987	-0.220658	0.512708
O9	O	1.157054	-0.428959	0.536649
O10	O	1.051296	-0.224139	0.647149
O11	O	0.960348	-0.334573	0.348892
O12	O	0.846432	-0.329979	0.512099
O13	O	0.956826	-0.420884	0.823514
O14	O	0.842914	-0.416290	0.646077
O15	O	1.046653	-0.338053	0.823976
O16	O	1.038499	-0.538280	0.536039
O17	O	0.952187	-0.534799	0.659698
C18	C	0.819177	-0.372107	0.577496
C19	C	0.741074	-0.368974	0.572644
C20	C	0.301633	-0.346476	0.537852
C21	C	0.375019	-0.349423	0.542417
C22	C	0.409893	-0.395909	0.614350
C23	C	0.371378	-0.439444	0.681730
C24	C	0.297994	-0.436493	0.677169
C25	C	0.629174	-0.409558	0.635463
C26	C	0.702564	-0.412508	0.640017
C27	C	0.706200	-0.322486	0.500704
C28	C	0.632813	-0.319542	0.496146
C29	C	0.594305	-0.363075	0.563529
N30	N	0.484905	-0.398924	0.619016
N31	N	0.519294	-0.360055	0.558868
C32	C	0.994323	-0.562036	0.599348
C33	C	0.991214	-0.640142	0.603858
C34	C	1.034726	-0.678627	0.541652
C35	C	1.031805	-0.752015	0.545900
C36	C	0.985368	-0.786918	0.612349
C37	C	0.941854	-0.748428	0.674562
C38	C	0.944779	-0.675041	0.670319
C39	C	0.971802	-1.006210	0.631942
C40	C	0.968879	-1.079602	0.636178
C41	C	1.058831	-1.083184	0.507517
C42	C	1.061749	-1.009796	0.503275
C43	C	1.018238	-0.971312	0.565492
N44	N	0.982380	-0.861932	0.616690
N45	N	1.021230	-0.896299	0.561156
C46	C	1.185021	-0.386860	0.600346
C47	C	1.263123	-0.390010	0.605225
C48	C	1.001739	-0.379468	0.862932
C49	C	1.001738	-0.379468	0.979708
C50	C	1.009209	-0.196189	0.578432
C51	C	1.012391	-0.118087	0.573972
C52	C	0.958632	-0.332719	1.029197
C53	C	0.958628	-0.332726	1.138921
C54	C	1.044840	-0.426231	1.149659
C55	C	1.044841	-0.426228	1.039936
C56	C	1.001737	-0.379483	1.315932
C57	C	1.001733	-0.379478	1.199155
H58	H	0.737561	-0.287043	0.445846
Br59	Br	0.749893	-0.475601	0.737643
Br60	Br	0.900135	-0.269261	0.947461
Br61	Br	0.576922	-0.468641	0.726909
Br62	Br	1.103334	-0.489688	1.231403
H63	H	1.079944	-0.464299	0.999643
H64	H	0.273243	-0.308624	0.479275
Br65	Br	0.418707	-0.502534	0.779352
H66	H	0.604424	-0.281694	0.437563
Br67	Br	0.427280	-0.290332	0.450989
Br68	Br	0.245729	-0.495572	0.768614
Br69	Br	0.900112	-0.269290	1.206080
H70	H	1.072536	-0.650214	0.487537
Br71	Br	1.124782	-0.962433	0.413105
Br72	Br	1.090864	-0.804242	0.461480
H73	H	0.931073	-1.108018	0.690308
Br74	Br	1.117883	-1.135415	0.423090
Br75	Br	0.878838	-0.795795	0.764754
Br76	Br	0.912751	-0.953991	0.716380
Br77	Br	0.885729	-0.622810	0.754752
