data_functionalizedCrystal
_audit_creation_method	'MofGen! by Chris Wilmer'
_symmetry_space_group_name_H-M	'P1'
_symmetry_Int_Tables_number	1
_symmetry_cell_setting	triclinic
loop_
_symmetry_equiv_pos_as_xyz
  x,y,z
_cell_length_a	15.298068
_cell_length_b	16.625545
_cell_length_c	15.296720
_cell_angle_alpha	99.644333
_cell_angle_beta	91.645182
_cell_angle_gamma	80.316313
loop_
_atom_site_label
_atom_site_type_symbol
_atom_site_fract_x
_atom_site_fract_y
_atom_site_fract_z
Zn1	Zn	1.253371	0.239864	0.727360
Zn2	Zn	1.753371	0.739864	1.227360
Zn3	Zn	1.278630	0.348154	0.580889
Zn4	Zn	1.778630	0.848154	1.080889
Zn5	Zn	1.132251	0.232029	0.555527
Zn6	Zn	1.632251	0.732029	1.055527
Zn7	Zn	1.106858	0.393356	0.701912
Zn8	Zn	1.606858	0.893356	1.201912
O9	O	1.192778	0.303351	0.641422
O10	O	1.692778	0.803351	1.141422
O11	O	1.379298	0.238590	0.729195
O12	O	1.879298	0.738590	1.229195
O13	O	1.280411	0.310554	0.454964
O14	O	1.780411	0.810554	0.954964
O15	O	1.148375	0.120233	0.578357
O16	O	1.648375	0.620233	1.078357
O17	O	1.397856	0.318151	0.621583
O18	O	1.897856	0.818151	1.121583
O19	O	1.237361	0.125989	0.704602
O20	O	1.737361	0.625989	1.204602
O21	O	1.172867	0.225237	0.436330
O22	O	1.672867	0.725237	0.936330
O23	O	1.006307	0.269068	0.553681
O24	O	1.506307	0.769068	1.053681
O25	O	1.105095	0.395191	0.827849
O26	O	1.605095	0.895191	1.327849
O27	O	0.987650	0.387594	0.661229
O28	O	1.487650	0.887594	1.161229
O29	O	1.212738	0.282421	0.846545
O30	O	1.712738	0.782421	1.346545
O31	O	1.255788	0.466986	0.596907
O32	O	1.755788	0.966986	1.096907
O33	O	1.129587	0.500195	0.685822
O34	O	1.629587	1.000195	1.185822
C35	C	0.965195	0.332387	0.601942
C36	C	1.465195	0.832387	1.101942
C37	C	0.867831	0.344832	0.585073
C38	C	1.367831	0.844832	1.085073
C39	C	0.554671	0.214608	0.761989
C40	C	1.054671	0.714608	1.261989
C41	C	0.646149	0.202919	0.777843
C42	C	1.146149	0.702919	1.277843
C43	C	0.701574	0.238396	0.729652
C44	C	1.201574	0.738396	1.229652
C45	C	0.665512	0.285564	0.665604
C46	C	1.165512	0.785564	1.165604
C47	C	0.574025	0.297260	0.649753
C48	C	1.074025	0.797260	1.149753
C49	C	0.720928	0.321048	0.617416
C50	C	1.220928	0.821048	1.117416
C51	C	0.684866	0.368217	0.553368
C52	C	1.184866	0.868217	1.053368
C53	C	0.593388	0.379910	0.537519
C54	C	1.093388	0.879910	1.037519
C55	C	0.537963	0.344433	0.585711
C56	C	1.037963	0.844433	1.085711
C57	C	0.812415	0.309352	0.633267
C58	C	1.312415	0.809352	1.133267
C59	C	0.831769	0.392004	0.521031
C60	C	1.331769	0.892004	1.021031
C61	C	0.740291	0.403694	0.505177
C62	C	1.240291	0.903694	1.005177
C63	C	1.192693	0.512848	0.641378
C64	C	1.692693	1.012848	1.141378
C65	C	1.192732	0.602467	0.641403
C66	C	1.692732	1.102467	1.141403
C67	C	1.192857	0.930643	0.641532
C68	C	1.692857	1.430643	1.141532
C69	C	1.192819	0.839335	0.641498
C70	C	1.692819	1.339335	1.141498
C71	C	1.192794	0.766558	0.641467
C72	C	1.692794	1.266558	1.141467
C73	C	1.192757	0.675244	0.641434
C74	C	1.692757	1.175244	1.141434
C75	C	1.421248	0.274202	0.681057
C76	C	1.921248	0.774202	1.181057
C77	C	1.518609	0.261781	0.697947
C78	C	2.018609	0.761781	1.197947
C79	C	1.153266	0.344722	0.869864
C80	C	1.653266	0.844722	1.369864
C81	C	1.136429	0.362352	0.967213
C82	C	1.636429	0.862352	1.467213
C83	C	1.192873	1.093039	0.641498
C84	C	1.692873	1.593039	1.141498
C85	C	1.192891	1.003424	0.641553
C86	C	1.692891	1.503424	1.141553
C87	C	1.232186	0.262076	0.413877
C88	C	1.732186	0.762076	0.913877
C89	C	1.249193	0.244197	0.316558
C90	C	1.749193	0.744197	0.816558
C91	C	1.313150	0.177200	1.280561
C92	C	1.813150	0.677200	1.780561
C93	C	1.328975	0.160637	1.189099
C94	C	1.828975	0.660637	1.689099
C95	C	1.280839	0.211064	1.133623
C96	C	1.780839	0.711064	1.633623
C97	C	1.216877	0.278058	1.169619
C98	C	1.716877	0.778058	1.669619
C99	C	1.201055	0.294627	1.261091
C100	C	1.701055	0.794627	1.761091
C101	C	1.168745	0.328491	1.114153
C102	C	1.668745	0.828491	1.614153
C103	C	1.104782	0.395485	1.150149
C104	C	1.604782	0.895485	1.650149
C105	C	1.088963	0.412051	1.241612
C106	C	1.588963	0.912051	1.741612
C107	C	1.137098	0.361624	1.297088
C108	C	1.637098	0.861624	1.797088
C109	C	1.184567	0.311922	1.022680
C110	C	1.684567	0.811922	1.522680
C111	C	1.072472	0.429349	1.003210
C112	C	1.572472	0.929349	1.503210
C113	C	1.056647	0.445912	1.094673
C114	C	1.556647	0.945912	1.594673
H115	H	0.710917	0.442100	0.453029
H116	H	1.210917	0.942100	0.953029
H117	H	0.876896	0.420897	0.481793
H118	H	1.376896	0.920897	0.981793
H119	H	1.236645	0.257374	0.993381
H120	H	1.736645	0.757374	1.493381
H121	H	0.675503	0.164517	0.829994
H122	H	1.175503	0.664517	1.329994
H123	H	0.509536	0.185734	0.801224
H124	H	1.009536	0.685734	1.301224
Cl125	Cl	1.373662	0.113821	1.350306
Cl126	Cl	1.873662	0.613821	1.850306
Cl127	Cl	1.300732	0.190237	1.018639
Cl128	Cl	1.800732	0.690237	1.518639
H129	H	0.564028	0.418325	0.485374
H130	H	1.064028	0.918325	0.985374
Cl131	Cl	1.008567	0.496284	1.286865
Cl132	Cl	1.508567	0.996284	1.786865
H133	H	0.776059	0.228872	0.742561
H134	H	1.276059	0.728872	1.242561
H135	H	0.463472	0.353955	0.572811
H136	H	0.963472	0.853955	1.072811
Cl137	Cl	1.409381	0.076420	1.143853
Cl138	Cl	1.909381	0.576420	1.643853
H139	H	1.124217	0.375106	1.371566
H140	H	1.624217	0.875106	1.871566
H141	H	1.004567	0.500460	1.123994
H142	H	1.504567	1.000460	1.623994
Cl143	Cl	1.011960	0.492751	0.933476
Cl144	Cl	1.511960	0.992751	1.433476
H145	H	0.841767	0.270946	0.685414
H146	H	1.341767	0.770946	1.185414
