data_functionalizedCrystal
_audit_creation_method	'MofGen! by Chris Wilmer'
_symmetry_space_group_name_H-M	'P1'
_symmetry_Int_Tables_number	1
_symmetry_cell_setting	triclinic
loop_
_symmetry_equiv_pos_as_xyz
  x,y,z
_cell_length_a	12.811457
_cell_length_b	10.654545
_cell_length_c	11.295483
_cell_angle_alpha	94.137200
_cell_angle_beta	91.289320
_cell_angle_gamma	84.263291
loop_
_atom_site_label
_atom_site_type_symbol
_atom_site_fract_x
_atom_site_fract_y
_atom_site_fract_z
O1	O	1.390272	0.173489	0.051121
O2	O	1.087142	0.189102	0.018383
O3	O	1.245676	-0.001416	0.035506
O4	O	1.231738	0.364007	0.033999
O5	O	1.231752	0.015291	0.232052
O6	O	1.073218	0.205809	0.214930
O7	O	1.376348	0.190197	0.247668
Cu8	Cu	1.223511	0.199529	0.249245
Cu9	Cu	1.239979	0.179770	0.016806
O10	O	1.217814	0.380715	0.230545
C11	C	1.041366	0.196069	0.112465
C12	C	0.925711	0.191921	0.099974
C13	C	0.693201	0.202321	0.290802
C14	C	0.584533	0.198424	0.279072
C15	C	0.599704	0.180222	0.064784
C16	C	0.708373	0.184119	0.076515
C17	C	0.755117	0.195170	0.189527
C18	C	0.863787	0.199076	0.201256
C19	C	0.878957	0.180865	-0.013030
C20	C	0.770288	0.176968	-0.024760
C21	C	1.237690	-0.039865	0.133666
C22	C	1.234628	-0.179321	0.133328
C23	C	1.249822	-0.197544	-0.080952
C24	C	1.255983	-0.272171	-0.188246
C25	C	1.253106	-0.403202	-0.188558
C26	C	1.244063	-0.459606	-0.081565
C27	C	1.237901	-0.384979	0.025730
C28	C	1.240783	-0.253947	0.026031
C29	C	1.222701	-0.366755	0.240007
C30	C	1.225585	-0.235725	0.240322
C31	C	1.213658	-0.423159	0.347000
C32	C	1.207503	-0.348533	0.454298
C33	C	1.210382	-0.217495	0.454606
C34	C	1.219423	-0.161098	0.347617
C35	C	1.422124	0.183230	0.153584
C36	C	1.537780	0.187376	0.166067
C37	C	1.225800	0.419163	0.132382
C38	C	1.228863	0.558618	0.132712
N39	N	1.211937	0.213425	0.412731
N40	N	1.251561	0.165864	-0.146680
C41	C	1.334882	0.065759	0.675299
C42	C	1.326142	0.076270	0.799019
C43	C	1.185713	0.244950	0.783892
C44	C	1.194453	0.234439	0.660173
C45	C	1.269041	0.144842	0.605881
C46	C	1.277785	0.134339	0.482159
C47	C	1.137351	0.303012	0.467034
C48	C	1.128612	0.313523	0.590754
H49	H	1.263345	-0.226232	-0.275358
O50	O	0.914205	0.211011	0.323143
H51	H	0.898387	0.129209	0.373201
O52	O	0.945743	0.173154	-0.122268
H53	H	0.894977	0.164825	-0.202819
H54	H	1.067881	0.386468	0.634973
O55	O	1.203747	-0.137011	0.570336
H56	H	1.128682	-0.147628	0.613996
H57	H	1.241709	-0.566297	-0.081830
O58	O	1.415325	-0.030870	0.616728
H59	H	1.459639	-0.084101	0.685786
O60	O	1.253033	-0.056234	-0.080599
H61	H	1.260389	-0.029554	-0.173015
O62	O	0.719872	0.165036	-0.146649
H63	H	0.735706	0.246829	-0.196710
O64	O	1.397167	-0.009011	0.873899
H65	H	1.450505	-0.073066	0.815357
O66	O	1.259748	-0.483700	-0.304281
H67	H	1.187923	-0.533654	-0.317200
H68	H	1.211310	-0.529851	0.346738
H69	H	1.338520	0.061388	0.437957
H70	H	1.200134	-0.394467	0.541403
O71	O	1.222658	-0.019797	0.347887
H72	H	1.155871	0.021064	0.294035
H73	H	1.124979	0.317890	0.828112
H74	H	1.083742	0.367410	0.410500
H75	H	0.534124	0.204253	0.361540
H76	H	0.731259	0.211336	0.382821
O77	O	0.549280	0.168298	-0.057101
H78	H	0.463314	0.166793	-0.048237
