data_functionalizedCrystal
_audit_creation_method	'MofGen! by Chris Wilmer'
_symmetry_space_group_name_H-M	'P1'
_symmetry_Int_Tables_number	1
_symmetry_cell_setting	triclinic
loop_
_symmetry_equiv_pos_as_xyz
  x,y,z
_cell_length_a	16.625547
_cell_length_b	29.839131
_cell_length_c	16.625539
_cell_angle_alpha	89.969769
_cell_angle_beta	89.978691
_cell_angle_gamma	90.041357
loop_
_atom_site_label
_atom_site_type_symbol
_atom_site_fract_x
_atom_site_fract_y
_atom_site_fract_z
Zn1	Zn	1.232546	-0.178862	-0.455980
Zn2	Zn	1.232413	-0.253990	-0.321138
Zn3	Zn	1.097716	-0.178875	-0.321150
Zn4	Zn	1.097634	-0.253965	-0.455918
O5	O	1.165077	-0.216423	-0.388546
O6	O	1.345361	-0.188832	-0.438113
O7	O	1.214524	-0.244042	-0.208307
O8	O	1.115692	-0.116006	-0.339067
O9	O	1.345263	-0.244029	-0.339046
O10	O	1.214751	-0.115996	-0.438125
O11	O	1.115563	-0.188855	-0.208316
O12	O	0.984873	-0.188831	-0.339007
O13	O	1.115552	-0.243987	-0.568758
O14	O	0.984813	-0.243999	-0.438020
O15	O	1.214671	-0.188808	-0.568804
O16	O	1.214444	-0.316854	-0.338986
O17	O	1.115423	-0.316836	-0.438008
C18	C	0.955587	-0.216414	-0.388508
C19	C	0.865966	-0.216421	-0.388511
C20	C	0.793183	-0.216422	-0.388521
C21	C	0.701875	-0.216424	-0.388541
C22	C	0.629098	-0.216429	-0.388562
C23	C	0.537784	-0.216432	-0.388581
C24	C	1.164932	-0.333145	-0.388506
C25	C	1.164943	-0.383080	-0.388516
C26	C	1.216732	-0.692720	-0.337061
C27	C	1.216831	-0.880393	-0.337092
O28	O	1.260748	-0.904655	-0.293312
N29	N	1.165245	-0.903865	-0.388607
C30	C	1.113633	-0.880416	-0.440122
O31	O	1.069764	-0.904686	-0.483945
C32	C	1.113538	-0.692743	-0.440094
C33	C	1.165123	-0.669274	-0.388570
C34	C	1.268313	-0.669251	-0.285542
C35	C	1.268284	-0.622335	-0.285531
C36	C	1.216675	-0.598889	-0.337040
C37	C	1.165094	-0.622359	-0.388559
C38	C	1.061931	-0.669295	-0.491612
C39	C	1.061914	-0.622374	-0.491602
C40	C	1.113498	-0.598904	-0.440078
C41	C	1.113456	-0.551997	-0.440058
N42	N	1.165043	-0.528525	-0.388543
C43	C	1.216652	-0.551971	-0.337034
C44	C	1.113686	-0.978946	-0.440132
C45	C	1.113708	-1.025864	-0.440138
C46	C	1.216908	-1.025838	-0.337109
C47	C	1.216880	-0.978920	-0.337099
C48	C	1.165272	-0.955474	-0.388617
C49	C	1.216588	-0.453446	-0.337015
C50	C	1.216553	-0.406526	-0.337007
C51	C	1.113356	-0.406556	-0.440039
C52	C	1.113389	-0.453471	-0.440044
C53	C	1.165011	-0.476915	-0.388530
O54	O	1.069569	-0.527706	-0.483821
O55	O	1.260528	-0.527693	-0.293230
C56	C	1.216760	-0.739636	-0.337071
C57	C	1.165180	-0.763105	-0.388591
C58	C	1.113570	-0.739659	-0.440099
C59	C	1.165202	-0.810023	-0.388597
C60	C	1.216811	-0.833469	-0.337088
C61	C	1.268398	-0.809997	-0.285573
C62	C	1.268370	-0.763082	-0.285562
C63	C	1.061984	-0.763131	-0.491614
C64	C	1.062016	-0.810046	-0.491620
C65	C	1.113625	-0.833492	-0.440111
C66	C	1.375386	-0.216432	-0.388585
C67	C	1.465007	-0.216436	-0.388602
C68	C	1.165117	-0.216393	-0.598855
C69	C	1.165134	-0.216381	-0.688476
C70	C	1.165246	-0.099244	-0.388604
C71	C	1.165317	-0.049310	-0.388629
C72	C	1.165147	-0.216371	-0.761259
C73	C	1.165166	-0.216354	-0.852567
C74	C	1.165185	-0.216338	-0.925344
C75	C	1.165205	-0.216322	-1.016658
C76	C	1.165085	-0.216420	-0.179055
C77	C	1.165224	-0.216306	-0.089435
H78	H	1.258559	-0.387419	-0.295047
N79	N	1.058009	-0.953661	-0.495689
H80	H	1.090734	-0.934164	-0.533093
H81	H	1.025346	-0.975682	-0.528263
N82	N	1.323979	-0.694530	-0.229972
H83	H	1.291243	-0.714025	-0.192573
H84	H	1.361333	-0.713940	-0.262823
N85	N	1.006379	-0.835359	-0.547197
H86	H	0.969041	-0.854861	-0.514404
H87	H	0.973738	-0.813356	-0.579816
H88	H	1.019958	-0.744044	-0.533560
N89	N	1.057746	-0.478785	-0.495611
H90	H	1.090502	-0.498217	-0.533016
H91	H	1.020424	-0.498261	-0.462755
H92	H	1.071334	-0.387459	-0.481974
H93	H	1.019889	-0.603287	-0.533556
H94	H	1.258885	-0.959814	-0.295144
H95	H	1.310418	-0.829095	-0.243630
N96	N	1.272571	-1.051131	-0.281549
H97	H	1.264753	-1.084413	-0.289376
H98	H	1.330145	-1.042896	-0.294160
H99	H	1.258626	-0.472528	-0.295069
H100	H	1.310291	-0.603229	-0.243578
N101	N	1.058056	-1.051171	-0.495701
H102	H	1.070540	-1.042977	-0.553321
H103	H	1.065918	-1.084444	-0.487827
N104	N	1.006289	-0.694601	-0.547181
H105	H	0.973599	-0.672622	-0.579807
H106	H	1.039094	-0.714035	-0.584535
N107	N	1.324013	-0.737770	-0.229998
H108	H	1.311535	-0.745965	-0.172377
H109	H	1.381595	-0.745913	-0.242656
