data_functionalizedCrystal
_audit_creation_method	'MofGen! by Chris Wilmer'
_symmetry_space_group_name_H-M	'P1'
_symmetry_Int_Tables_number	1
_symmetry_cell_setting	triclinic
loop_
_symmetry_equiv_pos_as_xyz
  x,y,z
_cell_length_a	16.120484
_cell_length_b	10.686154
_cell_length_c	16.120297
_cell_angle_alpha	82.989966
_cell_angle_beta	95.614431
_cell_angle_gamma	82.931688
loop_
_atom_site_label
_atom_site_type_symbol
_atom_site_fract_x
_atom_site_fract_y
_atom_site_fract_z
Zn1	Zn	-0.256335	-1.879485	-0.389264
Zn2	Zn	0.243665	-1.379485	0.110736
Zn3	Zn	-0.389033	-1.879325	-0.256583
Zn4	Zn	0.110967	-1.379325	0.243417
Zn5	Zn	-0.260030	-1.678093	-0.260246
Zn6	Zn	0.239970	-1.178093	0.239754
Zn7	Zn	-0.408042	-1.655314	-0.408247
Zn8	Zn	0.091958	-1.155314	0.091753
O9	O	-0.328360	-1.773054	-0.328585
O10	O	0.171640	-1.273054	0.171415
O11	O	-0.264436	-2.057496	-0.362187
O12	O	0.235564	-1.557496	0.137813
O13	O	-0.365512	-1.862097	-0.139603
O14	O	0.134488	-1.362097	0.360397
O15	O	-0.142062	-1.714408	-0.270949
O16	O	0.357938	-1.214408	0.229051
O17	O	-0.361928	-2.057379	-0.264707
O18	O	0.138072	-1.557379	0.235293
O19	O	-0.139347	-1.862370	-0.365738
O20	O	0.360653	-1.362370	0.134262
O21	O	-0.270734	-1.714253	-0.142294
O22	O	0.229266	-1.214253	0.357706
O23	O	-0.289166	-1.497039	-0.289356
O24	O	0.210834	-0.997039	0.210644
O25	O	-0.394327	-1.675585	-0.523196
O26	O	0.105673	-1.175585	-0.023196
O27	O	-0.397910	-1.480303	-0.398092
O28	O	0.102090	-0.980303	0.101908
O29	O	-0.282868	-1.840282	-0.509249
O30	O	0.217132	-1.340282	-0.009249
O31	O	-0.509033	-1.840009	-0.283113
O32	O	-0.009033	-1.340009	0.216887
O33	O	-0.522999	-1.675430	-0.394540
O34	O	-0.022999	-1.175430	0.105460
C35	C	-0.346003	-1.442509	-0.346182
C36	C	0.153997	-0.942509	0.153818
C37	C	-0.353571	-1.301097	-0.353730
C38	C	0.146429	-0.801097	0.146270
C39	C	-0.546476	-1.755263	-0.340506
C40	C	-0.046476	-1.255263	0.159494
C41	C	-0.639782	-1.747766	-0.345627
C42	C	-0.139782	-1.247766	0.154373
C43	C	-0.810613	-1.734085	-0.354995
C44	C	-0.310613	-1.234085	0.145005
C45	C	-0.845256	-1.812251	-0.302177
C46	C	-0.345256	-1.312251	0.197823
C47	C	-0.940312	-1.804638	-0.307389
C48	C	-0.440312	-1.304638	0.192611
C49	C	-0.715548	-1.741695	-0.349784
C50	C	-0.215548	-1.241695	0.150216
C51	C	-0.109392	-1.790948	-0.316635
C52	C	0.390608	-1.290948	0.183365
C53	C	-0.016081	-1.798573	-0.311542
C54	C	0.483919	-1.298573	0.188458
C55	C	-0.340305	-1.755411	-0.547532
C56	C	0.159695	-1.255411	-0.047532
C57	C	-0.345396	-1.747892	-0.640833
C58	C	0.154604	-1.247892	-0.140833
C59	C	-0.310641	-1.104891	-0.310915
C60	C	0.189359	-0.604891	0.189085
C61	C	-0.303068	-1.246303	-0.303369
C62	C	0.196932	-0.746303	0.196631
C63	C	-0.354674	-1.734120	-0.811658
C64	C	0.145326	-1.234120	-0.311658
C65	C	-0.301782	-1.812260	-0.846337
C66	C	0.198218	-1.312260	-0.346337
C67	C	-0.306944	-1.804597	-0.941390
C68	C	0.193056	-1.304597	-0.441390
C69	C	-0.349513	-1.741781	-0.716597
C70	C	0.150487	-1.241781	-0.216597
C71	C	-0.316397	-1.790707	-0.110483
C72	C	0.183603	-1.290707	0.389517
C73	C	-0.311057	-1.798492	-0.017156
C74	C	0.188943	-1.298492	0.482844
H75	H	-0.402607	-1.239818	-0.402621
H76	H	0.097393	-0.739818	0.097379
H77	H	-0.852341	-1.661452	-0.404123
H78	H	-0.352341	-1.161452	0.095877
C79	C	-0.788889	-1.910374	-0.235793
C80	C	-0.288889	-1.410374	0.264207
C81	C	-0.796242	-1.906841	-0.141556
C82	C	-0.296242	-1.406841	0.358444
C83	C	-0.739873	-2.004955	-0.075171
C84	C	-0.239873	-1.504955	0.424829
C85	C	-0.676151	-2.106604	-0.103024
C86	C	-0.176151	-1.606604	0.396976
C87	C	-0.668795	-2.110141	-0.197266
C88	C	-0.168795	-1.610141	0.302734
C89	C	-0.725164	-2.012026	-0.263651
C90	C	-0.225164	-1.512026	0.236349
H91	H	-0.843415	-1.831591	-0.120933
H92	H	-0.343415	-1.331591	0.379067
H93	H	-0.745319	-2.002336	-0.005407
H94	H	-0.245319	-1.502336	0.494593
H95	H	-0.634423	-2.179234	-0.053882
H96	H	-0.134423	-1.679234	0.446118
H97	H	-0.621622	-2.185391	-0.217889
H98	H	-0.121622	-1.685391	0.282111
H99	H	-0.719718	-2.014646	-0.333415
H100	H	-0.219718	-1.514646	0.166585
H101	H	-0.252622	-1.884912	-0.804641
H102	H	0.247378	-1.384912	-0.304641
H103	H	-0.403829	-1.661474	-0.853352
H104	H	0.096171	-1.161474	-0.353352
H105	H	-0.254041	-1.307575	-0.254477
H106	H	0.245959	-0.807575	0.245523
