data_functionalizedCrystal
_audit_creation_method	'MofGen! by Chris Wilmer'
_symmetry_space_group_name_H-M	'P1'
_symmetry_Int_Tables_number	1
_symmetry_cell_setting	triclinic
loop_
_symmetry_equiv_pos_as_xyz
  x,y,z
_cell_length_a	18.627243
_cell_length_b	18.627245
_cell_length_c	18.627297
_cell_angle_alpha	90.002039
_cell_angle_beta	59.997824
_cell_angle_gamma	119.999685
loop_
_atom_site_label
_atom_site_type_symbol
_atom_site_fract_x
_atom_site_fract_y
_atom_site_fract_z
O1	O	0.633240	-0.492484	-0.021356
O2	O	0.486232	-0.388088	0.021256
O3	O	0.633235	-0.388087	-0.125751
O4	O	0.486237	-0.492485	0.125650
O5	O	0.513833	-0.507489	-0.125750
O6	O	0.366830	-0.507489	0.021256
O7	O	0.513838	-0.611886	-0.021356
Zn8	Zn	0.421376	-0.578645	-0.000050
Zn9	Zn	0.578694	-0.421328	-0.000051
O10	O	0.366835	-0.611886	0.125650
C11	C	0.356044	-0.256979	0.030935
C12	C	0.406443	-0.162282	0.024836
C13	C	0.269040	-0.300580	0.031539
C14	C	0.356039	-0.386983	0.030943
C15	C	0.406432	-0.431286	0.024852
C16	C	0.269035	-0.430386	0.031548
C17	C	0.226044	-0.386979	0.030935
C18	C	0.137446	-0.431279	0.024835
C19	C	0.398838	-0.300583	0.031548
O20	O	-0.104350	-0.611881	-0.021369
O21	O	0.104442	-0.507482	0.021239
O22	O	0.104453	-0.507489	-0.125766
O23	O	-0.104360	-0.611875	0.125635
O24	O	0.104457	-0.388084	-0.125773
O25	O	0.104446	-0.388078	0.021231
O26	O	-0.104345	-0.492477	-0.021377
Zn27	Zn	0.000051	-0.421319	-0.000074
Zn28	Zn	0.000046	-0.578640	-0.000064
O29	O	-0.104356	-0.492470	0.125628
C30	C	0.644032	-0.386986	-0.387050
C31	C	0.593636	-0.431285	-0.431350
C32	C	0.731038	-0.300587	-0.430453
C33	C	0.644032	-0.386986	-0.257049
C34	C	0.593635	-0.431287	-0.162352
C35	C	0.731037	-0.300588	-0.300650
C36	C	0.774032	-0.256986	-0.387049
C37	C	0.862632	-0.162290	-0.431348
C38	C	0.601235	-0.430390	-0.300651
C39	C	0.774046	-0.612982	-0.031065
C40	C	0.862649	-0.568681	-0.024971
C41	C	0.731054	-0.699380	-0.031674
C42	C	0.644041	-0.612985	-0.031058
C43	C	0.593641	-0.568686	-0.024957
C44	C	0.601246	-0.699383	-0.031667
C45	C	0.644046	-0.742983	-0.031064
C46	C	0.593651	-0.837679	-0.024969
C47	C	0.731049	-0.569580	-0.031668
O48	O	0.513853	0.125721	-0.021375
O49	O	0.366846	-0.125678	0.021232
O50	O	0.513856	0.021315	-0.125772
O51	O	0.366843	-0.021272	0.125629
O52	O	0.633253	0.021311	-0.125765
O53	O	0.486243	-0.125682	0.021240
O54	O	0.633250	0.125717	-0.021368
Zn55	Zn	0.578703	0.000017	-0.000063
Zn56	Zn	0.421393	0.000022	-0.000073
O57	O	0.486240	-0.021275	0.125637
O58	O	1.104430	0.125707	-0.492538
O59	O	0.895633	-0.125690	-0.388147
O60	O	0.895628	0.021307	-0.388137
O61	O	1.104435	-0.021290	-0.492548
O62	O	0.895631	0.021311	-0.507540
O63	O	0.895636	-0.125686	-0.507550
O64	O	1.104433	0.125711	-0.611941
Zn65	Zn	1.000035	0.000013	-0.578704
Zn66	Zn	1.000031	0.000008	-0.421384
O67	O	1.104438	-0.021286	-0.611951
O68	O	0.486231	-0.492490	-0.611948
O69	O	0.633235	-0.388087	-0.507553
O70	O	0.486230	-0.388090	-0.507544
O71	O	0.633237	-0.492487	-0.611956
O72	O	0.366830	-0.507490	-0.388142
O73	O	0.513836	-0.507487	-0.388151
O74	O	0.366832	-0.611890	-0.492545
Zn75	Zn	0.421376	-0.578646	-0.421390
Zn76	Zn	0.578691	-0.421331	-0.578708
O77	O	0.513837	-0.611887	-0.492554
C78	C	0.226037	-0.742989	0.386948
C79	C	0.137437	-0.837686	0.431246
C80	C	0.269030	-0.699389	0.430353
C81	C	0.356038	-0.612988	0.256949
C82	C	0.406435	-0.568687	0.162252
C83	C	0.398834	-0.569585	0.300552
C84	C	0.356036	-0.612990	0.386950
C85	C	0.406432	-0.568691	0.431252
C86	C	0.269032	-0.699387	0.300549
C87	C	0.356073	-0.256995	-0.387073
C88	C	0.406473	-0.162299	-0.431376
C89	C	0.398871	-0.300599	-0.430474
C90	C	0.226065	-0.386990	-0.257069
C91	C	0.137460	-0.431286	-0.162372
C92	C	0.269060	-0.430398	-0.300668
C93	C	0.356070	-0.386997	-0.387067
C94	C	0.406468	-0.431300	-0.431364
C95	C	0.269063	-0.300593	-0.300674
C96	C	-0.355975	-0.612964	0.386929
C97	C	-0.406373	-0.568662	0.431227
C98	C	-0.398774	-0.699362	0.430336
C99	C	-0.225968	-0.612970	0.256931
C100	C	-0.137363	-0.568673	0.162234
C101	C	-0.268966	-0.699367	0.300535
C102	C	-0.355976	-0.742966	0.386934
C103	C	-0.406376	-0.837662	0.431237
C104	C	-0.268964	-0.569563	0.300530
C105	C	0.774043	0.030962	-0.387056
C106	C	0.862639	0.024856	-0.431349
C107	C	0.731051	0.031564	-0.430463
C108	C	0.644049	0.030986	-0.257064
C109	C	0.593654	0.024905	-0.162369
C110	C	0.601253	0.031588	-0.300669
C111	C	0.644048	0.030966	-0.387064
C112	C	0.593653	0.024863	-0.431366
C113	C	0.731051	0.031584	-0.300660
O114	O	0.633303	0.125701	-0.611972
O115	O	0.486281	-0.125700	-0.507577
O116	O	0.633272	0.021288	-0.507558
O117	O	0.486311	-0.021287	-0.611991
O118	O	0.513861	0.021292	-0.388162
O119	O	0.366869	-0.125696	-0.388181
O120	O	0.513891	0.125706	-0.492576
Zn121	Zn	0.421421	0.000006	-0.421421
Zn122	Zn	0.578751	0.000000	-0.578731
O123	O	0.366900	-0.021282	-0.492594
C124	C	0.356047	-0.030927	0.386929
C125	C	0.406443	-0.024826	0.431231
C126	C	0.269046	-0.031525	0.430327
C127	C	0.356047	-0.030947	0.256928
C128	C	0.406442	-0.024866	0.162234
C129	C	0.269045	-0.031545	0.300525
C130	C	0.226053	-0.030923	0.386920
C131	C	0.137458	-0.024816	0.431213
C132	C	0.398842	-0.031549	0.300533
H133	H	0.767008	-0.265581	-0.265636
H134	H	0.468846	-0.498597	0.265543
H135	H	0.233032	-0.734393	0.501347
H136	H	0.767019	-0.265586	-0.501443
O137	O	0.225936	-0.515113	0.032835
C138	C	0.125458	-0.568550	0.108985
H139	H	0.096242	-0.526415	0.133543
H140	H	0.123741	-0.601037	0.162225
C141	C	0.093371	-0.691704	0.056912
C142	C	0.057484	-0.639954	0.087070
H143	H	0.051441	-0.735753	0.043396
H144	H	0.161065	-0.655704	0.005610
H145	H	0.091938	-0.718769	0.101283
H146	H	0.058929	-0.612882	0.042695
H147	H	-0.010212	-0.675951	0.138364
O148	O	0.517782	-0.515110	-0.258854
C149	C	0.540447	-0.568588	-0.234521
H150	H	0.607126	-0.526488	-0.229840
H151	H	0.561197	-0.601070	-0.286055
C152	C	0.365205	-0.691706	-0.150402
C153	C	0.447096	-0.639999	-0.144645
H154	H	0.307621	-0.735758	-0.094964
H155	H	0.349935	-0.655678	-0.166798
H156	H	0.382511	-0.718765	-0.193350
H157	H	0.429794	-0.612932	-0.101705
H158	H	0.462361	-0.676023	-0.128239
O159	O	-0.225957	-0.484824	0.258852
C160	C	-0.196908	-0.431390	0.305919
H161	H	-0.186286	-0.464641	0.347530
H162	H	-0.258447	-0.421407	0.350536
C163	C	-0.109445	-0.300749	0.189741
C164	C	-0.096390	-0.341586	0.240844
H165	H	-0.047443	-0.245352	0.149601
H166	H	-0.129018	-0.336748	0.158032
H167	H	-0.160730	-0.292438	0.226932
H168	H	-0.045115	-0.349906	0.203654
H169	H	-0.076805	-0.305586	0.272545
H170	H	0.468895	-0.265589	-0.501459
H171	H	0.531229	-0.734388	-0.032637
O172	O	-0.482436	-0.741176	0.514960
C173	C	-0.562556	-0.745536	0.519731
H174	H	-0.548875	-0.739829	0.452471
H175	H	-0.566248	-0.689314	0.540737
C176	C	-0.680368	-0.840966	0.670033
C177	C	-0.663570	-0.833964	0.587424
H178	H	-0.742679	-0.895510	0.711792
H179	H	-0.626389	-0.838026	0.666821
H180	H	-0.683438	-0.794109	0.687526
H181	H	-0.660486	-0.880814	0.569928
H182	H	-0.717550	-0.836914	0.590635
H183	H	0.767042	-0.734382	-0.032654
O184	O	0.225985	-0.741118	0.258860
C185	C	0.125482	-0.765509	0.305911
H186	H	0.117103	-0.721640	0.347528
H187	H	0.070883	-0.837029	0.350522
C188	C	0.111062	-0.808681	0.189710
C189	C	0.100773	-0.754795	0.240820
H190	H	0.095818	-0.802076	0.149560
H191	H	0.178772	-0.792251	0.158012
H192	H	0.065562	-0.868276	0.226895
H193	H	0.146282	-0.695200	0.203635
H194	H	0.033070	-0.771214	0.272510
O195	O	0.482465	-0.032570	0.258680
C196	C	0.562595	0.042734	0.182879
H197	H	0.548995	0.096363	0.190821
H198	H	0.566205	0.025379	0.123003
C199	C	0.680324	0.010122	0.160476
C200	C	0.663625	0.075993	0.170235
H201	H	0.742645	0.030636	0.152673
H202	H	0.626339	-0.040613	0.211543
H203	H	0.683326	-0.004334	0.110581
H204	H	0.660610	0.090440	0.220136
H205	H	0.717612	0.126732	0.119176
O206	O	0.773975	-0.484932	-0.032708
C207	C	0.774377	-0.480126	0.042643
H208	H	0.770251	-0.538464	0.068580
H209	H	0.706031	-0.481697	0.095458
C210	C	0.877781	-0.322299	-0.013286
C211	C	0.872722	-0.393947	0.018566
H212	H	0.938443	-0.269138	-0.028135
H213	H	0.877508	-0.325536	-0.064049
H214	H	0.820821	-0.323620	0.030733
H215	H	0.929675	-0.392631	-0.025455
H216	H	0.873007	-0.390707	0.069322
H217	H	0.468845	-0.265576	0.032531
O218	O	0.226002	-0.515134	-0.258928
C219	C	0.125501	-0.568577	-0.234543
H220	H	0.117138	-0.535336	-0.278422
H221	H	0.070899	-0.578555	-0.163025
C222	C	0.111050	-0.699206	-0.191350
C223	C	0.100780	-0.658383	-0.245248
H224	H	0.095798	-0.754605	-0.197949
H225	H	0.178758	-0.663201	-0.207776
H226	H	0.065547	-0.707513	-0.131756
H227	H	0.146292	-0.650067	-0.304841
H228	H	0.033079	-0.694389	-0.228833
H229	H	0.233084	-0.265580	-0.265673
H230	H	-0.232978	-0.734371	0.265528
H231	H	0.233059	-0.265571	0.032519
O232	O	0.517845	0.032924	-0.258938
C233	C	0.540536	0.109049	-0.234569
H234	H	0.626026	0.161278	-0.278451
H235	H	0.513638	0.092142	-0.163050
C236	C	0.381178	0.080339	-0.191385
C237	C	0.486176	0.144491	-0.245287
H238	H	0.347643	0.102200	-0.197992
H239	H	0.365887	0.029050	-0.207799
H240	H	0.358777	0.066256	-0.131790
H241	H	0.508577	0.158564	-0.304880
H242	H	0.501469	0.195783	-0.228882
H243	H	0.767042	0.032539	-0.501453
H244	H	0.767034	0.032562	-0.265654
H245	H	0.233069	-0.032523	0.265512
H246	H	0.233063	-0.032497	0.501316
