data_functionalizedCrystal
_audit_creation_method	'MofGen! by Chris Wilmer'
_symmetry_space_group_name_H-M	'P1'
_symmetry_Int_Tables_number	1
_symmetry_cell_setting	triclinic
loop_
_symmetry_equiv_pos_as_xyz
  x,y,z
_cell_length_a	18.760487
_cell_length_b	21.606444
_cell_length_c	21.606444
_cell_angle_alpha	60.000398
_cell_angle_beta	90.034181
_cell_angle_gamma	60.019231
loop_
_atom_site_label
_atom_site_type_symbol
_atom_site_fract_x
_atom_site_fract_y
_atom_site_fract_z
Zr1	Zr	0.686675	0.677449	-0.080833
O2	O	0.572858	0.806570	-0.179716
O3	O	0.721568	0.548330	-0.050523
O4	O	0.721567	0.677451	-0.179640
O5	O	0.572858	0.677446	0.051255
O6	O	0.838870	0.677451	-0.179578
O7	O	0.572859	0.677448	-0.050599
O8	O	0.838871	0.446476	0.051389
O9	O	0.572857	0.908420	-0.179712
O10	O	0.823989	0.601437	-0.037546
O11	O	0.736447	0.601436	0.038419
O12	O	0.736446	0.753460	-0.113600
O13	O	0.648904	0.753458	-0.037635
Zr14	Zr	0.873759	0.677445	0.081711
Zr15	Zr	0.873760	0.677448	-0.080733
Zr16	Zr	0.686674	0.677445	0.081611
Zr17	Zr	0.686673	0.839889	-0.080828
Zr18	Zr	0.873761	0.515004	0.081705
O19	O	0.838867	0.806564	0.051401
O20	O	0.838868	0.806569	-0.179574
O21	O	0.572856	0.806564	0.051259
O22	O	0.987576	0.548324	0.180593
O23	O	0.987578	0.548329	-0.050381
O24	O	0.721566	0.548324	0.180451
O25	O	0.987576	0.677448	-0.050377
O26	O	0.838867	0.677442	0.180518
O27	O	0.721564	0.677442	0.180455
O28	O	0.987575	0.677445	0.051476
O29	O	0.721564	0.908420	-0.179633
O30	O	0.838870	0.446473	0.180511
O31	O	0.987577	0.446473	0.180590
O32	O	0.987578	0.446476	0.051469
O33	O	0.572856	0.908417	-0.050591
O34	O	0.721563	0.908417	-0.050512
O35	O	0.823988	0.601434	0.114477
O36	O	0.911530	0.601435	0.038512
O37	O	0.823987	0.753458	-0.037541
O38	O	0.736445	0.753456	0.038424
C39	C	0.780220	0.474259	0.000432
C40	C	0.780220	0.405298	0.000430
C41	C	0.825915	0.372902	-0.039224
C42	C	0.825918	0.308102	-0.039219
C43	C	0.780221	0.275704	0.000436
C44	C	0.734525	0.308103	0.040095
C45	C	0.734528	0.372898	0.040094
C46	C	0.734515	0.046794	0.040102
C47	C	0.734514	-0.018003	0.040098
C48	C	0.825905	-0.018002	-0.039212
C49	C	0.825907	0.046793	-0.039213
C50	C	0.780216	0.079183	0.000449
C51	C	0.780214	0.149445	0.000444
C52	C	0.780217	0.205447	0.000437
C53	C	0.546203	0.677447	0.000314
C54	C	0.466780	0.677447	0.000271
C55	C	0.085267	0.756804	-0.039129
C56	C	0.176668	0.598090	0.040273
C57	C	0.251290	0.598089	0.040208
C58	C	0.242903	0.677446	0.000473
C59	C	0.159894	0.756805	-0.039197
C60	C	0.334304	0.518731	0.079870
C61	C	0.408932	0.518727	0.079806
C62	C	0.400546	0.598085	0.040075
C63	C	0.317531	0.677447	0.000405
C64	C	0.309144	0.756805	-0.039330
C65	C	0.226130	0.836168	-0.078997
C66	C	0.151508	0.836163	-0.078928
C67	C	0.475167	0.598090	0.040006
C68	C	0.383772	0.756806	-0.039398
C69	C	1.014231	0.677446	0.000564
C70	C	1.093654	0.677446	0.000606
C71	C	0.780218	0.677452	-0.202754
C72	C	0.780219	0.677453	-0.271716
C73	C	0.780215	0.880635	0.000445
C74	C	0.780214	0.949595	0.000448
C75	C	0.844842	0.677455	-0.304079
C76	C	0.844845	0.677449	-0.368872
C77	C	0.780220	0.677447	-0.401304
C78	C	0.715594	0.677443	-0.368934
C79	C	0.715595	0.677443	-0.304139
C80	C	0.715586	0.677442	-0.630244
C81	C	0.715588	0.677445	-0.695045
C82	C	0.844835	0.677448	-0.694978
C83	C	0.844837	0.677448	-0.630183
C84	C	0.780214	0.677439	-0.597816
C85	C	0.780213	0.677444	-0.527560
C86	C	0.780217	0.677448	-0.471562
C87	C	0.780216	0.677442	0.203631
C88	C	0.780215	0.677440	0.272593
C89	C	1.014234	0.474258	0.000557
C90	C	1.093657	0.405298	0.000597
C91	C	0.780218	0.474254	0.203625
C92	C	0.780218	0.405292	0.272584
C93	C	1.014232	0.474254	0.203750
C94	C	1.093655	0.405292	0.272752
C95	C	0.546202	0.880640	-0.202872
C96	C	0.466779	0.949602	-0.271874
C97	C	0.546200	0.880635	0.000320
C98	C	0.466777	0.949595	0.000280
C99	C	0.780216	0.880640	-0.202747
C100	C	0.780216	0.949601	-0.271707
C101	C	1.085259	0.372915	-0.039092
C102	C	1.159879	0.308128	-0.039070
C103	C	1.242895	0.275722	0.000647
C104	C	1.251291	0.308112	0.040338
C105	C	1.176672	0.372901	0.040311
C106	C	0.825914	0.372906	0.344677
C107	C	0.825911	0.308118	0.409478
C108	C	0.780217	0.275713	0.402185
C109	C	0.734516	0.308106	0.330084
C110	C	0.734514	0.372897	0.265285
C111	C	1.176657	0.372907	0.265503
C112	C	1.251290	0.308119	0.330331
C113	C	1.242920	0.275712	0.402408
C114	C	1.159909	0.308103	0.409655
C115	C	1.085278	0.372894	0.344828
C116	C	0.383777	0.981994	-0.264625
C117	C	0.309144	1.046802	-0.329454
C118	C	0.317515	1.079212	-0.401530
C119	C	0.400525	1.046817	-0.408778
C120	C	0.475156	0.982015	-0.343950
C121	C	0.475175	0.981985	0.039963
C122	C	0.400555	1.046790	0.039923
C123	C	0.317539	1.079198	0.000203
C124	C	0.309143	1.046805	-0.039485
C125	C	0.383762	0.982007	-0.039448
C126	C	0.825919	0.981986	-0.264389
C127	C	0.825935	1.046774	-0.329178
C128	C	0.780243	1.079181	-0.401283
C129	C	0.734539	1.046790	-0.408599
C130	C	0.734528	0.981999	-0.343812
H131	H	0.697316	0.399277	0.072382
F132	F	0.780227	0.206755	0.471158
H133	H	0.697313	0.281712	0.324157
F134	F	0.685880	0.407354	0.188560
F135	F	0.685903	0.273611	0.082310
H136	H	0.241561	1.073167	-0.323538
H137	H	0.863114	0.073172	-0.071507
F138	F	0.646808	0.677436	-0.595804
H139	H	0.863113	-0.044384	-0.071504
H140	H	1.183489	0.399283	0.206820
F141	F	0.646803	0.677442	-0.729559
F142	F	0.780261	1.148141	-0.470230
H143	H	0.863130	0.281752	0.468179
H144	H	0.662977	0.677436	-0.395340
F145	F	1.322304	0.206765	0.000671
H146	H	1.318893	0.281717	0.072675
H147	H	1.318874	0.281753	0.324417
H148	H	1.183522	0.399260	0.072636
F149	F	1.322357	0.206754	0.471398
H150	H	1.153107	0.281708	0.468349
F151	F	0.685907	1.081295	-0.485346
H152	H	0.542764	0.955603	0.072313
H153	H	0.407409	1.073153	0.072244
F154	F	0.685876	-0.052483	0.082307
H155	H	0.542738	0.955642	-0.349861
F156	F	0.220784	1.081304	-0.081752
H157	H	1.017697	0.399253	0.350741
H158	H	0.219311	0.900780	-0.111353
H159	H	0.256787	1.131962	0.000180
H160	H	0.863124	0.399283	0.350630
F161	F	0.409420	1.081318	-0.485493
F162	F	0.374836	0.841271	-0.081686
H163	H	0.256738	1.131978	-0.454311
H164	H	0.376945	0.955609	-0.205943
H165	H	0.376912	0.955636	-0.071761
H166	H	0.863127	0.955610	-0.205683
H167	H	0.863152	1.073140	-0.323206
F168	F	0.685874	0.947546	-0.351611
H169	H	0.897463	0.677461	-0.277681
H170	H	0.863126	0.281724	-0.071508
F171	F	0.063159	0.920619	-0.121140
F172	F	0.874548	0.407380	-0.081436
F173	F	0.996914	0.407394	-0.081370
H174	H	1.153025	0.281764	-0.071391
F175	F	0.685889	0.081256	0.082316
H176	H	0.183490	0.533481	0.072620
F177	F	-0.003080	0.841263	-0.081338
H178	H	0.341124	0.454123	0.112220
F179	F	0.646816	0.677437	-0.269694
F180	F	0.563510	0.513632	0.082214
F181	F	0.497275	0.434263	0.122024
H182	H	0.897466	0.677449	-0.395222
F183	F	0.913617	0.677453	-0.729427
F184	F	0.913616	0.677454	-0.595672
