data_functionalizedCrystal
_audit_creation_method	'MofGen! by Chris Wilmer'
_symmetry_space_group_name_H-M	'P1'
_symmetry_Int_Tables_number	1
_symmetry_cell_setting	triclinic
loop_
_symmetry_equiv_pos_as_xyz
  x,y,z
_cell_length_a	11.792241
_cell_length_b	9.065215
_cell_length_c	10.868271
_cell_angle_alpha	89.996443
_cell_angle_beta	90.005281
_cell_angle_gamma	95.395910
loop_
_atom_site_label
_atom_site_type_symbol
_atom_site_fract_x
_atom_site_fract_y
_atom_site_fract_z
O1	O	0.166417	-1.958844	0.102303
O2	O	0.666417	-1.458844	0.602303
O3	O	0.180072	-1.529430	0.102310
O4	O	0.680072	-1.029430	0.602310
O5	O	0.008132	-1.754558	0.102297
O6	O	0.508132	-1.254558	0.602297
O7	O	0.338358	-1.733716	0.102315
O8	O	0.838358	-1.233716	0.602315
O9	O	0.008125	-1.754539	-0.102347
O10	O	0.508125	-1.254539	0.397653
O11	O	0.180065	-1.529412	-0.102335
O12	O	0.680065	-1.029412	0.397665
O13	O	0.166410	-1.958825	-0.102342
O14	O	0.666410	-1.458825	0.397658
Zn15	Zn	0.173237	-1.744115	-0.134830
Zn16	Zn	0.673237	-1.244115	0.365170
Zn17	Zn	0.173246	-1.744140	0.134798
Zn18	Zn	0.673246	-1.244140	0.634798
O19	O	0.338351	-1.733698	-0.102330
O20	O	0.838351	-1.233698	0.397670
C21	C	0.178757	-1.474447	-0.000012
C22	C	0.678757	-0.974447	0.499988
C23	C	0.174835	-1.310640	-0.000009
C24	C	0.674835	-0.810640	0.499991
C25	C	-0.034170	-1.753239	-0.000025
C26	C	0.465830	-1.253239	0.499975
C27	C	-0.160205	-1.749321	-0.000023
C28	C	0.339795	-1.249321	0.499977
C29	C	-0.390957	-1.742115	-0.000003
C30	C	0.109043	-1.242115	0.499997
C31	C	-0.262550	-1.746119	-0.000014
C32	C	0.237450	-1.246119	0.499986
C33	C	0.380652	-1.735016	-0.000005
C34	C	0.880652	-1.235016	0.499995
C35	C	0.506688	-1.738935	0.000002
C36	C	1.006688	-1.238935	0.500002
C37	C	0.167725	-1.013809	-0.000017
C38	C	0.667725	-0.513809	0.499983
C39	C	0.171647	-1.177615	-0.000009
C40	C	0.671647	-0.677615	0.499991
N41	N	0.173230	-1.744109	-0.318844
N42	N	0.673230	-1.244109	0.181156
C43	C	0.173243	-1.744132	-0.569850
C44	C	0.673243	-1.244132	-0.069850
C45	C	0.173239	-1.744115	-0.430173
C46	C	0.673239	-1.244115	0.069827
N47	N	0.173244	-1.744158	0.318812
N48	N	0.673244	-1.244158	0.818812
