data_functionalizedCrystal
_audit_creation_method	'MofGen! by Chris Wilmer'
_symmetry_space_group_name_H-M	'P1'
_symmetry_Int_Tables_number	1
_symmetry_cell_setting	triclinic
loop_
_symmetry_equiv_pos_as_xyz
  x,y,z
_cell_length_a	21.395364
_cell_length_b	18.050590
_cell_length_c	21.395355
_cell_angle_alpha	90.018036
_cell_angle_beta	90.024516
_cell_angle_gamma	90.014317
loop_
_atom_site_label
_atom_site_type_symbol
_atom_site_fract_x
_atom_site_fract_y
_atom_site_fract_z
Zn1	Zn	0.957912	-0.295829	0.354263
Zn2	Zn	0.957837	-0.420001	0.249486
Zn3	Zn	0.853127	-0.295820	0.249500
Zn4	Zn	0.853118	-0.419973	0.354227
O5	O	0.905498	-0.357906	0.301869
O6	O	1.045580	-0.312317	0.340374
O7	O	0.943919	-0.403536	0.161810
O8	O	0.867062	-0.191897	0.263418
O9	O	1.045525	-0.403545	0.263395
O10	O	0.944047	-0.191904	0.340387
O11	O	0.866989	-0.312301	0.161820
O12	O	0.765448	-0.312274	0.263382
O13	O	0.867047	-0.403497	0.441909
O14	O	0.765442	-0.403488	0.340325
O15	O	0.944039	-0.312289	0.441936
O16	O	0.943910	-0.523922	0.263360
O17	O	0.866974	-0.523901	0.340312
C18	C	0.742711	-0.357877	0.301851
C19	C	0.673070	-0.357883	0.301859
C20	C	0.171302	-0.310515	0.342026
C21	C	0.236737	-0.310510	0.342026
C22	C	0.269431	-0.357929	0.301883
C23	C	0.236685	-0.405370	0.261749
C24	C	0.171251	-0.405379	0.261754
C25	C	0.373069	-0.363679	0.245416
C26	C	0.438502	-0.363665	0.245409
C27	C	0.471252	-0.357904	0.301866
C28	C	0.438561	-0.352142	0.358331
C29	C	0.373127	-0.352152	0.358337
C30	C	0.340384	-0.357924	0.301873
C31	C	0.574943	-0.310463	0.342000
C32	C	0.640380	-0.310463	0.342001
C33	C	0.640326	-0.405319	0.261718
C34	C	0.574891	-0.405323	0.261723
C35	C	0.542203	-0.357892	0.301863
C36	C	0.905450	-0.550858	0.301844
C37	C	0.905487	-0.633404	0.301854
C38	C	0.947412	-0.832839	0.260066
C39	C	0.962722	-0.882185	0.317250
C40	C	0.905523	-0.784534	0.301879
C41	C	0.890276	-0.882270	0.244721
C42	C	0.905558	-0.930519	0.301898
C43	C	0.920862	-0.832793	0.359093
C44	C	0.848390	-0.832873	0.286526
C45	C	0.863678	-0.882197	0.343749
C46	C	0.905504	-0.700436	0.301867
C47	C	0.905577	-1.014616	0.301917
C48	C	1.068922	-0.357935	0.301887
C49	C	1.138563	-0.357947	0.301894
C50	C	0.905550	-0.357891	0.465292
C51	C	0.905573	-0.357885	0.534933
C52	C	0.905564	-0.164200	0.301908
C53	C	0.905592	-0.081655	0.301924
C54	C	0.905483	-0.357867	0.139081
C55	C	0.905582	-0.357665	0.069440
C56	C	0.945660	-0.310391	0.567662
C57	C	0.945659	-0.310359	0.633097
C58	C	0.905578	-0.357834	0.665802
C59	C	0.865482	-0.405331	0.633066
C60	C	0.865480	-0.405356	0.567632
C61	C	0.900614	-0.424703	0.769468
C62	C	0.900620	-0.424678	0.834901
C63	C	0.905581	-0.357755	0.867623
C64	C	0.910549	-0.290854	0.834904
C65	C	0.910546	-0.290880	0.769469
C66	C	0.905575	-0.357811	0.736754
C67	C	0.945670	-0.310223	0.971303
C68	C	0.945665	-0.310190	1.036740
C69	C	0.865491	-0.405169	1.036708
C70	C	0.865493	-0.405195	0.971272
C71	C	0.905586	-0.357723	0.938574
H72	H	0.548328	-0.271841	0.374685
Cl73	Cl	0.809009	-0.915452	0.398415
Cl74	Cl	1.002120	-0.799374	0.205528
H75	H	0.263309	-0.443981	0.229066
H76	H	0.667035	-0.271840	0.374686
H77	H	0.144595	-0.444006	0.229074
Cl78	Cl	0.916788	-0.206717	0.876032
H79	H	0.832853	-0.443874	0.944625
Cl80	Cl	0.130212	-0.250893	0.392493
Cl81	Cl	0.479725	-0.344889	0.429309
Cl82	Cl	1.037343	-0.915613	0.337330
H83	H	0.933724	-0.811153	0.407481
H84	H	0.832832	-0.444031	0.540985
Cl85	Cl	0.681422	-0.464938	0.211258
Cl86	Cl	0.773788	-0.799406	0.266433
Cl87	Cl	0.870344	-0.915824	0.170080
H88	H	0.978307	-0.271734	0.541043
Cl89	Cl	0.916786	-0.206780	0.728339
Cl90	Cl	0.533731	-0.464944	0.211259
Cl91	Cl	0.996047	-0.250633	0.674249
Cl92	Cl	0.815091	-0.465011	0.674180
Cl93	Cl	0.479592	-0.370894	0.174424
Cl94	Cl	0.996068	-0.250542	0.930194
H95	H	0.346409	-0.368374	0.199439
H96	H	0.978308	-0.271510	1.063386
H97	H	0.832849	-0.443816	1.063335
Cl98	Cl	0.894395	-0.508845	0.728339
Cl99	Cl	0.277903	-0.250874	0.392479
Cl100	Cl	0.332032	-0.344915	0.429318
Cl101	Cl	0.894382	-0.508782	0.876027
