data_functionalizedCrystal
_audit_creation_method	'MofGen! by Chris Wilmer'
_symmetry_space_group_name_H-M	'P1'
_symmetry_Int_Tables_number	1
_symmetry_cell_setting	triclinic
loop_
_symmetry_equiv_pos_as_xyz
  x,y,z
_cell_length_a	14.519709
_cell_length_b	16.109301
_cell_length_c	14.586319
_cell_angle_alpha	90.003133
_cell_angle_beta	89.998870
_cell_angle_gamma	96.429187
loop_
_atom_site_label
_atom_site_type_symbol
_atom_site_fract_x
_atom_site_fract_y
_atom_site_fract_z
O1	O	0.118535	-1.103339	-0.076184
O2	O	0.133287	-0.861303	-0.076199
O3	O	-0.008341	-0.988738	-0.076183
O4	O	0.260163	-0.975904	-0.076200
O5	O	-0.008333	-0.988723	0.076298
O6	O	0.133295	-0.861287	0.076282
O7	O	0.118543	-1.103324	0.076296
Cu8	Cu	0.125920	-0.982304	0.090212
Cu9	Cu	0.125910	-0.982323	-0.090114
O10	O	0.260171	-0.975888	0.076280
C11	C	-0.042696	-0.988132	0.000057
C12	C	-0.145073	-0.986340	0.000058
C13	C	0.132693	-0.830319	0.000039
C14	C	0.130902	-0.738021	0.000034
C15	C	0.119136	-1.134307	0.000056
C16	C	0.120928	-1.226606	0.000055
C17	C	-0.519955	-0.979741	0.000034
C18	C	-0.415651	-0.981574	0.000041
C19	C	-0.332517	-0.983041	0.000047
C20	C	-0.228207	-0.984873	0.000052
C21	C	0.294526	-0.976494	0.000038
C22	C	0.396903	-0.978287	0.000031
N23	N	0.125926	-0.982297	0.217044
C24	C	0.210775	-0.515887	0.000040
C25	C	0.209085	-0.429163	0.000046
C26	C	0.041048	-0.448747	0.000053
C27	C	0.042739	-0.535468	0.000053
C28	C	0.127606	-0.569036	0.000042
C29	C	0.124224	-0.395591	0.000047
C30	C	0.122390	-0.301562	0.000054
C31	C	0.129440	-0.663071	0.000037
N32	N	0.125896	-0.982336	-0.216946
C33	C	0.181864	-1.032817	0.452049
C34	C	0.181857	-1.032826	0.548031
C35	C	0.069953	-0.931814	0.548041
C36	C	0.069955	-0.931811	0.452062
C37	C	0.125915	-0.982310	0.404068
C38	C	0.125907	-0.982323	0.596029
C39	C	0.125900	-0.982332	0.700096
C40	C	0.125922	-0.982303	0.299995
H41	H	0.279879	-0.543214	0.000037
H42	H	0.024392	-0.890698	0.587129
H43	H	0.227415	-1.073954	0.587093
O44	O	0.009612	-0.877330	0.400300
H45	H	-0.029290	-0.842205	0.449795
O46	O	0.298788	-0.371835	0.000040
H47	H	0.358081	-0.409749	0.000027
H48	H	-0.024991	-0.578745	0.000058
O49	O	-0.050485	-0.412543	0.000058
H50	H	-0.037691	-0.343311	0.000049
O51	O	0.242211	-1.087288	0.400280
H52	H	0.281107	-1.122415	0.449774
