data_functionalizedCrystal
_audit_creation_method	'MofGen! by Chris Wilmer'
_symmetry_space_group_name_H-M	'P1'
_symmetry_Int_Tables_number	1
_symmetry_cell_setting	triclinic
loop_
_symmetry_equiv_pos_as_xyz
  x,y,z
_cell_length_a	13.032831
_cell_length_b	21.295417
_cell_length_c	13.032268
_cell_angle_alpha	97.140648
_cell_angle_beta	90.886977
_cell_angle_gamma	82.834379
loop_
_atom_site_label
_atom_site_type_symbol
_atom_site_fract_x
_atom_site_fract_y
_atom_site_fract_z
Zn1	Zn	1.498336	-0.425102	-0.780728
Zn2	Zn	1.520047	-0.518887	-0.608724
Zn3	Zn	1.348204	-0.398806	-0.586976
Zn4	Zn	1.326296	-0.515483	-0.758850
O5	O	1.423221	-0.464570	-0.683820
O6	O	1.645133	-0.449972	-0.776169
O7	O	1.515506	-0.493377	-0.461925
O8	O	1.368201	-0.314216	-0.612731
O9	O	1.661084	-0.518875	-0.649799
O10	O	1.478503	-0.333535	-0.755080
O11	O	1.389253	-0.405155	-0.445946
O12	O	1.201381	-0.401855	-0.591517
O13	O	1.330864	-0.513075	-0.905667
O14	O	1.185286	-0.487577	-0.717793
O15	O	1.457261	-0.446672	-0.921740
O16	O	1.494263	-0.606514	-0.628585
O17	O	1.351916	-0.604014	-0.738882
C18	C	1.156018	-0.441494	-0.649922
C19	C	1.041704	-0.431638	-0.635445
C20	C	1.423093	-0.628106	-0.683746
C21	C	1.423128	-0.698078	-0.683760
C22	C	0.982815	-0.469713	-0.691375
C23	C	0.864665	-0.459528	-0.676414
C24	C	1.497299	-0.732235	-0.626403
C25	C	1.497344	-0.797983	-0.626433
C26	C	1.423202	-0.829569	-0.683806
C27	C	1.349025	-0.795405	-0.741175
C28	C	1.348989	-0.729659	-0.741152
N29	N	1.332239	-0.925592	-0.680232
N30	N	1.332278	-0.988048	-0.680248
C31	C	1.423310	-1.027658	-0.683879
N32	N	1.514306	-1.002451	-0.687474
N33	N	1.514267	-0.939990	-0.687452
C34	C	1.423234	-0.900860	-0.683837
C35	C	1.497535	-1.133107	-0.626551
C36	C	1.497581	-1.198857	-0.626588
C37	C	1.349254	-1.196276	-0.741323
C38	C	1.349216	-1.130528	-0.741293
C39	C	1.423356	-1.098947	-0.683901
C40	C	1.691467	-0.487736	-0.717850
C41	C	1.805778	-0.497609	-0.732352
C42	C	1.389197	-0.482427	-0.952062
C43	C	1.374697	-0.490036	-1.066371
C44	C	1.423374	-0.300399	-0.683920
C45	C	1.423439	-0.230439	-0.683963
C46	C	1.430772	-0.460574	-1.125287
C47	C	1.415788	-0.468438	-1.243431
C48	C	1.457172	-0.446742	-0.416628
C49	C	1.471870	-0.438972	-0.302345
H50	H	1.019867	-0.509849	-0.750340
H51	H	0.827617	-0.419386	-0.617453
N52	N	0.852242	-0.547975	-0.806309
N53	N	0.841172	-0.604564	-0.797801
H54	H	0.873986	-0.640137	-0.850031
N55	N	1.573023	-0.699968	-0.567789
N56	N	1.633913	-0.671292	-0.612304
H57	H	1.687387	-0.648497	-0.570903
H58	H	1.530970	-0.407920	-1.265324
N59	N	1.504926	-0.421627	-1.078866
N60	N	1.557654	-0.393925	-1.134196
H61	H	1.610027	-0.366417	-1.101415
H62	H	1.288589	-0.701847	-0.787860
H63	H	1.356676	-0.499481	-1.280452
H64	H	1.004651	-0.391498	-0.576488
H65	H	1.557907	-1.107393	-0.579823
H66	H	1.557746	-0.825800	-0.579727
N67	N	1.273303	-0.827676	-0.799781
N68	N	1.273345	-0.886377	-0.799793
H69	H	1.219867	-0.909171	-0.841190
H70	H	1.557986	-1.226668	-0.579884
N71	N	1.273531	-1.228543	-0.799931
N72	N	1.273575	-1.287244	-0.799948
H73	H	1.220095	-1.310037	-0.841343
H74	H	1.288816	-1.102715	-0.787994
N75	N	1.300550	-0.528976	-1.112825
N76	N	1.288479	-0.535307	-1.208732
H77	H	1.236109	-0.562808	-1.241539
