data_functionalizedCrystal
_audit_creation_method	'MofGen! by Chris Wilmer'
_symmetry_space_group_name_H-M	'P1'
_symmetry_Int_Tables_number	1
_symmetry_cell_setting	triclinic
loop_
_symmetry_equiv_pos_as_xyz
  x,y,z
_cell_length_a	27.440280
_cell_length_b	20.919309
_cell_length_c	20.919309
_cell_angle_alpha	89.826366
_cell_angle_beta	57.447393
_cell_angle_gamma	57.440573
loop_
_atom_site_label
_atom_site_type_symbol
_atom_site_fract_x
_atom_site_fract_y
_atom_site_fract_z
Zr1	Zr	0.499107	-0.061499	0.639357
O2	O	0.613922	-0.172362	0.528509
O3	O	0.393414	-0.027515	0.673326
O4	O	0.503668	-0.166722	0.667698
O5	O	0.496889	0.076654	0.538590
O6	O	0.496889	-0.162271	0.777507
O7	O	0.503668	-0.033156	0.534137
O8	O	0.299664	0.086744	0.787574
O9	O	0.694113	-0.172360	0.528523
O10	O	0.428449	-0.009698	0.769777
O11	O	0.428449	0.068930	0.691152
O12	O	0.558259	-0.094967	0.684526
O13	O	0.558259	-0.016339	0.605900
Zr14	Zr	0.477483	0.120734	0.821593
Zr15	Zr	0.488295	-0.054400	0.814490
Zr16	Zr	0.488295	0.113635	0.646460
Zr17	Zr	0.627003	-0.061496	0.639380
Zr18	Zr	0.349587	0.120731	0.821571
O19	O	0.583177	0.086750	0.787625
O20	O	0.598549	-0.162268	0.777525
O21	O	0.598549	0.076657	0.538608
O22	O	0.362668	0.231597	0.932442
O23	O	0.378041	-0.017422	0.922342
O24	O	0.378041	0.221503	0.683426
O25	O	0.479702	-0.017420	0.922360
O26	O	0.472922	0.225956	0.793253
O27	O	0.479701	0.221505	0.683444
O28	O	0.472922	0.092391	0.926814
O29	O	0.685520	-0.166717	0.667730
O30	O	0.291070	0.225952	0.793220
O31	O	0.282477	0.231595	0.932428
O32	O	0.291071	0.092386	0.926782
O33	O	0.685519	-0.033151	0.534169
O34	O	0.676926	-0.027509	0.673376
O35	O	0.418331	0.154202	0.776425
O36	O	0.418331	0.075574	0.855050
O37	O	0.548141	-0.009695	0.769799
O38	O	0.548141	0.068933	0.691173
C39	C	0.328316	0.029614	0.730447
C40	C	0.274021	0.029612	0.730437
C41	C	0.501818	0.020738	0.511411
C42	C	0.506408	0.017724	0.437062
C43	C	0.474771	0.248684	0.739360
C44	C	0.470181	0.323033	0.742376
C45	C	-0.062725	-0.011418	0.771540
C46	C	-0.113750	-0.011415	0.771547
O47	O	-0.140159	-0.046295	0.806478
N48	N	-0.139266	0.029626	0.730505
C49	C	-0.113760	0.070675	0.689459
O50	O	-0.140150	0.105585	0.654551
C51	C	-0.062741	0.070677	0.689457
C52	C	-0.037222	0.029626	0.730495
C53	C	-0.037206	-0.052465	0.812575
C54	C	0.013816	-0.052468	0.812566
C55	C	0.039319	-0.011425	0.771522
C56	C	0.013800	0.029622	0.730486
C57	C	-0.037241	0.111730	0.648417
C58	C	0.013782	0.111729	0.648419
C59	C	0.039301	0.070678	0.689457
C60	C	0.090326	0.070662	0.689433
N61	N	0.115842	0.029620	0.730475
C62	C	0.090338	-0.011423	0.771520
C63	C	-0.220906	0.070669	0.689468
C64	C	-0.271920	0.070663	0.689465
C65	C	-0.271907	-0.011427	0.771554
C66	C	-0.220887	-0.011425	0.771552
C67	C	-0.195390	0.029627	0.730511
C68	C	0.197489	-0.011428	0.771497
C69	C	0.248518	-0.011431	0.771482
C70	C	0.248497	0.070661	0.689396
C71	C	0.197476	0.070661	0.689408
C72	C	0.171971	0.029615	0.730464
O73	O	0.116765	0.105527	0.654523
O74	O	0.116726	-0.046318	0.806432
C75	C	0.648274	0.029621	0.730504
C76	C	0.702569	0.029622	0.730513
C77	C	0.501819	-0.189449	0.721590
C78	C	0.506409	-0.263798	0.718575
C79	C	0.535783	0.313455	0.699293
C80	C	0.531466	0.383317	0.702123
C81	C	0.461547	0.462756	0.748041
C82	C	0.395941	0.472332	0.791124
C83	C	0.400258	0.402471	0.788289
C84	C	0.445120	0.675917	0.758823
C85	C	0.440807	0.745780	0.761657
C86	C	0.576333	0.656759	0.672654
C87	C	0.580645	0.586901	0.669827
C88	C	0.515039	0.596483	0.712907
C89	C	0.457133	0.534167	0.750937
C90	C	0.519454	0.525073	0.710006
C91	C	0.440807	0.060814	0.446632
C92	C	0.445124	0.057980	0.376770
C93	C	0.515043	0.012052	0.297341
C94	C	0.580649	-0.031039	0.287773
C95	C	0.576331	-0.028200	0.357634
C96	C	0.531470	0.001259	0.084181
C97	C	0.535783	-0.001579	0.014319
C98	C	0.400257	0.087442	0.103321
C99	C	0.395946	0.090272	0.173179
C100	C	0.461552	0.047185	0.163606
C101	C	0.519457	0.009153	0.225930
C102	C	0.457136	0.050090	0.235016
C103	C	0.474772	0.038497	0.949540
C104	C	0.470182	0.041511	1.023888
C105	C	0.314793	0.038493	0.949511
C106	C	0.255908	0.041506	1.023850
C107	C	0.314793	0.248680	0.739332
C108	C	0.255907	0.323028	0.742338
C109	C	0.301269	0.257560	0.958396
C110	C	0.237794	0.334921	1.035751
C111	C	0.675321	-0.198325	0.502554
C112	C	0.738796	-0.275686	0.425200
C113	C	0.661797	0.020742	0.511439
C114	C	0.720682	0.017729	0.437100
C115	C	0.661798	-0.189445	0.721619
C116	C	0.720683	-0.263793	0.718613
C117	C	0.233537	-0.001598	1.014248
C118	C	0.178217	0.001216	1.084090
C119	C	0.145265	0.047138	1.163533
C120	C	0.167641	0.090243	1.173133
C121	C	0.222964	0.087424	1.103292
C122	C	0.222972	0.402461	0.788261
C123	C	0.167650	0.472325	0.791083
C124	C	0.145261	0.462755	0.747985
C125	C	0.178202	0.383314	0.702056
C126	C	0.233526	0.313451	0.699230
C127	C	0.207985	0.330208	1.113126
C128	C	0.148351	0.402891	1.185815
C129	C	0.118523	0.480286	1.181127
C130	C	0.148338	0.484997	1.103743
C131	C	0.207974	0.412315	1.031056
C132	C	0.768611	-0.270973	0.347824
C133	C	0.828261	-0.343656	0.275135
C134	C	0.858092	-0.421051	0.279824
C135	C	0.828274	-0.425762	0.357207
C136	C	0.768628	-0.353080	0.429895
C137	C	0.743059	0.060826	0.446702
C138	C	0.798394	0.057993	0.376859
C139	C	0.831348	0.012067	0.297416
C140	C	0.808970	-0.031034	0.287816
C141	C	0.753639	-0.028205	0.357658
C142	C	0.743054	-0.254196	0.761720
C143	C	0.798375	-0.324047	0.758912
C144	C	0.831327	-0.403493	0.712991
C145	C	0.808951	-0.413089	0.669883
C146	C	0.753627	-0.343239	0.672696
H147	H	0.269295	-0.044863	0.804899
Br148	Br	0.345909	0.853595	0.824012
Br149	Br	0.253313	0.145933	1.116338
H150	H	0.034541	0.145158	0.614996
Br151	Br	0.301049	0.580142	0.853434
Br152	Br	0.630681	-0.063926	-0.093483
Br153	Br	0.107849	0.590041	1.097395
H154	H	0.069963	0.539462	1.240320
Br155	Br	0.356083	0.688930	0.817288
H156	H	0.176728	-0.044850	0.804930
Br157	Br	-0.186260	-0.067138	0.827249
H158	H	0.140803	0.127632	1.237825
Br159	Br	0.356088	0.116474	0.389763
Br160	Br	0.147807	0.370340	0.643571
Br161	Br	0.162853	0.126359	0.633698
Br162	Br	0.665365	-0.086674	0.344646
Br163	Br	0.253341	0.415472	0.846763
H164	H	0.034588	-0.085893	0.845986
H165	H	0.716232	-0.189513	0.799113
Br166	Br	0.070176	0.557579	0.751828
H167	H	0.816587	-0.316218	0.794015
Br168	Br	0.906410	-0.498282	0.709181
H169	H	0.835789	-0.477783	0.632495
Br170	Br	0.868714	-0.337243	0.170126
Br171	Br	0.939040	-0.519685	0.181168
Br172	Br	0.868765	-0.530806	0.363556
H173	H	0.576386	-0.028242	0.161251
Br174	Br	0.723274	-0.086696	0.344612
Br175	Br	0.723279	-0.356278	0.614179
H176	H	0.100217	0.049428	1.220396
Br177	Br	-0.071805	-0.108179	0.868282
H178	H	0.876401	0.009771	0.240553
Br179	Br	0.147860	-0.057287	1.071042
H180	H	0.835809	-0.068426	0.223124
Br181	Br	0.278215	0.205652	0.636903
Br182	Br	0.248457	0.225181	1.119512
H183	H	0.816605	0.093095	0.384692
H184	H	0.744327	-0.207961	0.343991
Br185	Br	-0.306533	0.126360	0.633751
H186	H	0.716231	0.098228	0.511382
Br187	Br	-0.186302	0.126382	0.633758
Br188	Br	-0.306529	-0.067129	0.827259
H189	H	-0.058011	0.145160	0.615000
H190	H	0.232238	0.416164	0.968056
H191	H	0.269273	0.104075	0.655976
Br192	Br	0.345912	0.123141	0.554426
Br193	Br	0.278248	-0.063931	0.906441
H194	H	0.592718	0.248776	0.661906
Br195	Br	0.675538	0.479093	0.607508
Br196	Br	0.620503	0.370312	0.643616
Br197	Br	0.665365	0.643762	0.614190
H198	H	0.346839	0.410275	0.823369
Br199	Br	0.301052	0.152603	0.280974
H200	H	0.140836	0.537003	0.828486
H201	H	0.124082	0.399040	1.248817
H202	H	0.576382	0.460391	0.672616
Br203	Br	0.311226	0.145916	0.116307
H204	H	0.584892	-0.033841	0.076375
Br205	Br	0.675540	-0.093362	0.179976
H206	H	0.400204	0.598853	0.788325
H207	H	0.400208	0.087488	0.299690
Br208	Br	0.728169	-0.359492	0.534901
