data_functionalizedCrystal
_audit_creation_method	'MofGen! by Chris Wilmer'
_symmetry_space_group_name_H-M	'P1'
_symmetry_Int_Tables_number	1
_symmetry_cell_setting	triclinic
loop_
_symmetry_equiv_pos_as_xyz
  x,y,z
_cell_length_a	10.654538
_cell_length_b	10.654558
_cell_length_c	9.130313
_cell_angle_alpha	89.999661
_cell_angle_beta	90.000792
_cell_angle_gamma	95.515879
loop_
_atom_site_label
_atom_site_type_symbol
_atom_site_fract_x
_atom_site_fract_y
_atom_site_fract_z
O1	O	-1.667848	0.176321	-0.121815
O2	O	-1.302368	0.193143	-0.121814
O3	O	-1.493506	0.001993	-0.121808
O4	O	-1.476710	0.367471	-0.121821
O5	O	-1.493503	0.001998	0.121791
O6	O	-1.302366	0.193148	0.121785
O7	O	-1.667846	0.176326	0.121784
Cu8	Cu	-1.485105	0.184737	0.144027
Cu9	Cu	-1.485108	0.184731	-0.144057
O10	O	-1.476708	0.367476	0.121778
C11	C	-1.255569	0.191913	-0.000014
C12	C	-1.116124	0.188227	-0.000013
C13	C	-0.919590	0.183021	0.132778
C14	C	-1.050611	0.186496	0.132776
C15	C	-1.050608	0.186497	-0.132809
C16	C	-0.919588	0.183032	-0.132805
C17	C	-0.854085	0.181277	0.265577
C18	C	-0.919592	0.183010	0.398373
C19	C	-1.050613	0.186484	0.398370
C20	C	-1.116128	0.188226	0.265571
C21	C	-1.492269	-0.044802	-0.000010
C22	C	-1.488573	-0.184245	-0.000015
C23	C	-1.486833	-0.249756	0.132769
C24	C	-1.483371	-0.380778	0.132763
C25	C	-1.483385	-0.380767	-0.132822
C26	C	-1.486856	-0.249748	-0.132814
C27	C	-1.488551	-0.184252	0.265569
C28	C	-1.486809	-0.249763	0.398363
C29	C	-1.483347	-0.380785	0.398357
C30	C	-1.481627	-0.446297	0.265557
C31	C	-0.714644	0.177567	-0.000013
C32	C	-0.854083	0.181287	-0.000007
C33	C	-1.477944	0.414271	-0.000023
C34	C	-1.481640	0.553714	-0.000028
N35	N	-1.485113	0.184741	0.346650
N36	N	-1.485111	0.184718	-0.346680
C37	C	-1.569770	0.100129	0.423304
C38	C	-1.569767	0.100114	0.576641
C39	C	-1.400444	0.269334	0.576655
C40	C	-1.400442	0.269342	0.423321
C41	C	-1.654441	0.015528	0.346632
C42	C	-1.739106	-0.069090	0.423287
C43	C	-1.739103	-0.069105	0.576624
C44	C	-1.654434	0.015498	0.653306
H45	H	-0.866251	0.181623	-0.240930
C46	C	-1.183672	0.341057	0.623895
C47	C	-1.307386	0.362327	0.660946
H48	H	-1.126225	0.398466	0.675941
H49	H	-1.171559	0.353180	0.521618
H50	H	-1.169327	0.257104	0.649024
H51	H	-1.321735	0.446279	0.635807
H52	H	-1.319504	0.350215	0.763246
C53	C	-0.892446	0.074171	0.624749
C54	C	-0.847588	0.181100	0.544342
H55	H	-0.848000	0.073000	0.714870
H56	H	-0.879907	0.000506	0.570192
H57	H	-0.979852	0.076504	0.643737
H58	H	-0.760183	0.178763	0.525345
H59	H	-0.860116	0.254784	0.598911
C60	C	-1.385741	0.016608	0.193275
C61	C	-1.492355	-0.040232	0.265581
H62	H	-1.388085	0.105520	0.193291
H63	H	-1.384979	-0.013025	0.095196
H64	H	-1.311853	-0.004108	0.242322
H65	H	-1.566243	-0.019523	0.216527
H66	H	-1.493128	-0.010587	0.363678
H67	H	-1.481982	-0.434117	-0.240941
C68	C	-1.492102	-0.048921	0.516301
C69	C	-1.488701	-0.177758	0.544331
H70	H	-1.493263	-0.004472	0.606420
H71	H	-1.565776	-0.036389	0.461756
H72	H	-1.419557	-0.018523	0.461736
H73	H	-1.561251	-0.208158	0.598887
H74	H	-1.415019	-0.190297	0.598900
H75	H	-1.103944	0.187908	0.506499
H76	H	-1.222812	0.191070	0.265580
C77	C	-1.772995	0.041982	0.126993
C78	C	-1.654450	0.015537	0.178083
H79	H	-1.773002	0.041981	0.022938
H80	H	-1.790855	0.122406	0.161685
H81	H	-1.835523	-0.020524	0.161688
H82	H	-1.591924	0.078048	0.143397
H83	H	-1.636576	-0.064899	0.143376
H84	H	-1.103960	0.187914	-0.240927
C85	C	-1.328586	0.486085	0.376101
C86	C	-1.307394	0.362352	0.339045
H87	H	-1.271143	0.543501	0.324062
H88	H	-1.316460	0.498187	0.478380
H89	H	-1.412525	0.500485	0.350968
H90	H	-1.223458	0.347949	0.364188
H91	H	-1.319510	0.350245	0.236744
C92	C	-1.764881	-0.239804	0.749033
C93	C	-1.832158	-0.162120	0.660883
H94	H	-1.822336	-0.297231	0.801040
H95	H	-1.714474	-0.189423	0.816639
H96	H	-1.712220	-0.285458	0.689193
H97	H	-1.884812	-0.116459	0.720724
H98	H	-1.882587	-0.212507	0.593270
H99	H	-1.481941	-0.434122	0.506484
H100	H	-1.654430	0.015470	0.778163
C101	C	-1.584461	-0.647155	0.193262
C102	C	-1.477836	-0.590322	0.265556
H103	H	-1.582120	-0.736068	0.193273
H104	H	-1.585232	-0.617519	0.095184
H105	H	-1.658342	-0.626436	0.242318
H106	H	-1.403955	-0.611033	0.216493
H107	H	-1.477053	-0.619970	0.363652
C108	C	-1.810941	-0.285833	0.376119
C109	C	-1.832164	-0.162113	0.339036
H110	H	-1.868388	-0.343269	0.324111
H111	H	-1.823041	-0.297916	0.478404
H112	H	-1.727004	-0.300223	0.350968
H113	H	-1.916098	-0.147719	0.364198
H114	H	-1.820075	-0.150025	0.236729
H115	H	-0.747402	0.178446	0.265594
H116	H	-1.488273	-0.196408	-0.240939
