data_functionalizedCrystal
_audit_creation_method	'MofGen! by Chris Wilmer'
_symmetry_space_group_name_H-M	'P1'
_symmetry_Int_Tables_number	1
_symmetry_cell_setting	triclinic
loop_
_symmetry_equiv_pos_as_xyz
  x,y,z
_cell_length_a	16.109301
_cell_length_b	9.565339
_cell_length_c	16.109301
_cell_angle_alpha	90.001191
_cell_angle_beta	83.461481
_cell_angle_gamma	90.000833
loop_
_atom_site_label
_atom_site_type_symbol
_atom_site_fract_x
_atom_site_fract_y
_atom_site_fract_z
O1	O	1.103131	0.116176	0.106861
O2	O	0.861069	0.116199	0.120161
O3	O	0.988750	0.116173	-0.007520
O4	O	0.975451	0.116202	0.234542
O5	O	0.988740	-0.116348	-0.007512
O6	O	0.861059	-0.116321	0.120168
O7	O	1.103121	-0.116344	0.106869
Zn8	Zn	0.982089	-0.153250	0.113520
Zn9	Zn	0.982102	0.153105	0.113510
O10	O	0.975441	-0.116318	0.234550
C11	C	0.830090	-0.000058	0.119626
C12	C	0.737794	-0.000050	0.118011
C13	C	0.515522	-0.000058	0.190018
C14	C	0.428801	-0.000067	0.188494
C15	C	0.448676	-0.000080	0.037006
C16	C	0.535394	-0.000080	0.038530
C17	C	0.568815	-0.000062	0.115039
C18	C	0.395376	-0.000071	0.111990
C19	C	0.301350	-0.000081	0.110337
C20	C	0.662847	-0.000055	0.116693
N21	N	0.982086	-0.362330	0.113527
C22	C	0.923020	-0.453521	0.172555
C23	C	0.998146	-0.546704	0.188667
C24	C	0.906993	-0.546701	0.097421
C25	C	1.057249	-0.453462	0.129676
C26	C	0.966047	-0.453450	0.038397
C27	C	1.041227	-0.546592	0.054477
C28	C	1.134101	-0.000084	0.107404
C29	C	1.226397	-0.000083	0.109019
C30	C	0.988206	-0.000088	-0.038491
C31	C	0.986591	-0.000090	-0.130786
N32	N	0.982112	0.362184	0.113496
C33	C	1.058599	-0.000075	-0.353059
C34	C	1.057075	-0.000063	-0.439779
C35	C	0.905586	-0.000054	-0.419905
C36	C	0.907111	-0.000056	-0.333186
C37	C	0.983620	-0.000073	-0.299766
C38	C	0.980571	-0.000060	-0.473205
C39	C	0.978918	-0.000047	-0.567231
C40	C	0.985273	-0.000083	-0.205734
C41	C	0.975984	-0.000054	0.265521
C42	C	0.977600	-0.000043	0.357816
H43	H	0.578788	-0.000088	-0.022530
H44	H	0.843477	-0.587661	0.083812
H45	H	0.421454	-0.000103	-0.025285
H46	H	0.873115	-0.412655	0.222519
H47	H	0.846050	-0.000050	-0.289792
H48	H	0.542730	-0.000053	0.252317
H49	H	0.952440	-0.412457	-0.025105
O50	O	1.133089	-0.404849	0.145877
C51	C	1.195322	-0.453366	0.083947
H52	H	1.165770	-0.480103	0.024912
H53	H	1.226030	-0.550735	0.107557
C54	C	1.298035	-0.305876	0.136662
C55	C	1.261740	-0.338704	0.064152
H56	H	1.339007	-0.235151	0.124453
H57	H	1.256109	-0.273193	0.178387
H58	H	1.323619	-0.387027	0.156329
H59	H	1.236148	-0.257558	0.044492
H60	H	1.303664	-0.371371	0.022422
H61	H	1.091242	-0.587201	0.004543
H62	H	0.843295	-0.000043	-0.447127
O63	O	1.132989	-0.000012	-0.320731
C64	C	1.198839	-0.000041	-0.386369
H65	H	1.175544	0.043977	-0.445271
H66	H	1.221969	-0.111591	-0.398649
C67	C	1.299604	0.037089	-0.289570
C68	C	1.270995	0.091164	-0.361913
H69	H	1.344116	0.093343	-0.274484
H70	H	1.255240	0.037104	-0.245348
H71	H	1.318873	-0.055868	-0.299813
H72	H	1.251717	0.184112	-0.351666
H73	H	1.315358	0.091167	-0.406133
O74	O	1.014211	-0.595518	0.264504
C75	C	0.951793	-0.548080	0.326579
H76	H	0.892812	-0.521933	0.296785
H77	H	0.974788	-0.450571	0.357639
C78	C	1.004662	-0.695414	0.429270
C79	C	0.932218	-0.663311	0.392677
H80	H	0.992590	-0.766490	0.470045
H81	H	1.046717	-0.727371	0.387450
H82	H	1.023818	-0.614148	0.455147
H83	H	0.913070	-0.744572	0.366792
H84	H	0.890160	-0.631371	0.434494
O85	O	1.129888	0.000181	-0.491581
C86	C	1.133536	0.120593	-0.542346
H87	H	1.091015	0.204763	-0.510571
H88	H	1.112033	0.093376	-0.605401
C89	C	1.276231	0.071813	-0.594569
C90	C	1.224011	0.175196	-0.555539
H91	H	1.332041	0.105492	-0.602711
H92	H	1.273773	-0.009314	-0.560370
H93	H	1.258302	0.049141	-0.647111
H94	H	1.241934	0.197853	-0.502994
H95	H	1.226474	0.256328	-0.589729
H96	H	0.385413	-0.000066	0.249550
