data_functionalizedCrystal
_audit_creation_method	'MofGen! by Chris Wilmer'
_symmetry_space_group_name_H-M	'P1'
_symmetry_Int_Tables_number	1
_symmetry_cell_setting	triclinic
loop_
_symmetry_equiv_pos_as_xyz
  x,y,z
_cell_length_a	14.853566
_cell_length_b	17.038272
_cell_length_c	15.500227
_cell_angle_alpha	86.966746
_cell_angle_beta	92.845607
_cell_angle_gamma	87.372985
loop_
_atom_site_label
_atom_site_type_symbol
_atom_site_fract_x
_atom_site_fract_y
_atom_site_fract_z
O1	O	1.207960	0.098459	0.071887
O2	O	1.707960	0.598459	0.571887
O3	O	0.946416	0.110620	0.071902
O4	O	1.446416	0.610620	0.571902
O5	O	1.075633	-0.009277	0.071888
O6	O	1.575633	0.490723	0.571888
O7	O	1.078743	0.218357	0.071901
O8	O	1.578743	0.718357	0.571901
O9	O	1.067790	-0.002030	-0.072000
O10	O	1.567790	0.497970	0.428000
O11	O	0.938573	0.117868	-0.071986
O12	O	1.438573	0.617868	0.428014
O13	O	1.200117	0.105706	-0.072001
O14	O	1.700117	0.605706	0.427999
Cu15	Cu	1.068629	0.112449	-0.085131
Cu16	Cu	1.568629	0.612449	0.414869
Cu17	Cu	1.077904	0.103878	0.085033
Cu18	Cu	1.577904	0.603878	0.585033
O19	O	1.070900	0.225604	-0.071987
O20	O	1.570900	0.725604	0.428013
C21	C	0.908865	0.113693	-0.000040
C22	C	1.408865	0.613693	0.499960
C23	C	0.808657	0.112042	-0.000035
C24	C	1.308657	0.612042	0.499965
C25	C	0.389221	0.101110	0.078383
C26	C	0.889221	0.601110	0.578383
C27	C	0.380691	0.109011	-0.078490
C28	C	0.880691	0.609011	0.421510
C29	C	0.474842	0.110562	-0.078487
C30	C	0.974842	0.610562	0.421513
C31	C	0.526187	0.107387	-0.000048
C32	C	1.026187	0.607387	0.499952
C33	C	0.483381	0.102662	0.078388
C34	C	0.983381	0.602662	0.578388
C35	C	0.517655	0.115294	-0.156921
C36	C	1.017655	0.615294	0.343079
C37	C	0.611811	0.116845	-0.156922
C38	C	1.111811	0.616845	0.343078
C39	C	0.663158	0.113665	-0.078482
C40	C	1.163158	0.613665	0.421518
C41	C	0.620346	0.108939	-0.000043
C42	C	1.120346	0.608939	0.499957
C43	C	0.671691	0.105765	0.078396
C44	C	1.171691	0.605765	0.578396
C45	C	0.628881	0.101033	0.156836
C46	C	1.128881	0.601033	0.656836
C47	C	0.534727	0.099482	0.156827
C48	C	1.034727	0.599482	0.656827
C49	C	0.757312	0.115217	-0.078474
C50	C	1.257312	0.615217	0.421526
C51	C	0.765851	0.107317	0.078401
C52	C	1.265851	0.607317	0.578401
C53	C	1.068884	-0.034786	-0.000056
C54	C	1.568884	0.465214	0.499944
C55	C	1.060448	-0.121590	-0.000055
C56	C	1.560448	0.378410	0.499945
C57	C	1.137901	-0.171602	-0.000060
C58	C	1.637901	0.328398	0.499940
C59	C	1.129969	-0.253164	-0.000052
C60	C	1.629969	0.246836	0.499948
C61	C	1.044584	-0.284710	-0.000044
C62	C	1.544584	0.215290	0.499956
C63	C	0.967125	-0.234692	-0.000036
C64	C	1.467125	0.265308	0.499964
C65	C	0.975058	-0.153132	-0.000039
C66	C	1.475058	0.346868	0.499961
C67	C	1.016559	-0.530506	-0.000031
C68	C	1.516559	-0.030506	0.499969
C69	C	1.008632	-0.612072	-0.000031
C70	C	1.508632	-0.112072	0.499969
C71	C	1.171477	-0.630538	-0.000045
C72	C	1.671477	-0.130538	0.499955
C73	C	1.179402	-0.548976	-0.000052
C74	C	1.679402	-0.048976	0.499948
C75	C	1.101944	-0.498964	-0.000040
C76	C	1.601944	0.001036	0.499960
C77	C	1.036474	-0.368079	-0.000038
C78	C	1.536474	0.131921	0.499962
C79	C	1.110055	-0.415598	-0.000040
C80	C	1.610055	0.084402	0.499960
C81	C	1.237668	0.102634	-0.000056
C82	C	1.737668	0.602634	0.499944
C83	C	1.337876	0.104284	-0.000056
C84	C	1.837876	0.604284	0.499944
C85	C	1.077649	0.251112	-0.000041
C86	C	1.577649	0.751112	0.499959
C87	C	1.086085	0.337916	-0.000036
C88	C	1.586085	0.837916	0.499964
N89	N	1.062111	0.118476	-0.204816
N90	N	1.562111	0.618476	0.295184
C91	C	1.116887	0.067690	-0.250098
C92	C	1.616887	0.567690	0.249902
C93	C	1.111966	0.072256	-0.340671
C94	C	1.611966	0.572256	0.159329
C95	C	1.052275	0.127612	-0.385959
C96	C	1.552275	0.627612	0.114041
C97	C	0.997493	0.178400	-0.340670
C98	C	1.497493	0.678400	0.159330
C99	C	1.002409	0.173830	-0.250099
C100	C	1.502409	0.673830	0.249901
C101	C	1.034563	0.144063	-0.659424
C102	C	1.534563	0.644063	-0.159424
C103	C	1.029653	0.148630	-0.750001
C104	C	1.529653	0.648630	-0.250001
C105	C	1.144126	0.042484	-0.749995
C106	C	1.644126	0.542484	-0.249995
C107	C	1.149041	0.037922	-0.659423
C108	C	1.649041	0.537922	-0.159423
C109	C	1.094256	0.088708	-0.614142
C110	C	1.594256	0.588708	-0.114142
C111	C	1.047246	0.132282	-0.478538
C112	C	1.547246	0.632282	0.021462
C113	C	1.099280	0.084034	-0.521564
C114	C	1.599280	0.584034	-0.021564
N115	N	1.084428	0.097844	0.204717
N116	N	1.584428	0.597844	0.704717
H117	H	0.354362	0.097254	0.142246
H118	H	0.854362	0.597254	0.642246
H119	H	1.197646	-0.007153	-0.622551
H120	H	1.697646	0.492847	-0.122551
H121	H	0.646659	0.120696	-0.220792
H122	H	1.146659	0.620696	0.279208
H123	H	0.475843	0.117884	-0.220782
H124	H	0.975843	0.617884	0.279218
N125	N	1.229998	-0.137583	-0.000074
N126	N	1.729998	0.362417	0.499926
H127	H	1.239830	-0.106836	0.053261
H128	H	1.739830	0.393164	0.553261
H129	H	1.233948	-0.101513	-0.053453
H130	H	1.733948	0.398487	0.446547
H131	H	1.234539	-0.671265	-0.000053
H132	H	1.734539	-0.171265	0.499947
H133	H	0.966953	-0.393774	-0.000034
H134	H	1.466953	0.106226	0.499966
H135	H	0.939097	-0.637753	-0.000039
H136	H	1.439097	-0.137753	0.499961
N137	N	0.803489	0.120318	-0.163064
N138	N	1.303489	0.620318	0.336936
H139	H	0.838770	0.169571	-0.166550
H140	H	1.338770	0.669571	0.333450
H141	H	0.756624	0.122065	-0.212706
H142	H	1.256624	0.622065	0.287294
H143	H	1.193040	-0.293881	-0.000058
H144	H	1.693040	0.206119	0.499942
H145	H	0.998645	0.177356	-0.515419
H146	H	1.498645	0.677356	-0.015419
N147	N	0.684272	0.097608	0.241431
N148	N	1.184272	0.597608	0.741431
H149	H	0.673354	0.047176	0.275718
H150	H	1.173354	0.547176	0.775718
H151	H	0.666135	0.144075	0.275661
H152	H	1.166135	0.644075	0.775661
H153	H	1.188728	0.001136	-0.786871
H154	H	1.688728	0.501136	-0.286871
N155	N	1.271496	-0.514951	-0.000066
N156	N	1.771496	-0.014951	0.499934
H157	H	1.319361	-0.559011	-0.000068
H158	H	1.819361	-0.059011	0.499932
H159	H	1.281245	-0.484195	0.053273
H160	H	1.781245	0.015805	0.553273
H161	H	0.499863	0.095629	0.220689
H162	H	0.999863	0.595629	0.720689
H163	H	0.807650	0.104730	0.142276
H164	H	1.307650	0.604730	0.642276
H165	H	0.338881	0.111601	-0.142351
H166	H	0.838881	0.611601	0.357649
H167	H	0.953487	-0.489796	-0.000021
H168	H	1.453487	0.010204	0.499979
H169	H	0.897603	-0.260384	-0.000025
H170	H	1.397603	0.239616	0.499975
H171	H	0.911987	-0.112412	-0.000034
H172	H	1.411987	0.387588	0.499966
H173	H	1.179576	-0.389910	-0.000027
H174	H	1.679576	0.110090	0.499973
N175	N	1.163644	0.024324	-0.472711
N176	N	1.663644	0.524324	0.027289
H177	H	1.207888	0.052372	-0.435114
H178	H	1.707888	0.552372	0.064886
H179	H	1.197543	-0.007149	-0.515183
H180	H	1.697543	0.492851	-0.015183
H181	H	0.981042	0.193711	-0.786870
H182	H	1.481042	0.693711	-0.286870
H183	H	1.165498	0.022617	-0.213231
H184	H	1.665498	0.522617	0.286769
N185	N	0.975471	0.198832	-0.610591
N186	N	1.475471	0.698832	-0.110591
H187	H	0.936914	0.234592	-0.653027
H188	H	1.436914	0.734592	-0.153027
H189	H	1.014669	0.231561	-0.572995
H190	H	1.514669	0.731561	-0.072995
N191	N	0.933103	0.238102	-0.389511
N192	N	1.433103	0.738102	0.110489
H193	H	0.938301	0.233293	-0.453759
H194	H	1.438301	0.733293	0.046241
H195	H	0.948626	0.292790	-0.373666
H196	H	1.448626	0.792790	0.126334
H197	H	1.156568	0.030901	-0.377539
H198	H	1.656568	0.530901	0.122461
N199	N	0.943326	0.228602	-0.201254
N200	N	1.443326	0.728602	0.298746
H201	H	0.904765	0.264364	-0.243685
H202	H	1.404765	0.764364	0.256315
H203	H	0.982527	0.261330	-0.163660
H204	H	1.482527	0.761330	0.336340
