data_functionalizedCrystal
_audit_creation_method	'MofGen! by Chris Wilmer'
_symmetry_space_group_name_H-M	'P1'
_symmetry_Int_Tables_number	1
_symmetry_cell_setting	triclinic
loop_
_symmetry_equiv_pos_as_xyz
  x,y,z
_cell_length_a	14.044220
_cell_length_b	14.044191
_cell_length_c	12.503572
_cell_angle_alpha	86.162165
_cell_angle_beta	86.154684
_cell_angle_gamma	86.809673
loop_
_atom_site_label
_atom_site_type_symbol
_atom_site_fract_x
_atom_site_fract_y
_atom_site_fract_z
O1	O	-0.225146	1.282208	-0.089264
O2	O	0.274854	1.782208	0.410736
O3	O	-0.216832	1.005536	-0.089277
O4	O	0.283168	1.505536	0.410723
O5	O	-0.082653	1.139719	-0.089266
O6	O	0.417347	1.639719	0.410734
O7	O	-0.359324	1.148025	-0.089275
O8	O	0.140676	1.648025	0.410725
O9	O	-0.092763	1.129629	0.089375
O10	O	0.407237	1.629629	0.589375
O11	O	-0.226941	0.995446	0.089364
O12	O	0.273059	1.495446	0.589364
O13	O	-0.235255	1.272118	0.089378
O14	O	0.264745	1.772118	0.589378
Cu15	Cu	-0.232021	1.132861	0.105682
Cu16	Cu	0.267979	1.632861	0.605682
Cu17	Cu	-0.220066	1.144793	-0.105582
Cu18	Cu	0.279934	1.644793	0.394418
O19	O	-0.369434	1.137935	0.089366
O20	O	0.130566	1.637935	0.589366
C21	C	-0.218250	0.964869	0.000041
C22	C	0.281750	1.464869	0.500041
C23	C	-0.207403	0.858726	0.000036
C24	C	0.292597	1.358726	0.500036
C25	C	-0.264504	0.613267	0.000045
C26	C	0.235496	1.113267	0.500045
C27	C	-0.187587	0.664393	0.000046
C28	C	0.312413	1.164393	0.500046
C29	C	-0.198615	0.772530	0.000040
C30	C	0.301385	1.272530	0.500040
C31	C	-0.253477	0.505120	0.000050
C32	C	0.246523	1.005120	0.500050
C33	C	-0.400001	1.146616	0.000044
C34	C	0.099999	1.646616	0.500044
C35	C	-0.506144	1.157461	0.000041
C36	C	-0.006144	1.657461	0.500041
C37	C	-0.700482	1.177287	0.000047
C38	C	-0.200482	1.677287	0.500047
C39	C	-0.751610	1.100372	0.000044
C40	C	-0.251610	1.600372	0.500044
C41	C	-0.859747	1.111404	0.000047
C42	C	-0.359747	1.611404	0.500047
C43	C	-0.592336	1.166257	0.000044
C44	C	-0.092336	1.666257	0.500044
C45	C	-0.052086	1.131038	0.000053
C46	C	0.447914	1.631038	0.500053
C47	C	0.054057	1.120194	0.000050
C48	C	0.554057	1.620194	0.500050
C49	C	-0.233837	1.312785	0.000056
C50	C	0.266163	1.812785	0.500056
C51	C	-0.244684	1.418928	0.000055
C52	C	0.255316	1.918928	0.500055
N53	N	-0.240430	1.124475	0.254274
N54	N	0.259570	1.624475	0.754274
N55	N	-0.211650	1.153186	-0.254173
N56	N	0.288350	1.653186	0.245827
C57	C	-0.252808	1.112140	0.473388
C58	C	0.247192	1.612140	0.973388
C59	C	-0.199275	1.165518	0.526719
C60	C	0.300725	1.665518	1.026719
C61	C	-0.206162	1.158654	0.648642
C62	C	0.293838	1.658654	1.148642
C63	C	-0.245922	1.119002	0.351454
C64	C	0.254078	1.619002	0.851454
H65	H	-0.338630	0.650709	0.000039
H66	H	0.161370	1.150709	0.500039
H67	H	-0.737922	1.251414	0.000055
H68	H	-0.237922	1.751414	0.500055
H69	H	-0.148273	1.216371	0.480811
H70	H	0.351727	1.716371	0.980811
C71	C	-0.315250	1.049913	0.645889
C72	C	0.184750	1.549913	1.145889
C73	C	-0.321666	1.043503	0.535354
C74	C	0.178334	1.543503	1.035354
H75	H	-0.357767	1.007546	0.684151
H76	H	0.142233	1.507546	1.184151
H77	H	-0.251701	1.033023	0.664250
H78	H	0.248299	1.533023	1.164250
H79	H	-0.331948	1.113516	0.664231
H80	H	0.168052	1.613516	1.164231
H81	H	-0.304962	0.979900	0.517010
H82	H	0.195038	1.479900	1.017010
H83	H	-0.385230	1.060386	0.516985
H84	H	0.114770	1.560386	1.016985
H85	H	-0.113451	0.626954	-0.000027
H86	H	0.386549	1.126954	0.499973
H87	H	-0.714169	1.026238	0.000041
H88	H	-0.214169	1.526238	0.500041
