data_functionalizedCrystal
_audit_creation_method	'MofGen! by Chris Wilmer'
_symmetry_space_group_name_H-M	'P1'
_symmetry_Int_Tables_number	1
_symmetry_cell_setting	triclinic
loop_
_symmetry_equiv_pos_as_xyz
  x,y,z
_cell_length_a	11.792241
_cell_length_b	11.792241
_cell_length_c	9.130313
_cell_angle_alpha	89.995332
_cell_angle_beta	90.000683
_cell_angle_gamma	84.193416
loop_
_atom_site_label
_atom_site_type_symbol
_atom_site_fract_x
_atom_site_fract_y
_atom_site_fract_z
O1	O	1.506907	0.155568	-0.121658
O2	O	1.840240	0.488901	0.211676
O3	O	2.173574	0.822234	0.545009
O4	O	1.176566	0.171601	-0.121692
O5	O	1.509899	0.504934	0.211641
O6	O	1.843233	0.838267	0.544975
O7	O	1.349753	-0.001586	-0.121664
O8	O	1.683086	0.331747	0.211670
O9	O	2.016420	0.665080	0.545003
O10	O	1.333720	0.328755	-0.121686
O11	O	1.667054	0.662088	0.211647
O12	O	2.000387	0.995421	0.544981
O13	O	1.349741	-0.001592	0.121935
O14	O	1.683075	0.331742	0.455268
O15	O	2.016408	0.665075	0.788602
O16	O	1.176554	0.171595	0.121907
O17	O	1.509888	0.504929	0.455240
O18	O	1.843221	0.838262	0.788574
O19	O	1.506895	0.155563	0.121941
O20	O	1.840229	0.488896	0.455274
O21	O	2.173562	0.822229	0.788608
Cu22	Cu	1.341724	0.163579	0.144167
Cu23	Cu	1.675057	0.496912	0.477500
Cu24	Cu	2.008390	0.830245	0.810833
Cu25	Cu	1.341738	0.163585	-0.143917
Cu26	Cu	1.675071	0.496918	0.189416
Cu27	Cu	2.008404	0.830251	0.522749
O28	O	1.333708	0.328750	0.121913
O29	O	1.667042	0.662083	0.455246
O30	O	2.000375	0.995416	0.788580
C31	C	1.134269	0.170591	0.000103
C32	C	1.467603	0.503924	0.333437
C33	C	1.800936	0.837258	0.666770
C34	C	1.008255	0.167576	0.000090
C35	C	1.341589	0.500910	0.333424
C36	C	1.674922	0.834243	0.666757
C37	C	1.348740	-0.043880	0.000135
C38	C	1.682073	0.289453	0.333468
C39	C	2.015407	0.622787	0.666802
C40	C	1.345726	-0.169894	0.000133
C41	C	1.679059	0.163440	0.333467
C42	C	2.012392	0.496773	0.666800
C43	C	1.340183	-0.400606	0.000108
C44	C	1.673516	-0.067272	0.333442
C45	C	2.006849	0.266061	0.666775
C46	C	1.343262	-0.272221	0.000122
C47	C	1.676596	0.061113	0.333455
C48	C	2.009929	0.394446	0.666789
C49	C	0.777543	0.162034	0.000133
C50	C	1.110877	0.495367	0.333466
C51	C	1.444210	0.828700	0.666800
C52	C	0.905928	0.165113	0.000110
C53	C	1.239262	0.498447	0.333443
C54	C	1.572595	0.831780	0.666776
C55	C	1.549192	0.156572	0.000143
C56	C	1.882525	0.489905	0.333476
C57	C	2.215859	0.823239	0.666809
C58	C	1.675206	0.159587	0.000146
C59	C	2.008539	0.492920	0.333479
C60	C	2.341873	0.826253	0.666813
C61	C	1.334721	0.371043	0.000111
C62	C	1.668055	0.704376	0.333444
C63	C	2.001388	1.037710	0.666778
C64	C	1.337736	0.497057	0.000103
C65	C	1.671069	0.830390	0.333436
C66	C	2.004402	1.163723	0.666770
N67	N	1.341722	0.163574	0.346789
N68	N	1.675055	0.496907	0.680123
N69	N	2.008389	0.830240	1.013456
N70	N	1.341748	0.163580	-0.346540
N71	N	1.675082	0.496914	-0.013207
N72	N	2.008415	0.830247	0.320127
C73	C	1.418435	0.086919	0.423454
C74	C	1.751769	0.420252	0.756787
C75	C	2.085102	0.753586	1.090120
C76	C	1.418446	0.086919	0.576790
C77	C	1.751779	0.420252	0.910124
C78	C	2.085113	0.753586	1.243457
C79	C	1.265027	0.240239	0.576785
C80	C	1.598360	0.573572	0.910118
C81	C	1.931694	0.906906	1.243452
C82	C	1.265011	0.240232	0.423451
C83	C	1.598345	0.573566	0.756784
C84	C	1.931678	0.906899	1.090118
H85	H	1.480911	0.024499	0.639206
H86	H	1.814245	0.357832	0.972540
H87	H	2.147578	0.691165	1.305873
N88	N	1.182272	0.322923	0.340755
N89	N	1.515606	0.656256	0.674088
N90	N	1.848939	0.989590	1.007422
H91	H	1.193902	0.311282	0.231987
H92	H	1.527235	0.644615	0.565320
H93	H	1.860569	0.977949	0.898653
H94	H	1.101680	0.309268	0.367570
H95	H	1.435014	0.642602	0.700904
H96	H	1.768347	0.975935	1.034237
N97	N	1.182293	0.322918	0.659470
N98	N	1.515626	0.656251	0.992804
N99	N	1.848960	0.989584	1.326137
H100	H	1.193943	0.311294	0.768241
H101	H	1.527277	0.644627	1.101574
H102	H	1.860610	0.977960	1.434907
H103	H	1.195888	0.403526	0.632649
H104	H	1.529222	0.736859	0.965982
H105	H	1.862555	1.070193	1.299316
H106	H	1.480896	0.024497	0.361039
H107	H	1.814229	0.357831	0.694372
H108	H	2.147563	0.691164	1.027706
