data_functionalizedCrystal
_audit_creation_method	'MofGen! by Chris Wilmer'
_symmetry_space_group_name_H-M	'P1'
_symmetry_Int_Tables_number	1
_symmetry_cell_setting	triclinic
loop_
_symmetry_equiv_pos_as_xyz
  x,y,z
_cell_length_a	10.654554
_cell_length_b	8.597304
_cell_length_c	9.130313
_cell_angle_alpha	82.298826
_cell_angle_beta	89.998999
_cell_angle_gamma	84.910603
loop_
_atom_site_label
_atom_site_type_symbol
_atom_site_fract_x
_atom_site_fract_y
_atom_site_fract_z
O1	O	1.669000	0.220491	-0.149643
O2	O	1.303634	0.241488	-0.152290
O3	O	1.493509	0.002602	-0.122143
O4	O	1.479126	0.459377	-0.179790
O5	O	1.493506	0.002609	0.121455
O6	O	1.303632	0.241494	0.091308
O7	O	1.668998	0.220498	0.093955
Cu8	Cu	1.486315	0.230997	0.114874
Cu9	Cu	1.486318	0.230989	-0.173209
O10	O	1.479124	0.459383	0.063808
C11	C	1.256827	0.239948	-0.030295
C12	C	1.117359	0.235331	-0.029712
C13	C	0.934005	0.085997	-0.010884
C14	C	1.065050	0.090334	-0.011416
C15	C	1.038617	0.376000	-0.047461
C16	C	0.907575	0.371661	-0.046918
C17	C	0.949267	-0.078930	0.009920
C18	C	1.080312	-0.074593	0.009387
C19	C	1.491963	-0.055883	0.007035
C20	C	1.487347	-0.230159	0.029020
C21	C	1.715805	0.222038	-0.028043
C22	C	1.855273	0.226655	-0.028636
C23	C	1.480669	0.517868	-0.065373
C24	C	1.485286	0.692144	-0.087368
N25	N	1.486322	0.231001	0.317496
N26	N	1.486320	0.230972	-0.375829
C27	C	1.570420	0.125259	0.407492
C28	C	1.570417	0.125240	0.560832
C29	C	1.402213	0.336719	0.534163
C30	C	1.402211	0.336730	0.380827
C31	C	1.667536	0.003167	0.422890
C32	C	1.667532	0.003148	0.576229
H33	H	0.843474	0.486199	-0.061356
H34	H	1.333731	0.422800	0.585744
O35	O	1.487633	-0.219367	-0.241653
H36	H	1.401415	-0.237640	-0.303049
O37	O	1.485014	-0.318655	0.183315
H38	H	1.397662	-0.380220	0.197355
H39	H	1.645453	-0.117480	0.396496
H40	H	1.636414	-0.110862	0.638165
H41	H	1.758922	0.041398	0.370506
H42	H	1.333721	0.422819	0.307554
H43	H	1.764186	0.030044	0.614451
H44	H	0.919561	-0.143432	0.119999
H45	H	1.081217	0.494059	-0.062343
H46	H	0.913361	-0.131451	-0.088634
H47	H	1.125685	-0.124428	0.120861
O48	O	1.135207	-0.156889	-0.115262
H49	H	1.058155	-0.200604	-0.175874
