data_functionalizedCrystal
_audit_creation_method	'MofGen! by Chris Wilmer'
_symmetry_space_group_name_H-M	'P1'
_symmetry_Int_Tables_number	1
_symmetry_cell_setting	triclinic
loop_
_symmetry_equiv_pos_as_xyz
  x,y,z
_cell_length_a	21.395364
_cell_length_b	18.101397
_cell_length_c	21.395356
_cell_angle_alpha	90.027036
_cell_angle_beta	90.016383
_cell_angle_gamma	90.035417
loop_
_atom_site_label
_atom_site_type_symbol
_atom_site_fract_x
_atom_site_fract_y
_atom_site_fract_z
Zn1	Zn	0.957853	-0.294568	0.354255
Zn2	Zn	1.291187	0.038765	0.687589
Zn3	Zn	1.624520	0.372099	1.020922
Zn4	Zn	0.957789	-0.418407	0.249475
Zn5	Zn	1.291123	-0.085073	0.582809
Zn6	Zn	1.624456	0.248260	0.916142
Zn7	Zn	0.853083	-0.294616	0.249492
Zn8	Zn	1.186417	0.038717	0.582825
Zn9	Zn	1.519750	0.372051	0.916159
Zn10	Zn	0.853056	-0.418405	0.354215
Zn11	Zn	1.186390	-0.085071	0.687549
Zn12	Zn	1.519723	0.248262	1.020882
O13	O	0.905446	-0.356499	0.301860
O14	O	1.238779	-0.023165	0.635193
O15	O	1.572112	0.310168	0.968526
O16	O	1.045523	-0.310976	0.340366
O17	O	1.378856	0.022357	0.673699
O18	O	1.712189	0.355690	1.007032
O19	O	0.943885	-0.402006	0.161800
O20	O	1.277218	-0.068673	0.495133
O21	O	1.610551	0.264660	0.828466
O22	O	0.867019	-0.190977	0.263413
O23	O	1.200353	0.142357	0.596746
O24	O	1.533686	0.475690	0.930079
O25	O	1.045476	-0.401960	0.263384
O26	O	1.378809	-0.068627	0.596718
O27	O	1.712142	0.264707	0.930051
O28	O	0.943993	-0.190941	0.340382
O29	O	1.277327	0.142392	0.673715
O30	O	1.610660	0.475725	1.007049
O31	O	0.866957	-0.311058	0.161812
O32	O	1.200291	0.022275	0.495145
O33	O	1.533624	0.355609	0.828479
O34	O	0.765402	-0.311056	0.263374
O35	O	1.098735	0.022278	0.596707
O36	O	1.432068	0.355611	0.930041
O37	O	0.866973	-0.401957	0.441899
O38	O	1.200306	-0.068623	0.775232
O39	O	1.533640	0.264710	1.108565
O40	O	0.765382	-0.402003	0.340314
O41	O	1.098715	-0.068670	0.673647
O42	O	1.432049	0.264664	1.006981
O43	O	0.943967	-0.310974	0.441928
O44	O	1.277300	0.022359	0.775261
O45	O	1.610634	0.355692	1.108595
O46	O	0.943858	-0.522039	0.263346
O47	O	1.277192	-0.188706	0.596679
O48	O	1.610525	0.144627	0.930012
O49	O	0.866911	-0.522038	0.340298
O50	O	1.200245	-0.188704	0.673631
O51	O	1.533578	0.144629	1.006964
C52	C	0.742658	-0.356535	0.301842
C53	C	1.075991	-0.023201	0.635175
C54	C	1.409325	0.310132	0.968509
C55	C	0.673017	-0.356568	0.301849
C56	C	1.006350	-0.023235	0.635183
C57	C	1.339683	0.310099	0.968516
C58	C	0.640350	-0.309270	0.341995
C59	C	0.973684	0.024063	0.675329
C60	C	1.307017	0.357396	1.008662
C61	C	0.574915	-0.309251	0.341998
C62	C	0.908248	0.024083	0.675331
C63	C	1.241582	0.357416	1.008665
C64	C	0.542148	-0.356542	0.301861
C65	C	0.875482	-0.023209	0.635194
C66	C	1.208815	0.310125	0.968527
C67	C	0.574823	-0.403843	0.261707
C68	C	0.908156	-0.070510	0.595040
C69	C	1.241489	0.262824	0.928373
C70	C	0.640257	-0.403856	0.261701
C71	C	0.973590	-0.070523	0.595034
C72	C	1.306923	0.262811	0.928368
C73	C	0.438435	-0.423235	0.296822
C74	C	0.771768	-0.089902	0.630155
C75	C	1.105101	0.243432	0.963488
C76	C	0.373002	-0.423223	0.296832
C77	C	0.706335	-0.089890	0.630165
C78	C	1.039668	0.243443	0.963498
C79	C	0.340328	-0.356501	0.301875
C80	C	0.673661	-0.023168	0.635208
C81	C	1.006994	0.310166	0.968541
C82	C	0.373094	-0.289789	0.306920
C83	C	0.706428	0.043545	0.640254
C84	C	1.039761	0.376878	0.973587
C85	C	0.438529	-0.289802	0.306915
C86	C	0.771862	0.043531	0.640248
C87	C	1.105195	0.376865	0.973581
C88	C	0.471196	-0.356533	0.301862
C89	C	0.804529	-0.023199	0.635195
C90	C	1.137863	0.310134	0.968529
C91	C	0.236709	-0.309178	0.342026
C92	C	0.570042	0.024155	0.675359
C93	C	0.903375	0.357489	1.008692
C94	C	0.171272	-0.309157	0.342024
C95	C	0.504605	0.024176	0.675357
C96	C	0.837939	0.357510	1.008690
C97	C	0.171181	-0.403756	0.261736
C98	C	0.504514	-0.070423	0.595069
C99	C	0.837848	0.262911	0.928402
C100	C	0.236616	-0.403770	0.261734
C101	C	0.569950	-0.070437	0.595068
C102	C	0.903283	0.262896	0.928401
C103	C	0.269376	-0.356482	0.301883
C104	C	0.602710	-0.023149	0.635216
C105	C	0.936043	0.310184	0.968549
C106	C	0.905392	-0.548909	0.301829
C107	C	1.238725	-0.215576	0.635162
C108	C	1.572059	0.117757	0.968496
C109	C	0.905426	-0.631223	0.301837
C110	C	1.238760	-0.297890	0.635170
C111	C	1.572093	0.035443	0.968504
C112	C	0.905506	-0.930314	0.301894
C113	C	1.238840	-0.596981	0.635228
C114	C	1.572173	-0.263648	0.968561
C115	C	0.953784	-0.898959	0.253348
C116	C	1.287118	-0.565626	0.586682
C117	C	1.620451	-0.232293	0.920015
C118	C	0.953952	-0.813341	0.253474
C119	C	1.287285	-0.480007	0.586807
C120	C	1.620618	-0.146674	0.920141
C121	C	0.905467	-0.781932	0.301865
C122	C	1.238800	-0.448598	0.635199
C123	C	1.572133	-0.115265	0.968532
C124	C	0.923362	-0.812938	0.367908
C125	C	1.256696	-0.479605	0.701241
C126	C	1.590029	-0.146272	1.034575
C127	C	0.923736	-0.898583	0.367644
C128	C	1.257069	-0.565250	0.700977
C129	C	1.590403	-0.231917	1.034310
C130	C	0.839204	-0.898843	0.284969
C131	C	1.172537	-0.565509	0.618302
C132	C	1.505870	-0.232176	0.951636
C133	C	0.839531	-0.813193	0.283495
C134	C	1.172865	-0.479859	0.616828
C135	C	1.506198	-0.146526	0.950162
C136	C	0.905443	-0.698072	0.301853
C137	C	1.238776	-0.364739	0.635186
C138	C	1.572110	-0.031406	0.968520
C139	C	0.905531	-1.014174	0.301911
C140	C	1.238865	-0.680840	0.635244
C141	C	1.572198	-0.347507	0.968578
C142	C	1.068869	-0.356463	0.301878
C143	C	1.402202	-0.023130	0.635211
C144	C	1.735535	0.310204	0.968544
C145	C	1.138510	-0.356448	0.301885
C146	C	1.471843	-0.023115	0.635219
C147	C	1.805177	0.310219	0.968552
C148	C	0.905474	-0.356460	0.465283
C149	C	1.238808	-0.023127	0.798616
C150	C	1.572141	0.310207	1.131950
C151	C	0.905486	-0.356443	0.534924
C152	C	1.238820	-0.023110	0.868257
C153	C	1.572153	0.310223	1.201591
C154	C	0.905516	-0.163337	0.301904
C155	C	1.238850	0.169996	0.635237
C156	C	1.572183	0.503330	0.968570
C157	C	0.905547	-0.081023	0.301923
C158	C	1.238880	0.252311	0.635256
C159	C	1.572213	0.585644	0.968589
C160	C	0.905453	-0.356484	0.139072
C161	C	1.238786	-0.023151	0.472405
C162	C	1.572120	0.310183	0.805739
C163	C	0.905562	-0.356292	0.069431
C164	C	1.238895	-0.022959	0.402764
C165	C	1.572229	0.310375	0.736098
C166	C	0.945613	-0.403645	1.036715
C167	C	1.278946	-0.070312	1.370048
C168	C	1.612279	0.263022	1.703381
C169	C	0.945602	-0.403668	0.971279
C170	C	1.278935	-0.070335	1.304613
C171	C	1.612268	0.262998	1.637946
C172	C	0.905546	-0.356326	0.938563
C173	C	1.238880	-0.022992	1.271896
C174	C	1.572213	0.310341	1.605229
C175	C	0.865488	-0.308970	0.971287
C176	C	1.198821	0.024364	1.304620
C177	C	1.532154	0.357697	1.637954
C178	C	0.865496	-0.308953	1.036721
C179	C	1.198829	0.024381	1.370054
C180	C	1.532162	0.357714	1.703388
C181	C	0.900611	-0.289632	0.834909
C182	C	1.233944	0.043701	1.168242
C183	C	1.567277	0.377035	1.501576
C184	C	0.900607	-0.289648	0.769476
C185	C	1.233940	0.043686	1.102809
C186	C	1.567274	0.377019	1.436143
C187	C	0.905518	-0.356378	0.736742
C188	C	1.238851	-0.023045	1.070075
C189	C	1.572185	0.310288	1.403408
C190	C	0.910446	-0.423095	0.769449
C191	C	1.243779	-0.089762	1.102782
C192	C	1.577112	0.243571	1.436115
C193	C	0.910454	-0.423078	0.834883
C194	C	1.243787	-0.089745	1.168216
C195	C	1.577120	0.243588	1.501550
C196	C	0.905533	-0.356339	0.867610
C197	C	1.238866	-0.023006	1.200944
C198	C	1.572199	0.310327	1.534277
C199	C	0.945559	-0.403761	0.633073
C200	C	1.278892	-0.070427	0.966406
C201	C	1.612225	0.262906	1.299739
C202	C	0.945543	-0.403785	0.567636
C203	C	1.278876	-0.070452	0.900969
C204	C	1.612210	0.262881	1.234303
C205	C	0.865432	-0.309080	0.567645
C206	C	1.198766	0.024253	0.900979
C207	C	1.532099	0.357587	1.234312
C208	C	0.865445	-0.309062	0.633081
C209	C	1.198778	0.024271	0.966414
C210	C	1.532111	0.357605	1.299747
C211	C	0.905511	-0.356401	0.665790
C212	C	1.238845	-0.023068	0.999124
C213	C	1.572178	0.310265	1.332457
H214	H	0.465205	-0.235482	0.311021
H215	H	0.798538	0.097851	0.644355
H216	H	1.131871	0.431184	0.977688
H217	H	0.666853	-0.442373	0.229008
H218	H	1.000187	-0.109039	0.562341
H219	H	1.333520	0.224294	0.895675
H220	H	0.942756	-0.792379	0.204504
H221	H	1.276089	-0.459046	0.537838
H222	H	1.609423	-0.125712	0.871171
H223	H	0.346493	-0.235457	0.311027
H224	H	0.679826	0.097876	0.644360
H225	H	1.013159	0.431209	0.977694
Br226	Br	0.894292	-0.199026	0.879327
Br227	Br	1.227625	0.134308	1.212660
Br228	Br	1.560959	0.467641	1.545993
H229	H	0.826037	-0.792935	0.234893
H230	H	1.159371	-0.459602	0.568226
H231	H	1.492704	-0.126268	0.901559
H232	H	0.144503	-0.442261	0.229055
H233	H	0.477836	-0.108928	0.562388
H234	H	0.811170	0.224405	0.895722
Br235	Br	0.811126	-0.244718	0.926888
Br236	Br	1.144460	0.088615	1.260221
Br237	Br	1.477793	0.421948	1.593555
H238	H	0.801626	-0.791822	0.316264
H239	H	1.134959	-0.458488	0.649597
H240	H	1.468293	-0.125155	0.982931
H241	H	0.822923	-0.920505	0.237646
H242	H	1.156256	-0.587171	0.570979
H243	H	1.489589	-0.253838	0.904313
Br244	Br	0.280953	-0.467958	0.207242
Br245	Br	0.614286	-0.134625	0.540576
Br246	Br	0.947619	0.198709	0.873909
Br247	Br	0.328539	-0.513761	0.289998
Br248	Br	0.661873	-0.180427	0.623331
Br249	Br	0.995206	0.152906	0.956664
Br250	Br	1.004512	-0.931764	0.391539
Br251	Br	1.337845	-0.598431	0.724872
Br252	Br	1.671179	-0.265097	1.058206
Br253	Br	0.867666	-0.933156	0.429978
Br254	Br	1.200999	-0.599822	0.763311
Br255	Br	1.534332	-0.266489	1.096644
H256	H	0.832881	-0.270391	1.063359
H257	H	1.166214	0.062943	1.396692
H258	H	1.499548	0.396276	1.730025
H259	H	0.667019	-0.270764	0.374687
H260	H	1.000353	0.062569	0.708020
H261	H	1.333686	0.395902	1.041354
H262	H	0.548313	-0.270732	0.374689
H263	H	0.881646	0.062602	0.708022
H264	H	1.214979	0.395935	1.041355
H265	H	0.914446	-0.477434	0.742798
H266	H	1.247779	-0.144100	1.076132
H267	H	1.581113	0.189233	1.409465
Br268	Br	0.999933	-0.468004	0.677469
Br269	Br	1.333267	-0.134671	1.010802
Br270	Br	1.666600	0.198662	1.344135
Br271	Br	0.281172	-0.244999	0.396507
Br272	Br	0.614506	0.088334	0.729841
Br273	Br	0.947839	0.421667	1.063174
Br274	Br	0.126938	-0.244956	0.396508
Br275	Br	0.460271	0.088377	0.729842
Br276	Br	0.793604	0.421710	1.063175
H277	H	0.465033	-0.477572	0.292715
H278	H	0.798366	-0.144239	0.626048
H279	H	1.131699	0.189095	0.959381
H280	H	0.548140	-0.442347	0.229026
H281	H	0.881473	-0.109014	0.562360
H282	H	1.214807	0.224320	0.895693
Br283	Br	0.779249	-0.932642	0.343900
Br284	Br	1.112583	-0.599309	0.677233
Br285	Br	1.445916	-0.265976	1.010566
H286	H	0.942724	-0.919602	0.204232
H287	H	1.276057	-0.586269	0.537565
H288	H	1.609391	-0.252936	0.870899
Br289	Br	0.999982	-0.467898	1.081104
Br290	Br	1.333315	-0.134565	1.414437
Br291	Br	1.666649	0.198769	1.747771
H292	H	1.002629	-0.920413	0.264418
H293	H	1.335963	-0.587080	0.597751
H294	H	1.669296	-0.253746	0.931085
Br295	Br	0.999958	-0.467940	0.926868
Br296	Br	1.333291	-0.134607	1.260202
Br297	Br	1.666625	0.198727	1.593535
Br298	Br	1.035810	-0.779069	0.272142
Br299	Br	1.369143	-0.445736	0.605475
Br300	Br	1.702477	-0.112403	0.938808
Br301	Br	1.003235	-0.777071	0.392212
Br302	Br	1.336568	-0.443738	0.725545
Br303	Br	1.669901	-0.110405	1.058878
Br304	Br	0.999898	-0.468062	0.523234
Br305	Br	1.333231	-0.134728	0.856567
Br306	Br	1.666564	0.198605	1.189900
Br307	Br	0.866542	-0.779042	0.429818
Br308	Br	1.199875	-0.445708	0.763151
Br309	Br	1.533208	-0.112375	1.096485
H310	H	0.914464	-0.477402	0.861510
H311	H	1.247798	-0.144068	1.194844
H312	H	1.581131	0.189265	1.528177
Br313	Br	0.811051	-0.244851	0.523251
Br314	Br	1.144384	0.088482	0.856585
Br315	Br	1.477717	0.421815	1.189918
Br316	Br	0.893928	-0.199104	0.725094
Br317	Br	1.227261	0.134229	1.058428
Br318	Br	1.560594	0.467562	1.391761
Br319	Br	0.811076	-0.244807	0.677485
Br320	Br	1.144409	0.088526	1.010818
Br321	Br	1.477742	0.421860	1.344151
