data_functionalizedCrystal
_audit_creation_method	'MofGen! by Chris Wilmer'
_symmetry_space_group_name_H-M	'P1'
_symmetry_Int_Tables_number	1
_symmetry_cell_setting	triclinic
loop_
_symmetry_equiv_pos_as_xyz
  x,y,z
_cell_length_a	27.732048
_cell_length_b	27.731996
_cell_length_c	15.455313
_cell_angle_alpha	92.636264
_cell_angle_beta	87.346468
_cell_angle_gamma	82.632022
loop_
_atom_site_label
_atom_site_type_symbol
_atom_site_fract_x
_atom_site_fract_y
_atom_site_fract_z
O1	O	0.643048	0.055391	-0.072029
O2	O	0.502254	0.064136	-0.072057
O3	O	0.577037	-0.010634	-0.072024
O4	O	0.568266	0.130162	-0.072063
O5	O	0.572760	-0.006376	0.072237
O6	O	0.497978	0.068394	0.072203
O7	O	0.638772	0.059649	0.072231
Cu8	Cu	0.567984	0.064411	0.085389
Cu9	Cu	0.573042	0.059375	-0.085215
O10	O	0.563990	0.134420	0.072197
C11	C	0.482109	0.066082	0.000070
C12	C	0.428455	0.065528	0.000060
C13	C	0.089631	0.106234	0.000086
C14	C	-0.112028	0.104183	0.000094
O15	O	-0.143292	0.141406	0.000122
N16	N	-0.131144	0.059847	0.000105
C17	C	-0.099842	0.016021	0.000120
O18	O	-0.120728	-0.021736	0.000138
C19	C	0.101817	0.018072	0.000118
C20	C	0.120930	0.062411	0.000098
C21	C	0.108745	0.150569	0.000067
C22	C	0.159157	0.151081	0.000061
C23	C	0.190455	0.107258	0.000072
C24	C	0.171342	0.062923	0.000091
C25	C	0.133118	-0.025753	0.000138
C26	C	0.183535	-0.025236	0.000140
C27	C	0.202648	0.019102	0.000120
C28	C	0.253052	0.019612	0.000096
N29	N	0.272168	0.063948	0.000085
C30	C	0.240870	0.107771	0.000073
C31	C	-0.205716	0.014947	0.000119
C32	C	-0.256130	0.014434	0.000118
C33	C	-0.268313	0.102596	0.000094
C34	C	-0.217898	0.103109	0.000089
C35	C	-0.186600	0.059283	0.000108
C36	C	0.346739	0.108843	0.000058
C37	C	0.397156	0.109351	0.000048
C38	C	0.409335	0.021189	0.000076
C39	C	0.358922	0.020681	0.000082
C40	C	0.327625	0.064512	0.000076
O41	O	0.284344	-0.017590	0.000079
O42	O	0.261765	0.145524	0.000074
C43	C	0.039219	0.105722	0.000093
C44	C	0.020106	0.061387	0.000112
C45	C	0.051404	0.017564	0.000123
C46	C	-0.030309	0.060874	0.000111
C47	C	-0.061607	0.104697	0.000099
C48	C	-0.042491	0.149033	0.000088
C49	C	0.007921	0.149545	0.000081
C50	C	0.032288	-0.026772	0.000134
C51	C	-0.018124	-0.027281	0.000140
C52	C	-0.049423	0.016542	0.000128
C53	C	0.574718	-0.026513	0.000109
C54	C	0.574175	-0.080169	0.000118
C55	C	0.573093	-0.415207	-0.078561
C56	C	0.571032	-0.616866	-0.078577
O57	O	0.572727	-0.644911	-0.145455
N58	N	0.568445	-0.639762	0.000059
C59	C	0.566370	-0.612240	0.078704
O60	O	0.564117	-0.636340	0.145587
C61	C	0.568427	-0.410581	0.078718
C62	C	0.571019	-0.387689	0.000078
C63	C	0.575684	-0.392314	-0.157195
C64	C	0.576202	-0.341903	-0.157191
C65	C	0.574128	-0.314385	-0.078552
C66	C	0.571537	-0.337277	0.000082
C67	C	0.566348	-0.383059	0.157362
C68	C	0.566862	-0.332642	0.157359
C69	C	0.569454	-0.309749	0.078718
C70	C	0.569981	-0.259348	0.078726
N71	N	0.572568	-0.236452	0.000091
C72	C	0.574642	-0.263970	-0.078548
C73	C	0.565291	-0.718113	0.078690
C74	C	0.564778	-0.768528	0.078687
C75	C	0.569439	-0.773151	-0.078594
C76	C	0.569956	-0.722736	-0.078590
C77	C	0.567878	-0.695217	0.000055
C78	C	0.575729	-0.158103	-0.078532
C79	C	0.576249	-0.107687	-0.078521
C80	C	0.571585	-0.103068	0.078759
C81	C	0.571068	-0.153480	0.078748
C82	C	0.573139	-0.180996	0.000095
O83	O	0.568282	-0.231272	0.145569
O84	O	0.576883	-0.239859	-0.145422
C85	C	0.572575	-0.465619	-0.078566
C86	C	0.569984	-0.488511	0.000068
C87	C	0.567910	-0.460993	0.078707
C88	C	0.569470	-0.538926	0.000065
C89	C	0.571544	-0.566444	-0.078574
C90	C	0.574131	-0.543548	-0.157209
C91	C	0.574648	-0.493137	-0.157205
C92	C	0.565323	-0.483889	0.157343
C93	C	0.564806	-0.534301	0.157331
C94	C	0.566880	-0.561819	0.078693
C95	C	0.658917	0.057704	0.000102
C96	C	0.712572	0.058257	0.000106
C97	C	0.566308	0.150298	0.000062
C98	C	0.566851	0.203954	0.000048
N99	N	0.564431	0.067952	0.205383
N100	N	0.576599	0.055829	-0.205209
C101	C	0.596212	0.036199	0.250791
C102	C	0.593529	0.038882	0.341598
C103	C	0.559067	0.073321	0.386995
C104	C	0.527283	0.105076	0.341580
C105	C	0.529964	0.102390	0.250775
C106	C	0.547495	0.084899	0.658571
C107	C	0.544818	0.087583	0.749382
C108	C	0.611064	0.021388	0.749394
C109	C	0.613744	0.018708	0.658587
C110	C	0.581958	0.050461	0.613181
N111	N	0.556325	0.076065	0.479814
N112	N	0.584698	0.047714	0.520363
H113	H	-0.293805	0.138279	0.000085
Br114	Br	-0.282062	-0.045743	0.000119
H115	H	0.568962	-0.172120	0.142784
Br116	Br	0.033851	0.209722	0.000053
H117	H	0.572066	-0.704100	-0.142626
Br118	Br	0.579769	-0.076622	-0.185254
H119	H	0.576759	-0.474503	-0.221242
Br120	Br	0.480508	0.151812	0.403186
H121	H	0.564239	-0.401690	0.221400
Br122	Br	-0.163246	-0.044537	0.000145
H123	H	0.504084	0.128247	0.213804
H124	H	0.577413	-0.180500	-0.142579
Br125	Br	0.561292	-0.565363	0.264069
Br126	Br	0.642988	-0.010539	0.189191
Br127	Br	0.504359	0.127992	0.596952
H128	H	0.412715	0.145459	0.000032
Br129	Br	0.226008	-0.084718	0.000170
H130	H	0.569899	-0.080654	0.142785
H131	H	0.516753	0.115629	0.786340
H132	H	0.636942	-0.004465	0.786373
H133	H	-0.202340	0.139213	0.000078
Br134	Br	0.304272	0.168329	0.000052
H135	H	0.563635	-0.461488	0.221381
Br136	Br	0.185087	0.211258	0.000038
H137	H	0.117565	-0.061858	0.000155
H138	H	0.619408	0.013025	0.378569
Br139	Br	0.451821	-0.038282	0.000094
Br140	Br	0.332982	-0.039493	0.000111
Br141	Br	-0.084978	0.208506	0.000065
H142	H	-0.033680	-0.063389	0.000149
H143	H	0.083266	0.186257	0.000061
Br144	Br	0.579716	-0.310842	-0.263923
H145	H	0.057767	-0.062459	0.000146
H146	H	0.577371	-0.414715	-0.221236
H147	H	0.571128	-0.795565	-0.142625
Br148	Br	0.561271	-0.799591	0.185418
H149	H	0.563601	-0.695712	0.142736
H150	H	0.565163	-0.310238	0.221402
Br151	Br	0.576949	-0.580905	-0.263933
Br152	Br	0.660516	-0.028029	0.596976
