data_functionalizedCrystal
_audit_creation_method	'MofGen! by Chris Wilmer'
_symmetry_space_group_name_H-M	'P1'
_symmetry_Int_Tables_number	1
_symmetry_cell_setting	triclinic
loop_
_symmetry_equiv_pos_as_xyz
  x,y,z
_cell_length_a	16.625545
_cell_length_b	16.625548
_cell_length_c	16.625539
_cell_angle_alpha	90.017055
_cell_angle_beta	89.973757
_cell_angle_gamma	89.973374
loop_
_atom_site_label
_atom_site_type_symbol
_atom_site_fract_x
_atom_site_fract_y
_atom_site_fract_z
Zn1	Zn	-0.320992	-1.232635	-0.455910
Zn2	Zn	0.012341	-0.899302	-0.122577
Zn3	Zn	0.345675	-0.565969	0.210756
Zn4	Zn	-0.455831	-1.232539	-0.321078
Zn5	Zn	-0.122497	-0.899206	0.012255
Zn6	Zn	0.210836	-0.565873	0.345589
Zn7	Zn	-0.321018	-1.097805	-0.321091
Zn8	Zn	0.012315	-0.764472	0.012242
Zn9	Zn	0.345648	-0.431139	0.345576
Zn10	Zn	-0.455789	-1.097760	-0.455868
Zn11	Zn	-0.122456	-0.764427	-0.122535
Zn12	Zn	0.210878	-0.431093	0.210799
O13	O	-0.388408	-1.165185	-0.388487
O14	O	-0.055074	-0.831852	-0.055154
O15	O	0.278259	-0.498518	0.278180
O16	O	-0.338885	-1.345455	-0.438037
O17	O	-0.005552	-1.012122	-0.104704
O18	O	0.327781	-0.678788	0.228630
O19	O	-0.437976	-1.214645	-0.208247
O20	O	-0.104643	-0.881312	0.125086
O21	O	0.228690	-0.547979	0.458419
O22	O	-0.208182	-1.115750	-0.338998
O23	O	0.125151	-0.782416	-0.005665
O24	O	0.458484	-0.449083	0.327668
O25	O	-0.437951	-1.345384	-0.338976
O26	O	-0.104617	-1.012051	-0.005643
O27	O	0.228716	-0.678718	0.327690
O28	O	-0.208163	-1.214809	-0.438049
O29	O	0.125170	-0.881475	-0.104716
O30	O	0.458504	-0.548142	0.228617
O31	O	-0.338930	-1.115657	-0.208257
O32	O	-0.005597	-0.782324	0.125077
O33	O	0.327737	-0.448990	0.458410
O34	O	-0.338889	-0.984967	-0.338957
O35	O	-0.005556	-0.651634	-0.005624
O36	O	0.327777	-0.318300	0.327710
O37	O	-0.437879	-1.115673	-0.568706
O38	O	-0.104546	-0.782339	-0.235373
O39	O	0.228787	-0.449006	0.097961
O40	O	-0.437905	-0.984934	-0.437977
O41	O	-0.104571	-0.651600	-0.104644
O42	O	0.228762	-0.318267	0.228690
O43	O	-0.338845	-1.214765	-0.568737
O44	O	-0.005511	-0.881432	-0.235404
O45	O	0.327822	-0.548098	0.097929
O46	O	-0.568658	-1.214602	-0.338935
O47	O	-0.235324	-0.881268	-0.005602
O48	O	0.098009	-0.547935	0.327732
O49	O	-0.568627	-1.115580	-0.437965
O50	O	-0.235294	-0.782247	-0.104631
O51	O	0.098040	-0.448913	0.228702
C52	C	-0.388396	-0.955694	-0.388464
C53	C	-0.055063	-0.622361	-0.055131
C54	C	0.278271	-0.289027	0.278202
C55	C	-0.388410	-0.866073	-0.388474
C56	C	-0.055077	-0.532740	-0.055140
C57	C	0.278256	-0.199406	0.278193
C58	C	-0.388354	-1.165225	-0.598796
C59	C	-0.055021	-0.831891	-0.265463
C60	C	0.278312	-0.498558	0.067871
C61	C	-0.388332	-1.165241	-0.688417
C62	C	-0.054998	-0.831908	-0.355084
C63	C	0.278335	-0.498575	-0.021750
C64	C	-0.597898	-1.165097	-0.388461
C65	C	-0.264565	-0.831764	-0.055128
C66	C	0.068768	-0.498431	0.278205
C67	C	-0.687520	-1.165134	-0.388478
C68	C	-0.354186	-0.831800	-0.055144
C69	C	-0.020853	-0.498467	0.278189
C70	C	-0.760302	-1.165165	-0.388494
C71	C	-0.426969	-0.831832	-0.055160
C72	C	-0.093635	-0.498498	0.278173
C73	C	-0.851610	-1.165212	-0.388511
C74	C	-0.518277	-0.831879	-0.055178
C75	C	-0.184944	-0.498545	0.278155
C76	C	-0.924387	-1.165254	-0.388522
C77	C	-0.591053	-0.831920	-0.055188
C78	C	-0.257720	-0.498587	0.278145
C79	C	-1.015701	-1.165300	-0.388538
C80	C	-0.682368	-0.831967	-0.055205
C81	C	-0.349034	-0.498633	0.278128
C82	C	-0.178099	-1.165295	-0.388530
C83	C	0.155235	-0.831962	-0.055197
C84	C	0.488568	-0.498628	0.278137
C85	C	-0.088477	-1.165342	-0.388548
C86	C	0.244856	-0.832008	-0.055215
C87	C	0.578189	-0.498675	0.278118
C88	C	-0.388420	-1.375494	-0.388510
C89	C	-0.055086	-1.042161	-0.055177
C90	C	0.278247	-0.708827	0.278157
C91	C	-0.388425	-1.465115	-0.388520
C92	C	-0.055092	-1.131782	-0.055186
C93	C	0.278242	-0.798448	0.278147
C94	C	-0.388416	-0.537897	-0.388508
C95	C	-0.055082	-0.204564	-0.055175
C96	C	0.278251	0.128769	0.278158
C97	C	-0.388412	-0.629206	-0.388496
C98	C	-0.055079	-0.295873	-0.055163
C99	C	0.278255	0.037461	0.278171
C100	C	-0.388414	-0.701982	-0.388490
C101	C	-0.055080	-0.368649	-0.055157
C102	C	0.278253	-0.035316	0.278176
C103	C	-0.388409	-0.793297	-0.388480
C104	C	-0.055076	-0.459963	-0.055146
C105	C	0.278258	-0.126630	0.278187
C106	C	-0.388314	-1.165255	-0.761200
C107	C	-0.054980	-0.831921	-0.427866
C108	C	0.278353	-0.498588	-0.094533
C109	C	-0.388284	-1.165273	-0.852508
C110	C	-0.054950	-0.831940	-0.519175
C111	C	0.278383	-0.498607	-0.185841
C112	C	-0.388255	-1.165292	-0.925285
C113	C	-0.054922	-0.831959	-0.591951
C114	C	0.278411	-0.498626	-0.258618
C115	C	-0.388226	-1.165312	-1.016599
C116	C	-0.054893	-0.831979	-0.683266
C117	C	0.278440	-0.498646	-0.349932
C118	C	-0.388402	-1.165192	-0.178996
C119	C	-0.055069	-0.831859	0.154337
C120	C	0.278264	-0.498525	0.487671
C121	C	-0.388198	-1.165331	-0.089375
C122	C	-0.054865	-0.831998	0.243958
C123	C	0.278469	-0.498665	0.577291
