data_functionalizedCrystal
_audit_creation_method	'MofGen! by Chris Wilmer'
_symmetry_space_group_name_H-M	'P1'
_symmetry_Int_Tables_number	1
_symmetry_cell_setting	triclinic
loop_
_symmetry_equiv_pos_as_xyz
  x,y,z
_cell_length_a	42.784839
_cell_length_b	42.784841
_cell_length_c	42.784893
_cell_angle_alpha	90.002418
_cell_angle_beta	59.997780
_cell_angle_gamma	119.999863
loop_
_atom_site_label
_atom_site_type_symbol
_atom_site_fract_x
_atom_site_fract_y
_atom_site_fract_z
O1	O	0.275695	-0.214412	-0.009300
O2	O	0.211692	-0.168961	0.009253
O3	O	0.275692	-0.168961	-0.054750
O4	O	0.211694	-0.214412	0.054702
O5	O	0.223708	-0.220945	-0.054749
O6	O	0.159708	-0.220945	0.009253
O7	O	0.223710	-0.266397	-0.009300
Cu8	Cu	0.186962	-0.248417	-0.000023
Cu9	Cu	0.248440	-0.186940	-0.000024
O10	O	0.159710	-0.266396	0.054703
C11	C	0.051021	-0.022778	0.028112
C12	C	0.013142	-0.041761	0.028375
C13	C	0.051018	-0.079378	0.028116
C14	C	0.013139	-0.098275	0.028379
C15	C	-0.005578	-0.079377	0.028112
C16	C	0.069652	-0.041762	0.028379
C17	C	0.152948	0.113708	0.017863
C18	C	0.173786	0.152360	0.014965
C19	C	0.155902	0.171750	0.013509
C20	C	0.178499	0.213661	0.010359
C21	C	0.117177	0.152485	0.014953
C22	C	0.096339	0.113835	0.017857
C23	C	0.114226	0.094447	0.019312
C24	C	-0.131813	-0.113936	0.017859
C25	C	-0.167567	-0.131750	0.014961
C26	C	-0.185502	-0.169024	0.013506
C27	C	-0.224264	-0.188340	0.010358
C28	C	-0.167685	-0.188485	0.014954
C29	C	-0.131938	-0.170675	0.017859
C30	C	-0.114002	-0.133396	0.019309
C31	C	0.152939	-0.113943	0.017877
C32	C	0.173778	-0.131757	0.014977
C33	C	0.155892	-0.169032	0.013523
C34	C	0.178486	-0.188349	0.010377
C35	C	0.117170	-0.188491	0.014967
C36	C	0.096334	-0.170675	0.017865
C37	C	0.114220	-0.133401	0.019323
C38	C	0.091629	0.052537	0.022456
C39	C	0.073617	0.019131	0.024964
C40	C	0.073613	-0.098693	0.024971
C41	C	0.091623	-0.114089	0.022466
C42	C	-0.044339	-0.098690	0.024964
C43	C	-0.075237	-0.114084	0.022456
O44	O	-0.327856	-0.266388	-0.009322
O45	O	-0.236954	-0.220935	0.009228
O46	O	-0.236950	-0.220939	-0.054773
O47	O	-0.327860	-0.266385	0.054680
O48	O	-0.236948	-0.168954	-0.054776
O49	O	-0.236952	-0.168950	0.009225
O50	O	-0.327854	-0.214403	-0.009325
Cu51	Cu	-0.282403	-0.186930	-0.000050
Cu52	Cu	-0.282405	-0.248408	-0.000046
O53	O	-0.327858	-0.214400	0.054676
C54	C	0.384390	-0.079141	-0.361606
C55	C	0.422270	-0.041526	-0.380503
C56	C	0.384390	-0.079141	-0.305008
C57	C	0.422270	-0.041526	-0.323990
C58	C	0.440988	-0.022543	-0.361606
C59	C	0.365758	-0.098038	-0.323991
C60	C	0.282465	-0.170819	-0.396168
C61	C	0.261627	-0.188759	-0.413983
C62	C	0.279513	-0.169420	-0.451257
C63	C	0.256917	-0.188867	-0.470572
C64	C	0.318239	-0.132140	-0.470717
C65	C	0.339076	-0.114205	-0.452905
C66	C	0.321187	-0.133546	-0.415628
C67	C	0.567227	0.113942	-0.453282
C68	C	0.602981	0.152594	-0.471222
C69	C	0.620916	0.171985	-0.451883
C70	C	0.659678	0.213894	-0.471328
C71	C	0.603097	0.152719	-0.414603
C72	C	0.567349	0.114068	-0.396667
C73	C	0.549414	0.094682	-0.416011
C74	C	0.282465	-0.170819	-0.168522
C75	C	0.261624	-0.188757	-0.129868
C76	C	0.279510	-0.169418	-0.110479
C77	C	0.256914	-0.188865	-0.068568
C78	C	0.318233	-0.132140	-0.129742
C79	C	0.339070	-0.114203	-0.168394
C80	C	0.321184	-0.133548	-0.187782
C81	C	0.343783	-0.114094	-0.396315
C82	C	0.361794	-0.098590	-0.380920
C83	C	0.361794	-0.098590	-0.263099
C84	C	0.343783	-0.114094	-0.229693
C85	C	0.479750	0.019366	-0.381054
C86	C	0.510649	0.052771	-0.396557
C87	C	0.440758	-0.356212	-0.028193
C88	C	0.422041	-0.393827	-0.028459
C89	C	0.384158	-0.356213	-0.028190
C90	C	0.365526	-0.393828	-0.028456
C91	C	0.384160	-0.412810	-0.028193
C92	C	0.422038	-0.337315	-0.028456
C93	C	0.567000	-0.264532	-0.017949
C94	C	0.602755	-0.246591	-0.015053
C95	C	0.620692	-0.265931	-0.013601
C96	C	0.659455	-0.246483	-0.010453
C97	C	0.602873	-0.303210	-0.015048
C98	C	0.567125	-0.321146	-0.017949
C99	C	0.549188	-0.301805	-0.019399
C100	C	0.339356	-0.549295	-0.017951
C101	C	0.318645	-0.587947	-0.015055
C102	C	0.279915	-0.607338	-0.013597
C103	C	0.257452	-0.649247	-0.010452
C104	C	0.261899	-0.588073	-0.015042
C105	C	0.282613	-0.549422	-0.017945
C106	C	0.321343	-0.530035	-0.019397
C107	C	0.339344	-0.264537	-0.017936
C108	C	0.318628	-0.246599	-0.015032
C109	C	0.279898	-0.265939	-0.013577
C110	C	0.257433	-0.246493	-0.010426
C111	C	0.261884	-0.303217	-0.015022
C112	C	0.282601	-0.321153	-0.017924
C113	C	0.321334	-0.301808	-0.019385
C114	C	0.510421	-0.321258	-0.022542
C115	C	0.479522	-0.336762	-0.025048
C116	C	0.361696	-0.336765	-0.025041
C117	C	0.343793	-0.321261	-0.022532
C118	C	0.361701	-0.454719	-0.025047
C119	C	0.343799	-0.488125	-0.022541
O120	O	0.223728	0.336934	-0.009323
O121	O	0.159726	0.227482	0.009227
O122	O	0.223729	0.291478	-0.054775
O123	O	0.159725	0.272938	0.054678
O124	O	0.275711	0.291477	-0.054771
O125	O	0.211707	0.227481	0.009230
O126	O	0.275710	0.336932	-0.009320
Cu127	Cu	0.248455	0.282206	-0.000045
Cu128	Cu	0.186981	0.282208	-0.000049
O129	O	0.211707	0.272936	0.054681
O130	O	0.763271	0.337164	-0.496871
O131	O	0.672367	0.227713	-0.451422
O132	O	0.672365	0.291711	-0.451418
O133	O	0.763273	0.273165	-0.496876
O134	O	0.672366	0.291712	-0.503402
O135	O	0.672368	0.227714	-0.503407
O136	O	0.763272	0.337165	-0.548856
Cu137	Cu	0.717820	0.282440	-0.530878
Cu138	Cu	0.717819	0.282438	-0.469400
O139	O	0.763275	0.273167	-0.548860
O140	O	0.211690	-0.214417	-0.548617
O141	O	0.275691	-0.168962	-0.503167
O142	O	0.211689	-0.168964	-0.503163
O143	O	0.275692	-0.214415	-0.548621
O144	O	0.159706	-0.220947	-0.451179
O145	O	0.223708	-0.220945	-0.451183
O146	O	0.159707	-0.266400	-0.496633
Cu147	Cu	0.186961	-0.248419	-0.469161
Cu148	Cu	0.248437	-0.186943	-0.530639
O149	O	0.223709	-0.266398	-0.496637
C150	C	-0.005343	-0.412572	0.361558
C151	C	0.013375	-0.393590	0.380456
C152	C	0.051255	-0.355974	0.304961
C153	C	0.069887	-0.337077	0.323944
C154	C	0.051254	-0.355974	0.361560
C155	C	0.013375	-0.393589	0.323943
C156	C	-0.131582	-0.549057	0.396116
C157	C	-0.167336	-0.587709	0.413930
C158	C	-0.185271	-0.607098	0.451205
C159	C	-0.224034	-0.649009	0.470519
C160	C	-0.167452	-0.587833	0.470666
C161	C	-0.131705	-0.549184	0.452854
C162	C	-0.113770	-0.529796	0.415578
C163	C	0.096061	-0.321414	0.453239
C164	C	0.116773	-0.303600	0.471179
C165	C	0.155502	-0.266327	0.451842
C166	C	0.177965	-0.247011	0.471288
C167	C	0.173517	-0.246866	0.414562
C168	C	0.152802	-0.264677	0.396625
C169	C	0.114073	-0.301955	0.415968
C170	C	0.096064	-0.321412	0.168474
C171	C	0.116779	-0.303599	0.129820
C172	C	0.155508	-0.266324	0.110432
C173	C	0.177972	-0.247009	0.068521
C174	C	0.173522	-0.246865	0.129696
C175	C	0.152807	-0.264680	0.168348
C176	C	0.114075	-0.301953	0.187735
C177	C	-0.075004	-0.487887	0.396265
C178	C	-0.044106	-0.454481	0.380871
C179	C	0.073715	-0.336660	0.263052
C180	C	0.091618	-0.321265	0.229646
C181	C	0.073714	-0.336661	0.381009
C182	C	0.091616	-0.321267	0.396513
C183	C	0.051046	-0.022794	-0.361634
C184	C	0.069679	-0.041778	-0.380530
C185	C	-0.005555	-0.079390	-0.305034
C186	C	0.013163	-0.098288	-0.324016
C187	C	0.051045	-0.079393	-0.361631
C188	C	0.013164	-0.041775	-0.324018
C189	C	0.095858	0.113693	-0.396200
C190	C	0.116571	0.152344	-0.414015
C191	C	0.155302	0.171732	-0.451290
C192	C	0.177767	0.213642	-0.470607
C193	C	0.173317	0.152465	-0.470750
C194	C	0.152600	0.113815	-0.452936
C195	C	0.113869	0.094429	-0.415659
C196	C	0.152973	-0.113959	-0.453306
C197	C	0.173810	-0.131775	-0.471245
C198	C	0.155926	-0.169048	-0.451906
C199	C	0.178519	-0.188366	-0.471350
C200	C	0.117198	-0.188507	-0.414626
C201	C	0.096358	-0.170694	-0.396690
C202	C	0.114251	-0.133416	-0.416035
C203	C	-0.131801	-0.113944	-0.168548
C204	C	-0.167554	-0.131755	-0.129895
C205	C	-0.185491	-0.169029	-0.110504
C206	C	-0.224255	-0.188343	-0.068593
C207	C	-0.167671	-0.188490	-0.129767
C208	C	-0.131918	-0.170677	-0.168418
C209	C	-0.113988	-0.133404	-0.187808
C210	C	0.091411	0.052521	-0.396344
C211	C	0.073508	0.019115	-0.380949
C212	C	-0.044320	-0.098701	-0.263125
C213	C	-0.075220	-0.114094	-0.229719
C214	C	0.073641	-0.098707	-0.381079
C215	C	0.091652	-0.114103	-0.396582
C216	C	-0.615853	-0.356193	0.361535
C217	C	-0.634487	-0.393808	0.380433
C218	C	-0.559253	-0.356195	0.304938
C219	C	-0.577972	-0.393810	0.323921
C220	C	-0.615854	-0.412792	0.361537
C221	C	-0.577972	-0.337297	0.323920
C222	C	-0.660661	-0.264512	0.396093
C223	C	-0.681373	-0.246571	0.413906
C224	C	-0.720104	-0.265909	0.451181
C225	C	-0.742568	-0.246461	0.470495
C226	C	-0.738120	-0.303189	0.470643
C227	C	-0.717405	-0.321125	0.452831
C228	C	-0.678674	-0.301785	0.415554
C229	C	-0.717784	-0.549275	0.453218
C230	C	-0.738622	-0.587926	0.471159
C231	C	-0.720740	-0.607319	0.451822
C232	C	-0.743333	-0.649227	0.471268
C233	C	-0.682012	-0.588055	0.414542
C234	C	-0.661170	-0.549403	0.396604
C235	C	-0.679063	-0.530016	0.415946
C236	C	-0.433006	-0.264522	0.168449
C237	C	-0.397253	-0.246585	0.129796
C238	C	-0.379317	-0.265926	0.110407
C239	C	-0.340553	-0.246480	0.068496
C240	C	-0.397138	-0.303204	0.129672
C241	C	-0.432891	-0.321139	0.168324
C242	C	-0.450820	-0.301793	0.187711
C243	C	-0.656216	-0.321238	0.396242
C244	C	-0.638314	-0.336743	0.380848
C245	C	-0.520488	-0.336748	0.263028
C246	C	-0.489588	-0.321245	0.229622
C247	C	-0.638451	-0.454700	0.380987
C248	C	-0.656463	-0.488106	0.396492
C249	C	0.440756	0.310302	-0.361620
C250	C	0.422038	0.310564	-0.380518
C251	C	0.384160	0.310312	-0.305026
C252	C	0.365528	0.310574	-0.324010
C253	C	0.384159	0.310303	-0.361624
C254	C	0.422038	0.310573	-0.324006
C255	C	0.566989	0.300046	-0.396172
C256	C	0.602741	0.297145	-0.413984
C257	C	0.620675	0.295684	-0.451257
C258	C	0.659436	0.292531	-0.470569
C259	C	0.602857	0.297127	-0.470719
C260	C	0.567111	0.300033	-0.452909
C261	C	0.549177	0.301493	-0.415634
C262	C	0.339351	0.300042	-0.453303
C263	C	0.318640	0.297142	-0.471244
C264	C	0.279912	0.295690	-0.451908
C265	C	0.257449	0.292541	-0.471354
C266	C	0.261899	0.297143	-0.414629
C267	C	0.282613	0.300049	-0.396692
C268	C	0.321341	0.301496	-0.416033
C269	C	0.339354	0.300088	-0.168540
C270	C	0.318640	0.297192	-0.129888
C271	C	0.279912	0.295742	-0.110501
C272	C	0.257450	0.292601	-0.068591
C273	C	0.261898	0.297184	-0.129766
C274	C	0.282612	0.300078	-0.168417
C275	C	0.321344	0.301533	-0.187802
C276	C	0.510413	0.304640	-0.396323
C277	C	0.479516	0.307151	-0.380931
C278	C	0.361701	0.307173	-0.263117
C279	C	0.343799	0.304671	-0.229712
C280	C	0.361700	0.307154	-0.381073
C281	C	0.343798	0.304644	-0.396578
O282	O	0.275503	0.336913	-0.548651
O283	O	0.211494	0.227461	-0.503201
O284	O	0.275490	0.291455	-0.503192
O285	O	0.211507	0.272919	-0.548659
O286	O	0.223502	0.291457	-0.451211
O287	O	0.159506	0.227463	-0.451219
O288	O	0.223515	0.336915	-0.496669
Cu289	Cu	0.186764	0.282189	-0.469197
Cu290	Cu	0.248246	0.282187	-0.530672
O291	O	0.159519	0.272921	-0.496677
C292	C	0.051032	0.254111	0.361530
C293	C	0.013154	0.253851	0.380425
C294	C	0.051031	0.254102	0.304932
C295	C	0.013153	0.253842	0.323913
C296	C	-0.005564	0.254113	0.361527
C297	C	0.069663	0.253840	0.323916
C298	C	0.152954	0.264360	0.396096
C299	C	0.173791	0.267260	0.413911
C300	C	0.155906	0.268721	0.451185
C301	C	0.178502	0.271871	0.470501
C302	C	0.117182	0.267279	0.470643
C303	C	0.096345	0.264374	0.452830
C304	C	0.114233	0.262915	0.415555
C305	C	-0.131796	0.264379	0.453195
C306	C	-0.167548	0.267281	0.471133
C307	C	-0.185483	0.268734	0.451793
C308	C	-0.224243	0.271886	0.471236
C309	C	-0.167664	0.267282	0.414515
C310	C	-0.131919	0.264374	0.396581
C311	C	-0.113984	0.262925	0.415925
C312	C	0.152952	0.264325	0.168451
C313	C	0.173792	0.267221	0.129798
C314	C	0.155907	0.268673	0.110407
C315	C	0.178502	0.271814	0.068498
C316	C	0.117186	0.267232	0.129669
C317	C	0.096350	0.264339	0.168320
C318	C	0.114234	0.262881	0.187709
C319	C	0.091638	0.259769	0.396240
C320	C	0.073627	0.257260	0.380845
C321	C	0.073626	0.257242	0.263024
C322	C	0.091636	0.259743	0.229619
C323	C	-0.044324	0.257264	0.380973
C324	C	-0.075221	0.259775	0.396474
H325	H	-0.117214	-0.083584	0.019042
C326	C	0.442959	-0.414145	-0.029111
C327	C	0.455526	-0.424646	-0.062045
C328	C	0.474800	-0.443361	-0.062662
H329	H	0.422213	-0.436404	-0.007058
H330	H	0.468264	-0.397453	-0.029249
H331	H	0.430225	-0.441338	-0.061904
H332	H	0.476276	-0.402395	-0.084103
H333	H	0.500104	-0.426669	-0.062800
H334	H	0.454051	-0.465619	-0.040608
H335	H	0.483332	-0.450486	-0.085010
H336	H	0.167269	0.098131	-0.468782
C337	C	0.547959	0.093080	-0.356205
C338	C	0.512819	0.055079	-0.344642
C339	C	0.494950	0.035733	-0.307373
H340	H	0.537526	0.105259	-0.339330
H341	H	0.570107	0.093550	-0.355646
H342	H	0.490675	0.054612	-0.345198
H343	H	0.523240	0.042890	-0.361507
H344	H	0.517098	0.036202	-0.306813
H345	H	0.484520	0.047914	-0.290500
H346	H	0.471109	0.009946	-0.299523
H347	H	0.437704	-0.306410	-0.028878
H348	H	-0.002298	-0.408829	0.411365
C349	C	0.324941	-0.414107	-0.029108
C350	C	0.334800	-0.393743	-0.062038
C351	C	0.297429	-0.412415	-0.062657
H352	H	0.301365	-0.415426	-0.007052
H353	H	0.316484	-0.439269	-0.029253
H354	H	0.343251	-0.368588	-0.061889
H355	H	0.358370	-0.392423	-0.084099
H356	H	0.288972	-0.437577	-0.062802
H357	H	0.273856	-0.413734	-0.040599
H358	H	0.304115	-0.398603	-0.085001
C359	C	0.338128	0.295547	-0.108932
C360	C	0.307236	0.261213	-0.078094
C361	C	0.325177	0.259684	-0.058785
H362	H	0.345230	0.316535	-0.099690
H363	H	0.364150	0.296807	-0.125997
H364	H	0.281222	0.259957	-0.061032
H365	H	0.300132	0.240219	-0.087326
H366	H	0.351200	0.260943	-0.075849
H367	H	0.332279	0.280673	-0.049544
H368	H	0.304222	0.236387	-0.037861
C369	C	0.381410	-0.243593	-0.019541
C370	C	0.395704	-0.267274	-0.022405
C371	C	0.434454	-0.247994	-0.023888
H372	H	0.375717	-0.237157	0.003068
H373	H	0.403697	-0.220886	-0.041221
H374	H	0.373422	-0.289974	-0.000727
H375	H	0.401406	-0.273710	-0.045014
H376	H	0.456742	-0.225288	-0.045568
H377	H	0.428758	-0.241560	-0.001278
H378	H	0.444160	-0.264058	-0.025835
C379	C	0.338265	-0.206119	-0.013485
C380	C	0.376624	-0.193015	-0.015394
C381	C	0.394730	-0.155724	-0.013976
H382	H	0.317406	-0.206036	0.009785
H383	H	0.345393	-0.189791	-0.034506
H384	H	0.369494	-0.209339	0.005626
H385	H	0.397492	-0.193088	-0.038663
H386	H	0.401858	-0.139397	-0.034997
H387	H	0.373868	-0.155646	0.009295
H388	H	0.420760	-0.146828	-0.015274
H389	H	0.267931	-0.351506	-0.019101
C390	C	-0.007652	0.253333	0.303527
C391	C	0.023060	0.285907	0.270769
C392	C	0.003912	0.285450	0.251980
H393	H	-0.032931	0.253235	0.320183
H394	H	-0.016188	0.231026	0.296339
H395	H	0.031590	0.308209	0.277958
H396	H	0.048341	0.286013	0.254104
H397	H	-0.004624	0.263142	0.244792
H398	H	-0.021367	0.285350	0.268639
H399	H	0.024748	0.307549	0.229750
C400	C	0.054346	-0.191751	-0.356200
C401	C	0.061383	-0.171169	-0.332241
C402	C	0.022689	-0.190552	-0.294940
H403	H	0.046636	-0.216502	-0.347193
H404	H	0.031034	-0.194104	-0.356155
H405	H	0.084688	-0.168820	-0.332284
H406	H	0.069088	-0.146419	-0.341235
H407	H	-0.000623	-0.192904	-0.294895
H408	H	0.014982	-0.215302	-0.285937
H409	H	0.027458	-0.176588	-0.278680
C410	C	0.219588	-0.229233	-0.392923
C411	C	0.205172	-0.240804	-0.416504
C412	C	0.166449	-0.278086	-0.397116
H413	H	0.197329	-0.229825	-0.370210
H414	H	0.225362	-0.246084	-0.386494
H415	H	0.199396	-0.223957	-0.422927
H416	H	0.227420	-0.240221	-0.439216
H417	H	0.172222	-0.294938	-0.390687
H418	H	0.144193	-0.278675	-0.374405
H419	H	0.156665	-0.285943	-0.413114
C420	C	-0.112329	0.262737	0.474175
C421	C	-0.115808	0.228406	0.477533
C422	C	-0.097873	0.226883	0.496850
H423	H	-0.128035	0.263994	0.498957
H424	H	-0.082090	0.283735	0.460211
H425	H	-0.146042	0.207413	0.491497
H426	H	-0.100101	0.227142	0.452756
H427	H	-0.067634	0.247880	0.482886
H428	H	-0.113581	0.228140	0.521631
H429	H	-0.100227	0.203591	0.499128
C430	C	0.263028	0.301571	-0.189332
C431	C	0.252585	0.270558	-0.202851
C432	C	0.234537	0.271918	-0.222115
H433	H	0.283907	0.324820	-0.210299
H434	H	0.236982	0.300274	-0.172257
H435	H	0.278628	0.271858	-0.219924
H436	H	0.231702	0.247304	-0.181891
H437	H	0.208492	0.270621	-0.205041
H438	H	0.255419	0.295169	-0.243081
H439	H	0.227446	0.250874	-0.231287
H440	H	-0.117435	-0.186523	0.019040
H441	H	0.267943	-0.533739	-0.019121
C442	C	0.215534	-0.206372	0.108712
C443	C	0.206952	-0.181587	0.126740
C444	C	0.245643	-0.144285	0.107425
H445	H	0.225330	-0.198492	0.082933
H446	H	0.237804	-0.205762	0.109167
H447	H	0.184689	-0.182196	0.126281
H448	H	0.197162	-0.189455	0.152517
H449	H	0.267913	-0.143674	0.107879
H450	H	0.255436	-0.136409	0.081646
H451	H	0.239827	-0.127464	0.119656
H452	H	-0.002293	-0.408830	0.308704
H453	H	0.370598	-0.083850	-0.184076
C454	C	0.219861	0.295627	-0.108658
C455	C	0.205582	0.292795	-0.070690
C456	C	0.166864	0.291366	-0.051237
H457	H	0.197548	0.273959	-0.109055
H458	H	0.225602	0.318252	-0.120820
H459	H	0.199839	0.270173	-0.058531
H460	H	0.227884	0.314460	-0.070282
H461	H	0.172605	0.313991	-0.063399
H462	H	0.144554	0.269698	-0.051636
H463	H	0.157173	0.289448	-0.025474
H464	H	-0.562304	-0.409050	0.308680
H465	H	-0.382532	-0.318952	0.113884
C466	C	0.215808	-0.110695	-0.511743
C467	C	0.208767	-0.131264	-0.535709
C468	C	0.247445	-0.111853	-0.573019
H469	H	0.239145	-0.108321	-0.511827
H470	H	0.223480	-0.085948	-0.520715
H471	H	0.201101	-0.156004	-0.526740
H472	H	0.185437	-0.133638	-0.535637
H473	H	0.255117	-0.087106	-0.581991
H474	H	0.270779	-0.109480	-0.573099
H475	H	0.242672	-0.125804	-0.589285
C476	C	0.215598	-0.206418	0.393499
C477	C	0.248336	-0.205640	0.360042
C478	C	0.287107	-0.168385	0.340626
H479	H	0.225415	-0.198556	0.409471
H480	H	0.209873	-0.189534	0.387044
H481	H	0.254061	-0.222518	0.366498
H482	H	0.238534	-0.213495	0.344061
H483	H	0.281382	-0.151502	0.334172
H484	H	0.296919	-0.160527	0.356602
H485	H	0.309323	-0.167852	0.317922
H486	H	-0.182293	-0.218837	0.013775
C487	C	-0.112241	-0.073454	-0.189631
C488	C	-0.067695	-0.049569	-0.203179
C489	C	-0.049658	-0.012268	-0.222608
H490	H	-0.127917	-0.064360	-0.172662
H491	H	-0.114541	-0.073449	-0.210597
H492	H	-0.065398	-0.049573	-0.182216
H493	H	-0.052009	-0.058651	-0.220153
H494	H	-0.051958	-0.012263	-0.243573
H495	H	-0.065336	-0.003178	-0.205636
H496	H	-0.019430	0.003942	-0.231805
H497	H	-0.002500	-0.026531	-0.308780
C498	C	-0.452241	-0.361634	0.189178
C499	C	-0.467513	-0.386355	0.171078
C500	C	-0.485338	-0.423662	0.190275
H501	H	-0.476122	-0.369598	0.214974
H502	H	-0.430085	-0.362208	0.188678
H503	H	-0.489667	-0.385783	0.171582
H504	H	-0.443640	-0.378404	0.145284
H505	H	-0.463183	-0.424237	0.189774
H506	H	-0.509218	-0.431622	0.216070
H507	H	-0.495699	-0.440440	0.177995
C508	C	-0.187066	-0.228954	-0.108777
C509	C	-0.163799	-0.242178	-0.133917
C510	C	-0.181647	-0.279448	-0.114595
H511	H	-0.217289	-0.245266	-0.099560
H512	H	-0.184723	-0.228952	-0.087836
H513	H	-0.166146	-0.242183	-0.154852
H514	H	-0.133576	-0.225877	-0.143136
H515	H	-0.179304	-0.279445	-0.093654
H516	H	-0.211870	-0.295756	-0.105378
H517	H	-0.165861	-0.288424	-0.131648
C518	C	-0.186964	0.268848	0.511607
C519	C	-0.222115	0.271694	0.523176
C520	C	-0.240014	0.273135	0.560460
H521	H	-0.164845	0.290515	0.512200
H522	H	-0.197387	0.246223	0.528459
H523	H	-0.211691	0.294317	0.506328
H524	H	-0.244243	0.250031	0.522591
H525	H	-0.250438	0.250510	0.577312
H526	H	-0.217893	0.294802	0.561049
H527	H	-0.263869	0.275063	0.568315
C528	C	0.381166	-0.073761	-0.474038
C529	C	0.415450	-0.073814	-0.477485
C530	C	0.454229	-0.036564	-0.496954
H531	H	0.376522	-0.057418	-0.460151
H532	H	0.388864	-0.064802	-0.498800
H533	H	0.407753	-0.082768	-0.452728
H534	H	0.420107	-0.090150	-0.491375
H535	H	0.461926	-0.027605	-0.521715
H536	H	0.449581	-0.020224	-0.483064
H537	H	0.477496	-0.036596	-0.499298
C538	C	-0.007804	-0.139504	-0.303637
C539	C	-0.045056	-0.152064	-0.266564
C540	C	-0.064384	-0.190030	-0.247783
H541	H	0.012927	-0.141010	-0.302293
H542	H	-0.016382	-0.155232	-0.317387
H543	H	-0.036477	-0.136340	-0.252817
H544	H	-0.065796	-0.150567	-0.267896
H545	H	-0.072963	-0.205759	-0.261534
H546	H	-0.043651	-0.191533	-0.246442
H547	H	-0.089664	-0.198558	-0.222629
C548	C	0.338249	0.295547	-0.511707
C549	C	0.376590	0.297427	-0.524799
C550	C	0.394664	0.295953	-0.562070
H551	H	0.345396	0.316551	-0.528068
H552	H	0.317354	0.272262	-0.511746
H553	H	0.397481	0.320709	-0.524762
H554	H	0.369456	0.276424	-0.508449
H555	H	0.373768	0.272668	-0.562109
H556	H	0.401807	0.316957	-0.578427
H557	H	0.420677	0.297224	-0.570956
H558	H	0.617463	0.295940	-0.501068
H559	H	0.332799	-0.116397	-0.501067
H560	H	0.332793	-0.116391	-0.113952
H561	H	0.617258	-0.216240	-0.013873
H562	H	-0.770155	-0.603608	0.501511
H563	H	0.552629	0.098160	-0.469035
H564	H	0.617482	-0.318952	-0.013867
H565	H	-0.732353	-0.533492	0.468971
C566	C	-0.186853	-0.110561	0.013400
C567	C	-0.163496	-0.074106	0.015295
C568	C	-0.181255	-0.054578	0.013866
H569	H	-0.217069	-0.124435	0.034415
H570	H	-0.184519	-0.108164	-0.009877
H571	H	-0.165834	-0.076505	0.038569
H572	H	-0.133281	-0.060222	-0.005718
H573	H	-0.178921	-0.052181	-0.009411
H574	H	-0.211471	-0.068455	0.034882
H575	H	-0.165408	-0.029840	0.015148
C576	C	-0.736894	-0.361568	0.473966
C577	C	-0.706003	-0.361514	0.477413
C578	C	-0.723945	-0.398763	0.496884
H579	H	-0.743993	-0.377913	0.460080
H580	H	-0.762918	-0.370525	0.498728
H581	H	-0.679988	-0.352561	0.452656
H582	H	-0.698901	-0.345177	0.491302
H583	H	-0.749968	-0.407721	0.521645
H584	H	-0.731044	-0.415105	0.482996
H585	H	-0.702990	-0.398731	0.499228
C586	C	0.097699	0.268786	0.511138
C587	C	0.054895	0.235413	0.535933
C588	C	0.036936	0.236787	0.573242
H589	H	0.096617	0.290433	0.511786
H590	H	0.115632	0.270702	0.518982
H591	H	0.036967	0.233501	0.528092
H592	H	0.055965	0.213760	0.535297
H593	H	0.054869	0.238703	0.581085
H594	H	0.035857	0.258435	0.573885
H595	H	0.007893	0.214142	0.590070
H596	H	0.230365	-0.603862	-0.013858
H597	H	0.370892	0.301275	-0.184323
C598	C	0.547618	-0.243455	-0.019557
C599	C	0.570887	-0.206964	-0.017689
C600	C	0.553051	-0.187535	-0.019181
H601	H	0.517392	-0.257360	0.001445
H602	H	0.549968	-0.241118	-0.042845
H603	H	0.568532	-0.209302	0.005596
H604	H	0.601111	-0.193049	-0.038689
H605	H	0.555402	-0.185198	-0.042469
H606	H	0.522826	-0.201443	0.001822
H607	H	0.568839	-0.162773	-0.017917
H608	H	-0.117412	-0.186525	-0.184100
C609	C	0.324928	0.311206	-0.303761
C610	C	0.334785	0.344127	-0.324139
C611	C	0.297396	0.344719	-0.305504
H612	H	0.316423	0.311345	-0.278593
H613	H	0.301383	0.289136	-0.302471
H614	H	0.358323	0.366191	-0.325425
H615	H	0.343285	0.343994	-0.349307
H616	H	0.273851	0.322650	-0.304213
H617	H	0.288894	0.344858	-0.280336
H618	H	0.304078	0.367054	-0.319329
H619	H	0.617485	0.168277	-0.501573
H620	H	0.102624	0.268416	0.113879
C621	C	0.547596	0.301645	-0.355709
C622	C	0.570859	0.299771	-0.342482
C623	C	0.553008	0.301246	-0.305211
H624	H	0.517372	0.280640	-0.339398
H625	H	0.549939	0.324930	-0.355711
H626	H	0.568511	0.276489	-0.342477
H627	H	0.601082	0.320774	-0.358782
H628	H	0.555351	0.324531	-0.305214
H629	H	0.522784	0.280241	-0.288904
H630	H	0.568791	0.299978	-0.296234
C631	C	0.172441	0.262828	0.189462
C632	C	0.215244	0.296204	0.171448
C633	C	0.233206	0.294843	0.190797
H634	H	0.173525	0.241182	0.189032
H635	H	0.154508	0.260917	0.215237
H636	H	0.233172	0.298112	0.145679
H637	H	0.214172	0.317855	0.171877
H638	H	0.215274	0.292931	0.216572
H639	H	0.234287	0.273195	0.190366
H640	H	0.262248	0.317489	0.178579
H641	H	-0.002525	-0.129181	0.028805
H642	H	-0.664969	-0.409045	0.411340
H643	H	-0.002524	-0.026519	0.028802
H644	H	0.617704	0.168507	-0.398859
C645	C	0.110293	0.253253	0.303666
C646	C	0.122679	0.253081	0.328355
C647	C	0.160101	0.252537	0.309715
H648	H	0.133872	0.275325	0.281428
H649	H	0.103694	0.230923	0.296519
H650	H	0.129280	0.275409	0.335497
H651	H	0.099111	0.231010	0.350594
H652	H	0.153502	0.230207	0.302567
H653	H	0.183677	0.274610	0.287477
H654	H	0.168507	0.252417	0.326465
C655	C	-0.007645	0.253329	0.421621
C656	C	0.016883	0.253179	0.434176
C657	C	-0.002255	0.252712	0.472118
H658	H	-0.037128	0.231023	0.437391
H659	H	-0.007774	0.275426	0.423070
H660	H	0.017007	0.231084	0.432730
H661	H	0.046365	0.275484	0.418417
H662	H	-0.002384	0.274810	0.473567
H663	H	-0.031737	0.230406	0.487884
H664	H	0.014387	0.252614	0.480640
H665	H	0.102633	-0.218858	-0.398880
H666	H	0.101900	0.168027	-0.398169
C667	C	0.219846	-0.324146	-0.013462
C668	C	0.205565	-0.300457	-0.010624
C669	C	0.166848	-0.319720	-0.009193
H670	H	0.197533	-0.346857	0.008204
H671	H	0.225587	-0.330565	-0.036089
H672	H	0.199822	-0.294044	0.012001
H673	H	0.227867	-0.277746	-0.032287
H674	H	0.172589	-0.326139	-0.031820
H675	H	0.144538	-0.342431	0.012473
H676	H	0.157156	-0.303649	-0.007271
C677	C	0.547828	-0.361626	-0.019495
C678	C	0.571178	-0.374728	-0.017593
C679	C	0.553410	-0.412019	-0.019010
H680	H	0.550154	-0.361709	-0.042764
H681	H	0.517607	-0.377954	0.001529
H682	H	0.601391	-0.358404	-0.038615
H683	H	0.568854	-0.374654	0.005674
H684	H	0.523189	-0.428348	0.002013
H685	H	0.555737	-0.412099	-0.042279
H686	H	0.569248	-0.420915	-0.017716
H687	H	0.370892	-0.533512	-0.019136
C688	C	-0.186964	-0.608844	0.511162
C689	C	-0.202330	-0.590833	0.535955
C690	C	-0.220311	-0.610180	0.573265
H691	H	-0.164884	-0.608410	0.511813
H692	H	-0.210825	-0.634620	0.519006
H693	H	-0.178472	-0.565064	0.528113
H694	H	-0.224415	-0.591266	0.535316
H695	H	-0.244172	-0.635956	0.581108
H696	H	-0.198229	-0.609745	0.573911
H697	H	-0.230743	-0.597965	0.590091
C698	C	0.053855	0.092646	-0.355702
C699	C	0.060969	0.079118	-0.331807
C700	C	0.022289	0.059731	-0.294498
H701	H	0.030560	0.071675	-0.355660
H702	H	0.046089	0.109648	-0.346643
H703	H	0.068729	0.062118	-0.340864
H704	H	0.084256	0.100081	-0.331838
H705	H	0.014523	0.076732	-0.285438
H706	H	-0.001003	0.038762	-0.294459
H707	H	0.027112	0.050553	-0.278279
C708	C	0.338259	-0.608799	-0.013472
C709	C	0.376603	-0.583550	-0.015357
C710	C	0.394682	-0.602746	-0.013895
H711	H	0.345404	-0.618011	-0.034479
H712	H	0.317368	-0.629735	0.009811
H713	H	0.397490	-0.562621	-0.038637
H714	H	0.369471	-0.574337	0.005649
H715	H	0.373791	-0.623682	0.009388
H716	H	0.401824	-0.611957	-0.034903
H717	H	0.420698	-0.585619	-0.015170
C718	C	0.110516	-0.295861	0.303567
C719	C	0.122900	-0.283299	0.266494
C720	C	0.160320	-0.245333	0.247715
H721	H	0.134096	-0.294355	0.302224
H722	H	0.103914	-0.280133	0.317319
H723	H	0.129504	-0.299022	0.252746
H724	H	0.099331	-0.284796	0.267826
H725	H	0.153718	-0.229605	0.261467
H726	H	0.183897	-0.243830	0.246375
H727	H	0.168725	-0.236803	0.222560
H728	H	-0.182272	0.268459	0.398770
H729	H	0.167522	0.263171	0.365746
C730	C	0.215380	0.173585	-0.511208
C731	C	0.229675	0.211560	-0.522642
C732	C	0.268427	0.231028	-0.559909
H733	H	0.209690	0.161456	-0.528125
H734	H	0.237666	0.173166	-0.511813
H735	H	0.207394	0.211977	-0.522040
H736	H	0.235374	0.223699	-0.505735
H737	H	0.290713	0.230608	-0.560513
H738	H	0.262733	0.218896	-0.576823
H739	H	0.278133	0.256797	-0.567670
H740	H	0.167543	-0.083608	-0.469060
H741	H	0.102110	-0.319446	0.114137
H742	H	0.205320	0.268435	0.398066
H743	H	-0.667447	-0.603843	0.398798
H744	H	0.064523	-0.351759	0.184259
H745	H	-0.116983	-0.533275	0.365765
C746	C	0.263044	0.301684	-0.356243
C747	C	0.261546	0.333643	-0.355543
C748	C	0.243514	0.335158	-0.318287
H749	H	0.280895	0.303641	-0.348286
H750	H	0.233971	0.279076	-0.339402
H751	H	0.290615	0.356245	-0.372378
H752	H	0.243693	0.331693	-0.363492
H753	H	0.214441	0.312551	-0.301446
H754	H	0.261367	0.337114	-0.310333
H755	H	0.242492	0.356840	-0.317806
H756	H	-0.181841	-0.603391	0.398082
H757	H	0.064802	-0.186523	0.019045
H758	H	0.267896	-0.186572	-0.365817
C759	C	-0.112534	0.262878	0.356081
C760	C	-0.097238	0.296258	0.331352
C761	C	-0.079372	0.294898	0.294039
H762	H	-0.134661	0.241235	0.355474
H763	H	-0.088656	0.260961	0.348148
H764	H	-0.121113	0.298171	0.339283
H765	H	-0.075106	0.317906	0.331947
H766	H	-0.055494	0.292981	0.286106
H767	H	-0.101501	0.273254	0.293436
H768	H	-0.068987	0.317547	0.277256
C769	C	0.215882	0.268865	0.108846
C770	C	0.250167	0.303200	0.078007
C771	C	0.288946	0.304728	0.058701
H772	H	0.211240	0.247878	0.099603
H773	H	0.223576	0.267604	0.125912
H774	H	0.242473	0.304456	0.060944
H775	H	0.254821	0.324193	0.087240
H776	H	0.296641	0.303468	0.075767
H777	H	0.284301	0.283739	0.049460
H778	H	0.312214	0.328025	0.037777
C779	C	0.172287	-0.243541	0.356183
C780	C	0.141392	-0.240098	0.356243
C781	C	0.159329	-0.220626	0.318995
H782	H	0.179389	-0.257425	0.339835
H783	H	0.198309	-0.218779	0.347225
H784	H	0.115378	-0.264855	0.365196
H785	H	0.134287	-0.226211	0.372583
H786	H	0.185351	-0.195864	0.310037
H787	H	0.166430	-0.234512	0.302651
H788	H	0.138371	-0.218284	0.319032
H789	H	-0.117201	-0.533500	0.468702
C790	C	-0.619142	-0.528562	0.356123
C791	C	-0.607943	-0.553816	0.343021
C792	C	-0.569234	-0.534632	0.305730
H793	H	-0.595791	-0.507620	0.356041
H794	H	-0.623836	-0.519365	0.339794
H795	H	-0.603247	-0.563007	0.359346
H796	H	-0.631284	-0.574759	0.343095
H797	H	-0.573928	-0.525435	0.289401
H798	H	-0.545886	-0.513690	0.305651
H799	H	-0.561633	-0.551765	0.296834
H800	H	0.064526	-0.351765	0.468991
H801	H	0.102103	-0.319447	0.501532
C802	C	0.110341	-0.021386	-0.421731
C803	C	0.122741	0.015694	-0.434288
C804	C	0.160200	0.034490	-0.472237
H805	H	0.103790	-0.035107	-0.437492
H806	H	0.133895	-0.020063	-0.423194
H807	H	0.099192	0.014369	-0.432829
H808	H	0.129301	0.029424	-0.418538
H809	H	0.183754	0.035814	-0.473699
H810	H	0.153645	0.020767	-0.487994
H811	H	0.168621	0.059652	-0.480760
H812	H	0.167477	-0.248833	0.184031
C813	C	-0.557129	-0.296080	0.303669
C814	C	-0.581640	-0.283516	0.328358
C815	C	-0.562448	-0.245549	0.309718
H816	H	-0.556961	-0.294571	0.281430
H817	H	-0.527652	-0.280355	0.296523
H818	H	-0.611110	-0.299237	0.335498
H819	H	-0.581810	-0.285016	0.350597
H820	H	-0.532971	-0.229823	0.302572
H821	H	-0.562281	-0.244044	0.287480
H822	H	-0.579073	-0.237018	0.326468
H823	H	-0.182059	-0.115906	-0.114213
C824	C	-0.377952	-0.206104	0.108953
C825	C	-0.401300	-0.192999	0.134208
C826	C	-0.383527	-0.155707	0.115024
H827	H	-0.380277	-0.206019	0.088011
H828	H	-0.347731	-0.189778	0.099756
H829	H	-0.431513	-0.209321	0.143399
H830	H	-0.398976	-0.193075	0.155151
H831	H	-0.353306	-0.139381	0.105827
H832	H	-0.385853	-0.155626	0.094082
H833	H	-0.399363	-0.146809	0.132157
C834	C	-0.452437	-0.243511	0.189539
C835	C	-0.448941	-0.240136	0.220381
C836	C	-0.466833	-0.220782	0.239815
H837	H	-0.482673	-0.257446	0.198790
H838	H	-0.436703	-0.218732	0.172548
H839	H	-0.464675	-0.264911	0.237369
H840	H	-0.418709	-0.226198	0.211140
H841	H	-0.451099	-0.196002	0.222824
H842	H	-0.497068	-0.234719	0.249065
H843	H	-0.464460	-0.218486	0.260742
H844	H	0.064816	0.263199	0.468675
H845	H	-0.629125	-0.248761	0.365741
H846	H	-0.666703	-0.216219	0.398058
H847	H	0.230091	-0.219108	-0.114185
H848	H	-0.769653	-0.318930	0.500992
H849	H	0.437707	0.310988	-0.411425
C850	C	0.443003	0.311163	-0.303754
C851	C	0.480253	0.311336	-0.328441
C852	C	0.499578	0.311886	-0.309800
H853	H	0.422271	0.289093	-0.281514
H854	H	0.451585	0.333495	-0.296609
H855	H	0.471670	0.289007	-0.335581
H856	H	0.500995	0.333405	-0.350681
H857	H	0.508160	0.334218	-0.302654
H858	H	0.478843	0.289815	-0.287560
H859	H	0.524856	0.312007	-0.326548
C860	C	0.622159	0.295651	-0.392902
C861	C	0.666694	0.326657	-0.413475
C862	C	0.684594	0.325295	-0.394063
H863	H	0.619869	0.272397	-0.390525
H864	H	0.606385	0.296955	-0.368156
H865	H	0.682464	0.325349	-0.438214
H866	H	0.668997	0.349915	-0.415853
H867	H	0.668820	0.326599	-0.369317
H868	H	0.682300	0.302041	-0.391687
H869	H	0.714811	0.346334	-0.408017
H870	H	0.552607	0.301210	-0.468757
C871	C	0.054300	0.262757	0.189171
C872	C	0.043090	0.264637	0.163921
C873	C	0.004353	0.263177	0.183116
H874	H	0.058953	0.283766	0.198379
H875	H	0.030971	0.239476	0.210109
H876	H	0.066413	0.287916	0.142990
H877	H	0.038428	0.243630	0.154711
H878	H	-0.018976	0.239896	0.204055
H879	H	0.009010	0.284186	0.192324
H880	H	-0.003260	0.264449	0.165988
H881	H	0.437935	-0.026287	-0.411409
H882	H	0.370885	0.301223	-0.469054
C883	C	0.219890	0.295626	-0.393701
C884	C	0.227002	0.326623	-0.414363
C885	C	0.188310	0.325234	-0.395098
H886	H	0.212093	0.296924	-0.368933
H887	H	0.196616	0.272360	-0.391391
H888	H	0.250269	0.349883	-0.416668
H889	H	0.234793	0.325331	-0.439130
H890	H	0.165036	0.301967	-0.392788
H891	H	0.180516	0.326531	-0.370331
H892	H	0.193130	0.346262	-0.409116
C893	C	0.110276	-0.021387	0.028972
C894	C	0.122660	0.015686	0.029151
C895	C	0.160075	0.034463	0.029705
H896	H	0.133859	-0.020045	0.006901
H897	H	0.103669	-0.035138	0.051305
H898	H	0.129270	0.029434	0.006821
H899	H	0.099088	0.014356	0.051221
H900	H	0.153467	0.020712	0.052038
H901	H	0.183654	0.035802	0.007634
H902	H	0.168480	0.059618	0.029830
H903	H	0.205307	-0.115910	0.013801
H904	H	0.167506	-0.083593	0.019063
C905	C	0.325106	-0.139243	-0.303729
C906	C	0.312711	-0.151800	-0.328412
C907	C	0.275259	-0.189751	-0.309757
H908	H	0.301542	-0.140722	-0.281499
H909	H	0.331676	-0.154992	-0.296565
H910	H	0.306138	-0.136055	-0.335570
H911	H	0.336263	-0.150331	-0.350643
H912	H	0.281830	-0.205500	-0.302593
H913	H	0.251699	-0.191226	-0.287527
H914	H	0.266847	-0.198277	-0.326503
H915	H	0.167516	0.097925	0.019049
H916	H	0.102618	0.168275	0.013770
C917	C	0.215839	0.173214	0.013378
C918	C	0.227049	0.147964	0.015263
C919	C	0.265789	0.167162	0.013795
H920	H	0.211190	0.182428	0.034383
H921	H	0.239166	0.194147	-0.009907
H922	H	0.203727	0.127037	0.038545
H923	H	0.231706	0.138749	-0.005741
H924	H	0.289116	0.188096	-0.009490
H925	H	0.261136	0.176376	0.034801
H926	H	0.273402	0.150035	0.015070
C927	C	0.054350	0.092961	0.019343
C928	C	0.063012	0.111049	-0.014041
C929	C	0.024345	0.091827	-0.012690
H930	H	0.032097	0.093445	0.040984
H931	H	0.044501	0.067167	0.021258
H932	H	0.072855	0.136836	-0.015953
H933	H	0.085258	0.110565	-0.035687
H934	H	0.014496	0.066034	-0.010775
H935	H	0.002095	0.092313	0.008952
H936	H	0.030218	0.104095	-0.035342
C937	C	0.097832	-0.228939	0.013326
C938	C	0.128807	-0.228822	-0.021003
C939	C	0.111012	-0.266075	-0.022526
H940	H	0.071797	-0.238013	0.014578
H941	H	0.090792	-0.245215	0.034327
H942	H	0.135841	-0.212552	-0.041998
H943	H	0.154844	-0.219755	-0.022263
H944	H	0.103972	-0.282350	-0.001525
H945	H	0.084976	-0.275146	-0.021273
H946	H	0.132026	-0.266001	-0.045816
C947	C	0.262964	-0.191875	-0.189499
C948	C	0.224584	-0.228355	-0.164354
C949	C	0.206606	-0.247758	-0.183665
H950	H	0.283873	-0.194237	-0.210446
H951	H	0.255885	-0.177932	-0.198702
H952	H	0.231664	-0.242295	-0.155157
H953	H	0.203665	-0.226005	-0.143406
H954	H	0.199527	-0.233815	-0.192868
H955	H	0.227518	-0.250117	-0.204611
H956	H	0.180561	-0.272510	-0.166606
C957	C	0.443094	-0.021268	-0.303605
C958	C	0.418577	-0.045953	-0.266529
C959	C	0.437744	-0.027303	-0.247739
H960	H	0.443246	0.000964	-0.302267
H961	H	0.472577	-0.014109	-0.317346
H962	H	0.389102	-0.053106	-0.252791
H963	H	0.418424	-0.068185	-0.267856
H964	H	0.467227	-0.020144	-0.261480
H965	H	0.437895	-0.005072	-0.246404
H966	H	0.421115	-0.044050	-0.222582
