data_functionalizedCrystal
_audit_creation_method	'MofGen! by Chris Wilmer'
_symmetry_space_group_name_H-M	'P1'
_symmetry_Int_Tables_number	1
_symmetry_cell_setting	triclinic
loop_
_symmetry_equiv_pos_as_xyz
  x,y,z
_cell_length_a	17.699077
_cell_length_b	15.995362
_cell_length_c	16.776229
_cell_angle_alpha	90.001972
_cell_angle_beta	90.005198
_cell_angle_gamma	96.611022
loop_
_atom_site_label
_atom_site_type_symbol
_atom_site_fract_x
_atom_site_fract_y
_atom_site_fract_z
O1	O	1.004260	-0.105857	0.066268
O2	O	0.783905	-0.119638	0.066271
O3	O	0.900101	0.009152	0.066275
O4	O	0.888064	-0.234647	0.066264
O5	O	0.900088	0.009152	-0.066301
O6	O	0.783892	-0.119638	-0.066306
O7	O	1.004247	-0.105857	-0.066308
Zn8	Zn	0.894067	-0.112747	-0.087356
Zn9	Zn	0.894085	-0.112748	0.087319
O10	O	0.888051	-0.234646	-0.066313
C11	C	0.755700	-0.119145	-0.000017
C12	C	0.671680	-0.117666	-0.000015
C13	C	0.632204	-0.116969	-0.072284
C14	C	0.553259	-0.115566	-0.072284
C15	C	0.513790	-0.114866	-0.000016
C16	C	0.553272	-0.115561	0.072258
C17	C	0.632216	-0.116958	0.072258
C18	C	0.234899	-0.109926	0.072259
C19	C	0.155949	-0.108532	0.072254
C20	C	0.155942	-0.108535	-0.072283
C21	C	0.234886	-0.109931	-0.072283
C22	C	0.274361	-0.110621	-0.000009
C23	C	0.359962	-0.112141	-0.000009
C24	C	0.428190	-0.113353	-0.000015
C25	C	0.899596	0.040346	-0.000010
C26	C	0.898099	0.133292	-0.000001
C27	C	0.892723	0.471027	0.000015
C28	C	0.809968	0.423423	0.000311
C29	C	0.811465	0.326736	0.000007
C30	C	0.895389	0.303473	0.000007
C31	C	0.936199	0.344634	-0.075697
C32	C	0.934116	0.441265	-0.075756
C33	C	0.935841	0.441626	0.075009
C34	C	0.935825	0.344682	0.076004
C35	C	0.896901	0.208779	0.000001
C36	C	0.891214	0.565721	0.000016
C37	C	1.032452	-0.106350	-0.000019
C38	C	1.116473	-0.107829	-0.000015
N39	N	0.894061	-0.112746	-0.206568
C40	C	0.888547	0.734158	-0.000013
C41	C	0.890014	0.641207	0.000023
C42	C	0.939963	-0.163466	-0.248284
C43	C	0.939971	-0.163463	-0.331736
C44	C	0.894073	-0.112744	-0.373471
C45	C	0.848170	-0.062018	-0.331748
C46	C	0.848166	-0.062017	-0.248297
C47	C	0.848185	-0.062019	-0.668295
C48	C	0.848191	-0.062026	-0.751752
C49	C	0.939990	-0.163465	-0.751734
C50	C	0.939986	-0.163464	-0.668284
C51	C	0.894086	-0.112735	-0.626568
C52	C	0.894079	-0.112738	-0.536080
C53	C	0.894076	-0.112745	-0.463957
N54	N	0.894097	-0.112742	0.206530
H55	H	0.267031	-0.110485	0.131109
H56	H	0.521123	-0.114985	-0.131133
H57	H	0.994873	0.473638	-0.079187
O58	O	0.277456	-0.110705	-0.150228
H59	H	0.236742	-0.109984	-0.200483
O60	O	0.798672	-0.007311	-0.376766
H61	H	0.815150	0.059636	-0.360753
O62	O	1.016896	0.324506	0.082060
H63	H	1.043739	0.354528	0.136310
O64	O	0.768677	0.289734	-0.072005
H65	H	0.769591	0.220468	-0.072470
O66	O	0.674766	-0.117729	-0.150235
H67	H	0.736292	-0.118827	-0.138097
O68	O	0.989479	-0.218172	-0.376727
H69	H	0.981781	-0.209646	-0.441767
O70	O	0.989488	-0.218169	-0.623268
H71	H	1.021413	-0.253434	-0.666297
O72	O	0.113322	-0.108176	-0.150239
H73	H	0.051780	-0.107222	-0.138102
H74	H	0.777032	0.442949	-0.053676
H75	H	0.664356	-0.117527	0.131106
H76	H	0.779386	0.298248	0.054275
H77	H	0.521131	-0.114985	0.131100
O78	O	0.113378	-0.107748	0.150203
H79	H	0.154091	-0.108446	0.200460
H80	H	0.977333	-0.204773	-0.214310
O81	O	0.896359	0.308437	0.150193
H82	H	0.925271	0.337883	0.203637
H83	H	0.997855	0.330635	-0.078512
H84	H	0.776896	0.441886	0.054602
H85	H	0.977366	-0.204769	-0.785709
H86	H	0.810814	-0.020721	-0.785729
O87	O	0.894674	0.465436	-0.150711
H88	H	0.877261	0.408133	-0.186574
H89	H	0.907844	0.316195	-0.132039
H90	H	0.908788	0.462110	0.132391
O91	O	1.016663	0.483857	0.075700
H92	H	1.016273	0.553156	0.077984
O93	O	0.798673	-0.007317	-0.623306
H94	H	0.766752	0.027940	-0.666349
H95	H	0.810788	-0.020716	-0.214333
