data_functionalizedCrystal
_audit_creation_method	'MofGen! by Chris Wilmer'
_symmetry_space_group_name_H-M	'P1'
_symmetry_Int_Tables_number	1
_symmetry_cell_setting	triclinic
loop_
_symmetry_equiv_pos_as_xyz
  x,y,z
_cell_length_a	17.640112
_cell_length_b	25.639240
_cell_length_c	25.639243
_cell_angle_alpha	90.016535
_cell_angle_beta	78.812563
_cell_angle_gamma	101.259448
loop_
_atom_site_label
_atom_site_type_symbol
_atom_site_fract_x
_atom_site_fract_y
_atom_site_fract_z
Zn1	Zn	1.208263	-0.046453	0.134300
Zn2	Zn	1.708263	0.453547	0.634300
Zn3	Zn	1.208183	-0.133868	0.046864
Zn4	Zn	1.708183	0.366132	0.546864
Zn5	Zn	1.076114	-0.064135	0.064519
Zn6	Zn	1.576114	0.435865	0.564519
Zn7	Zn	1.076023	-0.151569	0.151910
Zn8	Zn	1.576023	0.348431	0.651910
O9	O	1.142146	-0.099007	0.099398
O10	O	1.642146	0.400993	0.599398
O11	O	1.318867	-0.043241	0.107944
O12	O	1.818867	0.456759	0.607944
O13	O	1.190669	-0.124610	-0.023960
O14	O	1.690669	0.375390	0.476040
O15	O	1.093716	0.011385	0.073794
O16	O	1.593716	0.511385	0.573794
O17	O	1.318809	-0.107465	0.043705
O18	O	1.818809	0.392535	0.543705
O19	O	1.190805	0.024376	0.125062
O20	O	1.690805	0.524376	0.625062
O21	O	1.093638	-0.073378	-0.010989
O22	O	1.593638	0.426622	0.489011
O23	O	0.965487	-0.090542	0.090869
O24	O	1.465487	0.409458	0.590869
O25	O	1.093560	-0.137633	0.222740
O26	O	1.593560	0.362367	0.722740
O27	O	0.965420	-0.154779	0.155075
O28	O	1.465420	0.345221	0.655075
O29	O	1.190716	-0.060405	0.209802
O30	O	1.690716	0.439595	0.709802
O31	O	1.190580	-0.209391	0.060780
O32	O	1.690580	0.290609	0.560780
O33	O	1.093482	-0.222396	0.137957
O34	O	1.593482	0.277604	0.637957
C35	C	0.936773	-0.126500	0.126799
C36	C	1.436773	0.373500	0.626799
C37	C	0.848913	-0.138274	0.138534
C38	C	1.348913	0.361726	0.638534
C39	C	0.560020	-0.009549	0.010256
C40	C	1.060020	0.490451	0.510256
C41	C	0.477462	-0.020623	0.021289
C42	C	0.977462	0.479377	0.521289
C43	C	0.477447	-0.087605	0.088032
C44	C	0.977447	0.412395	0.588032
C45	C	0.560006	-0.076535	0.077005
C46	C	1.060006	0.423465	0.577005
C47	C	0.601286	-0.037506	0.038116
C48	C	1.101286	0.462494	0.538116
C49	C	0.601272	-0.104492	0.104866
C50	C	1.101272	0.395508	0.604866
C51	C	0.683823	-0.093424	0.093839
C52	C	1.183823	0.406576	0.593839
C53	C	0.725109	-0.054399	0.054951
C54	C	1.225109	0.445601	0.554951
C55	C	0.683838	-0.026438	0.027089
C56	C	1.183838	0.473562	0.527089
C57	C	0.559990	-0.143523	0.143752
C58	C	1.059990	0.356477	0.643752
C59	C	0.601256	-0.171481	0.171613
C60	C	1.101256	0.328519	0.671613
C61	C	0.683809	-0.160410	0.160589
C62	C	1.183809	0.339590	0.660589
C63	C	0.725095	-0.121385	0.121700
C64	C	1.225095	0.378615	0.621700
C65	C	0.725081	-0.188371	0.188450
C66	C	1.225081	0.311629	0.688450
C67	C	0.807633	-0.177303	0.177423
C68	C	1.307633	0.322697	0.677423
C69	C	0.807647	-0.110317	0.110673
C70	C	1.307647	0.389683	0.610673
C71	C	1.142034	-0.234864	0.099372
C72	C	1.642034	0.265136	0.599372
C73	C	1.142059	-0.292975	0.099369
C74	C	1.642059	0.207025	0.599369
C75	C	1.192725	-0.646520	0.126151
C76	C	1.692725	-0.146520	0.626151
C77	C	1.192749	-0.701121	0.126158
C78	C	1.692749	-0.201121	0.626158
O79	O	1.235694	-0.723579	0.148905
O80	O	1.735694	-0.223579	0.648905
N81	N	1.142256	-0.735231	0.099434
N82	N	1.642256	-0.235231	0.599434
C83	C	1.091730	-0.714738	0.072705
C84	C	1.591730	-0.214738	0.572705
O85	O	1.048783	-0.748765	0.049976
O86	O	1.548783	-0.248765	0.549976
C87	C	1.091703	-0.660138	0.072701
C88	C	1.591703	-0.160138	0.572701
C89	C	1.142205	-0.626030	0.099423
C90	C	1.642205	-0.126030	0.599423
C91	C	1.243223	-0.612413	0.152870
C92	C	1.743223	-0.112413	0.652870
C93	C	1.243200	-0.557815	0.152862
C94	C	1.743200	-0.057815	0.652862
C95	C	1.192680	-0.537325	0.126134
C96	C	1.692680	-0.037325	0.626134
C97	C	1.142183	-0.571433	0.099414
C98	C	1.642183	-0.071433	0.599414
C99	C	1.041175	-0.639647	0.045976
C100	C	1.541175	-0.139647	0.545976
C101	C	1.041152	-0.585043	0.045975
C102	C	1.541152	-0.085043	0.545975
C103	C	1.091654	-0.550934	0.072696
C104	C	1.591654	-0.050934	0.572696
C105	C	1.091641	-0.496345	0.072678
C106	C	1.591641	0.003655	0.572678
N107	N	1.142134	-0.462235	0.099402
N108	N	1.642134	0.037765	0.599402
C109	C	1.192654	-0.482725	0.126130
C110	C	1.692654	0.017275	0.626130
C111	C	1.091789	-0.829401	0.072717
C112	C	1.591789	-0.329401	0.572717
C113	C	1.091819	-0.883999	0.072717
C114	C	1.591819	-0.383999	0.572717
C115	C	1.192837	-0.870379	0.126171
C116	C	1.692837	-0.370379	0.626171
C117	C	1.192810	-0.815779	0.126167
C118	C	1.692810	-0.315779	0.626167
C119	C	1.142282	-0.795291	0.099441
C120	C	1.642282	-0.295291	0.599441
C121	C	1.192603	-0.368067	0.126110
C122	C	1.692603	0.131933	0.626110
C123	C	1.192578	-0.313465	0.126097
C124	C	1.692578	0.186535	0.626097
C125	C	1.091558	-0.327090	0.072646
C126	C	1.591558	0.172910	0.572646
C127	C	1.091585	-0.381687	0.072656
C128	C	1.591585	0.118313	0.572656
C129	C	1.142111	-0.402174	0.099392
C130	C	1.642111	0.097826	0.599392
O131	O	1.048715	-0.473850	0.049945
O132	O	1.548715	0.026150	0.549945
O133	O	1.235586	-0.448694	0.148861
O134	O	1.735586	0.051306	0.648861
C135	C	1.348321	-0.071406	0.071891
C136	C	1.848321	0.428594	0.571891
C137	C	1.436180	-0.059645	0.060168
C138	C	1.936180	0.440355	0.560168
C139	C	1.142137	-0.099021	0.235772
C140	C	1.642137	0.400979	0.735772
C141	C	1.142133	-0.099027	0.293887
C142	C	1.642133	0.400973	0.793887
C143	C	1.142279	0.037384	0.099433
C144	C	1.642279	0.537384	0.599433
C145	C	1.142336	0.095506	0.099448
C146	C	1.642336	0.595506	0.599448
C147	C	1.091548	-0.139225	0.551811
C148	C	1.591548	0.360775	1.051811
C149	C	1.091544	-0.139226	0.497207
C150	C	1.591544	0.360774	0.997207
O151	O	1.048506	-0.173410	0.474697
O152	O	1.548506	0.326590	0.974697
N153	N	1.142130	-0.099020	0.463161
N154	N	1.642130	0.400980	0.963161
C155	C	1.192717	-0.058807	0.483723
C156	C	1.692717	0.441193	0.983723
O157	O	1.235744	-0.024609	0.449750
O158	O	1.735744	0.475391	0.949750
C159	C	1.192716	-0.058805	0.538326
C160	C	1.692716	0.441195	1.038326
C161	C	1.142132	-0.099016	0.572369
C162	C	1.642132	0.400984	1.072369
C163	C	1.040968	-0.179433	0.585853
C164	C	1.540968	0.320567	1.085853
C165	C	1.040972	-0.179433	0.640453
C166	C	1.540972	0.320567	1.140453
C167	C	1.091557	-0.139224	0.661011
C168	C	1.591557	0.360776	1.161011
C169	C	1.142137	-0.099016	0.626969
C170	C	1.642137	0.400984	1.126969
C171	C	1.243298	-0.018590	0.558887
C172	C	1.743298	0.481410	1.058887
C173	C	1.243292	-0.018591	0.613495
C174	C	1.743292	0.481409	1.113495
C175	C	1.192709	-0.058803	0.647537
C176	C	1.692709	0.441197	1.147537
C177	C	1.192726	-0.058806	0.702126
C178	C	1.692726	0.441194	1.202126
N179	N	1.142140	-0.099012	0.736172
N180	N	1.642140	0.400988	1.236172
C181	C	1.091556	-0.139221	0.715614
C182	C	1.591556	0.360779	1.215614
C183	C	1.192715	-0.058815	0.369052
C184	C	1.692715	0.441185	0.869052
C185	C	1.192721	-0.058820	0.314449
C186	C	1.692721	0.441180	0.814449
C187	C	1.091546	-0.139238	0.327938
C188	C	1.591546	0.360762	0.827938
C189	C	1.091545	-0.139235	0.382541
C190	C	1.591545	0.360765	0.882541
C191	C	1.142129	-0.099022	0.403098
C192	C	1.642129	0.400978	0.903098
C193	C	1.091570	-0.139217	0.830277
C194	C	1.591570	0.360783	1.330277
C195	C	1.091581	-0.139214	0.884881
C196	C	1.591581	0.360786	1.384881
C197	C	1.192752	-0.058794	0.871389
C198	C	1.692752	0.441206	1.371389
C199	C	1.192744	-0.058799	0.816789
C200	C	1.692744	0.441201	1.316789
C201	C	1.142146	-0.099013	0.796236
C202	C	1.642146	0.400987	1.296236
O203	O	1.235740	-0.024638	0.724674
O204	O	1.735740	0.475362	1.224674
O205	O	1.048529	-0.173410	0.749593
O206	O	1.548529	0.326590	1.249593
C207	C	1.142152	-0.099006	0.963555
C208	C	1.642152	0.400994	1.463555
C209	C	1.142166	-0.099005	0.905439
C210	C	1.642166	0.400995	1.405439
H211	H	0.841260	-0.078528	0.079014
H212	H	1.341260	0.421472	0.579014
H213	H	1.050704	-0.911765	0.050951
H214	H	1.550704	-0.411765	0.550951
H215	H	1.233919	-0.026080	0.286734
H216	H	1.733919	0.473920	0.786734
Br217	Br	0.972573	-0.557241	0.009702
Br218	Br	1.472573	-0.057241	0.509702
Br219	Br	0.545226	-0.224454	0.224381
Br220	Br	1.045226	0.275546	0.724381
H221	H	1.233939	-0.026058	0.789069
H222	H	1.733939	0.473942	1.289069
H223	H	1.233740	-0.384741	0.147885
H224	H	1.733740	0.115259	0.647885
H225	H	0.593632	0.022240	-0.021404
H226	H	1.093632	0.522240	0.478596
Br227	Br	0.421460	0.017318	-0.016532
Br228	Br	0.921460	0.517318	0.483468
Br229	Br	0.972320	-0.234009	0.686646
Br230	Br	1.472320	0.265991	1.186646
H231	H	1.050428	-0.310399	0.050882
H232	H	1.550428	0.189601	0.550882
H233	H	1.233912	-0.026068	0.385785
H234	H	1.733912	0.473932	0.885785
Br235	Br	0.421417	-0.140579	0.140800
Br236	Br	0.921417	0.359421	0.640800
Br237	Br	0.837146	-0.039380	0.039979
Br238	Br	1.337146	0.460620	0.539979
H239	H	1.284321	-0.530047	0.174622
H240	H	1.784321	-0.030047	0.674622
Br241	Br	1.311791	-0.640209	0.189152
Br242	Br	1.811791	-0.140209	0.689152
Br243	Br	1.023059	-0.427977	0.036381
Br244	Br	1.523059	0.072023	0.536381
Br245	Br	1.022932	-0.193793	0.931079
Br246	Br	1.522932	0.306207	1.431079
Br247	Br	1.022901	-0.193793	0.802392
Br248	Br	1.522901	0.306207	1.302392
Br249	Br	0.972630	-0.685923	0.009710
Br250	Br	1.472630	-0.185923	0.509710
H251	H	0.492771	-0.152533	0.152730
H252	H	0.992771	0.347467	0.652730
Br253	Br	0.739869	0.026534	-0.025685
Br254	Br	1.239869	0.526534	0.474315
Br255	Br	1.311951	0.035987	0.512700
Br256	Br	1.811951	0.535987	1.012700
H257	H	0.999771	-0.212176	0.569122
H258	H	1.499771	0.287824	1.069122
Br259	Br	1.261402	-0.004229	0.899299
Br260	Br	1.761402	0.495771	1.399299
H261	H	0.691458	-0.220151	0.220110
H262	H	1.191458	0.279849	0.720110
Br263	Br	0.863642	-0.215248	0.215231
Br264	Br	1.363642	0.284752	0.715231
H265	H	1.050646	-0.812722	0.050948
H266	H	1.550646	-0.312722	0.550948
H267	H	1.233706	-0.285695	0.147856
H268	H	1.733706	0.214305	0.647856
Br269	Br	1.261351	-0.769495	0.162433
Br270	Br	1.761351	-0.269495	0.662433
H271	H	1.050356	-0.171978	0.311190
H272	H	1.550356	0.328022	0.811190
Br273	Br	1.261401	-0.898197	0.162445
Br274	Br	1.761401	-0.398197	0.662445
Br275	Br	1.022893	-0.193810	0.428736
Br276	Br	1.522893	0.306190	0.928736
Br277	Br	1.311935	0.035994	0.641391
Br278	Br	1.811935	0.535994	1.141391
