data_functionalizedCrystal
_audit_creation_method	'MofGen! by Chris Wilmer'
_symmetry_space_group_name_H-M	'P1'
_symmetry_Int_Tables_number	1
_symmetry_cell_setting	triclinic
loop_
_symmetry_equiv_pos_as_xyz
  x,y,z
_cell_length_a	23.532407
_cell_length_b	23.532407
_cell_length_c	22.610064
_cell_angle_alpha	90.000603
_cell_angle_beta	89.994501
_cell_angle_gamma	97.151288
loop_
_atom_site_label
_atom_site_type_symbol
_atom_site_fract_x
_atom_site_fract_y
_atom_site_fract_z
O1	O	0.755263	-0.069127	-0.049153
O2	O	1.255263	0.430873	0.450847
O3	O	0.589400	-0.079131	-0.049163
O4	O	1.089400	0.420869	0.450837
O5	O	0.677333	0.008803	-0.049147
O6	O	1.177333	0.508803	0.450853
O7	O	0.667330	-0.157061	-0.049169
O8	O	1.167330	0.342939	0.450831
O9	O	0.677318	0.008790	0.049222
O10	O	1.177318	0.508790	0.549222
O11	O	0.589385	-0.079143	0.049206
O12	O	1.089385	0.420857	0.549206
O13	O	0.755248	-0.069140	0.049216
O14	O	1.255248	0.430860	0.549216
Zn15	Zn	0.672314	-0.074144	0.064829
Zn16	Zn	1.172314	0.425856	0.564829
Zn17	Zn	0.672334	-0.074127	-0.064777
Zn18	Zn	1.172334	0.425873	0.435223
O19	O	0.667315	-0.157074	0.049200
O20	O	1.167315	0.342926	0.549200
C21	C	0.568176	-0.078882	0.000020
C22	C	1.068176	0.421118	0.500020
C23	C	0.504959	-0.078116	0.000017
C24	C	1.004959	0.421884	0.500017
C25	C	0.238792	-0.022921	0.000040
C26	C	0.738792	0.477079	0.500040
C27	C	0.298192	-0.023632	0.000040
C28	C	0.798192	0.476368	0.500040
O29	O	0.334937	0.020153	0.000066
O30	O	0.834937	0.520153	0.500066
N31	N	0.320818	-0.075909	0.000029
N32	N	0.820818	0.424091	0.500029
C33	C	0.284041	-0.127477	0.000024
C34	C	0.784041	0.372523	0.500024
O35	O	0.308740	-0.172007	0.000015
O36	O	0.808740	0.327993	0.500015
C37	C	0.224642	-0.126765	0.000029
C38	C	0.724642	0.373235	0.500029
C39	C	0.202019	-0.074485	0.000034
C40	C	0.702019	0.425515	0.500034
C41	C	0.216168	0.029354	0.000046
C42	C	0.716168	0.529354	0.500046
C43	C	0.156772	0.030066	0.000045
C44	C	0.656772	0.530066	0.500045
C45	C	0.119999	-0.021499	0.000038
C46	C	0.619999	0.478501	0.500038
C47	C	0.142623	-0.073774	0.000033
C48	C	0.642623	0.426226	0.500033
C49	C	0.187865	-0.178333	0.000028
C50	C	0.687865	0.321667	0.500028
C51	C	0.128463	-0.177616	0.000033
C52	C	0.628463	0.322384	0.500033
C53	C	0.105840	-0.125336	0.000038
C54	C	0.605840	0.374664	0.500038
C55	C	0.046454	-0.124627	0.000025
C56	C	0.546454	0.375373	0.500025
N57	N	0.023828	-0.072351	0.000036
N58	N	0.523828	0.427649	0.500036
C59	C	0.060600	-0.020787	0.000043
C60	C	0.560600	0.479213	0.500043
C61	C	0.408783	-0.128968	0.000016
C62	C	0.908783	0.371032	0.500016
C63	C	0.468181	-0.129681	0.000007
C64	C	0.968181	0.370319	0.500007
C65	C	0.482328	-0.025836	0.000024
C66	C	0.982328	0.474164	0.500024
C67	C	0.422929	-0.025124	0.000028
C68	C	0.922929	0.474876	0.500028
C69	C	0.386157	-0.076692	0.000027
C70	C	0.886157	0.423308	0.500027
C71	C	-0.064136	-0.019297	0.000041
C72	C	0.435864	0.480703	0.500041
C73	C	-0.123538	-0.018590	0.000037
C74	C	0.376462	0.481410	0.500037
C75	C	-0.137680	-0.122435	0.000024
C76	C	0.362320	0.377565	0.500024
C77	C	-0.078284	-0.123142	0.000024
C78	C	0.421716	0.376858	0.500024
C79	C	-0.041512	-0.071568	0.000034
C80	C	0.458488	0.428432	0.500034
O81	O	0.009675	-0.168390	0.000001
O82	O	0.509675	0.331610	0.500001
O83	O	0.035892	0.023737	0.000060
O84	O	0.535892	0.523737	0.500060
C85	C	0.677071	0.030012	0.000039
C86	C	1.177071	0.530012	0.500039
C87	C	0.676305	0.093229	0.000043
C88	C	1.176305	0.593229	0.500043
C89	C	0.776472	-0.069389	0.000031
C90	C	1.276472	0.430611	0.500031
C91	C	0.839689	-0.070155	0.000031
C92	C	1.339689	0.429845	0.500031
C93	C	0.667577	-0.178283	0.000012
C94	C	1.167577	0.321717	0.500012
C95	C	0.668343	-0.241500	0.000004
C96	C	1.168343	0.258500	0.500004
N97	N	0.672304	-0.074155	0.153282
N98	N	1.172304	0.425845	0.653282
C99	C	0.723538	0.492332	0.000014
C100	C	1.223538	0.992332	0.500014
C101	C	0.722827	0.551733	0.000009
C102	C	1.222827	1.051733	0.500009
O103	O	0.766613	0.588477	-0.000010
O104	O	1.266613	1.088477	0.499990
N105	N	0.670551	0.574359	0.000007
N106	N	1.170551	1.074359	0.500007
C107	C	0.618982	0.537581	0.000002
C108	C	1.118982	1.037581	0.500002
O109	O	0.574452	0.562281	-0.000001
O110	O	1.074452	1.062281	0.499999
C111	C	0.619695	0.478182	0.000003
C112	C	1.119695	0.978182	0.500003
C113	C	0.671974	0.455559	0.000011
C114	C	1.171974	0.955559	0.500011
C115	C	0.775814	0.469709	0.000022
C116	C	1.275814	0.969709	0.500022
C117	C	0.776525	0.410313	0.000028
C118	C	1.276525	0.910313	0.500028
C119	C	0.724961	0.373540	0.000025
C120	C	1.224961	0.873540	0.500025
C121	C	0.672685	0.396163	0.000017
C122	C	1.172685	0.896163	0.500017
C123	C	0.568127	0.441406	-0.000006
C124	C	1.068127	0.941406	0.499994
C125	C	0.568843	0.382003	-0.000006
C126	C	1.068843	0.882003	0.499994
C127	C	0.621123	0.359381	0.000003
C128	C	1.121123	0.859381	0.500003
C129	C	0.621832	0.299994	0.000020
C130	C	1.121832	0.799994	0.500020
N131	N	0.674109	0.277368	0.000023
N132	N	1.174109	0.777368	0.500023
C133	C	0.725673	0.314141	0.000025
C134	C	1.225673	0.814141	0.500025
C135	C	0.617491	0.662324	0.000001
C136	C	1.117491	1.162324	0.500001
C137	C	0.616778	0.721722	0.000005
C138	C	1.116778	1.221722	0.500005
C139	C	0.720623	0.735869	0.000011
C140	C	1.220623	1.235869	0.500011
C141	C	0.721335	0.676470	0.000011
C142	C	1.221335	1.176470	0.500011
C143	C	0.669767	0.639698	0.000003
C144	C	1.169767	1.139698	0.500003
C145	C	0.727163	0.189404	0.000038
C146	C	1.227163	0.689404	0.500038
C147	C	0.727869	0.130002	0.000046
C148	C	1.227869	0.630002	0.500046
C149	C	0.624025	0.115860	0.000037
C150	C	1.124025	0.615860	0.500037
C151	C	0.623318	0.175257	0.000032
C152	C	1.123318	0.675257	0.500032
C153	C	0.674891	0.212028	0.000030
C154	C	1.174891	0.712028	0.500030
O155	O	0.578069	0.263215	0.000037
O156	O	1.078069	0.763215	0.500037
O157	O	0.770196	0.289433	0.000021
O158	O	1.270196	0.789433	0.500021
N159	N	0.672349	-0.074111	-0.153229
N160	N	1.172349	0.425889	0.346771
C161	C	0.711273	-0.035196	0.561930
C162	C	1.211273	0.464804	1.061930
C163	C	0.711276	-0.035192	0.623850
C164	C	1.211276	0.464808	1.123850
O165	O	0.744384	-0.002076	0.655875
O166	O	1.244384	0.497924	1.155875
N167	N	0.672334	-0.074115	0.654819
N168	N	1.172334	0.425885	1.154819
C169	C	0.633383	-0.113041	0.623864
C170	C	1.133383	0.386959	1.123864
O171	O	0.600259	-0.146148	0.655891
O172	O	1.100259	0.353852	1.155891
C173	C	0.633377	-0.113042	0.561945
C174	C	1.133377	0.386958	1.061945
C175	C	0.672326	-0.074120	0.530980
C176	C	1.172326	0.425880	1.030980
C177	C	0.750217	0.003723	0.530965
C178	C	1.250217	0.503723	1.030965
C179	C	0.750215	0.003718	0.469049
C180	C	1.250215	0.503718	0.969049
C181	C	0.711268	-0.035206	0.438099
C182	C	1.211268	0.464794	0.938099
C183	C	0.672323	-0.074125	0.469064
C184	C	1.172323	0.425875	0.969064
C185	C	0.594424	-0.151965	0.530992
C186	C	1.094424	0.348035	1.030992
C187	C	0.594422	-0.151963	0.469069
C188	C	1.094422	0.348037	0.969069
C189	C	0.633370	-0.113041	0.438104
C190	C	1.133370	0.386959	0.938104
C191	C	0.633374	-0.113055	0.376199
C192	C	1.133374	0.386945	0.876199
N193	N	0.672316	-0.074131	0.345230
N194	N	1.172316	0.425869	0.845230
C195	C	0.711263	-0.035207	0.376180
C196	C	1.211263	0.464793	0.876180
C197	C	0.633396	-0.113036	0.753898
C198	C	1.133396	0.386964	1.253898
C199	C	0.633403	-0.113038	0.815816
C200	C	1.133403	0.386962	1.315816
C201	C	0.711296	-0.035188	0.815797
C202	C	1.211296	0.464812	1.315797
C203	C	0.711291	-0.035189	0.753878
C204	C	1.211291	0.464811	1.253878
C205	C	0.672338	-0.074112	0.722929
C206	C	1.172338	0.425888	1.222929
C207	C	0.711255	-0.035221	0.246153
C208	C	1.211255	0.464779	0.746153
C209	C	0.711251	-0.035231	0.184232
C210	C	1.211251	0.464769	0.684232
C211	C	0.633357	-0.113079	0.184256
C212	C	1.133357	0.386921	0.684256
C213	C	0.633363	-0.113071	0.246171
C214	C	1.133363	0.386929	0.746171
C215	C	0.672314	-0.074137	0.277118
C216	C	1.172314	0.425863	0.777118
O217	O	0.600281	-0.146152	0.344134
O218	O	1.100281	0.353848	0.844134
O219	O	0.744376	-0.002101	0.344146
O220	O	1.244376	0.497899	0.844146
H221	H	-0.034204	0.022699	0.000049
H222	H	0.465796	0.522699	0.500049
N223	N	0.832910	0.385913	0.000022
N224	N	1.332910	0.885913	0.500022
H225	H	0.835523	0.361583	0.036487
H226	H	1.335523	0.861583	0.536487
H227	H	0.865433	0.418257	-0.000003
H228	H	1.365433	0.918257	0.499997
H229	H	0.138359	0.072637	0.000052
H230	H	0.638359	0.572637	0.500052
H231	H	0.601694	-0.144738	0.841023
H232	H	1.101694	0.355262	1.341023
N233	N	0.560388	0.746111	0.000002
N234	N	1.060388	1.246111	0.500002
H235	H	0.557779	0.770438	-0.036466
H236	H	1.057779	1.270438	0.463534
H237	H	0.557801	0.770413	0.036489
H238	H	1.057801	1.270413	0.536489
H239	H	-0.059864	-0.165712	0.000019
H240	H	0.440136	0.334288	0.500019
H241	H	0.098525	-0.219610	0.000034
H242	H	0.598525	0.280390	0.500034
N243	N	-0.147942	0.037797	0.000045
N244	N	0.352058	0.537797	0.500045
H245	H	-0.134506	0.060379	-0.036416
H246	H	0.365494	0.560379	0.463584
H247	H	-0.134509	0.060320	0.036539
H248	H	0.365491	0.560320	0.536539
N249	N	0.591355	-0.155055	0.279567
N250	N	1.091355	0.344945	0.779567
H251	H	0.566263	-0.133417	0.305255
H252	H	1.066263	0.366583	0.805255
H253	H	0.613010	-0.180152	0.305224
H254	H	1.113010	0.319848	0.805224
H255	H	0.206274	-0.220904	0.000021
H256	H	0.706274	0.279096	0.500021
N257	N	0.566933	0.199662	0.000031
N258	N	1.066933	0.699662	0.500031
H259	H	0.534375	0.167350	0.000032
H260	H	1.034375	0.667350	0.500032
H261	H	0.564382	0.223992	-0.036441
H262	H	1.064382	0.723992	0.463559
N263	N	0.492572	-0.186071	-0.000012
N264	N	0.992572	0.313929	0.499988
H265	H	0.479135	-0.208652	0.036450
H266	H	0.979135	0.291348	0.536450
H267	H	0.535778	-0.178659	-0.000035
H268	H	1.035778	0.321341	0.499965
H269	H	0.601677	-0.144737	0.728702
H270	H	1.101677	0.355263	1.228702
H271	H	0.378846	-0.170964	0.000010
H272	H	0.878846	0.329036	0.500010
H273	H	0.246104	0.071347	0.000053
H274	H	0.746104	0.571347	0.500053
H275	H	0.562700	-0.183658	0.443873
H276	H	1.062700	0.316342	0.943873
N277	N	0.753272	0.006767	0.279523
N278	N	1.253272	0.506767	0.779523
H279	H	0.778364	-0.014869	0.305209
H280	H	1.278364	0.485131	0.805209
H281	H	0.731622	0.031871	0.305182
H282	H	1.231622	0.531871	0.805182
H283	H	0.743008	-0.003493	0.841008
H284	H	1.243008	0.496507	1.341008
N285	N	0.753298	0.006791	0.720482
N286	N	1.253298	0.506791	1.220482
H287	H	0.777971	0.031446	0.749490
H288	H	1.277971	0.531446	1.249490
H289	H	0.731640	0.031861	0.694797
H290	H	1.231640	0.531861	1.194797
H291	H	0.770443	0.111587	0.000055
H292	H	1.270443	0.611587	0.500055
H293	H	0.575496	0.632386	-0.000000
H294	H	1.075496	1.132386	0.500000
N295	N	0.552406	-0.193937	0.564381
N296	N	1.052406	0.306063	1.064381
H297	H	0.527731	-0.218586	0.535369
H298	H	1.027731	0.281414	1.035369
H299	H	0.527359	-0.172249	0.590067
H300	H	1.027359	0.327751	1.090067
H301	H	0.404515	0.017447	0.000033
H302	H	0.904515	0.517447	0.500033
N303	N	-0.177348	-0.178048	0.000014
N304	N	0.322652	0.321952	0.500014
H305	H	-0.218408	-0.169660	0.000017
H306	H	0.281592	0.330340	0.500017
H307	H	-0.170060	-0.200849	0.036479
H308	H	0.329940	0.299151	0.536479
H309	H	0.601648	-0.144772	0.159046
H310	H	1.101648	0.355228	0.659046
N311	N	0.511739	0.465796	-0.000008
N312	N	1.011739	0.965796	0.499992
H313	H	0.479187	0.433480	-0.000010
H314	H	0.979187	0.933480	0.499990
H315	H	0.509182	0.490132	-0.036475
H316	H	1.009182	0.990132	0.463525
H317	H	0.526850	0.352065	-0.000013
H318	H	1.026850	0.852065	0.499987
H319	H	0.742969	-0.003536	0.159021
H320	H	1.242969	0.496464	0.659021
H321	H	0.769159	0.219337	0.000034
H322	H	1.269159	0.719337	0.500034
N323	N	0.521997	0.029782	0.000032
N324	N	1.021997	0.529782	0.500032
H325	H	0.563057	0.021394	0.000030
H326	H	1.063057	0.521394	0.500030
H327	H	0.514703	0.052574	0.036503
H328	H	1.014703	0.552574	0.536503
H329	H	0.582043	0.085909	0.000037
H330	H	1.082043	0.585909	0.500037
N331	N	0.831434	0.509366	0.000025
N332	N	1.331434	1.009366	0.500025
H333	H	0.864653	0.486012	0.000031
H334	H	1.364653	0.986012	0.500031
H335	H	0.833396	0.534317	0.036494
H336	H	1.333396	1.034317	0.536494
H337	H	0.763906	0.658055	0.000018
H338	H	1.263906	1.158055	0.500018
H339	H	0.762610	0.765821	0.000010
H340	H	1.262610	1.265821	0.500010
N341	N	0.792221	0.045701	0.435655
N342	N	1.292221	0.545701	0.935655
H343	H	0.816890	0.070357	0.464665
H344	H	1.316890	0.570357	0.964665
H345	H	0.770562	0.070769	0.409969
H346	H	1.270562	0.570769	0.909969
H347	H	0.781933	0.035422	0.556159
H348	H	1.281933	0.535422	1.056159
