data_functionalizedCrystal
_audit_creation_method	'MofGen! by Chris Wilmer'
_symmetry_space_group_name_H-M	'P1'
_symmetry_Int_Tables_number	1
_symmetry_cell_setting	triclinic
loop_
_symmetry_equiv_pos_as_xyz
  x,y,z
_cell_length_a	17.019372
_cell_length_b	17.038272
_cell_length_c	15.500227
_cell_angle_alpha	86.966746
_cell_angle_beta	91.029586
_cell_angle_gamma	92.757136
loop_
_atom_site_label
_atom_site_type_symbol
_atom_site_fract_x
_atom_site_fract_y
_atom_site_fract_z
O1	O	1.053042	-0.099898	0.006440
O2	O	1.553042	0.400102	0.506440
O3	O	0.825040	-0.111748	-0.010534
O4	O	1.325040	0.388252	0.489466
O5	O	0.937686	0.007996	-0.002141
O6	O	1.437686	0.507996	0.497859
O7	O	0.940397	-0.219642	-0.001953
O8	O	1.440397	0.280358	0.498047
O9	O	0.930848	0.000758	0.141238
O10	O	1.430848	0.500758	0.641238
O11	O	0.818203	-0.118986	0.132846
O12	O	1.318203	0.381014	0.632846
O13	O	1.046204	-0.107136	0.149819
O14	O	1.546204	0.392864	0.649819
Cu15	Cu	0.931579	-0.113722	0.154424
Cu16	Cu	1.431579	0.386278	0.654424
Cu17	Cu	0.939665	-0.105162	-0.015139
Cu18	Cu	1.439665	0.394838	0.484861
O19	O	0.933559	-0.226880	0.141426
O20	O	1.433559	0.273120	0.641426
C21	C	0.792305	-0.114776	0.058973
C22	C	1.292305	0.385224	0.558973
C23	C	0.704948	-0.113005	0.052470
C24	C	1.204948	0.386995	0.552470
C25	C	0.211070	-0.102765	0.011712
C26	C	0.711070	0.397235	0.511712
C27	C	0.293150	-0.104429	0.017834
C28	C	0.793150	0.395571	0.517834
C29	C	0.330455	-0.109213	0.099052
C30	C	0.830455	0.390787	0.599052
C31	C	0.285675	-0.112324	0.174153
C32	C	0.785675	0.387676	0.674153
C33	C	0.203597	-0.110654	0.168030
C34	C	0.703597	0.389346	0.668030
C35	C	0.578091	-0.114447	0.121448
C36	C	1.078091	0.385553	0.621448
C37	C	0.660175	-0.116119	0.127565
C38	C	1.160175	0.383881	0.627565
C39	C	0.667644	-0.108223	-0.028754
C40	C	1.167644	0.391777	0.471246
C41	C	0.585564	-0.106558	-0.034869
C42	C	1.085564	0.393442	0.465131
C43	C	0.540792	-0.109665	0.040231
C44	C	1.040792	0.390335	0.540231
C45	C	0.414353	-0.110916	0.105311
C46	C	0.914353	0.389084	0.605311
C47	C	0.456895	-0.107956	0.033971
C48	C	0.956895	0.392044	0.533971
C49	C	0.931802	0.033512	0.069365
C50	C	1.431802	0.533512	0.569365
C51	C	0.924448	0.120326	0.068817
C52	C	1.424448	0.620326	0.568817
C53	C	1.078940	-0.104108	0.080310
C54	C	1.578940	0.395892	0.580310
C55	C	1.166297	-0.105878	0.086807
C56	C	1.666297	0.394122	0.586807
C57	C	0.939443	-0.252396	0.069918
C58	C	1.439443	0.247604	0.569918
C59	C	0.946797	-0.339210	0.070460
C60	C	1.446797	0.160790	0.570460
N61	N	0.925898	-0.119742	0.273686
N62	N	1.425898	0.380258	0.773686
C63	C	0.991968	0.170246	0.073845
C64	C	1.491968	0.670246	0.573845
C65	C	0.985053	0.251817	0.073322
C66	C	1.485053	0.751817	0.573322
C67	C	0.910618	0.283466	0.067777
C68	C	1.410618	0.783466	0.567777
C69	C	0.843094	0.233539	0.062747
C70	C	1.343094	0.733539	0.562747
C71	C	0.850009	0.151970	0.063264
C72	C	1.350009	0.651970	0.563264
C73	C	0.886188	0.529295	0.065947
C74	C	1.386188	1.029295	0.565947
C75	C	0.879277	0.610870	0.065433
C76	C	1.379277	1.110870	0.565433
C77	C	1.021238	0.629142	0.076006
C78	C	1.521238	1.129142	0.576006
C79	C	1.028147	0.547570	0.076528
C80	C	1.528147	1.047570	0.576528
C81	C	0.960622	0.497651	0.071493
C82	C	1.460622	0.997651	0.571493
C83	C	0.903549	0.366844	0.067246
C84	C	1.403549	0.866844	0.567246
C85	C	0.967693	0.414275	0.072019
C86	C	1.467693	0.914275	0.572019
N87	N	0.945353	-0.099136	-0.134400
N88	N	1.445353	0.400864	0.365600
C89	C	0.973648	-0.069021	0.322520
C90	C	1.473648	0.430979	0.822520
C91	C	0.969359	-0.073581	0.412773
C92	C	1.469359	0.426419	0.912773
C93	C	0.917323	-0.128866	0.454191
C94	C	1.417323	0.371134	0.954191
C95	C	0.869567	-0.179589	0.405350
C96	C	1.369567	0.320411	0.905350
C97	C	0.873852	-0.175025	0.315098
C98	C	1.373852	0.324975	0.815098
C99	C	0.901883	-0.145295	0.726507
C100	C	1.401883	0.354705	1.226507
C101	C	0.897602	-0.149857	0.816766
C102	C	1.397602	0.350143	1.316766
C103	C	0.997394	-0.043848	0.824183
C104	C	1.497394	0.456152	1.324183
C105	C	1.001679	-0.039291	0.733929
C106	C	1.501679	0.460709	1.233929
C107	C	0.953920	-0.090012	0.685096
C108	C	1.453920	0.409988	1.185096
C109	C	0.912939	-0.133530	0.546444
C110	C	1.412939	0.366470	1.046444
C111	C	0.958300	-0.085343	0.592844
C112	C	1.458300	0.414657	1.092844
H113	H	0.555197	-0.102662	-0.101005
H114	H	1.055197	0.397338	0.398995
H115	H	0.834968	-0.216326	0.275337
H116	H	1.334968	0.283674	0.775337
H117	H	0.444736	-0.114812	0.171439
H118	H	0.944736	0.385188	0.671439
H119	H	1.008241	-0.032279	0.452534
H120	H	1.508241	0.467721	0.952534
H121	H	0.426519	-0.104058	-0.032156
H122	H	0.926519	0.395942	0.467844
H123	H	1.028298	0.388504	0.076514
H124	H	1.528298	0.888504	0.576514
H125	H	1.076212	0.669795	0.080104
H126	H	1.576212	1.169795	0.580104
F127	F	0.325380	-0.117412	0.260591
F128	F	0.825380	0.382588	0.760591
F129	F	1.048217	0.010131	0.876160
F130	F	1.548217	0.510131	1.376160
H131	H	0.842943	0.392621	0.062733
H132	H	1.342943	0.892621	0.562733
H133	H	0.329602	-0.101889	-0.043316
H134	H	0.829602	0.398111	0.456684
H135	H	1.016025	-0.024005	0.288804
H136	H	1.516025	0.475995	0.788804
F137	F	0.715300	-0.104912	-0.108675
F138	F	1.215300	0.395088	0.391325
F139	F	0.857560	-0.192369	0.590529
F140	F	1.357560	0.307631	1.090529
F141	F	0.814321	0.476177	0.060586
F142	F	1.314321	0.976177	0.560586
H143	H	0.818660	0.636634	0.060932
H144	H	1.318660	1.136634	0.560932
F145	F	0.778145	0.098842	0.057910
F146	F	1.278145	0.598842	0.557910
H147	H	0.862997	-0.186595	0.686754
H148	H	1.362997	0.313405	1.186754
F149	F	0.171375	-0.097680	-0.074732
F150	F	0.671375	0.402320	0.425268
F151	F	1.071192	0.136571	0.079754
F152	F	1.571192	0.636571	0.579754
H153	H	1.044051	0.005726	0.700209
H154	H	1.544051	0.505726	1.200209
F155	F	0.699875	-0.121209	0.214012
F156	F	1.199875	0.378791	0.714012
F157	F	0.530450	-0.117770	0.201378
F158	F	1.030450	0.382230	0.701378
F159	F	0.842215	-0.208704	0.860839
F160	F	1.342215	0.291296	1.360839
H161	H	0.782487	0.259314	0.058227
H162	H	1.282487	0.759314	0.558227
F163	F	1.107372	0.513895	0.082407
F164	F	1.607372	1.013895	0.582407
H165	H	0.827193	-0.224601	0.439077
H166	H	1.327193	0.275399	0.939077
H167	H	0.167143	-0.113197	0.229180
H168	H	0.667143	0.386803	0.729180
H169	H	1.000665	-0.040327	0.559119
H170	H	1.500665	0.459673	1.059119
H171	H	1.040035	0.292459	0.077417
H172	H	1.540035	0.792459	0.577417
