data_functionalizedCrystal
_audit_creation_method	'MofGen! by Chris Wilmer'
_symmetry_space_group_name_H-M	'P1'
_symmetry_Int_Tables_number	1
_symmetry_cell_setting	triclinic
loop_
_symmetry_equiv_pos_as_xyz
  x,y,z
_cell_length_a	16.793024
_cell_length_b	16.793047
_cell_length_c	33.586455
_cell_angle_alpha	113.253857
_cell_angle_beta	66.219990
_cell_angle_gamma	112.758327
loop_
_atom_site_label
_atom_site_type_symbol
_atom_site_fract_x
_atom_site_fract_y
_atom_site_fract_z
O1	O	0.005016	-0.570216	-0.583573
O2	O	-0.034529	-0.474528	-0.453458
O3	O	0.114723	-0.474535	-0.528082
O4	O	-0.144235	-0.570209	-0.508949
O5	O	0.108729	-0.346329	-0.530229
O6	O	-0.040523	-0.346322	-0.455605
O7	O	-0.000977	-0.442010	-0.585721
Cu8	Cu	-0.021297	-0.382459	-0.520859
Cu9	Cu	-0.014209	-0.534079	-0.518320
O10	O	-0.150229	-0.442003	-0.511097
C11	C	0.005100	-0.790970	-0.238461
C12	C	-0.040584	-0.395375	-0.435637
C13	C	-0.044693	-0.353446	-0.386631
C14	C	-0.039275	-0.401741	-0.363054
C15	C	-0.040566	-0.125547	-0.300731
C16	C	-0.044689	-0.223451	-0.321635
C17	C	-0.039266	-0.270752	-0.297563
C18	C	0.005118	-0.521142	-0.103554
C19	C	-0.046224	-0.263935	-0.366370
C20	C	-0.036476	-0.360146	-0.318399
C21	C	-0.030850	-0.408530	-0.294565
C22	C	-0.028014	-0.367522	-0.249895
C23	C	-0.030804	-0.278128	-0.229058
C24	C	-0.036430	-0.229743	-0.252892
C25	C	-0.027971	-0.237122	-0.184383
C26	C	-0.022345	-0.285507	-0.160550
C27	C	-0.019555	-0.374900	-0.181386
C28	C	-0.022391	-0.415909	-0.226057
C29	C	-0.019601	-0.505302	-0.246894
C30	C	-0.013975	-0.553687	-0.223060
C31	C	-0.011142	-0.512684	-0.178391
C32	C	-0.013932	-0.423291	-0.157554
C33	C	-0.005516	-0.561069	-0.154557
C34	C	-0.002726	-0.650463	-0.175394
C35	C	-0.005562	-0.691471	-0.220064
C36	C	-0.011185	-0.643081	-0.243897
C37	C	-0.022434	-0.546309	-0.291568
C38	C	-0.019644	-0.635702	-0.312405
C39	C	-0.014021	-0.684089	-0.288567
C40	C	-0.022480	-0.676711	-0.357076
C41	C	-0.028106	-0.628326	-0.380910
C42	C	-0.030896	-0.538933	-0.360073
C43	C	-0.028060	-0.497924	-0.315402
C44	C	-0.036522	-0.490548	-0.383907
C45	C	0.815184	-0.521162	-0.508596
C46	C	0.415541	-0.125553	-0.528781
C47	C	0.375032	-0.223457	-0.531493
C48	C	0.423813	-0.270761	-0.529101
C49	C	0.149318	-0.395376	-0.530584
C50	C	0.246774	-0.353455	-0.532364
C51	C	0.294574	-0.401748	-0.529976
C52	C	0.548961	-0.790984	-0.510398
C53	C	0.286104	-0.263940	-0.532530
C54	C	0.383336	-0.360149	-0.528302
C55	C	0.432207	-0.407971	-0.525810
C56	C	0.392316	-0.497392	-0.524993
C57	C	0.303554	-0.538991	-0.526667
C58	C	0.254683	-0.491169	-0.529159
C59	C	0.263666	-0.628421	-0.525851
C60	C	0.312537	-0.676243	-0.523359
C61	C	0.401299	-0.634644	-0.521685
C62	C	0.441190	-0.545223	-0.522502
C63	C	0.529952	-0.503624	-0.520828
C64	C	0.578823	-0.551446	-0.518336
C65	C	0.538939	-0.640864	-0.517520
C66	C	0.450177	-0.682463	-0.519194
C67	C	0.587810	-0.688687	-0.515028
C68	C	0.676572	-0.647088	-0.513354
C69	C	0.716463	-0.557666	-0.514172
C70	C	0.667586	-0.509847	-0.516662
C71	C	0.569840	-0.414195	-0.521644
C72	C	0.658602	-0.372596	-0.519970
C73	C	0.707476	-0.420426	-0.517480
C74	C	0.698493	-0.283174	-0.520788
C75	C	0.649622	-0.235352	-0.523280
C76	C	0.560860	-0.276951	-0.524954
C77	C	0.520969	-0.366372	-0.524136
C78	C	0.511989	-0.229129	-0.527446
C79	C	-0.040530	-0.395407	-0.935652
C80	C	0.005063	-0.791004	-0.738448
C81	C	0.009186	-0.693099	-0.717543
C82	C	0.003779	-0.645796	-0.741620
C83	C	0.005077	-0.521171	-0.603544
C84	C	0.009198	-0.563096	-0.652550
C85	C	0.003786	-0.514804	-0.676131
C86	C	-0.040516	-0.125574	-0.800747
C87	C	0.010719	-0.652613	-0.672809
C88	C	0.000994	-0.556406	-0.720789
C89	C	-0.004621	-0.508585	-0.744908
C90	C	-0.007444	-0.419162	-0.724369
C91	C	-0.004651	-0.377560	-0.679711
C92	C	0.000964	-0.425381	-0.655592
C93	C	-0.007471	-0.288129	-0.659174
C94	C	-0.013086	-0.240308	-0.683293
C95	C	-0.015878	-0.281910	-0.727951
C96	C	-0.013056	-0.371333	-0.748490
C97	C	-0.015848	-0.412935	-0.793148
C98	C	-0.021463	-0.365114	-0.817267
C99	C	-0.024282	-0.275694	-0.796731
C100	C	-0.021490	-0.234092	-0.752073
C101	C	-0.029897	-0.227873	-0.820850
C102	C	-0.032690	-0.269476	-0.865508
C103	C	-0.029867	-0.358899	-0.886047
C104	C	-0.024255	-0.406717	-0.861925
C105	C	-0.013028	-0.502367	-0.813685
C106	C	-0.015821	-0.543969	-0.858343
C107	C	-0.021433	-0.496140	-0.882464
C108	C	-0.012998	-0.633392	-0.878882
C109	C	-0.007383	-0.681213	-0.854763
C110	C	-0.004591	-0.639611	-0.810105
C111	C	-0.007414	-0.550188	-0.789566
C112	C	0.001024	-0.687432	-0.785986
O113	O	-0.000965	0.173549	-0.277957
O114	O	-0.040516	-0.085616	-0.325254
O115	O	0.108737	0.059592	-0.327284
O116	O	-0.150219	0.028341	-0.275927
O117	O	0.114753	0.055151	-0.263265
O118	O	-0.034500	-0.090057	-0.261234
O119	O	0.005051	0.169108	-0.213937
Cu120	Cu	-0.014175	0.039120	-0.231740
Cu121	Cu	-0.021290	0.044372	-0.307451
O122	O	-0.144202	0.023900	-0.211907
O123	O	-0.034458	-0.474571	0.046517
O124	O	0.005076	-0.570190	-0.083599
O125	O	-0.144170	-0.570237	-0.008972
O126	O	0.114787	-0.474523	-0.028110
O127	O	-0.150200	-0.442024	-0.011093
O128	O	-0.000954	-0.441976	-0.085720
O129	O	-0.040488	-0.346357	0.044396
Cu130	Cu	-0.021272	-0.382460	-0.020856
Cu131	Cu	-0.014141	-0.534087	-0.018347
O132	O	0.108757	-0.346309	-0.030231
C133	C	-0.850734	0.086244	-0.289716
C134	C	-0.450996	0.035117	-0.097351
C135	C	-0.410501	0.028587	-0.146852
C136	C	-0.459292	0.034683	-0.169840
C137	C	-0.184802	0.024283	-0.235878
C138	C	-0.282257	0.023363	-0.213592
C139	C	-0.330068	0.029423	-0.237088
C140	C	-0.584541	0.075410	-0.428242
C141	C	-0.321573	0.024104	-0.168302
C142	C	-0.418828	0.035176	-0.215083
C143	C	-0.467711	0.041476	-0.238329
C144	C	-0.427833	0.042022	-0.283580
C145	C	-0.339073	0.036269	-0.305586
C146	C	-0.290190	0.029970	-0.282340
C147	C	-0.299198	0.036812	-0.350842
C148	C	-0.348081	0.043111	-0.374088
C149	C	-0.436841	0.048864	-0.352082
C150	C	-0.476719	0.048318	-0.306830
C151	C	-0.565480	0.054071	-0.284825
C152	C	-0.614362	0.060370	-0.308071
C153	C	-0.574491	0.060913	-0.353321
C154	C	-0.485730	0.055160	-0.375326
C155	C	-0.623374	0.067212	-0.376567
C156	C	-0.712134	0.072965	-0.354561
C157	C	-0.752012	0.072419	-0.309309
C158	C	-0.703123	0.066123	-0.286065
C159	C	-0.605355	0.053528	-0.239569
C160	C	-0.694115	0.059281	-0.217564
C161	C	-0.743001	0.065577	-0.240813
C162	C	-0.733993	0.058735	-0.172312
C163	C	-0.685110	0.052436	-0.149066
C164	C	-0.596350	0.046683	-0.171072
C165	C	-0.556472	0.047229	-0.216323
C166	C	-0.547467	0.040383	-0.147826
O167	O	0.585213	0.169090	-0.504004
O168	O	0.494056	-0.090076	-0.525516
O169	O	0.488081	0.055124	-0.449918
O170	O	0.591189	0.023889	-0.579602
O171	O	0.359978	0.059584	-0.452885
O172	O	0.365953	-0.085616	-0.528483
O173	O	0.457110	0.173550	-0.506971
Cu174	Cu	0.399835	0.044374	-0.517998
Cu175	Cu	0.551332	0.039099	-0.514489
O176	O	0.463086	0.028349	-0.582569
C177	C	0.815354	-0.521094	-0.008709
C178	C	0.415547	-0.125494	-0.028771
C179	C	0.375059	-0.223405	-0.031498
C180	C	0.423859	-0.270708	-0.029121
C181	C	0.149365	-0.395355	-0.030599
C182	C	0.246820	-0.353421	-0.032381
C183	C	0.294640	-0.401713	-0.030008
C184	C	0.549171	-0.790955	-0.010537
C185	C	0.286131	-0.263897	-0.032533
C186	C	0.383402	-0.360104	-0.028335
C187	C	0.432293	-0.407926	-0.025859
C188	C	0.392422	-0.497356	-0.025055
C189	C	0.303660	-0.538965	-0.026727
C190	C	0.254769	-0.491143	-0.029204
C191	C	0.263791	-0.628403	-0.025925
C192	C	0.312683	-0.676224	-0.023448
C193	C	0.401445	-0.634615	-0.021775
C194	C	0.441316	-0.545185	-0.022579
C195	C	0.530078	-0.503576	-0.020906
C196	C	0.578969	-0.551398	-0.018429
C197	C	0.539104	-0.640825	-0.017627
C198	C	0.450342	-0.682434	-0.019300
C199	C	0.587995	-0.688646	-0.015150
C200	C	0.676757	-0.647037	-0.013477
C201	C	0.716628	-0.557607	-0.014281
C202	C	0.667731	-0.509789	-0.016757
C203	C	0.569946	-0.414138	-0.021709
C204	C	0.658708	-0.372530	-0.020036
C205	C	0.707602	-0.420359	-0.017561
C206	C	0.698579	-0.283100	-0.020840
C207	C	0.649688	-0.235278	-0.023317
C208	C	0.560926	-0.276887	-0.024990
C209	C	0.521055	-0.366317	-0.024186
C210	C	0.512035	-0.229066	-0.027467
O211	O	-0.620614	0.089309	0.052274
O212	O	-0.529507	0.043784	-0.078544
O213	O	-0.523494	0.194833	-0.006033
O214	O	-0.626628	-0.061740	-0.020236
O215	O	-0.395386	0.185419	-0.005549
O216	O	-0.401400	0.034370	-0.078059
O217	O	-0.492507	0.079895	0.052758
Cu218	Cu	-0.435256	0.056273	-0.012607
Cu219	Cu	-0.586758	0.067406	-0.013179
O220	O	-0.498521	-0.071154	-0.019752
C221	C	-0.437537	0.048335	0.402491
C222	C	-0.837226	0.099430	0.210091
C223	C	-0.739773	0.100339	0.187806
C224	C	-0.691967	0.094287	0.211308
C225	C	-0.571027	0.088563	0.071568
C226	C	-0.611521	0.095108	0.121070
C227	C	-0.562739	0.089011	0.144061
C228	C	-0.171338	0.037467	0.263967
C229	C	-0.700452	0.099593	0.142516
C230	C	-0.603213	0.088528	0.189308
C231	C	-0.554892	0.082255	0.212848
C232	C	-0.466098	0.076466	0.191141
C233	C	-0.425624	0.076949	0.145894
C234	C	-0.473945	0.083222	0.122354
C235	C	-0.336822	0.071163	0.124188
C236	C	-0.288502	0.064890	0.147728
C237	C	-0.328975	0.064407	0.192975
C238	C	-0.417770	0.070196	0.214682
C239	C	-0.458244	0.069713	0.259929
C240	C	-0.409923	0.063441	0.283469
C241	C	-0.321132	0.057655	0.261765
C242	C	-0.280658	0.058138	0.216518
C243	C	-0.272811	0.051382	0.285305
C244	C	-0.313285	0.050899	0.330552
C245	C	-0.402079	0.056688	0.352259
C246	C	-0.450397	0.062957	0.328716
C247	C	-0.547046	0.075500	0.281635
C248	C	-0.587520	0.075016	0.326882
C249	C	-0.539191	0.068747	0.350423
C250	C	-0.676314	0.080806	0.348589
C251	C	-0.724634	0.087078	0.325049
C252	C	-0.684160	0.087561	0.279802
C253	C	-0.595366	0.081772	0.258095
C254	C	-0.732481	0.093834	0.256262
O255	O	-0.040608	-1.085661	-0.825229
O256	O	-0.001018	-0.826491	-0.777938
O257	O	-0.150287	-0.971682	-0.775894
O258	O	0.108661	-0.940470	-0.827272
O259	O	-0.144253	-0.976123	-0.711878
O260	O	0.005016	-0.830932	-0.713922
O261	O	-0.034575	-1.090102	-0.761213
Cu262	Cu	-0.014228	-0.960923	-0.731722
Cu263	Cu	-0.021364	-0.955670	-0.807428
O264	O	0.114695	-0.944911	-0.763256
C265	C	0.026348	-0.135723	-0.395666
C266	C	-0.049775	-0.210057	-0.393259
H267	H	0.024160	-0.102464	-0.412269
H268	H	0.027009	-0.098361	-0.365887
H269	H	0.079502	-0.155933	-0.410481
H270	H	-0.102929	-0.189846	-0.378441
H271	H	-0.050444	-0.247425	-0.423043
C272	C	-0.833545	0.141932	-0.110676
C273	C	-0.831958	0.065103	-0.148027
H274	H	-0.894020	0.145874	-0.095687
H275	H	-0.810062	0.138072	-0.090272
H276	H	-0.797638	0.193957	-0.120742
H277	H	-0.867860	0.013077	-0.137961
H278	H	-0.855453	0.068956	-0.168435
H279	H	0.245737	-0.223998	-0.033572
C280	C	0.159327	-0.673977	-0.067981
C281	C	0.165837	-0.674352	-0.027787
H282	H	0.098856	-0.702361	-0.069136
H283	H	0.176116	-0.613629	-0.068808
H284	H	0.198584	-0.705701	-0.093257
H285	H	0.126585	-0.642622	-0.002510
H286	H	0.149036	-0.734712	-0.026956
C287	C	-0.249662	-0.056204	0.329246
C288	C	-0.262739	0.029720	0.352896
H289	H	-0.218453	-0.069274	0.343040
H290	H	-0.306628	-0.099575	0.330014
H291	H	-0.215020	-0.058028	0.298646
H292	H	-0.297387	0.031542	0.383496
H293	H	-0.205763	0.073102	0.352133
C294	C	-0.084789	-0.425204	-0.079821
C295	C	-0.010862	-0.378015	-0.108238
H296	H	-0.082906	-0.397255	-0.049375
H297	H	-0.139303	-0.424754	-0.081962
H298	H	-0.082285	-0.485605	-0.088851
H299	H	-0.013371	-0.317615	-0.099211
H300	H	0.043666	-0.378455	-0.106095
C301	C	-0.711661	0.180675	0.100837
C302	C	-0.754954	0.103890	0.116314
H303	H	-0.745308	0.183322	0.084658
H304	H	-0.707719	0.232875	0.125996
H305	H	-0.652600	0.177893	0.081353
H306	H	-0.814013	0.106675	0.135801
H307	H	-0.758906	0.051677	0.091152
H308	H	-0.038719	-0.156659	-0.235851
H309	H	-0.440845	0.083623	0.085362
C310	C	0.049410	-0.495197	-0.960335
C311	C	-0.024505	-0.542041	-0.931759
H312	H	0.047518	-0.523531	-0.990767
H313	H	0.046906	-0.434857	-0.951509
H314	H	0.103938	-0.495448	-0.958112
H315	H	-0.079032	-0.541785	-0.933978
H316	H	-0.022008	-0.602397	-0.940586
H317	H	0.544632	-0.155941	-0.028119
H318	H	0.544602	-0.156012	-0.528109
C319	C	-0.048515	-0.696546	-0.108448
C320	C	0.017712	-0.696519	-0.150432
H321	H	-0.035900	-0.724985	-0.093040
H322	H	-0.048426	-0.636290	-0.090727
H323	H	-0.106135	-0.728397	-0.113106
H324	H	0.075331	-0.664662	-0.145774
H325	H	0.017631	-0.756786	-0.168157
H326	H	-0.047834	-0.232081	-0.882358
C327	C	0.084535	-0.794524	-0.809388
C328	C	0.004142	-0.786134	-0.808654
H329	H	0.086458	-0.855458	-0.823382
H330	H	0.134660	-0.757300	-0.826065
H331	H	0.087000	-0.776517	-0.779214
H332	H	0.001680	-0.804135	-0.838829
H333	H	-0.045996	-0.823370	-0.791978
C334	C	-0.061961	-0.780717	-0.643429
C335	C	0.014259	-0.706488	-0.645915
H336	H	-0.059773	-0.813979	-0.626827
H337	H	-0.115043	-0.760401	-0.628583
H338	H	-0.062746	-0.818119	-0.673192
H339	H	0.015041	-0.669082	-0.616152
H340	H	0.067356	-0.726803	-0.660760
C341	C	0.643690	-0.081809	-0.486853
C342	C	0.693623	-0.136645	-0.524174
H343	H	0.670854	-0.020871	-0.487403
H344	H	0.583596	-0.099833	-0.488219
H345	H	0.642771	-0.087522	-0.459627
H346	H	0.694537	-0.130937	-0.551401
H347	H	0.753733	-0.118615	-0.522812
C348	C	0.317739	-0.807683	-0.020423
C349	C	0.406334	-0.781149	-0.018420
H350	H	0.290579	-0.868627	-0.019883
H351	H	0.283885	-0.770480	0.004899
H352	H	0.318673	-0.801951	-0.047648
H353	H	0.405399	-0.786875	0.008807
H354	H	0.440196	-0.818363	-0.043744
C355	C	-0.014636	-0.808647	-0.355990
C356	C	-0.010944	-0.782761	-0.311566
H357	H	-0.012732	-0.869560	-0.370187
H358	H	-0.069171	-0.802737	-0.355365
H359	H	0.035502	-0.771209	-0.372549
H360	H	-0.061085	-0.820195	-0.295006
H361	H	0.043597	-0.788679	-0.312189
H362	H	-0.023809	-0.160979	-0.735279
C363	C	-0.134420	0.096585	-0.284002
C364	C	-0.192225	0.023614	-0.306628
H365	H	-0.073940	0.092658	-0.298995
H366	H	-0.138860	0.151225	-0.284066
H367	H	-0.151251	0.095347	-0.253600
H368	H	-0.175398	0.024855	-0.337029
H369	H	-0.187781	-0.031040	-0.306568
C370	C	0.673906	-0.713443	0.038790
C371	C	0.722963	-0.697457	-0.003576
H372	H	0.702434	-0.744554	0.044911
H373	H	0.671884	-0.657689	0.061609
H374	H	0.614134	-0.748941	0.038580
H375	H	0.782734	-0.661953	-0.003364
H376	H	0.724995	-0.753220	-0.026401
C377	C	0.000368	-0.290509	-0.593315
C378	C	0.004045	-0.379463	-0.606302
H379	H	0.002263	-0.262165	-0.562884
H380	H	0.050506	-0.258759	-0.612711
H381	H	-0.054168	-0.290279	-0.595537
H382	H	0.058585	-0.379692	-0.604084
H383	H	-0.046097	-0.411221	-0.586901
H384	H	-0.015274	-0.667410	-0.915397
H385	H	-0.281187	0.020914	-0.148901
C386	C	-0.027549	-0.762622	-0.443532
C387	C	-0.031211	-0.673579	-0.430220
H388	H	-0.029465	-0.790558	-0.473974
H389	H	0.026982	-0.763079	-0.441413
H390	H	-0.077691	-0.794619	-0.424242
H391	H	0.018935	-0.641580	-0.449508
H392	H	-0.085749	-0.673117	-0.432343
C393	C	-0.659566	0.073521	0.414675
C394	C	-0.720983	0.080277	0.398531
H395	H	-0.687144	0.073197	0.445507
H396	H	-0.642353	0.019321	0.397097
H397	H	-0.607555	0.123473	0.412375
H398	H	-0.772991	0.030321	0.400828
H399	H	-0.738209	0.134483	0.416114
C400	C	0.798073	-0.162588	-0.480554
C401	C	0.796465	-0.237260	-0.518940
H402	H	0.858554	-0.134245	-0.479411
H403	H	0.774585	-0.121147	-0.482167
H404	H	0.762179	-0.181734	-0.454051
H405	H	0.832353	-0.218113	-0.545443
H406	H	0.819965	-0.278708	-0.517331
C407	C	-0.353565	0.078453	0.058104
C408	C	-0.292152	0.071697	0.074249
H409	H	-0.325980	0.078790	0.027274
H410	H	-0.405567	0.028505	0.060399
H411	H	-0.370785	0.132657	0.075685
H412	H	-0.274937	0.017489	0.056670
H413	H	-0.240133	0.121650	0.071951
H414	H	-0.717713	0.052007	-0.112064
H415	H	0.182201	-0.525171	-0.030575
C416	C	-0.012541	-0.115079	-0.616151
C417	C	-0.016195	-0.141606	-0.660624
H418	H	-0.014457	-0.054143	-0.602159
H419	H	-0.062676	-0.152300	-0.599477
H420	H	0.041997	-0.120790	-0.616659
H421	H	-0.070737	-0.135901	-0.660117
H422	H	0.033945	-0.104374	-0.677303
H423	H	-0.005182	-0.254109	-0.622664
C424	C	-0.855874	0.098603	0.325108
C425	C	-0.830460	0.100315	0.280232
H426	H	-0.916350	0.102637	0.339910
H427	H	-0.851721	0.043940	0.325301
H428	H	-0.816794	0.148083	0.340549
H429	H	-0.869536	0.050831	0.264790
H430	H	-0.834620	0.154984	0.280036
H431	H	-0.020209	-0.749804	-0.374113
H432	H	0.682288	-0.162154	-0.023969
C433	C	-0.007923	-0.806443	-0.921904
C434	C	-0.004271	-0.779917	-0.877431
H435	H	-0.005996	-0.867376	-0.935898
H436	H	-0.062456	-0.800738	-0.921398
H437	H	0.042217	-0.769212	-0.938578
H438	H	-0.054415	-0.817143	-0.860755
H439	H	0.050268	-0.785630	-0.877934
C440	C	-0.194715	-0.050112	-0.375042
C441	C	-0.201236	0.030454	-0.375133
H442	H	-0.134237	-0.054042	-0.390044
H443	H	-0.211523	-0.051333	-0.344643
H444	H	-0.233952	-0.099603	-0.390384
H445	H	-0.162003	0.079945	-0.359787
H446	H	-0.184417	0.031682	-0.405538
C447	C	-0.215475	0.037300	-0.438501
C448	C	-0.304068	0.043708	-0.424034
H449	H	-0.188307	0.037666	-0.469336
H450	H	-0.181626	0.087016	-0.420350
H451	H	-0.216412	-0.017136	-0.435632
H452	H	-0.303130	0.098148	-0.426899
H453	H	-0.337925	-0.006012	-0.442190
H454	H	0.191099	-0.662437	-0.527221
H455	H	-0.453130	0.055597	-0.412328
H456	H	0.280077	-0.749342	-0.022791
C457	C	-0.709273	0.177371	-0.387843
C458	C	-0.758320	0.093978	-0.379170
H459	H	-0.737786	0.190340	-0.403037
H460	H	-0.707285	0.222978	-0.359998
H461	H	-0.649489	0.175344	-0.406384
H462	H	-0.818103	0.096007	-0.360627
H463	H	-0.760319	0.048359	-0.407020
C464	C	0.812158	-0.374849	0.024446
C465	C	0.805590	-0.374466	-0.015733
H466	H	0.872655	-0.346533	0.025566
H467	H	0.772973	-0.343073	0.049732
H468	H	0.795312	-0.435206	0.025283
H469	H	0.822429	-0.314108	-0.016569
H470	H	0.844787	-0.406241	-0.041026
H471	H	-0.815575	0.070280	-0.222817
C472	C	-0.680075	0.046173	-0.083413
C473	C	-0.591479	0.039773	-0.097879
H474	H	-0.707247	0.045787	-0.052580
H475	H	-0.679145	0.100606	-0.086274
H476	H	-0.713921	-0.003546	-0.101570
H477	H	-0.557631	0.089496	-0.079724
H478	H	-0.592404	-0.014666	-0.095014
H479	H	-0.038841	-0.524079	-0.420431
C480	C	0.155163	-0.207327	-0.495863
C481	C	0.231595	-0.210067	-0.533943
H482	H	0.121513	-0.174065	-0.496733
H483	H	0.118585	-0.266906	-0.495933
H484	H	0.173558	-0.179137	-0.469098
H485	H	0.213199	-0.238263	-0.560707
H486	H	0.268179	-0.150477	-0.533877
H487	H	0.771156	-0.249077	-0.019476
H488	H	0.182115	-0.525189	-0.530531
H489	H	-0.215904	0.060157	0.129977
H490	H	-0.208057	0.053400	0.198770
H491	H	-0.572284	0.068372	0.387422
H492	H	-0.797237	0.091807	0.342798
C493	C	-0.027363	-0.112581	-0.116961
C494	C	-0.031053	-0.138459	-0.161385
H495	H	-0.029263	-0.051668	-0.102763
H496	H	-0.077493	-0.150017	-0.100406
H497	H	0.027180	-0.118493	-0.117588
H498	H	-0.085599	-0.132553	-0.160758
H499	H	0.019082	-0.101011	-0.177945
H500	H	-0.020027	-0.251971	-0.124027
H501	H	0.710767	-0.684484	-0.506030
C502	C	0.191899	-0.779933	-0.484597
C503	C	0.268508	-0.774943	-0.522460
H504	H	0.164716	-0.840868	-0.484044
H505	H	0.209094	-0.745021	-0.457742
H506	H	0.149924	-0.757308	-0.486332
H507	H	0.310485	-0.797562	-0.520724
H508	H	0.251315	-0.809868	-0.549322
H509	H	0.417564	-0.755580	-0.518528
H510	H	0.780052	-0.386407	-0.516111
