data_functionalizedCrystal
_audit_creation_method	'MofGen! by Chris Wilmer'
_symmetry_space_group_name_H-M	'P1'
_symmetry_Int_Tables_number	1
_symmetry_cell_setting	triclinic
loop_
_symmetry_equiv_pos_as_xyz
  x,y,z
_cell_length_a	6.817900
_cell_length_b	9.109307
_cell_length_c	14.858572
_cell_angle_alpha	99.356880
_cell_angle_beta	104.524003
_cell_angle_gamma	111.764999
loop_
_atom_site_label
_atom_site_type_symbol
_atom_site_fract_x
_atom_site_fract_y
_atom_site_fract_z
V1	V	-4.094840	-0.226446	-0.308035
V2	V	-3.594840	0.273554	0.191965
O3	O	-4.023160	0.009827	-0.283656
O4	O	-3.523160	0.509827	0.216344
O5	O	-4.101576	-0.447990	-0.323735
O6	O	-3.601576	0.052010	0.176265
O7	O	-4.050726	-0.223426	-0.434255
O8	O	-3.550726	0.276574	0.065745
O9	O	-4.074361	-0.216292	-0.172371
O10	O	-3.574361	0.283708	0.327629
V11	V	-4.570769	-0.198131	-0.289645
V12	V	-4.070769	0.301869	0.210355
O13	O	-4.372758	-0.288559	-0.348374
O14	O	-3.872758	0.211441	0.151626
O15	O	-4.743048	-0.136018	-0.249306
O16	O	-4.243048	0.363982	0.250694
O17	O	-4.340827	0.023413	-0.273945
O18	O	-3.840827	0.523413	0.226055
O19	O	-4.759846	-0.434404	-0.314024
O20	O	-4.259846	0.065596	0.185976
O21	O	-4.708645	-0.208285	-0.425309
O22	O	-4.208645	0.291715	0.074691
O23	O	-4.391676	-0.201151	-0.163425
O24	O	-3.891676	0.298849	0.336575
C25	C	-3.959851	-0.501984	-0.323471
C26	C	-3.459851	-0.001984	0.176529
C27	C	-4.046673	-0.683102	-0.337149
C28	C	-3.546673	-0.183102	0.162851
C29	C	-3.894986	-0.215528	-0.464449
C30	C	-3.394986	0.284472	0.035551
C31	C	-3.940566	-0.214524	-0.567752
C32	C	-3.440566	0.285476	-0.067752
C33	C	-4.107393	-0.210857	-0.946027
C34	C	-3.607393	0.289143	-0.446027
C35	C	-4.060968	-0.211877	-0.840779
C36	C	-3.560968	0.288123	-0.340779
C37	C	-4.023981	-0.212692	-0.756893
C38	C	-3.523981	0.287308	-0.256893
C39	C	-3.977553	-0.213709	-0.651638
C40	C	-3.477553	0.286291	-0.151638
C41	C	-4.145896	0.077398	-0.274208
C42	C	-3.645896	0.577398	0.225792
C43	C	-4.038312	0.258514	-0.260536
C44	C	-3.538312	0.758514	0.239464
C45	C	-4.210760	-0.209055	-0.133227
C46	C	-3.710760	0.290945	0.366773
C47	C	-4.144416	-0.210050	-0.029922
C48	C	-3.644416	0.289950	0.470078
H49	H	-3.964775	-0.652907	-0.184459
H50	H	-3.464775	-0.152907	0.315541
Cl51	Cl	-4.160246	-0.819866	-0.454615
Cl52	Cl	-3.660246	-0.319866	0.045385
