data_functionalizedCrystal
_audit_creation_method	'MofGen! by Chris Wilmer'
_symmetry_space_group_name_H-M	'P1'
_symmetry_Int_Tables_number	1
_symmetry_cell_setting	triclinic
loop_
_symmetry_equiv_pos_as_xyz
  x,y,z
_cell_length_a	16.109304
_cell_length_b	16.109301
_cell_length_c	14.586319
_cell_angle_alpha	89.998180
_cell_angle_beta	90.003149
_cell_angle_gamma	83.462111
loop_
_atom_site_label
_atom_site_type_symbol
_atom_site_fract_x
_atom_site_fract_y
_atom_site_fract_z
O1	O	0.106870	1.103128	0.076184
O2	O	0.356870	1.353128	0.326184
O3	O	0.606870	1.603128	0.576184
O4	O	0.856870	1.853128	0.826184
O5	O	0.120169	0.861066	0.076196
O6	O	0.370169	1.111066	0.326196
O7	O	0.620169	1.361066	0.576196
O8	O	0.870169	1.611066	0.826196
O9	O	-0.007511	0.988745	0.076190
O10	O	0.242489	1.238745	0.326190
O11	O	0.492489	1.488745	0.576190
O12	O	0.742489	1.738745	0.826190
O13	O	0.234550	0.975448	0.076190
O14	O	0.484550	1.225448	0.326190
O15	O	0.734550	1.475448	0.576190
O16	O	0.984550	1.725448	0.826190
O17	O	-0.007519	0.988744	-0.076290
O18	O	0.242481	1.238744	0.173710
O19	O	0.492481	1.488744	0.423710
O20	O	0.742481	1.738744	0.673710
O21	O	0.120161	0.861065	-0.076284
O22	O	0.370161	1.111065	0.173716
O23	O	0.620161	1.361065	0.423716
O24	O	0.870161	1.611065	0.673716
O25	O	0.106862	1.103127	-0.076297
O26	O	0.356862	1.353127	0.173703
O27	O	0.606862	1.603127	0.423703
O28	O	0.856862	1.853127	0.673703
Cu29	Cu	0.113511	0.982096	-0.090213
Cu30	Cu	0.363511	1.232096	0.159787
Cu31	Cu	0.613511	1.482096	0.409787
Cu32	Cu	0.863511	1.732096	0.659787
Cu33	Cu	0.113520	0.982097	0.090113
Cu34	Cu	0.363520	1.232097	0.340113
Cu35	Cu	0.613520	1.482097	0.590113
Cu36	Cu	0.863520	1.732097	0.840113
O37	O	0.234542	0.975447	-0.076291
O38	O	0.484542	1.225447	0.173709
O39	O	0.734542	1.475447	0.423709
O40	O	0.984542	1.725447	0.673709
C41	C	0.119626	0.830091	-0.000042
C42	C	0.369626	1.080091	0.249958
C43	C	0.619626	1.330091	0.499958
C44	C	0.869626	1.580091	0.749958
C45	C	0.118011	0.737795	-0.000038
C46	C	0.368011	0.987795	0.249962
C47	C	0.618011	1.237795	0.499962
C48	C	0.868011	1.487795	0.749962
C49	C	0.188494	0.428798	-0.000054
C50	C	0.438494	0.678798	0.249946
C51	C	0.688494	0.928798	0.499946
C52	C	0.938494	1.178798	0.749946
C53	C	0.190020	0.515518	-0.000048
C54	C	0.440020	0.765518	0.249952
C55	C	0.690020	1.015518	0.499952
C56	C	0.940020	1.265518	0.749952
C57	C	0.038531	0.535390	-0.000036
C58	C	0.288531	0.785390	0.249964
C59	C	0.538531	1.035390	0.499964
C60	C	0.788531	1.285390	0.749964
C61	C	0.037007	0.448671	-0.000035
C62	C	0.287007	0.698671	0.249965
C63	C	0.537007	0.948671	0.499965
C64	C	0.787007	1.198671	0.749965
C65	C	0.111991	0.395377	-0.000048
C66	C	0.361991	0.645377	0.249952
C67	C	0.611991	0.895377	0.499952
C68	C	0.861991	1.145377	0.749952
C69	C	0.115040	0.568816	-0.000044
C70	C	0.365040	0.818816	0.249956
C71	C	0.615040	1.068816	0.499956
C72	C	0.865040	1.318816	0.749956
C73	C	0.116694	0.662842	-0.000038
C74	C	0.366694	0.912842	0.249962
C75	C	0.616694	1.162842	0.499962
C76	C	0.866694	1.412842	0.749962
C77	C	0.110338	0.301345	-0.000052
C78	C	0.360338	0.551345	0.249948
C79	C	0.610338	0.801345	0.499948
C80	C	0.860338	1.051345	0.749948
C81	C	-0.038490	0.988206	-0.000048
C82	C	0.211510	1.238206	0.249952
C83	C	0.461510	1.488206	0.499952
C84	C	0.711510	1.738206	0.749952
C85	C	-0.130785	0.986590	-0.000042
C86	C	0.119215	1.236590	0.249958
C87	C	0.369215	1.486590	0.499958
C88	C	0.619215	1.736590	0.749958
C89	C	-0.343118	0.982857	0.083073
C90	C	-0.093118	1.232857	0.333073
C91	C	0.156882	1.482857	0.583073
C92	C	0.406882	1.732857	0.833073
C93	C	-0.429838	0.981331	0.083072
C94	C	-0.179838	1.231331	0.333072
C95	C	0.070162	1.481331	0.583072
C96	C	0.320162	1.731331	0.833072
C97	C	-0.429844	0.981334	-0.083171
C98	C	-0.179844	1.231334	0.166829
C99	C	0.070156	1.481334	0.416829
C100	C	0.320156	1.731334	0.666829
C101	C	-0.343125	0.982854	-0.083169
C102	C	-0.093125	1.232854	0.166831
C103	C	0.156875	1.482854	0.416831
C104	C	0.406875	1.732854	0.666831
C105	C	-0.299765	0.983620	-0.000045
C106	C	-0.049765	1.233620	0.249955
C107	C	0.200235	1.483620	0.499955
C108	C	0.450235	1.733620	0.749955
C109	C	-0.473204	0.980573	-0.000047
C110	C	-0.223204	1.230573	0.249953
C111	C	0.026796	1.480573	0.499953
C112	C	0.276796	1.730573	0.749953
C113	C	-0.567230	0.978919	-0.000049
C114	C	-0.317230	1.228919	0.249951
C115	C	-0.067230	1.478919	0.499951
C116	C	0.182770	1.728919	0.749951
C117	C	-0.205733	0.985273	-0.000043
C118	C	0.044267	1.235273	0.249957
C119	C	0.294267	1.485273	0.499957
C120	C	0.544267	1.735273	0.749957
C121	C	0.265521	0.975987	-0.000050
C122	C	0.515521	1.225987	0.249950
C123	C	0.765521	1.475987	0.499950
C124	C	1.015521	1.725987	0.749950
C125	C	0.357816	0.977603	-0.000051
C126	C	0.607816	1.227603	0.249949
C127	C	0.857816	1.477603	0.499949
C128	C	1.107816	1.727603	0.749949
C129	C	0.107405	1.134102	-0.000056
C130	C	0.357405	1.384102	0.249944
C131	C	0.607405	1.634102	0.499944
C132	C	0.857405	1.884102	0.749944
C133	C	0.109020	1.226398	-0.000055
C134	C	0.359020	1.476398	0.249945
C135	C	0.609020	1.726398	0.499945
C136	C	0.859020	1.976398	0.749945
N137	N	0.113521	0.982098	0.216945
N138	N	0.363521	1.232098	0.466945
N139	N	0.613521	1.482098	0.716945
N140	N	0.863521	1.732098	0.966945
N141	N	0.113504	0.982101	-0.217045
N142	N	0.363504	1.232101	0.032955
N143	N	0.613504	1.482101	0.282955
N144	N	0.863504	1.732101	0.532955
C145	C	0.057094	1.038744	0.451949
C146	C	0.307094	1.288744	0.701949
C147	C	0.557094	1.538744	0.951949
C148	C	0.807094	1.788744	1.201949
C149	C	0.057092	1.038746	0.547930
C150	C	0.307092	1.288746	0.797930
C151	C	0.557092	1.538746	1.047930
C152	C	0.807092	1.788746	1.297930
C153	C	0.169937	0.925453	0.547944
C154	C	0.419937	1.175453	0.797944
C155	C	0.669937	1.425453	1.047944
C156	C	0.919937	1.675453	1.297944
C157	C	0.169942	0.925455	0.451965
C158	C	0.419942	1.175455	0.701965
C159	C	0.669942	1.425455	0.951965
C160	C	0.919942	1.675455	1.201965
C161	C	0.113516	0.982100	0.403969
C162	C	0.363516	1.232100	0.653969
C163	C	0.613516	1.482100	0.903969
C164	C	0.863516	1.732100	1.153969
C165	C	0.113509	0.982100	0.595930
C166	C	0.363509	1.232100	0.845930
C167	C	0.613509	1.482100	1.095930
C168	C	0.863509	1.732100	1.345930
C169	C	0.113507	0.982102	0.699997
C170	C	0.363507	1.232102	0.949997
C171	C	0.613507	1.482102	1.199997
C172	C	0.863507	1.732102	1.449997
C173	C	0.113518	0.982099	0.299896
C174	C	0.363518	1.232099	0.549896
C175	C	0.613518	1.482099	0.799896
C176	C	0.863518	1.732099	1.049896
H177	H	0.249551	0.385408	-0.000064
H178	H	0.499551	0.635408	0.249936
H179	H	0.749551	0.885408	0.499936
H180	H	0.999551	1.135408	0.749936
H181	H	0.011149	1.084869	0.412873
H182	H	0.261149	1.334869	0.662873
H183	H	0.511149	1.584869	0.912873
H184	H	0.761149	1.834869	1.162873
Br185	Br	0.246511	0.848579	0.613084
Br186	Br	0.496511	1.098579	0.863084
Br187	Br	0.746511	1.348579	1.113084
Br188	Br	0.996511	1.598579	1.363084
Br189	Br	0.293850	0.560871	-0.000048
Br190	Br	0.543850	0.810871	0.249952
Br191	Br	0.793850	1.060871	0.499952
Br192	Br	1.043850	1.310871	0.749952
Br193	Br	-0.066827	0.403309	-0.000010
Br194	Br	0.183173	0.653309	0.249990
Br195	Br	0.433173	0.903309	0.499990
Br196	Br	0.683173	1.153309	0.749990
Br197	Br	-0.284274	0.983893	0.195884
Br198	Br	-0.034274	1.233893	0.445884
Br199	Br	0.215726	1.483893	0.695884
Br200	Br	0.465726	1.733893	0.945884
H201	H	-0.022518	0.578792	-0.000027
H202	H	0.227482	0.828792	0.249973
H203	H	0.477482	1.078792	0.499973
H204	H	0.727482	1.328792	0.749973
Br205	Br	-0.019481	1.115628	0.613041
Br206	Br	0.230519	1.365628	0.863041
Br207	Br	0.480519	1.615628	1.113041
Br208	Br	0.730519	1.865628	1.363041
H209	H	-0.465133	0.980708	0.150754
H210	H	-0.215133	1.230708	0.400754
H211	H	0.034867	1.480708	0.650754
H212	H	0.284867	1.730708	0.900754
Br213	Br	-0.488695	0.980292	-0.195978
Br214	Br	-0.238695	1.230292	0.054022
Br215	Br	0.011305	1.480292	0.304022
Br216	Br	0.261305	1.730292	0.554022
H217	H	-0.307825	0.983470	-0.150858
H218	H	-0.057825	1.233470	0.099142
H219	H	0.192175	1.483470	0.349142
H220	H	0.442175	1.733470	0.599142
Br221	Br	0.246527	0.848582	0.386843
Br222	Br	0.496527	1.098582	0.636843
Br223	Br	0.746527	1.348582	0.886843
Br224	Br	0.996527	1.598582	1.136843
