data_functionalizedCrystal
_audit_creation_method	'MofGen! by Chris Wilmer'
_symmetry_space_group_name_H-M	'P1'
_symmetry_Int_Tables_number	1
_symmetry_cell_setting	triclinic
loop_
_symmetry_equiv_pos_as_xyz
  x,y,z
_cell_length_a	17.077404
_cell_length_b	19.076808
_cell_length_c	17.077395
_cell_angle_alpha	87.671739
_cell_angle_beta	89.984359
_cell_angle_gamma	92.323651
loop_
_atom_site_label
_atom_site_type_symbol
_atom_site_fract_x
_atom_site_fract_y
_atom_site_fract_z
Zn1	Zn	1.187456	-0.280221	-0.431271
Zn2	Zn	1.520789	0.053112	-0.097938
Zn3	Zn	1.854122	0.386445	0.235396
Zn4	Zn	1.182092	-0.397929	-0.294724
Zn5	Zn	1.515425	-0.064596	0.038609
Zn6	Zn	1.848759	0.268738	0.371942
Zn7	Zn	1.056195	-0.280243	-0.300018
Zn8	Zn	1.389529	0.053090	0.033315
Zn9	Zn	1.722862	0.386423	0.366649
Zn10	Zn	1.050878	-0.397890	-0.425950
Zn11	Zn	1.384211	-0.064556	-0.092616
Zn12	Zn	1.717544	0.268777	0.240717
O13	O	1.119155	-0.339071	-0.362991
O14	O	1.452489	-0.005737	-0.029657
O15	O	1.785822	0.327596	0.303676
O16	O	1.296591	-0.295843	-0.413169
O17	O	1.629924	0.037491	-0.079836
O18	O	1.963258	0.370824	0.253497
O19	O	1.165372	-0.382343	-0.185578
O20	O	1.498706	-0.049010	0.147755
O21	O	1.832039	0.284323	0.481088
O22	O	1.078078	-0.181744	-0.321871
O23	O	1.411411	0.151589	0.011462
O24	O	1.744744	0.484923	0.344795
O25	O	1.292650	-0.382322	-0.312849
O26	O	1.625984	-0.048989	0.020484
O27	O	1.959317	0.284345	0.353818
O28	O	1.174514	-0.181728	-0.418303
O29	O	1.507847	0.151606	-0.084969
O30	O	1.841181	0.484939	0.248364
O31	O	1.072877	-0.295880	-0.189468
O32	O	1.406210	0.037453	0.143866
O33	O	1.739543	0.370786	0.477199
O34	O	0.945643	-0.295842	-0.316712
O35	O	1.278977	0.037491	0.016622
O36	O	1.612310	0.370824	0.349955
O37	O	1.069014	-0.382255	-0.536504
O38	O	1.402348	-0.048922	-0.203170
O39	O	1.735681	0.284412	0.130163
O40	O	0.941737	-0.382277	-0.409233
O41	O	1.275070	-0.048943	-0.075900
O42	O	1.608403	0.284390	0.257434
O43	O	1.169358	-0.295805	-0.540413
O44	O	1.502691	0.037529	-0.207080
O45	O	1.836024	0.370862	0.126253
O46	O	1.160216	-0.496420	-0.307689
O47	O	1.493549	-0.163087	0.025644
O48	O	1.826883	0.170246	0.358978
O49	O	1.063813	-0.496391	-0.404100
O50	O	1.397147	-0.163058	-0.070766
O51	O	1.730480	0.170275	0.262567
C52	C	0.915208	-0.339058	-0.362970
C53	C	1.248541	-0.005725	-0.029636
C54	C	1.581875	0.327609	0.303697
C55	C	0.827958	-0.339070	-0.362978
C56	C	1.161291	-0.005736	-0.029645
C57	C	1.494624	0.327597	0.303688
C58	C	1.110877	-0.521945	-0.354760
C59	C	1.444210	-0.188611	-0.021426
C60	C	1.777544	0.144722	0.311907
C61	C	1.107407	-0.600179	-0.351265
C62	C	1.440741	-0.266846	-0.017931
C63	C	1.774074	0.066488	0.315402
C64	C	0.784951	-0.384144	-0.411071
C65	C	1.118284	-0.050810	-0.077737
C66	C	1.451617	0.282523	0.255596
C67	C	0.702970	-0.384145	-0.411083
C68	C	1.036304	-0.050812	-0.077750
C69	C	1.369637	0.282521	0.255583
C70	C	0.663998	-0.339076	-0.362999
C71	C	0.997331	-0.005742	-0.029665
C72	C	1.330665	0.327591	0.303668
C73	C	0.707011	-0.293996	-0.314904
C74	C	1.040344	0.039337	0.018429
C75	C	1.373678	0.372670	0.351762
C76	C	0.788990	-0.293992	-0.314897
C77	C	1.122323	0.039341	0.018437
C78	C	1.455657	0.372675	0.351770
C79	C	0.536140	-0.294010	-0.314923
C80	C	0.869474	0.039323	0.018411
C81	C	1.202807	0.372656	0.351744
C82	C	0.454155	-0.294016	-0.314929
C83	C	0.787489	0.039318	0.018404
C84	C	1.120822	0.372651	0.351737
C85	C	0.450120	-0.384164	-0.411109
C86	C	0.783454	-0.050830	-0.077776
C87	C	1.116787	0.282503	0.255557
C88	C	0.532100	-0.384159	-0.411102
C89	C	0.865433	-0.050826	-0.077768
C90	C	1.198766	0.282507	0.255565
C91	C	0.575107	-0.339081	-0.363006
C92	C	0.908440	-0.005747	-0.029673
C93	C	1.241773	0.327586	0.303661
C94	C	1.155949	-0.636865	-0.399870
C95	C	1.489282	-0.303531	-0.066536
C96	C	1.822616	0.029802	0.266797
C97	C	1.152686	-0.710374	-0.396587
C98	C	1.486019	-0.377041	-0.063254
C99	C	1.819352	-0.043707	0.270079
C100	C	1.100884	-0.747197	-0.344695
C101	C	1.434217	-0.413863	-0.011362
C102	C	1.767551	-0.080530	0.321972
C103	C	1.052337	-0.710506	-0.296088
C104	C	1.385670	-0.377172	0.037245
C105	C	1.719004	-0.043839	0.370579
C106	C	1.055597	-0.636998	-0.299375
C107	C	1.388930	-0.303664	0.033958
C108	C	1.722264	0.029669	0.367292
C109	C	1.085751	-0.967050	-0.329480
C110	C	1.419084	-0.633716	0.003854
C111	C	1.752418	-0.300383	0.337187
C112	C	1.082496	-1.040563	-0.326195
C113	C	1.415830	-0.707229	0.007139
C114	C	1.749163	-0.373896	0.340472
C115	C	1.182844	-1.040426	-0.426695
C116	C	1.516177	-0.707093	-0.093362
C117	C	1.849511	-0.373759	0.239971
C118	C	1.186103	-0.966917	-0.429974
C119	C	1.519436	-0.633583	-0.096641
C120	C	1.852769	-0.300250	0.236692
C121	C	1.137553	-0.930232	-0.381370
C122	C	1.470886	-0.596899	-0.048037
C123	C	1.804220	-0.263566	0.285296
N124	N	1.097549	-0.822335	-0.341337
N125	N	1.430882	-0.489002	-0.008003
N126	N	1.764216	-0.155668	0.325330
N127	N	1.140885	-0.855095	-0.384733
N128	N	1.474218	-0.521762	-0.051400
N129	N	1.807551	-0.188428	0.281934
C130	C	1.323899	-0.339084	-0.363012
C131	C	1.657232	-0.005751	-0.029679
C132	C	1.990566	0.327583	0.303654
C133	C	1.411148	-0.339090	-0.363022
C134	C	1.744482	-0.005756	-0.029688
C135	C	2.077815	0.327577	0.303645
C136	C	1.119191	-0.339023	-0.567737
C137	C	1.452524	-0.005690	-0.234404
C138	C	1.785858	0.327644	0.098929
C139	C	1.119206	-0.339003	-0.654988
C140	C	1.452540	-0.005669	-0.321655
C141	C	1.785873	0.327664	0.011679
C142	C	1.127487	-0.155483	-0.371271
C143	C	1.460821	0.177851	-0.037938
C144	C	1.794154	0.511184	0.295396
C145	C	1.131038	-0.077248	-0.374800
C146	C	1.464371	0.256085	-0.041466
C147	C	1.797705	0.589418	0.291867
C148	C	1.171547	-0.293892	-1.032844
C149	C	1.504880	0.039441	-0.699511
C150	C	1.838213	0.372774	-0.366177
C151	C	1.171529	-0.293917	-0.950862
C152	C	1.504863	0.039416	-0.617529
C153	C	1.838196	0.372750	-0.284196
C154	C	1.119274	-0.338936	-0.907840
C155	C	1.452607	-0.005603	-0.574507
C156	C	1.785941	0.327731	-0.241173
C157	C	1.067038	-0.383938	-0.946803
C158	C	1.400371	-0.050605	-0.613470
C159	C	1.733705	0.282728	-0.280137
C160	C	1.067059	-0.383917	-1.028783
C161	C	1.400393	-0.050583	-0.695450
C162	C	1.733726	0.282750	-0.362117
C163	C	1.066995	-0.383979	-0.775931
C164	C	1.400329	-0.050646	-0.442598
C165	C	1.733662	0.282688	-0.109265
C166	C	1.066973	-0.384000	-0.693946
C167	C	1.400306	-0.050667	-0.360612
C168	C	1.733639	0.282667	-0.027279
C169	C	1.171465	-0.293979	-0.698010
C170	C	1.504799	0.039354	-0.364677
C171	C	1.838132	0.372687	-0.031344
C172	C	1.171487	-0.293958	-0.779990
C173	C	1.504820	0.039376	-0.446657
C174	C	1.838154	0.372709	-0.113324
C175	C	1.119249	-0.338959	-0.818948
C176	C	1.452583	-0.005626	-0.485615
C177	C	1.785916	0.327707	-0.152281
C178	C	1.119167	-0.339068	-0.159043
C179	C	1.452500	-0.005734	0.174290
C180	C	1.785834	0.327599	0.507624
C181	C	1.119313	-0.338890	-0.071802
C182	C	1.452646	-0.005556	0.261532
C183	C	1.785979	0.327777	0.594865
H184	H	0.816676	-0.420847	-0.450224
H185	H	1.150009	-0.087514	-0.116891
H186	H	1.483342	0.245819	0.216442
H187	H	1.024404	-0.420642	-0.658920
H188	H	1.357738	-0.087309	-0.325586
H189	H	1.691071	0.246024	0.007747
F190	F	0.404349	-0.432132	-0.462306
F191	F	0.737682	-0.098799	-0.128973
F192	F	1.071015	0.234535	0.204361
H193	H	0.422427	-0.257307	-0.275784
H194	H	0.755760	0.076026	0.057549
H195	H	1.089094	0.409359	0.390882
F196	F	1.227112	-0.246052	-0.825776
F197	F	1.560445	0.087281	-0.492443
F198	F	1.893779	0.420615	-0.159109
H199	H	0.571155	-0.257296	-0.275765
H200	H	0.904488	0.076037	0.057568
H201	H	1.237821	0.409370	0.390901
F202	F	1.227158	-0.245969	-1.078625
F203	F	1.560491	0.087364	-0.745291
F204	F	1.893824	0.420697	-0.411958
H205	H	1.192219	-0.740240	-0.436161
H206	H	1.525553	-0.406907	-0.102827
H207	H	1.858886	-0.073574	0.230506
F208	F	1.027362	-1.079751	-0.270959
F209	F	1.360695	-0.746417	0.062375
F210	F	1.694029	-0.413084	0.395708
H211	H	0.675273	-0.257297	-0.275757
H212	H	1.008607	0.076036	0.057577
H213	H	1.341940	0.409370	0.390910
F214	F	1.227124	-0.246025	-0.909404
F215	F	1.560458	0.087308	-0.576071
F216	F	1.893791	0.420642	-0.242738
F217	F	1.034074	-0.928017	-0.277756
F218	F	1.367407	-0.594683	0.055577
F219	F	1.700740	-0.261350	0.388911
F220	F	0.573575	-0.432132	-0.462273
F221	F	0.906908	-0.098799	-0.128940
F222	F	1.240241	0.234535	0.204394
H223	H	1.228284	-0.936937	-0.472229
H224	H	1.561617	-0.603604	-0.138896
H225	H	1.894950	-0.270271	0.194437
F226	F	1.234508	-1.079473	-0.478422
F227	F	1.567842	-0.746140	-0.145088
F228	F	1.901175	-0.412807	0.188245
H229	H	0.824006	-0.257284	-0.275739
H230	H	1.157339	0.076049	0.057594
H231	H	1.490672	0.409383	0.390927
H232	H	1.198135	-0.606889	-0.442123
H233	H	1.531468	-0.273555	-0.108789
H234	H	1.864801	0.059778	0.224544
F235	F	1.011466	-0.431810	-1.070244
F236	F	1.344800	-0.098477	-0.736911
F237	F	1.678133	0.234856	-0.403578
F238	F	0.997199	-0.749697	-0.240867
F239	F	1.330532	-0.416364	0.092466
F240	F	1.663865	-0.083030	0.425800
H241	H	1.016068	-0.607129	-0.259797
H242	H	1.349402	-0.273796	0.073537
H243	H	1.682735	0.059538	0.406870
H244	H	1.213997	-0.257336	-0.666287
H245	H	1.547331	0.075997	-0.332954
H246	H	1.880664	0.409331	0.000379
H247	H	0.667957	-0.420850	-0.450244
H248	H	1.001291	-0.087517	-0.116911
H249	H	1.334624	0.245817	0.216422
F250	F	1.011399	-0.431876	-0.817391
F251	F	1.344732	-0.098543	-0.484058
F252	F	1.678065	0.234791	-0.150724
F253	F	1.011425	-0.431853	-0.901014
F254	F	1.344759	-0.098520	-0.567680
F255	F	1.678092	0.234814	-0.234347
