data_functionalizedCrystal
_audit_creation_method	'MofGen! by Chris Wilmer'
_symmetry_space_group_name_H-M	'P1'
_symmetry_Int_Tables_number	1
_symmetry_cell_setting	triclinic
loop_
_symmetry_equiv_pos_as_xyz
  x,y,z
_cell_length_a	14.971486
_cell_length_b	19.188924
_cell_length_c	13.448316
_cell_angle_alpha	89.991325
_cell_angle_beta	89.998199
_cell_angle_gamma	83.378047
loop_
_atom_site_label
_atom_site_type_symbol
_atom_site_fract_x
_atom_site_fract_y
_atom_site_fract_z
O1	O	1.186464	0.090988	-0.082582
O2	O	0.926006	0.101884	-0.082610
O3	O	1.063754	-0.005195	-0.082583
O4	O	1.048715	0.198068	-0.082609
O5	O	1.063737	-0.005202	0.082800
O6	O	0.925989	0.101878	0.082774
O7	O	1.186447	0.090982	0.082802
Cu8	Cu	1.056216	0.096429	0.097889
Cu9	Cu	1.056236	0.096437	-0.097697
O10	O	1.048698	0.198061	0.082775
C11	C	0.892675	0.101394	0.000079
C12	C	0.793386	0.099933	0.000069
C13	C	0.735826	0.162840	0.000062
C14	C	0.642534	0.161464	0.000077
C15	C	0.606803	0.097180	0.000091
C16	C	0.664370	0.034269	0.000101
C17	C	0.757661	0.035646	0.000093
C18	C	0.469923	0.031403	0.000115
C19	C	0.376626	0.030026	0.000121
C20	C	0.354796	0.157221	0.000099
C21	C	0.448087	0.158598	0.000091
C22	C	0.505647	0.095686	0.000099
C23	C	1.063260	-0.031211	0.000109
C24	C	1.061801	-0.108721	0.000112
C25	C	1.061129	-0.145118	-0.090039
C26	C	1.059746	-0.217946	-0.090047
C27	C	1.059052	-0.254374	0.000101
C28	C	1.059719	-0.217967	0.090264
C29	C	1.061093	-0.145141	0.090270
N30	N	1.107787	-0.373883	0.067202
N31	N	1.106483	-0.443066	0.067191
C32	C	1.054909	-0.473797	0.000091
N33	N	1.004699	-0.432733	-0.067012
N34	N	1.006006	-0.363544	-0.067004
C35	C	1.057561	-0.333343	0.000106
C36	C	1.052736	-0.589162	-0.090074
C37	C	1.051347	-0.661990	-0.090078
C38	C	1.051329	-0.662011	0.090236
C39	C	1.052709	-0.589184	0.090237
C40	C	1.053417	-0.552764	0.000079
C41	C	1.219777	0.091472	0.000111
C42	C	1.319067	0.092933	0.000115
C43	C	1.049193	0.224077	0.000080
C44	C	1.050652	0.301587	0.000071
N45	N	1.056208	0.096423	0.235453
N46	N	1.056251	0.096437	-0.235261
C47	C	1.117222	0.049028	0.287505
C48	C	1.117228	0.049027	0.391608
C49	C	1.056223	0.096426	0.443658
C50	C	0.995203	0.143824	0.391598
C51	C	0.995194	0.143820	0.287497
C52	C	0.995228	0.143828	0.608578
C53	C	0.995238	0.143833	0.712687
C54	C	1.117262	0.049035	0.712690
C55	C	1.117252	0.049032	0.608588
C56	C	1.056233	0.096431	0.556536
H57	H	0.347538	-0.022319	0.000134
H58	H	1.061636	-0.115506	0.163684
H59	H	0.945560	0.182429	0.755060
H60	H	0.945536	0.182423	0.566201
H61	H	1.166945	0.010442	0.755077
C62	C	0.928071	0.195942	0.448845
H63	H	0.891718	0.224158	0.402932
H64	H	0.960103	0.225058	0.489457
H65	H	0.890952	0.170753	0.489451
C66	C	0.820976	-0.033551	0.000090
H67	H	0.786337	-0.072034	0.000089
H68	H	0.857828	-0.035662	0.057758
H69	H	0.857817	-0.035653	-0.057595
H70	H	0.516787	-0.019826	0.000122
C71	C	1.050604	-0.702027	-0.189249
H72	H	1.051230	-0.669904	-0.242939
H73	H	0.997919	-0.725151	-0.193010
H74	H	1.102221	-0.735720	-0.192989
H75	H	1.061703	-0.115470	-0.163453
H76	H	1.053307	-0.559506	-0.163486
H77	H	1.059151	-0.247632	0.163664
C78	C	0.625073	-0.036443	0.000115
H79	H	0.672718	-0.073711	0.000126
H80	H	0.589133	-0.039623	-0.057555
H81	H	0.589137	-0.039626	0.057798
H82	H	1.166909	0.010434	0.433989
H83	H	1.059194	-0.247586	-0.163461
H84	H	1.050757	-0.691670	0.163637
H85	H	1.053263	-0.559549	0.163648
C86	C	0.291488	0.226425	0.000097
H87	H	0.326129	0.264906	0.000074
H88	H	0.254645	0.228533	0.057773
H89	H	0.254639	0.228531	-0.057580
H90	H	1.166903	0.010433	0.245133
C91	C	1.184355	-0.003106	0.551335
H92	H	1.220691	-0.031339	0.597243
H93	H	1.221479	0.022058	0.510710
H94	H	1.152285	-0.032214	0.510742
H95	H	0.764910	0.215187	0.000050
C96	C	0.487390	0.229308	0.000078
H97	H	0.439749	0.266579	0.000085
H98	H	0.523329	0.232491	-0.057596
H99	H	0.523329	0.232482	0.057757
C100	C	0.928082	0.195958	0.230240
H101	H	0.891757	0.224192	0.276146
H102	H	0.890948	0.170793	0.189642
H103	H	0.960142	0.225065	0.189618
H104	H	0.595672	0.212689	0.000071
