data_functionalizedCrystal
_audit_creation_method	'MofGen! by Chris Wilmer'
_symmetry_space_group_name_H-M	'P1'
_symmetry_Int_Tables_number	1
_symmetry_cell_setting	triclinic
loop_
_symmetry_equiv_pos_as_xyz
  x,y,z
_cell_length_a	16.992694
_cell_length_b	22.010155
_cell_length_c	23.532416
_cell_angle_alpha	89.997898
_cell_angle_beta	93.239765
_cell_angle_gamma	90.010093
loop_
_atom_site_label
_atom_site_type_symbol
_atom_site_fract_x
_atom_site_fract_y
_atom_site_fract_z
O1	O	1.039469	0.050444	-0.120714
O2	O	1.539469	0.550444	0.379286
O3	O	0.811194	0.050462	-0.119390
O4	O	1.311194	0.550462	0.380610
O5	O	0.932212	0.050452	-0.037462
O6	O	1.432212	0.550452	0.462538
O7	O	0.918452	0.050453	-0.202642
O8	O	1.418452	0.550453	0.297358
O9	O	0.932176	-0.050598	-0.037460
O10	O	1.432176	0.449402	0.462540
O11	O	0.811158	-0.050589	-0.119388
O12	O	1.311158	0.449411	0.380612
O13	O	1.039433	-0.050607	-0.120712
O14	O	1.539433	0.449393	0.379288
Cu15	Cu	0.925292	-0.059824	-0.120050
Cu16	Cu	1.425292	0.440176	0.379950
Cu17	Cu	0.925335	0.059679	-0.120052
Cu18	Cu	1.425335	0.559679	0.379948
O19	O	0.918415	-0.050597	-0.202640
O20	O	1.418415	0.449403	0.297360
C21	C	0.781977	-0.000061	-0.117685
C22	C	1.281977	0.499939	0.382315
C23	C	0.694972	-0.000054	-0.112602
C24	C	1.194972	0.499946	0.387398
N25	N	0.925268	-0.143877	-0.120048
N26	N	1.425268	0.356123	0.379952
C27	C	0.644352	-0.000054	-0.161648
C28	C	1.144352	0.499946	0.338352
C29	C	0.562602	-0.000063	-0.156869
C30	C	1.062602	0.499937	0.343131
C31	C	0.531474	-0.000067	-0.103042
C32	C	1.031474	0.499933	0.396958
C33	C	0.582101	-0.000069	-0.053992
C34	C	1.082101	0.499931	0.446008
C35	C	0.663849	-0.000064	-0.058772
C36	C	1.163849	0.499936	0.441228
C37	C	0.288030	-0.000083	-0.083230
C38	C	0.788030	0.499917	0.416770
C39	C	0.206276	-0.000085	-0.078454
C40	C	0.706276	0.499915	0.421546
C41	C	0.186782	-0.000081	-0.181331
C42	C	0.686782	0.499919	0.318669
C43	C	0.268532	-0.000073	-0.186106
C44	C	0.768532	0.499927	0.313894
C45	C	0.319152	-0.000078	-0.137056
C46	C	0.819152	0.499922	0.362944
N47	N	0.447913	-0.000073	-0.098155
N48	N	0.947913	0.499927	0.401845
N49	N	0.402711	-0.000076	-0.141943
N50	N	0.902711	0.499924	0.358057
C51	C	0.972606	-0.563660	-0.156758
C52	C	1.472606	-0.063660	0.343242
C53	C	0.972615	-0.627268	-0.156757
C54	C	1.472615	-0.127268	0.343243
O55	O	1.012835	-0.660162	-0.187964
O56	O	1.512835	-0.160162	0.312036
N57	N	0.925350	-0.659084	-0.120046
N58	N	1.425350	-0.159084	0.379954
C59	C	0.878079	-0.627289	-0.083330
C60	C	1.378079	-0.127289	0.416670
O61	O	0.837879	-0.660192	-0.052104
O62	O	1.337879	-0.160192	0.447896
C63	C	0.878075	-0.563683	-0.083329
C64	C	1.378075	-0.063683	0.416671
C65	C	0.925337	-0.531870	-0.120046
C66	C	1.425337	-0.031870	0.379954
C67	C	1.019864	-0.531847	-0.193472
C68	C	1.519864	-0.031847	0.306528
C69	C	1.019854	-0.468244	-0.193473
C70	C	1.519854	0.031756	0.306527
C71	C	0.972585	-0.436454	-0.156761
C72	C	1.472585	0.063546	0.343239
C73	C	0.925326	-0.468267	-0.120047
C74	C	1.425326	0.031733	0.379953
C75	C	0.830809	-0.531890	-0.046610
C76	C	1.330809	-0.031890	0.453390
C77	C	0.830809	-0.468279	-0.046611
C78	C	1.330809	0.031721	0.453389
C79	C	0.878071	-0.436466	-0.083328
C80	C	1.378071	0.063534	0.416672
C81	C	0.878046	-0.372873	-0.083337
C82	C	1.378046	0.127127	0.416663
N83	N	0.925311	-0.341057	-0.120047
N84	N	1.425311	0.158943	0.379953
C85	C	0.972580	-0.372847	-0.156760
C86	C	1.472580	0.127153	0.343240
C87	C	0.878093	-0.760867	-0.083335
C88	C	1.378093	-0.260867	0.416665
C89	C	0.878093	-0.824473	-0.083339
C90	C	1.378093	-0.324473	0.416661
C91	C	0.972630	-0.824446	-0.156766
C92	C	1.472630	-0.324446	0.343234
C93	C	0.972626	-0.760840	-0.156764
C94	C	1.472626	-0.260840	0.343236
C95	C	0.925358	-0.729051	-0.120046
C96	C	1.425358	-0.229051	0.379954
C97	C	0.972554	-0.239276	-0.156761
C98	C	1.472554	0.260724	0.343239
C99	C	0.972537	-0.175667	-0.156761
C100	C	1.472537	0.324333	0.343239
C101	C	0.878003	-0.175699	-0.083332
C102	C	1.378003	0.324301	0.416668
C103	C	0.878017	-0.239302	-0.083334
C104	C	1.378017	0.260698	0.416666
C105	C	0.925299	-0.271089	-0.120050
C106	C	1.425299	0.228911	0.379950
O107	O	0.837849	-0.339938	-0.052144
O108	O	1.337849	0.160062	0.447856
O109	O	1.012782	-0.339936	-0.187975
O110	O	1.512782	0.160064	0.312025
C111	C	1.068650	-0.000082	-0.122417
C112	C	1.568650	0.499918	0.377583
C113	C	1.155655	-0.000085	-0.127500
C114	C	1.655655	0.499915	0.372500
C115	C	0.931842	-0.000072	-0.016228
C116	C	1.431842	0.499928	0.483772
C117	C	0.930785	-0.000068	0.047042
C118	C	1.430785	0.499932	0.547042
N119	N	0.925366	0.143732	-0.120049
N120	N	1.425366	0.643732	0.379951
C121	C	0.926311	0.055014	0.320508
C122	C	1.426311	0.555014	0.820508
C123	C	0.927292	0.055015	0.261059
C124	C	1.427292	0.555015	0.761059
O125	O	0.927844	0.101859	0.230307
O126	O	1.427844	0.601859	0.730307
N127	N	0.927758	-0.000068	0.231334
N128	N	1.427758	0.499932	0.731334
C129	C	0.927251	-0.055156	0.261061
C130	C	1.427251	0.444844	0.761061
O131	O	0.927738	-0.102008	0.230319
O132	O	1.427738	0.397992	0.730319
C133	C	0.926275	-0.055156	0.320509
C134	C	1.426275	0.444844	0.820509
C135	C	0.925801	-0.000069	0.350230
C136	C	1.425801	0.499931	0.850230
C137	C	0.925838	0.110097	0.350230
C138	C	1.425838	0.610097	0.850230
C139	C	0.924855	0.110096	0.409674
C140	C	1.424855	0.610096	0.909674
C141	C	0.924345	0.055012	0.439397
C142	C	1.424345	0.555012	0.939397
C143	C	0.924818	-0.000070	0.409675
C144	C	1.424818	0.499930	0.909675
C145	C	0.925773	-0.110243	0.350235
C146	C	1.425773	0.389757	0.850235
C147	C	0.924798	-0.110238	0.409687
C148	C	1.424798	0.389762	0.909687
C149	C	0.924324	-0.055151	0.439409
C150	C	1.424324	0.444849	0.939409
C151	C	0.923326	-0.055154	0.498842
C152	C	1.423326	0.444846	0.998842
N153	N	0.922860	-0.000071	0.528567
N154	N	1.422860	0.499929	1.028567
C155	C	0.923370	0.055012	0.498845
C156	C	1.423370	0.555012	0.998845
C157	C	0.929301	-0.055151	0.136216
C158	C	1.429301	0.444849	0.636216
C159	C	0.930271	-0.055152	0.076769
C160	C	1.430271	0.444848	0.576769
C161	C	0.930314	0.055019	0.076772
C162	C	1.430314	0.555019	0.576772
C163	C	0.929339	0.055019	0.136219
C164	C	1.429339	0.555019	0.636219
C165	C	0.928835	-0.000068	0.165942
C166	C	1.428835	0.499932	0.665942
C167	C	0.921305	0.055006	0.623682
C168	C	1.421305	0.555006	1.123682
C169	C	0.920319	0.055000	0.683132
C170	C	1.420319	0.555000	1.183132
C171	C	0.920280	-0.055170	0.683125
C172	C	1.420280	0.444830	1.183125
C173	C	0.921262	-0.055165	0.623680
C174	C	1.421262	0.444835	1.123680
C175	C	0.921777	-0.000072	0.593961
C176	C	1.421777	0.499928	1.093961
O177	O	0.922777	-0.101974	0.529632
O178	O	1.422777	0.398026	1.029632
O179	O	0.922893	0.101857	0.529595
O180	O	1.422893	0.601857	1.029595
C181	C	0.918777	-0.000075	0.776125
C182	C	1.418777	0.499925	1.276125
C183	C	0.919809	-0.000083	0.712855
C184	C	1.419809	0.499917	1.212855
H185	H	0.669689	-0.000051	-0.205479
H186	H	1.169689	0.499949	0.294521
N187	N	1.068151	-0.435757	-0.230969
N188	N	1.568151	0.064243	0.269031
N189	N	1.120151	-0.400261	-0.211122
N190	N	1.620151	0.099739	0.288878
H191	H	1.154268	-0.377323	-0.237604
H192	H	1.654268	0.122677	0.262396
H193	H	0.924475	0.154953	0.433868
H194	H	1.424475	0.654953	0.933868
N195	N	0.782542	-0.564385	-0.009102
N196	N	1.282542	-0.064385	0.490898
N197	N	0.782545	-0.621176	-0.009098
N198	N	1.282545	-0.121176	0.490902
H199	H	0.748455	-0.644126	0.017394
H200	H	1.248455	-0.144126	0.517394
N201	N	0.928870	0.111294	0.166567
N202	N	1.428870	0.611294	0.666567
N203	N	0.984250	0.148170	0.162644
N204	N	1.484250	0.648170	0.662644
H205	H	0.983922	0.187918	0.184074
H206	H	1.483922	0.687918	0.684074
H207	H	0.839523	-0.265206	-0.053443
H208	H	1.339523	0.234794	0.446557
N209	N	0.829721	-0.143210	-0.045840
N210	N	1.329721	0.356790	0.454160
N211	N	0.829727	-0.086419	-0.045850
N212	N	1.329727	0.413581	0.454150
H213	H	0.795631	-0.063471	-0.019369
H214	H	1.295631	0.436529	0.480631
N215	N	0.919848	0.111280	0.713481
N216	N	1.419848	0.611280	1.213481
N217	N	0.975231	0.148154	0.709563
N218	N	1.475231	0.648154	1.209563
H219	H	0.974900	0.187902	0.730994
H220	H	1.474900	0.687902	1.230994
N221	N	0.510906	-0.000066	-0.206974
N222	N	1.010906	0.499934	0.293026
N223	N	0.538708	-0.000060	-0.255030
N224	N	1.038708	0.499940	0.244970
H225	H	0.502198	-0.000063	-0.290420
H226	H	1.002198	0.499937	0.209580
H227	H	0.293870	-0.000063	-0.229937
H228	H	0.793870	0.499937	0.270063
N229	N	0.924264	-0.166510	0.440046
N230	N	1.424264	0.333490	0.940046
N231	N	0.868451	-0.178798	0.470486
N232	N	1.368451	0.321202	0.970486
H233	H	0.868070	-0.218540	0.491926
H234	H	1.368070	0.281460	0.991926
N235	N	0.782536	-0.435818	-0.009089
N236	N	1.282536	0.064182	0.490911
N237	N	0.740355	-0.464235	0.023695
N238	N	1.240355	0.035765	0.523695
H239	H	0.706266	-0.441311	0.050198
H240	H	1.206266	0.058689	0.550198
H241	H	0.145559	-0.000078	-0.221264
H242	H	0.645559	0.499922	0.278736
N243	N	1.020920	-0.856913	-0.194274
N244	N	1.520920	-0.356913	0.305726
N245	N	1.011124	-0.849810	-0.246898
N246	N	1.511124	-0.349810	0.253102
H247	H	1.045226	-0.872739	-0.273388
H248	H	1.545226	-0.372739	0.226612
N249	N	0.829785	-0.728400	-0.045839
N250	N	1.329785	-0.228400	0.454161
N251	N	0.777782	-0.692921	-0.065689
N252	N	1.277782	-0.192921	0.434311
H253	H	0.743664	-0.669994	-0.039207
H254	H	1.243664	-0.169994	0.460793
H255	H	0.921725	0.099868	0.599492
H256	H	1.421725	0.599868	1.099492
N257	N	1.020833	-0.271738	-0.194277
N258	N	1.520833	0.228262	0.305723
N259	N	0.989934	-0.307231	-0.230514
N260	N	1.489934	0.192769	0.269486
H261	H	1.024026	-0.330157	-0.257014
H262	H	1.524026	0.169843	0.242986
H263	H	0.921617	-0.100021	0.599478
H264	H	1.421617	0.399979	1.099478
N265	N	0.174492	-0.000088	-0.023464
N266	N	0.674492	0.499912	0.476536
N267	N	0.219695	-0.000092	0.020326
N268	N	0.719695	0.499908	0.520326
H269	H	0.197248	-0.000093	0.059161
H270	H	0.697248	0.499907	0.559161
H271	H	0.926168	-0.155100	0.326046
H272	H	1.426168	0.344900	0.826046
N273	N	0.930836	0.111282	0.046395
N274	N	1.430836	0.611282	0.546395
N275	N	0.931712	0.111268	-0.006682
N276	N	1.431712	0.611268	0.493318
H277	H	0.932081	0.151000	-0.028138
H278	H	1.432081	0.651000	0.471862
H279	H	1.011023	-0.149768	-0.186663
H280	H	1.511023	0.350232	0.313337
N281	N	0.926363	0.166373	0.319884
N282	N	1.426363	0.666373	0.819884
N283	N	0.925944	0.215545	0.346439
N284	N	1.425944	0.715545	0.846439
H285	H	0.926310	0.255294	0.325012
H286	H	1.426310	0.755294	0.825012
N287	N	0.550308	-0.000061	0.000991
N288	N	1.050308	0.499939	0.500991
N289	N	0.565974	0.042536	0.034896
N290	N	1.065974	0.542536	0.534896
H291	H	0.543522	0.042544	0.073729
H292	H	1.043522	0.542544	0.573729
N293	N	0.930737	-0.111427	0.046421
N294	N	1.430737	0.388573	0.546421
N295	N	0.930277	-0.160602	0.072973
N296	N	1.430277	0.339398	0.572973
H297	H	0.930609	-0.200349	0.051542
H298	H	1.430609	0.299651	0.551542
N299	N	0.339718	-0.000086	-0.033123
N300	N	0.839718	0.499914	0.466877
N301	N	0.311912	-0.000086	0.014931
N302	N	0.811912	0.499914	0.514931
H303	H	0.348420	-0.000086	0.050323
H304	H	0.848420	0.499914	0.550323
H305	H	0.705064	-0.000064	-0.018834
H306	H	1.205064	0.499936	0.481166
N307	N	1.068162	-0.564304	-0.230977
N308	N	1.568162	-0.064304	0.269023
N309	N	1.110351	-0.535879	-0.263750
N310	N	1.610351	-0.035879	0.236250
H311	H	1.144461	-0.558798	-0.290243
H312	H	1.644461	-0.058798	0.209757
H313	H	0.928885	-0.100013	0.160412
H314	H	1.428885	0.399987	0.660412
N315	N	1.020912	-0.728356	-0.194269
N316	N	1.520912	-0.228356	0.305731
N317	N	1.063112	-0.756755	-0.227042
N318	N	1.563112	-0.256755	0.272958
H319	H	1.097221	-0.733817	-0.253530
H320	H	1.597221	-0.233817	0.246470
N321	N	0.829798	-0.856955	-0.045839
N322	N	1.329798	-0.356955	0.454161
N323	N	0.787596	-0.828556	-0.013067
N324	N	1.287596	-0.328556	0.486933
H325	H	0.753488	-0.851495	0.013421
H326	H	1.253488	-0.351495	0.513421
N327	N	0.919754	-0.111428	0.713501
N328	N	1.419754	0.388572	1.213501
N329	N	0.918880	-0.111414	0.766578
N330	N	1.418880	0.388586	1.266578
H331	H	0.918512	-0.151147	0.788034
H332	H	1.418512	0.348853	1.288034
