data_functionalizedCrystal
_audit_creation_method	'MofGen! by Chris Wilmer'
_symmetry_space_group_name_H-M	'P1'
_symmetry_Int_Tables_number	1
_symmetry_cell_setting	triclinic
loop_
_symmetry_equiv_pos_as_xyz
  x,y,z
_cell_length_a	19.288864
_cell_length_b	19.288865
_cell_length_c	17.766277
_cell_angle_alpha	89.983501
_cell_angle_beta	89.984341
_cell_angle_gamma	83.136245
loop_
_atom_site_label
_atom_site_type_symbol
_atom_site_fract_x
_atom_site_fract_y
_atom_site_fract_z
O1	O	-0.921345	-0.086655	0.062844
O2	O	-0.421345	0.413345	0.562844
O3	O	-0.719084	-0.098343	0.062794
O4	O	-0.219084	0.401657	0.562794
O5	O	-0.826059	0.008631	0.062806
O6	O	-0.326059	0.508631	0.562806
O7	O	-0.814370	-0.193629	0.062832
O8	O	-0.314370	0.306371	0.562832
O9	O	-0.826057	0.008649	-0.062383
O10	O	-0.326057	0.508649	0.437617
O11	O	-0.719082	-0.098326	-0.062395
O12	O	-0.219082	0.401674	0.437605
O13	O	-0.921343	-0.086637	-0.062344
O14	O	-0.421343	0.413363	0.437656
Cu15	Cu	-0.820212	-0.092480	-0.073800
Cu16	Cu	-0.320212	0.407520	0.426200
Cu17	Cu	-0.820215	-0.092501	0.074250
Cu18	Cu	-0.320215	0.407499	0.574250
O19	O	-0.814368	-0.193612	-0.062356
O20	O	-0.314368	0.306388	0.437644
C21	C	-0.693207	-0.097959	0.000193
C22	C	-0.193207	0.402041	0.500193
C23	C	-0.616103	-0.096830	0.000173
C24	C	-0.116103	0.403170	0.500173
C25	C	-0.825682	0.034516	0.000209
C26	C	-0.325682	0.534516	0.500209
C27	C	-0.824553	0.111620	0.000202
C28	C	-0.324553	0.611620	0.500202
C29	C	-0.814745	-0.219497	0.000242
C30	C	-0.314745	0.280503	0.500242
C31	C	-0.815874	-0.296601	0.000254
C32	C	-0.315874	0.203399	0.500254
C33	C	-0.947220	-0.087022	0.000258
C34	C	-0.447220	0.412978	0.500258
C35	C	-1.024324	-0.088151	0.000283
C36	C	-0.524324	0.411849	0.500283
C37	C	-0.571407	-0.159598	0.000193
C38	C	-0.071407	0.340402	0.500193
C39	C	-0.498960	-0.158537	0.000201
C40	C	0.001040	0.341463	0.500201
C41	C	-0.471212	-0.094705	0.000205
C42	C	0.028788	0.405295	0.500205
C43	C	-0.515918	-0.031929	0.000180
C44	C	-0.015918	0.468071	0.500180
C45	C	-0.588364	-0.032991	0.000164
C46	C	-0.088364	0.467009	0.500164
C47	C	-0.362951	-0.044532	0.044082
C48	C	0.137049	0.455468	0.544082
C49	C	-0.290506	-0.043472	0.044103
C50	C	0.209494	0.456528	0.544103
C51	C	-0.247767	-0.091425	0.000250
C52	C	0.252233	0.408575	0.500250
C53	C	-0.277478	-0.140450	-0.043614
C54	C	0.222522	0.359550	0.456386
C55	C	-0.349924	-0.141513	-0.043630
C56	C	0.150076	0.358487	0.456370
C57	C	-0.392658	-0.093546	0.000221
C58	C	0.107342	0.406454	0.500221
C59	C	-0.124514	-0.153047	0.000278
C60	C	0.375486	0.346953	0.500278
C61	C	-0.052066	-0.151984	0.000281
C62	C	0.447934	0.348016	0.500281
C63	C	-0.069026	-0.025374	0.000267
C64	C	0.430974	0.474626	0.500267
C65	C	-0.141473	-0.026439	0.000256
C66	C	0.358527	0.473561	0.500256
C67	C	-0.169212	-0.090278	0.000265
C68	C	0.330788	0.409722	0.500265
N69	N	-0.820215	-0.092465	-0.177931
N70	N	-0.320215	0.407535	0.322069
C71	C	-0.887321	0.156316	0.000214
C72	C	-0.387321	0.656316	0.500214
C73	C	-0.886260	0.228763	0.000226
C74	C	-0.386260	0.728763	0.500226
C75	C	-0.822428	0.256511	0.000210
C76	C	-0.322428	0.756511	0.500210
C77	C	-0.759652	0.211805	0.000203
C78	C	-0.259652	0.711805	0.500203
C79	C	-0.760714	0.139359	0.000198
C80	C	-0.260714	0.639359	0.500198
C81	C	-0.772247	0.364804	-0.043653
C82	C	-0.272247	0.864804	0.456347
C83	C	-0.771188	0.437249	-0.043654
C84	C	-0.271188	0.937249	0.456346
C85	C	-0.819148	0.479956	0.000226
C86	C	-0.319148	0.979956	0.500226
C87	C	-0.868180	0.450212	0.044097
C88	C	-0.368180	0.950212	0.544097
C89	C	-0.869243	0.377767	0.044093
C90	C	-0.369243	0.877767	0.544093
C91	C	-0.821269	0.335065	0.000215
C92	C	-0.321269	0.835065	0.500215
C93	C	-0.880770	0.603209	0.000252
C94	C	-0.380770	1.103209	0.500252
C95	C	-0.879707	0.675657	0.000268
C96	C	-0.379707	1.175657	0.500268
C97	C	-0.753097	0.658697	0.000238
C98	C	-0.253097	1.158697	0.500238
C99	C	-0.754162	0.586250	0.000229
C100	C	-0.254162	1.086250	0.500229
C101	C	-0.818000	0.558511	0.000232
C102	C	-0.318000	1.058511	0.500232
N103	N	-0.820217	-0.092510	0.178380
N104	N	-0.320217	0.407490	0.678380
C105	C	-0.862109	-0.134583	0.782704
C106	C	-0.362109	0.365417	1.282704
C107	C	-0.862114	-0.134585	0.703902
C108	C	-0.362114	0.365415	1.203902
C109	C	-0.820213	-0.092479	0.664469
C110	C	-0.320213	0.407521	1.164469
C111	C	-0.778316	-0.050354	0.703844
C112	C	-0.278316	0.449646	1.203844
C113	C	-0.778318	-0.050347	0.782644
C114	C	-0.278318	0.449653	1.282644
C115	C	-0.757609	-0.090609	0.539607
C116	C	-0.257609	0.409391	1.039607
C117	C	-0.757606	-0.090621	0.460808
C118	C	-0.257606	0.409379	0.960808
C119	C	-0.820209	-0.092497	0.421423
C120	C	-0.320209	0.407503	0.921423
C121	C	-0.882816	-0.094375	0.460846
C122	C	-0.382816	0.405625	0.960846
C123	C	-0.882817	-0.094368	0.539646
C124	C	-0.382817	0.405632	1.039646
C125	C	-0.820207	-0.092482	0.579023
C126	C	-0.320207	0.407518	1.079023
C127	C	-0.862111	-0.134619	0.296611
C128	C	-0.362111	0.365381	0.796611
C129	C	-0.862118	-0.134617	0.217808
C130	C	-0.362118	0.365383	0.717808
C131	C	-0.778314	-0.050390	0.217751
C132	C	-0.278314	0.449610	0.717751
C133	C	-0.778314	-0.050388	0.296553
C134	C	-0.278314	0.449612	0.796553
C135	C	-0.820211	-0.092506	0.335978
C136	C	-0.320211	0.407494	0.835978
H137	H	-0.593987	-0.211580	0.000202
H138	H	-0.093987	0.288420	0.500202
H139	H	-0.709599	0.102967	0.000188
H140	H	-0.209599	0.602967	0.500188
H141	H	-0.896227	-0.168914	0.328713
H142	H	-0.396227	0.331086	0.828713
H143	H	-0.374113	-0.181428	-0.079347
H144	H	0.125887	0.318572	0.420653
C145	C	-0.688741	-0.088549	0.582924
C146	C	-0.188741	0.411451	1.082924
H147	H	-0.651454	-0.087443	0.548161
H148	H	-0.151454	0.412557	1.048161
H149	H	-0.692163	-0.047988	0.613650
H150	H	-0.192163	0.452012	1.113650
H151	H	-0.680113	-0.128958	0.613675
H152	H	-0.180113	0.371042	1.113675
H153	H	-0.177866	0.024674	0.000244
H154	H	0.322134	0.524674	0.500244
H155	H	-0.046435	0.026600	0.000317
H156	H	0.453565	0.526600	0.500317
C157	C	-0.908192	-0.180923	0.660591
C158	C	-0.408192	0.319077	1.160591
H159	H	-0.933140	-0.206009	0.695357
H160	H	-0.433140	0.293991	1.195357
H161	H	-0.940296	-0.152443	0.629843
H162	H	-0.440296	0.347557	1.129843
H163	H	-0.879558	-0.212916	0.629861
H164	H	-0.379558	0.287084	1.129861
C165	C	-0.685116	0.537082	0.000203
C166	C	-0.185116	1.037082	0.500203
H167	H	-0.646947	0.563981	0.000189
H168	H	-0.146947	1.063981	0.500189
H169	H	-0.682897	0.508452	0.043855
H170	H	-0.182897	1.008452	0.543855
H171	H	-0.682902	0.508486	-0.043463
H172	H	-0.182902	1.008486	0.456537
H173	H	-0.896228	-0.168876	0.814799
H174	H	-0.396228	0.331124	1.314799
C175	C	-0.951676	-0.096430	0.583012
C176	C	-0.451676	0.403570	1.083012
H177	H	-0.942707	-0.096163	0.635582
H178	H	-0.442707	0.403837	1.135582
H179	H	-0.983431	-0.056721	0.570093
H180	H	-0.483431	0.443279	1.070093
H181	H	-0.971368	-0.137690	0.570123
H182	H	-0.471368	0.362310	1.070123
C183	C	-0.719490	0.317829	-0.091925
C184	C	-0.219490	0.817829	0.408075
H185	H	-0.727141	0.270424	-0.085640
H186	H	-0.227141	0.770424	0.414360
H187	H	-0.725421	0.330537	-0.143388
H188	H	-0.225421	0.830537	0.356612
H189	H	-0.673358	0.323541	-0.076512
H190	H	-0.173358	0.823541	0.423488
C191	C	-0.923169	0.345046	0.092348
C192	C	-0.423169	0.845046	0.592348
H193	H	-0.916933	0.295785	0.086055
H194	H	-0.416933	0.795785	0.586055
H195	H	-0.916894	0.356083	0.143815
H196	H	-0.416894	0.856083	0.643815
H197	H	-0.968952	0.363077	0.076934
H198	H	-0.468952	0.863077	0.576934
H199	H	-0.707679	0.234401	0.000192
H200	H	-0.207679	0.734401	0.500192
C201	C	-0.732224	-0.004041	0.660471
C202	C	-0.232224	0.495959	1.160471
H203	H	-0.738217	-0.010082	0.607902
H204	H	-0.238217	0.489918	1.107902
H205	H	-0.745368	0.043505	0.673366
H206	H	-0.245368	0.543505	1.173366
H207	H	-0.684644	-0.016982	0.673379
H208	H	-0.184644	0.483018	1.173379
C209	C	-0.920936	0.497180	0.092372
C210	C	-0.420936	0.997180	0.592372
H211	H	-0.913277	0.544585	0.086102
H212	H	-0.413277	1.044585	0.586102
H213	H	-0.967066	0.491472	0.076966
H214	H	-0.467066	0.991472	0.576966
H215	H	-0.914999	0.484468	0.143838
H216	H	-0.414999	0.984468	0.643838
H217	H	-0.933792	-0.095906	0.428780
H218	H	-0.433792	0.404094	0.928780
H219	H	-0.896237	-0.168912	0.185758
H220	H	-0.396237	0.331088	0.685758
C221	C	-0.409958	0.008215	0.092330
C222	C	0.090042	0.508215	0.592330
H223	H	-0.381887	0.037555	0.118465
H224	H	0.118113	0.537555	0.618465
H225	H	-0.441966	0.035854	0.060709
H226	H	0.058034	0.535854	0.560709
H227	H	-0.435011	-0.016229	0.127595
H228	H	0.064989	0.483771	0.627595
C229	C	-0.257830	0.010455	0.092346
C230	C	0.242170	0.510455	0.592346
H231	H	-0.293659	0.038871	0.118450
H232	H	0.206341	0.538871	0.618450
H233	H	-0.226367	-0.013142	0.127627
H234	H	0.273633	0.486858	0.627627
H235	H	-0.233313	0.038917	0.060719
H236	H	0.266687	0.538917	0.560719
C237	C	-0.732223	-0.004074	0.174384
C238	C	-0.232223	0.495926	0.674384
H239	H	-0.738218	-0.010113	0.121815
H240	H	-0.238218	0.489887	0.621815
H241	H	-0.745366	0.043471	0.187283
H242	H	-0.245366	0.543471	0.687283
H243	H	-0.684643	-0.017017	0.187289
H244	H	-0.184643	0.482983	0.687289
C245	C	-0.732222	-0.004067	0.339857
C246	C	-0.232222	0.495933	0.839857
H247	H	-0.707262	0.021006	0.305088
H248	H	-0.207262	0.521006	0.805088
H249	H	-0.760839	0.027928	0.370594
H250	H	-0.260839	0.527928	0.870594
H251	H	-0.700116	-0.032561	0.370597
H252	H	-0.200116	0.467439	0.870597
C253	C	-0.485399	0.038285	0.000188
C254	C	0.014601	0.538285	0.500188
H255	H	-0.435851	0.029928	0.000209
H256	H	0.064149	0.529928	0.500209
H257	H	-0.500735	0.064129	-0.043473
H258	H	-0.000735	0.564129	0.456527
H259	H	-0.500776	0.064112	0.043844
H260	H	-0.000776	0.564112	0.543844
C261	C	-0.732228	-0.004022	0.825948
C262	C	-0.232228	0.495978	1.325948
H263	H	-0.707270	0.021054	0.791180
H264	H	-0.207270	0.521054	1.291180
H265	H	-0.760845	0.027971	0.856688
H266	H	-0.260845	0.527971	1.356688
H267	H	-0.700121	-0.032517	0.856685
H268	H	-0.200121	0.467483	1.356685
C269	C	-0.449785	-0.227584	0.000235
C270	C	0.050215	0.272416	0.500235
H271	H	-0.476682	-0.265755	0.000244
H272	H	0.023318	0.234245	0.500244
H273	H	-0.421147	-0.229803	-0.043410
H274	H	0.078853	0.270197	0.456590
H275	H	-0.421197	-0.229795	0.043908
H276	H	0.078803	0.270205	0.543908
C277	C	-0.230474	-0.193205	-0.091850
C278	C	0.269526	0.306795	0.408150
H279	H	-0.183073	-0.185550	-0.085566
H280	H	0.316927	0.314450	0.414434
H281	H	-0.236199	-0.239335	-0.076422
H282	H	0.263801	0.260665	0.423578
H283	H	-0.243144	-0.187268	-0.143324
H284	H	0.256856	0.312732	0.356676
C285	C	-0.950986	0.572688	0.000265
C286	C	-0.450986	1.072688	0.500265
H287	H	-0.942630	0.523141	0.000251
H288	H	-0.442630	1.023141	0.500251
H289	H	-0.976823	0.588029	0.043929
H290	H	-0.476823	1.088029	0.543929
H291	H	-0.976821	0.588061	-0.043388
H292	H	-0.476821	1.088061	0.456612
C293	C	-0.155031	-0.223265	0.000280
C294	C	0.344969	0.276735	0.500280
H295	H	-0.118032	-0.260497	0.000282
H296	H	0.381968	0.239503	0.500282
H297	H	-0.182955	-0.226318	0.043931
H298	H	0.317045	0.273682	0.543931
H299	H	-0.182923	-0.226304	-0.043386
H300	H	0.317077	0.273696	0.456614
H301	H	-0.706627	-0.089095	0.428716
H302	H	-0.206627	0.410905	0.928716
H303	H	-0.624756	0.018124	0.000148
H304	H	-0.124756	0.518124	0.500148
H305	H	-0.939303	0.133736	0.000220
H306	H	-0.439303	0.633736	0.500220
H307	H	-0.701123	0.681288	0.000229
H308	H	-0.201123	1.181288	0.500229
C309	C	-0.002899	-0.221032	0.000304
C310	C	0.497101	0.278968	0.500304
H311	H	-0.029799	-0.259201	0.000313
H312	H	0.470201	0.240799	0.500313
H313	H	0.025732	-0.223249	-0.043347
H314	H	0.525732	0.276751	0.456653
H315	H	0.025695	-0.223250	0.043971
H316	H	0.525695	0.276750	0.543971
C317	C	-0.717255	0.469964	-0.091905
C318	C	-0.217255	0.969964	0.408095
H319	H	-0.723495	0.519227	-0.085625
H320	H	-0.223495	1.019227	0.414375
H321	H	-0.671477	0.451932	-0.076489
H322	H	-0.171477	0.951932	0.423511
H323	H	-0.723529	0.458925	-0.143375
H324	H	-0.223529	0.958925	0.356625
H325	H	-0.937375	0.265162	0.000238
H326	H	-0.437375	0.765162	0.500238
C327	C	-0.948753	0.724826	0.000290
C328	C	-0.448753	1.224826	0.500290
H329	H	-0.938979	0.771946	0.000303
H330	H	-0.438979	1.271946	0.500303
H331	H	-0.974938	0.716457	-0.043361
H332	H	-0.474938	1.216457	0.456639
H333	H	-0.974936	0.716418	0.043956
H334	H	-0.474936	1.216418	0.543956
