data_functionalizedCrystal
_audit_creation_method	'MofGen! by Chris Wilmer'
_symmetry_space_group_name_H-M	'P1'
_symmetry_Int_Tables_number	1
_symmetry_cell_setting	triclinic
loop_
_symmetry_equiv_pos_as_xyz
  x,y,z
_cell_length_a	10.654544
_cell_length_b	19.188924
_cell_length_c	17.666332
_cell_angle_alpha	89.992709
_cell_angle_beta	89.989690
_cell_angle_gamma	83.813408
loop_
_atom_site_label
_atom_site_type_symbol
_atom_site_fract_x
_atom_site_fract_y
_atom_site_fract_z
O1	O	1.665772	0.098062	-0.062971
O2	O	2.165772	0.598062	0.437029
O3	O	1.300095	0.107405	-0.062969
O4	O	1.800095	0.607405	0.437031
O5	O	1.493490	0.001146	-0.062961
O6	O	1.993490	0.501146	0.437039
O7	O	1.472376	0.204320	-0.062979
O8	O	1.972376	0.704320	0.437021
O9	O	1.493456	0.001143	0.062936
O10	O	1.993456	0.501143	0.562936
O11	O	1.300061	0.107401	0.062928
O12	O	1.800061	0.607401	0.562928
O13	O	1.665738	0.098058	0.062926
O14	O	2.165738	0.598058	0.562926
Cu15	Cu	1.482896	0.102729	0.074422
Cu16	Cu	1.982896	0.602729	0.574422
Cu17	Cu	1.482936	0.102733	-0.074465
Cu18	Cu	1.982936	0.602733	0.425535
O19	O	1.472342	0.204317	0.062918
O20	O	1.972342	0.704317	0.562918
C21	C	1.253294	0.106717	-0.000020
C22	C	1.753294	0.606717	0.499980
C23	C	1.113894	0.104665	-0.000019
C24	C	1.613894	0.604665	0.499981
C25	C	1.113832	0.104669	0.137238
C26	C	1.613832	0.604669	0.637238
C27	C	1.048312	0.103709	0.205863
C28	C	1.548312	0.603709	0.705863
C29	C	0.917334	0.101780	0.205860
C30	C	1.417334	0.601780	0.705860
C31	C	0.851875	0.100808	0.137224
C32	C	1.351875	0.600808	0.637224
C33	C	0.917395	0.101768	0.068598
C34	C	1.417395	0.601768	0.568598
C35	C	1.048375	0.103700	0.068609
C36	C	1.548375	0.603700	0.568609
C37	C	0.917458	0.101758	-0.068657
C38	C	1.417458	0.601758	0.431343
C39	C	1.048435	0.103693	-0.068655
C40	C	1.548435	0.603693	0.431345
C41	C	0.851999	0.100787	-0.137293
C42	C	1.351999	0.600787	0.362707
C43	C	0.917518	0.101752	-0.205921
C44	C	1.417518	0.601752	0.294079
C45	C	1.048503	0.103682	-0.205915
C46	C	1.548503	0.603682	0.294085
C47	C	1.113955	0.104653	-0.137281
C48	C	1.613955	0.604653	0.362719
C49	C	1.492791	-0.024871	-0.000012
C50	C	1.992791	0.475129	0.499988
C51	C	1.490743	-0.102389	-0.000010
C52	C	1.990743	0.397611	0.499990
C53	C	1.489805	-0.138793	-0.068637
C54	C	1.989805	0.361207	0.431363
C55	C	1.487863	-0.211628	-0.068642
C56	C	1.987863	0.288372	0.431358
C57	C	1.486883	-0.248059	-0.000018
C58	C	1.986883	0.251941	0.499982
C59	C	1.487814	-0.211646	0.068618
C60	C	1.987814	0.288354	0.568618
C61	C	1.489744	-0.138812	0.068622
C62	C	1.989744	0.361188	0.568622
N63	N	1.555303	-0.367276	0.051058
N64	N	2.055303	0.132724	0.551058
N65	N	1.553472	-0.436466	0.051049
N66	N	2.053472	0.063534	0.551049
C67	C	1.481067	-0.467506	-0.000025
C68	C	1.981067	0.032494	0.499975
N69	N	1.410577	-0.426743	-0.051102
N70	N	1.910577	0.073257	0.448898
N71	N	1.412413	-0.357547	-0.051096
N72	N	1.912413	0.142453	0.448904
C73	C	1.484790	-0.327036	-0.000014
C74	C	1.984790	0.172964	0.499986
C75	C	1.478021	-0.582886	-0.068662
C76	C	1.978021	-0.082886	0.431338
C77	C	1.476071	-0.655722	-0.068665
C78	C	1.976071	-0.155722	0.431335
C79	C	1.476035	-0.655740	0.068597
C80	C	1.976035	-0.155740	0.568597
C81	C	1.477972	-0.582904	0.068598
C82	C	1.977972	-0.082904	0.568598
C83	C	1.478971	-0.546482	-0.000034
C84	C	1.978971	-0.046482	0.499966
C85	C	1.712538	0.098746	-0.000025
C86	C	2.212538	0.598746	0.499975
C87	C	1.851938	0.100798	-0.000031
C88	C	2.351938	0.600798	0.499969
C89	C	1.473041	0.230334	-0.000033
C90	C	1.973041	0.730334	0.499967
C91	C	1.475090	0.307852	-0.000040
C92	C	1.975090	0.807852	0.499960
N93	N	1.482877	0.102726	0.179142
N94	N	1.982877	0.602726	0.679142
N95	N	1.482965	0.102731	-0.179185
N96	N	1.982965	0.602731	0.320815
C97	C	1.558792	0.145468	0.218741
C98	C	2.058792	0.645468	0.718741
C99	C	1.558812	0.145466	0.297988
C100	C	2.058812	0.645466	0.797988
C101	C	1.482894	0.102730	0.337634
C102	C	1.982894	0.602730	0.837634
C103	C	1.406974	0.059980	0.298025
C104	C	1.906974	0.559980	0.798025
C105	C	1.406965	0.059978	0.218779
C106	C	1.906965	0.559978	0.718779
N107	N	1.372912	0.100291	0.462074
N108	N	1.872912	0.600291	0.962074
N109	N	1.372923	0.100297	0.537355
N110	N	1.872923	0.600297	1.037355
C111	C	1.482917	0.102733	0.576398
C112	C	1.982917	0.602733	1.076398
N113	N	1.592899	0.105176	0.537316
N114	N	2.092899	0.605176	1.037316
N115	N	1.592886	0.105174	0.462029
N116	N	2.092886	0.605174	0.962029
C117	C	1.482895	0.102728	0.423563
C118	C	1.982895	0.602728	0.923563
C119	C	1.558860	0.145475	0.701926
C120	C	2.058860	0.645475	1.201926
C121	C	1.558883	0.145468	0.781175
C122	C	2.058883	0.645468	1.281175
C123	C	1.407033	0.059986	0.781211
C124	C	1.907033	0.559986	1.281211
C125	C	1.407022	0.059989	0.701963
C126	C	1.907022	0.559989	1.201963
C127	C	1.482933	0.102737	0.662325
C128	C	1.982933	0.602737	1.162325
H129	H	1.101843	0.104462	-0.261799
H130	H	1.601843	0.604462	0.238201
H131	H	1.220603	0.106229	-0.137270
H132	H	1.720603	0.606229	0.362730
N133	N	1.640684	0.191566	0.175992
N134	N	2.140684	0.691566	0.675992
H135	H	1.702313	0.161482	0.143112
H136	H	2.202313	0.661482	0.643112
H137	H	1.585732	0.225449	0.143157
H138	H	2.085732	0.725449	0.643157
H139	H	0.863986	0.101003	0.261741
H140	H	1.363986	0.601003	0.761741
H141	H	1.101624	0.104498	0.261746
H142	H	1.601624	0.604498	0.761746
H143	H	1.345198	0.025186	0.669721
H144	H	1.845198	0.525186	1.169721
H145	H	1.220479	0.106250	0.137247
H146	H	1.720479	0.606250	0.637247
H147	H	1.620632	0.180274	0.330236
H148	H	2.120632	0.680274	0.830236
H149	H	1.345162	0.025183	0.330310
H150	H	1.845162	0.525183	0.830310
N151	N	1.640737	0.191572	0.659161
N152	N	2.140737	0.691572	1.159161
H153	H	1.615687	0.242243	0.672949
H154	H	2.115687	0.742243	1.172949
H155	H	1.732154	0.178211	0.672953
H156	H	2.232154	0.678211	1.172953
N157	N	1.325084	0.013874	0.176063
N158	N	1.825084	0.513874	0.676063
H159	H	1.276995	-0.013203	0.213200
H160	H	1.776995	0.486797	0.713200
H161	H	1.263520	0.043998	0.143189
H162	H	1.763520	0.543998	0.643189
N163	N	0.710608	0.098724	0.137214
N164	N	1.210608	0.598724	0.637214
H165	H	0.689498	0.055053	0.110274
H166	H	1.189498	0.555053	0.610274
H167	H	0.679125	0.098287	0.191121
H168	H	1.179125	0.598287	0.691121
N169	N	1.486769	-0.250935	0.142636
N170	N	1.986769	0.249065	0.642636
H171	H	1.408146	-0.275875	0.145696
H172	H	1.908146	0.224125	0.645696
H173	H	1.563856	-0.286398	0.145645
H174	H	2.063856	0.213602	0.645645
N175	N	1.640814	0.191545	0.823890
N176	N	2.140814	0.691545	1.323890
H177	H	1.688909	0.218618	0.786751
H178	H	2.188909	0.718618	1.286751
H179	H	1.585908	0.225397	0.856787
H180	H	2.085908	0.725397	1.356787
H181	H	1.490502	-0.109172	0.124507
H182	H	1.990502	0.390828	0.624507
N183	N	0.710732	0.098700	-0.137294
N184	N	1.210732	0.598700	0.362706
H185	H	0.668750	0.141442	-0.110361
H186	H	1.168750	0.641442	0.389639
H187	H	0.679312	0.098204	-0.191204
H188	H	1.179312	0.598204	0.308796
N189	N	1.479012	-0.543640	0.142619
N190	N	1.979012	-0.043640	0.642619
H191	H	1.480385	-0.491972	0.132208
H192	H	1.980385	0.008028	0.632208
H193	H	1.400838	-0.551089	0.172590
H194	H	1.900838	-0.051089	0.672590
H195	H	0.864211	0.100956	-0.261799
H196	H	1.364211	0.600956	0.238201
N197	N	1.479094	-0.543595	-0.142681
N198	N	1.979094	-0.043595	0.357319
H199	H	1.478195	-0.577711	-0.186159
H200	H	1.978195	-0.077711	0.313841
H201	H	1.402069	-0.508087	-0.145669
H202	H	1.902069	-0.008087	0.354331
H203	H	1.345220	0.025188	0.813489
H204	H	1.845220	0.525188	1.313489
H205	H	1.490615	-0.109142	-0.124522
H206	H	1.990615	0.390858	0.375478
H207	H	1.487092	-0.241273	-0.124528
H208	H	1.987092	0.258727	0.375472
N209	N	1.475144	-0.694975	-0.142700
N210	N	1.975144	-0.194975	0.357300
H211	H	1.397696	-0.677016	-0.172738
H212	H	1.897696	-0.177016	0.327262
H213	H	1.553406	-0.687540	-0.172594
H214	H	2.053406	-0.187540	0.327406
H215	H	1.475227	-0.685401	0.124472
H216	H	1.975227	-0.185401	0.624472
