data_functionalizedCrystal
_audit_creation_method	'MofGen! by Chris Wilmer'
_symmetry_space_group_name_H-M	'P1'
_symmetry_Int_Tables_number	1
_symmetry_cell_setting	triclinic
loop_
_symmetry_equiv_pos_as_xyz
  x,y,z
_cell_length_a	16.625546
_cell_length_b	17.077404
_cell_length_c	16.625539
_cell_angle_alpha	90.016978
_cell_angle_beta	90.028532
_cell_angle_gamma	90.022693
loop_
_atom_site_label
_atom_site_type_symbol
_atom_site_fract_x
_atom_site_fract_y
_atom_site_fract_z
Zn1	Zn	-0.321010	1.200037	0.455896
Zn2	Zn	0.178990	1.700037	0.955896
Zn3	Zn	-0.455849	1.199951	0.321058
Zn4	Zn	0.044151	1.699951	0.821058
Zn5	Zn	-0.321035	1.068775	0.321077
Zn6	Zn	0.178965	1.568775	0.821077
Zn7	Zn	-0.455805	1.068738	0.455848
Zn8	Zn	0.044195	1.568738	0.955848
O9	O	-0.388425	1.134375	0.388470
O10	O	0.111575	1.634375	0.888470
O11	O	-0.338905	1.309873	0.438022
O12	O	0.161095	1.809873	0.938022
O13	O	-0.437994	1.182530	0.208228
O14	O	0.062006	1.682530	0.708228
O15	O	-0.208199	1.086239	0.338988
O16	O	0.291801	1.586239	0.838988
O17	O	-0.437970	1.309810	0.338957
O18	O	0.062030	1.809810	0.838957
O19	O	-0.208181	1.182677	0.438040
O20	O	0.291819	1.682677	0.938040
O21	O	-0.338946	1.086155	0.208242
O22	O	0.161054	1.586155	0.708242
O23	O	-0.338904	0.958923	0.338942
O24	O	0.161096	1.458923	0.838942
O25	O	-0.437896	1.086176	0.568687
O26	O	0.062104	1.586176	1.068687
O27	O	-0.437919	0.958896	0.437958
O28	O	0.062081	1.458896	0.937958
O29	O	-0.338862	1.182641	0.568722
O30	O	0.161138	1.682641	1.068722
O31	O	-0.568676	1.182494	0.338911
O32	O	-0.068676	1.682494	0.838911
O33	O	-0.568643	1.086092	0.437940
O34	O	-0.068643	1.586092	0.937940
C35	C	-0.388410	0.930428	0.388448
C36	C	0.111590	1.430428	0.888448
C37	C	-0.388423	0.843178	0.388457
C38	C	0.111577	1.343178	0.888457
C39	C	-0.440058	0.802194	0.439932
C40	C	0.059942	1.302194	0.939932
C41	C	-0.440060	0.720214	0.439945
C42	C	0.059940	1.220214	0.939945
C43	C	-0.388430	0.679218	0.388478
C44	C	0.111570	1.179218	0.888478
C45	C	-0.336789	0.720208	0.337001
C46	C	0.163211	1.220208	0.837001
C47	C	-0.336784	0.802187	0.336993
C48	C	0.163216	1.302187	0.836993
C49	C	-0.336805	0.549338	0.337020
C50	C	0.163195	1.049338	0.837020
C51	C	-0.336811	0.467353	0.337027
C52	C	0.163189	0.967353	0.837027
C53	C	-0.440081	0.467365	0.439973
C54	C	0.059919	0.967365	0.939973
C55	C	-0.440076	0.549344	0.439964
C56	C	0.059924	1.049344	0.939964
C57	C	-0.388436	0.590327	0.388486
C58	C	0.111564	1.090327	0.888486
C59	C	-0.597916	1.134301	0.388436
C60	C	-0.097916	1.634301	0.888436
C61	C	-0.687537	1.134341	0.388449
C62	C	-0.187537	1.634341	0.888449
C63	C	-1.015712	1.134478	0.388533
C64	C	-0.515712	1.634478	0.888533
C65	C	-0.924404	1.134437	0.388511
C66	C	-0.424404	1.634437	0.888511
C67	C	-0.851627	1.134409	0.388490
C68	C	-0.351627	1.634409	0.888490
C69	C	-0.760313	1.134370	0.388470
C70	C	-0.260313	1.634370	0.888470
C71	C	-0.178116	1.134471	0.388521
C72	C	0.321884	1.634471	0.888521
C73	C	-0.088495	1.134512	0.388543
C74	C	0.411505	1.634512	0.888543
C75	C	-0.388371	1.134414	0.598779
C76	C	0.111629	1.634414	1.098779
C77	C	-0.388349	1.134430	0.688400
C78	C	0.111651	1.634430	1.188400
C79	C	-0.388440	1.339120	0.388493
C80	C	0.111560	1.839120	0.888493
C81	C	-0.388446	1.426369	0.388502
C82	C	0.111554	1.926369	0.888502
C83	C	-0.388419	1.134382	0.178979
C84	C	0.111581	1.634382	0.678979
C85	C	-0.388215	1.134518	0.089358
C86	C	0.111785	1.634518	0.589358
C87	C	-0.388331	1.134443	0.761182
C88	C	0.111669	1.634443	1.261182
C89	C	-0.388301	1.134461	0.852491
C90	C	0.111699	1.634461	1.352491
C91	C	-0.388273	1.134480	0.925267
C92	C	0.111727	1.634480	1.425267
C93	C	-0.388243	1.134499	1.016582
C94	C	0.111757	1.634499	1.516582
H95	H	-0.482126	0.433992	0.481891
H96	H	0.017874	0.933992	0.981891
H97	H	-0.482122	0.582720	0.481869
H98	H	0.017878	1.082720	0.981869
H99	H	-0.482104	0.835567	0.481840
H100	H	0.017896	1.335567	0.981840
F101	F	-0.281864	0.423724	0.282248
F102	F	0.218136	0.923724	0.782248
F103	F	-0.281825	0.845804	0.282208
F104	F	0.218175	1.345804	0.782208
F105	F	-0.281843	0.592954	0.282232
F106	F	0.218157	1.092954	0.782232
H107	H	-0.294748	0.686823	0.295099
H108	H	0.205252	1.186823	0.795099
H109	H	-0.482107	0.686848	0.481860
H110	H	0.017893	1.186848	0.981860
