data_functionalizedCrystal
_audit_creation_method	'MofGen! by Chris Wilmer'
_symmetry_space_group_name_H-M	'P1'
_symmetry_Int_Tables_number	1
_symmetry_cell_setting	triclinic
loop_
_symmetry_equiv_pos_as_xyz
  x,y,z
_cell_length_a	13.339070
_cell_length_b	14.048226
_cell_length_c	14.971506
_cell_angle_alpha	89.994404
_cell_angle_beta	99.625841
_cell_angle_gamma	89.993818
loop_
_atom_site_label
_atom_site_type_symbol
_atom_site_fract_x
_atom_site_fract_y
_atom_site_fract_z
O1	O	1.342865	-0.079188	0.448558
O2	O	1.048262	-0.079184	0.389682
O3	O	1.203449	-0.079182	0.290870
O4	O	1.187678	-0.079190	0.547369
O5	O	1.203430	0.079140	0.290858
O6	O	1.048243	0.079138	0.389669
O7	O	1.342846	0.079133	0.448545
Zn8	Zn	1.195541	0.104272	0.419105
Zn9	Zn	1.195566	-0.104323	0.419122
O10	O	1.187659	0.079131	0.547356
C11	C	1.010550	-0.000022	0.379730
C12	C	0.898210	-0.000020	0.350086
C13	C	1.202730	-0.000022	0.257364
C14	C	1.200606	-0.000025	0.157543
N15	N	1.195532	0.246633	0.419095
C16	C	0.533715	-0.000043	0.580585
C17	C	0.639264	-0.000048	0.608440
C18	C	0.704005	-0.000040	0.543854
C19	C	0.663188	-0.000029	0.451408
C20	C	0.557629	-0.000032	0.423550
C21	C	0.727919	-0.000030	0.386819
C22	C	0.687102	-0.000018	0.294373
C23	C	0.581553	-0.000020	0.266520
C24	C	0.516812	-0.000028	0.331106
C25	C	0.833478	-0.000027	0.414677
C26	C	0.857393	-0.000016	0.257642
C27	C	0.751844	-0.000011	0.229787
C28	C	1.380557	-0.000030	0.458496
C29	C	1.492898	-0.000038	0.488141
N30	N	1.195584	-0.246684	0.419127
C31	C	1.264270	0.296452	0.375372
C32	C	1.264277	0.396109	0.375373
C33	C	1.195550	0.445946	0.419103
C34	C	1.126804	0.396121	0.462828
C35	C	1.126793	0.296465	0.462820
C36	C	1.126833	0.603835	0.462841
C37	C	1.126845	0.703498	0.462850
C38	C	1.264317	0.703480	0.375394
C39	C	1.264307	0.603824	0.375387
C40	C	1.195562	0.554005	0.419113
C41	C	1.188377	-0.000031	0.580862
C42	C	1.190502	-0.000034	0.680684
C43	C	1.107440	-0.000022	1.098431
C44	C	1.105452	-0.000018	1.004639
C45	C	1.196630	-0.000024	0.969961
C46	C	1.289803	-0.000024	1.029081
C47	C	1.291790	-0.000021	1.122871
C48	C	1.285654	-0.000032	0.833592
C49	C	1.283667	-0.000037	0.739796
C50	C	1.099316	-0.000030	0.715361
C51	C	1.101303	-0.000027	0.809151
C52	C	1.194476	-0.000028	0.868264
H53	H	0.866701	-0.000032	0.489947
H54	H	1.070840	0.436704	0.498430
H55	H	1.361526	-0.000029	0.881720
C56	C	1.339871	0.241640	0.327266
H57	H	1.380802	0.285587	0.301219
H58	H	1.382030	0.202747	0.369921
H59	H	1.303412	0.202781	0.280960
C60	C	0.462501	-0.000051	0.651617
H61	H	0.393793	-0.000046	0.621784
H62	H	0.474893	-0.055262	0.688449
H63	H	0.474872	0.055165	0.688438
C64	C	1.339899	0.450906	0.327288
H65	H	1.380839	0.406952	0.301255
H66	H	1.303468	0.489799	0.280989
H67	H	1.382063	0.489764	0.369965
H68	H	0.789947	-0.000047	0.566539
H69	H	0.718595	-0.000010	0.154516
C70	C	1.007145	-0.000019	1.136573
H71	H	1.021669	-0.000027	1.200897
H72	H	0.968941	0.055192	1.116174
H73	H	0.968954	-0.055236	1.116187
H74	H	1.070818	0.255903	0.498423
C75	C	1.339927	0.758276	0.327287
H76	H	1.330084	0.824765	0.333542
H77	H	1.407472	0.741930	0.353798
H78	H	1.328856	0.741950	0.264835
C79	C	1.051183	0.758317	0.510880
H80	H	1.010212	0.714376	0.536889
H81	H	1.087569	0.797209	0.557189
H82	H	1.009055	0.797177	0.468162
C83	C	1.051220	0.549036	0.510944
H84	H	1.010297	0.592988	0.536999
H85	H	1.009052	0.510172	0.468284
H86	H	1.087674	0.510150	0.557243
C87	C	1.390100	-0.000030	0.990942
H88	H	1.445871	-0.000023	1.039582
H89	H	1.393161	-0.055242	0.954871
H90	H	1.393152	0.055185	0.954855
H91	H	1.029587	-0.000023	0.956513
H92	H	1.027058	-0.000029	0.837382
C93	C	1.394272	-0.000026	1.187894
H94	H	1.448291	-0.000038	1.153810
H95	H	1.398874	0.055185	1.224981
H96	H	1.398883	-0.055242	1.224996
C97	C	0.996828	-0.000024	0.650341
H98	H	1.008700	-0.000016	0.589516
H99	H	0.959288	-0.055234	0.660697
H100	H	0.959275	0.055193	0.660686
C101	C	1.383961	-0.000036	0.701651
H102	H	1.439736	-0.000023	0.750287
H103	H	1.387025	-0.055248	0.665580
H104	H	1.387002	0.055179	0.665562
H105	H	0.430864	-0.000023	0.308431
C106	C	0.684156	-0.000049	0.710121
H107	H	0.630484	-0.000042	0.744597
H108	H	0.724847	-0.055256	0.724260
H109	H	0.724824	0.055171	0.724243
H110	H	0.548324	-0.000022	0.191244
H111	H	0.910106	-0.000014	0.205050
H112	H	1.320274	0.563247	0.339784
