data_functionalizedCrystal
_audit_creation_method	'MofGen! by Chris Wilmer'
_symmetry_space_group_name_H-M	'P1'
_symmetry_Int_Tables_number	1
_symmetry_cell_setting	triclinic
loop_
_symmetry_equiv_pos_as_xyz
  x,y,z
_cell_length_a	6.817900
_cell_length_b	11.168121
_cell_length_c	19.453030
_cell_angle_alpha	94.532615
_cell_angle_beta	101.707737
_cell_angle_gamma	108.508496
loop_
_atom_site_label
_atom_site_type_symbol
_atom_site_fract_x
_atom_site_fract_y
_atom_site_fract_z
V1	V	-4.032625	-0.176019	-0.219005
O2	O	-3.993682	0.007106	-0.214830
O3	O	-4.009439	-0.347715	-0.217512
O4	O	-3.975222	-0.173905	-0.314517
O5	O	-4.028136	-0.167908	-0.117153
V6	V	-4.514152	-0.154045	-0.206822
O7	O	-4.298261	-0.224221	-0.245729
O8	O	-4.698714	-0.105843	-0.180097
O9	O	-4.314132	0.017651	-0.208314
O10	O	-4.670492	-0.337170	-0.210997
O11	O	-4.636038	-0.162156	-0.308673
O12	O	-4.348349	-0.156159	-0.111309
C13	C	-3.860865	-0.389553	-0.214059
C14	C	-3.923134	-0.529921	-0.213476
C15	C	-3.817217	-0.167839	-0.337798
C16	C	-3.851734	-0.167246	-0.415880
C17	C	-4.124560	-0.598631	-0.216547
C18	C	-4.188922	-0.743709	-0.215944
C19	C	-3.924175	-0.282665	-0.462589
C20	C	-3.956634	-0.282121	-0.535957
C21	C	-3.916605	-0.166152	-0.562612
C22	C	-3.844163	-0.050719	-0.515893
C23	C	-3.811728	-0.051266	-0.442527
N24	N	-3.811577	-0.075228	-0.668103
N25	N	-3.842389	-0.074716	-0.737798
C26	C	-4.014333	-0.164496	-0.783659
N27	N	-4.154286	-0.254827	-0.757193
N28	N	-4.123464	-0.255343	-0.687491
C29	C	-3.951771	-0.165546	-0.642164
C30	C	-4.121977	-0.279334	-0.909923
C31	C	-4.154445	-0.278786	-0.983292
C32	C	-4.041953	-0.047379	-0.963226
C33	C	-4.009506	-0.047931	-0.889859
C34	C	-4.049512	-0.163911	-0.863212
C35	C	-4.126049	0.059482	-0.211765
C36	C	-4.043018	0.199848	-0.212353
C37	C	-4.169697	-0.162230	-0.088025
C38	C	-4.114418	-0.162816	-0.009942
H39	H	-4.249360	-0.550053	-0.219627
H40	H	-3.798338	-0.578501	-0.210404
H41	H	-3.956765	-0.377105	-0.440898
H42	H	-4.361473	-0.802773	-0.218566
H43	H	-3.752737	0.042724	-0.404495
H44	H	-4.015619	-0.376112	-0.573995
H45	H	-3.811579	0.043704	-0.537600
H46	H	-4.009373	0.047045	-0.984928
H47	H	-3.870457	-0.741092	-0.209721
H48	H	-3.950506	0.046056	-0.851826
H49	H	-4.154555	-0.373772	-0.888226
H50	H	-4.213450	-0.372778	-1.021323
