data_functionalizedCrystal
_audit_creation_method	'MofGen! by Chris Wilmer'
_symmetry_space_group_name_H-M	'P1'
_symmetry_Int_Tables_number	1
_symmetry_cell_setting	triclinic
loop_
_symmetry_equiv_pos_as_xyz
  x,y,z
_cell_length_a	16.120490
_cell_length_b	16.120484
_cell_length_c	12.759393
_cell_angle_alpha	92.862882
_cell_angle_beta	87.082392
_cell_angle_gamma	90.164100
loop_
_atom_site_label
_atom_site_type_symbol
_atom_site_fract_x
_atom_site_fract_y
_atom_site_fract_z
Zn1	Zn	1.254497	-0.395616	-0.699332
Zn2	Zn	1.247335	-0.534690	-0.532064
Zn3	Zn	1.115430	-0.388592	-0.514342
Zn4	Zn	1.108348	-0.527561	-0.698374
O5	O	1.181402	-0.461615	-0.611028
O6	O	1.369912	-0.419988	-0.684961
O7	O	1.229804	-0.515353	-0.382693
O8	O	1.139839	-0.273161	-0.531865
O9	O	1.364651	-0.522165	-0.562070
O10	O	1.242010	-0.278322	-0.667776
O11	O	1.132894	-0.408015	-0.369672
O12	O	0.998125	-0.401103	-0.530936
O13	O	1.127769	-0.510015	-0.845522
O14	O	0.992922	-0.503204	-0.666145
O15	O	1.235143	-0.413076	-0.846225
O16	O	1.222937	-0.650107	-0.561142
O17	O	1.120824	-0.644869	-0.683329
C18	C	0.965351	-0.450618	-0.596514
C19	C	0.872922	-0.445934	-0.590331
C20	C	0.659954	-0.485907	-0.643101
C21	C	0.703699	-0.437389	-0.579042
C22	C	0.797863	-0.442144	-0.585325
C23	C	0.565781	-0.481153	-0.636819
C24	C	1.170357	-0.677660	-0.624079
C25	C	1.165708	-0.770090	-0.629703
C26	C	1.157225	-0.939319	-0.639992
C27	C	1.205729	-0.983077	-0.582091
C28	C	1.201009	-1.077243	-0.587816
C29	C	1.161944	-0.845145	-0.634268
C30	C	1.398297	-0.472655	-0.625599
C31	C	1.490725	-0.477360	-0.631809
C32	C	1.181465	-0.461534	-0.885060
C33	C	1.181492	-0.461499	-1.001837
C34	C	1.192513	-0.244727	-0.597950
C35	C	1.197248	-0.152302	-0.592377
C36	C	1.237409	-0.411018	-1.057067
C37	C	1.237430	-0.410989	-1.166790
C38	C	1.125614	-0.511929	-1.166044
C39	C	1.125589	-0.511953	-1.056322
C40	C	1.301968	-0.352744	-1.057499
C41	C	1.301989	-0.352715	-1.167222
C42	C	1.181391	-0.461638	-0.338061
C43	C	1.181538	-0.461446	-0.221282
H44	H	0.670429	-0.392279	-0.519479
H45	H	0.693221	-0.531014	-0.702658
H46	H	1.365516	-0.373237	-1.202367
H47	H	1.112159	-0.972575	-0.693857
C48	C	1.064066	-0.567466	-0.995570
H49	H	1.030780	-0.597511	-1.043737
H50	H	1.029462	-0.533810	-0.948425
H51	H	1.094000	-0.605336	-0.957080
C52	C	1.266590	-0.938154	-0.509285
H53	H	1.261805	-0.879839	-0.514920
H54	H	1.321771	-0.955106	-0.529281
H55	H	1.253721	-0.951790	-0.438721
C56	C	1.064133	-0.567431	-1.225982
H57	H	1.072159	-0.560191	-1.299240
H58	H	1.008881	-0.552424	-1.203514
H59	H	1.073444	-0.623928	-1.212182
C60	C	1.283108	-0.264572	-1.010465
H61	H	1.275360	-0.228294	-1.065579
H62	H	1.328269	-0.245425	-0.970776
H63	H	1.234042	-0.265602	-0.966034
H64	H	1.282060	-0.290355	-1.196020
H65	H	1.361953	-0.378939	-1.028964
