data_functionalizedCrystal
_audit_creation_method	'MofGen! by Chris Wilmer'
_symmetry_space_group_name_H-M	'P1'
_symmetry_Int_Tables_number	1
_symmetry_cell_setting	triclinic
loop_
_symmetry_equiv_pos_as_xyz
  x,y,z
_cell_length_a	19.188933
_cell_length_b	19.188924
_cell_length_c	18.266242
_cell_angle_alpha	90.007204
_cell_angle_beta	90.007525
_cell_angle_gamma	83.143767
loop_
_atom_site_label
_atom_site_type_symbol
_atom_site_fract_x
_atom_site_fract_y
_atom_site_fract_z
O1	O	0.926146	0.087174	0.060860
O2	O	0.722835	0.098907	0.060867
O3	O	0.830360	-0.008615	0.060855
O4	O	0.818621	0.194697	0.060872
O5	O	0.830342	-0.008618	-0.060907
O6	O	0.722817	0.098904	-0.060895
O7	O	0.926128	0.087171	-0.060902
Zn8	Zn	0.824469	0.093037	-0.080231
Zn9	Zn	0.824493	0.093041	0.080196
O10	O	0.818603	0.194694	-0.060890
C11	C	0.696815	0.098525	-0.000013
C12	C	0.619310	0.097384	-0.000011
C13	C	0.066065	0.089241	0.066353
C14	C	0.138889	0.090309	0.066356
C15	C	0.175296	0.090844	-0.000016
C16	C	0.138876	0.090294	-0.066396
C17	C	0.066054	0.089219	-0.066397
N18	N	0.284308	0.132262	-0.049416
N19	N	0.353485	0.133285	-0.049411
C20	C	0.394705	0.094082	-0.000017
N21	N	0.364132	0.053827	0.049382
N22	N	0.294948	0.052807	0.049379
C23	C	0.254260	0.092010	-0.000022
C24	C	0.510082	0.095786	0.066362
C25	C	0.582908	0.096850	0.066362
C26	C	0.582892	0.096842	-0.066392
C27	C	0.510068	0.095771	-0.066390
C28	C	0.473667	0.095246	-0.000011
C29	C	0.829972	-0.034628	-0.000027
C30	C	0.828833	-0.112133	-0.000029
C31	C	0.828311	-0.148530	0.066344
C32	C	0.827231	-0.221353	0.066349
C33	C	0.826687	-0.257777	-0.000021
C34	C	0.827205	-0.221371	-0.066403
C35	C	0.828278	-0.148548	-0.066407
N36	N	0.864728	-0.377441	-0.049421
N37	N	0.863710	-0.446620	-0.049413
C38	C	0.823453	-0.477186	-0.000014
N39	N	0.784261	-0.435963	0.049387
N40	N	0.785282	-0.366778	0.049381
C41	C	0.825523	-0.336741	-0.000025
C42	C	0.821760	-0.592546	0.066369
C43	C	0.820675	-0.665370	0.066372
C44	C	0.820656	-0.665387	-0.066382
C45	C	0.821733	-0.592564	-0.066383
C46	C	0.822288	-0.556149	-0.000006
C47	C	0.952148	0.087553	-0.000020
C48	C	1.029653	0.088694	-0.000018
C49	C	0.818991	0.220706	-0.000006
C50	C	0.820130	0.298211	0.000000
N51	N	0.824458	0.093034	-0.189718
C52	C	0.866666	0.135280	-0.228018
C53	C	0.866678	0.135278	-0.304663
C54	C	0.824468	0.093038	-0.343005
C55	C	0.782258	0.050784	-0.304695
C56	C	0.782252	0.050782	-0.228052
N57	N	0.763321	0.091318	-0.463355
N58	N	0.763327	0.091324	-0.536163
C59	C	0.824482	0.093041	-0.573927
N60	N	0.885631	0.094765	-0.536132
N61	N	0.885623	0.094763	-0.463317
C62	C	0.824469	0.093035	-0.426112
C63	C	0.866706	0.135287	-0.695335
C64	C	0.866719	0.135280	-0.771981
C65	C	0.782293	0.050790	-0.772011
C66	C	0.782286	0.050792	-0.695367
C67	C	0.824492	0.093045	-0.657033
N68	N	0.824510	0.093039	0.189683
H69	H	0.168523	0.090729	-0.120437
C70	C	0.025995	0.088622	-0.139410
C71	C	0.027887	0.149380	-0.194167
C72	C	-0.012173	0.148785	-0.267181
C73	C	-0.054125	0.087432	-0.285438
C74	C	-0.056018	0.026670	-0.230681
C75	C	-0.015958	0.027265	-0.157667
H76	H	0.058943	0.194802	-0.180653
H77	H	-0.010772	0.193766	-0.307716
H78	H	-0.083780	0.086992	-0.339488
H79	H	-0.087074	-0.018752	-0.244195
H80	H	-0.017359	-0.017716	-0.117131
H81	H	0.168542	0.090757	0.120405
C82	C	0.913156	0.181753	-0.814110
C83	C	0.993344	0.171271	-0.803545
C84	C	1.039783	0.217745	-0.845672
C85	C	1.006034	0.274701	-0.898365
C86	C	0.925842	0.285185	-0.908933
C87	C	0.879403	0.238711	-0.866805
H88	H	1.018331	0.129106	-0.764536
H89	H	1.099146	0.209983	-0.837849
H90	H	1.040411	0.309103	-0.929551
H91	H	0.900855	0.327349	-0.947941
H92	H	0.820039	0.246473	-0.874628
H93	H	0.036432	0.088810	0.120404
C94	C	0.470036	0.095200	0.139376
C95	C	0.389934	0.094025	0.139378
C96	C	0.349890	0.093439	0.212392
C97	C	0.389949	0.094029	0.285403
C98	C	0.470056	0.095205	0.285403
C99	C	0.510099	0.095790	0.212389
H100	H	0.360276	0.093588	0.085329
H101	H	0.290590	0.092569	0.212391
H102	H	0.360306	0.093596	0.339452
H103	H	0.499714	0.095642	0.339452
H104	H	0.569400	0.096661	0.212390
H105	H	0.901049	0.169682	-0.335853
H106	H	0.747926	0.016396	-0.803228
C107	C	0.735816	0.004313	-0.185917
C108	C	0.746357	-0.075877	-0.196462
C109	C	0.699918	-0.122344	-0.154325
C110	C	0.642938	-0.088623	-0.101644
C111	C	0.632395	-0.008429	-0.091097
C112	C	0.678834	0.038039	-0.133233
H113	H	0.788539	-0.100843	-0.235462
H114	H	0.707723	-0.181709	-0.162134
H115	H	0.608561	-0.123021	-0.070453
H116	H	0.590213	0.016538	-0.052097
H117	H	0.671028	0.097404	-0.125425
H118	H	0.747913	0.016394	-0.664182
H119	H	0.901073	0.169691	-0.664122
C120	C	0.622968	0.097446	0.139375
C121	C	0.664925	0.158796	0.157628
C122	C	0.704988	0.159391	0.230640
C123	C	0.703093	0.098636	0.285400
C124	C	0.661134	0.037282	0.267148
C125	C	0.621072	0.036687	0.194136
H126	H	0.666329	0.203775	0.117090
H127	H	0.736048	0.204810	0.244151
H128	H	0.732749	0.099077	0.339448
H129	H	0.659730	-0.007697	0.307686
H130	H	0.590011	-0.008732	0.180625
C131	C	0.470010	0.095177	-0.139402
C132	C	0.471900	0.155936	-0.194158
C133	C	0.431843	0.155338	-0.267174
C134	C	0.389897	0.093982	-0.285434
C135	C	0.388005	0.033219	-0.230676
C136	C	0.428062	0.033817	-0.157661
H137	H	0.502953	0.201359	-0.180642
H138	H	0.433244	0.200320	-0.307708
H139	H	0.360245	0.093540	-0.339484
H140	H	0.356953	-0.012204	-0.244192
H141	H	0.426662	-0.011165	-0.117126
C142	C	0.828913	-0.108475	0.139359
C143	C	0.890266	-0.066524	0.157615
C144	C	0.890866	-0.026468	0.230631
C145	C	0.830111	-0.028364	0.285391
C146	C	0.768753	-0.070317	0.267136
C147	C	0.768154	-0.110372	0.194120
H148	H	0.935244	-0.065119	0.117077
H149	H	0.936287	0.004588	0.244144
H150	H	0.830555	0.001288	0.339442
H151	H	0.723775	-0.071721	0.307674
H152	H	0.722733	-0.141429	0.180607
H153	H	0.901036	0.169682	-0.196812
H154	H	0.747891	0.016391	-0.335918
C155	C	0.826664	-0.261402	0.139363
C156	C	0.827275	-0.221347	0.212374
C157	C	0.826709	-0.261394	0.285388
C158	C	0.825532	-0.341496	0.285390
C159	C	0.824921	-0.381555	0.212376
C160	C	0.825487	-0.341508	0.139363
H161	H	0.828147	-0.162047	0.212375
H162	H	0.827162	-0.231739	0.339437
H163	H	0.825113	-0.371141	0.339439
H164	H	0.824049	-0.440856	0.212375
H165	H	0.825034	-0.371164	0.085313
H166	H	0.612534	0.097275	-0.120433
C167	C	0.820060	-0.705439	-0.139396
C168	C	0.758707	-0.747389	-0.157657
C169	C	0.758109	-0.787442	-0.230675
C170	C	0.818865	-0.785544	-0.285433
C171	C	0.880222	-0.743592	-0.267174
C172	C	0.880820	-0.703539	-0.194156
H173	H	0.713728	-0.748796	-0.117121
H174	H	0.712688	-0.818497	-0.244191
H175	H	0.818422	-0.815193	-0.339485
H176	H	0.925201	-0.742185	-0.307710
H177	H	0.926241	-0.672484	-0.180639
C178	C	0.826608	-0.261434	-0.139412
C179	C	0.825432	-0.341537	-0.139412
C180	C	0.824832	-0.381599	-0.212424
C181	C	0.825406	-0.341559	-0.285436
C182	C	0.826581	-0.261452	-0.285439
C183	C	0.827182	-0.221390	-0.212427
H184	H	0.825007	-0.371181	-0.085361
H185	H	0.823962	-0.440899	-0.212421
H186	H	0.824961	-0.371215	-0.339484
H187	H	0.827006	-0.231808	-0.339490
H188	H	0.828052	-0.162089	-0.212430
C189	C	0.822319	-0.552526	-0.139396
C190	C	0.761553	-0.554432	-0.194157
C191	C	0.762138	-0.514394	-0.267174
C192	C	0.823490	-0.472450	-0.285431
C193	C	0.884261	-0.470542	-0.230670
C194	C	0.883675	-0.510580	-0.157652
H195	H	0.716132	-0.585483	-0.180643
H196	H	0.717151	-0.515807	-0.307712
H197	H	0.823923	-0.442812	-0.339483
H198	H	0.929681	-0.439491	-0.244184
H199	H	0.928663	-0.509167	-0.117114
H200	H	0.828699	-0.118914	-0.120457
H201	H	0.822208	-0.562894	0.120418
H202	H	0.820247	-0.695003	0.120423
