data_functionalizedCrystal
_audit_creation_method	'MofGen! by Chris Wilmer'
_symmetry_space_group_name_H-M	'P1'
_symmetry_Int_Tables_number	1
_symmetry_cell_setting	triclinic
loop_
_symmetry_equiv_pos_as_xyz
  x,y,z
_cell_length_a	18.426585
_cell_length_b	23.196402
_cell_length_c	23.196401
_cell_angle_alpha	60.008822
_cell_angle_beta	90.013019
_cell_angle_gamma	60.001912
loop_
_atom_site_label
_atom_site_type_symbol
_atom_site_fract_x
_atom_site_fract_y
_atom_site_fract_z
Zr1	Zr	0.699110	0.631022	-0.075641
O2	O	0.583210	0.751285	-0.167686
O3	O	0.734636	0.510758	-0.047429
O4	O	0.734604	0.631025	-0.167694
O5	O	0.583270	0.631017	0.047451
O6	O	0.854030	0.631029	-0.167696
O7	O	0.583242	0.631018	-0.047420
O8	O	0.854088	0.415893	0.047436
O9	O	0.583213	0.846153	-0.167682
O10	O	0.838918	0.560228	-0.035394
O11	O	0.749813	0.560224	0.035410
O12	O	0.749775	0.701823	-0.106187
O13	O	0.660670	0.701819	-0.035384
Zr14	Zr	0.889626	0.631027	0.075664
Zr15	Zr	0.889580	0.631029	-0.075645
Zr16	Zr	0.699155	0.631020	0.075667
Zr17	Zr	0.699115	0.782325	-0.075635
Zr18	Zr	0.889621	0.479724	0.075657
O19	O	0.854099	0.751291	0.047451
O20	O	0.854034	0.751294	-0.167691
O21	O	0.583275	0.751282	0.047456
O22	O	1.005526	0.510764	0.167708
O23	O	1.005461	0.510767	-0.047434
O24	O	0.734701	0.510755	0.167713
O25	O	1.005465	0.631032	-0.047429
O26	O	0.854131	0.631024	0.167716
O27	O	0.734705	0.631020	0.167718
O28	O	1.005494	0.631031	0.047442
O29	O	0.734612	0.846158	-0.167685
O30	O	0.854124	0.415891	0.167707
O31	O	1.005522	0.415896	0.167704
O32	O	1.005486	0.415898	0.047433
O33	O	0.583249	0.846151	-0.047411
O34	O	0.734648	0.846156	-0.047414
O35	O	0.838960	0.560226	0.106209
O36	O	0.928065	0.560230	0.035406
O37	O	0.838923	0.701825	-0.035388
O38	O	0.749818	0.701821	0.035416
C39	C	0.794361	0.441768	0.000003
C40	C	0.794359	0.377536	0.000000
C41	C	0.840865	0.347368	-0.036961
C42	C	0.840873	0.287007	-0.036955
C43	C	0.794359	0.256828	0.000002
C44	C	0.747851	0.287000	0.036971
C45	C	0.747851	0.347355	0.036970
C46	C	0.716430	0.194796	-0.005271
C47	C	0.716428	0.134447	-0.005275
C48	C	0.794360	0.070673	0.000009
C49	C	0.872294	0.067264	0.005283
C50	C	0.872294	0.127618	0.005282
C51	C	0.794354	0.191384	0.000008
C52	C	0.840879	-0.024946	-0.036948
C53	C	0.840890	-0.085312	-0.036937
C54	C	0.747859	-0.085311	0.036985
C55	C	0.747857	-0.024953	0.036979
C56	C	0.794365	0.005229	0.000009
C57	C	0.556118	0.631016	0.000016
C58	C	0.475258	0.631014	0.000017
C59	C	0.179144	0.631038	0.000005
C60	C	0.261530	0.631035	0.000007
C61	C	0.327198	0.631026	0.000011
C62	C	0.409590	0.631022	0.000013
C63	C	1.032617	0.631033	0.000006
C64	C	1.113477	0.631035	0.000005
C65	C	0.794311	0.631027	-0.189253
C66	C	0.794291	0.631028	-0.253488
C67	C	0.794374	0.820281	0.000019
C68	C	0.794377	0.884513	0.000022
C69	C	0.747764	0.704937	-0.320614
C70	C	0.747787	0.704938	-0.380970
C71	C	0.794325	0.631026	-0.374194
C72	C	0.840862	0.557108	-0.307056
C73	C	0.840845	0.557109	-0.246702
C74	C	0.787714	0.574398	-0.441514
C75	C	0.787724	0.574400	-0.501867
C76	C	0.794381	0.631020	-0.560342
C77	C	0.801009	0.687652	-0.558462
C78	C	0.800993	0.687653	-0.498109
C79	C	0.794348	0.631017	-0.439633
C80	C	0.747876	0.704935	-0.692915
C81	C	0.747905	0.704933	-0.753270
C82	C	0.840974	0.557101	-0.679354
C83	C	0.840951	0.557105	-0.619001
C84	C	0.794397	0.631024	-0.625786
C85	C	0.794425	0.631022	0.189275
C86	C	0.794444	0.631021	0.253510
C87	C	1.032611	0.441776	-0.000002
C88	C	1.113468	0.377547	-0.000006
C89	C	0.794418	0.441765	0.189267
C90	C	0.794435	0.377532	0.253499
C91	C	1.032668	0.441773	0.189262
C92	C	1.113545	0.377543	0.253493
C93	C	0.556068	0.820276	-0.189240
C94	C	0.475191	0.884506	-0.253471
C95	C	0.556125	0.820273	0.000024
C96	C	0.475267	0.884502	0.000028
C97	C	0.794317	0.820284	-0.189245
C98	C	0.794300	0.884517	-0.253477
C99	C	1.104906	0.347383	-0.036971
C100	C	1.180873	0.287042	-0.036990
C101	C	1.265401	0.256861	-0.000038
C102	C	1.273962	0.287030	0.036928
C103	C	1.197996	0.347375	0.036942
C104	C	0.840977	0.347369	0.320626
C105	C	0.840990	0.287024	0.380985
C106	C	0.794465	0.256839	0.374214
C107	C	0.747918	0.287009	0.307080
C108	C	0.747900	0.347357	0.246724
C109	C	1.198045	0.347382	0.246697
C110	C	1.274045	0.287040	0.307043
C111	C	1.265542	0.256855	0.374183
C112	C	1.181033	0.287022	0.380977
C113	C	1.105035	0.347368	0.320632
C114	C	0.390690	0.914674	-0.246675
C115	C	0.314691	0.975035	-0.307021
C116	C	0.323194	1.005223	-0.374161
C117	C	0.407703	0.975052	-0.380955
C118	C	0.483701	0.914696	-0.320610
C119	C	0.483830	0.914672	0.036987
C120	C	0.407863	0.975030	0.036989
C121	C	0.323334	1.005213	0.000035
C122	C	0.314773	0.975041	-0.036928
C123	C	0.390740	0.914688	-0.036933
C124	C	0.840834	0.914682	-0.246684
C125	C	0.840835	0.975028	-0.307031
C126	C	0.794297	1.005211	-0.374170
C127	C	0.747762	0.975039	-0.380961
C128	C	0.747766	0.914691	-0.320615
H129	H	0.878752	-0.000374	-0.067049
N130	N	0.891178	0.477379	-0.672036
H131	H	0.884131	0.488592	-0.720455
H132	H	0.866752	0.445098	-0.645363
N133	N	0.891158	0.379917	0.327946
H134	H	0.848483	0.440499	0.304552
H135	H	0.937975	0.369356	0.304568
H136	H	0.383750	0.890098	-0.192012
H137	H	0.552650	0.890101	0.067084
H138	H	0.383755	0.890125	-0.067028
N139	N	0.891132	0.477388	-0.546595
H140	H	0.920618	0.430564	-0.551459
H141	H	0.848408	0.474166	-0.519958
N142	N	1.013894	0.379885	0.327962
H143	H	0.980275	0.440467	0.304576
H144	H	1.020119	0.351542	0.379665
N145	N	0.808129	0.748761	-0.621544
H146	H	0.812303	0.784647	-0.611201
H147	H	0.753784	0.783513	-0.663957
N148	N	0.891200	0.254489	0.453387
H149	H	0.920677	0.282765	0.448512
H150	H	0.937977	0.193906	0.480038
N151	N	0.417108	1.007565	0.076859
H152	H	0.482185	0.979276	0.100272
H153	H	0.387621	0.997065	0.114013
H154	H	0.935752	0.124838	0.009578
H155	H	0.245887	0.999590	-0.301475
N156	N	0.697569	0.784663	-0.327934
H157	H	0.704618	0.773451	-0.279516
H158	H	0.632506	0.816939	-0.354636
N159	N	0.780592	0.513311	-0.503885
H160	H	0.723079	0.520843	-0.497165
H161	H	0.832356	0.456286	-0.464845
N162	N	0.697677	0.254457	0.076828
H163	H	0.668215	0.282729	0.100244
H164	H	0.740406	0.193874	0.113980
N165	N	0.241221	1.070321	-0.439244
H166	H	0.186402	1.084845	-0.424744
H167	H	0.241247	1.049274	-0.468269
H168	H	0.878731	0.890116	-0.192022
H169	H	0.710038	0.262423	0.301579
H170	H	1.327251	0.207723	-0.000055
N171	N	0.891027	0.254457	-0.076823
H172	H	0.956118	0.229420	-0.057449
H173	H	0.866531	0.300538	-0.128515
N174	N	0.891015	1.007571	-0.299694
H175	H	0.883960	1.050380	-0.348107
H176	H	0.956081	0.961477	-0.272998
N177	N	1.171869	0.254461	0.453394
H178	H	1.232840	0.211654	0.490585
H179	H	1.138283	0.229456	0.458989
H180	H	0.414615	0.999639	-0.435627
H181	H	0.709970	0.765125	-0.698441
N182	N	0.794299	1.070305	-0.439248
H183	H	0.731287	1.120391	-0.468297
H184	H	0.820811	1.049241	-0.468249
H185	H	1.204980	0.371927	0.067047
H186	H	0.794487	0.207700	0.423367
H187	H	0.709869	0.890136	-0.326156
H188	H	0.782287	0.528292	-0.393905
H189	H	0.710003	0.371908	0.192068
H190	H	1.036085	0.371956	-0.067070
N191	N	0.574839	0.882157	-0.327944
H192	H	0.568685	0.910442	-0.379635
H193	H	0.608389	0.821576	-0.304525
N194	N	0.891028	0.477386	-0.174299
H195	H	0.848351	0.474089	-0.147626
H196	H	0.937836	0.474143	-0.147653
N197	N	1.207229	0.379924	0.174287
H198	H	1.272297	0.351654	0.179149
H199	H	1.177723	0.440509	0.147634
N200	N	0.632371	0.138130	-0.010949
H201	H	0.614916	0.141822	-0.054565
H202	H	0.583076	0.187682	-0.014252
N203	N	0.697569	1.007597	-0.453377
H204	H	0.704630	1.050407	-0.490570
H205	H	0.632504	1.032599	-0.458970
H206	H	1.342849	0.262484	0.301498
H207	H	1.327432	0.207718	0.423313
H208	H	0.652959	0.246731	-0.009588
N209	N	0.241403	1.070309	0.000044
H210	H	0.259662	1.084835	0.029069
H211	H	0.204873	1.049259	0.021064
N212	N	0.697693	0.379895	0.076840
H213	H	0.668229	0.351617	0.100257
H214	H	0.650910	0.440477	0.042908
N215	N	0.697602	0.784657	-0.453382
H216	H	0.668109	0.831484	-0.448522
H217	H	0.650841	0.787865	-0.480041
H218	H	1.173885	0.262485	-0.067092
N219	N	0.891025	0.379921	-0.076833
H220	H	0.920488	0.351646	-0.100247
H221	H	0.937809	0.369420	-0.042903
N222	N	0.956358	-0.001512	0.010981
H223	H	0.944537	-0.039233	0.010185
H224	H	1.004341	-0.032854	0.056669
H225	H	0.709987	-0.109883	0.067077
H226	H	1.342795	0.262448	0.067012
N227	N	0.891057	-0.117857	-0.076800
H228	H	0.920515	-0.089575	-0.100220
H229	H	0.848327	-0.107361	-0.113949
H230	H	0.709983	-0.000387	0.067074
N231	N	0.891062	0.477387	-0.299743
H232	H	0.884012	0.488601	-0.348162
H233	H	0.866639	0.445106	-0.273068
N234	N	0.223600	1.007587	-0.076769
H235	H	0.189986	1.068170	-0.113954
H236	H	0.190110	0.997018	-0.042805
N237	N	0.808152	0.748720	-0.496071
H238	H	0.756446	0.805784	-0.535108
H239	H	0.865708	0.741093	-0.502754
N240	N	0.697756	0.784653	-0.825676
H241	H	0.668272	0.831477	-0.820812
H242	H	0.650990	0.787890	-0.852363
