data_functionalizedCrystal
_audit_creation_method	'MofGen! by Chris Wilmer'
_symmetry_space_group_name_H-M	'P1'
_symmetry_Int_Tables_number	1
_symmetry_cell_setting	triclinic
loop_
_symmetry_equiv_pos_as_xyz
  x,y,z
_cell_length_a	9.065218
_cell_length_b	7.681481
_cell_length_c	8.634740
_cell_angle_alpha	83.366800
_cell_angle_beta	87.206904
_cell_angle_gamma	84.191250
loop_
_atom_site_label
_atom_site_type_symbol
_atom_site_fract_x
_atom_site_fract_y
_atom_site_fract_z
O1	O	1.977817	0.146426	-0.240986
O2	O	1.550936	0.146428	-0.259569
O3	O	1.744170	0.146423	-0.025519
O4	O	1.784583	0.146431	-0.475036
O5	O	1.767944	-0.146435	0.003355
O6	O	1.574711	-0.146430	-0.230695
O7	O	2.001591	-0.146432	-0.212112
Zn8	Zn	1.791926	-0.192929	-0.216820
Zn9	Zn	1.760602	0.192925	-0.254862
O10	O	1.808358	-0.146427	-0.446163
C11	C	1.507606	-0.000001	-0.243346
C12	C	1.343072	0.000000	-0.238006
N13	N	1.813314	-0.456264	-0.190856
C14	C	2.044921	0.000001	-0.228336
C15	C	2.209454	0.000011	-0.233677
C16	C	1.746902	-0.000003	0.046496
C17	C	1.719603	0.000005	0.218059
N18	N	1.739223	0.456260	-0.280814
C19	C	1.805626	0.000003	-0.518178
C20	C	1.832923	0.000007	-0.689742
H21	H	1.888964	-0.531471	-0.099041
H22	H	1.601693	0.000017	0.270382
O23	O	1.639026	-0.444155	-0.402442
H24	H	1.523822	-0.479483	-0.377792
H25	H	1.950819	0.000067	0.257935
