data_functionalizedCrystal
_audit_creation_method	'MofGen! by Chris Wilmer'
_symmetry_space_group_name_H-M	'P1'
_symmetry_Int_Tables_number	1
_symmetry_cell_setting	triclinic
loop_
_symmetry_equiv_pos_as_xyz
  x,y,z
_cell_length_a	8.559649
_cell_length_b	10.065875
_cell_length_c	8.597249
_cell_angle_alpha	73.472370
_cell_angle_beta	102.374876
_cell_angle_gamma	82.498341
loop_
_atom_site_label
_atom_site_type_symbol
_atom_site_fract_x
_atom_site_fract_y
_atom_site_fract_z
O1	O	-2.144206	0.123038	-0.081154
O2	O	-1.644206	0.623038	0.418846
O3	O	-1.678286	0.113264	0.001971
O4	O	-1.178286	0.613264	0.501971
O5	O	-1.925992	0.145885	-0.275472
O6	O	-1.425992	0.645885	0.224528
O7	O	-1.896499	0.090416	0.196290
O8	O	-1.396499	0.590416	0.696290
O9	O	-1.878757	-0.087346	-0.222378
O10	O	-1.378757	0.412654	0.277622
O11	O	-1.631050	-0.119968	0.055065
O12	O	-1.131050	0.380032	0.555065
O13	O	-2.096970	-0.110194	-0.028060
O14	O	-1.596970	0.389806	0.471940
Zn15	Zn	-1.856510	-0.152111	0.021932
Zn16	Zn	-1.356510	0.347889	0.521932
Zn17	Zn	-1.918746	0.155181	-0.048021
Zn18	Zn	-1.418746	0.655181	0.451979
O19	O	-1.849263	-0.142816	0.249384
O20	O	-1.349263	0.357184	0.749384
C21	C	-1.595084	-0.004093	0.034818
C22	C	-1.095084	0.495907	0.534818
C23	C	-1.417543	-0.006297	0.053569
C24	C	-0.917543	0.493703	0.553569
N25	N	-1.814048	-0.361830	0.069671
N26	N	-1.314048	0.138170	0.569671
C27	C	-1.903962	-0.417723	-0.031420
C28	C	-1.403962	0.082277	0.468580
C29	C	-1.871294	-0.579211	0.005332
C30	C	-1.371294	-0.079211	0.505332
C31	C	-1.180172	0.007163	-0.060906
C32	C	-0.680172	0.507163	0.439094
C33	C	-1.357713	0.009369	-0.079658
C34	C	-0.857713	0.509369	0.420342
C35	C	-1.901839	0.036308	-0.308763
C36	C	-1.401839	0.536308	0.191237
C37	C	-1.900223	0.057281	-0.487057
C38	C	-1.400223	0.557281	0.012943
N39	N	-1.961221	0.364902	-0.095774
N40	N	-1.461221	0.864902	0.404226
C41	C	-1.873418	-0.033235	0.282674
C42	C	-1.373418	0.466765	0.782674
C43	C	-1.875036	-0.054199	0.460966
C44	C	-1.375036	0.445801	0.960966
H45	H	-1.442317	0.024474	-0.208066
H46	H	-0.942317	0.524474	0.291934
H47	H	-1.712879	-0.433531	0.183423
H48	H	-1.212879	0.066469	0.683423
Br49	Br	-1.276536	-0.031445	0.267603
Br50	Br	-0.776536	0.468555	0.767603
Br51	Br	-1.841162	-0.240011	-0.385869
Br52	Br	-1.341162	0.259989	0.114131
Br53	Br	-1.934136	0.243103	-0.640240
Br54	Br	-1.434136	0.743103	-0.140240
Br55	Br	-2.072179	-0.298186	-0.221383
Br56	Br	-1.572179	0.201814	0.278617
Br57	Br	-2.130219	-0.515650	-0.285061
Br58	Br	-1.630219	-0.015650	0.214939
H59	H	-1.770118	-0.650908	0.119091
H60	H	-1.270118	-0.150908	0.619091
