data_functionalizedCrystal
_audit_creation_method	'MofGen! by Chris Wilmer'
_symmetry_space_group_name_H-M	'P1'
_symmetry_Int_Tables_number	1
_symmetry_cell_setting	triclinic
loop_
_symmetry_equiv_pos_as_xyz
  x,y,z
_cell_length_a	16.625548
_cell_length_b	16.625545
_cell_length_c	12.827885
_cell_angle_alpha	90.030495
_cell_angle_beta	89.978764
_cell_angle_gamma	89.971982
loop_
_atom_site_label
_atom_site_type_symbol
_atom_site_fract_x
_atom_site_fract_y
_atom_site_fract_z
Zn1	Zn	1.232661	0.320940	-0.590898
Zn2	Zn	1.565994	0.654273	-0.257565
Zn3	Zn	1.899327	0.987606	0.075768
Zn4	Zn	1.232552	0.455794	-0.416156
Zn5	Zn	1.565885	0.789127	-0.082823
Zn6	Zn	1.899218	1.122461	0.250510
Zn7	Zn	1.097821	0.320981	-0.416166
Zn8	Zn	1.431154	0.654315	-0.082833
Zn9	Zn	1.764488	0.987648	0.250501
Zn10	Zn	1.097782	0.455736	-0.590850
Zn11	Zn	1.431116	0.789070	-0.257517
Zn12	Zn	1.764449	1.122403	0.075816
O13	O	1.165204	0.388363	-0.503518
O14	O	1.498537	0.721696	-0.170184
O15	O	1.831871	1.055029	0.163149
O16	O	1.345479	0.338835	-0.567734
O17	O	1.678812	0.672168	-0.234401
O18	O	2.012145	1.005501	0.098932
O19	O	1.214650	0.437952	-0.269922
O20	O	1.547983	0.771286	0.063412
O21	O	1.881317	1.104619	0.396745
O22	O	1.115769	0.208143	-0.439369
O23	O	1.449103	0.541477	-0.106035
O24	O	1.782436	0.874810	0.227298
O25	O	1.345399	0.437912	-0.439352
O26	O	1.678732	0.771245	-0.106019
O27	O	2.012065	1.104578	0.227314
O28	O	1.214836	0.208113	-0.567744
O29	O	1.548169	0.541446	-0.234410
O30	O	1.881502	0.874779	0.098923
O31	O	1.115664	0.338906	-0.269929
O32	O	1.448997	0.672239	0.063405
O33	O	1.782330	1.005573	0.396738
O34	O	0.984983	0.338850	-0.439322
O35	O	1.318317	0.672184	-0.105989
O36	O	1.651650	1.005517	0.227345
O37	O	1.115704	0.437814	-0.737093
O38	O	1.449037	0.771147	-0.403760
O39	O	1.782370	1.104480	-0.070426
O40	O	0.984955	0.437854	-0.567662
O41	O	1.318288	0.771188	-0.234329
O42	O	1.651622	1.104521	0.099005
O43	O	1.214798	0.338779	-0.737128
O44	O	1.548132	0.672112	-0.403795
O45	O	1.881465	1.005446	-0.070461
O46	O	1.214613	0.568619	-0.439306
O47	O	1.547946	0.901952	-0.105973
O48	O	1.881279	1.235285	0.227361
O49	O	1.115598	0.568576	-0.567653
O50	O	1.448931	0.901910	-0.234319
O51	O	1.782265	1.235243	0.099014
C52	C	0.955713	0.388351	-0.503489
C53	C	1.289046	0.721685	-0.170155
C54	C	1.622380	1.055018	0.163178
C55	C	0.866092	0.388366	-0.503501
C56	C	1.199425	0.721699	-0.170167
C57	C	1.532759	1.055032	0.163166
C58	C	1.165111	0.597854	-0.503496
C59	C	1.498445	0.931187	-0.170163
C60	C	1.831778	1.264520	0.163171
C61	C	1.165145	0.687475	-0.503522
C62	C	1.498479	1.020808	-0.170188
C63	C	1.831812	1.354141	0.163145
C64	C	1.165259	0.388285	-0.776088
C65	C	1.498592	0.721619	-0.442755
C66	C	1.831925	1.054952	-0.109421
C67	C	1.165282	0.388252	-0.892241
C68	C	1.498616	0.721586	-0.558908
C69	C	1.831949	1.054919	-0.225575
C70	C	0.537916	0.388371	-0.503546
C71	C	0.871250	0.721704	-0.170212
C72	C	1.204583	1.055038	0.163121
C73	C	0.629225	0.388367	-0.503530
C74	C	0.962558	0.721701	-0.170196
C75	C	1.295891	1.055034	0.163137
C76	C	0.702001	0.388369	-0.503522
C77	C	1.035335	0.721702	-0.170189
C78	C	1.368668	1.055036	0.163144
C79	C	0.793316	0.388364	-0.503508
C80	C	1.126649	0.721698	-0.170175
C81	C	1.459982	1.055031	0.163158
C82	C	1.375513	0.388375	-0.503548
C83	C	1.708846	0.721708	-0.170214
C84	C	2.042179	1.055042	0.163119
C85	C	1.465134	0.388380	-0.503560
C86	C	1.798467	0.721713	-0.170227
C87	C	2.131801	1.055047	0.163106
C88	C	1.165175	0.760257	-0.503546
C89	C	1.498508	1.093591	-0.170213
C90	C	1.831842	1.426924	0.163120
C91	C	1.165220	0.851566	-0.503574
C92	C	1.498553	1.184899	-0.170241
C93	C	1.831886	1.518232	0.163093
C94	C	1.165260	0.924342	-0.503591
C95	C	1.498593	1.257675	-0.170258
C96	C	1.831926	1.591009	0.163075
C97	C	1.165304	1.015656	-0.503617
C98	C	1.498637	1.348990	-0.170284
C99	C	1.831970	1.682323	0.163049
C100	C	1.165313	1.178054	-0.503576
C101	C	1.498646	1.511387	-0.170242
C102	C	1.831980	1.844721	0.163091
C103	C	1.165344	1.088433	-0.503635
C104	C	1.498677	1.421766	-0.170301
C105	C	1.832010	1.755099	0.163032
C106	C	1.214323	0.339237	-0.944043
C107	C	1.547656	0.672571	-0.610710
C108	C	1.880989	1.005904	-0.277377
C109	C	1.214348	0.339202	-1.064094
C110	C	1.547681	0.672535	-0.730761
C111	C	1.881015	1.005869	-0.397427
C112	C	1.165196	0.388382	-0.232008
C113	C	1.498529	0.721715	0.101325
C114	C	1.831862	1.055048	0.434659
C115	C	1.165329	0.388188	-0.115855
C116	C	1.498662	0.721521	0.217478
C117	C	1.831995	1.054854	0.550811
H118	H	1.256286	0.297297	-0.899516
H119	H	1.589620	0.630630	-0.566183
H120	H	1.922953	0.963964	-0.232850
Cl121	Cl	1.279178	0.274414	-1.132867
Cl122	Cl	1.612511	0.607748	-0.799534
Cl123	Cl	1.945845	0.941081	-0.466201
Cl124	Cl	1.100505	0.452987	-1.047088
Cl125	Cl	1.433838	0.786320	-0.713755
Cl126	Cl	1.767172	1.119653	-0.380422
H127	H	1.123310	0.430185	-0.936768
H128	H	1.456644	0.763518	-0.603435
H129	H	1.789977	1.096851	-0.270102
