data_functionalizedCrystal
_audit_creation_method	'MofGen! by Chris Wilmer'
_symmetry_space_group_name_H-M	'P1'
_symmetry_Int_Tables_number	1
_symmetry_cell_setting	triclinic
loop_
_symmetry_equiv_pos_as_xyz
  x,y,z
_cell_length_a	12.759401
_cell_length_b	16.120484
_cell_length_c	12.759393
_cell_angle_alpha	92.863829
_cell_angle_beta	89.981636
_cell_angle_gamma	92.925560
loop_
_atom_site_label
_atom_site_type_symbol
_atom_site_fract_x
_atom_site_fract_y
_atom_site_fract_z
Zn1	Zn	1.584970	-0.331861	-0.615146
Zn2	Zn	1.575922	-0.471297	-0.448359
Zn3	Zn	1.409270	-0.331902	-0.439488
Zn4	Zn	1.400322	-0.471235	-0.623997
O5	O	1.492621	-0.401574	-0.531748
O6	O	1.730790	-0.350366	-0.593030
O7	O	1.553773	-0.452849	-0.300164
O8	O	1.440108	-0.215232	-0.455373
O9	O	1.724143	-0.452809	-0.470492
O10	O	1.569194	-0.215201	-0.584428
O11	O	1.431334	-0.350437	-0.293647
O12	O	1.261062	-0.350377	-0.463955
O13	O	1.424858	-0.452703	-0.769841
O14	O	1.254488	-0.452743	-0.599513
O15	O	1.560518	-0.350306	-0.763339
O16	O	1.545097	-0.587954	-0.479074
O17	O	1.416084	-0.587908	-0.608114
C18	C	1.219654	-0.401558	-0.531732
C19	C	1.102877	-0.401572	-0.531752
C20	C	1.044614	-0.454960	-0.602231
C21	C	0.934889	-0.454970	-0.602243
C22	C	0.941700	-0.348203	-0.461288
C23	C	1.051423	-0.348189	-0.461282
C24	C	1.040680	-0.516604	-0.683607
C25	C	0.930956	-0.516614	-0.683620
C26	C	1.478666	-0.618181	-0.545540
C27	C	1.472792	-0.710847	-0.551476
C28	C	1.462074	-0.880507	-0.562334
C29	C	1.523355	-0.921800	-0.501178
C30	C	1.517392	-1.016205	-0.507220
C31	C	1.468037	-0.786094	-0.556294
C32	C	1.766653	-0.401590	-0.531763
C33	C	1.883429	-0.401597	-0.531770
C34	C	1.492699	-0.401493	-0.805776
C35	C	1.492732	-0.401459	-0.922550
C36	C	1.506659	-0.184121	-0.517924
C37	C	1.512641	-0.091455	-0.512033
C38	C	1.563406	-0.348096	-1.083750
C39	C	1.563378	-0.348130	-0.974029
C40	C	1.422116	-0.454762	-0.980800
C41	C	1.422149	-0.454731	-1.090521
C42	C	1.644959	-0.286530	-1.079840
C43	C	1.644932	-0.286565	-0.970118
C44	C	1.492607	-0.401594	-0.258781
C45	C	1.492793	-0.401393	-0.141992
H46	H	0.898436	-0.493568	-0.759502
H47	H	1.619777	-0.225186	-1.109973
N48	N	1.740005	-0.315584	-0.929241
N49	N	1.737267	-0.378306	-0.875337
H50	H	1.804409	-0.398800	-0.846461
N51	N	0.889140	-0.293667	-0.389319
N52	N	0.831347	-0.240582	-0.423025
H53	H	0.794228	-0.202063	-0.372196
H54	H	0.897020	-0.581167	-0.665804
H55	H	1.627297	-0.222002	-0.936234
H56	H	1.071593	-0.499386	-0.763916
N57	N	1.110923	-0.293640	-0.389294
N58	N	1.064966	-0.245983	-0.326383
H59	H	1.106987	-0.207455	-0.275538
N60	N	1.390636	-0.925110	-0.633684
N61	N	1.320703	-0.973794	-0.599697
H62	H	1.270247	-1.005305	-0.650084
H63	H	1.580297	-0.886250	-0.444283
N64	N	1.078412	-0.593506	-0.651771
N65	N	1.014913	-0.651109	-0.627937
H66	H	1.041561	-0.705422	-0.605449
H67	H	1.364601	-0.498189	-0.938879
N68	N	1.350040	-0.509201	-1.150000
N69	N	1.286985	-0.556826	-1.104027
H70	H	1.236061	-0.595304	-1.146034
N71	N	1.745652	-0.308211	-1.118568
N72	N	1.816566	-0.323518	-1.055876
H73	H	1.887680	-0.338829	-1.083226
