data_functionalizedCrystal
_audit_creation_method	'MofGen! by Chris Wilmer'
_symmetry_space_group_name_H-M	'P1'
_symmetry_Int_Tables_number	1
_symmetry_cell_setting	triclinic
loop_
_symmetry_equiv_pos_as_xyz
  x,y,z
_cell_length_a	18.627196
_cell_length_b	18.627245
_cell_length_c	18.627297
_cell_angle_alpha	59.997585
_cell_angle_beta	90.002641
_cell_angle_gamma	119.999860
loop_
_atom_site_label
_atom_site_type_symbol
_atom_site_fract_x
_atom_site_fract_y
_atom_site_fract_z
O1	O	0.611881	-0.513850	0.021373
O2	O	0.507486	-0.366839	-0.021242
O3	O	0.507482	-0.513846	0.125765
O4	O	0.611885	-0.366843	-0.125634
O5	O	0.388081	-0.633245	0.125761
O6	O	0.388085	-0.486239	-0.021246
O7	O	0.492480	-0.633249	0.021369
Zn8	Zn	0.421325	-0.578701	0.000061
Zn9	Zn	0.578641	-0.421387	0.000066
O10	O	0.492484	-0.486243	-0.125638
C11	C	0.386978	-0.226050	-0.030925
C12	C	0.431277	-0.137452	-0.024824
C13	C	0.300578	-0.269045	-0.031532
C14	C	0.386981	-0.356045	-0.030933
C15	C	0.431283	-0.406440	-0.024841
C16	C	0.300581	-0.398843	-0.031540
C17	C	0.256978	-0.356048	-0.030928
C18	C	0.162281	-0.406446	-0.024831
C19	C	0.430384	-0.269042	-0.031537
O20	O	0.125680	-0.486246	-0.021234
O21	O	-0.125724	-0.633265	0.021395
O22	O	0.021259	-0.486258	-0.125618
O23	O	-0.021303	-0.633253	0.125779
O24	O	0.021257	-0.366859	-0.125614
O25	O	-0.125726	-0.513865	0.021399
O26	O	0.125678	-0.366847	-0.021230
Zn27	Zn	-0.000024	-0.421399	0.000085
Zn28	Zn	-0.000022	-0.578713	0.000080
O29	O	-0.021305	-0.513854	0.125783
C30	C	0.612984	-0.356049	-0.386934
C31	C	0.568683	-0.406446	-0.431234
C32	C	0.699382	-0.269044	-0.430338
C33	C	0.612985	-0.356047	-0.256935
C34	C	0.568686	-0.406443	-0.162238
C35	C	0.699384	-0.269042	-0.300536
C36	C	0.742985	-0.226049	-0.386934
C37	C	0.837682	-0.137450	-0.431233
C38	C	0.569580	-0.398844	-0.300536
C39	C	0.742978	-0.644058	0.031085
C40	C	0.837674	-0.593664	0.024994
C41	C	0.699376	-0.731065	0.031693
C42	C	0.612980	-0.644052	0.031075
C43	C	0.568681	-0.593651	0.024972
C44	C	0.569576	-0.731058	0.031683
C45	C	0.612979	-0.774056	0.031081
C46	C	0.568679	-0.862657	0.024985
C47	C	0.699378	-0.601258	0.031687
O48	O	0.492476	0.104339	0.021389
O49	O	0.388076	-0.104452	-0.021222
O50	O	0.388081	-0.104464	0.125784
O51	O	0.492471	0.104351	-0.125617
O52	O	0.507485	-0.104462	0.125779
O53	O	0.507480	-0.104449	-0.021226
O54	O	0.611879	0.104341	0.021384
Zn55	Zn	0.578638	-0.000054	0.000078
Zn56	Zn	0.421318	-0.000057	0.000084
O57	O	0.611874	0.104353	-0.125621
O58	O	1.125683	0.104349	-0.492431
O59	O	0.874285	-0.104446	-0.388033
O60	O	1.021281	-0.104453	-0.388025
O61	O	0.978687	0.104357	-0.492440
O62	O	1.021278	-0.104456	-0.507425
O63	O	0.874282	-0.104449	-0.507434
O64	O	1.125680	0.104346	-0.611832
Zn65	Zn	0.999980	-0.000052	-0.578590
Zn66	Zn	0.999984	-0.000048	-0.421275
O67	O	0.978683	0.104354	-0.611840
O68	O	0.507482	-0.513845	-0.611835
O69	O	0.611882	-0.366846	-0.507435
O70	O	0.611880	-0.513851	-0.507428
O71	O	0.507485	-0.366840	-0.611843
O72	O	0.492478	-0.633252	-0.388028
O73	O	0.492480	-0.486247	-0.388036
O74	O	0.388080	-0.633246	-0.492436
Zn75	Zn	0.421323	-0.578704	-0.421279
Zn76	Zn	0.578640	-0.421388	-0.578593
O77	O	0.388083	-0.486241	-0.492443
C78	C	0.256979	-0.774041	0.387060
C79	C	0.162282	-0.862640	0.431358
C80	C	0.300581	-0.731047	0.430465
C81	C	0.386979	-0.644042	0.257062
C82	C	0.431280	-0.593646	0.162365
C83	C	0.430384	-0.601246	0.300664
C84	C	0.386979	-0.644042	0.387062
C85	C	0.431280	-0.593645	0.431363
C86	C	0.300581	-0.731047	0.300662
C87	C	0.030912	-0.226074	-0.386909
C88	C	0.024808	-0.137477	-0.431207
C89	C	0.031514	-0.269070	-0.430313
C90	C	0.030933	-0.356067	-0.256913
C91	C	0.024851	-0.406460	-0.162217
C92	C	0.031535	-0.398866	-0.300514
C93	C	0.030914	-0.356074	-0.386910
C94	C	0.024811	-0.406473	-0.431209
C95	C	0.031533	-0.269064	-0.300513
C96	C	-0.030960	-0.644040	0.387076
C97	C	-0.024858	-0.593642	0.431375
C98	C	-0.031560	-0.731044	0.430478
C99	C	-0.030980	-0.644045	0.257077
C100	C	-0.024897	-0.593652	0.162382
C101	C	-0.031579	-0.731049	0.300677
C102	C	-0.030959	-0.774039	0.387073
C103	C	-0.024854	-0.862636	0.431370
C104	C	-0.031581	-0.601247	0.300679
C105	C	0.386983	-0.356101	0.387070
C106	C	0.431285	-0.406501	0.431365
C107	C	0.300584	-0.398905	0.430475
C108	C	0.386982	-0.226085	0.257077
C109	C	0.431282	-0.137471	0.162382
C110	C	0.300582	-0.269086	0.300679
C111	C	0.256981	-0.356104	0.387074
C112	C	0.162283	-0.406507	0.431374
C113	C	0.430387	-0.269083	0.300674
O114	O	-0.021396	-0.633275	-0.492409
O115	O	0.021220	-0.486272	-0.388011
O116	O	-0.125785	-0.633282	-0.387996
O117	O	0.125609	-0.486265	-0.492424
O118	O	-0.125804	-0.513885	-0.507393
O119	O	0.021201	-0.366875	-0.507408
O120	O	-0.021415	-0.513878	-0.611806
Zn121	Zn	-0.000110	-0.421420	-0.578564
Zn122	Zn	-0.000085	-0.578730	-0.421253
O123	O	0.125590	-0.366868	-0.611821
C124	C	0.742975	0.355992	-0.386912
C125	C	0.837672	0.406395	-0.431212
C126	C	0.699372	0.398794	-0.430312
C127	C	0.612974	0.225974	-0.256914
C128	C	0.568674	0.137360	-0.162220
C129	C	0.569569	0.268973	-0.300512
C130	C	0.612973	0.355990	-0.386907
C131	C	0.568671	0.406391	-0.431202
C132	C	0.699374	0.268975	-0.300517
H133	H	0.265577	-0.233055	-0.032513
C134	C	0.746199	-0.507807	0.032844
C135	C	0.821430	-0.428285	-0.041985
C136	C	0.864584	-0.342188	-0.040947
H137	H	0.707937	-0.488234	0.033072
H138	H	0.762718	-0.522917	0.084077
H139	H	0.804909	-0.413175	-0.093205
H140	H	0.859712	-0.447825	-0.042229
H141	H	0.881103	-0.357299	0.010286
H142	H	0.826316	-0.322625	-0.040716
H143	H	0.915637	-0.288226	-0.091713
H144	H	0.501368	-0.531226	0.265652
C145	C	0.745957	0.492042	-0.525018
C146	C	0.699211	0.469437	-0.578045
C147	C	0.742110	0.555307	-0.665289
H148	H	0.748966	0.546169	-0.528483
H149	H	0.803759	0.511487	-0.544771
H150	H	0.641425	0.450006	-0.558298
H151	H	0.696201	0.415324	-0.574608
H152	H	0.799912	0.574753	-0.685042
H153	H	0.745117	0.609429	-0.668744
H154	H	0.710404	0.539979	-0.701280
H155	H	0.734387	-0.233063	-0.265526
C156	C	0.253756	-0.492362	0.525082
C157	C	0.178514	-0.571869	0.529769
C158	C	0.135350	-0.657969	0.616905
H159	H	0.292007	-0.511951	0.544889
H160	H	0.237249	-0.477246	0.561203
H161	H	0.195022	-0.586985	0.493661
H162	H	0.140241	-0.552313	0.509980
H163	H	0.118842	-0.642852	0.653026
H164	H	0.173608	-0.677548	0.636704
H165	H	0.084289	-0.711922	0.620098
H166	H	0.498580	0.232983	-0.265501
H167	H	0.265572	-0.767035	0.501454
H168	H	0.265562	-0.767016	0.265650
C169	C	0.033050	-0.492076	-0.253881
C170	C	0.108699	-0.469414	-0.229766
C171	C	0.110141	-0.555239	-0.186829
H172	H	-0.017599	-0.546233	-0.202754
H173	H	0.033379	-0.511499	-0.292251
H174	H	0.108363	-0.450004	-0.191398
H175	H	0.159361	-0.415271	-0.280876
H176	H	0.110469	-0.574662	-0.225199
H177	H	0.059488	-0.609390	-0.135706
H178	H	0.161472	-0.539872	-0.170469
H179	H	0.734391	0.233006	-0.265511
C180	C	0.032569	-0.221236	-0.524890
C181	C	-0.042307	-0.220925	-0.529527
C182	C	-0.041395	-0.176912	-0.616623
H183	H	0.083752	-0.153479	-0.561119
H184	H	0.032781	-0.259365	-0.544592
H185	H	-0.042511	-0.182796	-0.509835
H186	H	-0.093502	-0.288669	-0.493317
H187	H	-0.041183	-0.215041	-0.636325
H188	H	0.009791	-0.109158	-0.652844
H189	H	-0.092201	-0.176704	-0.619779
H190	H	0.265579	-0.468853	-0.032519
C191	C	0.033032	-0.220923	-0.253937
C192	C	0.108662	-0.121149	-0.300718
C193	C	0.110081	-0.076779	-0.257832
H194	H	-0.017631	-0.220470	-0.250904
H195	H	0.033370	-0.258955	-0.196143
H196	H	0.108316	-0.083127	-0.358496
H197	H	0.159337	-0.121574	-0.303752
H198	H	0.110419	-0.114811	-0.200038
H199	H	0.059415	-0.076333	-0.254801
H200	H	0.161399	-0.009082	-0.289561
C201	C	-0.033067	-0.779114	0.254030
C202	C	-0.108704	-0.807988	0.229897
C203	C	-0.110108	-0.852284	0.186942
H204	H	0.017591	-0.731474	0.202910
H205	H	-0.033386	-0.837234	0.292393
H206	H	-0.108377	-0.749876	0.191535
H207	H	-0.159375	-0.855640	0.281001
H208	H	-0.110428	-0.910404	0.225305
H209	H	-0.059447	-0.804637	0.135825
H210	H	-0.161431	-0.871889	0.170569
H211	H	-0.032514	-0.767012	0.501461
H212	H	0.501374	-0.233052	-0.032518
C213	C	0.525100	-0.221011	0.254092
C214	C	0.578105	-0.192159	0.300866
C215	C	0.665356	-0.147858	0.257971
H216	H	0.528580	-0.268644	0.251058
H217	H	0.544858	-0.162882	0.196298
H218	H	0.558353	-0.250281	0.358644
H219	H	0.574651	-0.144516	0.303901
H220	H	0.685113	-0.089729	0.200177
H221	H	0.668827	-0.195496	0.254940
H222	H	0.701332	-0.128268	0.289696
H223	H	0.734379	-0.233054	-0.501332
C224	C	0.474979	-0.778958	0.032805
C225	C	0.470281	-0.779346	-0.042031
C226	C	0.383158	-0.823449	-0.041031
H227	H	0.438801	-0.846701	0.084016
H228	H	0.455249	-0.740853	0.033020
H229	H	0.490000	-0.817453	-0.042238
H230	H	0.506440	-0.711616	-0.093254
H231	H	0.363428	-0.785343	-0.040816
H232	H	0.346988	-0.891189	0.010183
H233	H	0.379960	-0.823709	-0.091810
H234	H	-0.032562	-0.531236	0.265678
H235	H	0.498590	-0.468853	-0.265536
H236	H	0.734385	-0.767046	0.032674
C237	C	0.254004	-0.220944	0.254037
C238	C	0.300772	-0.121178	0.229913
C239	C	0.257884	-0.076807	0.186962
H240	H	0.250980	-0.220475	0.202913
H241	H	0.196207	-0.258985	0.292400
H242	H	0.358553	-0.083147	0.191552
H243	H	0.303798	-0.121618	0.281021
H244	H	0.200087	-0.114848	0.225326
H245	H	0.254863	-0.076344	0.135842
H246	H	0.289605	-0.009115	0.170596
