data_functionalizedCrystal
_audit_creation_method	'MofGen! by Chris Wilmer'
_symmetry_space_group_name_H-M	'P1'
_symmetry_Int_Tables_number	1
_symmetry_cell_setting	triclinic
loop_
_symmetry_equiv_pos_as_xyz
  x,y,z
_cell_length_a	33.510554
_cell_length_b	33.509711
_cell_length_c	33.506470
_cell_angle_alpha	60.004186
_cell_angle_beta	60.008358
_cell_angle_gamma	59.994760
loop_
_atom_site_label
_atom_site_type_symbol
_atom_site_fract_x
_atom_site_fract_y
_atom_site_fract_z
O1	O	0.055430	-0.583081	0.487524
O2	O	0.555430	-0.083081	0.987524
O3	O	0.020931	-0.453975	0.392819
O4	O	0.520931	0.046025	0.892819
O5	O	0.102693	-0.535652	0.392731
O6	O	0.602693	-0.035652	0.892731
O7	O	-0.026332	-0.501404	0.487613
O8	O	0.473668	-0.001404	0.987613
O9	O	0.129823	-0.508526	0.419767
O10	O	0.629823	-0.008526	0.919767
O11	O	0.048062	-0.426850	0.419856
O12	O	0.548062	0.073150	0.919856
O13	O	0.082561	-0.555956	0.514561
O14	O	0.582561	-0.055956	1.014561
Cu15	Cu	0.067789	-0.488926	0.469677
Cu16	Cu	0.567789	0.011074	0.969677
Cu17	Cu	0.035703	-0.521005	0.437703
Cu18	Cu	0.535703	-0.021005	0.937703
O19	O	0.000799	-0.474279	0.514649
O20	O	0.500799	0.025721	1.014649
N21	N	0.090357	-0.466366	0.492168
N22	N	0.590357	0.033634	0.992168
N23	N	0.013139	-0.543569	0.415212
N24	N	0.513139	-0.043569	0.915212
C25	C	0.143028	-0.279707	0.544737
C26	C	0.643028	0.220293	1.044737
C27	C	0.143165	-0.413746	0.678712
C28	C	0.643165	0.086254	1.178712
C29	C	0.143043	-0.413725	0.544739
C30	C	0.643043	0.086275	1.044739
C31	C	0.277090	-0.413694	0.544637
C32	C	0.777090	0.086306	1.044637
C33	C	0.157791	-0.323929	0.559462
C34	C	0.657791	0.176071	1.059462
C35	C	0.157869	-0.398994	0.634489
C36	C	0.657869	0.101006	1.134489
C37	C	0.232865	-0.398963	0.559407
C38	C	0.732865	0.101037	1.059407
C39	C	0.157801	-0.398982	0.559463
C40	C	0.657801	0.101018	1.059463
C41	C	0.124237	-0.223419	0.525994
C42	C	0.624237	0.276581	1.025994
C43	C	0.124262	-0.432490	0.525997
C44	C	0.624262	0.067510	1.025997
C45	C	0.176583	-0.380217	0.578205
C46	C	0.676583	0.119783	1.078205
C47	C	0.358938	-0.399566	0.501510
C48	C	0.858938	0.100434	1.001510
C49	C	0.410104	-0.416609	0.484423
C50	C	0.910104	0.083391	0.984423
C51	C	0.410135	-0.499402	0.515995
C52	C	0.910135	0.000598	1.015995
C53	C	0.358969	-0.482358	0.533084
C54	C	0.858969	0.017642	1.033084
C55	C	0.136554	-0.197822	0.475693
C56	C	0.636554	0.302178	0.975693
C57	C	0.119469	-0.146653	0.458657
C58	C	0.619469	0.353347	0.958657
C59	C	0.077755	-0.146680	0.542223
C60	C	0.577755	0.353320	1.042223
C61	C	0.094840	-0.197850	0.559260
C62	C	0.594840	0.302150	1.059260
C63	C	0.073954	-0.420144	0.538396
C64	C	0.573954	0.079856	1.038396
C65	C	0.056884	-0.437203	0.521352
C66	C	0.556884	0.062797	1.021352
C67	C	0.140427	-0.478952	0.479524
C68	C	0.640427	0.021048	0.979524
C69	C	0.157498	-0.461894	0.496561
C70	C	0.657498	0.038106	0.996561
C71	C	0.074158	-0.420182	0.760618
C72	C	0.574158	0.079818	1.260618
C73	C	0.057149	-0.437256	0.811786
C74	C	0.557149	0.062744	1.311786
C75	C	0.140732	-0.479014	0.811717
C76	C	0.640732	0.020986	1.311717
C77	C	0.157740	-0.461942	0.760547
C78	C	0.657740	0.038058	1.260547
C79	C	0.124452	-0.432525	0.734999
C80	C	0.624452	0.067475	1.234999
C81	C	0.333372	-0.432439	0.525839
C82	C	0.833372	0.067561	1.025839
C83	C	-0.020612	-0.577650	0.170305
C84	C	0.479388	-0.077650	0.670305
C85	C	-0.020943	-0.788098	0.380897
C86	C	0.479057	-0.288098	0.880897
C87	C	-0.020912	-0.577638	0.380991
C88	C	0.479088	-0.077638	0.880991
C89	C	-0.231336	-0.577418	0.380585
C90	C	0.268664	-0.077418	0.880585
C91	C	-0.129735	-0.611383	0.346870
C92	C	0.370265	-0.111383	0.846870
C93	C	-0.054722	-0.611464	0.347017
C94	C	0.445278	-0.111464	0.847017
C95	C	-0.073450	-0.630202	0.328195
C96	C	0.426550	-0.130202	0.828195
C97	C	-0.087616	-0.712029	0.371239
C98	C	0.412384	-0.212029	0.871239
C99	C	-0.070599	-0.763199	0.388315
C100	C	0.429401	-0.263199	0.888315
C101	C	0.012191	-0.763282	0.356872
C102	C	0.512191	-0.263282	0.856872
C103	C	-0.004828	-0.712113	0.339795
C104	C	0.495172	-0.212113	0.839795
C105	C	-0.155381	-0.623711	0.397158
C106	C	0.344619	-0.123711	0.897158
C107	C	-0.206547	-0.606601	0.414133
C108	C	0.293453	-0.106601	0.914133
C109	C	-0.206417	-0.564839	0.330529
C110	C	0.293583	-0.064839	0.830529
C111	C	-0.155251	-0.581949	0.313554
C112	C	0.344749	-0.081949	0.813554
C113	C	-0.067051	-0.561160	0.334643
C114	C	0.432949	-0.061160	0.834643
C115	C	-0.050026	-0.544131	0.351759
C116	C	0.449974	-0.044131	0.851759
C117	C	-0.008343	-0.627704	0.393612
C118	C	0.491657	-0.127704	0.893612
C119	C	-0.025368	-0.644736	0.376502
C120	C	0.474632	-0.144736	0.876502
C121	C	-0.066922	-0.561168	0.246303
C122	C	0.433078	-0.061168	0.746303
C123	C	-0.049794	-0.544141	0.195134
C124	C	0.450206	-0.044141	0.695134
C125	C	-0.008048	-0.627719	0.195183
C126	C	0.491952	-0.127719	0.695183
C127	C	-0.025175	-0.644745	0.246352
C128	C	0.474825	-0.144745	0.746352
C129	C	-0.054614	-0.611468	0.271911
C130	C	0.445386	-0.111468	0.771911
C131	C	-0.054732	-0.686488	0.346980
C132	C	0.445268	-0.186488	0.846980
C133	C	-0.002117	-0.558258	0.114025
C134	C	0.497883	-0.058258	0.614025
C135	C	-0.002879	-0.844379	0.399940
C136	C	0.497121	-0.344379	0.899940
C137	C	-0.002504	-0.558243	0.399473
C138	C	0.497496	-0.058243	0.899473
C139	C	-0.287615	-0.558285	0.398601
C140	C	0.212385	-0.058285	0.898601
N141	N	0.434975	-0.466279	0.491900
N142	N	0.934975	0.033721	0.991900
O143	O	0.591199	-0.470749	0.375150
O144	O	1.091199	0.029251	0.875150
O145	O	0.591395	-0.565767	0.504116
O146	O	1.091395	-0.065767	1.004116
O147	O	0.591311	-0.565550	0.422329
O148	O	1.091311	-0.065550	0.922329
O149	O	0.591283	-0.470966	0.456937
O150	O	1.091283	0.029034	0.956937
O151	O	0.510024	-0.538522	0.449509
O152	O	1.010024	-0.038522	0.949509
O153	O	0.510108	-0.538739	0.531297
O154	O	1.010108	-0.038739	1.031297
O155	O	0.509913	-0.443721	0.402330
O156	O	1.009913	0.056279	0.902330
Cu157	Cu	0.502588	-0.488762	0.469295
Cu158	Cu	1.002588	0.011238	0.969295
Cu159	Cu	0.598719	-0.520726	0.437151
Cu160	Cu	1.098719	-0.020726	0.937151
O161	O	0.509997	-0.443938	0.484117
O162	O	1.009997	0.056062	0.984117
N163	N	0.666332	-0.543209	0.414541
N164	N	1.166332	-0.043209	0.914541
N165	N	0.090323	-0.121809	0.492157
N166	N	0.590323	0.378191	0.992157
O167	O	-0.026342	0.034503	0.487582
O168	O	0.473658	0.534503	0.987582
O169	O	0.102626	0.034543	0.392540
O170	O	0.602626	0.534543	0.892540
O171	O	0.020797	0.034507	0.392812
O172	O	0.520797	0.534507	0.892812
O173	O	0.055487	0.034539	0.487310
O174	O	0.555487	0.534539	0.987310
O175	O	0.047933	-0.046785	0.419900
O176	O	0.547933	0.453215	0.919900
O177	O	0.129763	-0.046749	0.419628
O178	O	0.629763	0.453251	0.919628
O179	O	0.000794	-0.046789	0.514670
O180	O	0.500794	0.453211	1.014670
Cu181	Cu	0.067756	-0.054192	0.469623
Cu182	Cu	0.567756	0.445808	0.969623
Cu183	Cu	0.035664	0.041946	0.437588
Cu184	Cu	0.535664	0.541946	0.937588
O185	O	0.082623	-0.046753	0.514399
O186	O	0.582623	0.453247	1.014399
N187	N	0.013091	0.109564	0.415054
N188	N	0.513091	0.609564	0.915054
N189	N	0.090671	-0.466416	0.836606
N190	N	0.590671	0.033584	1.336606
O191	O	0.086120	-0.583065	0.992910
O192	O	0.586120	-0.083065	1.492910
O193	O	-0.008880	-0.454051	0.992954
O194	O	0.491120	0.045949	1.492954
O195	O	-0.008658	-0.535864	0.992931
O196	O	0.491342	-0.035864	1.492931
O197	O	0.085897	-0.501252	0.992933
O198	O	0.585897	-0.001252	1.492933
O199	O	0.018407	-0.508749	0.911642
O200	O	0.518407	-0.008749	1.411642
O201	O	0.018185	-0.426936	0.911665
O202	O	0.518185	0.073064	1.411665
O203	O	0.113185	-0.555949	0.911621
O204	O	0.613185	-0.055949	1.411621
Cu205	Cu	0.068156	-0.488967	0.904221
Cu206	Cu	0.568156	0.011033	1.404221
Cu207	Cu	0.036148	-0.521034	1.000355
Cu208	Cu	0.536148	-0.021034	1.500355
O209	O	0.112963	-0.474136	0.911644
O210	O	0.612963	0.025864	1.411644
N211	N	0.013633	-0.543590	1.067970
N212	N	0.513633	-0.043590	1.567970
C213	C	0.031262	-0.424144	0.393290
C214	C	0.531262	0.075856	0.893290
C215	C	0.132513	-0.525291	0.393180
C216	C	0.632513	-0.025291	0.893180
C217	C	0.072229	-0.585787	0.514090
C218	C	0.572229	-0.085787	1.014090
C219	C	-0.029022	-0.484640	0.514200
C220	C	0.470978	0.015360	1.014200
C221	C	0.550775	-0.565338	0.533954
C222	C	1.050775	-0.065338	1.033954
C223	C	0.550672	-0.565070	0.432670
C224	C	1.050672	-0.065070	0.932670
C225	C	0.550530	-0.444149	0.372492
C226	C	1.050530	0.055851	0.872492
C227	C	0.550635	-0.444418	0.473776
C228	C	1.050635	0.055582	0.973776
C229	C	0.132408	-0.005998	0.392963
C230	C	0.632408	0.494002	0.892963
C231	C	0.031106	-0.006142	0.393333
C232	C	0.531106	0.493858	0.893333
C233	C	-0.029021	-0.006147	0.514213
C234	C	0.470979	0.493853	1.014213
C235	C	0.072314	-0.006104	0.513878
C236	C	0.572314	0.493896	1.013878
C237	C	-0.008430	-0.424240	0.952316
C238	C	0.491570	0.075760	1.452316
C239	C	-0.008150	-0.525550	0.952271
C240	C	0.491850	-0.025550	1.452271
C241	C	0.112735	-0.585760	0.952260
C242	C	0.612735	-0.085760	1.452260
C243	C	0.112461	-0.484444	0.952286
C244	C	0.612461	0.015556	1.452286
H245	H	0.016194	-0.427197	0.832639
H246	H	0.516194	0.072803	1.332639
C247	C	0.182338	-0.005675	0.352551
C248	C	0.682338	0.494325	0.852551
C249	C	0.192022	-0.005525	0.302456
C250	C	0.692022	0.494475	0.802456
C251	C	0.241953	-0.005202	0.262044
C252	C	0.741953	0.494798	0.762044
C253	C	0.282198	-0.005028	0.271727
C254	C	0.782198	0.494972	0.771727
C255	C	0.272515	-0.005178	0.321825
C256	C	0.772515	0.494822	0.821825
C257	C	0.222585	-0.005501	0.362237
C258	C	0.722585	0.494499	0.862237
H259	H	0.162229	-0.005654	0.295286
H260	H	0.662229	0.494346	0.795286
H261	H	0.249121	-0.005091	0.224958
H262	H	0.749121	0.494909	0.724958
H263	H	0.319160	-0.004789	0.241812
H264	H	0.819160	0.495211	0.741812
H265	H	0.302308	-0.005050	0.328995
H266	H	0.802308	0.494950	0.828995
H267	H	0.215417	-0.005612	0.399322
H268	H	0.715417	0.494388	0.899322
C269	C	0.024325	-0.664325	0.167073
C270	C	0.524325	-0.164325	0.667073
C271	C	0.076291	-0.664157	0.131970
C272	C	0.576291	-0.164157	0.631970
C273	C	0.108665	-0.700766	0.103861
C274	C	0.608665	-0.200766	0.603861
C275	C	0.089074	-0.737543	0.110854
C276	C	0.589074	-0.237543	0.610854
C277	C	0.037106	-0.737713	0.145958
C278	C	0.537106	-0.237713	0.645958
C279	C	0.004731	-0.701104	0.174067
C280	C	0.504731	-0.201104	0.674067
H281	H	0.090796	-0.636931	0.126793
H282	H	0.590796	-0.136931	0.626793
H283	H	0.147136	-0.700640	0.077875
H284	H	0.647136	-0.200640	0.577875
H285	H	0.113040	-0.764643	0.090046
H286	H	0.613040	-0.264643	0.590046
H287	H	0.022601	-0.764939	0.151136
H288	H	0.522601	-0.264939	0.651136
H289	H	-0.033739	-0.701230	0.200053
H290	H	0.466261	-0.201230	0.700053
C291	C	0.082183	-0.635889	0.554276
C292	C	0.582183	-0.135889	1.054276
C293	C	0.078684	-0.639290	0.603425
C294	C	0.578684	-0.139290	1.103425
C295	C	0.088638	-0.689392	0.643611
C296	C	0.588638	-0.189392	1.143611
C297	C	0.102091	-0.736093	0.634648
C298	C	0.602091	-0.236093	1.134648
C299	C	0.105590	-0.732694	0.585497
C300	C	0.605590	-0.232694	1.085497
C301	C	0.095636	-0.682592	0.545311
C302	C	0.595636	-0.182592	1.045311
H303	H	0.068725	-0.604718	0.610062
H304	H	0.568725	-0.104718	1.110062
H305	H	0.086048	-0.691909	0.679996
H306	H	0.586048	-0.191909	1.179996
H307	H	0.109459	-0.773182	0.664397
H308	H	0.609459	-0.273182	1.164397
H309	H	0.115549	-0.767266	0.578860
H310	H	0.615549	-0.267266	1.078860
H311	H	0.098227	-0.680075	0.508926
H312	H	0.598227	-0.180075	1.008926
H313	H	0.023675	-0.006147	0.363643
H314	H	0.523675	0.493853	0.863643
C315	C	0.037539	-0.387821	0.732517
C316	C	0.537539	0.112179	1.232517
C317	C	-0.017784	-0.374244	0.760698
C318	C	0.482216	0.125756	1.260698
C319	C	-0.054403	-0.341886	0.732597
C320	C	0.445597	0.158114	1.232597
C321	C	-0.035698	-0.323104	0.676314
C322	C	0.464302	0.176896	1.176314
C323	C	0.019627	-0.336681	0.648130
C324	C	0.519627	0.163319	1.148130
C325	C	0.056246	-0.369040	0.676231
C326	C	0.556246	0.130960	1.176231
H327	H	-0.031633	-0.388148	0.802364
H328	H	0.468367	0.111852	1.302364
H329	H	-0.095358	-0.331836	0.753461
H330	H	0.404642	0.168164	1.253461
H331	H	-0.062806	-0.299151	0.655512
H332	H	0.437194	0.200849	1.155512
H333	H	0.033476	-0.322778	0.606464
H334	H	0.533476	0.177222	1.106464
H335	H	0.097201	-0.379090	0.655367
H336	H	0.597201	0.120910	1.155367
H337	H	-0.066081	-0.477343	0.543993
H338	H	0.433919	0.022657	1.043993
H339	H	0.550685	-0.594783	0.425263
H340	H	1.050685	-0.094783	0.925263
H341	H	0.550826	-0.595166	0.570996
H342	H	1.050826	-0.095166	1.070996
H343	H	-0.097376	-0.783993	0.408060
H344	H	0.402624	-0.283993	0.908060
C345	C	-0.079056	-0.006160	0.554523
C346	C	0.420944	0.493840	1.054523
C347	C	-0.119354	-0.006179	0.544788
C348	C	0.380646	0.493821	1.044788
C349	C	-0.169388	-0.006192	0.585097
C350	C	0.330612	0.493808	1.085097
C351	C	-0.179125	-0.006187	0.635141
C352	C	0.320875	0.493813	1.135141
C353	C	-0.138826	-0.006168	0.644878
C354	C	0.361174	0.493832	1.144878
C355	C	-0.088791	-0.006155	0.604569
C356	C	0.411209	0.493845	1.104569
H357	H	-0.112147	-0.006183	0.507740
H358	H	0.387853	0.493817	1.007740
H359	H	-0.199220	-0.006206	0.577889
H360	H	0.300780	0.493794	1.077889
H361	H	-0.216163	-0.006197	0.664981
H362	H	0.283837	0.493803	1.164981
H363	H	-0.146032	-0.006164	0.681926
H364	H	0.353968	0.493836	1.181926
H365	H	-0.058959	-0.006141	0.611777
H366	H	0.441041	0.493859	1.111777
H367	H	0.550467	-0.414317	0.335455
H368	H	1.050467	0.085683	0.835455
C369	C	-0.048266	-0.535534	0.952223
C370	C	0.451734	-0.035534	1.452223
C371	C	-0.098397	-0.495398	0.952214
C372	C	0.401603	0.004602	1.452214
C373	C	-0.138513	-0.505382	0.952166
C374	C	0.361487	-0.005382	1.452166
C375	C	-0.128497	-0.555503	0.952127
C376	C	0.371503	-0.055503	1.452127
C377	C	-0.078363	-0.595642	0.952136
C378	C	0.421637	-0.095642	1.452136
C379	C	-0.038247	-0.585658	0.952184
C380	C	0.461753	-0.085658	1.452184
H381	H	-0.105814	-0.458293	0.952243
H382	H	0.394186	0.041707	1.452243
H383	H	-0.175625	-0.475668	0.952159
H384	H	0.324375	0.024332	1.452159
H385	H	-0.158193	-0.562893	0.952091
H386	H	0.341807	-0.062893	1.452091
H387	H	-0.070946	-0.632747	0.952107
H388	H	0.429054	-0.132747	1.452107
H389	H	-0.001135	-0.615372	0.952190
H390	H	0.498865	-0.115372	1.452190
C391	C	0.152595	-0.474442	0.952279
C392	C	0.652595	0.025558	1.452279
C393	C	0.143574	-0.460956	0.994494
C394	C	0.643574	0.039044	1.494494
C395	C	0.183708	-0.450953	0.994486
C396	C	0.683708	0.049047	1.494486
C397	C	0.232863	-0.454436	0.952264
C398	C	0.732863	0.045564	1.452264
C399	C	0.241885	-0.467923	0.910046
C400	C	0.741885	0.032077	1.410046
C401	C	0.201751	-0.477926	0.910053
C402	C	0.701751	0.022074	1.410053
H403	H	0.107185	-0.458376	1.025752
H404	H	0.607185	0.041624	1.525752
H405	H	0.177029	-0.440969	1.025739
H406	H	0.677029	0.059031	1.525739
H407	H	0.262573	-0.447032	0.952259
H408	H	0.762573	0.052968	1.452259
H409	H	0.278274	-0.470502	0.878788
H410	H	0.778274	0.029498	1.378788
H411	H	0.208431	-0.487909	0.878801
H412	H	0.708431	0.012091	1.378801
H413	H	0.167840	-0.502959	0.832516
H414	H	0.667840	-0.002959	1.332516
C415	C	0.082347	-0.006096	0.553989
C416	C	0.582347	0.493904	1.053989
C417	C	0.132479	-0.006077	0.543955
C418	C	0.632479	0.493923	1.043955
C419	C	0.142512	-0.006069	0.584067
C420	C	0.642512	0.493931	1.084067
C421	C	0.102414	-0.006079	0.634212
C422	C	0.602414	0.493921	1.134212
C423	C	0.052279	-0.006097	0.644248
C424	C	0.552279	0.493903	1.144248
C425	C	0.042246	-0.006106	0.604137
C426	C	0.542246	0.493894	1.104137
H427	H	0.162165	-0.006070	0.506832
H428	H	0.662165	0.493930	1.006832
H429	H	0.179625	-0.006055	0.576637
H430	H	0.679625	0.493945	1.076637
H431	H	0.109841	-0.006073	0.663905
H432	H	0.609841	0.493927	1.163905
H433	H	0.022593	-0.006105	0.681371
H434	H	0.522593	0.493895	1.181371
H435	H	0.005132	-0.006120	0.611567
H436	H	0.505132	0.493880	1.111567
C437	C	0.550622	-0.404276	0.483775
C438	C	1.050622	0.095724	0.983775
C439	C	0.508438	-0.385208	0.525445
C440	C	1.008438	0.114792	1.025445
C441	C	0.508424	-0.345065	0.535445
C442	C	1.008424	0.154935	1.035445
C443	C	0.550594	-0.323990	0.503774
C444	C	1.050594	0.176010	1.003774
C445	C	0.592781	-0.343058	0.462101
C446	C	1.092781	0.156942	0.962101
C447	C	0.592795	-0.383201	0.452102
C448	C	1.092795	0.116799	0.952102
H449	H	0.477219	-0.400809	0.548892
H450	H	0.977219	0.099191	1.048892
H451	H	0.477195	-0.330950	0.566294
H452	H	0.977195	0.169050	1.066294
H453	H	0.550584	-0.294274	0.511176
H454	H	1.050584	0.205726	1.011176
H455	H	0.624001	-0.327457	0.438654
H456	H	1.124001	0.172543	0.938654
H457	H	0.624024	-0.397316	0.421253
H458	H	1.124024	0.102684	0.921253
H459	H	0.169570	-0.532590	0.363385
H460	H	0.669570	-0.032590	0.863385
H461	H	-0.038255	-0.387188	0.952329
H462	H	0.461745	0.112812	1.452329
H463	H	0.142562	-0.622811	0.952240
H464	H	0.642562	-0.122811	1.452240
H465	H	0.198696	-0.471996	0.739692
H466	H	0.698696	0.028004	1.239692
H467	H	0.046887	-0.396202	0.562361
H468	H	0.546887	0.103798	1.062361
H469	H	0.015920	-0.427139	0.531437
H470	H	0.515920	0.072861	1.031437
H471	H	0.167497	-0.502899	0.455559
H472	H	0.667497	-0.002899	0.955559
H473	H	0.338156	-0.509129	0.552896
H474	H	0.838156	-0.009129	1.052896
C475	C	0.212836	-0.475460	0.482927
C476	C	0.712836	0.024540	0.982927
C477	C	0.244999	-0.529496	0.497782
C478	C	0.744999	-0.029496	0.997782
C479	C	0.300335	-0.543058	0.484148
C480	C	0.800335	-0.043058	0.984148
C481	C	0.323507	-0.502585	0.455659
C482	C	0.823507	-0.002585	0.955659
C483	C	0.291344	-0.448546	0.440802
C484	C	0.791344	0.051454	0.940802
C485	C	0.236008	-0.434984	0.454436
C486	C	0.736008	0.065016	0.954436
H487	H	0.227846	-0.559460	0.518873
H488	H	0.727846	-0.059460	1.018873
H489	H	0.324144	-0.583062	0.495147
H490	H	0.824144	-0.083062	0.995147
H491	H	0.364470	-0.512625	0.445567
H492	H	0.864470	-0.012625	0.945567
H493	H	0.308497	-0.418582	0.419711
H494	H	0.808497	0.081418	0.919711
H495	H	0.212198	-0.394980	0.443437
H496	H	0.712198	0.105020	0.943437
C497	C	0.438292	-0.554312	0.523961
C498	C	0.938292	-0.054312	1.023961
C499	C	0.410172	-0.590475	0.550724
C500	C	0.910172	-0.090475	1.050724
C501	C	0.438332	-0.645386	0.558689
C502	C	0.938332	-0.145386	1.058689
C503	C	0.494613	-0.664134	0.539892
C504	C	0.994613	-0.164134	1.039892
C505	C	0.522736	-0.627970	0.513128
C506	C	1.022736	-0.127970	1.013128
C507	C	0.494576	-0.573060	0.505163
C508	C	0.994576	-0.073060	1.005163
H509	H	0.368506	-0.576598	0.564640
H510	H	0.868506	-0.076598	1.064640
H511	H	0.417512	-0.672157	0.578502
H512	H	0.917512	-0.172157	1.078502
H513	H	0.515458	-0.704782	0.545789
H514	H	1.015458	-0.204782	1.045789
H515	H	0.564401	-0.641848	0.499212
H516	H	1.064401	-0.141848	0.999212
H517	H	0.515395	-0.546289	0.485350
H518	H	1.015395	-0.046289	0.985350
H519	H	0.338097	-0.358917	0.495611
H520	H	0.838097	0.141083	0.995611
C521	C	0.438230	-0.380447	0.457657
C522	C	0.938230	0.119553	0.957657
C523	C	0.431219	-0.349352	0.483812
C524	C	0.931219	0.150648	0.983812
C525	C	0.459346	-0.313191	0.457043
C526	C	0.959346	0.186809	0.957043
C527	C	0.494483	-0.308125	0.404117
C528	C	0.994483	0.191875	0.904117
C529	C	0.501496	-0.339221	0.377959
C530	C	1.001496	0.160779	0.877959
C531	C	0.473369	-0.375382	0.404728
C532	C	0.973369	0.124618	0.904728
H533	H	0.405207	-0.353101	0.522994
H534	H	0.905207	0.146899	1.022994
H535	H	0.454155	-0.290171	0.476407
H536	H	0.954155	0.209829	0.976407
H537	H	0.515304	-0.281356	0.384301
H538	H	1.015304	0.218644	0.884301
H539	H	0.527508	-0.335472	0.338777
H540	H	1.027508	0.164528	0.838777
H541	H	0.478560	-0.398401	0.385363
H542	H	0.978560	0.101599	0.885363
C543	C	0.168888	-0.225948	0.439100
C544	C	0.668888	0.274052	0.939100
C545	C	0.182429	-0.197791	0.383769
C546	C	0.682429	0.302209	0.883769
C547	C	0.214763	-0.225919	0.347177
C548	C	0.714763	0.274081	0.847177
C549	C	0.233557	-0.282203	0.365916
C550	C	0.733557	0.217797	0.865916
C551	C	0.220016	-0.310363	0.421249
C552	C	0.720016	0.189637	0.921249
C553	C	0.187682	-0.282235	0.457842
C554	C	0.687682	0.217765	0.957842
H555	H	0.168516	-0.156123	0.369895
H556	H	0.668516	0.343877	0.869895
H557	H	0.224787	-0.205073	0.306215
H558	H	0.724787	0.294927	0.806215
H559	H	0.257493	-0.303025	0.338828
H560	H	0.757493	0.196975	0.838828
H561	H	0.233929	-0.352031	0.435123
H562	H	0.733929	0.147969	0.935123
H563	H	0.177658	-0.303082	0.498803
H564	H	0.677658	0.196918	0.998803
H565	H	0.129496	-0.125810	0.417697
H566	H	0.629496	0.374190	0.917697
H567	H	0.053825	-0.125861	0.569312
H568	H	0.553825	0.374139	1.069312
H569	H	0.084809	-0.218687	0.600218
H570	H	0.584809	0.281313	1.100218
H571	H	-0.090896	-0.534066	0.267110
H572	H	0.409104	-0.034066	0.767110
C573	C	-0.063344	-0.488806	0.166970
C574	C	0.436656	0.011194	0.666970
C575	C	-0.095728	-0.452206	0.195087
C576	C	0.404272	0.047794	0.695087
C577	C	-0.109278	-0.396872	0.166922
C578	C	0.390722	0.103128	0.666922
C579	C	-0.090444	-0.378138	0.110639
C580	C	0.409556	0.121862	0.610639
C581	C	-0.058058	-0.414739	0.082520
C582	C	0.441942	0.085261	0.582520
C583	C	-0.044508	-0.470072	0.110685
C584	C	0.455492	0.029928	0.610685
H585	H	-0.109672	-0.466074	0.236753
H586	H	0.390328	0.033926	0.736753
H587	H	-0.133252	-0.369779	0.187738
H588	H	0.366748	0.130221	0.687738
H589	H	-0.100474	-0.337177	0.089790
H590	H	0.399526	0.162823	0.589790
H591	H	-0.044114	-0.400871	0.040853
H592	H	0.455886	0.099129	0.540853
H593	H	-0.020534	-0.497166	0.089868
H594	H	0.479466	0.002834	0.589868
H595	H	-0.015148	-0.685706	0.267200
H596	H	0.484852	-0.185706	0.767200
H597	H	-0.090949	-0.534065	0.310634
H598	H	0.409051	-0.034065	0.810634
H599	H	-0.060067	-0.503170	0.341685
H600	H	0.439933	-0.003170	0.841685
H601	H	-0.015331	-0.685697	0.386578
H602	H	0.484669	-0.185697	0.886578
C603	C	0.023952	-0.664312	0.426036
C604	C	0.523952	-0.164312	0.926036
C605	C	0.073300	-0.701163	0.406510
C606	C	0.573300	-0.201163	0.906510
C607	C	0.105597	-0.737776	0.438934
C608	C	0.605597	-0.237776	0.938934
C609	C	0.088545	-0.737537	0.490884
C610	C	0.588545	-0.237537	0.990884
C611	C	0.039194	-0.700684	0.510412
C612	C	0.539194	-0.200684	1.010412
C613	C	0.006897	-0.664072	0.477988
C614	C	0.506897	-0.164072	0.977988
H615	H	0.085926	-0.701341	0.368052
H616	H	0.585926	-0.201341	0.868052
H617	H	0.142130	-0.765056	0.424478
H618	H	0.642130	-0.265056	0.924478
H619	H	0.112453	-0.764640	0.514886
H620	H	0.612453	-0.264640	1.014886
H621	H	0.026569	-0.700506	0.548871
H622	H	0.526569	-0.200506	1.048871
H623	H	-0.029636	-0.636791	0.492444
H624	H	0.470364	-0.136791	0.992444
C625	C	0.031347	-0.684016	0.313112
C626	C	0.531347	-0.184016	0.813112
C627	C	0.086239	-0.712204	0.305214
C628	C	0.586239	-0.212204	0.805214
C629	C	0.122414	-0.684108	0.278530
C630	C	0.622414	-0.184108	0.778530
C631	C	0.103697	-0.627823	0.259744
C632	C	0.603697	-0.127823	0.759744
C633	C	0.048802	-0.599632	0.267640
C634	C	0.548802	-0.099632	0.767640
C635	C	0.012627	-0.627728	0.294325
C636	C	0.512627	-0.127728	0.794325
H637	H	0.100097	-0.753872	0.319122
H638	H	0.600097	-0.253872	0.819122
H639	H	0.163051	-0.704977	0.272685
H640	H	0.663051	-0.204977	0.772685
H641	H	0.130476	-0.607025	0.239990
H642	H	0.630476	-0.107025	0.739990
H643	H	0.034944	-0.557964	0.253733
H644	H	0.534944	-0.057964	0.753733
H645	H	-0.028010	-0.606859	0.300170
H646	H	0.471990	-0.106859	0.800170
H647	H	0.052828	-0.784146	0.351024
H648	H	0.552828	-0.284146	0.851024
H649	H	-0.128252	-0.691169	0.377093
H650	H	0.371748	-0.191169	0.877093
H651	H	-0.134607	-0.647683	0.424287
H652	H	0.365393	-0.147683	0.924287
H653	H	-0.227429	-0.616637	0.455084
H654	H	0.272571	-0.116637	0.955084
H655	H	-0.134369	-0.571905	0.272603
H656	H	0.365631	-0.071905	0.772603
C657	C	-0.234493	-0.532471	0.293887
C658	C	0.265507	-0.032471	0.793887
C659	C	-0.227416	-0.552064	0.257063
C660	C	0.272584	-0.052064	0.757063
C661	C	-0.255493	-0.519698	0.220423
C662	C	0.244507	-0.019698	0.720423
C663	C	-0.290646	-0.467738	0.220606
C664	C	0.209354	0.032262	0.720606
C665	C	-0.297724	-0.448142	0.257431
C666	C	0.202276	0.051858	0.757431
C667	C	-0.269648	-0.480509	0.294071
C668	C	0.230352	0.019491	0.794071
H669	H	-0.201392	-0.590530	0.256926
H670	H	0.298608	-0.090530	0.756926
H671	H	-0.250253	-0.534204	0.193162
H672	H	0.249747	-0.034204	0.693162
H673	H	-0.311430	-0.443779	0.193482
H674	H	0.188570	0.056221	0.693482
H675	H	-0.323748	-0.409676	0.257568
H676	H	0.176252	0.090324	0.757568
H677	H	-0.274888	-0.466002	0.321332
H678	H	0.225112	0.033998	0.821332
C679	C	0.021307	-0.374043	0.353103
C680	C	0.521307	0.125957	0.853103
C681	C	-0.028799	-0.333860	0.363038
C682	C	0.471201	0.166140	0.863038
C683	C	-0.038754	-0.283759	0.322851
C684	C	0.461246	0.216241	0.822851
C685	C	0.001397	-0.273841	0.272728
C686	C	0.501397	0.226159	0.772728
C687	C	0.051507	-0.314026	0.262790
C688	C	0.551507	0.185974	0.762790
C689	C	0.061462	-0.364127	0.302977
C690	C	0.561462	0.135873	0.802977
H691	H	-0.058524	-0.341200	0.400145
H692	H	0.441476	0.158800	0.900145
H693	H	-0.075849	-0.254012	0.330208
H694	H	0.424151	0.245988	0.830208
H695	H	-0.005972	-0.236754	0.242979
H696	H	0.494028	0.263246	0.742979
H697	H	0.081232	-0.306685	0.225684
H698	H	0.581232	0.193315	0.725684
H699	H	0.098557	-0.393874	0.295620
H700	H	0.598557	0.106126	0.795620
