data_functionalizedCrystal
_audit_creation_method	'MofGen! by Chris Wilmer'
_symmetry_space_group_name_H-M	'P1'
_symmetry_Int_Tables_number	1
_symmetry_cell_setting	triclinic
loop_
_symmetry_equiv_pos_as_xyz
  x,y,z
_cell_length_a	14.853558
_cell_length_b	14.853567
_cell_length_c	7.681481
_cell_angle_alpha	84.253558
_cell_angle_beta	95.731901
_cell_angle_gamma	83.633032
loop_
_atom_site_label
_atom_site_type_symbol
_atom_site_fract_x
_atom_site_fract_y
_atom_site_fract_z
O1	O	1.187859	0.126187	-0.146392
O2	O	0.925398	0.140218	-0.146398
O3	O	1.063638	0.001973	-0.146400
O4	O	1.049618	0.264432	-0.146390
O5	O	1.080654	-0.015082	0.146457
O6	O	0.942413	0.123163	0.146459
O7	O	1.204874	0.109133	0.146466
Zn8	Zn	1.076345	0.113440	0.192960
Zn9	Zn	1.053927	0.135910	-0.192893
O10	O	1.066633	0.247378	0.146468
C11	C	0.900316	0.131056	0.000029
C12	C	0.800232	0.129156	0.000026
C13	C	1.071510	-0.040143	0.000023
C14	C	1.069606	-0.140226	0.000008
C15	C	0.743936	0.137561	-0.159617
C16	C	0.762485	0.118958	0.159667
C17	C	0.668452	0.117167	0.159670
C18	C	0.612156	0.125572	0.000027
C19	C	0.649894	0.135768	-0.159619
C20	C	0.630708	0.106962	0.319313
C21	C	0.536669	0.105170	0.319323
C22	C	0.480371	0.113582	0.159677
C23	C	0.518114	0.123779	0.000025
C24	C	0.461819	0.132184	-0.159618
C25	C	0.499559	0.142388	-0.319273
C26	C	0.593596	0.144180	-0.319265
C27	C	0.386334	0.111790	0.159669
C28	C	0.367776	0.130391	-0.159621
C29	C	0.979441	-0.552758	0.000039
C30	C	1.143675	-0.574045	0.000043
C31	C	1.145465	-0.480011	0.000033
C32	C	1.064241	-0.422346	0.000028
C33	C	0.981229	-0.458715	0.000034
C34	C	1.228477	-0.443635	0.000045
C35	C	1.230270	-0.349595	0.000037
C36	C	1.149045	-0.291928	0.000019
C37	C	1.066029	-0.328303	0.000023
C38	C	0.984806	-0.270638	0.000019
C39	C	0.901788	-0.307010	0.000010
C40	C	0.900004	-0.401048	0.000017
C41	C	1.150829	-0.197890	0.000012
C42	C	0.986593	-0.176595	0.000014
C43	C	1.229955	0.118294	0.000034
C44	C	1.330038	0.120195	0.000026
C45	C	1.058761	0.289494	0.000040
C46	C	1.060665	0.389577	0.000044
N47	N	1.091651	0.098105	0.456294
N48	N	1.038627	0.151238	-0.456227
H49	H	0.321945	0.137242	-0.289623
Br50	Br	0.335119	0.097924	0.376323
Br51	Br	0.791562	-0.228741	0.000027
H52	H	0.920450	-0.129649	0.000003
Br53	Br	0.838886	0.107546	0.376316
H54	H	1.145788	0.043875	0.531499
Br55	Br	0.423151	0.153769	-0.535923
H56	H	0.676551	0.100111	0.449286
H57	H	0.774669	0.145873	-0.289604
H58	H	0.505949	0.096860	0.449323
Br59	Br	0.787346	-0.450415	-0.000006
H60	H	1.297868	-0.319990	0.000041
H61	H	0.911850	-0.582376	0.000025
H62	H	1.209804	-0.621001	0.000061
Br63	Br	1.338704	-0.521899	0.000099
Br64	Br	1.263488	-0.148533	0.000066
H65	H	0.984501	0.205472	0.468577
H66	H	0.624333	0.152486	-0.449246
