data_functionalizedCrystal
_audit_creation_method	'MofGen! by Chris Wilmer'
_symmetry_space_group_name_H-M	'P1'
_symmetry_Int_Tables_number	1
_symmetry_cell_setting	triclinic
loop_
_symmetry_equiv_pos_as_xyz
  x,y,z
_cell_length_a	10.654541
_cell_length_b	12.811457
_cell_length_c	11.295483
_cell_angle_alpha	91.289320
_cell_angle_beta	85.862400
_cell_angle_gamma	95.737498
loop_
_atom_site_label
_atom_site_type_symbol
_atom_site_fract_x
_atom_site_fract_y
_atom_site_fract_z
O1	O	-0.173490	1.390270	0.051122
O2	O	-0.189102	1.087140	0.018384
O3	O	0.001416	1.245676	0.035505
O4	O	-0.364008	1.231734	0.034001
O5	O	-0.015291	1.231751	0.232052
O6	O	-0.205810	1.073216	0.214931
O7	O	-0.190197	1.376345	0.247669
Cu8	Cu	-0.199529	1.223509	0.249246
Cu9	Cu	-0.179770	1.239977	0.016807
O10	O	-0.380716	1.217810	0.230548
C11	C	-0.196069	1.041363	0.112466
C12	C	-0.191922	0.925709	0.099975
C13	C	-0.202321	0.693199	0.290803
C14	C	-0.198424	0.584531	0.279073
C15	C	-0.180222	0.599702	0.064786
C16	C	-0.184119	0.708371	0.076516
C17	C	-0.195171	0.755115	0.189528
C18	C	-0.199076	0.863784	0.201257
C19	C	-0.180865	0.878955	-0.013029
C20	C	-0.176968	0.770286	-0.024759
C21	C	-0.419164	1.225795	0.132385
C22	C	-0.558619	1.228856	0.132716
C23	C	-0.585845	1.039283	0.112257
C24	C	-0.664973	0.945938	0.102187
C25	C	-0.796002	0.948821	0.102498
C26	C	-0.847905	1.045058	0.112877
C27	C	-0.768777	1.138403	0.122946
C28	C	-0.637747	1.135510	0.122637
C29	C	-0.741551	1.327975	0.143397
C30	C	-0.610522	1.325094	0.143094
C31	C	-0.793454	1.424213	0.153775
C32	C	-0.714327	1.517559	0.163854
C33	C	-0.583290	1.514672	0.163543
C34	C	-0.531395	1.418439	0.153164
C35	C	0.039865	1.237691	0.133666
C36	C	0.179321	1.234630	0.133327
C37	C	-0.183230	1.422122	0.153585
C38	C	-0.187377	1.537778	0.166068
N39	N	-0.213425	1.211934	0.412733
N40	N	-0.165864	1.251560	-0.146679
C41	C	-0.065759	1.334881	0.675300
C42	C	-0.076270	1.326141	0.799020
C43	C	-0.244951	1.185711	0.783894
C44	C	-0.234440	1.194450	0.660174
C45	C	-0.144843	1.269039	0.605882
C46	C	-0.134339	1.277783	0.482160
C47	C	-0.303013	1.137348	0.467036
C48	C	-0.313523	1.128608	0.590756
H49	H	-0.171203	0.561626	-0.027224
C50	C	-0.173000	0.947071	-0.124439
N51	N	-0.167080	0.998377	-0.208350
C52	C	-0.412067	1.046557	0.650491
N53	N	-0.486291	0.984754	0.695483
H54	H	-0.900146	1.426554	0.154020
C55	C	-0.607871	0.840080	0.090784
N56	N	-0.564865	0.760348	0.082199
C57	C	0.010732	1.398570	0.875375
N58	N	0.076269	1.453125	0.932886
C59	C	-0.164813	0.718855	-0.149066
N60	N	-0.155661	0.680117	-0.242697
H61	H	-0.204254	0.534122	0.361542
C62	C	-0.390010	1.064917	0.390666
N63	N	-0.455537	1.010365	0.333143
H64	H	-0.208082	0.901841	0.293278
H65	H	-0.479156	1.036926	0.112005
C66	C	-0.214485	0.744619	0.415116
N67	N	-0.223646	0.783347	0.508751
H68	H	0.007186	1.395621	0.631095
H69	H	-0.860428	0.872811	0.094295
C70	C	-0.992041	1.048224	0.113212
N71	N	-1.100606	1.050609	0.113467
H72	H	-0.756596	1.595909	0.172286
H73	H	-0.518870	1.590686	0.171734
H74	H	-0.424705	1.416079	0.152909
C75	C	-0.035777	1.359829	0.422440
N76	N	0.038466	1.421625	0.377463
C77	C	-0.343470	1.103644	0.843635
N78	N	-0.417667	1.041824	0.888633
