data_functionalizedCrystal
_audit_creation_method	'MofGen! by Chris Wilmer'
_symmetry_space_group_name_H-M	'P1'
_symmetry_Int_Tables_number	1
_symmetry_cell_setting	triclinic
loop_
_symmetry_equiv_pos_as_xyz
  x,y,z
_cell_length_a	18.215407
_cell_length_b	21.295418
_cell_length_c	18.215399
_cell_angle_alpha	90.030464
_cell_angle_beta	90.016899
_cell_angle_gamma	90.024859
loop_
_atom_site_label
_atom_site_type_symbol
_atom_site_fract_x
_atom_site_fract_y
_atom_site_fract_z
Zn1	Zn	1.125059	-0.250658	0.416045
Zn2	Zn	1.625059	0.249342	0.916045
Zn3	Zn	1.124962	-0.355929	0.292974
Zn4	Zn	1.624962	0.144071	0.792974
Zn5	Zn	1.001992	-0.250673	0.292999
Zn6	Zn	1.501992	0.249327	0.792999
Zn7	Zn	1.001952	-0.355889	0.416005
Zn8	Zn	1.501952	0.144111	0.916005
O9	O	1.063491	-0.303288	0.354506
O10	O	1.563491	0.196712	0.854506
O11	O	1.228030	-0.264633	0.399726
O12	O	1.728030	0.235367	0.899726
O13	O	1.108626	-0.341990	0.189993
O14	O	1.608626	0.158010	0.689993
O15	O	1.018374	-0.162582	0.309349
O16	O	1.518374	0.337418	0.809349
O17	O	1.227959	-0.341976	0.309306
O18	O	1.727959	0.158024	0.809306
O19	O	1.108791	-0.162571	0.399751
O20	O	1.608791	0.337429	0.899751
O21	O	1.018280	-0.264659	0.190011
O22	O	1.518280	0.235341	0.690011
O23	O	0.899002	-0.264620	0.309310
O24	O	1.399002	0.235380	0.809310
O25	O	1.018307	-0.341907	0.518995
O26	O	1.518307	0.158093	1.018995
O27	O	0.898973	-0.341921	0.399682
O28	O	1.398973	0.158079	0.899682
O29	O	1.108753	-0.264594	0.519024
O30	O	1.608753	0.235406	1.019024
O31	O	1.108587	-0.444013	0.309266
O32	O	1.608587	0.055987	0.809266
O33	O	1.018212	-0.443984	0.399657
O34	O	1.518212	0.056016	0.899657
C35	C	0.872285	-0.303268	0.354494
C36	C	1.372285	0.196732	0.854494
C37	C	0.790486	-0.303275	0.354507
C38	C	1.290486	0.196725	0.854507
C39	C	1.063405	-0.466839	0.354471
C40	C	1.563405	0.033161	0.854471
C41	C	1.063436	-0.536807	0.354480
C42	C	1.563436	-0.036807	0.854480
C43	C	0.525433	-0.343604	0.401498
C44	C	1.025433	0.156396	0.901498
C45	C	0.602291	-0.343599	0.401494
C46	C	1.102291	0.156401	0.901494
C47	C	0.602291	-0.262985	0.307527
C48	C	1.102291	0.237015	0.807527
C49	C	0.525434	-0.262994	0.307527
C50	C	1.025434	0.237006	0.807527
C51	C	0.487006	-0.303303	0.354517
C52	C	0.987006	0.196697	0.854517
C53	C	0.640723	-0.303288	0.354513
C54	C	1.140723	0.196712	0.854513
C55	C	0.724056	-0.303282	0.354509
C56	C	1.224056	0.196718	0.854509
C57	C	0.403667	-0.303310	0.354520
C58	C	0.903667	0.196690	0.854520
C59	C	1.110726	-1.036260	0.307558
C60	C	1.610726	-0.536260	0.807558
C61	C	1.110698	-0.970517	0.307541
C62	C	1.610698	-0.470517	0.807541
C63	C	1.063595	-0.937647	0.354557
C64	C	1.563595	-0.437647	0.854557
C65	C	1.016503	-0.970524	0.401581
C66	C	1.516503	-0.470524	0.901581
C67	C	1.016527	-1.036265	0.401592
C68	C	1.516527	-0.536265	0.901592
N69	N	1.057874	-0.834393	0.418954
N70	N	1.557874	-0.334393	0.918954
N71	N	1.057855	-0.771942	0.418942
N72	N	1.557855	-0.271942	0.918942
C73	C	1.063518	-0.739572	0.354526
C74	C	1.563518	-0.239572	0.854526
N75	N	1.069215	-0.772013	0.290122
N76	N	1.569215	-0.272013	0.790122
N77	N	1.069237	-0.834470	0.290135
N78	N	1.569237	-0.334470	0.790135
C79	C	1.063563	-0.866361	0.354550
C80	C	1.563563	-0.366361	0.854550
C81	C	1.110573	-0.635417	0.307483
C82	C	1.610573	-0.135417	0.807483
C83	C	1.110540	-0.569673	0.307464
C84	C	1.610540	-0.069673	0.807464
C85	C	1.016349	-0.569681	0.401511
C86	C	1.516349	-0.069681	0.901511
C87	C	1.016378	-0.635424	0.401523
C88	C	1.516378	-0.135424	0.901523
C89	C	1.063494	-0.668288	0.354510
C90	C	1.563494	-0.168288	0.854510
C91	C	1.255444	-0.303307	0.354518
C92	C	1.755444	0.196693	0.854518
C93	C	1.337243	-0.303316	0.354523
C94	C	1.837243	0.196684	0.854523
C95	C	1.063536	-0.303244	0.546459
C96	C	1.563536	0.196756	1.046459
C97	C	1.063555	-0.303226	0.628258
C98	C	1.563555	0.196774	1.128258
C99	C	1.063598	-0.139097	0.354557
C100	C	1.563598	0.360903	0.854557
C101	C	1.063643	-0.069129	0.354579
C102	C	1.563643	0.430871	0.854579
C103	C	1.063489	-0.303285	0.163300
C104	C	1.563489	0.196715	0.663300
C105	C	1.063612	-0.303127	0.081501
C106	C	1.563612	0.196873	0.581501
C107	C	1.110667	-0.262931	0.816468
C108	C	1.610667	0.237069	1.316468
C109	C	1.110676	-0.262913	0.893327
C110	C	1.610676	0.237087	1.393327
C111	C	1.016495	-0.343423	0.893285
C112	C	1.516495	0.156577	1.393285
C113	C	1.016483	-0.343437	0.816428
C114	C	1.516483	0.156563	1.316428
C115	C	1.063573	-0.303193	0.778021
C116	C	1.563573	0.196807	1.278021
C117	C	1.063594	-0.303160	0.931737
C118	C	1.563594	0.196840	1.431737
C119	C	1.063603	-0.303140	1.015071
C120	C	1.563603	0.196860	1.515071
C121	C	1.063563	-0.303211	0.694682
C122	C	1.563563	0.196789	1.194682
H123	H	0.494147	-0.376427	0.439760
H124	H	0.994147	0.123573	0.939760
H125	H	0.633588	-0.230166	0.269270
H126	H	1.133588	0.269834	0.769270
C127	C	0.974698	-0.379152	1.011084
C128	C	1.474698	0.120848	1.511084
C129	C	0.964741	-0.387663	0.935504
C130	C	1.464741	0.112337	1.435504
H131	H	0.942750	-0.406469	1.037145
H132	H	1.442750	0.093531	1.537145
H133	H	0.963953	-0.336859	1.023690
H134	H	1.463953	0.163141	1.523690
H135	H	1.024144	-0.388366	1.023674
H136	H	1.524144	0.111634	1.523674
H137	H	0.915296	-0.378444	0.922913
H138	H	1.415296	0.121556	1.422913
H139	H	0.975481	-0.429965	0.922893
H140	H	1.475481	0.070035	1.422893
C141	C	0.980569	-0.450036	0.792709
C142	C	1.480569	0.049964	1.292709
C143	C	0.964717	-0.387697	0.774158
C144	C	1.464717	0.112303	1.274158
H145	H	0.948613	-0.477357	0.766609
H146	H	1.448613	0.022643	1.266609
H147	H	0.973832	-0.455786	0.843972
H148	H	1.473832	0.044214	1.343972
H149	H	1.030010	-0.459246	0.780115
H150	H	1.530010	0.040754	1.280115
H151	H	0.915276	-0.378487	0.786758
H152	H	1.415276	0.121513	1.286758
H153	H	0.971447	-0.381945	0.722884
H154	H	1.471447	0.118055	1.222884
C155	C	0.533147	-0.183301	0.214646
C156	C	1.033147	0.316699	0.714646
C157	C	0.483190	-0.218689	0.255883
C158	C	0.983190	0.281311	0.755883
H159	H	0.507066	-0.155949	0.182767
H160	H	1.007066	0.344051	0.682767
H161	H	0.563105	-0.210693	0.186439
H162	H	1.063105	0.289307	0.686439
H163	H	0.563144	-0.159252	0.246766
H164	H	1.063144	0.340748	0.746766
H165	H	0.453197	-0.242741	0.223763
H166	H	0.953197	0.257259	0.723763
H167	H	0.453219	-0.191293	0.284092
H168	H	0.953219	0.308707	0.784092
C169	C	1.120805	-0.495802	0.208460
C170	C	1.620805	0.004198	0.708460
C171	C	1.162297	-0.533542	0.255771
C172	C	1.662297	-0.033542	0.755771
H173	H	1.152759	-0.473500	0.176544
H174	H	1.652759	0.026500	0.676544
H175	H	1.092752	-0.466820	0.236455
H176	H	1.592752	0.033180	0.736455
H177	H	1.088774	-0.521495	0.180287
H178	H	1.588774	-0.021495	0.680287
H179	H	1.194324	-0.507849	0.283948
H180	H	1.694324	-0.007849	0.783948
H181	H	1.190362	-0.562527	0.227773
H182	H	1.690362	-0.062527	0.727773
C183	C	1.006273	-1.110144	0.500587
C184	C	1.506273	-0.610144	1.000587
C185	C	0.964775	-1.072401	0.453286
C186	C	1.464775	-0.572401	0.953286
H187	H	0.974322	-1.132456	0.532498
H188	H	1.474322	-0.632456	1.032498
H189	H	1.038300	-1.084458	0.528759
H190	H	1.538300	-0.584458	1.028759
H191	H	1.034329	-1.139124	0.472580
H192	H	1.534329	-0.639124	0.972580
H193	H	0.936722	-1.043418	0.481293
H194	H	1.436722	-0.543418	0.981293
H195	H	0.932735	-1.098089	0.425111
H196	H	1.432735	-0.598089	0.925111
C197	C	0.594566	-0.423276	0.494384
C198	C	1.094566	0.076724	0.994384
C199	C	0.644529	-0.387897	0.453141
C200	C	1.144529	0.112103	0.953141
H201	H	0.620644	-0.450622	0.526272
H202	H	1.120644	0.049378	1.026272
H203	H	0.564572	-0.447324	0.462272
H204	H	1.064572	0.052676	0.962272
H205	H	0.564607	-0.395872	0.522587
H206	H	1.064607	0.104128	1.022587
H207	H	0.674485	-0.415300	0.424934
H208	H	1.174485	0.084700	0.924934
H209	H	0.674536	-0.363847	0.485256
H210	H	1.174536	0.136153	0.985256
C211	C	1.203825	-1.029643	0.214595
C212	C	1.703825	-0.529643	0.714595
C213	C	1.162507	-1.072383	0.255873
C214	C	1.662507	-0.572383	0.755873
H215	H	1.235788	-1.051947	0.182683
H216	H	1.735788	-0.551947	0.682683
H217	H	1.231946	-1.003969	0.246682
H218	H	1.731946	-0.503969	0.746682
H219	H	1.171761	-1.004035	0.186415
H220	H	1.671761	-0.504035	0.686415
H221	H	1.194572	-1.097988	0.284057
H222	H	1.694572	-0.597988	0.784057
H223	H	1.134385	-1.098068	0.223782
H224	H	1.634385	-0.598068	0.723782
H225	H	0.977993	-0.542919	0.439790
H226	H	1.477993	-0.042919	0.939790
C227	C	1.120967	-0.896629	0.208550
C228	C	1.620967	-0.396629	0.708550
C229	C	1.162457	-0.934376	0.255855
C230	C	1.662457	-0.434376	0.755855
H231	H	1.152922	-0.874321	0.176640
H232	H	1.652922	-0.374321	0.676640
H233	H	1.092912	-0.867652	0.236549
H234	H	1.592912	-0.367652	0.736549
H235	H	1.088938	-0.922318	0.180370
H236	H	1.588938	-0.422318	0.680370
H237	H	1.194483	-0.908686	0.284038
H238	H	1.694483	-0.408686	0.784038
H239	H	1.190524	-0.963356	0.227852
H240	H	1.690524	-0.463356	0.727852
C241	C	1.203668	-0.628808	0.214514
C242	C	1.703668	-0.128808	0.714514
C243	C	1.162353	-0.671546	0.255799
C244	C	1.662353	-0.171546	0.755799
H245	H	1.235630	-0.651113	0.182604
H246	H	1.735630	-0.151113	0.682604
H247	H	1.231788	-0.603131	0.246597
H248	H	1.731788	-0.103131	0.746597
H249	H	1.171601	-0.603204	0.186332
H250	H	1.671601	-0.103204	0.686332
H251	H	1.194420	-0.697148	0.283985
H252	H	1.694420	-0.197148	0.783985
H253	H	1.134231	-0.697235	0.223712
H254	H	1.634231	-0.197235	0.723712
H255	H	0.978149	-0.943757	0.439862
H256	H	1.478149	-0.443757	0.939862
C257	C	0.923281	-0.628826	0.494487
C258	C	1.423281	-0.128826	0.994487
C259	C	0.964630	-0.671558	0.453219
C260	C	1.464630	-0.171558	0.953219
H261	H	0.891335	-0.651135	0.526405
H262	H	1.391335	-0.151135	1.026405
H263	H	0.895141	-0.603224	0.462394
H264	H	1.395141	-0.103224	0.962394
H265	H	0.955326	-0.603146	0.522660
H266	H	1.455326	-0.103146	1.022660
H267	H	0.932585	-0.697236	0.425043
H268	H	1.432585	-0.197236	0.925043
H269	H	0.992773	-0.697171	0.485317
H270	H	1.492773	-0.197171	0.985317
H271	H	1.149009	-0.230160	0.785200
H272	H	1.649009	0.269840	1.285200
C273	C	1.203775	-0.183342	0.885644
C274	C	1.703775	0.316658	1.385644
C275	C	1.162447	-0.218660	0.935588
C276	C	1.662447	0.281340	1.435588
H277	H	1.235740	-0.156024	0.911735
H278	H	1.735740	0.343976	1.411735
H279	H	1.171723	-0.159268	0.855671
H280	H	1.671723	0.340732	1.355671
H281	H	1.231901	-0.210786	0.855661
H282	H	1.731901	0.289214	1.355661
H283	H	1.134317	-0.191216	0.965568
H284	H	1.634317	0.308784	1.465568
H285	H	1.194503	-0.242736	0.965573
H286	H	1.694503	0.257264	1.465573
