data_functionalizedCrystal
_audit_creation_method	'MofGen! by Chris Wilmer'
_symmetry_space_group_name_H-M	'P1'
_symmetry_Int_Tables_number	1
_symmetry_cell_setting	triclinic
loop_
_symmetry_equiv_pos_as_xyz
  x,y,z
_cell_length_a	12.594516
_cell_length_b	21.395362
_cell_length_c	21.395355
_cell_angle_alpha	90.043940
_cell_angle_beta	89.988593
_cell_angle_gamma	89.968067
loop_
_atom_site_label
_atom_site_type_symbol
_atom_site_fract_x
_atom_site_fract_y
_atom_site_fract_z
Zn1	Zn	-0.423414	-0.957923	-0.354617
Zn2	Zn	0.076586	-0.457923	0.145383
Zn3	Zn	-0.601379	-0.957853	-0.249852
Zn4	Zn	-0.101379	-0.457853	0.250148
Zn5	Zn	-0.423464	-0.853138	-0.249818
Zn6	Zn	0.076536	-0.353138	0.250182
Zn7	Zn	-0.601400	-0.853134	-0.354557
Zn8	Zn	-0.101400	-0.353134	0.145443
O9	O	-0.512414	-0.905512	-0.302211
O10	O	-0.012414	-0.405512	0.197789
O11	O	-0.446992	-1.045592	-0.340759
O12	O	0.053008	-0.545592	0.159241
O13	O	-0.577789	-0.943934	-0.162170
O14	O	-0.077789	-0.443934	0.337830
O15	O	-0.274511	-0.867069	-0.263730
O16	O	0.225489	-0.367069	0.236270
O17	O	-0.577741	-1.045540	-0.263789
O18	O	-0.077741	-0.545540	0.236211
O19	O	-0.274475	-0.944055	-0.340725
O20	O	0.225525	-0.444055	0.159275
O21	O	-0.447076	-0.867001	-0.162144
O22	O	0.052924	-0.367001	0.337856
O23	O	-0.447097	-0.765460	-0.263672
O24	O	0.052903	-0.265460	0.236328
O25	O	-0.577779	-0.867063	-0.442243
O26	O	-0.077779	-0.367063	0.057757
O27	O	-0.577827	-0.765457	-0.340624
O28	O	-0.077827	-0.265457	0.159376
O29	O	-0.447013	-0.944051	-0.442287
O30	O	0.052987	-0.444051	0.057713
O31	O	-0.750327	-0.943930	-0.263731
O32	O	-0.250327	-0.443930	0.236269
O33	O	-0.750343	-0.866994	-0.340657
O34	O	-0.250343	-0.366994	0.159343
C35	C	-0.512471	-0.742724	-0.302138
C36	C	-0.012471	-0.242724	0.197862
C37	C	-0.512520	-0.673083	-0.302122
C38	C	-0.012520	-0.173083	0.197878
C39	C	-0.788955	-0.905471	-0.302205
C40	C	-0.288955	-0.405471	0.197795
C41	C	-0.907261	-0.905511	-0.302223
C42	C	-0.407261	-0.405511	0.197777
C43	C	-0.512393	-0.905564	-0.465634
C44	C	-0.012393	-0.405564	0.034366
C45	C	-0.512384	-0.905586	-0.535275
C46	C	-0.012384	-0.405586	-0.035275
C47	C	-0.976561	-0.863661	-0.344034
C48	C	-0.476561	-0.363661	0.155966
C49	C	-1.047409	-0.848392	-0.286856
C50	C	-0.547409	-0.348392	0.213144
C51	C	-1.047212	-0.920837	-0.359410
C52	C	-0.547212	-0.420837	0.140590
C53	C	-0.976550	-0.890211	-0.245015
C54	C	-0.476550	-0.390211	0.254985
C55	C	-0.976347	-0.962683	-0.317608
C56	C	-0.476347	-0.462683	0.182392
C57	C	-1.047163	-0.947436	-0.260391
C58	C	-0.547163	-0.447436	0.239609
C59	C	-0.234793	-0.905570	-0.302231
C60	C	0.265207	-0.405570	0.197769
C61	C	-0.116488	-0.905595	-0.302239
C62	C	0.383512	-0.405595	0.197761
C63	C	-0.512359	-1.068935	-0.302284
C64	C	-0.012359	-0.568935	0.197716
C65	C	-0.512335	-1.138577	-0.302315
C66	C	-0.012335	-0.638577	0.197685
C67	C	-0.580681	-0.640385	-0.342130
C68	C	-0.080681	-0.140385	0.157870
C69	C	-0.580655	-0.574949	-0.342158
C70	C	-0.080655	-0.074949	0.157842
C71	C	-0.512479	-0.542215	-0.302167
C72	C	-0.012479	-0.042215	0.197833
C73	C	-0.444305	-0.574921	-0.262155
C74	C	0.055695	-0.074921	0.237845
C75	C	-0.444326	-0.640355	-0.262133
C76	C	0.055674	-0.140355	0.237867
C77	C	-0.503905	-0.438489	-0.245761
C78	C	-0.003905	0.061511	0.254239
C79	C	-0.503892	-0.373056	-0.245782
C80	C	-0.003892	0.126944	0.254218
C81	C	-0.512410	-0.340394	-0.302236
C82	C	-0.012410	0.159606	0.197764
C83	C	-0.520963	-0.373173	-0.358670
C84	C	-0.020963	0.126827	0.141330
C85	C	-0.520984	-0.438608	-0.358648
C86	C	-0.020984	0.061392	0.141352
C87	C	-0.512449	-0.471262	-0.302187
C88	C	-0.012449	0.028738	0.197813
C89	C	-0.580546	-0.236743	-0.342278
C90	C	-0.080546	0.263257	0.157722
C91	C	-0.580513	-0.171307	-0.342307
C92	C	-0.080513	0.328693	0.157693
C93	C	-0.444168	-0.171280	-0.262298
C94	C	0.055832	0.328720	0.237702
C95	C	-0.444196	-0.236715	-0.262275
C96	C	0.055804	0.263285	0.237725
C97	C	-0.512391	-0.269443	-0.302264
C98	C	-0.012391	0.230557	0.197736
C99	C	-0.444291	-0.945672	-0.568012
C100	C	0.055709	-0.445672	-0.068012
C101	C	-0.444245	-0.945671	-0.633448
C102	C	0.055755	-0.445671	-0.133448
C103	C	-0.512311	-0.905591	-0.666144
C104	C	-0.012311	-0.405591	-0.166144
C105	C	-0.580408	-0.865497	-0.633399
C106	C	-0.080408	-0.365497	-0.133399
C107	C	-0.580445	-0.865495	-0.567965
C108	C	-0.080445	-0.365495	-0.067965
C109	C	-0.608151	-0.900630	-0.769815
C110	C	-0.108151	-0.400630	-0.269815
C111	C	-0.608116	-0.900636	-0.835248
C112	C	-0.108116	-0.400636	-0.335248
C113	C	-0.512199	-0.905595	-0.867965
C114	C	-0.012199	-0.405595	-0.367965
C115	C	-0.416312	-0.910560	-0.835241
C116	C	0.083688	-0.410560	-0.335241
C117	C	-0.416349	-0.910557	-0.769806
C118	C	0.083651	-0.410557	-0.269806
C119	C	-0.512279	-0.905589	-0.737096
C120	C	-0.012279	-0.405589	-0.237096
C121	C	-0.444051	-0.945682	-0.971654
C122	C	0.055949	-0.445682	-0.471654
C123	C	-0.444003	-0.945677	-1.037091
C124	C	0.055997	-0.445677	-0.537091
C125	C	-0.580176	-0.865506	-1.037041
C126	C	-0.080176	-0.365506	-0.537041
C127	C	-0.580214	-0.865508	-0.971605
C128	C	-0.080214	-0.365508	-0.471605
C129	C	-0.512153	-0.905599	-0.938916
C130	C	-0.012153	-0.405599	-0.438916
C131	C	-0.512359	-0.905496	-0.139423
C132	C	-0.012359	-0.405496	0.360577
C133	C	-0.512068	-0.905596	-0.069782
C134	C	-0.012068	-0.405596	0.430218
H135	H	-0.945559	-0.828207	-0.379340
H136	H	-0.445559	-0.328207	0.120660
H137	H	-0.636015	-0.144685	-0.374891
H138	H	-0.136015	0.355315	0.125109
H139	H	-0.635892	-0.832849	-0.541311
H140	H	-0.135892	-0.332849	-0.041311
H141	H	-0.945114	-1.010983	-0.330634
H142	H	-0.445114	-0.510983	0.169366
Br143	Br	-0.532521	-0.328856	-0.435292
Br144	Br	-0.032521	0.171144	0.064708
H145	H	-0.388653	-0.144628	-0.229739
H146	H	0.111347	0.355372	0.270261
Br147	Br	-1.099427	-0.767867	-0.265170
Br148	Br	-0.599427	-0.267867	0.234830
H149	H	-1.077968	-0.982863	-0.224999
H150	H	-0.577968	-0.482863	0.275001
Br151	Br	-1.098955	-0.942385	-0.440004
Br152	Br	-0.598955	-0.442385	0.059996
Br153	Br	-0.925039	-0.868572	-0.164395
Br154	Br	-0.425039	-0.368572	0.335605
H155	H	-0.496964	-0.465077	-0.199786
H156	H	0.003036	0.034923	0.300214
H157	H	-0.388697	-0.263338	-0.229692
H158	H	0.111303	0.236662	0.270308
Br159	Br	-0.673228	-0.684799	-0.396402
Br160	Br	-0.173228	-0.184799	0.103598
H161	H	-0.636159	-0.548321	-0.374740
H162	H	-0.136159	-0.048321	0.125260
Br163	Br	-0.673089	-0.281164	-0.396550
Br164	Br	-0.173089	0.218836	0.103450
Br165	Br	-0.532587	-0.483092	-0.435233
Br166	Br	-0.032587	0.016908	0.064767
Br167	Br	-0.351812	-0.684735	-0.207833
Br168	Br	0.148188	-0.184735	0.292167
H169	H	-0.635825	-0.832862	-0.660024
H170	H	-0.135825	-0.332862	-0.160024
Br171	Br	-0.492286	-0.328576	-0.169194
Br172	Br	0.007714	0.171424	0.330806
H173	H	-0.388794	-0.548264	-0.229595
H174	H	0.111206	-0.048264	0.270405
H175	H	-0.388869	-0.978317	-0.541401
H176	H	0.111131	-0.478317	-0.041401
H177	H	-0.388790	-0.978313	-0.660108
H178	H	0.111210	-0.478313	-0.160108
H179	H	-0.338275	-0.914598	-0.743165
H180	H	0.161725	-0.414598	-0.243165
Br181	Br	-0.286129	-0.917295	-0.879633
Br182	Br	0.213871	-0.417295	-0.379633
H183	H	-0.388625	-0.978323	-0.945037
H184	H	0.111375	-0.478323	-0.445037
H185	H	-0.388548	-0.978319	-1.063744
H186	H	0.111452	-0.478319	-0.563744
Br187	Br	-0.672539	-0.811102	-1.081407
Br188	Br	-0.172539	-0.311102	-0.581407
Br189	Br	-0.672632	-0.811104	-0.927173
Br190	Br	-0.172632	-0.311104	-0.427173
H191	H	-0.686193	-0.896598	-0.861887
H192	H	-0.186193	-0.396598	-0.361887
Br193	Br	-0.738340	-0.893918	-0.725420
Br194	Br	-0.238340	-0.393918	-0.225420
