data_functionalizedCrystal
_audit_creation_method	'MofGen! by Chris Wilmer'
_symmetry_space_group_name_H-M	'P1'
_symmetry_Int_Tables_number	1
_symmetry_cell_setting	triclinic
loop_
_symmetry_equiv_pos_as_xyz
  x,y,z
_cell_length_a	12.759399
_cell_length_b	17.077404
_cell_length_c	17.077396
_cell_angle_alpha	89.981638
_cell_angle_beta	89.975771
_cell_angle_gamma	90.013406
loop_
_atom_site_label
_atom_site_type_symbol
_atom_site_fract_x
_atom_site_fract_y
_atom_site_fract_z
Zn1	Zn	-0.418323	1.200095	-0.443842
Zn2	Zn	-0.594024	1.200019	-0.312586
Zn3	Zn	-0.418353	1.068827	-0.312593
Zn4	Zn	-0.593954	1.068812	-0.443812
O5	O	-0.506164	1.134438	-0.378208
O6	O	-0.441647	1.309932	-0.426440
O7	O	-0.570762	1.182591	-0.202740
O8	O	-0.271328	1.086278	-0.330019
O9	O	-0.570733	1.309876	-0.330007
O10	O	-0.271306	1.182720	-0.426447
O11	O	-0.441698	1.086205	-0.202745
O12	O	-0.441631	0.958978	-0.329989
O13	O	-0.570615	1.086253	-0.553663
O14	O	-0.570644	0.958967	-0.426396
O15	O	-0.441580	1.182706	-0.553685
O16	O	-0.741036	1.182576	-0.329978
O17	O	-0.740985	1.086179	-0.426389
C18	C	-0.506134	0.930491	-0.378190
C19	C	-0.506146	0.843241	-0.378202
C20	C	-0.439051	0.802280	-0.428491
C21	C	-0.439057	0.720300	-0.428495
C22	C	-0.506166	0.679281	-0.378212
C23	C	-0.573265	0.720248	-0.327917
C24	C	-0.573252	0.802226	-0.327910
C25	C	-0.573289	0.549377	-0.327937
C26	C	-0.573303	0.467393	-0.327944
C27	C	-0.439094	0.467451	-0.428521
C28	C	-0.439081	0.549430	-0.428514
C29	C	-0.506182	0.590390	-0.378220
C30	C	-0.779131	1.134389	-0.378197
C31	C	-0.895908	1.134440	-0.378218
C32	C	-1.060594	1.084346	-0.327994
C33	C	-0.950870	1.084294	-0.327980
C34	C	-0.950675	1.184636	-0.428478
C35	C	-1.060397	1.184684	-0.428496
C36	C	-1.115550	1.034201	-0.277748
C37	C	-1.060790	0.984004	-0.227488
C38	C	-0.951066	0.983952	-0.227474
C39	C	-0.896102	1.034097	-0.277720
C40	C	-0.232130	1.134509	-0.378237
C41	C	-0.115354	1.134539	-0.378249
C42	C	-0.506086	1.134486	-0.582952
C43	C	-0.506053	1.134506	-0.670202
C44	C	-0.506194	1.339183	-0.378226
C45	C	-0.506207	1.426432	-0.378234
C46	C	-0.438859	1.184731	-0.711205
C47	C	-0.438824	1.184741	-0.793186
C48	C	-0.505989	1.134528	-0.834162
C49	C	-0.573187	1.084298	-0.793153
C50	C	-0.573216	1.084285	-0.711174
C51	C	-0.573124	1.084330	-0.964023
C52	C	-0.573096	1.084343	-1.046008
C53	C	-0.438732	1.184785	-1.046035
C54	C	-0.438761	1.184772	-0.964056
C55	C	-0.505960	1.134543	-0.923053
C56	C	-0.506165	1.134436	-0.174260
C57	C	-0.505902	1.134568	-0.087011
H58	H	-0.627888	0.835575	-0.286959
H59	H	-0.384168	1.225622	-0.677848
H60	H	-0.627828	1.043415	-0.930641
H61	H	-1.204893	1.034240	-0.277752
C62	C	-1.120645	1.239895	-0.483776
C63	C	-1.196048	1.301570	-0.449832
C64	C	-1.256298	1.356778	-0.505117
C65	C	-1.241146	1.350309	-0.594345
C66	C	-1.165740	1.288630	-0.628294
C67	C	-1.105490	1.233423	-0.573009
H68	H	-1.207267	1.306361	-0.383776
H69	H	-1.312118	1.402436	-0.479985
H70	H	-1.285747	1.391177	-0.635271
H71	H	-1.154521	1.283840	-0.694350
H72	H	-1.049670	1.187765	-0.598140
H73	H	-0.384442	0.582825	-0.469463
H74	H	-1.105549	0.943173	-0.186585
H75	H	-0.806757	1.034049	-0.277706
C76	C	-0.890828	0.928735	-0.172194
C77	C	-0.951282	0.873580	-0.116928
C78	C	-0.891047	0.818365	-0.061643
C79	C	-0.770357	0.818303	-0.061624
C80	C	-0.709896	0.873460	-0.116891
C81	C	-0.770131	0.928676	-0.172176
H82	H	-1.040630	0.873624	-0.116941
H83	H	-0.935805	0.777534	-0.020731
H84	H	-0.725767	0.777429	-0.020698
H85	H	-0.620548	0.873417	-0.116879
H86	H	-0.725373	0.969507	-0.213089
H87	H	-0.384110	1.225641	-0.826567
C88	C	-0.647086	0.675128	-0.272606
C89	C	-0.601467	0.618744	-0.211044
C90	C	-0.675293	0.573626	-0.155733
C91	C	-0.794738	0.584892	-0.161986
C92	C	-0.840363	0.641279	-0.223551
C93	C	-0.766537	0.686397	-0.278861
H94	H	-0.513042	0.610402	-0.206413
H95	H	-0.641518	0.531885	-0.110159
H96	H	-0.849388	0.551494	-0.121042
H97	H	-0.928789	0.649621	-0.228182
H98	H	-0.800312	0.728138	-0.324435
C99	C	-0.364809	1.240037	-1.091134
C100	C	-0.364766	1.240053	-1.181308
C101	C	-0.290851	1.295307	-1.226411
C102	C	-0.216979	1.350546	-1.181340
C103	C	-0.217019	1.350532	-1.091161
C104	C	-0.290934	1.295278	-1.046058
H105	H	-0.419453	1.199160	-1.214676
H106	H	-0.290822	1.295317	-1.293167
H107	H	-0.162263	1.391448	-1.214728
H108	H	-0.162332	1.391425	-1.057793
H109	H	-0.290963	1.295268	-0.979302
H110	H	-0.384075	1.225664	-0.930695
H111	H	-0.627870	1.043411	-0.826522
C112	C	-0.647133	1.029041	-0.666064
C113	C	-0.638545	0.939808	-0.677321
C114	C	-0.712460	0.884560	-0.632210
C115	C	-0.794964	0.918546	-0.575844
C116	C	-0.803556	1.007784	-0.564585
C117	C	-0.729640	1.063031	-0.609696
H118	H	-0.577467	0.914645	-0.719048
H119	H	-0.706100	0.818500	-0.640545
H120	H	-0.849681	0.877648	-0.542451
H121	H	-0.864633	1.032946	-0.522857
H122	H	-0.736001	1.129091	-0.601361
H123	H	-0.627786	1.043454	-1.079368
C124	C	-0.365228	0.847397	-0.483804
C125	C	-0.291420	0.802338	-0.539118
C126	C	-0.217593	0.847452	-0.594430
C127	C	-0.217574	0.937625	-0.594428
C128	C	-0.291386	0.982690	-0.539112
C129	C	-0.365213	0.937576	-0.483800
H130	H	-0.291431	0.735581	-0.539121
H131	H	-0.162952	0.814091	-0.635379
H132	H	-0.162923	0.971021	-0.635374
H133	H	-0.291375	1.049446	-0.539109
H134	H	-0.419853	0.970936	-0.442852
C135	C	-0.365255	0.675252	-0.483824
C136	C	-0.373999	0.686569	-0.573047
C137	C	-0.300192	0.641525	-0.628381
C138	C	-0.217640	0.585165	-0.594493
C139	C	-0.208892	0.573845	-0.505266
C140	C	-0.282700	0.618889	-0.449932
H141	H	-0.435112	0.728292	-0.598137
H142	H	-0.306668	0.649905	-0.694433
H143	H	-0.163004	0.551821	-0.635455
H144	H	-0.147780	0.532122	-0.480176
H145	H	-0.276223	0.610509	-0.383880
H146	H	-0.905917	1.225463	-0.469386
C147	C	-0.647114	0.422266	-0.272631
C148	C	-0.601477	0.365880	-0.211079
C149	C	-0.675287	0.320751	-0.155766
C150	C	-0.794735	0.332009	-0.162006
C151	C	-0.840378	0.388398	-0.223561
C152	C	-0.766568	0.433526	-0.278874
H153	H	-0.513049	0.357544	-0.206457
H154	H	-0.641499	0.279008	-0.110199
H155	H	-0.849374	0.298602	-0.121060
H156	H	-0.928806	0.396734	-0.228183
H157	H	-0.800356	0.475269	-0.324441
H158	H	-0.384456	0.434097	-0.469471
H159	H	-0.627926	0.582725	-0.286980
