data_functionalizedCrystal
_audit_creation_method	'MofGen! by Chris Wilmer'
_symmetry_space_group_name_H-M	'P1'
_symmetry_Int_Tables_number	1
_symmetry_cell_setting	triclinic
loop_
_symmetry_equiv_pos_as_xyz
  x,y,z
_cell_length_a	12.759401
_cell_length_b	17.640280
_cell_length_c	17.640968
_cell_angle_alpha	65.682561
_cell_angle_beta	78.777456
_cell_angle_gamma	78.800756
loop_
_atom_site_label
_atom_site_type_symbol
_atom_site_fract_x
_atom_site_fract_y
_atom_site_fract_z
Zn1	Zn	1.776501	-0.233858	-0.399677
Zn2	Zn	1.776415	-0.399527	-0.234038
Zn3	Zn	1.571272	-0.261745	-0.261880
Zn4	Zn	1.630333	-0.371623	-0.371819
O5	O	1.688630	-0.316688	-0.316854
O6	O	1.923514	-0.255842	-0.377711
O7	O	1.724449	-0.404598	-0.122401
O8	O	1.573815	-0.142728	-0.303470
O9	O	1.923451	-0.377558	-0.256017
O10	O	1.724596	-0.122240	-0.404708
O11	O	1.573732	-0.303370	-0.142857
O12	O	1.432082	-0.276313	-0.276458
O13	O	1.674476	-0.330000	-0.490845
O14	O	1.475474	-0.357041	-0.357229
O15	O	1.781865	-0.228785	-0.511312
O16	O	1.781718	-0.511143	-0.229004
O17	O	1.674392	-0.490642	-0.330232
C18	C	1.415657	-0.316676	-0.316842
C19	C	1.298886	-0.316686	-0.316853
C20	C	1.734487	-0.530790	-0.273592
C21	C	1.754207	-0.622377	-0.255112
C22	C	1.156926	-0.358828	-0.358823
C23	C	1.266644	-0.358820	-0.358812
C24	C	1.221401	-0.274564	-0.274895
C25	C	1.111684	-0.274578	-0.274902
C26	C	1.124692	-0.400958	-0.400792
C27	C	1.202169	-0.443081	-0.442748
C28	C	1.311888	-0.443073	-0.442737
C29	C	1.344129	-0.400942	-0.400769
C30	C	1.539317	-0.870430	-0.457544
C31	C	1.557843	-0.956496	-0.440153
C32	C	1.669708	-0.977756	-0.334852
C33	C	1.651195	-0.891690	-0.352237
C34	C	1.585998	-0.838033	-0.413583
C35	C	1.697876	-0.859293	-0.308276
C36	C	1.679360	-0.773235	-0.325657
C37	C	1.614164	-0.719573	-0.386999
C38	C	1.567482	-0.751975	-0.430964
C39	C	1.763067	-0.912952	-0.246926
C40	C	1.809748	-0.880555	-0.202965
C41	C	1.791239	-0.794494	-0.220350
C42	C	1.726042	-0.740833	-0.281692
C43	C	1.837920	-0.762093	-0.176384
C44	C	1.819404	-0.676034	-0.193765
C45	C	1.707526	-0.654774	-0.299073
C46	C	1.962670	-0.316702	-0.316866
C47	C	2.079450	-0.316707	-0.316871
C48	C	1.734768	-0.273169	-0.531818
C49	C	1.754429	-0.254624	-0.623423
C50	C	1.642627	-0.101747	-0.360302
C51	C	1.623023	-0.010152	-0.378818
C52	C	1.539575	-0.457126	-0.871419
C53	C	1.558069	-0.439689	-0.957498
C54	C	1.669884	-0.334303	-0.978798
C55	C	1.651394	-0.351728	-0.892720
C56	C	1.586240	-0.413141	-0.839036
C57	C	1.698060	-0.307742	-0.860337
C58	C	1.679576	-0.325169	-0.774265
C59	C	1.614427	-0.386581	-0.720577
C60	C	1.567757	-0.430567	-0.752965
C61	C	1.763220	-0.246334	-0.914021
C62	C	1.809885	-0.202348	-0.881638
C63	C	1.791396	-0.219771	-0.795566
C64	C	1.726247	-0.281183	-0.741877
C65	C	1.838067	-0.175784	-0.763178
C66	C	1.819583	-0.193211	-0.677106
C67	C	1.707764	-0.298609	-0.655806
C68	C	1.642720	-0.359979	-0.102737
C69	C	1.623213	-0.378292	-0.011180
H70	H	1.035356	-0.400967	-0.400808
Cl71	Cl	1.786388	-1.021135	-0.225106
H72	H	1.519840	-0.982867	-0.475966
Cl73	Cl	1.786460	-0.224429	-1.022226
Cl74	Cl	1.409285	-0.496035	-0.495473
H75	H	1.433472	-0.400945	-0.400758
H76	H	1.722788	-1.021455	-0.284901
Cl77	Cl	1.891710	-0.948016	-0.125849
Cl78	Cl	1.014280	-0.221631	-0.222154
Cl79	Cl	1.261936	-0.221599	-0.222144
H80	H	1.654679	-0.348598	-0.612097
H81	H	1.599384	-0.400772	-0.650491
Cl82	Cl	1.625574	-0.587312	-0.376203
H83	H	1.599081	-0.649500	-0.401143
H84	H	1.486490	-0.507115	-0.827710
H85	H	1.514672	-0.480556	-0.709256
Cl86	Cl	1.485530	-0.684512	-0.508095
Cl87	Cl	1.919871	-0.829557	-0.099261
Cl88	Cl	1.878253	-0.137918	-0.636392
H89	H	1.857416	-0.649657	-0.157967
Cl90	Cl	1.457365	-0.802968	-0.534675
Cl91	Cl	1.161637	-0.496055	-0.495492
Cl92	Cl	1.499392	-0.494990	-0.998204
H93	H	1.722936	-0.284302	-1.022518
Cl94	Cl	1.891794	-0.125148	-0.949132
H95	H	1.891124	-0.125788	-0.806898
