data_functionalizedCrystal
_audit_creation_method	'MofGen! by Chris Wilmer'
_symmetry_space_group_name_H-M	'P1'
_symmetry_Int_Tables_number	1
_symmetry_cell_setting	triclinic
loop_
_symmetry_equiv_pos_as_xyz
  x,y,z
_cell_length_a	19.188923
_cell_length_b	18.266242
_cell_length_c	10.654550
_cell_angle_alpha	89.994952
_cell_angle_beta	96.186758
_cell_angle_gamma	90.011434
loop_
_atom_site_label
_atom_site_type_symbol
_atom_site_fract_x
_atom_site_fract_y
_atom_site_fract_z
O1	O	-0.927178	-0.060914	0.156735
O2	O	-0.724004	-0.060908	0.177850
O3	O	-0.830263	-0.060908	-0.015546
O4	O	-0.820920	-0.060913	0.350131
O5	O	-0.830244	0.060854	-0.015555
O6	O	-0.723985	0.060854	0.177841
O7	O	-0.927159	0.060848	0.156725
Zn8	Zn	-0.825569	0.080183	0.167282
Zn9	Zn	-0.825594	-0.080243	0.167294
O10	O	-0.820901	0.060849	0.350121
C11	C	-0.697979	-0.000026	0.177163
C12	C	-0.620461	-0.000023	0.175116
C13	C	-0.059343	-0.000015	0.274882
C14	C	-0.132179	-0.000020	0.276817
C15	C	-0.176371	-0.000018	0.163339
C16	C	-0.147722	-0.000030	0.047917
C17	C	-0.074887	-0.000032	0.045985
N18	N	-0.296504	0.041429	0.081180
N19	N	-0.365694	0.041432	0.083023
C20	C	-0.395818	-0.000014	0.169152
N21	N	-0.354138	-0.041455	0.253388
N22	N	-0.284942	-0.041455	0.251548
C23	C	-0.255349	-0.000017	0.165421
C24	C	-0.503436	-0.000014	0.286665
C25	C	-0.576274	-0.000024	0.288595
C26	C	-0.591816	-0.000026	0.059692
C27	C	-0.518979	-0.000023	0.057765
C28	C	-0.474794	-0.000014	0.171255
N29	N	-0.825557	0.189670	0.167272
C30	C	-0.872624	0.227979	0.081679
C31	C	-0.872628	0.304624	0.081673
C32	C	-0.825572	0.342957	0.167283
C33	C	-0.778496	0.304639	0.252883
C34	C	-0.778489	0.227996	0.252878
N35	N	-0.817223	0.463288	0.278451
N36	N	-0.817234	0.536096	0.278452
C37	C	-0.825590	0.573880	0.167302
N38	N	-0.833949	0.536104	0.056147
N39	N	-0.833941	0.463290	0.056147
C40	C	-0.825575	0.426064	0.167297
C41	C	-0.872664	0.695295	0.081695
C42	C	-0.872663	0.771942	0.081688
C43	C	-0.778535	0.771956	0.252909
C44	C	-0.778532	0.695311	0.252905
C45	C	-0.825601	0.656985	0.167299
C46	C	0.046816	-0.000030	0.157416
C47	C	-0.030701	-0.000022	0.159475
C48	C	-0.829567	-0.000028	-0.062334
C49	C	-0.827515	-0.000031	-0.201734
N50	N	-0.825606	0.810270	0.167297
C51	C	-0.890078	-0.000030	-0.282546
C52	C	-0.888145	-0.000036	-0.413526
C53	C	-0.761081	-0.000038	-0.382868
C54	C	-0.763014	-0.000038	-0.251890
C55	C	-0.963438	-0.000026	-0.300248
C56	C	-0.961505	-0.000031	-0.431228
C57	C	-0.821596	-0.000033	0.396910
C58	C	-0.823649	-0.000036	0.536309
H59	H	-0.051569	-0.000037	-0.047996
Br60	Br	-0.443466	-0.000002	0.440683
H61	H	-0.910989	0.803133	0.011980
Br62	Br	-0.480106	-0.000039	-0.098868
H63	H	-0.712069	-0.000048	-0.186096
Br64	Br	-0.615145	-0.000026	0.445233
Br65	Br	-1.002344	0.087605	-0.241683
H66	H	-0.023370	-0.000011	0.367295
Br67	Br	-0.714629	0.356660	0.369061
H68	H	-0.910948	0.196776	0.011971
Br69	Br	-0.651783	-0.000039	-0.094318
H70	H	-0.740161	0.196804	0.322580
Br71	Br	-0.673548	-0.000052	-0.450946
Br72	Br	-0.171059	-0.000011	0.433452
Br73	Br	-0.998467	-0.087655	-0.508093
H74	H	-0.740209	0.664118	0.322609
H75	H	-0.740218	0.803166	0.322609
H76	H	-0.992139	-0.050980	-0.271495
H77	H	-0.183708	-0.000030	-0.044478
H78	H	-0.910988	0.664089	0.011986
H79	H	-0.910957	0.335820	0.011969
Br80	Br	-1.007559	0.084894	-0.501826
