data_functionalizedCrystal
_audit_creation_method	'MofGen! by Chris Wilmer'
_symmetry_space_group_name_H-M	'P1'
_symmetry_Int_Tables_number	1
_symmetry_cell_setting	triclinic
loop_
_symmetry_equiv_pos_as_xyz
  x,y,z
_cell_length_a	11.792241
_cell_length_b	11.792241
_cell_length_c	9.730223
_cell_angle_alpha	89.995675
_cell_angle_beta	90.000450
_cell_angle_gamma	84.193416
loop_
_atom_site_label
_atom_site_type_symbol
_atom_site_fract_x
_atom_site_fract_y
_atom_site_fract_z
O1	O	1.506908	0.155567	-0.114157
O2	O	2.006908	0.655567	0.385843
O3	O	1.176567	0.171600	-0.114189
O4	O	1.676567	0.671600	0.385811
O5	O	1.349754	-0.001587	-0.114163
O6	O	1.849754	0.498413	0.385837
O7	O	1.333721	0.328754	-0.114183
O8	O	1.833721	0.828754	0.385817
O9	O	1.349741	-0.001591	0.114417
O10	O	1.849741	0.498409	0.614417
O11	O	1.176554	0.171596	0.114391
O12	O	1.676554	0.671596	0.614391
O13	O	1.506895	0.155563	0.114423
O14	O	2.006895	0.655563	0.614423
Zn15	Zn	1.341722	0.163579	0.150699
Zn16	Zn	1.841722	0.663579	0.650699
Zn17	Zn	1.341739	0.163584	-0.150465
Zn18	Zn	1.841739	0.663584	0.349535
O19	O	1.333708	0.328750	0.114396
O20	O	1.833708	0.828750	0.614396
C21	C	1.134269	0.170591	0.000097
C22	C	1.634269	0.670591	0.500097
C23	C	1.008255	0.167576	0.000085
C24	C	1.508255	0.667576	0.500085
C25	C	1.348740	-0.043880	0.000127
C26	C	1.848740	0.456120	0.500127
C27	C	1.345726	-0.169894	0.000125
C28	C	1.845726	0.330106	0.500125
C29	C	0.777543	0.162034	0.000125
C30	C	1.277543	0.662034	0.500125
C31	C	0.905928	0.165113	0.000103
C32	C	1.405928	0.665113	0.500103
C33	C	1.340183	-0.400606	0.000102
C34	C	1.840183	0.099394	0.500102
C35	C	1.343262	-0.272221	0.000114
C36	C	1.843262	0.227779	0.500114
C37	C	1.549192	0.156572	0.000134
C38	C	2.049192	0.656572	0.500134
C39	C	1.675206	0.159587	0.000137
C40	C	2.175206	0.659587	0.500137
C41	C	1.334721	0.371043	0.000104
C42	C	1.834721	0.871043	0.500104
C43	C	1.337736	0.497057	0.000097
C44	C	1.837736	0.997057	0.500097
N45	N	1.341719	0.163575	0.356235
N46	N	1.841719	0.663575	0.856235
C47	C	1.418432	0.086920	0.428173
C48	C	1.918432	0.586920	0.928173
C49	C	1.418442	0.086921	0.572056
C50	C	1.918442	0.586921	1.072056
C51	C	1.265023	0.240241	0.572051
C52	C	1.765023	0.740241	1.072051
C53	C	1.265008	0.240234	0.428171
C54	C	1.765008	0.740234	0.928171
N55	N	1.341744	0.163583	0.643999
N56	N	1.841744	0.663583	1.143999
H57	H	1.480893	0.024498	0.369607
H58	H	1.980893	0.524498	0.869607
O59	O	1.492855	0.012504	0.642148
O60	O	1.992855	0.512504	1.142148
C61	C	1.476440	0.028960	0.784568
C62	C	1.976440	0.528960	1.284568
H63	H	1.386465	0.070768	0.804226
H64	H	1.886465	0.570768	1.304226
H65	H	1.488554	-0.056911	0.839258
H66	H	1.988554	0.443089	1.339258
H67	H	1.541027	0.086326	0.825382
H68	H	2.041027	0.586326	1.325382
H69	H	1.202568	0.302657	0.630635
H70	H	1.702568	0.802657	1.130635
O71	O	1.190443	0.314811	0.358494
O72	O	1.690443	0.814811	0.858494
C73	C	1.122727	0.382461	0.452835
C74	C	1.622727	0.882461	0.952835
H75	H	1.169275	0.384070	0.555392
H76	H	1.669275	0.884070	1.055392
H77	H	1.105957	0.472985	0.411243
H78	H	1.605957	0.972985	0.911243
H79	H	1.038194	0.345035	0.468157
H80	H	1.538194	0.845035	0.968157
