data_functionalizedCrystal
_audit_creation_method	'MofGen! by Chris Wilmer'
_symmetry_space_group_name_H-M	'P1'
_symmetry_Int_Tables_number	1
_symmetry_cell_setting	triclinic
loop_
_symmetry_equiv_pos_as_xyz
  x,y,z
_cell_length_a	14.908558
_cell_length_b	14.908520
_cell_length_c	11.169409
_cell_angle_alpha	93.260332
_cell_angle_beta	86.684205
_cell_angle_gamma	90.204982
loop_
_atom_site_label
_atom_site_type_symbol
_atom_site_fract_x
_atom_site_fract_y
_atom_site_fract_z
Zn1	Zn	1.354005	-0.437347	-0.815909
Zn2	Zn	1.854005	0.062653	-0.315909
Zn3	Zn	1.345213	-0.587731	-0.626076
Zn4	Zn	1.845213	-0.087731	-0.126076
Zn5	Zn	1.203630	-0.428708	-0.603048
Zn6	Zn	1.703630	0.071292	-0.103048
Zn7	Zn	1.194933	-0.578968	-0.814524
Zn8	Zn	1.694933	-0.078968	-0.314524
O9	O	1.274445	-0.508188	-0.714889
O10	O	1.774445	-0.008188	-0.214889
O11	O	1.478664	-0.464578	-0.800945
O12	O	1.978664	0.035422	-0.300945
O13	O	1.326391	-0.566687	-0.455073
O14	O	1.826391	-0.066687	0.044927
O15	O	1.230897	-0.304033	-0.622227
O16	O	1.730897	0.195967	-0.122227
O17	O	1.472204	-0.575064	-0.661475
O18	O	1.972204	-0.075064	-0.161475
O19	O	1.341377	-0.310380	-0.778615
O20	O	1.841377	0.189620	-0.278615
O21	O	1.222371	-0.449854	-0.438154
O22	O	1.722371	0.050146	0.061846
O23	O	1.076651	-0.441358	-0.620883
O24	O	1.576651	0.058642	-0.120883
O25	O	1.216074	-0.560131	-0.982656
O26	O	1.716074	-0.060131	-0.482656
O27	O	1.070261	-0.551754	-0.776253
O28	O	1.570261	-0.051754	-0.276253
O29	O	1.332944	-0.456082	-0.983674
O30	O	1.832944	0.043918	-0.483674
O31	O	1.317959	-0.712389	-0.660132
O32	O	1.817959	-0.212389	-0.160132
O33	O	1.207549	-0.705952	-0.798583
O34	O	1.707549	-0.205952	-0.298583
C35	C	1.040831	-0.494668	-0.695920
C36	C	1.540831	0.005332	-0.195920
C37	C	0.940888	-0.488905	-0.687835
C38	C	1.440888	0.011095	-0.187835
C39	C	0.803329	-0.423222	-0.595666
C40	C	1.303329	0.076778	-0.095666
C41	C	0.897234	-0.428632	-0.603257
C42	C	1.397234	0.071368	-0.103257
C43	C	0.890630	-0.543771	-0.764828
C44	C	1.390630	-0.043771	-0.264828
C45	C	0.796725	-0.538361	-0.757237
C46	C	1.296725	-0.038361	-0.257237
C47	C	0.753078	-0.478086	-0.672652
C48	C	1.253078	0.021914	-0.172652
C49	C	0.659171	-0.472681	-0.665055
C50	C	1.159171	0.027319	-0.165055
C51	C	0.652569	-0.587815	-0.826631
C52	C	1.152569	-0.087815	-0.326631
C53	C	0.746474	-0.593225	-0.834222
C54	C	1.246474	-0.093225	-0.334222
C55	C	1.260880	-0.741796	-0.731734
C56	C	1.760880	-0.241796	-0.231734
C57	C	1.255159	-0.841739	-0.738988
C58	C	1.755159	-0.341739	-0.238988
C59	C	1.359497	-1.036191	-0.608581
C60	C	1.859497	-0.536191	-0.108581
C61	C	1.354125	-1.130096	-0.615393
C62	C	1.854125	-0.630096	-0.115393
C63	C	1.239048	-1.123457	-0.759428
C64	C	1.739048	-0.623457	-0.259428
C65	C	1.244420	-1.029551	-0.752616
C66	C	1.744420	-0.529551	-0.252616
C67	C	1.304646	-0.985922	-0.677189
C68	C	1.804646	-0.485922	-0.177189
C69	C	1.310013	-0.892014	-0.670372
C70	C	1.810013	-0.392014	-0.170372
C71	C	1.194941	-0.885377	-0.814413
C72	C	1.694941	-0.385377	-0.314413
C73	C	1.189568	-0.979282	-0.821224
C74	C	1.689568	-0.479282	-0.321224
C75	C	1.508972	-0.521762	-0.733933
C76	C	2.008972	-0.021762	-0.233933
C77	C	1.608913	-0.527547	-0.742049
C78	C	2.108913	-0.027547	-0.242049
C79	C	1.274520	-0.508093	-1.027930
C80	C	1.774520	-0.008093	-0.527930
C81	C	1.274552	-0.508052	-1.161330
C82	C	1.774552	-0.008052	-0.661330
C83	C	1.288088	-0.273670	-0.698006
C84	C	1.788088	0.226330	-0.198006
C85	C	1.293901	-0.173733	-0.690812
C86	C	1.793901	0.326267	-0.190812
C87	C	1.274426	-0.508222	-0.403066
C88	C	1.774426	-0.008222	0.096934
C89	C	1.274583	-0.508020	-0.269663
C90	C	1.774583	-0.008020	0.230337
H91	H	0.782025	-0.642297	-0.903092
H92	H	1.282025	-0.142297	-0.403092
O93	O	0.756242	-0.358217	-0.504441
O94	O	1.256242	0.141783	-0.004441
H95	H	0.806962	-0.320972	-0.452184
H96	H	1.306962	0.179028	0.047816
O97	O	1.135771	-0.831145	-0.888399
O98	O	1.635771	-0.331145	-0.388399
H99	H	1.064179	-0.845163	-0.863293
H100	H	1.564179	-0.345163	-0.363293
O101	O	0.937738	-0.608753	-0.856066
O102	O	1.437738	-0.108753	-0.356066
H103	H	0.915643	-0.678277	-0.838994
H104	H	1.415643	-0.178277	-0.338994
O105	O	0.612081	-0.407689	-0.573815
O106	O	1.112081	0.092311	-0.073815
H107	H	0.571952	-0.359530	-0.620868
H108	H	1.071952	0.140470	-0.120868
O109	O	0.598372	-0.646993	-0.909679
O110	O	1.098372	-0.146993	-0.409679
H111	H	0.525741	-0.633104	-0.890197
H112	H	1.025741	-0.133104	-0.390197
H113	H	1.398792	-1.171022	-0.559527
H114	H	1.898792	-0.671022	-0.059527
H115	H	1.190021	-1.158997	-0.820845
H116	H	1.690021	-0.658997	-0.320845
H117	H	0.938146	-0.383953	-0.540572
H118	H	1.438146	0.116047	-0.040572
H119	H	1.359049	-0.856492	-0.608952
H120	H	1.859049	-0.356492	-0.108952
H121	H	1.408529	-1.000667	-0.547157
H122	H	1.908529	-0.500667	-0.047157
O123	O	1.124600	-1.026340	-0.902558
O124	O	1.624600	-0.526340	-0.402558
H125	H	1.130071	-1.100083	-0.895760
H126	H	1.630071	-0.600083	-0.395760
