data_functionalizedCrystal
_audit_creation_method	'MofGen! by Chris Wilmer'
_symmetry_space_group_name_H-M	'P1'
_symmetry_Int_Tables_number	1
_symmetry_cell_setting	triclinic
loop_
_symmetry_equiv_pos_as_xyz
  x,y,z
_cell_length_a	16.109301
_cell_length_b	16.109298
_cell_length_c	15.186229
_cell_angle_alpha	89.993420
_cell_angle_beta	89.994804
_cell_angle_gamma	83.460834
loop_
_atom_site_label
_atom_site_type_symbol
_atom_site_fract_x
_atom_site_fract_y
_atom_site_fract_z
O1	O	1.103134	0.106876	-0.073162
O2	O	0.861072	0.120175	-0.073175
O3	O	0.988754	-0.007506	-0.073174
O4	O	0.975452	0.234556	-0.073163
O5	O	0.988736	-0.007527	0.073283
O6	O	0.861054	0.120154	0.073282
O7	O	1.103116	0.106855	0.073295
Zn8	Zn	0.982083	0.113501	0.096542
Zn9	Zn	0.982106	0.113529	-0.096422
O10	O	0.975434	0.234536	0.073295
C11	C	0.830088	0.119626	0.000052
C12	C	0.737793	0.118011	0.000047
C13	C	0.988207	-0.038491	0.000051
C14	C	0.986593	-0.130787	0.000040
C15	C	0.981335	-0.429844	-0.079775
C16	C	0.982863	-0.343124	-0.079782
C17	C	0.982856	-0.343132	0.079894
C18	C	0.981334	-0.429851	0.079899
C19	C	0.980569	-0.473205	0.000062
C20	C	0.983619	-0.299766	0.000051
C21	C	0.985276	-0.205740	0.000044
C22	C	0.978914	-0.567236	0.000068
C23	C	0.515520	0.190019	0.000060
C24	C	0.428799	0.188495	0.000066
C25	C	0.448675	0.037006	0.000055
C26	C	0.535394	0.038531	0.000056
C27	C	0.568814	0.115039	0.000054
C28	C	0.395375	0.111990	0.000059
C29	C	0.301349	0.110337	0.000065
C30	C	0.662846	0.116693	0.000049
C31	C	1.134100	0.107404	0.000066
C32	C	1.226395	0.109019	0.000066
C33	C	0.975981	0.265521	0.000068
C34	C	0.977595	0.357817	0.000072
N35	N	0.982073	0.113482	0.228235
N36	N	0.982122	0.113541	-0.228114
C37	C	0.931693	0.063079	0.546181
C38	C	0.931686	0.063067	0.453992
C39	C	1.032508	0.163946	0.453945
C40	C	1.032519	0.163953	0.546133
C41	C	0.982106	0.113521	0.592249
C42	C	0.982088	0.113502	0.407871
C43	C	0.982081	0.113489	0.307915
C44	C	0.982115	0.113533	0.692211
H45	H	0.983487	-0.307824	-0.144793
H46	H	0.983477	-0.307823	0.144895
H47	H	0.542727	0.252317	0.000066
C48	C	0.980488	-0.477551	0.167725
H49	H	0.981149	-0.439311	0.215272
H50	H	1.028348	-0.517737	0.171044
H51	H	0.931434	-0.505022	0.171043
C52	C	1.087973	0.219443	0.596815
H53	H	1.080764	0.212216	0.658323
H54	H	1.072510	0.276325	0.581700
H55	H	1.144862	0.204003	0.581698
C56	C	0.594025	-0.043948	0.000047
H57	H	0.650457	-0.032081	0.000057
H58	H	0.583904	-0.075314	-0.051027
H59	H	0.583893	-0.075327	0.051125
C60	C	0.876242	0.007607	0.596906
H61	H	0.846221	-0.022439	0.556263
H62	H	0.837976	0.041674	0.632867
H63	H	0.910326	-0.030650	0.632871
C64	C	0.370179	0.270972	0.000067
H65	H	0.402506	0.316752	0.000059
H66	H	0.335933	0.273522	0.051139
H67	H	0.335942	0.273531	-0.051013
H68	H	0.890635	0.021992	0.416488
C69	C	0.411910	-0.047147	0.000045
H70	H	0.352631	-0.037318	0.000036
H71	H	0.430200	-0.078031	0.051114
H72	H	0.430211	-0.078006	-0.051038
C73	C	0.980519	-0.477533	-0.167592
H74	H	0.981207	-0.439288	-0.215141
H75	H	0.931477	-0.505014	-0.170923
H76	H	1.028392	-0.517712	-0.170897
H77	H	1.073551	0.205007	0.416387
