data_functionalizedCrystal
_audit_creation_method	'MofGen! by Chris Wilmer'
_symmetry_space_group_name_H-M	'P1'
_symmetry_Int_Tables_number	1
_symmetry_cell_setting	triclinic
loop_
_symmetry_equiv_pos_as_xyz
  x,y,z
_cell_length_a	19.805407
_cell_length_b	12.759394
_cell_length_c	19.805399
_cell_angle_alpha	90.023967
_cell_angle_beta	90.019573
_cell_angle_gamma	90.014837
loop_
_atom_site_label
_atom_site_type_symbol
_atom_site_fract_x
_atom_site_fract_y
_atom_site_fract_z
Zn1	Zn	1.034790	-0.418291	0.382737
Zn2	Zn	1.034728	-0.593984	0.269556
Zn3	Zn	0.921605	-0.418320	0.269561
Zn4	Zn	0.921591	-0.593928	0.382702
O5	O	0.978178	-0.506131	0.326139
O6	O	1.129498	-0.441608	0.367735
O7	O	1.019701	-0.570717	0.174840
O8	O	0.936651	-0.271295	0.284591
O9	O	1.129453	-0.570689	0.284581
O10	O	1.019808	-0.271274	0.367740
O11	O	0.936590	-0.441658	0.174844
O12	O	0.826886	-0.441603	0.284558
O13	O	0.936628	-0.570594	0.477423
O14	O	0.826876	-0.570622	0.367682
O15	O	1.019794	-0.441554	0.477449
O16	O	1.019688	-0.740998	0.284548
O17	O	0.936567	-0.740957	0.367676
C18	C	0.802322	-0.506111	0.326117
C19	C	0.727090	-0.506127	0.326124
C20	C	0.691759	-0.573409	0.369336
C21	C	0.621070	-0.573411	0.369346
C22	C	0.585715	-0.506136	0.326139
C23	C	0.621051	-0.438847	0.282924
C24	C	0.691739	-0.438841	0.282919
C25	C	0.335978	-0.438870	0.282947
C26	C	0.265286	-0.438884	0.282954
C27	C	0.265310	-0.573440	0.369374
C28	C	0.335997	-0.573434	0.369368
C29	C	0.371327	-0.506142	0.326157
C30	C	0.447976	-0.506139	0.326148
C31	C	0.509068	-0.506143	0.326144
C32	C	0.978138	-0.779098	0.326123
C33	C	0.978182	-0.895875	0.326138
C34	C	1.064801	-0.895864	0.239641
C35	C	1.108128	-0.950720	0.196401
C36	C	1.108168	-1.060441	0.196419
C37	C	1.064877	-1.115310	0.239684
C38	C	1.021550	-1.060455	0.282925
C39	C	1.021514	-0.950730	0.282900
C40	C	0.934936	-1.060465	0.369424
C41	C	0.934892	-0.950744	0.369403
C42	C	0.891645	-1.115334	0.412689
C43	C	0.848314	-1.060478	0.455927
C44	C	0.848275	-0.950750	0.455906
C45	C	0.891565	-0.895888	0.412644
C46	C	1.154721	-0.506152	0.326161
C47	C	1.229953	-0.506161	0.326171
C48	C	0.978216	-0.506065	0.502682
C49	C	0.978233	-0.506036	0.577914
C50	C	0.978238	-0.232097	0.326170
C51	C	0.978263	-0.115321	0.326183
C52	C	0.978180	-0.506121	0.150283
C53	C	0.978295	-0.505853	0.075051
C54	C	1.021539	-0.438842	0.613272
C55	C	1.021545	-0.438811	0.683961
C56	C	0.978249	-0.505982	0.719289
C57	C	0.934939	-0.573179	0.683926
C58	C	0.934929	-0.573203	0.613239
C59	C	0.934977	-0.573081	0.969000
C60	C	0.934992	-0.573054	1.039692
C61	C	1.021594	-0.438689	1.039721
C62	C	1.021584	-0.438713	0.969034
C63	C	0.978271	-0.505907	0.933677
C64	C	0.978263	-0.505937	0.857028
C65	C	0.978260	-0.505957	0.795937
H66	H	0.364780	-0.628219	0.404550
H67	H	0.592259	-0.384066	0.247747
H68	H	0.891683	-1.204675	0.412704
H69	H	0.236535	-0.628229	0.404562
C70	C	0.328844	-0.305864	0.197525
C71	C	0.374807	-0.364905	0.235448
H72	H	0.352819	-0.260203	0.168198
H73	H	0.301290	-0.265750	0.227063
H74	H	0.301259	-0.351602	0.171585
H75	H	0.402389	-0.319167	0.261392
H76	H	0.402373	-0.405023	0.205905
H77	H	0.236502	-0.384094	0.247770
H78	H	0.720505	-0.384048	0.247734
C79	C	1.111899	-0.738681	0.192512
C80	C	1.064755	-0.775257	0.239616
H81	H	1.111872	-0.664223	0.192499
H82	H	1.100220	-0.763567	0.148836
H83	H	1.155578	-0.763438	0.204262
H84	H	1.021074	-0.750507	0.227863
H85	H	1.076429	-0.750361	0.283301
H86	H	1.143377	-0.906036	0.161176
C87	C	0.733700	-1.094374	0.488811
C88	C	0.800734	-1.120786	0.503482
H89	H	0.704327	-1.131604	0.518174
H90	H	0.723829	-1.112430	0.443336
H91	H	0.727480	-1.021176	0.494986
H92	H	0.806955	-1.193983	0.497302
H93	H	0.810608	-1.102737	0.548969
C94	C	0.901942	-0.750981	0.947221
C95	C	0.887361	-0.646936	0.930148
H96	H	0.872543	-0.796574	0.923232
H97	H	0.895762	-0.760566	0.994372
H98	H	0.947410	-0.766369	0.935627
H99	H	0.841894	-0.631545	0.941746
H100	H	0.893535	-0.637346	0.882987
H101	H	1.056842	-0.384020	0.940273
H102	H	1.064919	-1.204651	0.239701
C103	C	1.193781	-1.049422	0.110910
C104	C	1.155792	-1.120745	0.148888
H105	H	1.223178	-1.086653	0.081564
H106	H	1.219643	-1.006566	0.140412
H107	H	1.164284	-1.006687	0.084987
H108	H	1.185289	-1.163475	0.174815
H109	H	1.129927	-1.163619	0.119382
H110	H	1.056797	-0.384147	0.584513
C111	C	0.849343	-0.706047	0.620305
C112	C	0.887337	-0.647084	0.574370
H113	H	0.819966	-0.751665	0.596308
H114	H	0.823459	-0.660265	0.647870
H115	H	0.878838	-0.746215	0.647882
H116	H	0.857842	-0.606911	0.546796
H117	H	0.913223	-0.692872	0.546793
C118	C	1.107159	-0.306014	0.676890
C119	C	1.069154	-0.364956	0.722826
H120	H	1.136554	-0.260422	0.700885
H121	H	1.077677	-0.265830	0.649320
H122	H	1.133031	-0.351819	0.649318
H123	H	1.043278	-0.319151	0.750395
H124	H	1.098639	-0.405143	0.750408
C125	C	1.060062	-0.378964	1.148093
C126	C	1.069197	-0.364814	1.078588
H127	H	1.089448	-0.333354	1.172085
H128	H	1.069955	-0.449542	1.159671
H129	H	1.014588	-0.363575	1.159662
H130	H	1.114670	-0.380210	1.067018
H131	H	1.059308	-0.294220	1.067006
H132	H	0.812996	-0.906092	0.491120
H133	H	0.720540	-0.628195	0.404519
C134	C	0.925514	-0.714476	0.763397
C135	C	0.887346	-0.647015	0.722757
H136	H	0.896132	-0.760065	0.787365
H137	H	0.951301	-0.674454	0.794570
H138	H	0.954988	-0.754673	0.735813
H139	H	0.857875	-0.606813	0.750342
H140	H	0.861548	-0.687042	0.691581
H141	H	0.899732	-0.627754	1.068454
H142	H	0.891533	-0.806547	0.412618
H143	H	0.592306	-0.628199	0.404534
