data_functionalizedCrystal
_audit_creation_method	'MofGen! by Chris Wilmer'
_symmetry_space_group_name_H-M	'P1'
_symmetry_Int_Tables_number	1
_symmetry_cell_setting	triclinic
loop_
_symmetry_equiv_pos_as_xyz
  x,y,z
_cell_length_a	18.050589
_cell_length_b	13.032831
_cell_length_c	18.050583
_cell_angle_alpha	97.189916
_cell_angle_beta	90.028091
_cell_angle_gamma	82.833186
loop_
_atom_site_label
_atom_site_type_symbol
_atom_site_fract_x
_atom_site_fract_y
_atom_site_fract_z
Zn1	Zn	-0.440027	1.597555	0.563869
Zn2	Zn	0.059973	2.097555	1.063869
Zn3	Zn	-0.564219	1.597419	0.439676
Zn4	Zn	-0.064219	2.097419	0.939676
Zn5	Zn	-0.424265	1.422804	0.423948
Zn6	Zn	0.075735	1.922804	0.923948
Zn7	Zn	-0.548379	1.422741	0.548087
Zn8	Zn	-0.048379	1.922741	1.048087
O9	O	-0.494223	1.510130	0.493895
O10	O	0.005777	2.010130	0.993895
O11	O	-0.469727	1.743774	0.560581
O12	O	0.030273	2.243774	1.060581
O13	O	-0.545687	1.574226	0.333662
O14	O	-0.045687	2.074226	0.833662
O15	O	-0.322439	1.446069	0.442532
O16	O	0.177561	1.946069	0.942532
O17	O	-0.560970	1.743674	0.469337
O18	O	-0.060970	2.243674	0.969337
O19	O	-0.334019	1.574457	0.545331
O20	O	0.165981	2.074457	1.045331
O21	O	-0.442864	1.445937	0.322107
O22	O	0.057136	1.945937	0.822107
O23	O	-0.427504	1.276559	0.427229
O24	O	0.072496	1.776559	0.927229
O25	O	-0.533973	1.445961	0.654108
O26	O	-0.033973	1.945961	1.154108
O27	O	-0.518690	1.276513	0.518433
O28	O	-0.018690	1.776513	1.018433
O29	O	-0.454367	1.574396	0.665703
O30	O	0.045633	2.074396	1.165703
O31	O	-0.666035	1.574164	0.454034
O32	O	-0.166035	2.074164	0.954034
O33	O	-0.654398	1.445829	0.533683
O34	O	-0.154398	1.945829	1.033683
C35	C	-0.469668	1.238618	0.469412
C36	C	0.030332	1.738618	0.969412
C37	C	-0.459182	1.122464	0.458956
C38	C	0.040818	1.622464	0.958956
C39	C	-0.499696	1.070684	0.499352
C40	C	0.000304	1.570684	0.999352
C41	C	-0.488859	0.950633	0.488546
C42	C	0.011141	1.450633	0.988546
C43	C	-0.687164	1.510004	0.493871
C44	C	-0.187164	2.010004	0.993871
C45	C	-0.769713	1.510045	0.493895
C46	C	-0.269713	2.010045	0.993895
C47	C	-0.962868	1.440325	0.537196
C48	C	-0.462868	1.940325	1.037196
C49	C	-1.010012	1.414853	0.467134
C50	C	-0.510012	1.914853	0.967134
C51	C	-0.920853	1.510148	0.493913
C52	C	-0.420853	2.010148	0.993913
C53	C	-1.020796	1.535671	0.563988
C54	C	-0.520796	2.035671	1.063988
C55	C	-1.066847	1.510245	0.493938
C56	C	-0.566847	2.010245	0.993938
C57	C	-0.966904	1.484626	0.423811
C58	C	-0.466904	1.984626	0.923811
C59	C	-0.977688	1.605488	0.520714
C60	C	-0.477688	2.105488	1.020714
C61	C	-1.024812	1.580052	0.450609
C62	C	-0.524812	2.080052	0.950609
C63	C	-0.836749	1.510089	0.493900
C64	C	-0.336749	2.010089	0.993900
C65	C	-1.150948	1.510304	0.493943
C66	C	-0.650948	2.010304	0.993943
C67	C	-0.300531	1.510285	0.493938
C68	C	0.199469	2.010285	0.993938
C69	C	-0.217991	1.510351	0.493956
C70	C	0.282009	2.010351	0.993956
C71	C	-0.494162	1.510187	0.687606
C72	C	0.005838	2.010187	1.187606
C73	C	-0.494136	1.510211	0.770154
C74	C	0.005864	2.010211	1.270154
C75	C	-0.518874	1.782702	0.518474
C76	C	-0.018874	2.282702	1.018474
C77	C	-0.529378	1.898855	0.528948
C78	C	-0.029378	2.398855	1.028948
C79	C	-0.494236	1.510133	0.300943
C80	C	0.005764	2.010133	0.800943
C81	C	-0.494071	1.510312	0.218414
C82	C	0.005929	2.010312	0.718414
C83	C	-0.450802	1.580119	1.025291
C84	C	0.049198	2.080119	1.525291
C85	C	-0.520870	1.605619	0.978179
C86	C	-0.020870	2.105619	1.478179
C87	C	-0.494094	1.510278	1.067280
C88	C	0.005906	2.010278	1.567280
C89	C	-0.424055	1.484794	0.967311
C90	C	0.075945	1.984794	1.467311
C91	C	-0.494111	1.510248	0.921292
C92	C	0.005889	2.010248	1.421292
C93	C	-0.564203	1.535828	1.021261
C94	C	-0.064203	2.035828	1.521261
C95	C	-0.467338	1.414959	1.010393
C96	C	0.032662	1.914959	1.510393
C97	C	-0.537450	1.440422	0.963301
C98	C	-0.037450	1.940422	1.463301
C99	C	-0.494084	1.510298	1.151381
C100	C	0.005916	2.010298	1.651381
C101	C	-0.494129	1.510227	0.837194
C102	C	0.005871	2.010227	1.337194
H103	H	-0.935870	1.381192	0.573732
H104	H	-0.435870	1.881192	1.073732
H105	H	-0.414239	1.639239	1.052308
H106	H	0.085761	2.139239	1.552308
H107	H	-0.446144	0.906091	0.445961
H108	H	0.053856	1.406091	0.945961
H109	H	-0.364817	1.463254	0.943690
H110	H	0.135183	1.963254	1.443690
H111	H	-0.572086	0.943396	0.571541
H112	H	-0.072086	1.443396	1.071541
Br113	Br	-0.387988	1.048229	0.387981
Br114	Br	0.112012	1.548229	0.887981
Br115	Br	-0.598558	1.341954	0.918503
Br116	Br	-0.098558	1.841954	1.418503
Br117	Br	-0.429571	1.280663	1.034487
Br118	Br	0.070429	1.780663	1.534487
Br119	Br	-0.570886	1.144920	0.570331
Br120	Br	-0.070886	1.644920	1.070331
Br121	Br	-0.558611	1.739950	0.954122
Br122	Br	-0.058611	2.239950	1.454122
H123	H	-1.024511	1.334273	0.444485
H124	H	-0.524511	1.834273	0.944485
H125	H	-1.051670	1.639141	0.413968
H126	H	-0.551670	2.139141	0.913968
Br127	Br	-0.927722	1.448559	0.325011
Br128	Br	-0.427722	1.948559	0.825011
Br129	Br	-0.662980	1.571889	1.060484
Br130	Br	-0.162980	2.071889	1.560484
H131	H	-0.963189	1.686050	0.543394
H132	H	-0.463189	2.186050	1.043394
Br133	Br	-1.060126	1.571585	0.662742
Br134	Br	-0.560126	2.071585	1.162742
