data_functionalizedCrystal
_audit_creation_method	'MofGen! by Chris Wilmer'
_symmetry_space_group_name_H-M	'P1'
_symmetry_Int_Tables_number	1
_symmetry_cell_setting	triclinic
loop_
_symmetry_equiv_pos_as_xyz
  x,y,z
_cell_length_a	18.101398
_cell_length_b	18.050590
_cell_length_c	18.101389
_cell_angle_alpha	90.019149
_cell_angle_beta	90.009745
_cell_angle_gamma	90.014109
loop_
_atom_site_label
_atom_site_type_symbol
_atom_site_fract_x
_atom_site_fract_y
_atom_site_fract_z
Zn1	Zn	1.132186	-0.295825	0.418547
Zn2	Zn	1.465519	0.037508	0.751880
Zn3	Zn	1.798852	0.370841	1.085214
Zn4	Zn	1.132109	-0.420000	0.294704
Zn5	Zn	1.465442	-0.086666	0.628037
Zn6	Zn	1.798775	0.246667	0.961370
Zn7	Zn	1.008344	-0.295818	0.294740
Zn8	Zn	1.341678	0.037515	0.628073
Zn9	Zn	1.675011	0.370848	0.961406
Zn10	Zn	1.008322	-0.419968	0.418524
Zn11	Zn	1.341656	-0.086635	0.751857
Zn12	Zn	1.674989	0.246698	1.085191
O13	O	1.070240	-0.357903	0.356628
O14	O	1.403574	-0.024570	0.689962
O15	O	1.736907	0.308764	1.023295
O16	O	1.235808	-0.312313	0.402113
O17	O	1.569142	0.021020	0.735447
O18	O	1.902475	0.354353	1.068780
O19	O	1.115668	-0.403537	0.191076
O20	O	1.449001	-0.070203	0.524409
O21	O	1.782335	0.263130	0.857742
O22	O	1.024814	-0.191895	0.311187
O23	O	1.358147	0.141439	0.644521
O24	O	1.691480	0.474772	0.977854
O25	O	1.235752	-0.403544	0.311126
O26	O	1.569085	-0.070210	0.644460
O27	O	1.902418	0.263123	0.977793
O28	O	1.115799	-0.191900	0.402148
O29	O	1.449133	0.141433	0.735481
O30	O	1.782466	0.474767	1.068815
O31	O	1.024739	-0.312301	0.191102
O32	O	1.358072	0.021032	0.524435
O33	O	1.691406	0.354365	0.857768
O34	O	0.904709	-0.312271	0.311165
O35	O	1.238042	0.021062	0.644498
O36	O	1.571375	0.354396	0.977832
O37	O	1.024776	-0.403491	0.522160
O38	O	1.358109	-0.070157	0.855493
O39	O	1.691443	0.263176	1.188826
O40	O	0.904692	-0.403484	0.402109
O41	O	1.238026	-0.070150	0.735442
O42	O	1.571359	0.263183	1.068776
O43	O	1.115778	-0.312283	0.522177
O44	O	1.449111	0.021050	0.855510
O45	O	1.782444	0.354383	1.188843
O46	O	1.115647	-0.523920	0.311104
O47	O	1.448980	-0.190587	0.644437
O48	O	1.782313	0.142747	0.977771
O49	O	1.024701	-0.523897	0.402074
O50	O	1.358035	-0.190564	0.735408
O51	O	1.691368	0.142770	1.068741
C52	C	0.877830	-0.357874	0.356639
C53	C	1.211163	-0.024540	0.689972
C54	C	1.544496	0.308793	1.023305
C55	C	0.795516	-0.357879	0.356661
C56	C	1.128849	-0.024546	0.689994
C57	C	1.462182	0.308788	1.023327
C58	C	0.496425	-0.357923	0.356630
C59	C	0.829758	-0.024590	0.689963
C60	C	1.163091	0.308744	1.023297
C61	C	0.527764	-0.415589	0.413567
C62	C	0.861098	-0.082255	0.746900
C63	C	1.194431	0.251078	1.080233
C64	C	0.613383	-0.415408	0.413801
C65	C	0.946716	-0.082075	0.747134
C66	C	1.280049	0.251258	1.080467
C67	C	0.644807	-0.357902	0.356645
C68	C	0.978140	-0.024568	0.689979
C69	C	1.311474	0.308765	1.023312
C70	C	0.613736	-0.279684	0.377974
C71	C	0.947069	0.053650	0.711307
C72	C	1.280402	0.386983	1.044641
C73	C	0.528091	-0.280030	0.378379
C74	C	0.861424	0.053303	0.711712
C75	C	1.194757	0.386637	1.045045
C76	C	0.527976	-0.377785	0.278227
C77	C	0.861310	-0.044452	0.611560
C78	C	1.194643	0.288881	0.944894
C79	C	0.613627	-0.379502	0.278646
C80	C	0.946960	-0.046169	0.611979
C81	C	1.280293	0.287165	0.945312
C82	C	0.728667	-0.357885	0.356653
C83	C	1.062000	-0.024552	0.689986
C84	C	1.395333	0.308782	1.023319
C85	C	0.412565	-0.357934	0.356624
C86	C	0.745898	-0.024601	0.689958
C87	C	1.079232	0.308732	1.023291
C88	C	1.070183	-0.550855	0.356599
C89	C	1.403517	-0.217522	0.689932
C90	C	1.736850	0.115812	1.023266
C91	C	1.070227	-0.633401	0.356611
C92	C	1.403560	-0.300068	0.689944
C93	C	1.736893	0.033266	1.023278
C94	C	1.119786	-0.832837	0.307211
C95	C	1.453119	-0.499504	0.640544
C96	C	1.786452	-0.166170	0.973877
C97	C	1.137875	-0.882182	0.374798
C98	C	1.471208	-0.548849	0.708131
C99	C	1.804542	-0.215515	1.041464
C100	C	1.070269	-0.784531	0.356641
C101	C	1.403602	-0.451198	0.689974
C102	C	1.736935	-0.117865	1.023307
C103	C	1.052255	-0.882268	0.289084
C104	C	1.385588	-0.548935	0.622417
C105	C	1.718921	-0.215601	0.955751
C106	C	1.070311	-0.930516	0.356663
C107	C	1.403644	-0.597183	0.689997
C108	C	1.736977	-0.263850	1.023330
C109	C	1.088393	-0.832789	0.424263
C110	C	1.421726	-0.499456	0.757596
C111	C	1.755059	-0.166122	1.090930
C112	C	1.002741	-0.832871	0.338504
C113	C	1.336074	-0.499537	0.671837
C114	C	1.669408	-0.166204	1.005171
C115	C	1.020805	-0.882193	0.406138
C116	C	1.354138	-0.548860	0.739471
C117	C	1.687471	-0.215527	1.072804
C118	C	1.070246	-0.700433	0.356627
C119	C	1.403580	-0.367100	0.689960
C120	C	1.736913	-0.033766	1.023293
C121	C	1.070333	-1.014613	0.356685
C122	C	1.403666	-0.681279	0.690018
C123	C	1.737000	-0.347946	1.023351
C124	C	1.263402	-0.357933	0.356619
C125	C	1.596735	-0.024599	0.689952
C126	C	1.930069	0.308734	1.023285
C127	C	1.345716	-0.357946	0.356614
C128	C	1.679049	-0.024612	0.689948
C129	C	2.012383	0.308721	1.023281
C130	C	1.070283	-0.357884	0.549790
C131	C	1.403616	-0.024551	0.883124
C132	C	1.736950	0.308783	1.216457
C133	C	1.070301	-0.357876	0.632105
C134	C	1.403635	-0.024543	0.965438
C135	C	1.736968	0.308791	1.298771
C136	C	1.070318	-0.164197	0.356674
C137	C	1.403651	0.169136	0.690008
C138	C	1.736984	0.502469	1.023341
C139	C	1.070350	-0.081652	0.356694
C140	C	1.403684	0.251682	0.690027
C141	C	1.737017	0.585015	1.023361
C142	C	1.070240	-0.357868	0.164218
C143	C	1.403574	-0.024535	0.497551
C144	C	1.736907	0.308799	0.830885
C145	C	1.070365	-0.357667	0.081904
C146	C	1.403699	-0.024334	0.415238
C147	C	1.737032	0.309000	0.748571
C148	C	1.070344	-0.357737	0.931196
C149	C	1.403678	-0.024404	1.264529
C150	C	1.737011	0.308930	1.597862
C151	C	1.012891	-0.414940	0.899860
C152	C	1.346225	-0.081606	1.233193
C153	C	1.679558	0.251727	1.566527
C154	C	1.013047	-0.415205	0.814242
C155	C	1.346380	-0.081872	1.147575
C156	C	1.679713	0.251462	1.480908
C157	C	1.070322	-0.357806	0.782813
C158	C	1.403656	-0.024473	1.116146
C159	C	1.736989	0.308861	1.449480
C160	C	1.148352	-0.379056	0.813899
C161	C	1.481686	-0.045722	1.147232
C162	C	1.815019	0.287611	1.480565
C163	C	1.148032	-0.379431	0.899544
C164	C	1.481366	-0.046098	1.232877
C165	C	1.814699	0.287235	1.566210
C166	C	1.050446	-0.279157	0.899626
C167	C	1.383779	0.054176	1.232959
C168	C	1.717112	0.387509	1.566293
C169	C	1.048710	-0.279611	0.813975
C170	C	1.382043	0.053722	1.147309
C171	C	1.715376	0.387056	1.480642
C172	C	1.070315	-0.357844	0.698954
C173	C	1.403648	-0.024510	1.032287
C174	C	1.736981	0.308823	1.365620
C175	C	1.070357	-0.357701	1.015055
C176	C	1.403691	-0.024368	1.348389
C177	C	1.737024	0.308966	1.681722
H178	H	0.507359	-0.235526	0.338810
H179	H	0.840692	0.097808	0.672144
H180	H	1.174026	0.431141	1.005477
H181	H	0.634090	-0.235554	0.337798
H182	H	0.967424	0.097779	0.671131
H183	H	1.300757	0.431112	1.004464
H184	H	1.165510	-0.435888	0.792451
H185	H	1.498844	-0.102555	1.125785
H186	H	1.832177	0.230778	1.459118
N187	N	1.203491	-0.328427	0.788361
N188	N	1.536825	0.004906	1.121694
N189	N	1.870158	0.338239	1.455027
N190	N	1.185852	-0.275995	0.746865
N191	N	1.519185	0.057338	1.080198
N192	N	1.852518	0.390671	1.413531
H193	H	1.224792	-0.240237	0.728827
H194	H	1.558126	0.093096	1.062160
H195	H	1.891459	0.426430	1.395494
N196	N	0.640663	-0.258169	0.449093
N197	N	0.973997	0.075164	0.782427
N198	N	1.307330	0.408497	1.115760
N199	N	0.682728	-0.300307	0.484193
N200	N	1.016062	0.033026	0.817527
N201	N	1.349395	0.366359	1.150860
H202	H	0.701746	-0.285117	0.534423
H203	H	1.035080	0.048216	0.867757
H204	H	1.368413	0.381550	1.201090
H205	H	1.195000	-0.903844	0.390152
H206	H	1.528333	-0.570511	0.723486
H207	H	1.861666	-0.237177	1.056819
N208	N	1.107613	-0.805634	0.495964
N209	N	1.440946	-0.472301	0.829297
N210	N	1.774279	-0.138968	1.162630
N211	N	1.110722	-0.737429	0.507518
N212	N	1.444056	-0.404095	0.840851
N213	N	1.777389	-0.070762	1.174185
H214	H	1.124300	-0.718248	0.558154
H215	H	1.457633	-0.384915	0.891488
H216	H	1.790966	-0.051582	1.224821
H217	H	1.037001	-0.904001	0.231943
H218	H	1.370334	-0.570668	0.565276
H219	H	1.703668	-0.237335	0.898610
N220	N	0.968298	-0.909203	0.458653
N221	N	1.301631	-0.575870	0.791986
N222	N	1.634964	-0.242536	1.125320
N223	N	0.975033	-0.893182	0.525502
N224	N	1.308367	-0.559848	0.858835
N225	N	1.641700	-0.226515	1.192169
H226	H	0.937953	-0.912258	0.562594
H227	H	1.271286	-0.578924	0.895927
H228	H	1.604620	-0.245591	1.229260
H229	H	0.634390	-0.473412	0.400433
H230	H	0.967724	-0.140078	0.733766
H231	H	1.301057	0.193255	1.067100
N232	N	0.931099	-0.805681	0.319211
N233	N	1.264432	-0.472347	0.652544
N234	N	1.597765	-0.139014	0.985878
N235	N	0.903563	-0.821522	0.257875
N236	N	1.236897	-0.488189	0.591208
N237	N	1.570230	-0.154856	0.924541
H238	H	0.852965	-0.802319	0.244241
H239	H	1.186298	-0.468986	0.577574
H240	H	1.519631	-0.135653	0.910907
N241	N	0.500860	-0.448105	0.253910
N242	N	0.834193	-0.114771	0.587243
N243	N	1.167526	0.218562	0.920577
N244	N	0.457944	-0.484438	0.294075
N245	N	0.791278	-0.151105	0.627408
N246	N	1.124611	0.182229	0.960742
H247	H	0.438791	-0.534103	0.276909
H248	H	0.772124	-0.200770	0.610242
H249	H	1.105457	0.132563	0.943575
N250	N	1.102934	-0.225681	0.925036
N251	N	1.436268	0.107653	1.258370
N252	N	1.769601	0.440986	1.591703
N253	N	1.140911	-0.190126	0.879559
N254	N	1.474244	0.143207	1.212892
N255	N	1.807577	0.476541	1.546225
H256	H	1.177983	-0.152363	0.897507
H257	H	1.511316	0.180971	1.230840
H258	H	1.844650	0.514304	1.564173
H259	H	0.955185	-0.401907	0.793224
H260	H	1.288518	-0.068573	1.126557
H261	H	1.621851	0.264760	1.459891
N262	N	0.503054	-0.258907	0.450288
N263	N	0.836387	0.074426	0.783621
N264	N	1.169720	0.407760	1.116954
N265	N	0.520737	-0.296658	0.505399
N266	N	0.854070	0.036675	0.838732
N267	N	1.187403	0.370009	1.172066
H268	H	0.503059	-0.281742	0.556188
H269	H	0.836393	0.051592	0.889521
H270	H	1.169726	0.384925	1.222855
H271	H	0.991287	-0.263587	0.793658
H272	H	1.324620	0.069747	1.126992
H273	H	1.657953	0.403080	1.460325
N274	N	0.940086	-0.398419	0.925701
N275	N	1.273420	-0.065086	1.259034
N276	N	1.606753	0.268248	1.592367
N277	N	0.929689	-0.344296	0.967517
N278	N	1.263023	-0.010962	1.300850
N279	N	1.596356	0.322371	1.634183
H280	H	0.878269	-0.332627	0.985773
H281	H	1.211603	0.000706	1.319107
H282	H	1.544936	0.334040	1.652440
H283	H	0.633943	-0.437059	0.262560
H284	H	0.967277	-0.103725	0.595893
H285	H	1.300610	0.229608	0.929226
H286	H	1.026185	-0.473451	0.793755
H287	H	1.359519	-0.140117	1.127088
H288	H	1.692852	0.193216	1.460422
H289	H	1.025899	-0.472830	0.921381
H290	H	1.359233	-0.139496	1.254715
H291	H	1.692566	0.193837	1.588048
H292	H	1.164899	-0.436874	0.919522
H293	H	1.498233	-0.103541	1.252855
H294	H	1.831566	0.229793	1.586189
H295	H	0.507162	-0.473782	0.400348
H296	H	0.840495	-0.140448	0.733682
H297	H	1.173828	0.192885	1.067015
N298	N	0.500776	-0.399307	0.486019
N299	N	0.834109	-0.065974	0.819352
N300	N	1.167442	0.267360	1.152685
N301	N	0.458560	-0.345418	0.495903
N302	N	0.791894	-0.012084	0.829236
N303	N	1.125227	0.321249	1.162569
H304	H	0.439498	-0.333916	0.547071
H305	H	0.772831	-0.000582	0.880405
H306	H	1.106165	0.332751	1.213738
H307	H	1.192291	-0.339576	0.920273
H308	H	1.525624	-0.006243	1.253607
H309	H	1.858958	0.327090	1.586940
H310	H	0.994534	-0.259798	0.921226
H311	H	1.327868	0.073535	1.254560
H312	H	1.661201	0.406868	1.587893
N313	N	1.097366	-0.223308	0.787121
N314	N	1.430699	0.110025	1.120454
N315	N	1.764033	0.443358	1.453788
N316	N	1.102622	-0.211749	0.719243
N317	N	1.435956	0.121585	1.052577
N318	N	1.769289	0.454918	1.385910
H319	H	1.136991	-0.171989	0.700272
H320	H	1.470325	0.161345	1.033605
H321	H	1.803658	0.494678	1.366939
N322	N	0.639094	-0.398924	0.486679
N323	N	0.972427	-0.065590	0.820012
N324	N	1.305761	0.267743	1.153345
N325	N	0.593785	-0.387511	0.537525
N326	N	0.927118	-0.054177	0.870859
N327	N	1.260452	0.279156	1.204192
H328	H	0.611942	-0.375867	0.588999
H329	H	0.945275	-0.042534	0.922332
H330	H	1.278609	0.290800	1.255665
H331	H	0.635018	-0.340549	0.233945
H332	H	0.968352	-0.007216	0.567278
H333	H	1.301685	0.326117	0.900612
H334	H	0.507709	-0.335782	0.235804
H335	H	0.841042	-0.002449	0.569137
H336	H	1.174375	0.330885	0.902470
N337	N	1.172338	-0.805655	0.254827
N338	N	1.505671	-0.472322	0.588160
N339	N	1.839005	-0.138988	0.921494
N340	N	1.239214	-0.821465	0.261687
N341	N	1.572547	-0.488131	0.595021
N342	N	1.905881	-0.154798	0.928354
H343	H	1.276331	-0.802268	0.224694
H344	H	1.609665	-0.468934	0.558028
H345	H	1.942998	-0.135601	0.891361
