data_functionalizedCrystal
_audit_creation_method	'MofGen! by Chris Wilmer'
_symmetry_space_group_name_H-M	'P1'
_symmetry_Int_Tables_number	1
_symmetry_cell_setting	triclinic
loop_
_symmetry_equiv_pos_as_xyz
  x,y,z
_cell_length_a	15.944551
_cell_length_b	15.944551
_cell_length_c	15.021413
_cell_angle_alpha	90.003065
_cell_angle_beta	89.997174
_cell_angle_gamma	83.498738
loop_
_atom_site_label
_atom_site_type_symbol
_atom_site_fract_x
_atom_site_fract_y
_atom_site_fract_z
O1	O	1.114529	0.108321	-0.073941
O2	O	1.614529	0.608321	0.426059
O3	O	0.869979	0.121677	-0.073964
O4	O	1.369979	0.621677	0.426036
O5	O	0.998932	-0.007276	-0.073944
O6	O	1.498932	0.492724	0.426056
O7	O	0.985576	0.237274	-0.073961
O8	O	1.485576	0.737274	0.426039
O9	O	0.998912	-0.007257	0.074121
O10	O	1.498912	0.492743	0.574121
O11	O	0.869959	0.121695	0.074101
O12	O	1.369959	0.621695	0.574101
O13	O	1.114508	0.108339	0.074123
O14	O	1.614508	0.608339	0.574123
Zn15	Zn	0.992230	0.115020	0.097620
Zn16	Zn	1.492230	0.615020	0.597620
Zn17	Zn	0.992257	0.114996	-0.097461
Zn18	Zn	1.492257	0.614996	0.402539
O19	O	0.985555	0.237292	0.074103
O20	O	1.485555	0.737292	0.574103
C21	C	0.838675	0.121132	0.000066
C22	C	1.338675	0.621132	0.500066
C23	C	0.745429	0.119470	0.000057
C24	C	1.245429	0.619470	0.500057
C25	C	0.530572	0.035565	0.000081
C26	C	1.030572	0.535565	0.500081
C27	C	0.469562	0.074518	-0.072926
C28	C	0.969562	0.574518	0.427074
C29	C	0.574703	0.116462	0.000068
C30	C	1.074703	0.616462	0.500068
C31	C	0.469564	0.074556	0.073054
C32	C	0.969564	0.574556	0.573054
C33	C	0.409790	0.113551	0.000083
C34	C	0.909790	0.613551	0.500083
C35	C	0.514921	0.155438	-0.072998
C36	C	1.014921	0.655438	0.427002
C37	C	0.514930	0.155464	0.073047
C38	C	1.014930	0.655464	0.573047
C39	C	0.453937	0.194476	0.000023
C40	C	0.953937	0.694476	0.500023
C41	C	0.669705	0.118137	0.000059
C42	C	1.169705	0.618137	0.500059
C43	C	0.314789	0.111883	0.000085
C44	C	0.814789	0.611883	0.500085
C45	C	0.998367	-0.038561	0.000089
C46	C	1.498367	0.461439	0.500089
C47	C	0.996705	-0.131807	0.000089
C48	C	1.496705	0.368193	0.500089
C49	C	0.912801	-0.346663	0.000069
C50	C	1.412801	0.153337	0.500069
C51	C	0.951753	-0.407672	0.073077
C52	C	1.451753	0.092328	0.573077
C53	C	0.993698	-0.302533	0.000082
C54	C	1.493698	0.197467	0.500082
C55	C	0.951792	-0.407673	-0.072903
C56	C	1.451792	0.092327	0.427097
C57	C	0.990787	-0.467445	0.000071
C58	C	1.490787	0.032555	0.500071
C59	C	1.032672	-0.362313	0.073150
C60	C	1.532672	0.137687	0.573150
C61	C	1.032700	-0.362308	-0.072895
C62	C	1.532700	0.137692	0.427105
C63	C	1.071711	-0.423298	0.000131
C64	C	1.571711	0.076702	0.500131
C65	C	0.995372	-0.207530	0.000089
C66	C	1.495372	0.292470	0.500089
C67	C	0.989119	-0.562446	0.000070
C68	C	1.489119	-0.062446	0.500070
C69	C	1.145813	0.108885	0.000092
C70	C	1.645813	0.608885	0.500092
C71	C	1.239059	0.110547	0.000094
C72	C	1.739059	0.610547	0.500094
C73	C	0.986120	0.268577	0.000069
C74	C	1.486120	0.768577	0.500069
C75	C	0.987782	0.361823	0.000063
C76	C	1.487782	0.861823	0.500063
N77	N	0.992218	0.115036	0.230758
N78	N	1.492218	0.615036	0.730758
N79	N	0.992276	0.114973	-0.230598
N80	N	1.492276	0.614973	0.269402
C81	C	0.932581	0.174636	0.470432
C82	C	1.432581	0.674636	0.970432
C83	C	1.008481	0.190943	0.529772
C84	C	1.508481	0.690943	1.029772
C85	C	0.992239	0.115015	0.412365
C86	C	1.492239	0.615015	0.912365
C87	C	0.916360	0.098727	0.529766
C88	C	1.416360	0.598727	1.029766
C89	C	0.992253	0.114997	0.587789
C90	C	1.492253	0.614997	1.087789
C91	C	1.068178	0.131360	0.470398
C92	C	1.568178	0.631360	0.970398
C93	C	0.976006	0.039111	0.470387
C94	C	1.476006	0.539111	0.970387
C95	C	1.051962	0.055386	0.529701
C96	C	1.551962	0.555386	1.029701
C97	C	0.992230	0.115028	0.311307
C98	C	1.492230	0.615028	0.811307
C99	C	0.992271	0.114984	0.688844
C100	C	1.492271	0.614984	1.188844
H101	H	0.449470	0.040332	0.134773
H102	H	0.949470	0.540332	0.634773
H103	H	0.882181	0.225096	0.444409
H104	H	1.382181	0.725096	0.944409
H105	H	0.852184	0.084959	0.555847
H106	H	1.352184	0.584959	1.055847
N107	N	0.442920	0.029192	-0.154673
N108	N	0.942920	0.529192	0.345327
H109	H	0.460226	0.059141	-0.209814
H110	H	0.960226	0.559141	0.290186
H111	H	0.471085	-0.030822	-0.154536
H112	H	0.971085	0.469178	0.345464
N113	N	1.077997	-0.335653	-0.154650
N114	N	1.577997	0.164347	0.345350
H115	H	1.038537	-0.294734	-0.190589
H116	H	1.538537	0.205266	0.309411
H117	H	1.128833	-0.307473	-0.135979
H118	H	1.628833	0.192527	0.364021
H119	H	0.845652	-0.313356	0.000136
H120	H	1.345652	0.186644	0.500136
N121	N	0.541602	0.200753	0.154799
N122	N	1.041602	0.700753	0.654799
H123	H	0.569821	0.251588	0.136197
H124	H	1.069821	0.751588	0.636197
H125	H	0.490297	0.219666	0.192211
H126	H	0.990297	0.719666	0.692211
H127	H	1.132368	0.145206	0.444430
H128	H	1.632368	0.645206	0.944430
N129	N	0.410005	0.283494	-0.000040
N130	N	0.910005	0.783494	0.499960
H131	H	0.346864	0.281889	0.000484
H132	H	0.846864	0.781889	0.500484
H133	H	0.427296	0.314258	0.054565
H134	H	0.927296	0.814258	0.554565
N135	N	1.026693	0.275955	0.564326
N136	N	1.526693	0.775955	1.064326
H137	H	0.981593	0.320963	0.542772
H138	H	1.481593	0.820963	1.042772
H139	H	1.027127	0.275072	0.631553
H140	H	1.527127	0.775072	1.131553
N141	N	0.906469	-0.434287	-0.154663
N142	N	1.406469	0.065713	0.345337
H143	H	0.946237	-0.474341	-0.191242
H144	H	1.446237	0.025659	0.308758
H145	H	0.856264	-0.463445	-0.135972
H146	H	1.356264	0.036555	0.364028
N147	N	0.574693	-0.053378	-0.000015
N148	N	1.074693	0.446622	0.499985
H149	H	0.637814	-0.051635	0.000546
H150	H	1.137814	0.448365	0.500546
H151	H	0.557444	-0.084212	0.054559
H152	H	1.057444	0.415788	0.554559
H153	H	0.962240	-0.025051	0.444283
H154	H	1.462240	0.474949	0.944283
N155	N	1.118863	-0.011416	0.563965
N156	N	1.618863	0.488584	1.063965
H157	H	1.176128	0.000992	0.542252
H158	H	1.676128	0.500992	1.042252
H159	H	1.118102	-0.011355	0.631194
H160	H	1.618102	0.488645	1.131194
N161	N	0.906430	-0.434292	0.154836
N162	N	1.406430	0.065708	0.654836
H163	H	0.846413	-0.406129	0.154780
H164	H	1.346413	0.093871	0.654780
H165	H	0.906187	-0.497605	0.154486
H166	H	1.406187	0.002395	0.654486
H167	H	1.066851	-0.342314	0.134941
H168	H	1.566851	0.157686	0.634941
N169	N	0.541392	0.200713	-0.154852
N170	N	1.041392	0.700713	0.345148
H171	H	0.570104	0.251265	-0.136346
H172	H	1.070104	0.751265	0.363654
H173	H	0.581807	0.161030	-0.191123
H174	H	1.081807	0.661030	0.308877
N175	N	1.160732	-0.467226	0.000185
N176	N	1.660732	0.032774	0.500185
H177	H	1.191162	-0.450746	0.055353
H178	H	1.691162	0.049254	0.555353
H179	H	1.159060	-0.530354	-0.000373
H180	H	1.659060	-0.030354	0.499627
