data_functionalizedCrystal
_audit_creation_method	'MofGen! by Chris Wilmer'
_symmetry_space_group_name_H-M	'P1'
_symmetry_Int_Tables_number	1
_symmetry_cell_setting	triclinic
loop_
_symmetry_equiv_pos_as_xyz
  x,y,z
_cell_length_a	18.050589
_cell_length_b	18.050591
_cell_length_c	11.169409
_cell_angle_alpha	89.967743
_cell_angle_beta	90.032850
_cell_angle_gamma	89.978696
loop_
_atom_site_label
_atom_site_type_symbol
_atom_site_fract_x
_atom_site_fract_y
_atom_site_fract_z
Zn1	Zn	-0.295736	-1.135353	0.678936
Zn2	Zn	-0.419951	-1.135246	0.478251
Zn3	Zn	-0.295765	-1.011154	0.478227
Zn4	Zn	-0.419874	-1.011120	0.678853
O5	O	-0.357832	-1.073218	0.578567
O6	O	-0.312234	-1.239264	0.652360
O7	O	-0.403522	-1.118754	0.310298
O8	O	-0.191836	-1.027689	0.504877
O9	O	-0.403494	-1.239185	0.504918
O10	O	-0.191815	-1.118937	0.652337
O11	O	-0.312282	-1.027585	0.310281
O12	O	-0.312208	-0.907225	0.504796
O13	O	-0.403363	-1.027631	0.846814
O14	O	-0.403390	-0.907200	0.652194
O15	O	-0.312159	-1.118904	0.846875
O16	O	-0.523866	-1.118721	0.504837
O17	O	-0.523809	-1.027527	0.652218
C18	C	-0.357794	-0.880266	0.578484
C19	C	-0.357796	-0.797721	0.578477
C20	C	-0.308143	-0.598262	0.498489
C21	C	-0.375881	-0.548840	0.468957
C22	C	-0.357811	-0.646590	0.578518
C23	C	-0.290089	-0.548931	0.608034
C24	C	-0.357819	-0.500605	0.578555
C25	C	-0.425584	-0.598255	0.548929
C26	C	-0.339746	-0.598351	0.688057
C27	C	-0.407531	-0.548951	0.658567
C28	C	-0.357805	-0.730688	0.578493
C29	C	-0.357832	-0.416509	0.578580
C30	C	-0.550784	-1.073129	0.578547
C31	C	-0.633329	-1.073158	0.578579
C32	C	-0.832776	-1.023616	0.658696
C33	C	-0.882225	-1.005508	0.549175
C34	C	-0.784460	-1.073231	0.578594
C35	C	-0.882092	-1.091375	0.688129
C36	C	-0.930445	-1.073300	0.578619
C37	C	-0.832822	-1.055088	0.469015
C38	C	-0.832684	-1.140987	0.608042
C39	C	-0.882111	-1.122905	0.498445
C40	C	-0.700362	-1.073190	0.578582
C41	C	-1.014541	-1.073342	0.578619
C42	C	-0.164126	-1.073329	0.578613
C43	C	-0.081580	-1.073376	0.578633
C44	C	-0.357749	-1.073276	0.891610
C45	C	-0.357714	-1.073300	1.025010
C46	C	-0.357857	-0.266924	0.578629
C47	C	-0.357835	-0.349470	0.578600
C48	C	-0.357860	-1.073204	0.266742
C49	C	-0.357686	-1.073324	0.133343
H50	H	-0.449585	-0.527435	0.726261
O51	O	-0.806825	-1.209324	0.637860
C52	C	-0.837622	-1.334575	0.693507
C53	C	-0.867008	-1.257215	0.659764
H54	H	-0.886265	-1.373320	0.711201
H55	H	-0.801973	-1.330327	0.777509
H56	H	-0.802863	-1.357360	0.616698
H57	H	-0.901799	-1.234385	0.736495
H58	H	-0.902616	-1.261509	0.575725
H59	H	-0.324438	-0.620114	0.780648
H60	H	-0.903735	-1.106694	0.780750
H61	H	-0.811268	-1.039703	0.376367
H62	H	-0.391169	-0.527094	0.376339
O63	O	-0.258175	-0.624063	0.417512
C64	C	-0.220770	-0.628063	0.210554
C65	C	-0.277417	-0.598810	0.302129
H66	H	-0.236298	-0.607645	0.117249
H67	H	-0.220856	-0.691217	0.211793
H68	H	-0.163182	-0.606941	0.234849
H69	H	-0.335032	-0.619876	0.277897
H70	H	-0.277266	-0.535657	0.300873
H71	H	-0.482877	-0.619831	0.523878
O72	O	-0.221820	-0.522993	0.637948
C73	C	-0.149568	-0.450819	0.776856
C74	C	-0.226927	-0.480128	0.743114
H75	H	-0.153669	-0.416169	0.861899
H76	H	-0.127174	-0.415107	0.700845
H77	H	-0.110578	-0.499533	0.792843
H78	H	-0.265973	-0.431459	0.727146
H79	H	-0.249261	-0.515861	0.819144
H80	H	-0.904002	-0.948241	0.524290
O81	O	-0.807051	-0.973435	0.739409
C82	C	-0.838095	-0.881068	0.886774
C83	C	-0.867329	-0.937859	0.795398
H84	H	-0.886815	-0.852300	0.932084
H85	H	-0.802559	-0.838128	0.838796
H86	H	-0.803258	-0.910776	0.957154
H87	H	-0.902197	-0.908215	0.724994
H88	H	-0.902824	-0.980796	0.843460
O89	O	-0.907764	-1.172913	0.417395
C90	C	-0.911591	-1.210326	0.210426
C91	C	-0.882503	-1.153635	0.302086
H92	H	-0.891166	-1.194770	0.117182
H93	H	-0.974745	-1.210334	0.211477
H94	H	-0.890352	-1.267883	0.234785
H95	H	-0.903687	-1.096051	0.277791
H96	H	-0.819349	-1.153693	0.301018
