data_functionalizedCrystal
_audit_creation_method	'MofGen! by Chris Wilmer'
_symmetry_space_group_name_H-M	'P1'
_symmetry_Int_Tables_number	1
_symmetry_cell_setting	triclinic
loop_
_symmetry_equiv_pos_as_xyz
  x,y,z
_cell_length_a	14.044191
_cell_length_b	14.044190
_cell_length_c	12.503572
_cell_angle_alpha	93.853158
_cell_angle_beta	93.844747
_cell_angle_gamma	86.808223
loop_
_atom_site_label
_atom_site_type_symbol
_atom_site_fract_x
_atom_site_fract_y
_atom_site_fract_z
O1	O	-1.272126	0.235248	0.089292
O2	O	-0.938793	0.568582	0.422626
O3	O	-0.605459	0.901915	0.755959
O4	O	-0.995453	0.226936	0.089305
O5	O	-0.662119	0.560270	0.422638
O6	O	-0.328786	0.893603	0.755972
O7	O	-1.129634	0.092755	0.089278
O8	O	-0.796301	0.426088	0.422611
O9	O	-0.462968	0.759422	0.755944
O10	O	-1.137945	0.369430	0.089320
O11	O	-0.804611	0.702763	0.422653
O12	O	-0.471278	1.036097	0.755986
O13	O	-1.139729	0.082651	-0.089366
O14	O	-0.806396	0.415984	0.243967
O15	O	-0.473062	0.749317	0.577300
O16	O	-1.005548	0.216832	-0.089339
O17	O	-0.672214	0.550165	0.243994
O18	O	-0.338881	0.883499	0.577328
O19	O	-1.282221	0.225144	-0.089352
O20	O	-0.948888	0.558477	0.243982
O21	O	-0.615554	0.891811	0.577315
Cu22	Cu	-1.144806	0.220065	-0.105657
Cu23	Cu	-0.811473	0.553399	0.227676
Cu24	Cu	-0.478139	0.886732	0.561010
Cu25	Cu	-1.132868	0.232015	0.105610
Cu26	Cu	-0.799534	0.565348	0.438944
Cu27	Cu	-0.466201	0.898682	0.772277
O28	O	-1.148039	0.359326	-0.089324
O29	O	-0.814706	0.692659	0.244009
O30	O	-0.481373	1.025992	0.577342
C31	C	-0.964878	0.218248	-0.000016
C32	C	-0.631545	0.551581	0.333318
C33	C	-0.298211	0.884914	0.666651
C34	C	-0.858734	0.207401	-0.000012
C35	C	-0.525401	0.540734	0.333322
C36	C	-0.192068	0.874067	0.666655
C37	C	-1.131045	0.052080	-0.000047
C38	C	-0.797712	0.385414	0.333286
C39	C	-0.464379	0.718747	0.666619
C40	C	-1.120198	-0.054063	-0.000056
C41	C	-0.786865	0.279270	0.333277
C42	C	-0.453532	0.612603	0.666611
C43	C	-1.177297	-0.299518	-0.000017
C44	C	-0.843963	0.033815	0.333317
C45	C	-0.510630	0.367148	0.666650
C46	C	-1.100381	-0.248395	-0.000021
C47	C	-0.767047	0.084938	0.333313
C48	C	-0.433714	0.418272	0.666646
C49	C	-1.111410	-0.140259	-0.000040
C50	C	-0.778076	0.193074	0.333293
C51	C	-0.444743	0.526408	0.666626
C52	C	-1.166269	-0.407664	0.000003
C53	C	-0.832936	-0.074331	0.333336
C54	C	-0.499602	0.259003	0.666670
C55	C	-1.312795	0.233833	-0.000029
C56	C	-0.979462	0.567166	0.333305
C57	C	-0.646129	0.900500	0.666638
C58	C	-1.418939	0.244680	-0.000026
C59	C	-1.085605	0.578014	0.333308
C60	C	-0.752272	0.911347	0.666641
C61	C	-0.613277	0.264501	-0.000014
C62	C	-0.279944	0.597834	0.333320
C63	C	0.053389	0.931168	0.666653
C64	C	-0.664402	0.187584	-0.000023
C65	C	-0.331068	0.520917	0.333310
C66	C	0.002265	0.854251	0.666643
C67	C	-0.772538	0.198613	-0.000017
C68	C	-0.439205	0.531946	0.333316
C69	C	-0.105872	0.865279	0.666650
C70	C	-0.505131	0.253474	-0.000020
C71	C	-0.171797	0.586807	0.333313
C72	C	0.161536	0.920141	0.666646
C73	C	-1.146628	0.400000	0.000003
C74	C	-0.813295	0.733333	0.333336
C75	C	-0.479962	1.066667	0.666670
C76	C	-1.157475	0.506144	0.000019
C77	C	-0.824141	0.839478	0.333352
C78	C	-0.490808	1.172811	0.666686
N79	N	-1.124471	0.240413	0.254204
N80	N	-0.791137	0.573746	0.587538
N81	N	-0.457804	0.907079	0.920871
N82	N	-1.153210	0.211661	-0.254251
N83	N	-0.819876	0.544994	0.079082
N84	N	-0.486543	0.878327	0.412416
C85	C	-1.112111	0.252766	0.473322
C86	C	-0.778777	0.586099	0.806655
C87	C	-0.445444	0.919432	1.139989
C88	C	-1.165567	0.199311	0.526638
C89	C	-0.832234	0.532644	0.859972
C90	C	-0.498900	0.865977	1.193305
C91	C	-1.158690	0.206184	0.648563
C92	C	-0.825356	0.539517	0.981896
C93	C	-0.492023	0.872851	1.315230
C94	C	-1.118987	0.245893	0.351386
C95	C	-0.785654	0.579227	0.684720
C96	C	-0.452320	0.912560	1.018053
H97	H	-1.026247	-0.285840	-0.000011
H98	H	-0.692914	0.047494	0.333322
H99	H	-0.359580	0.380827	0.666656
O100	O	-1.275491	-0.249927	-0.000032
O101	O	-0.942158	0.083406	0.333302
O102	O	-0.608825	0.416739	0.666635
H103	H	-1.318930	-0.275074	-0.072841
H104	H	-0.985596	0.058260	0.260492
H105	H	-0.652263	0.391593	0.593825
H106	H	-0.626953	0.113455	0.000041
H107	H	-0.293619	0.446788	0.333374
H108	H	0.039714	0.780122	0.666708
O109	O	-0.662864	0.362698	0.000015
O110	O	-0.329531	0.696031	0.333348
O111	O	0.003803	1.029365	0.666682
H112	H	-0.741247	0.356059	0.000028
H113	H	-0.407914	0.689392	0.333362
H114	H	-0.074581	1.022726	0.666695
O115	O	-1.233024	0.131840	0.465822
O116	O	-0.899690	0.465173	0.799155
O117	O	-0.566357	0.798507	1.132488
H118	H	-1.227902	0.136949	0.378213
H119	H	-0.894568	0.470282	0.711546
H120	H	-0.561235	0.803615	1.044879
O121	O	-1.044622	0.320195	0.534138
O122	O	-0.711289	0.653528	0.867471
O123	O	-0.377956	0.986862	1.200805
H124	H	-1.049727	0.315059	0.621745
H125	H	-0.716394	0.648393	0.955079
H126	H	-0.383060	0.981726	1.288412
